CLK052D03
 OpenBabel03181413202D

 19 19  0  0  0  0  0  0  0  0999 V2000
    0.7125   -0.5833    0.0000 C   0  0  0  0  0  0  0  0  0  0  0  0
    0.0000   -0.1708    0.0000 C   0  0  0  0  0  0  0  0  0  0  0  0
    0.7125   -1.4083    0.0000 C   0  0  0  0  0  0  0  0  0  0  0  0
    1.4250   -0.1708    0.0000 C   0  0  0  0  0  0  0  0  0  0  0  0
    2.1417    0.2417    0.0000 N   0  0  0  0  0  0  0  0  0  0  0  0
    0.0000    0.6542    0.0000 C   0  0  0  0  0  0  0  0  0  0  0  0
   -2.8583    0.6542    0.0000 C   0  0  0  0  0  0  0  0  0  0  0  0
   -3.5750    0.2417    0.0000 C   0  0  0  0  0  0  0  0  0  0  0  0
    0.0000   -1.8208    0.0000 O   0  0  0  0  0  0  0  0  0  0  0  0
   -0.7167    1.0667    0.0000 C   0  0  0  0  0  0  0  0  0  0  0  0
    1.4250   -1.8208    0.0000 O   0  0  0  0  0  0  0  0  0  0  0  0
   -1.4292    0.6542    0.0000 O   0  0  0  0  0  0  0  0  0  0  0  0
   -2.1458    1.0667    0.0000 C   0  0  0  0  0  0  0  0  0  0  0  0
    0.7125    1.0667    0.0000 C   0  0  0  0  0  0  0  0  0  0  0  0
   -0.7167    1.8917    0.0000 C   0  0  0  0  0  0  0  0  0  0  0  0
    1.4250   -2.6458    0.0000 C   0  0  0  0  0  0  0  0  0  0  0  0
    2.1417   -3.0583    0.0000 C   0  0  0  0  0  0  0  0  0  0  0  0
    0.7125    1.8917    0.0000 C   0  0  0  0  0  0  0  0  0  0  0  0
    0.0000    2.3042    0.0000 C   0  0  0  0  0  0  0  0  0  0  0  0
  2  1  2  0  0  0  0
  3  1  1  0  0  0  0
  4  1  1  0  0  0  0
  5  4  3  0  0  0  0
  6  2  1  0  0  0  0
  7 13  1  0  0  0  0
  8  7  3  0  0  0  0
  9  3  2  0  0  0  0
 10  6  2  0  0  0  0
 11  3  1  0  0  0  0
 12 10  1  0  0  0  0
 13 12  1  0  0  0  0
 14  6  1  0  0  0  0
 15 10  1  0  0  0  0
 16 11  1  0  0  0  0
 17 16  1  0  0  0  0
 18 14  2  0  0  0  0
 19 15  2  0  0  0  0
 19 18  1  0  0  0  0
M  END
> <CdId>
3980

> <Mol Weight>
255.2686

> <Formula>
C15H13NO3

> <Click_ID>
CLK052D03 __ __ 

$$$$
