CLK017_B07
 OpenBabel03181413202D

 27 28  0  0  0  0  0  0  0  0999 V2000
    5.9685   -1.5454    0.0000 N    0  0  0  0  0  0  0  0  0  0  0  0
    6.2274   -2.3348    0.0000 C    0  0  0  0  0  0  0  0  0  0  0  0
    6.6409   -1.0651    0.0000 C    0  0  0  0  0  0  0  0  0  0  0  0
    7.3092   -1.5454    0.0000 C    0  0  0  0  0  0  0  0  0  0  0  0
    7.0544   -2.3348    0.0000 S    0  0  0  0  0  0  0  0  0  0  0  0
    5.1874   -1.2948    0.0000 C    0  0  3  0  0  0  0  0  0  0  0  0
    8.0986   -1.2948    0.0000 C    0  0  0  0  0  0  0  0  0  0  0  0
    8.5956    1.1235    0.0000 C    0  0  0  0  0  0  0  0  0  0  0  0
    9.2013    0.5722    0.0000 C    0  0  0  0  0  0  0  0  0  0  0  0
    7.8230    0.8729    0.0000 C    0  0  0  0  0  0  0  0  0  0  0  0
    5.0120   -0.4887    0.0000 C    0  0  0  0  0  0  0  0  0  0  0  0
    8.2615   -0.4887    0.0000 C    0  0  0  0  0  0  0  0  0  0  0  0
    9.7401    2.9779    0.0000 C    0  0  0  0  0  0  0  0  0  0  0  0
    9.9155    3.7799    0.0000 C    0  0  0  0  0  0  0  0  0  0  0  0
    5.7388   -3.0072    0.0000 O    0  0  0  0  0  0  0  0  0  0  0  0
    6.6326   -0.2381    0.0000 O    0  0  0  0  0  0  0  0  0  0  0  0
    7.6476    0.0627    0.0000 C    0  0  0  0  0  0  0  0  0  0  0  0
    9.0384   -0.2381    0.0000 C    0  0  0  0  0  0  0  0  0  0  0  0
    4.2268   -0.2298    0.0000 O    0  0  0  0  0  0  0  0  0  0  0  0
    9.9907    0.8228    0.0000 Cl   0  0  0  0  0  0  0  0  0  0  0  0
    7.2173    1.4242    0.0000 Cl   0  0  0  0  0  0  0  0  0  0  0  0
    8.7753    1.9254    0.0000 O    0  0  0  0  0  0  0  0  0  0  0  0
    5.6260    0.0710    0.0000 O    0  0  0  0  0  0  0  0  0  0  0  0
    9.5604    2.1760    0.0000 C    0  0  0  0  0  0  0  0  0  0  0  0
    4.5652   -1.8461    0.0000 C    0  0  0  0  0  0  0  0  0  0  0  0
    5.4506    0.8771    0.0000 C    0  0  0  0  0  0  0  0  0  0  0  0
    6.0646    1.4367    0.0000 C    0  0  0  0  0  0  0  0  0  0  0  0
  2  1  1  0  0  0  0
  3  1  1  0  0  0  0
  4  3  1  0  0  0  0
  4  5  1  0  0  0  0
  5  2  1  0  0  0  0
  6  1  1  0  0  0  0
  7  4  2  0  0  0  0
  8  9  1  0  0  0  0
  8 10  2  0  0  0  0
  9 18  2  0  0  0  0
 10 17  1  0  0  0  0
 11  6  1  0  0  0  0
 12  7  1  0  0  0  0
 13 24  1  0  0  0  0
 14 13  3  0  0  0  0
 15  2  2  0  0  0  0
 16  3  2  0  0  0  0
 17 12  2  0  0  0  0
 18 12  1  0  0  0  0
 19 11  2  0  0  0  0
 20  9  1  0  0  0  0
 21 10  1  0  0  0  0
 22  8  1  0  0  0  0
 23 11  1  0  0  0  0
 24 22  1  0  0  0  0
 25  6  1  0  0  0  0
 26 23  1  0  0  0  0
 27 26  1  0  0  0  0
M  END
> <CdId>
1252

> <Mol Weight>
428.286

> <Formula>
C18H15Cl2NO5S

> <Click_ID>
CLK017_B07 __ __ 

$$$$
