CLK046D10
 OpenBabel03181413202D

 24 24  0  0  0  0  0  0  0  0999 V2000
    0.4167    0.2417    0.0000 C   0  0  0  0  0  0  0  0  0  0  0  0
    1.1292    2.3042    0.0000 N   0  3  0  0  0  0  0  0  0  0  0  0
   -0.3000   -0.1708    0.0000 C   0  0  0  0  0  0  0  0  0  0  0  0
    1.1292   -0.1708    0.0000 C   0  0  0  0  0  0  0  0  0  0  0  0
    0.4167    1.0667    0.0000 C   0  0  0  0  0  0  0  0  0  0  0  0
    1.1292    1.4792    0.0000 C   0  0  0  0  0  0  0  0  0  0  0  0
   -1.0125    0.2417    0.0000 N   0  0  0  0  0  0  0  0  0  0  0  0
   -2.4417   -0.5833    0.0000 C   0  0  0  0  0  0  0  0  0  0  0  0
   -3.1583   -0.9958    0.0000 C   0  0  0  0  0  0  0  0  0  0  0  0
    1.8417    0.2417    0.0000 C   0  0  0  0  0  0  0  0  0  0  0  0
    1.8417    2.7167    0.0000 O   0  5  0  0  0  0  0  0  0  0  0  0
   -1.7292   -0.1708    0.0000 C   0  0  0  0  0  0  0  0  0  0  0  0
    0.4167    2.7167    0.0000 O   0  0  0  0  0  0  0  0  0  0  0  0
    1.1292   -0.9958    0.0000 N   0  0  0  0  0  0  0  0  0  0  0  0
   -0.3000   -0.9958    0.0000 O   0  0  0  0  0  0  0  0  0  0  0  0
    1.8417    1.0667    0.0000 C   0  0  0  0  0  0  0  0  0  0  0  0
    1.8417   -1.4083    0.0000 C   0  0  0  0  0  0  0  0  0  0  0  0
    0.4167   -1.4083    0.0000 C   0  0  0  0  0  0  0  0  0  0  0  0
   -2.1417    0.5458    0.0000 C   0  0  0  0  0  0  0  0  0  0  0  0
   -1.3167   -0.8833    0.0000 C   0  0  0  0  0  0  0  0  0  0  0  0
    1.8417   -2.2333    0.0000 C   0  0  0  0  0  0  0  0  0  0  0  0
    0.4167   -2.2333    0.0000 C   0  0  0  0  0  0  0  0  0  0  0  0
   -1.7292    1.2583    0.0000 C   0  0  0  0  0  0  0  0  0  0  0  0
   -1.7292   -1.6000    0.0000 C   0  0  0  0  0  0  0  0  0  0  0  0
  2  6  1  0  0  0  0
  3  1  1  0  0  0  0
  4  1  2  0  0  0  0
  5  1  1  0  0  0  0
  6  5  2  0  0  0  0
  6 16  1  0  0  0  0
  7  3  1  0  0  0  0
  8 12  1  0  0  0  0
  9  8  3  0  0  0  0
 10  4  1  0  0  0  0
 11  2  1  0  0  0  0
 12  7  1  0  0  0  0
 13  2  2  0  0  0  0
 14  4  1  0  0  0  0
 15  3  2  0  0  0  0
 16 10  2  0  0  0  0
 17 14  1  0  0  0  0
 18 14  1  0  0  0  0
 19 12  1  0  0  0  0
 20 12  1  0  0  0  0
 21 17  1  0  0  0  0
 22 18  1  0  0  0  0
 23 19  1  0  0  0  0
 24 20  1  0  0  0  0
M  END
> <CdId>
3556

> <Mol Weight>
331.4094

> <Formula>
C18H25N3O3

> <Click_ID>
CLK046D10 __ __ 

$$$$
