CLK038D05
 OpenBabel03181413202D

 26 28  0  0  0  0  0  0  0  0999 V2000
    0.5667    0.3167    0.0000 C   0  0  0  0  0  0  0  0  0  0  0  0
    0.5667   -0.5083    0.0000 C   0  0  0  0  0  0  0  0  0  0  0  0
   -0.1458    0.7292    0.0000 N   0  0  0  0  0  0  0  0  0  0  0  0
   -0.1458   -0.9208    0.0000 C   0  0  0  0  0  0  0  0  0  0  0  0
   -0.8625   -0.5083    0.0000 N   0  0  0  0  0  0  0  0  0  0  0  0
   -0.8625    0.3167    0.0000 C   0  0  0  0  0  0  0  0  0  0  0  0
    1.3500   -0.7625    0.0000 C   0  0  0  0  0  0  0  0  0  0  0  0
    1.3500    0.5708    0.0000 S   0  0  0  0  0  0  0  0  0  0  0  0
    1.8375   -0.0958    0.0000 C   0  0  0  0  0  0  0  0  0  0  0  0
   -3.0042    4.0250    0.0000 C   0  0  0  0  0  0  0  0  0  0  0  0
    1.6083   -1.5500    0.0000 C   0  0  0  0  0  0  0  0  0  0  0  0
   -3.0042    4.8500    0.0000 C   0  0  0  0  0  0  0  0  0  0  0  0
   -1.5750    0.7292    0.0000 S   0  0  0  0  0  0  0  0  0  0  0  0
   -0.1458   -1.7458    0.0000 O   0  0  0  0  0  0  0  0  0  0  0  0
   -2.2917    1.9667    0.0000 C   0  0  0  0  0  0  0  0  0  0  0  0
   -3.0042    1.5542    0.0000 O   0  0  0  0  0  0  0  0  0  0  0  0
    1.0542   -2.1625    0.0000 C   0  0  0  0  0  0  0  0  0  0  0  0
    2.4125   -1.7208    0.0000 C   0  0  0  0  0  0  0  0  0  0  0  0
   -1.5750    1.5542    0.0000 C   0  0  0  0  0  0  0  0  0  0  0  0
   -2.2917    2.7917    0.0000 N   0  0  0  0  0  0  0  0  0  0  0  0
    2.1167   -3.1167    0.0000 C   0  0  0  0  0  0  0  0  0  0  0  0
    2.6625   -0.0958    0.0000 C   0  0  0  0  0  0  0  0  0  0  0  0
    2.6667   -2.5042    0.0000 C   0  0  0  0  0  0  0  0  0  0  0  0
    1.3083   -2.9458    0.0000 C   0  0  0  0  0  0  0  0  0  0  0  0
    2.3708   -3.9042    0.0000 F   0  0  0  0  0  0  0  0  0  0  0  0
   -3.0042    3.2042    0.0000 C   0  0  0  0  0  0  0  0  0  0  0  0
  2  1  2  0  0  0  0
  3  1  1  0  0  0  0
  4  2  1  0  0  0  0
  5  4  1  0  0  0  0
  5  6  1  0  0  0  0
  6  3  2  0  0  0  0
  7  2  1  0  0  0  0
  7  9  2  0  0  0  0
  8  1  1  0  0  0  0
  9  8  1  0  0  0  0
 10 26  1  0  0  0  0
 11  7  1  0  0  0  0
 12 10  3  0  0  0  0
 13  6  1  0  0  0  0
 14  4  2  0  0  0  0
 15 19  1  0  0  0  0
 16 15  2  0  0  0  0
 17 11  1  0  0  0  0
 18 11  2  0  0  0  0
 19 13  1  0  0  0  0
 20 15  1  0  0  0  0
 21 23  2  0  0  0  0
 21 24  1  0  0  0  0
 22  9  1  0  0  0  0
 23 18  1  0  0  0  0
 24 17  2  0  0  0  0
 25 21  1  0  0  0  0
 26 20  1  0  0  0  0
M  END
> <CdId>
2876

> <Mol Weight>
387.451

> <Formula>
C18H14FN3O2S2

> <Click_ID>
CLK038D05 __ __ 

$$$$
