CLK032_H06
 OpenBabel03181413202D

 27 30  0  0  0  0  0  0  0  0999 V2000
   -1.1649    2.3882    0.0000 C   0  0  0  0  0  0  0  0  0  0  0  0
   -0.3382    2.3799    0.0000 N   0  0  0  0  0  0  0  0  0  0  0  0
   -1.6492    1.7244    0.0000 N   0  0  0  0  0  0  0  0  0  0  0  0
   -1.6492    3.0563    0.0000 S   0  0  0  0  0  0  0  0  0  0  0  0
    0.0752    3.0939    0.0000 C   0  0  0  0  0  0  0  0  0  0  0  0
   -2.4383    2.8016    0.0000 C   0  0  0  0  0  0  0  0  0  0  0  0
   -2.4383    1.9749    0.0000 C   0  0  0  0  0  0  0  0  0  0  0  0
    0.9019    3.0939    0.0000 C   0  0  0  0  0  0  0  0  0  0  0  0
    1.3069    3.8037    0.0000 C   0  0  0  0  0  0  0  0  0  0  0  0
   -3.1523    3.2149    0.0000 C   0  0  0  0  0  0  0  0  0  0  0  0
   -1.9498    0.3215    0.0000 C   0  0  0  0  0  0  0  0  0  0  0  0
   -2.5010   -0.2923    0.0000 C   0  0  0  0  0  0  0  0  0  0  0  0
   -3.1523    1.5615    0.0000 C   0  0  0  0  0  0  0  0  0  0  0  0
   -0.3382    3.8079    0.0000 O   0  0  0  0  0  0  0  0  0  0  0  0
   -1.3987    0.9352    0.0000 C   0  0  0  0  0  0  0  0  0  0  0  0
    2.1336    3.8162    0.0000 C   0  0  0  0  0  0  0  0  0  0  0  0
   -3.8663    2.8016    0.0000 C   0  0  0  0  0  0  0  0  0  0  0  0
   -3.8663    1.9749    0.0000 C   0  0  0  0  0  0  0  0  0  0  0  0
    1.3152    2.3757    0.0000 C   0  0  0  0  0  0  0  0  0  0  0  0
   -4.5928    3.2192    0.0000 O   0  0  0  0  0  0  0  0  0  0  0  0
    0.8935    4.5135    0.0000 C   0  0  0  0  0  0  0  0  0  0  0  0
    2.1336    2.3674    0.0000 C   0  0  0  0  0  0  0  0  0  0  0  0
    2.5595    3.0897    0.0000 C   0  0  0  0  0  0  0  0  0  0  0  0
    2.5470    4.5135    0.0000 C   0  0  0  0  0  0  0  0  0  0  0  0
   -5.2985    2.8058    0.0000 C   0  0  0  0  0  0  0  0  0  0  0  0
    1.2944    5.2233    0.0000 C   0  0  0  0  0  0  0  0  0  0  0  0
    2.1336    5.2275    0.0000 C   0  0  0  0  0  0  0  0  0  0  0  0
  2  1  2  0  0  0  0
  3  1  1  0  0  0  0
  4  1  1  0  0  0  0
  5  2  1  0  0  0  0
  6  4  1  0  0  0  0
  6  7  2  0  0  0  0
  7  3  1  0  0  0  0
  8  5  1  0  0  0  0
  9  8  1  0  0  0  0
 10  6  1  0  0  0  0
 11 15  1  0  0  0  0
 12 11  3  0  0  0  0
 13  7  1  0  0  0  0
 14  5  2  0  0  0  0
 15  3  1  0  0  0  0
 16  9  1  0  0  0  0
 16 23  1  0  0  0  0
 17 10  2  0  0  0  0
 17 18  1  0  0  0  0
 18 13  2  0  0  0  0
 19  8  2  0  0  0  0
 20 17  1  0  0  0  0
 21  9  2  0  0  0  0
 22 19  1  0  0  0  0
 23 22  2  0  0  0  0
 24 16  2  0  0  0  0
 25 20  1  0  0  0  0
 26 21  1  0  0  0  0
 27 26  2  0  0  0  0
 27 24  1  0  0  0  0
M  END
> <CdId>
2480

> <Mol Weight>
372.44

> <Formula>
C22H16N2O2S

> <Click_ID>
CLK032_H06 __ __ 

$$$$
