CLK052A06
 OpenBabel03181413202D

 29 31  0  0  0  0  0  0  0  0999 V2000
   -0.0708    0.8625    0.0000 N   0  0  0  0  0  0  0  0  0  0  0  0
    0.4167    1.5292    0.0000 C   0  0  0  0  0  0  0  0  0  0  0  0
    1.2000    1.2750    0.0000 N   0  0  0  0  0  0  0  0  0  0  0  0
    0.4167    0.1917    0.0000 C   0  0  0  0  0  0  0  0  0  0  0  0
    1.2000    0.4500    0.0000 N   0  0  0  0  0  0  0  0  0  0  0  0
    0.1625    2.3125    0.0000 N   0  0  0  0  0  0  0  0  0  0  0  0
    0.5000   -4.1708    0.0000 C   0  0  0  0  0  0  0  0  0  0  0  0
   -0.8958    0.8625    0.0000 C   0  0  0  0  0  0  0  0  0  0  0  0
    0.1625   -0.5917    0.0000 S   0  0  0  0  0  0  0  0  0  0  0  0
    0.2458   -4.9542    0.0000 C   0  0  0  0  0  0  0  0  0  0  0  0
    0.4583   -1.9875    0.0000 C   0  0  0  0  0  0  0  0  0  0  0  0
    1.0083   -2.6000    0.0000 N   0  0  0  0  0  0  0  0  0  0  0  0
    0.7542   -3.3875    0.0000 C   0  0  0  0  0  0  0  0  0  0  0  0
   -0.3500   -2.1625    0.0000 O   0  0  0  0  0  0  0  0  0  0  0  0
   -2.1250    1.6625    0.0000 O   0  0  0  0  0  0  0  0  0  0  0  0
    0.7125   -1.2042    0.0000 C   0  0  0  0  0  0  0  0  0  0  0  0
   -1.3083    1.5750    0.0000 C   0  0  3  0  0  0  0  0  0  0  0  0
    0.7125    2.9250    0.0000 C   0  0  0  0  0  0  0  0  0  0  0  0
   -0.6458    2.4833    0.0000 C   0  0  0  0  0  0  0  0  0  0  0  0
    1.5417   -3.6417    0.0000 C   0  0  0  0  0  0  0  0  0  0  0  0
   -0.0292   -3.1333    0.0000 C   0  0  0  0  0  0  0  0  0  0  0  0
   -2.3000    2.4667    0.0000 C   0  0  0  0  0  0  0  0  0  0  0  0
   -0.9708    2.3292    0.0000 C   0  0  0  0  0  0  0  0  0  0  0  0
   -0.9000    3.2708    0.0000 C   0  0  0  0  0  0  0  0  0  0  0  0
    0.4583    3.7125    0.0000 C   0  0  0  0  0  0  0  0  0  0  0  0
    1.7125   -4.4500    0.0000 C   0  0  0  0  0  0  0  0  0  0  0  0
   -0.2000   -2.3250    0.0000 C   0  0  0  0  0  0  0  0  0  0  0  0
   -1.5833    2.8792    0.0000 C   0  0  0  0  0  0  0  0  0  0  0  0
   -0.3500    3.8833    0.0000 C   0  0  0  0  0  0  0  0  0  0  0  0
  2  1  1  0  0  0  0
  3  2  2  0  0  0  0
  3  5  1  0  0  0  0
  4  1  1  0  0  0  0
  5  4  2  0  0  0  0
  6  2  1  0  0  0  0
  7 13  1  0  0  0  0
  8  1  1  0  0  0  0
  9  4  1  0  0  0  0
 10  7  3  0  0  0  0
 11 16  1  0  0  0  0
 12 11  1  0  0  0  0
 13 12  1  0  0  0  0
 14 11  2  0  0  0  0
 15 17  1  0  0  0  0
 16  9  1  0  0  0  0
 17  8  1  0  0  0  0
 18  6  1  0  0  0  0
 19  6  1  0  0  0  0
 20 13  1  0  0  0  0
 21 13  1  0  0  0  0
 22 15  1  0  0  0  0
 22 28  1  0  0  0  0
 23 17  1  0  0  0  0
 24 19  1  0  0  0  0
 25 18  1  0  0  0  0
 26 20  1  0  0  0  0
 27 21  1  0  0  0  0
 28 23  1  0  0  0  0
 29 24  1  0  0  0  0
 29 25  1  0  0  0  0
M  END
> <CdId>
4001

> <Mol Weight>
419.584

> <Formula>
C21H33N5O2S

> <Click_ID>
CLK052A06 __ __ 

$$$$
