CLK018_F03
 OpenBabel03181413202D

 20 21  0  0  0  0  0  0  0  0999 V2000
    4.1917   -4.8375    0.0000 C   0  0  0  0  0  0  0  0  0  0  0  0
    4.9042   -5.2417    0.0000 C   0  0  0  0  0  0  0  0  0  0  0  0
    3.2875   -3.8500    0.0000 N   0  0  0  0  0  0  0  0  0  0  0  0
    3.4167   -5.1792    0.0000 C   0  0  0  0  0  0  0  0  0  0  0  0
    2.8667   -4.5667    0.0000 O   0  0  0  0  0  0  0  0  0  0  0  0
    4.1000   -4.0250    0.0000 C   0  0  0  0  0  0  0  0  0  0  0  0
    4.9125   -6.0667    0.0000 C   0  0  0  0  0  0  0  0  0  0  0  0
    5.6250   -6.4792    0.0000 C   0  0  0  0  0  0  0  0  0  0  0  0
    7.0375   -4.8250    0.0000 C   0  0  0  0  0  0  0  0  0  0  0  0
    7.7542   -4.4167    0.0000 C   0  0  0  0  0  0  0  0  0  0  0  0
    3.2500   -5.9917    0.0000 O   0  0  0  0  0  0  0  0  0  0  0  0
    5.6250   -7.3042    0.0000 C   0  0  0  0  0  0  0  0  0  0  0  0
    6.3292   -6.0667    0.0000 O   0  0  0  0  0  0  0  0  0  0  0  0
    6.3417   -7.7125    0.0000 O   0  0  0  0  0  0  0  0  0  0  0  0
    6.3250   -5.2417    0.0000 C   0  0  0  0  0  0  0  0  0  0  0  0
    4.1917   -6.4792    0.0000 C   0  0  0  0  0  0  0  0  0  0  0  0
    4.7167   -3.4667    0.0000 C   0  0  0  0  0  0  0  0  0  0  0  0
    4.1917   -7.3042    0.0000 C   0  0  0  0  0  0  0  0  0  0  0  0
    4.9125   -7.7167    0.0000 C   0  0  0  0  0  0  0  0  0  0  0  0
    6.3417   -8.5375    0.0000 C   0  0  0  0  0  0  0  0  0  0  0  0
  2  1  2  0  0  0  0
  3  6  2  0  0  0  0
  3  5  1  0  0  0  0
  4  1  1  0  0  0  0
  5  4  1  0  0  0  0
  6  1  1  0  0  0  0
  7  2  1  0  0  0  0
  8  7  2  0  0  0  0
  9 15  1  0  0  0  0
 10  9  3  0  0  0  0
 11  4  2  0  0  0  0
 12  8  1  0  0  0  0
 13  8  1  0  0  0  0
 14 12  1  0  0  0  0
 15 13  1  0  0  0  0
 16  7  1  0  0  0  0
 17  6  1  0  0  0  0
 18 16  2  0  0  0  0
 19 18  1  0  0  0  0
 19 12  2  0  0  0  0
 20 14  1  0  0  0  0
M  END
> <CdId>
1368

> <Mol Weight>
271.268

> <Formula>
C15H13NO4

> <Click_ID>
CLK018_F03 __ __ 

$$$$
