CLK040A04
 OpenBabel03181413202D

 24 26  0  0  0  0  0  0  0  0999 V2000
    0.0583    0.1375    0.0000 N   0  0  0  0  0  0  0  0  0  0  0  0
   -0.6583   -0.2750    0.0000 C   0  0  0  0  0  0  0  0  0  0  0  0
    0.0583    0.9625    0.0000 N   0  0  0  0  0  0  0  0  0  0  0  0
   -0.6583    1.3750    0.0000 C   0  0  0  0  0  0  0  0  0  0  0  0
   -1.3708    0.1375    0.0000 C   0  0  0  0  0  0  0  0  0  0  0  0
   -1.3708    0.9625    0.0000 C   0  0  0  0  0  0  0  0  0  0  0  0
   -0.6583   -1.1000    0.0000 C   0  0  0  0  0  0  0  0  0  0  0  0
    0.7708   -2.7500    0.0000 C   0  0  0  0  0  0  0  0  0  0  0  0
    0.7708    1.3750    0.0000 C   0  0  0  0  0  0  0  0  0  0  0  0
    1.4875   -3.1625    0.0000 C   0  0  0  0  0  0  0  0  0  0  0  0
   -0.6583    2.2042    0.0000 O   0  0  0  0  0  0  0  0  0  0  0  0
   -1.3708   -1.5125    0.0000 O   0  0  0  0  0  0  0  0  0  0  0  0
    0.0583   -1.5125    0.0000 N   0  0  0  0  0  0  0  0  0  0  0  0
    1.4875    0.9625    0.0000 C   0  0  0  0  0  0  0  0  0  0  0  0
    0.0583   -2.3375    0.0000 C   0  0  0  0  0  0  0  0  0  0  0  0
   -2.0875   -0.2750    0.0000 C   0  0  0  0  0  0  0  0  0  0  0  0
   -2.0875    1.3750    0.0000 C   0  0  0  0  0  0  0  0  0  0  0  0
    1.4875    0.1375    0.0000 C   0  0  0  0  0  0  0  0  0  0  0  0
    2.2000    1.3750    0.0000 C   0  0  0  0  0  0  0  0  0  0  0  0
   -2.8000    0.9625    0.0000 C   0  0  0  0  0  0  0  0  0  0  0  0
   -2.8000    0.1375    0.0000 C   0  0  0  0  0  0  0  0  0  0  0  0
    2.9167    0.9625    0.0000 C   0  0  0  0  0  0  0  0  0  0  0  0
    2.2000   -0.2750    0.0000 C   0  0  0  0  0  0  0  0  0  0  0  0
    2.9167    0.1375    0.0000 C   0  0  0  0  0  0  0  0  0  0  0  0
  2  1  2  0  0  0  0
  3  1  1  0  0  0  0
  4  3  1  0  0  0  0
  5  2  1  0  0  0  0
  5  6  2  0  0  0  0
  6  4  1  0  0  0  0
  7  2  1  0  0  0  0
  8 15  1  0  0  0  0
  9  3  1  0  0  0  0
 10  8  3  0  0  0  0
 11  4  2  0  0  0  0
 12  7  2  0  0  0  0
 13  7  1  0  0  0  0
 14  9  1  0  0  0  0
 15 13  1  0  0  0  0
 16  5  1  0  0  0  0
 17  6  1  0  0  0  0
 18 14  1  0  0  0  0
 19 14  2  0  0  0  0
 20 17  2  0  0  0  0
 21 16  2  0  0  0  0
 21 20  1  0  0  0  0
 22 19  1  0  0  0  0
 23 18  2  0  0  0  0
 24 22  2  0  0  0  0
 24 23  1  0  0  0  0
M  END
> <CdId>
3025

> <Mol Weight>
317.3413

> <Formula>
C19H15N3O2

> <Click_ID>
CLK040A04 __ __ 

$$$$
