CLK039F11
 OpenBabel03181413202D

 24 25  0  0  0  0  0  0  0  0999 V2000
   -1.2833    1.9875    0.0000 S   0  0  0  0  0  0  0  0  0  0  0  0
    1.5750   -2.9625    0.0000 C   0  0  0  0  0  0  0  0  0  0  0  0
   -0.5667    1.5750    0.0000 C   0  0  0  0  0  0  0  0  0  0  0  0
    0.1458   -0.4875    0.0000 C   0  0  0  0  0  0  0  0  0  0  0  0
    1.5750   -2.1375    0.0000 C   0  0  0  0  0  0  0  0  0  0  0  0
    2.2417   -3.4458    0.0000 N   0  0  0  0  0  0  0  0  0  0  0  0
   -2.7125    3.6375    0.0000 C   0  0  0  0  0  0  0  0  0  0  0  0
    0.1458    0.3375    0.0000 C   0  0  0  0  0  0  0  0  0  0  0  0
   -0.5667    0.7500    0.0000 C   0  0  0  0  0  0  0  0  0  0  0  0
   -3.4250    4.0458    0.0000 C   0  0  0  0  0  0  0  0  0  0  0  0
   -1.6958    1.2708    0.0000 O   0  0  0  0  0  0  0  0  0  0  0  0
   -0.8708    2.7000    0.0000 O   0  0  0  0  0  0  0  0  0  0  0  0
    0.8625   -0.9000    0.0000 O   0  0  0  0  0  0  0  0  0  0  0  0
   -1.9958    2.4000    0.0000 N   0  0  0  0  0  0  0  0  0  0  0  0
    0.8625   -1.7250    0.0000 C   0  0  0  0  0  0  0  0  0  0  0  0
    0.9083   -3.4458    0.0000 C   0  0  0  0  0  0  0  0  0  0  0  0
    1.9875   -4.2333    0.0000 C   0  0  0  0  0  0  0  0  0  0  0  0
   -0.5667   -0.9000    0.0000 O   0  0  0  0  0  0  0  0  0  0  0  0
    2.2917   -1.7250    0.0000 O   0  0  0  0  0  0  0  0  0  0  0  0
    1.1625   -4.2333    0.0000 C   0  0  0  0  0  0  0  0  0  0  0  0
   -1.9958    3.2250    0.0000 C   0  0  0  0  0  0  0  0  0  0  0  0
    0.1458    1.9875    0.0000 C   0  0  0  0  0  0  0  0  0  0  0  0
    0.8625    0.7500    0.0000 C   0  0  0  0  0  0  0  0  0  0  0  0
    0.8625    1.5750    0.0000 C   0  0  0  0  0  0  0  0  0  0  0  0
  2  5  1  0  0  0  0
  3  1  1  0  0  0  0
  4  8  1  0  0  0  0
  5 15  1  0  0  0  0
  6  2  1  0  0  0  0
  7 21  1  0  0  0  0
  8  9  2  0  0  0  0
  9  3  1  0  0  0  0
 10  7  3  0  0  0  0
 11  1  2  0  0  0  0
 12  1  2  0  0  0  0
 13  4  1  0  0  0  0
 14  1  1  0  0  0  0
 15 13  1  0  0  0  0
 16  2  2  0  0  0  0
 17  6  1  0  0  0  0
 17 20  2  0  0  0  0
 18  4  2  0  0  0  0
 19  5  2  0  0  0  0
 20 16  1  0  0  0  0
 21 14  1  0  0  0  0
 22  3  2  0  0  0  0
 23  8  1  0  0  0  0
 24 22  1  0  0  0  0
 24 23  2  0  0  0  0
M  END
> <CdId>
3006

> <Mol Weight>
346.358

> <Formula>
C16H14N2O5S

> <Click_ID>
CLK039F11 __ __ 

$$$$
