CLK005_B07
 OpenBabel03181413202D

 27 30  0  0  0  0  0  0  0  0999 V2000
   -0.7005   -0.1144    0.0000 C   0  0  0  0  0  0  0  0  0  0  0  0
    0.1283   -0.1144    0.0000 C   0  0  0  0  0  0  0  0  0  0  0  0
   -1.1131   -0.8323    0.0000 C   0  0  0  0  0  0  0  0  0  0  0  0
   -1.1131    0.6000    0.0000 C   0  0  0  0  0  0  0  0  0  0  0  0
    1.0993    0.8531    0.0000 C   0  0  0  0  0  0  0  0  0  0  0  0
    0.6901   -0.6693    0.0000 C   0  0  0  0  0  0  0  0  0  0  0  0
   -0.8634   -1.6194    0.0000 C   0  0  0  0  0  0  0  0  0  0  0  0
   -1.9454   -0.8287    0.0000 C   0  0  0  0  0  0  0  0  0  0  0  0
   -0.8565    1.3940    0.0000 C   0  0  0  0  0  0  0  0  0  0  0  0
   -1.9454    0.6034    0.0000 C   0  0  0  0  0  0  0  0  0  0  0  0
    1.6507    0.2983    0.0000 C   0  0  0  0  0  0  0  0  0  0  0  0
    1.3004    1.6194    0.0000 C   0  0  0  0  0  0  0  0  0  0  0  0
    1.4495   -0.4681    0.0000 N   0  0  0  0  0  0  0  0  0  0  0  0
   -1.5327   -2.1015    0.0000 N   0  0  0  0  0  0  0  0  0  0  0  0
   -0.0728   -1.8830    0.0000 C   0  0  0  0  0  0  0  0  0  0  0  0
   -2.1951   -1.6124    0.0000 N   0  0  0  0  0  0  0  0  0  0  0  0
   -2.7499   -0.6068    0.0000 O   0  0  0  0  0  0  0  0  0  0  0  0
   -1.5293    1.8760    0.0000 N   0  0  0  0  0  0  0  0  0  0  0  0
   -0.0625    1.6471    0.0000 C   0  0  0  0  0  0  0  0  0  0  0  0
   -2.1951    1.3940    0.0000 N   0  0  0  0  0  0  0  0  0  0  0  0
   -2.6667    0.1977    0.0000 O   0  0  0  0  0  0  0  0  0  0  0  0
    2.4170    0.4994    0.0000 C   0  0  0  0  0  0  0  0  0  0  0  0
    2.0598    1.8240    0.0000 C   0  0  0  0  0  0  0  0  0  0  0  0
    2.0113   -1.0195    0.0000 C   0  0  0  0  0  0  0  0  0  0  0  0
    2.6285    1.2657    0.0000 C   0  0  0  0  0  0  0  0  0  0  0  0
    2.7707   -0.8184    0.0000 C   0  0  0  0  0  0  0  0  0  0  0  0
    3.3325   -1.3801    0.0000 C   0  0  0  0  0  0  0  0  0  0  0  0
  1  2  1  0  0  0  0
  1  3  1  0  0  0  0
  1  4  1  0  0  0  0
  2  5  1  0  0  0  0
  2  6  2  0  0  0  0
  3  7  1  0  0  0  0
  3  8  2  0  0  0  0
  4  9  1  0  0  0  0
  4 10  2  0  0  0  0
  5 11  2  0  0  0  0
  5 12  1  0  0  0  0
  6 13  1  0  0  0  0
  7 14  2  0  0  0  0
  7 15  1  0  0  0  0
  8 16  1  0  0  0  0
  8 17  1  0  0  0  0
  9 18  2  0  0  0  0
  9 19  1  0  0  0  0
 10 20  1  0  0  0  0
 10 21  1  0  0  0  0
 11 22  1  0  0  0  0
 11 13  1  0  0  0  0
 12 23  2  0  0  0  0
 13 24  1  0  0  0  0
 14 16  1  0  0  0  0
 18 20  1  0  0  0  0
 22 25  2  0  0  0  0
 23 25  1  0  0  0  0
 24 26  1  0  0  0  0
 26 27  3  0  0  0  0
M  END
> <CdId>
336

> <Mol Weight>
361.3972

> <Formula>
C20H19N5O2

> <Click_ID>
CLK005_B07 __ __ 

$$$$
