CLK002_B06
 OpenBabel03181413202D

 21 22  0  0  0  0  0  0  0  0999 V2000
   -1.1920   -0.8047    0.0000 C    0  0  0  0  0  0  0  0  0  0  0  0
   -0.4783   -1.2186    0.0000 C    0  0  0  0  0  0  0  0  0  0  0  0
   -1.1920    0.0189    0.0000 C    0  0  0  0  0  0  0  0  0  0  0  0
   -1.9095   -1.2186    0.0000 C    0  0  0  0  0  0  0  0  0  0  0  0
    0.2391   -0.8047    0.0000 C    0  0  0  0  0  0  0  0  0  0  0  0
   -1.9095    0.4328    0.0000 N    0  0  0  0  0  0  0  0  0  0  0  0
   -0.4783    0.4328    0.0000 O    0  0  0  0  0  0  0  0  0  0  0  0
   -2.6232   -0.8047    0.0000 N    0  0  0  0  0  0  0  0  0  0  0  0
   -1.9095   -2.0461    0.0000 O    0  0  0  0  0  0  0  0  0  0  0  0
    0.2391    0.0189    0.0000 C    0  0  0  0  0  0  0  0  0  0  0  0
    0.9528   -1.2186    0.0000 C    0  0  0  0  0  0  0  0  0  0  0  0
   -2.6232    0.0189    0.0000 C    0  0  0  0  0  0  0  0  0  0  0  0
    0.9528    0.4328    0.0000 C    0  0  0  0  0  0  0  0  0  0  0  0
    1.6703   -0.8047    0.0000 C    0  0  0  0  0  0  0  0  0  0  0  0
   -3.3406    0.4328    0.0000 O    0  0  0  0  0  0  0  0  0  0  0  0
    1.6703    0.0189    0.0000 C    0  0  0  0  0  0  0  0  0  0  0  0
    0.9528    1.2566    0.0000 Cl   0  0  0  0  0  0  0  0  0  0  0  0
    2.3840    0.4328    0.0000 O    0  0  0  0  0  0  0  0  0  0  0  0
    2.3840    1.2566    0.0000 C    0  0  0  0  0  0  0  0  0  0  0  0
    3.1014    1.6703    0.0000 C    0  0  0  0  0  0  0  0  0  0  0  0
    3.1014    2.4979    0.0000 C    0  0  0  0  0  0  0  0  0  0  0  0
  1  2  2  0  0  0  0
  1  3  1  0  0  0  0
  1  4  1  0  0  0  0
  2  5  1  0  0  0  0
  3  6  1  0  0  0  0
  3  7  2  0  0  0  0
  4  8  1  0  0  0  0
  4  9  2  0  0  0  0
  5 10  2  0  0  0  0
  5 11  1  0  0  0  0
  6 12  1  0  0  0  0
  8 12  1  0  0  0  0
 10 13  1  0  0  0  0
 11 14  2  0  0  0  0
 12 15  2  0  0  0  0
 13 16  2  0  0  0  0
 13 17  1  0  0  0  0
 14 16  1  0  0  0  0
 16 18  1  0  0  0  0
 18 19  1  0  0  0  0
 19 20  1  0  0  0  0
 20 21  3  0  0  0  0
M  END
> <CdId>
95

> <Mol Weight>
304.685

> <Formula>
C14H9ClN2O4

> <Click_ID>
CLK002_B06 __ __ 

$$$$
