CLK025_A09
 OpenBabel03181413202D

 26 29  0  0  0  0  0  0  0  0999 V2000
    0.2867    0.5981    0.0000 C   0  0  0  0  0  0  0  0  0  0  0  0
    1.0192   -0.6300    0.0000 C   0  0  0  0  0  0  0  0  0  0  0  0
    0.2937   -0.2230    0.0000 C   0  0  3  0  0  0  0  0  0  0  0  0
    1.7235   -0.2088    0.0000 C   0  0  0  0  0  0  0  0  0  0  0  0
    0.9910    1.0192    0.0000 C   0  0  0  0  0  0  0  0  0  0  0  0
    1.7094    0.6194    0.0000 O   0  0  0  0  0  0  0  0  0  0  0  0
   -0.9803   -0.9874    0.0000 C   0  0  0  0  0  0  0  0  0  0  0  0
   -0.4389    1.0051    0.0000 C   0  0  0  0  0  0  0  0  0  0  0  0
    1.0192   -1.4475    0.0000 C   0  0  0  0  0  0  0  0  0  0  0  0
   -2.4561    1.4758    0.0000 C   0  0  0  0  0  0  0  0  0  0  0  0
   -1.7518    1.9040    0.0000 C   0  0  0  0  0  0  0  0  0  0  0  0
   -1.7129   -0.5804    0.0000 C   0  0  0  0  0  0  0  0  0  0  0  0
    0.3008   -1.8757    0.0000 O   0  0  0  0  0  0  0  0  0  0  0  0
   -1.1573    0.5804    0.0000 O   0  0  0  0  0  0  0  0  0  0  0  0
    2.4384   -0.6087    0.0000 C   0  0  0  0  0  0  0  0  0  0  0  0
    0.9768    1.8474    0.0000 C   0  0  0  0  0  0  0  0  0  0  0  0
   -1.7200    0.2478    0.0000 O   0  0  0  0  0  0  0  0  0  0  0  0
   -2.4419    0.6476    0.0000 C   0  0  0  0  0  0  0  0  0  0  0  0
   -0.9768   -1.8155    0.0000 C   0  0  0  0  0  0  0  0  0  0  0  0
   -0.4424    1.8261    0.0000 C   0  0  0  0  0  0  0  0  0  0  0  0
    1.7483   -1.8580    0.0000 C   0  0  0  0  0  0  0  0  0  0  0  0
    2.4526   -1.4333    0.0000 C   0  0  0  0  0  0  0  0  0  0  0  0
    0.2619    2.2473    0.0000 C   0  0  0  0  0  0  0  0  0  0  0  0
   -2.4243   -1.0086    0.0000 C   0  0  0  0  0  0  0  0  0  0  0  0
   -1.6846   -2.2438    0.0000 C   0  0  0  0  0  0  0  0  0  0  0  0
   -2.4101   -1.8332    0.0000 C   0  0  0  0  0  0  0  0  0  0  0  0
  2  3  1  0  0  0  0
  2  4  2  0  0  0  0
  3  1  1  0  0  0  0
  4  6  1  0  0  0  0
  5  1  2  0  0  0  0
  6  5  1  0  0  0  0
  7  3  1  0  0  0  0
  8  1  1  0  0  0  0
  9  2  1  0  0  0  0
 10 18  1  0  0  0  0
 11 10  3  0  0  0  0
 12  7  1  0  0  0  0
 13  9  2  0  0  0  0
 14  8  2  0  0  0  0
 15  4  1  0  0  0  0
 16  5  1  0  0  0  0
 17 12  1  0  0  0  0
 18 17  1  0  0  0  0
 19  7  2  0  0  0  0
 20  8  1  0  0  0  0
 21  9  1  0  0  0  0
 21 22  1  0  0  0  0
 22 15  1  0  0  0  0
 23 20  1  0  0  0  0
 23 16  1  0  0  0  0
 24 12  2  0  0  0  0
 24 26  1  0  0  0  0
 25 19  1  0  0  0  0
 26 25  2  0  0  0  0
M  END
> <CdId>
1864

> <Mol Weight>
348.3918

> <Formula>
C22H20O4

> <Click_ID>
CLK025_A09 __ __ 

$$$$
