CLK033_B11
 OpenBabel03181413202D

 26 28  0  0  0  0  0  0  0  0999 V2000
   -4.5726    2.5440    0.0000 C   0  0  0  0  0  0  0  0  0  0  0  0
   -3.8618    2.9639    0.0000 N   0  0  0  0  0  0  0  0  0  0  0  0
   -4.6641    1.7293    0.0000 N   0  0  0  0  0  0  0  0  0  0  0  0
   -5.3084    2.8890    0.0000 S   0  0  0  0  0  0  0  0  0  0  0  0
   -5.4705    1.5671    0.0000 C   0  0  0  0  0  0  0  0  0  0  0  0
   -5.8696    2.2904    0.0000 C   0  0  0  0  0  0  0  0  0  0  0  0
   -3.8618    3.7911    0.0000 C   0  0  0  0  0  0  0  0  0  0  0  0
   -6.6885    2.3029    0.0000 C   0  0  0  0  0  0  0  0  0  0  0  0
   -4.2359    0.3492    0.0000 C   0  0  0  0  0  0  0  0  0  0  0  0
   -4.4105   -0.4531    0.0000 C   0  0  0  0  0  0  0  0  0  0  0  0
   -5.8945    0.8688    0.0000 C   0  0  0  0  0  0  0  0  0  0  0  0
   -3.1509    4.2027    0.0000 C   0  0  0  0  0  0  0  0  0  0  0  0
   -7.1126    1.5963    0.0000 C   0  0  0  0  0  0  0  0  0  0  0  0
   -1.7085    5.0175    0.0000 C   0  0  0  0  0  0  0  0  0  0  0  0
   -0.9935    5.4373    0.0000 C   0  0  0  0  0  0  0  0  0  0  0  0
   -4.5851    4.2027    0.0000 O   0  0  0  0  0  0  0  0  0  0  0  0
   -6.7010    0.8812    0.0000 C   0  0  0  0  0  0  0  0  0  0  0  0
   -4.0488    1.1598    0.0000 C   0  0  0  0  0  0  0  0  0  0  0  0
   -0.2826    5.0299    0.0000 O   0  0  0  0  0  0  0  0  0  0  0  0
   -3.1426    5.0299    0.0000 C   0  0  0  0  0  0  0  0  0  0  0  0
   -2.4318    3.7994    0.0000 C   0  0  0  0  0  0  0  0  0  0  0  0
   -2.4276    5.4415    0.0000 C   0  0  0  0  0  0  0  0  0  0  0  0
   -1.7168    4.2027    0.0000 C   0  0  0  0  0  0  0  0  0  0  0  0
   -7.0876    3.0262    0.0000 C   0  0  0  0  0  0  0  0  0  0  0  0
   -0.9935    6.2645    0.0000 C   0  0  0  0  0  0  0  0  0  0  0  0
   -7.1001    0.1579    0.0000 C   0  0  0  0  0  0  0  0  0  0  0  0
  2  1  2  0  0  0  0
  3  1  1  0  0  0  0
  4  1  1  0  0  0  0
  5  3  1  0  0  0  0
  6  4  1  0  0  0  0
  6  5  2  0  0  0  0
  7  2  1  0  0  0  0
  8  6  1  0  0  0  0
  9 18  1  0  0  0  0
 10  9  3  0  0  0  0
 11  5  1  0  0  0  0
 12  7  1  0  0  0  0
 13  8  2  0  0  0  0
 14 23  2  0  0  0  0
 14 22  1  0  0  0  0
 15 14  1  0  0  0  0
 16  7  2  0  0  0  0
 17 11  2  0  0  0  0
 17 13  1  0  0  0  0
 18  3  1  0  0  0  0
 19 15  2  0  0  0  0
 20 12  1  0  0  0  0
 21 12  2  0  0  0  0
 22 20  2  0  0  0  0
 23 21  1  0  0  0  0
 24  8  1  0  0  0  0
 25 15  1  0  0  0  0
 26 17  1  0  0  0  0
M  END
> <CdId>
2505

> <Mol Weight>
362.445

> <Formula>
C21H18N2O2S

> <Click_ID>
CLK033_B11 __ __ 

$$$$
