CLK043G07
 OpenBabel03181413202D

 27 29  0  0  0  0  0  0  0  0999 V2000
   -0.1461    0.5051    0.0000 C   0  0  0  0  0  0  0  0  0  0  0  0
    0.3381    1.1770    0.0000 N   0  0  0  0  0  0  0  0  0  0  0  0
    0.3381   -0.1628    0.0000 C   0  0  0  0  0  0  0  0  0  0  0  0
    1.1227    0.9183    0.0000 N   0  0  0  0  0  0  0  0  0  0  0  0
    1.1227    0.0919    0.0000 C   0  0  0  0  0  0  0  0  0  0  0  0
    0.0834   -0.9474    0.0000 C   0  0  0  0  0  0  0  0  0  0  0  0
   -0.9725    0.5051    0.0000 C   0  0  0  0  0  0  0  0  0  0  0  0
   -0.7263   -1.1186    0.0000 C   0  0  0  0  0  0  0  0  0  0  0  0
   -2.6253    1.9366    0.0000 C   0  0  0  0  0  0  0  0  0  0  0  0
   -3.0385    2.6546    0.0000 C   0  0  0  0  0  0  0  0  0  0  0  0
   -0.9809   -1.9033    0.0000 C   0  0  0  0  0  0  0  0  0  0  0  0
    1.7948    1.4066    0.0000 C   0  0  0  0  0  0  0  0  0  0  0  0
   -0.4257   -2.5210    0.0000 C   0  0  0  0  0  0  0  0  0  0  0  0
    0.6344   -1.5610    0.0000 C   0  0  0  0  0  0  0  0  0  0  0  0
   -1.3857   -0.2087    0.0000 O   0  0  0  0  0  0  0  0  0  0  0  0
    0.3799   -2.3457    0.0000 C   0  0  0  0  0  0  0  0  0  0  0  0
   -1.3857    1.2229    0.0000 N   0  0  0  0  0  0  0  0  0  0  0  0
   -1.7906   -2.0786    0.0000 O   0  0  0  0  0  0  0  0  0  0  0  0
   -2.2121    1.2229    0.0000 C   0  0  0  0  0  0  0  0  0  0  0  0
   -0.6845   -3.3057    0.0000 O   0  0  0  0  0  0  0  0  0  0  0  0
    2.5461    1.0685    0.0000 C   0  0  0  0  0  0  0  0  0  0  0  0
    1.7071    2.2288    0.0000 C   0  0  0  0  0  0  0  0  0  0  0  0
   -2.3415   -1.4650    0.0000 C   0  0  0  0  0  0  0  0  0  0  0  0
   -0.1294   -3.9193    0.0000 C   0  0  0  0  0  0  0  0  0  0  0  0
    2.3749    2.7130    0.0000 C   0  0  0  0  0  0  0  0  0  0  0  0
    3.2180    1.5569    0.0000 C   0  0  0  0  0  0  0  0  0  0  0  0
    3.1304    2.3791    0.0000 C   0  0  0  0  0  0  0  0  0  0  0  0
  2  1  2  0  0  0  0
  3  1  1  0  0  0  0
  4  2  1  0  0  0  0
  4  5  1  0  0  0  0
  5  3  2  0  0  0  0
  6  3  1  0  0  0  0
  7  1  1  0  0  0  0
  8  6  2  0  0  0  0
  9 19  1  0  0  0  0
 10  9  3  0  0  0  0
 11  8  1  0  0  0  0
 12  4  1  0  0  0  0
 13 11  2  0  0  0  0
 14  6  1  0  0  0  0
 15  7  2  0  0  0  0
 16 14  2  0  0  0  0
 16 13  1  0  0  0  0
 17  7  1  0  0  0  0
 18 11  1  0  0  0  0
 19 17  1  0  0  0  0
 20 13  1  0  0  0  0
 21 12  1  0  0  0  0
 22 12  2  0  0  0  0
 23 18  1  0  0  0  0
 24 20  1  0  0  0  0
 25 22  1  0  0  0  0
 26 21  2  0  0  0  0
 27 25  2  0  0  0  0
 27 26  1  0  0  0  0
M  END
> <CdId>
3295

> <Mol Weight>
361.3939

> <Formula>
C21H19N3O3

> <Click_ID>
CLK043G07 __ __ 

$$$$
