CLK018_C09
 OpenBabel03181413202D

 22 23  0  0  0  0  0  0  0  0999 V2000
    2.9500   -0.6417    0.0000 C   0  0  0  0  0  0  0  0  0  0  0  0
    3.6625   -1.8875    0.0000 N   0  0  0  0  0  0  0  0  0  0  0  0
    2.2417   -1.8875    0.0000 N   0  0  0  0  0  0  0  0  0  0  0  0
    2.9500   -2.2917    0.0000 C   0  0  0  0  0  0  0  0  0  0  0  0
    2.2417   -1.0625    0.0000 C   0  0  0  0  0  0  0  0  0  0  0  0
    3.6625   -1.0625    0.0000 C   0  0  0  0  0  0  0  0  0  0  0  0
    2.9500    0.1833    0.0000 C   0  0  0  0  0  0  0  0  0  0  0  0
    7.3292    1.7958    0.0000 C   0  0  0  0  0  0  0  0  0  0  0  0
    2.9500   -3.1167    0.0000 O   0  0  0  0  0  0  0  0  0  0  0  0
    8.0792    2.2250    0.0000 C   0  0  0  0  0  0  0  0  0  0  0  0
    4.3792   -0.6500    0.0000 O   0  0  0  0  0  0  0  0  0  0  0  0
    1.5250   -0.6500    0.0000 O   0  0  0  0  0  0  0  0  0  0  0  0
    1.5250   -2.3000    0.0000 C   0  0  0  0  0  0  0  0  0  0  0  0
    4.3792   -2.3000    0.0000 C   0  0  0  0  0  0  0  0  0  0  0  0
    3.6667    0.5833    0.0000 C   0  0  0  0  0  0  0  0  0  0  0  0
    5.1125    1.4000    0.0000 C   0  0  0  0  0  0  0  0  0  0  0  0
    4.3917    0.1708    0.0000 C   0  0  0  0  0  0  0  0  0  0  0  0
    3.6875    1.4083    0.0000 C   0  0  0  0  0  0  0  0  0  0  0  0
    4.4042    1.8208    0.0000 C   0  0  0  0  0  0  0  0  0  0  0  0
    5.1042    0.5833    0.0000 C   0  0  0  0  0  0  0  0  0  0  0  0
    6.5792    2.2333    0.0000 C   0  0  0  0  0  0  0  0  0  0  0  0
    5.8167    1.8083    0.0000 O   0  0  0  0  0  0  0  0  0  0  0  0
  2  6  1  0  0  0  0
  3  5  1  0  0  0  0
  4  2  1  0  0  0  0
  4  3  1  0  0  0  0
  5  1  1  0  0  0  0
  6  1  1  0  0  0  0
  7  1  2  0  0  0  0
  8 21  1  0  0  0  0
  9  4  2  0  0  0  0
 10  8  3  0  0  0  0
 11  6  2  0  0  0  0
 12  5  2  0  0  0  0
 13  3  1  0  0  0  0
 14  2  1  0  0  0  0
 15  7  1  0  0  0  0
 16 19  2  0  0  0  0
 16 20  1  0  0  0  0
 17 15  1  0  0  0  0
 18 15  2  0  0  0  0
 19 18  1  0  0  0  0
 20 17  2  0  0  0  0
 21 22  1  0  0  0  0
 22 16  1  0  0  0  0
M  END
> <CdId>
1344

> <Mol Weight>
298.2934

> <Formula>
C16H14N2O4

> <Click_ID>
CLK018_C09 __ __ 

$$$$
