CLK024_D10
 OpenBabel03181413202D

 32 34  0  0  0  0  0  0  0  0999 V2000
   -1.8950   -0.4772    0.0000 C   0  0  0  0  0  0  0  0  0  0  0  0
   -2.3104    0.2334    0.0000 N   0  0  0  0  0  0  0  0  0  0  0  0
   -1.7576    0.8548    0.0000 C   0  0  0  0  0  0  0  0  0  0  0  0
   -1.0058    0.5149    0.0000 C   0  0  0  0  0  0  0  0  0  0  0  0
   -1.0882   -0.3055    0.0000 S   0  0  0  0  0  0  0  0  0  0  0  0
   -2.2314   -1.2255    0.0000 N   0  0  0  0  0  0  0  0  0  0  0  0
   -0.2918    0.9372    0.0000 C   0  0  0  0  0  0  0  0  0  0  0  0
    1.8400   -0.3124    0.0000 C   0  0  0  0  0  0  0  0  0  0  0  0
    1.1260   -0.7277    0.0000 C   0  0  0  0  0  0  0  0  0  0  0  0
    1.8469    0.5184    0.0000 C   0  0  0  0  0  0  0  0  0  0  0  0
    0.4257    0.5149    0.0000 C   0  0  0  0  0  0  0  0  0  0  0  0
    3.9788   -0.7277    0.0000 C   0  0  0  0  0  0  0  0  0  0  0  0
    4.6859   -1.1363    0.0000 C   0  0  0  0  0  0  0  0  0  0  0  0
    0.4154   -0.3055    0.0000 C   0  0  0  0  0  0  0  0  0  0  0  0
    1.1329    0.9303    0.0000 C   0  0  0  0  0  0  0  0  0  0  0  0
   -1.9430    1.6581    0.0000 O   0  0  0  0  0  0  0  0  0  0  0  0
   -3.1240    0.3193    0.0000 C   0  0  0  0  0  0  0  0  0  0  0  0
   -3.0519   -1.3114    0.0000 C   0  0  0  0  0  0  0  0  0  0  0  0
    1.1191   -1.5448    0.0000 I   0  0  0  0  0  0  0  0  0  0  0  0
    2.5541   -0.7244    0.0000 O   0  0  0  0  0  0  0  0  0  0  0  0
    2.5609    0.9269    0.0000 O   0  0  0  0  0  0  0  0  0  0  0  0
    3.2682   -0.3158    0.0000 C   0  0  0  0  0  0  0  0  0  0  0  0
   -4.2843    1.1603    0.0000 O   0  0  0  0  0  0  0  0  0  0  0  0
   -3.4741    1.0745    0.0000 C   0  0  0  0  0  0  0  0  0  0  0  0
    2.5678    1.7508    0.0000 C   0  0  0  0  0  0  0  0  0  0  0  0
   -3.5393   -0.6385    0.0000 C   0  0  0  0  0  0  0  0  0  0  0  0
   -3.3848   -2.0666    0.0000 C   0  0  0  0  0  0  0  0  0  0  0  0
   -4.6276    1.9121    0.0000 C   0  0  0  0  0  0  0  0  0  0  0  0
    3.2750    2.1559    0.0000 C   0  0  0  0  0  0  0  0  0  0  0  0
   -4.3564   -0.7277    0.0000 C   0  0  0  0  0  0  0  0  0  0  0  0
   -4.2053   -2.1524    0.0000 C   0  0  0  0  0  0  0  0  0  0  0  0
   -4.6894   -1.4727    0.0000 C   0  0  0  0  0  0  0  0  0  0  0  0
  2  1  1  0  0  0  0
  3  2  1  0  0  0  0
  3  4  1  0  0  0  0
  4  5  1  0  0  0  0
  5  1  1  0  0  0  0
  6  1  2  0  0  0  0
  7  4  2  0  0  0  0
  8 10  1  0  0  0  0
  8  9  2  0  0  0  0
  9 14  1  0  0  0  0
 10 15  2  0  0  0  0
 11  7  1  0  0  0  0
 12 22  1  0  0  0  0
 13 12  3  0  0  0  0
 14 11  2  0  0  0  0
 15 11  1  0  0  0  0
 16  3  2  0  0  0  0
 17  2  1  0  0  0  0
 18  6  1  0  0  0  0
 19  9  1  0  0  0  0
 20  8  1  0  0  0  0
 21 10  1  0  0  0  0
 22 20  1  0  0  0  0
 23 24  1  0  0  0  0
 24 17  1  0  0  0  0
 25 21  1  0  0  0  0
 26 18  2  0  0  0  0
 27 18  1  0  0  0  0
 28 23  1  0  0  0  0
 29 25  1  0  0  0  0
 30 26  1  0  0  0  0
 30 32  2  0  0  0  0
 31 27  2  0  0  0  0
 32 31  1  0  0  0  0
M  END
> <CdId>
1815

> <Mol Weight>
562.42

> <Formula>
C24H23IN2O4S

> <Click_ID>
CLK024_D10 __ __ 

$$$$
