CLK034_B11
 OpenBabel03181413202D

 20 21  0  0  0  0  0  0  0  0999 V2000
   -4.5810    2.5487    0.0000 C   0  0  0  0  0  0  0  0  0  0  0  0
   -3.8689    2.9693    0.0000 N   0  0  0  0  0  0  0  0  0  0  0  0
   -4.6727    1.7324    0.0000 N   0  0  0  0  0  0  0  0  0  0  0  0
   -5.3182    2.8944    0.0000 S   0  0  0  0  0  0  0  0  0  0  0  0
   -5.4806    1.5700    0.0000 C   0  0  0  0  0  0  0  0  0  0  0  0
   -5.8804    2.2947    0.0000 C   0  0  0  0  0  0  0  0  0  0  0  0
   -3.8689    3.7981    0.0000 C   0  0  0  0  0  0  0  0  0  0  0  0
   -6.7009    2.3072    0.0000 C   0  0  0  0  0  0  0  0  0  0  0  0
   -4.2437    0.3498    0.0000 C   0  0  0  0  0  0  0  0  0  0  0  0
   -4.4186   -0.4540    0.0000 C   0  0  0  0  0  0  0  0  0  0  0  0
   -5.9054    0.8704    0.0000 C   0  0  0  0  0  0  0  0  0  0  0  0
   -7.1257    1.5992    0.0000 C   0  0  0  0  0  0  0  0  0  0  0  0
   -4.5935    4.2104    0.0000 O   0  0  0  0  0  0  0  0  0  0  0  0
   -6.7134    0.8829    0.0000 C   0  0  0  0  0  0  0  0  0  0  0  0
   -4.0563    1.1619    0.0000 C   0  0  0  0  0  0  0  0  0  0  0  0
   -3.1567    4.2104    0.0000 C   0  0  0  0  0  0  0  0  0  0  0  0
   -7.1007    3.0318    0.0000 C   0  0  0  0  0  0  0  0  0  0  0  0
   -7.1132    0.1582    0.0000 C   0  0  0  0  0  0  0  0  0  0  0  0
   -3.1609    5.0267    0.0000 C   0  0  0  0  0  0  0  0  0  0  0  0
   -2.4446    3.7939    0.0000 C   0  0  0  0  0  0  0  0  0  0  0  0
  2  1  2  0  0  0  0
  3  1  1  0  0  0  0
  4  1  1  0  0  0  0
  5  3  1  0  0  0  0
  6  4  1  0  0  0  0
  6  5  2  0  0  0  0
  7  2  1  0  0  0  0
  8  6  1  0  0  0  0
  9 15  1  0  0  0  0
 10  9  3  0  0  0  0
 11  5  1  0  0  0  0
 12  8  2  0  0  0  0
 13  7  2  0  0  0  0
 14 11  2  0  0  0  0
 14 12  1  0  0  0  0
 15  3  1  0  0  0  0
 16  7  1  0  0  0  0
 17  8  1  0  0  0  0
 18 14  1  0  0  0  0
 19 16  1  0  0  0  0
 20 16  1  0  0  0  0
M  END
> <CdId>
2585

> <Mol Weight>
286.392

> <Formula>
C16H18N2OS

> <Click_ID>
CLK034_B11 __ __ 

$$$$
