CLK041E02
 OpenBabel03181413202D

 19 19  0  0  0  0  0  0  0  0999 V2000
   -1.9958   -0.4542    0.0000 C    0  0  0  0  0  0  0  0  0  0  0  0
    0.8625   -0.4542    0.0000 N    0  0  0  0  0  0  0  0  0  0  0  0
    1.5792   -0.0417    0.0000 C    0  0  0  0  0  0  0  0  0  0  0  0
   -4.1375   -0.0417    0.0000 C    0  0  0  0  0  0  0  0  0  0  0  0
    0.1500   -0.0417    0.0000 C    0  0  0  0  0  0  0  0  0  0  0  0
   -4.8542    0.3708    0.0000 C    0  0  0  0  0  0  0  0  0  0  0  0
    2.2917   -0.4542    0.0000 C    0  0  0  0  0  0  0  0  0  0  0  0
   -1.2792   -0.0417    0.0000 N    0  0  0  0  0  0  0  0  0  0  0  0
   -1.9958   -1.2792    0.0000 O    0  0  0  0  0  0  0  0  0  0  0  0
    3.0042   -0.0417    0.0000 C    0  0  0  0  0  0  0  0  0  0  0  0
    0.1500    0.7833    0.0000 O    0  0  0  0  0  0  0  0  0  0  0  0
    1.5792    0.7833    0.0000 C    0  0  0  0  0  0  0  0  0  0  0  0
   -2.7083   -0.0417    0.0000 N    0  0  0  0  0  0  0  0  0  0  0  0
   -0.5667   -0.4542    0.0000 C    0  0  0  0  0  0  0  0  0  0  0  0
    3.0042    0.7833    0.0000 C    0  0  0  0  0  0  0  0  0  0  0  0
    2.2917    1.1958    0.0000 C    0  0  0  0  0  0  0  0  0  0  0  0
    3.7208    1.1958    0.0000 Br   0  0  0  0  0  0  0  0  0  0  0  0
   -3.4250   -0.4542    0.0000 C    0  0  0  0  0  0  0  0  0  0  0  0
    2.2917   -1.2792    0.0000 C    0  0  0  0  0  0  0  0  0  0  0  0
  2  5  1  0  0  0  0
  3  2  1  0  0  0  0
  4 18  1  0  0  0  0
  5 14  1  0  0  0  0
  6  4  3  0  0  0  0
  7  3  2  0  0  0  0
  8  1  1  0  0  0  0
  9  1  2  0  0  0  0
 10  7  1  0  0  0  0
 11  5  2  0  0  0  0
 12  3  1  0  0  0  0
 13  1  1  0  0  0  0
 14  8  1  0  0  0  0
 15 10  2  0  0  0  0
 16 12  2  0  0  0  0
 16 15  1  0  0  0  0
 17 15  1  0  0  0  0
 18 13  1  0  0  0  0
 19  7  1  0  0  0  0
M  END
> <CdId>
3093

> <Mol Weight>
324.173

> <Formula>
C13H14BrN3O2

> <Click_ID>
CLK041E02 __ __ 

$$$$
