CLK024_A10
 OpenBabel03181413202D

 31 33  0  0  0  0  0  0  0  0999 V2000
   -1.3587    0.7774    0.0000 C   0  0  0  0  0  0  0  0  0  0  0  0
   -1.1077   -0.0172    0.0000 N   0  0  0  0  0  0  0  0  0  0  0  0
   -0.2924   -0.0172    0.0000 C   0  0  0  0  0  0  0  0  0  0  0  0
   -0.0310    0.7602    0.0000 C   0  0  0  0  0  0  0  0  0  0  0  0
   -0.6949    1.2521    0.0000 S   0  0  0  0  0  0  0  0  0  0  0  0
   -2.1465    1.0354    0.0000 N   0  0  0  0  0  0  0  0  0  0  0  0
    0.7568    1.0078    0.0000 C   0  0  0  0  0  0  0  0  0  0  0  0
    2.5730   -0.6673    0.0000 C   0  0  0  0  0  0  0  0  0  0  0  0
    1.7853   -0.9184    0.0000 C   0  0  0  0  0  0  0  0  0  0  0  0
    2.7553    0.1445    0.0000 C   0  0  0  0  0  0  0  0  0  0  0  0
    1.3656    0.4472    0.0000 C   0  0  0  0  0  0  0  0  0  0  0  0
    3.6118   -2.5834    0.0000 C   0  0  0  0  0  0  0  0  0  0  0  0
    3.4364   -3.3986    0.0000 C   0  0  0  0  0  0  0  0  0  0  0  0
    1.1833   -0.3543    0.0000 C   0  0  0  0  0  0  0  0  0  0  0  0
    0.1892   -0.6949    0.0000 O   0  0  0  0  0  0  0  0  0  0  0  0
    2.1465    0.6983    0.0000 C   0  0  0  0  0  0  0  0  0  0  0  0
   -1.5892   -0.6879    0.0000 C   0  0  0  0  0  0  0  0  0  0  0  0
   -2.3976    1.8231    0.0000 C   0  0  0  0  0  0  0  0  0  0  0  0
    1.6064   -1.7199    0.0000 I   0  0  0  0  0  0  0  0  0  0  0  0
    3.1853   -1.2177    0.0000 O   0  0  0  0  0  0  0  0  0  0  0  0
    3.5361    0.3956    0.0000 O   0  0  0  0  0  0  0  0  0  0  0  0
    3.0065   -2.0330    0.0000 C   0  0  0  0  0  0  0  0  0  0  0  0
   -2.8998   -1.2693    0.0000 O   0  0  0  0  0  0  0  0  0  0  0  0
   -2.4113   -0.6020    0.0000 C   0  0  0  0  0  0  0  0  0  0  0  0
   -3.2025    1.9985    0.0000 C   0  0  0  0  0  0  0  0  0  0  0  0
   -1.8472    2.4354    0.0000 C   0  0  0  0  0  0  0  0  0  0  0  0
    3.7219    1.1971    0.0000 C   0  0  0  0  0  0  0  0  0  0  0  0
   -3.7254   -1.1833    0.0000 C   0  0  0  0  0  0  0  0  0  0  0  0
   -3.4605    2.7794    0.0000 C   0  0  0  0  0  0  0  0  0  0  0  0
   -2.0983    3.2266    0.0000 C   0  0  0  0  0  0  0  0  0  0  0  0
   -2.8998    3.3986    0.0000 C   0  0  0  0  0  0  0  0  0  0  0  0
  2  1  1  0  0  0  0
  3  2  1  0  0  0  0
  4  5  1  0  0  0  0
  4  3  1  0  0  0  0
  5  1  1  0  0  0  0
  6  1  2  0  0  0  0
  7  4  2  0  0  0  0
  8 10  1  0  0  0  0
  8  9  2  0  0  0  0
  9 14  1  0  0  0  0
 10 16  2  0  0  0  0
 11  7  1  0  0  0  0
 12 22  1  0  0  0  0
 13 12  3  0  0  0  0
 14 11  2  0  0  0  0
 15  3  2  0  0  0  0
 16 11  1  0  0  0  0
 17  2  1  0  0  0  0
 18  6  1  0  0  0  0
 19  9  1  0  0  0  0
 20  8  1  0  0  0  0
 21 10  1  0  0  0  0
 22 20  1  0  0  0  0
 23 24  1  0  0  0  0
 24 17  1  0  0  0  0
 25 18  1  0  0  0  0
 26 18  2  0  0  0  0
 27 21  1  0  0  0  0
 28 23  1  0  0  0  0
 29 25  2  0  0  0  0
 29 31  1  0  0  0  0
 30 26  1  0  0  0  0
 31 30  2  0  0  0  0
M  END
> <CdId>
1785

> <Mol Weight>
548.393

> <Formula>
C23H21IN2O4S

> <Click_ID>
CLK024_A10 __ __ 

$$$$
