CLK021_G06
 OpenBabel03181413202D

 20 20  0  0  0  0  0  0  0  0999 V2000
    3.6555    1.9377    0.0000 C    0  0  0  0  0  0  0  0  0  0  0  0
    4.0677    1.2231    0.0000 C    0  0  0  0  0  0  0  0  0  0  0  0
    4.0677    2.6523    0.0000 C    0  0  0  0  0  0  0  0  0  0  0  0
    1.5941    2.6523    0.0000 C    0  0  0  0  0  0  0  0  0  0  0  0
    0.7696    2.6523    0.0000 C    0  0  0  0  0  0  0  0  0  0  0  0
    4.8923    1.2231    0.0000 C    0  0  0  0  0  0  0  0  0  0  0  0
    4.8923    2.6523    0.0000 C    0  0  0  0  0  0  0  0  0  0  0  0
    5.3046    1.9377    0.0000 C    0  0  0  0  0  0  0  0  0  0  0  0
    6.5414    2.6523    0.0000 N    0  0  0  0  0  0  0  0  0  0  0  0
    3.6555    0.5085    0.0000 Br   0  0  0  0  0  0  0  0  0  0  0  0
    6.1291    1.9377    0.0000 C    0  0  0  0  0  0  0  0  0  0  0  0
    2.8309    1.9377    0.0000 O    0  0  0  0  0  0  0  0  0  0  0  0
    3.6555    3.3669    0.0000 O    0  0  0  0  0  0  0  0  0  0  0  0
    2.4095    2.6523    0.0000 C    0  0  0  0  0  0  0  0  0  0  0  0
    8.6027    3.3669    0.0000 O    0  0  0  0  0  0  0  0  0  0  0  0
    7.3659    2.6523    0.0000 C    0  0  3  0  0  0  0  0  0  0  0  0
    7.7782    3.3669    0.0000 C    0  0  0  0  0  0  0  0  0  0  0  0
    4.0677    4.0815    0.0000 C    0  0  0  0  0  0  0  0  0  0  0  0
    7.7782    1.9377    0.0000 C    0  0  0  0  0  0  0  0  0  0  0  0
    8.6027    1.9377    0.0000 C    0  0  0  0  0  0  0  0  0  0  0  0
  2  1  1  0  0  0  0
  3  1  2  0  0  0  0
  4 14  1  0  0  0  0
  5  4  3  0  0  0  0
  6  2  2  0  0  0  0
  7  3  1  0  0  0  0
  8  7  2  0  0  0  0
  8  6  1  0  0  0  0
  9 11  1  0  0  0  0
 10  2  1  0  0  0  0
 11  8  1  0  0  0  0
 12  1  1  0  0  0  0
 13  3  1  0  0  0  0
 14 12  1  0  0  0  0
 15 17  1  0  0  0  0
 16  9  1  0  0  0  0
 17 16  1  0  0  0  0
 18 13  1  0  0  0  0
 19 16  1  0  0  0  0
 20 19  1  0  0  0  0
M  END
> <CdId>
1621

> <Mol Weight>
342.228

> <Formula>
C15H20BrNO3

> <Click_ID>
CLK021_G06 __ __ 

$$$$
