CLK034_B09
 OpenBabel03181413202D

 27 29  0  0  0  0  0  0  0  0999 V2000
   -4.5967    2.5588    0.0000 C   0  0  0  0  0  0  0  0  0  0  0  0
   -3.8632    2.9839    0.0000 N   0  0  0  0  0  0  0  0  0  0  0  0
   -4.6842    1.7336    0.0000 N   0  0  0  0  0  0  0  0  0  0  0  0
   -5.3218    2.8963    0.0000 S   0  0  0  0  0  0  0  0  0  0  0  0
   -5.4885    1.5836    0.0000 C   0  0  0  0  0  0  0  0  0  0  0  0
   -5.8969    2.3004    0.0000 C   0  0  0  0  0  0  0  0  0  0  0  0
   -3.8715    3.8007    0.0000 C   0  0  0  0  0  0  0  0  0  0  0  0
   -0.9877    5.4510    0.0000 C   0  0  0  0  0  0  0  0  0  0  0  0
   -4.2591    0.3584    0.0000 C   0  0  0  0  0  0  0  0  0  0  0  0
   -4.4466   -0.4543    0.0000 C   0  0  0  0  0  0  0  0  0  0  0  0
   -3.1589    4.2133    0.0000 C   0  0  0  0  0  0  0  0  0  0  0  0
   -1.7211    5.0427    0.0000 C   0  0  0  0  0  0  0  0  0  0  0  0
   -5.9219    0.8835    0.0000 C   0  0  0  0  0  0  0  0  0  0  0  0
   -4.5842    4.2175    0.0000 O   0  0  0  0  0  0  0  0  0  0  0  0
   -0.2834    5.0259    0.0000 O   0  0  0  0  0  0  0  0  0  0  0  0
   -4.0716    1.1627    0.0000 C   0  0  0  0  0  0  0  0  0  0  0  0
   -3.1589    5.0302    0.0000 C   0  0  0  0  0  0  0  0  0  0  0  0
   -2.4463    3.8090    0.0000 C   0  0  0  0  0  0  0  0  0  0  0  0
   -2.4338    5.4427    0.0000 C   0  0  0  0  0  0  0  0  0  0  0  0
   -1.7253    4.2050    0.0000 C   0  0  0  0  0  0  0  0  0  0  0  0
   -0.9960    6.2679    0.0000 O   0  0  0  0  0  0  0  0  0  0  0  0
   -6.7055    2.3212    0.0000 C   0  0  0  0  0  0  0  0  0  0  0  0
   -5.5218    0.1458    0.0000 O   0  0  0  0  0  0  0  0  0  0  0  0
   -7.1430    1.6211    0.0000 C   0  0  0  0  0  0  0  0  0  0  0  0
   -6.7305    0.8877    0.0000 C   0  0  0  0  0  0  0  0  0  0  0  0
   -1.7086    6.7013    0.0000 C   0  0  0  0  0  0  0  0  0  0  0  0
   -5.9594   -0.5543    0.0000 C   0  0  0  0  0  0  0  0  0  0  0  0
  2  1  2  0  0  0  0
  3  1  1  0  0  0  0
  4  1  1  0  0  0  0
  5  3  1  0  0  0  0
  6  4  1  0  0  0  0
  6  5  2  0  0  0  0
  7  2  1  0  0  0  0
  8 12  1  0  0  0  0
  9 16  1  0  0  0  0
 10  9  3  0  0  0  0
 11  7  1  0  0  0  0
 12 20  2  0  0  0  0
 12 19  1  0  0  0  0
 13  5  1  0  0  0  0
 14  7  2  0  0  0  0
 15  8  2  0  0  0  0
 16  3  1  0  0  0  0
 17 11  1  0  0  0  0
 18 11  2  0  0  0  0
 19 17  2  0  0  0  0
 20 18  1  0  0  0  0
 21  8  1  0  0  0  0
 22  6  1  0  0  0  0
 23 13  1  0  0  0  0
 24 22  2  0  0  0  0
 25 13  2  0  0  0  0
 25 24  1  0  0  0  0
 26 21  1  0  0  0  0
 27 23  1  0  0  0  0
M  END
> <CdId>
2583

> <Mol Weight>
380.417

> <Formula>
C20H16N2O4S

> <Click_ID>
CLK034_B09 __ __ 

$$$$
