CLK051B08
 OpenBabel03181413202D

 18 18  0  0  0  0  0  0  0  0999 V2000
    0.5125   -1.0292    0.0000 C   0  0  0  0  0  0  0  0  0  0  0  0
    0.5125   -0.2042    0.0000 N   0  0  0  0  0  0  0  0  0  0  0  0
   -0.2000    0.2083    0.0000 C   0  0  3  0  0  0  0  0  0  0  0  0
    1.9417   -2.6792    0.0000 C   0  0  0  0  0  0  0  0  0  0  0  0
    2.6583   -3.0917    0.0000 C   0  0  0  0  0  0  0  0  0  0  0  0
   -0.2000   -1.4417    0.0000 O   0  0  0  0  0  0  0  0  0  0  0  0
   -0.9167   -0.2042    0.0000 C   0  0  0  0  0  0  0  0  0  0  0  0
   -0.2000    1.0333    0.0000 C   0  0  0  0  0  0  0  0  0  0  0  0
    1.2292   -1.4417    0.0000 N   0  0  0  0  0  0  0  0  0  0  0  0
    1.2292   -2.2667    0.0000 C   0  0  0  0  0  0  0  0  0  0  0  0
   -1.6292    0.2083    0.0000 C   0  0  0  0  0  0  0  0  0  0  0  0
    0.5125    1.4458    0.0000 C   0  0  0  0  0  0  0  0  0  0  0  0
   -0.9167    1.4458    0.0000 C   0  0  0  0  0  0  0  0  0  0  0  0
   -1.6292    1.0333    0.0000 C   0  0  0  0  0  0  0  0  0  0  0  0
   -2.3458   -0.2042    0.0000 C   0  0  0  0  0  0  0  0  0  0  0  0
   -0.9167    2.2708    0.0000 C   0  0  0  0  0  0  0  0  0  0  0  0
    0.5125    2.2708    0.0000 C   0  0  0  0  0  0  0  0  0  0  0  0
   -0.2000    2.6833    0.0000 C   0  0  0  0  0  0  0  0  0  0  0  0
  2  1  1  0  0  0  0
  3  2  1  0  0  0  0
  4 10  1  0  0  0  0
  5  4  3  0  0  0  0
  6  1  2  0  0  0  0
  7  3  1  0  0  0  0
  8  3  1  0  0  0  0
  9  1  1  0  0  0  0
 10  9  1  0  0  0  0
 11  7  1  0  0  0  0
 12  8  1  0  0  0  0
 13  8  2  0  0  0  0
 14 11  1  0  0  0  0
 15 11  1  0  0  0  0
 16 13  1  0  0  0  0
 17 12  2  0  0  0  0
 18 16  2  0  0  0  0
 18 17  1  0  0  0  0
M  END
> <CdId>
3938

> <Mol Weight>
244.3321

> <Formula>
C15H20N2O

> <Click_ID>
CLK051B08 __ __ 

$$$$
