CLK018_G05
 OpenBabel03181413202D

 17 17  0  0  0  0  0  0  0  0999 V2000
    0.3094   -3.6366    0.0000 C   0  0  0  0  0  0  0  0  0  0  0  0
   -0.4086   -4.0452    0.0000 C   0  0  0  0  0  0  0  0  0  0  0  0
    5.3148   -0.7618    0.0000 C   0  0  0  0  0  0  0  0  0  0  0  0
    4.5968   -1.1733    0.0000 C   0  0  0  0  0  0  0  0  0  0  0  0
    2.4633   -2.4078    0.0000 C   0  0  0  0  0  0  0  0  0  0  0  0
    3.8876   -0.7618    0.0000 C   0  0  0  0  0  0  0  0  0  0  0  0
    1.7424   -1.9963    0.0000 C   0  0  0  0  0  0  0  0  0  0  0  0
    3.1784   -1.9905    0.0000 C   0  0  0  0  0  0  0  0  0  0  0  0
    5.3177    0.0671    0.0000 O   0  0  0  0  0  0  0  0  0  0  0  0
    3.1725   -1.1675    0.0000 C   0  0  0  0  0  0  0  0  0  0  0  0
    1.7453   -1.1733    0.0000 C   0  0  0  0  0  0  0  0  0  0  0  0
    6.0269   -1.1762    0.0000 O   0  0  0  0  0  0  0  0  0  0  0  0
    2.4546   -0.7559    0.0000 C   0  0  0  0  0  0  0  0  0  0  0  0
    2.4721   -3.2396    0.0000 O   0  0  0  0  0  0  0  0  0  0  0  0
    1.0244   -2.4078    0.0000 O   0  0  0  0  0  0  0  0  0  0  0  0
    1.0244   -3.2251    0.0000 C   0  0  0  0  0  0  0  0  0  0  0  0
    1.7541   -3.6599    0.0000 C   0  0  0  0  0  0  0  0  0  0  0  0
  2  1  3  0  0  0  0
  3  4  1  0  0  0  0
  4  6  2  0  0  0  0
  5  7  2  0  0  0  0
  6 10  1  0  0  0  0
  7 15  1  0  0  0  0
  8  5  1  0  0  0  0
  9  3  2  0  0  0  0
 10 13  1  0  0  0  0
 10  8  2  0  0  0  0
 11  7  1  0  0  0  0
 12  3  1  0  0  0  0
 13 11  2  0  0  0  0
 14  5  1  0  0  0  0
 15 16  1  0  0  0  0
 16  1  1  0  0  0  0
 17 14  1  0  0  0  0
M  END
> <CdId>
1380

> <Mol Weight>
232.232

> <Formula>
C13H12O4

> <Click_ID>
CLK018_G05 __ __ 

$$$$
