CLK002_F09
 OpenBabel03181413202D

 19 21  0  0  0  0  0  0  0  0999 V2000
   -0.2232    0.2610    0.0000 C   0  0  0  0  0  0  0  0  0  0  0  0
   -0.9345    0.6735    0.0000 C   0  0  0  0  0  0  0  0  0  0  0  0
   -0.2308   -0.5675    0.0000 C   0  0  0  0  0  0  0  0  0  0  0  0
    0.4805    0.6735    0.0000 C   0  0  0  0  0  0  0  0  0  0  0  0
   -1.6496    0.2649    0.0000 C   0  0  0  0  0  0  0  0  0  0  0  0
   -0.9232    1.4946    0.0000 C   0  0  0  0  0  0  0  0  0  0  0  0
    0.4805   -0.9800    0.0000 C   0  0  0  0  0  0  0  0  0  0  0  0
   -0.9421   -0.9800    0.0000 O   0  0  0  0  0  0  0  0  0  0  0  0
    1.1957    0.2610    0.0000 C   0  0  0  0  0  0  0  0  0  0  0  0
   -1.6572   -0.5599    0.0000 C   0  0  0  0  0  0  0  0  0  0  0  0
   -2.3648    0.6811    0.0000 C   0  0  0  0  0  0  0  0  0  0  0  0
   -1.6346    1.9183    0.0000 C   0  0  0  0  0  0  0  0  0  0  0  0
    1.1957   -0.5675    0.0000 C   0  0  0  0  0  0  0  0  0  0  0  0
   -2.3724   -0.9648    0.0000 O   0  0  0  0  0  0  0  0  0  0  0  0
   -2.3534    1.5134    0.0000 C   0  0  0  0  0  0  0  0  0  0  0  0
    1.9145   -0.9838    0.0000 O   0  0  0  0  0  0  0  0  0  0  0  0
    2.6297   -0.5713    0.0000 C   0  0  0  0  0  0  0  0  0  0  0  0
    3.3372   -0.9875    0.0000 C   0  0  0  0  0  0  0  0  0  0  0  0
    4.0485   -0.5751    0.0000 C   0  0  0  0  0  0  0  0  0  0  0  0
  1  2  1  0  0  0  0
  1  3  2  0  0  0  0
  1  4  1  0  0  0  0
  2  5  2  0  0  0  0
  2  6  1  0  0  0  0
  3  7  1  0  0  0  0
  3  8  1  0  0  0  0
  4  9  2  0  0  0  0
  5 10  1  0  0  0  0
  5 11  1  0  0  0  0
  6 12  1  0  0  0  0
  7 13  2  0  0  0  0
  8 10  1  0  0  0  0
  9 13  1  0  0  0  0
 10 14  2  0  0  0  0
 11 15  1  0  0  0  0
 12 15  1  0  0  0  0
 13 16  1  0  0  0  0
 16 17  1  0  0  0  0
 17 18  1  0  0  0  0
 18 19  3  0  0  0  0
M  END
> <CdId>
138

> <Mol Weight>
254.2806

> <Formula>
C16H14O3

> <Click_ID>
CLK002_F09 __ __ 

$$$$
