CLK017_H11
 OpenBabel03181413202D

 22 23  0  0  0  0  0  0  0  0999 V2000
    7.2576   -3.0855    0.0000 N    0  0  0  0  0  0  0  0  0  0  0  0
    6.8471   -3.7864    0.0000 C    0  0  0  0  0  0  0  0  0  0  0  0
    5.9513   -2.7911    0.0000 C    0  0  0  0  0  0  0  0  0  0  0  0
    6.7102   -2.4676    0.0000 C    0  0  0  0  0  0  0  0  0  0  0  0
    6.0383   -3.6122    0.0000 S    0  0  0  0  0  0  0  0  0  0  0  0
    5.2421   -2.3805    0.0000 C    0  0  0  0  0  0  0  0  0  0  0  0
    4.5205   -2.7994    0.0000 C    0  0  0  0  0  0  0  0  0  0  0  0
    3.1021   -0.3277    0.0000 C    0  0  0  0  0  0  0  0  0  0  0  0
    3.0897    0.4935    0.0000 C    0  0  0  0  0  0  0  0  0  0  0  0
    7.1788   -4.5454    0.0000 O    0  0  0  0  0  0  0  0  0  0  0  0
    6.8844   -1.6589    0.0000 O    0  0  0  0  0  0  0  0  0  0  0  0
    3.8113   -2.3805    0.0000 C    0  0  0  0  0  0  0  0  0  0  0  0
    4.5205   -3.6205    0.0000 C    0  0  0  0  0  0  0  0  0  0  0  0
    8.0788   -2.9984    0.0000 C    0  0  0  0  0  0  0  0  0  0  0  0
    8.5640   -3.6703    0.0000 C    0  0  0  0  0  0  0  0  0  0  0  0
    3.0980   -2.7911    0.0000 C    0  0  0  0  0  0  0  0  0  0  0  0
    9.3851   -3.5832    0.0000 C    0  0  0  0  0  0  0  0  0  0  0  0
    3.8071   -4.0353    0.0000 C    0  0  0  0  0  0  0  0  0  0  0  0
    3.0897   -3.6247    0.0000 C    0  0  0  0  0  0  0  0  0  0  0  0
    3.8071   -4.8564    0.0000 Br   0  0  0  0  0  0  0  0  0  0  0  0
    3.8113   -1.5594    0.0000 O    0  0  0  0  0  0  0  0  0  0  0  0
    3.0980   -1.1488    0.0000 C    0  0  0  0  0  0  0  0  0  0  0  0
  2  1  1  0  0  0  0
  3  4  1  0  0  0  0
  4  1  1  0  0  0  0
  5  2  1  0  0  0  0
  5  3  1  0  0  0  0
  6  3  2  0  0  0  0
  7  6  1  0  0  0  0
  8 22  1  0  0  0  0
  9  8  3  0  0  0  0
 10  2  2  0  0  0  0
 11  4  2  0  0  0  0
 12  7  2  0  0  0  0
 13  7  1  0  0  0  0
 14  1  1  0  0  0  0
 15 14  1  0  0  0  0
 16 12  1  0  0  0  0
 16 19  2  0  0  0  0
 17 15  2  0  0  0  0
 18 13  2  0  0  0  0
 19 18  1  0  0  0  0
 20 18  1  0  0  0  0
 21 12  1  0  0  0  0
 22 21  1  0  0  0  0
M  END
> <CdId>
1316

> <Mol Weight>
378.24

> <Formula>
C16H12BrNO3S

> <Click_ID>
CLK017_H11 __ __ 

$$$$
