CLK013_A02
 OpenBabel03181413202D

 26 28  0  0  0  0  0  0  0  0999 V2000
    5.3336   -1.6392    0.0000 N    0  0  0  0  0  0  0  0  0  0  0  0
    5.2046   -2.4588    0.0000 C    0  0  0  0  0  0  0  0  0  0  0  0
    4.5972   -1.2648    0.0000 C    0  0  0  0  0  0  0  0  0  0  0  0
    4.0106   -1.8514    0.0000 C    0  0  0  0  0  0  0  0  0  0  0  0
    4.3850   -2.5878    0.0000 S    0  0  0  0  0  0  0  0  0  0  0  0
    6.0700   -1.2731    0.0000 C    0  0  0  0  0  0  0  0  0  0  0  0
    3.1993   -1.7141    0.0000 C    0  0  0  0  0  0  0  0  0  0  0  0
    6.7564   -1.7224    0.0000 C    0  0  0  0  0  0  0  0  0  0  0  0
    0.8779   -5.7080    0.0000 C    0  0  0  0  0  0  0  0  0  0  0  0
    0.3537   -6.3446    0.0000 C    0  0  0  0  0  0  0  0  0  0  0  0
    5.7829   -3.0454    0.0000 O    0  0  0  0  0  0  0  0  0  0  0  0
    4.4724   -0.4535    0.0000 O    0  0  0  0  0  0  0  0  0  0  0  0
    7.4928   -1.3480    0.0000 C    0  0  0  0  0  0  0  0  0  0  0  0
    2.6751   -2.3631    0.0000 C    0  0  0  0  0  0  0  0  0  0  0  0
    7.5385   -0.5242    0.0000 Cl   0  0  0  0  0  0  0  0  0  0  0  0
    1.6225   -3.6487    0.0000 C    0  0  0  0  0  0  0  0  0  0  0  0
    2.9622   -3.1369    0.0000 C    0  0  0  0  0  0  0  0  0  0  0  0
    1.8514   -2.2258    0.0000 C    0  0  0  0  0  0  0  0  0  0  0  0
    2.4380   -3.7735    0.0000 C    0  0  0  0  0  0  0  0  0  0  0  0
    1.3272   -2.8624    0.0000 C    0  0  0  0  0  0  0  0  0  0  0  0
    1.3896   -5.0590    0.0000 C    0  0  0  0  0  0  0  0  0  0  0  0
    1.0983   -4.2935    0.0000 O    0  0  0  0  0  0  0  0  0  0  0  0
    6.7065   -2.5378    0.0000 C    0  0  0  0  0  0  0  0  0  0  0  0
    8.1793   -1.8015    0.0000 C    0  0  0  0  0  0  0  0  0  0  0  0
    7.3930   -2.9954    0.0000 C    0  0  0  0  0  0  0  0  0  0  0  0
    8.1293   -2.6252    0.0000 C    0  0  0  0  0  0  0  0  0  0  0  0
  2  1  1  0  0  0  0
  3  1  1  0  0  0  0
  4  3  1  0  0  0  0
  5  2  1  0  0  0  0
  5  4  1  0  0  0  0
  6  1  1  0  0  0  0
  7  4  2  0  0  0  0
  8  6  1  0  0  0  0
  9 21  1  0  0  0  0
 10  9  3  0  0  0  0
 11  2  2  0  0  0  0
 12  3  2  0  0  0  0
 13  8  1  0  0  0  0
 14  7  1  0  0  0  0
 15 13  1  0  0  0  0
 16 20  2  0  0  0  0
 16 19  1  0  0  0  0
 17 14  1  0  0  0  0
 18 14  2  0  0  0  0
 19 17  2  0  0  0  0
 20 18  1  0  0  0  0
 21 22  1  0  0  0  0
 22 16  1  0  0  0  0
 23  8  2  0  0  0  0
 24 13  2  0  0  0  0
 25 23  1  0  0  0  0
 26 25  2  0  0  0  0
 26 24  1  0  0  0  0
M  END
> <CdId>
917

> <Mol Weight>
383.848

> <Formula>
C20H14ClNO3S

> <Click_ID>
CLK013_A02 __ __ 

$$$$
