CLK016_D04
 OpenBabel03181413202D

 19 20  0  0  0  0  0  0  0  0999 V2000
    1.5629   -0.8147    0.0000 N   0  0  0  0  0  0  0  0  0  0  0  0
    1.8205   -1.6003    0.0000 C   0  0  0  0  0  0  0  0  0  0  0  0
    2.2320   -0.3284    0.0000 C   0  0  0  0  0  0  0  0  0  0  0  0
    2.8971   -0.8147    0.0000 C   0  0  0  0  0  0  0  0  0  0  0  0
    2.6435   -1.6003    0.0000 S   0  0  0  0  0  0  0  0  0  0  0  0
    3.6827   -0.5611    0.0000 C   0  0  0  0  0  0  0  0  0  0  0  0
    0.6110    0.2452    0.0000 C   0  0  0  0  0  0  0  0  0  0  0  0
    0.3907    1.0432    0.0000 C   0  0  0  0  0  0  0  0  0  0  0  0
    4.8174    1.2926    0.0000 C   0  0  0  0  0  0  0  0  0  0  0  0
    1.3342   -2.2611    0.0000 O   0  0  0  0  0  0  0  0  0  0  0  0
    2.2237    0.4946    0.0000 O   0  0  0  0  0  0  0  0  0  0  0  0
    3.8530    0.2452    0.0000 C   0  0  0  0  0  0  0  0  0  0  0  0
    0.7856   -0.5611    0.0000 C   0  0  0  0  0  0  0  0  0  0  0  0
    4.2064    1.8537    0.0000 C   0  0  0  0  0  0  0  0  0  0  0  0
    4.6428    0.4946    0.0000 C   0  0  0  0  0  0  0  0  0  0  0  0
    3.4208    1.6044    0.0000 C   0  0  0  0  0  0  0  0  0  0  0  0
    5.6112    1.5420    0.0000 I   0  0  0  0  0  0  0  0  0  0  0  0
    3.2462    0.7980    0.0000 C   0  0  0  0  0  0  0  0  0  0  0  0
    4.3934    2.6560    0.0000 O   0  0  0  0  0  0  0  0  0  0  0  0
  2  1  1  0  0  0  0
  3  1  1  0  0  0  0
  4  3  1  0  0  0  0
  4  5  1  0  0  0  0
  5  2  1  0  0  0  0
  6  4  2  0  0  0  0
  7 13  1  0  0  0  0
  8  7  3  0  0  0  0
  9 15  2  0  0  0  0
  9 14  1  0  0  0  0
 10  2  2  0  0  0  0
 11  3  2  0  0  0  0
 12  6  1  0  0  0  0
 13  1  1  0  0  0  0
 14 16  2  0  0  0  0
 15 12  1  0  0  0  0
 16 18  1  0  0  0  0
 17  9  1  0  0  0  0
 18 12  2  0  0  0  0
 19 14  1  0  0  0  0
M  END
> <CdId>
1189

> <Mol Weight>
385.177

> <Formula>
C13H8INO3S

> <Click_ID>
CLK016_D04 __ __ 

$$$$
