CLK016_E04
 OpenBabel03181413202D

 34 37  0  0  0  0  0  0  0  0999 V2000
    1.6949   -1.6079    0.0000 N   0  0  0  0  0  0  0  0  0  0  0  0
    0.2657   -1.6079    0.0000 C   0  0  0  0  0  0  0  0  0  0  0  0
    0.9803   -1.1956    0.0000 C   0  0  0  0  0  0  0  0  0  0  0  0
    1.6949   -2.4324    0.0000 C   0  0  0  0  0  0  0  0  0  0  0  0
    0.9803   -2.8447    0.0000 N   0  0  0  0  0  0  0  0  0  0  0  0
    0.2657   -2.4324    0.0000 C   0  0  0  0  0  0  0  0  0  0  0  0
   -0.4489   -1.1956    0.0000 C   0  0  0  0  0  0  0  0  0  0  0  0
    2.4095   -1.1956    0.0000 C   0  0  0  0  0  0  0  0  0  0  0  0
   -3.3073    1.2780    0.0000 C   0  0  0  0  0  0  0  0  0  0  0  0
    2.4095   -2.8447    0.0000 O   0  0  0  0  0  0  0  0  0  0  0  0
   -4.0219    0.8658    0.0000 C   0  0  0  0  0  0  0  0  0  0  0  0
    0.9803   -0.3710    0.0000 O   0  0  0  0  0  0  0  0  0  0  0  0
   -0.4489   -2.8447    0.0000 O   0  0  0  0  0  0  0  0  0  0  0  0
   -0.4489   -0.3619    0.0000 C   0  0  0  0  0  0  0  0  0  0  0  0
    2.4095   -0.3710    0.0000 C   0  0  0  0  0  0  0  0  0  0  0  0
    3.1241   -1.6079    0.0000 C   0  0  0  0  0  0  0  0  0  0  0  0
    4.5533    0.0412    0.0000 O   0  0  0  0  0  0  0  0  0  0  0  0
   -1.1635    0.0504    0.0000 C   0  0  0  0  0  0  0  0  0  0  0  0
    3.8387   -0.3710    0.0000 C   0  0  0  0  0  0  0  0  0  0  0  0
    5.2679   -0.3710    0.0000 C   0  0  0  0  0  0  0  0  0  0  0  0
    3.1241    0.0412    0.0000 C   0  0  0  0  0  0  0  0  0  0  0  0
    3.8387   -1.1956    0.0000 C   0  0  0  0  0  0  0  0  0  0  0  0
   -1.1635    0.8749    0.0000 C   0  0  0  0  0  0  0  0  0  0  0  0
    5.9825    0.0412    0.0000 C   0  0  0  0  0  0  0  0  0  0  0  0
   -2.5927    0.8749    0.0000 C   0  0  0  0  0  0  0  0  0  0  0  0
   -1.8781    1.2872    0.0000 O   0  0  0  0  0  0  0  0  0  0  0  0
    0.2657    0.8658    0.0000 C   0  0  0  0  0  0  0  0  0  0  0  0
    0.2657    0.0504    0.0000 C   0  0  0  0  0  0  0  0  0  0  0  0
   -0.4489    1.2780    0.0000 C   0  0  0  0  0  0  0  0  0  0  0  0
    6.6972   -0.3710    0.0000 C   0  0  0  0  0  0  0  0  0  0  0  0
    5.9825    0.8658    0.0000 C   0  0  0  0  0  0  0  0  0  0  0  0
    6.6972    1.2780    0.0000 C   0  0  0  0  0  0  0  0  0  0  0  0
    7.4118    0.0412    0.0000 C   0  0  0  0  0  0  0  0  0  0  0  0
    7.4118    0.8658    0.0000 C   0  0  0  0  0  0  0  0  0  0  0  0
  2  3  1  0  0  0  0
  3  1  1  0  0  0  0
  4  1  1  0  0  0  0
  5  4  1  0  0  0  0
  6  5  1  0  0  0  0
  6  2  1  0  0  0  0
  7  2  2  0  0  0  0
  8  1  1  0  0  0  0
  9 25  1  0  0  0  0
 10  4  2  0  0  0  0
 11  9  3  0  0  0  0
 12  3  2  0  0  0  0
 13  6  2  0  0  0  0
 14  7  1  0  0  0  0
 15  8  2  0  0  0  0
 16  8  1  0  0  0  0
 17 19  1  0  0  0  0
 18 14  2  0  0  0  0
 19 22  1  0  0  0  0
 19 21  2  0  0  0  0
 20 17  1  0  0  0  0
 21 15  1  0  0  0  0
 22 16  2  0  0  0  0
 23 18  1  0  0  0  0
 24 20  1  0  0  0  0
 25 26  1  0  0  0  0
 26 23  1  0  0  0  0
 27 28  2  0  0  0  0
 28 14  1  0  0  0  0
 29 27  1  0  0  0  0
 29 23  2  0  0  0  0
 30 24  1  0  0  0  0
 31 24  2  0  0  0  0
 32 31  1  0  0  0  0
 33 30  2  0  0  0  0
 33 34  1  0  0  0  0
 34 32  2  0  0  0  0
M  END
> <CdId>
1199

> <Mol Weight>
452.4581

> <Formula>
C27H20N2O5

> <Click_ID>
CLK016_E04 __ __ 

$$$$
