CLK022_D09
 OpenBabel03181413202D

 18 19  0  0  0  0  0  0  0  0999 V2000
    6.1646    1.0175    0.0000 N   0  0  0  0  0  0  0  0  0  0  0  0
    6.9896    1.0175    0.0000 C   0  0  0  0  0  0  0  0  0  0  0  0
    5.7521    1.7279    0.0000 C   0  0  0  0  0  0  0  0  0  0  0  0
    7.4709    0.3529    0.0000 N   0  0  0  0  0  0  0  0  0  0  0  0
    7.4709    1.6866    0.0000 S   0  0  0  0  0  0  0  0  0  0  0  0
    1.2146    1.0175    0.0000 C   0  0  0  0  0  0  0  0  0  0  0  0
    0.3896    1.0175    0.0000 C   0  0  0  0  0  0  0  0  0  0  0  0
    4.9271    1.7279    0.0000 C   0  0  0  0  0  0  0  0  0  0  0  0
    8.2546    0.6050    0.0000 C   0  0  0  0  0  0  0  0  0  0  0  0
    6.1646    2.4429    0.0000 O   0  0  0  0  0  0  0  0  0  0  0  0
    8.2546    1.4300    0.0000 C   0  0  0  0  0  0  0  0  0  0  0  0
    4.5146    2.4429    0.0000 C   0  0  0  0  0  0  0  0  0  0  0  0
    4.5146    1.0175    0.0000 C   0  0  0  0  0  0  0  0  0  0  0  0
    3.2771    1.7279    0.0000 C   0  0  0  0  0  0  0  0  0  0  0  0
    3.6896    2.4429    0.0000 C   0  0  0  0  0  0  0  0  0  0  0  0
    3.6896    1.0175    0.0000 C   0  0  0  0  0  0  0  0  0  0  0  0
    2.0396    1.0175    0.0000 C   0  0  0  0  0  0  0  0  0  0  0  0
    2.4521    1.7279    0.0000 O   0  0  0  0  0  0  0  0  0  0  0  0
  2  1  1  0  0  0  0
  3  1  1  0  0  0  0
  4  2  2  0  0  0  0
  5  2  1  0  0  0  0
  6 17  1  0  0  0  0
  7  6  3  0  0  0  0
  8  3  1  0  0  0  0
  9  4  1  0  0  0  0
 10  3  2  0  0  0  0
 11  5  1  0  0  0  0
 11  9  2  0  0  0  0
 12  8  1  0  0  0  0
 13  8  2  0  0  0  0
 14 16  2  0  0  0  0
 14 15  1  0  0  0  0
 15 12  2  0  0  0  0
 16 13  1  0  0  0  0
 17 18  1  0  0  0  0
 18 14  1  0  0  0  0
M  END
> <CdId>
1668

> <Mol Weight>
258.296

> <Formula>
C13H10N2O2S

> <Click_ID>
CLK022_D09 __ __ 

$$$$
