CLK034_B06
 OpenBabel03181413202D

 23 25  0  0  0  0  0  0  0  0999 V2000
   -4.5962    2.5585    0.0000 C   0  0  0  0  0  0  0  0  0  0  0  0
   -3.8629    2.9836    0.0000 N   0  0  0  0  0  0  0  0  0  0  0  0
   -4.6837    1.7335    0.0000 N   0  0  0  0  0  0  0  0  0  0  0  0
   -5.3213    2.8961    0.0000 S   0  0  0  0  0  0  0  0  0  0  0  0
   -5.4880    1.5834    0.0000 C   0  0  0  0  0  0  0  0  0  0  0  0
   -5.8964    2.3002    0.0000 C   0  0  0  0  0  0  0  0  0  0  0  0
   -3.8712    3.8004    0.0000 C   0  0  0  0  0  0  0  0  0  0  0  0
   -4.2587    0.3583    0.0000 C   0  0  0  0  0  0  0  0  0  0  0  0
   -4.4462   -0.4542    0.0000 C   0  0  0  0  0  0  0  0  0  0  0  0
   -5.9214    0.8834    0.0000 C   0  0  0  0  0  0  0  0  0  0  0  0
   -4.5837    4.2171    0.0000 O   0  0  0  0  0  0  0  0  0  0  0  0
   -4.0712    1.1626    0.0000 C   0  0  0  0  0  0  0  0  0  0  0  0
   -3.1586    4.2129    0.0000 C   0  0  0  0  0  0  0  0  0  0  0  0
   -6.7048    2.3210    0.0000 C   0  0  0  0  0  0  0  0  0  0  0  0
   -5.5213    0.1458    0.0000 O   0  0  0  0  0  0  0  0  0  0  0  0
   -7.1424    1.6210    0.0000 C   0  0  0  0  0  0  0  0  0  0  0  0
   -6.7298    0.8876    0.0000 C   0  0  0  0  0  0  0  0  0  0  0  0
   -2.4335    3.8087    0.0000 C   0  0  0  0  0  0  0  0  0  0  0  0
   -3.1461    5.0297    0.0000 C   0  0  0  0  0  0  0  0  0  0  0  0
   -5.9589   -0.5543    0.0000 C   0  0  0  0  0  0  0  0  0  0  0  0
   -2.4335    5.4505    0.0000 C   0  0  0  0  0  0  0  0  0  0  0  0
   -1.7210    4.2171    0.0000 C   0  0  0  0  0  0  0  0  0  0  0  0
   -1.7210    5.0422    0.0000 C   0  0  0  0  0  0  0  0  0  0  0  0
  2  1  2  0  0  0  0
  3  1  1  0  0  0  0
  4  1  1  0  0  0  0
  5  3  1  0  0  0  0
  6  4  1  0  0  0  0
  6  5  2  0  0  0  0
  7  2  1  0  0  0  0
  8 12  1  0  0  0  0
  9  8  3  0  0  0  0
 10  5  1  0  0  0  0
 11  7  2  0  0  0  0
 12  3  1  0  0  0  0
 13  7  1  0  0  0  0
 14  6  1  0  0  0  0
 15 10  1  0  0  0  0
 16 14  2  0  0  0  0
 17 10  2  0  0  0  0
 17 16  1  0  0  0  0
 18 13  1  0  0  0  0
 19 13  1  0  0  0  0
 20 15  1  0  0  0  0
 21 19  1  0  0  0  0
 22 18  1  0  0  0  0
 22 23  1  0  0  0  0
 23 21  1  0  0  0  0
M  END
> <CdId>
2580

> <Mol Weight>
328.429

> <Formula>
C18H20N2O2S

> <Click_ID>
CLK034_B06 __ __ 

$$$$
