CLK016_F11
 OpenBabel03181413202D

 18 19  0  0  0  0  0  0  0  0999 V2000
    2.6353    0.4238    0.0000 N   0  0  0  0  0  0  0  0  0  0  0  0
    2.8954   -0.3693    0.0000 C   0  0  0  0  0  0  0  0  0  0  0  0
    3.9822    0.4238    0.0000 C   0  0  0  0  0  0  0  0  0  0  0  0
    3.3108    0.9064    0.0000 C   0  0  0  0  0  0  0  0  0  0  0  0
    3.7262   -0.3693    0.0000 N   0  0  0  0  0  0  0  0  0  0  0  0
    4.7753    0.6756    0.0000 C   0  0  0  0  0  0  0  0  0  0  0  0
    6.4496    4.9138    0.0000 C   0  0  0  0  0  0  0  0  0  0  0  0
    6.6384    5.7195    0.0000 C   0  0  0  0  0  0  0  0  0  0  0  0
    2.3961   -1.0449    0.0000 O   0  0  0  0  0  0  0  0  0  0  0  0
    3.3025    1.7372    0.0000 O   0  0  0  0  0  0  0  0  0  0  0  0
    4.9473    1.4729    0.0000 C   0  0  0  0  0  0  0  0  0  0  0  0
    5.2998    3.0842    0.0000 C   0  0  0  0  0  0  0  0  0  0  0  0
    5.7195    1.7246    0.0000 C   0  0  0  0  0  0  0  0  0  0  0  0
    4.3347    2.0351    0.0000 C   0  0  0  0  0  0  0  0  0  0  0  0
    4.5193    2.8324    0.0000 C   0  0  0  0  0  0  0  0  0  0  0  0
    5.9083    2.5387    0.0000 C   0  0  0  0  0  0  0  0  0  0  0  0
    6.2691    4.1207    0.0000 C   0  0  0  0  0  0  0  0  0  0  0  0
    5.4803    3.8857    0.0000 O   0  0  0  0  0  0  0  0  0  0  0  0
  2  1  1  0  0  0  0
  3  4  1  0  0  0  0
  3  5  1  0  0  0  0
  4  1  1  0  0  0  0
  5  2  1  0  0  0  0
  6  3  2  0  0  0  0
  7 17  1  0  0  0  0
  8  7  3  0  0  0  0
  9  2  2  0  0  0  0
 10  4  2  0  0  0  0
 11  6  1  0  0  0  0
 12 15  2  0  0  0  0
 12 16  1  0  0  0  0
 13 11  1  0  0  0  0
 14 11  2  0  0  0  0
 15 14  1  0  0  0  0
 16 13  2  0  0  0  0
 17 18  1  0  0  0  0
 18 12  1  0  0  0  0
M  END
> <CdId>
1216

> <Mol Weight>
242.2301

> <Formula>
C13H10N2O3

> <Click_ID>
CLK016_F11 __ __ 

$$$$
