CLK005_B08
 OpenBabel03181413202D

 24 25  0  0  0  0  0  0  0  0999 V2000
   -0.2036   -0.4971    0.0000 C   0  0  3  0  0  0  0  0  0  0  0  0
   -0.2105    0.3244    0.0000 C   0  0  0  0  0  0  0  0  0  0  0  0
   -0.9147   -0.9112    0.0000 C   0  0  0  0  0  0  0  0  0  0  0  0
    0.5143   -0.9112    0.0000 N   0  0  0  0  0  0  0  0  0  0  0  0
    0.5005    0.7386    0.0000 C   0  0  0  0  0  0  0  0  0  0  0  0
   -0.9250    0.7386    0.0000 C   0  0  0  0  0  0  0  0  0  0  0  0
   -0.9147   -1.7396    0.0000 C   0  0  0  0  0  0  0  0  0  0  0  0
   -1.6395   -0.5005    0.0000 C   0  0  0  0  0  0  0  0  0  0  0  0
    0.5143   -1.7396    0.0000 C   0  0  0  0  0  0  0  0  0  0  0  0
    0.5005    1.5636    0.0000 C   0  0  0  0  0  0  0  0  0  0  0  0
    1.2150    0.3279    0.0000 O   0  0  0  0  0  0  0  0  0  0  0  0
   -0.9285    1.5567    0.0000 C   0  0  0  0  0  0  0  0  0  0  0  0
   -0.2036   -2.1538    0.0000 N   0  0  0  0  0  0  0  0  0  0  0  0
   -1.6395   -2.1538    0.0000 C   0  0  0  0  0  0  0  0  0  0  0  0
   -2.3506   -0.9147    0.0000 O   0  0  0  0  0  0  0  0  0  0  0  0
   -1.6395    0.3244    0.0000 O   0  0  0  0  0  0  0  0  0  0  0  0
    1.2288   -2.1538    0.0000 O   0  0  0  0  0  0  0  0  0  0  0  0
   -0.2105    1.9778    0.0000 C   0  0  0  0  0  0  0  0  0  0  0  0
    1.2150    1.9778    0.0000 O   0  0  0  0  0  0  0  0  0  0  0  0
    1.9295    0.7490    0.0000 C   0  0  0  0  0  0  0  0  0  0  0  0
   -3.0651   -0.5005    0.0000 C   0  0  0  0  0  0  0  0  0  0  0  0
    1.2150    2.8027    0.0000 C   0  0  0  0  0  0  0  0  0  0  0  0
    2.6509    0.3382    0.0000 C   0  0  0  0  0  0  0  0  0  0  0  0
    3.3619    0.7490    0.0000 C   0  0  0  0  0  0  0  0  0  0  0  0
  1  2  1  0  0  0  0
  1  3  1  0  0  0  0
  1  4  1  0  0  0  0
  2  5  2  0  0  0  0
  2  6  1  0  0  0  0
  3  7  2  0  0  0  0
  3  8  1  0  0  0  0
  4  9  1  0  0  0  0
  5 10  1  0  0  0  0
  5 11  1  0  0  0  0
  6 12  2  0  0  0  0
  7 13  1  0  0  0  0
  7 14  1  0  0  0  0
  8 15  1  0  0  0  0
  8 16  2  0  0  0  0
  9 17  2  0  0  0  0
  9 13  1  0  0  0  0
 10 18  2  0  0  0  0
 10 19  1  0  0  0  0
 11 20  1  0  0  0  0
 12 18  1  0  0  0  0
 15 21  1  0  0  0  0
 19 22  1  0  0  0  0
 20 23  1  0  0  0  0
 23 24  3  0  0  0  0
M  END
> <CdId>
337

> <Mol Weight>
330.3352

> <Formula>
C17H18N2O5

> <Click_ID>
CLK005_B08 __ __ 

$$$$
