CLK014_A04
 OpenBabel03181413202D

 32 34  0  0  0  0  0  0  0  0999 V2000
    5.8476   -2.5068    0.0000 N    0  0  0  0  0  0  0  0  0  0  0  0
    4.6194   -1.7781    0.0000 C    0  0  0  0  0  0  0  0  0  0  0  0
    5.4351   -1.7919    0.0000 C    0  0  0  0  0  0  0  0  0  0  0  0
    5.4214   -3.2171    0.0000 C    0  0  0  0  0  0  0  0  0  0  0  0
    4.5965   -3.2079    0.0000 N    0  0  0  0  0  0  0  0  0  0  0  0
    4.1978   -2.4884    0.0000 C    0  0  0  0  0  0  0  0  0  0  0  0
    4.2115   -1.0632    0.0000 C    0  0  0  0  0  0  0  0  0  0  0  0
    1.7460   -1.0220    0.0000 C    0  0  0  0  0  0  0  0  0  0  0  0
    2.1447   -1.7460    0.0000 C    0  0  0  0  0  0  0  0  0  0  0  0
    2.1631   -0.3162    0.0000 C    0  0  0  0  0  0  0  0  0  0  0  0
    6.6724   -2.5159    0.0000 C    0  0  0  0  0  0  0  0  0  0  0  0
    3.3866   -1.0495    0.0000 C    0  0  0  0  0  0  0  0  0  0  0  0
    9.1471   -2.5480    0.0000 C    0  0  0  0  0  0  0  0  0  0  0  0
   -0.3300   -1.7094    0.0000 C    0  0  0  0  0  0  0  0  0  0  0  0
    5.8292   -3.9366    0.0000 O    0  0  0  0  0  0  0  0  0  0  0  0
   -0.7515   -2.4105    0.0000 C    0  0  0  0  0  0  0  0  0  0  0  0
    5.8613   -1.0770    0.0000 O    0  0  0  0  0  0  0  0  0  0  0  0
    2.9696   -1.7598    0.0000 C    0  0  0  0  0  0  0  0  0  0  0  0
    2.9880   -0.3300    0.0000 C    0  0  0  0  0  0  0  0  0  0  0  0
    3.3729   -2.4793    0.0000 O    0  0  0  0  0  0  0  0  0  0  0  0
    8.3222   -2.5343    0.0000 C    0  0  0  0  0  0  0  0  0  0  0  0
    9.5458   -3.2629    0.0000 O    0  0  0  0  0  0  0  0  0  0  0  0
    7.0940   -1.8056    0.0000 C    0  0  0  0  0  0  0  0  0  0  0  0
    7.0711   -3.2354    0.0000 C    0  0  0  0  0  0  0  0  0  0  0  0
    7.9189   -1.8194    0.0000 C    0  0  0  0  0  0  0  0  0  0  0  0
    7.8960   -3.2445    0.0000 C    0  0  0  0  0  0  0  0  0  0  0  0
    1.7231   -2.4518    0.0000 Br   0  0  0  0  0  0  0  0  0  0  0  0
    0.9211   -1.0082    0.0000 O    0  0  0  0  0  0  0  0  0  0  0  0
    9.5687   -1.8331    0.0000 O    0  0  0  0  0  0  0  0  0  0  0  0
    1.7644    0.4078    0.0000 O    0  0  0  0  0  0  0  0  0  0  0  0
    0.4949   -1.7231    0.0000 C    0  0  0  0  0  0  0  0  0  0  0  0
    2.1859    1.1090    0.0000 C    0  0  0  0  0  0  0  0  0  0  0  0
  2  3  1  0  0  0  0
  3  1  1  0  0  0  0
  4  1  1  0  0  0  0
  5  4  1  0  0  0  0
  6  5  1  0  0  0  0
  6  2  1  0  0  0  0
  7  2  2  0  0  0  0
  8 10  1  0  0  0  0
  8  9  2  0  0  0  0
  9 18  1  0  0  0  0
 10 19  2  0  0  0  0
 11  1  1  0  0  0  0
 12  7  1  0  0  0  0
 13 21  1  0  0  0  0
 14 31  1  0  0  0  0
 15  4  2  0  0  0  0
 16 14  3  0  0  0  0
 17  3  2  0  0  0  0
 18 12  2  0  0  0  0
 19 12  1  0  0  0  0
 20  6  2  0  0  0  0
 21 26  1  0  0  0  0
 22 13  2  0  0  0  0
 23 11  2  0  0  0  0
 24 11  1  0  0  0  0
 25 23  1  0  0  0  0
 25 21  2  0  0  0  0
 26 24  2  0  0  0  0
 27  9  1  0  0  0  0
 28  8  1  0  0  0  0
 29 13  1  0  0  0  0
 30 10  1  0  0  0  0
 31 28  1  0  0  0  0
 32 30  1  0  0  0  0
M  END
> <CdId>
999

> <Mol Weight>
499.268

> <Formula>
C22H15BrN2O7

> <Click_ID>
CLK014_A04 __ __ 

$$$$
