CLK038B09
 OpenBabel03181413202D

 22 23  0  0  0  0  0  0  0  0999 V2000
   -0.4500    0.6333    0.0000 S   0  0  0  0  0  0  0  0  0  0  0  0
   -1.1625    1.0458    0.0000 N   0  0  0  0  0  0  0  0  0  0  0  0
    0.2667    0.2208    0.0000 C   0  0  0  0  0  0  0  0  0  0  0  0
    0.9792   -1.8417    0.0000 C   0  0  0  0  0  0  0  0  0  0  0  0
    2.4083   -3.4917    0.0000 C   0  0  0  0  0  0  0  0  0  0  0  0
    0.9792   -1.0167    0.0000 C   0  0  0  0  0  0  0  0  0  0  0  0
    0.2667   -0.6042    0.0000 C   0  0  0  0  0  0  0  0  0  0  0  0
    3.1250   -3.9042    0.0000 C   0  0  0  0  0  0  0  0  0  0  0  0
   -0.0375    1.3500    0.0000 O   0  0  0  0  0  0  0  0  0  0  0  0
   -0.8625   -0.0792    0.0000 O   0  0  0  0  0  0  0  0  0  0  0  0
   -1.1625    1.8708    0.0000 C   0  0  0  0  0  0  0  0  0  0  0  0
    0.2667   -2.2542    0.0000 O   0  0  0  0  0  0  0  0  0  0  0  0
   -2.6292    1.9500    0.0000 O   0  0  0  0  0  0  0  0  0  0  0  0
    1.6958   -2.2542    0.0000 N   0  0  0  0  0  0  0  0  0  0  0  0
   -1.8792    2.2833    0.0000 C   0  0  3  0  0  0  0  0  0  0  0  0
    1.6958   -3.0792    0.0000 C   0  0  0  0  0  0  0  0  0  0  0  0
    0.9792    0.6333    0.0000 C   0  0  0  0  0  0  0  0  0  0  0  0
    1.6958   -0.6042    0.0000 C   0  0  0  0  0  0  0  0  0  0  0  0
    1.6958    0.2208    0.0000 C   0  0  0  0  0  0  0  0  0  0  0  0
   -3.1833    2.5625    0.0000 C   0  0  0  0  0  0  0  0  0  0  0  0
   -1.9625    3.1042    0.0000 C   0  0  0  0  0  0  0  0  0  0  0  0
   -2.7708    3.2750    0.0000 C   0  0  0  0  0  0  0  0  0  0  0  0
  2  1  1  0  0  0  0
  3  1  1  0  0  0  0
  4  6  1  0  0  0  0
  5 16  1  0  0  0  0
  6  7  2  0  0  0  0
  7  3  1  0  0  0  0
  8  5  3  0  0  0  0
  9  1  2  0  0  0  0
 10  1  2  0  0  0  0
 11  2  1  0  0  0  0
 12  4  2  0  0  0  0
 13 15  1  0  0  0  0
 14  4  1  0  0  0  0
 15 11  1  0  0  0  0
 16 14  1  0  0  0  0
 17  3  2  0  0  0  0
 18  6  1  0  0  0  0
 19 17  1  0  0  0  0
 19 18  2  0  0  0  0
 20 13  1  0  0  0  0
 20 22  1  0  0  0  0
 21 15  1  0  0  0  0
 22 21  1  0  0  0  0
M  END
> <CdId>
2906

> <Mol Weight>
322.379

> <Formula>
C15H18N2O4S

> <Click_ID>
CLK038B09 __ __ 

$$$$
