CLK027_F09
 OpenBabel03181413202D

 23 24  0  0  0  0  0  0  0  0999 V2000
   -0.7147   -0.6150    0.0000 C    0  0  0  0  0  0  0  0  0  0  0  0
   -2.1405   -0.6081    0.0000 N    0  0  0  0  0  0  0  0  0  0  0  0
   -1.4293   -1.8450    0.0000 N    0  0  0  0  0  0  0  0  0  0  0  0
   -1.4293   -0.1993    0.0000 C    0  0  0  0  0  0  0  0  0  0  0  0
   -0.7181   -1.4362    0.0000 C    0  0  0  0  0  0  0  0  0  0  0  0
   -2.1439   -1.4293    0.0000 C    0  0  0  0  0  0  0  0  0  0  0  0
    0.0000   -0.2027    0.0000 C    0  0  0  0  0  0  0  0  0  0  0  0
    0.7181   -0.6150    0.0000 C    0  0  0  0  0  0  0  0  0  0  0  0
    1.4259   -0.2096    0.0000 C    0  0  0  0  0  0  0  0  0  0  0  0
    2.1405   -0.6219    0.0000 C    0  0  0  0  0  0  0  0  0  0  0  0
    2.1439   -1.4396    0.0000 C    0  0  0  0  0  0  0  0  0  0  0  0
    2.1439    1.8553    0.0000 C    0  0  0  0  0  0  0  0  0  0  0  0
    2.1439    2.6834    0.0000 C    0  0  0  0  0  0  0  0  0  0  0  0
    0.7147   -1.4396    0.0000 C    0  0  0  0  0  0  0  0  0  0  0  0
   -0.0035   -1.8485    0.0000 O    0  0  0  0  0  0  0  0  0  0  0  0
   -1.4293    0.6253    0.0000 O    0  0  0  0  0  0  0  0  0  0  0  0
   -2.8620   -1.8416    0.0000 O    0  0  0  0  0  0  0  0  0  0  0  0
    1.4293   -1.8553    0.0000 C    0  0  0  0  0  0  0  0  0  0  0  0
    2.8586   -0.2061    0.0000 O    0  0  0  0  0  0  0  0  0  0  0  0
    1.4259    0.6184    0.0000 O    0  0  0  0  0  0  0  0  0  0  0  0
    1.4293   -2.6799    0.0000 Br   0  0  0  0  0  0  0  0  0  0  0  0
    2.1439    1.0307    0.0000 C    0  0  0  0  0  0  0  0  0  0  0  0
    2.8586    0.6184    0.0000 C    0  0  0  0  0  0  0  0  0  0  0  0
  2  4  1  0  0  0  0
  2  6  1  0  0  0  0
  3  5  1  0  0  0  0
  4  1  1  0  0  0  0
  5  1  1  0  0  0  0
  6  3  1  0  0  0  0
  7  1  2  0  0  0  0
  8  7  1  0  0  0  0
  9  8  2  0  0  0  0
 10  9  1  0  0  0  0
 11 18  1  0  0  0  0
 11 10  2  0  0  0  0
 12 22  1  0  0  0  0
 13 12  3  0  0  0  0
 14  8  1  0  0  0  0
 15  5  2  0  0  0  0
 16  4  2  0  0  0  0
 17  6  2  0  0  0  0
 18 14  2  0  0  0  0
 19 10  1  0  0  0  0
 20  9  1  0  0  0  0
 21 18  1  0  0  0  0
 22 20  1  0  0  0  0
 23 19  1  0  0  0  0
M  END
> <CdId>
2069

> <Mol Weight>
379.162

> <Formula>
C15H11BrN2O5

> <Click_ID>
CLK027_F09 __ __ 

$$$$
