CLK022_D08
 OpenBabel03181413202D

 21 22  0  0  0  0  0  0  0  0999 V2000
    4.2809    1.6454    0.0000 C   0  0  0  0  0  0  0  0  0  0  0  0
    3.8684    2.3604    0.0000 N   0  0  0  0  0  0  0  0  0  0  0  0
    8.8184    2.3604    0.0000 C   0  0  0  0  0  0  0  0  0  0  0  0
    9.6434    2.3604    0.0000 C   0  0  0  0  0  0  0  0  0  0  0  0
    5.1059    1.6454    0.0000 C   0  0  0  0  0  0  0  0  0  0  0  0
    3.0434    2.3604    0.0000 C   0  0  3  0  0  0  0  0  0  0  0  0
    3.8684    0.9304    0.0000 O   0  0  0  0  0  0  0  0  0  0  0  0
    2.6309    3.0754    0.0000 C   0  0  0  0  0  0  0  0  0  0  0  0
    5.5184    0.9304    0.0000 C   0  0  0  0  0  0  0  0  0  0  0  0
    5.5184    2.3604    0.0000 C   0  0  0  0  0  0  0  0  0  0  0  0
    6.7559    1.6454    0.0000 C   0  0  0  0  0  0  0  0  0  0  0  0
    6.3434    0.9304    0.0000 C   0  0  0  0  0  0  0  0  0  0  0  0
    6.3434    2.3604    0.0000 C   0  0  0  0  0  0  0  0  0  0  0  0
    7.9934    2.3604    0.0000 C   0  0  0  0  0  0  0  0  0  0  0  0
    7.5809    1.6454    0.0000 O   0  0  0  0  0  0  0  0  0  0  0  0
    2.6309    1.6454    0.0000 C   0  0  0  0  0  0  0  0  0  0  0  0
    3.0434    3.7904    0.0000 C   0  0  0  0  0  0  0  0  0  0  0  0
    1.8059    3.0754    0.0000 C   0  0  0  0  0  0  0  0  0  0  0  0
    1.3934    3.7904    0.0000 C   0  0  0  0  0  0  0  0  0  0  0  0
    2.6309    4.4962    0.0000 C   0  0  0  0  0  0  0  0  0  0  0  0
    1.8059    4.4962    0.0000 C   0  0  0  0  0  0  0  0  0  0  0  0
  2  1  1  0  0  0  0
  3 14  1  0  0  0  0
  4  3  3  0  0  0  0
  5  1  1  0  0  0  0
  6  2  1  0  0  0  0
  7  1  2  0  0  0  0
  8  6  1  0  0  0  0
  9  5  2  0  0  0  0
 10  5  1  0  0  0  0
 11 13  1  0  0  0  0
 11 12  2  0  0  0  0
 12  9  1  0  0  0  0
 13 10  2  0  0  0  0
 14 15  1  0  0  0  0
 15 11  1  0  0  0  0
 16  6  1  0  0  0  0
 17  8  2  0  0  0  0
 18  8  1  0  0  0  0
 19 18  2  0  0  0  0
 20 17  1  0  0  0  0
 21 19  1  0  0  0  0
 21 20  2  0  0  0  0
M  END
> <CdId>
1667

> <Mol Weight>
279.3331

> <Formula>
C18H17NO2

> <Click_ID>
CLK022_D08 __ __ 

$$$$
