CLK002_A08
 OpenBabel03181413202D

 19 20  0  0  0  0  0  0  0  0999 V2000
    0.6790    0.9135    0.0000 C   0  0  3  0  0  0  0  0  0  0  0  0
   -0.1408    0.9135    0.0000 C   0  0  0  0  0  0  0  0  0  0  0  0
    0.6790    0.0864    0.0000 C   0  0  0  0  0  0  0  0  0  0  0  0
    1.5060    0.9135    0.0000 C   0  0  0  0  0  0  0  0  0  0  0  0
    0.6790    1.7331    0.0000 O   0  0  0  0  0  0  0  0  0  0  0  0
   -0.5530    0.1975    0.0000 C   0  0  0  0  0  0  0  0  0  0  0  0
   -0.5530    1.6295    0.0000 C   0  0  0  0  0  0  0  0  0  0  0  0
   -0.0247   -0.3308    0.0000 C   0  0  0  0  0  0  0  0  0  0  0  0
    2.3380    0.9135    0.0000 C   0  0  0  0  0  0  0  0  0  0  0  0
   -0.0247    2.1455    0.0000 C   0  0  0  0  0  0  0  0  0  0  0  0
   -1.3702    0.1975    0.0000 C   0  0  0  0  0  0  0  0  0  0  0  0
   -1.3850    1.6295    0.0000 C   0  0  0  0  0  0  0  0  0  0  0  0
   -0.0148   -1.1480    0.0000 N   0  0  0  0  0  0  0  0  0  0  0  0
   -1.7875    0.9135    0.0000 C   0  0  0  0  0  0  0  0  0  0  0  0
   -0.7259   -1.5603    0.0000 C   0  0  0  0  0  0  0  0  0  0  0  0
    0.7011   -1.5579    0.0000 C   0  0  0  0  0  0  0  0  0  0  0  0
   -0.7160   -2.4022    0.0000 C   0  0  0  0  0  0  0  0  0  0  0  0
    0.7061   -2.3800    0.0000 C   0  0  0  0  0  0  0  0  0  0  0  0
    0.0000   -2.8022    0.0000 C   0  0  0  0  0  0  0  0  0  0  0  0
  1  2  1  0  0  0  0
  1  3  1  0  0  0  0
  1  4  1  0  0  0  0
  1  5  1  0  0  0  0
  2  6  1  0  0  0  0
  2  7  2  0  0  0  0
  3  8  1  0  0  0  0
  4  9  3  0  0  0  0
  5 10  1  0  0  0  0
  6 11  2  0  0  0  0
  7 12  1  0  0  0  0
  8 13  1  0  0  0  0
 11 14  1  0  0  0  0
 12 14  2  0  0  0  0
 13 15  1  0  0  0  0
 13 16  1  0  0  0  0
 15 17  1  0  0  0  0
 16 18  1  0  0  0  0
 17 19  1  0  0  0  0
 18 19  1  0  0  0  0
M  END
> <CdId>
87

> <Mol Weight>
257.3706

> <Formula>
C17H23NO

> <Click_ID>
CLK002_A08 __ __ 

$$$$
