CLK044D06
 OpenBabel03181413202D

 22 23  0  0  0  0  0  0  0  0999 V2000
   -0.0333    0.5083    0.0000 C    0  0  0  0  0  0  0  0  0  0  0  0
   -0.7500    0.9208    0.0000 N    0  0  0  0  0  0  0  0  0  0  0  0
   -0.7500    1.7458    0.0000 C    0  0  0  0  0  0  0  0  0  0  0  0
   -1.4625    2.1583    0.0000 C    0  0  0  0  0  0  0  0  0  0  0  0
    2.1083   -3.2042    0.0000 C    0  0  0  0  0  0  0  0  0  0  0  0
    0.6792   -0.7292    0.0000 N    0  0  0  0  0  0  0  0  0  0  0  0
    2.8250   -3.6167    0.0000 C    0  0  0  0  0  0  0  0  0  0  0  0
   -0.0333   -0.3167    0.0000 C    0  0  3  0  0  0  0  0  0  0  0  0
   -1.4625    2.9833    0.0000 C    0  0  0  0  0  0  0  0  0  0  0  0
    0.6792    0.9208    0.0000 O    0  0  0  0  0  0  0  0  0  0  0  0
    0.6792   -1.5542    0.0000 C    0  0  0  0  0  0  0  0  0  0  0  0
    1.3958   -2.7917    0.0000 C    0  0  0  0  0  0  0  0  0  0  0  0
    1.3958   -1.9667    0.0000 C    0  0  0  0  0  0  0  0  0  0  0  0
   -2.1792    3.3958    0.0000 Cl   0  0  0  0  0  0  0  0  0  0  0  0
   -0.0333    2.1583    0.0000 C    0  0  0  0  0  0  0  0  0  0  0  0
   -2.1792    1.7458    0.0000 C    0  0  0  0  0  0  0  0  0  0  0  0
   -0.0333    2.9833    0.0000 C    0  0  0  0  0  0  0  0  0  0  0  0
   -0.0333   -2.7917    0.0000 C    0  0  0  0  0  0  0  0  0  0  0  0
   -0.7500    3.3958    0.0000 C    0  0  0  0  0  0  0  0  0  0  0  0
   -0.0333   -1.9667    0.0000 C    0  0  0  0  0  0  0  0  0  0  0  0
   -0.7500   -0.7292    0.0000 C    0  0  0  0  0  0  0  0  0  0  0  0
    0.6792   -3.2042    0.0000 C    0  0  0  0  0  0  0  0  0  0  0  0
  2  1  1  0  0  0  0
  3  2  1  0  0  0  0
  4  3  2  0  0  0  0
  5 12  1  0  0  0  0
  6  8  1  0  0  0  0
  7  5  3  0  0  0  0
  8  1  1  0  0  0  0
  9  4  1  0  0  0  0
 10  1  2  0  0  0  0
 11  6  1  0  0  0  0
 12 13  1  0  0  0  0
 13 11  2  0  0  0  0
 14  9  1  0  0  0  0
 15  3  1  0  0  0  0
 16  4  1  0  0  0  0
 17 15  2  0  0  0  0
 18 20  2  0  0  0  0
 19  9  2  0  0  0  0
 19 17  1  0  0  0  0
 20 11  1  0  0  0  0
 21  8  1  0  0  0  0
 22 12  2  0  0  0  0
 22 18  1  0  0  0  0
M  END
> <CdId>
3364

> <Mol Weight>
312.793

> <Formula>
C18H17ClN2O

> <Click_ID>
CLK044D06 __ __ 

$$$$
