CLK006_G07
 OpenBabel03181413202D

 32 35  0  0  0  0  0  0  0  0999 V2000
    1.0900    0.8989    0.0000 C   0  0  0  0  0  0  0  0  0  0  0  0
    0.3876    0.4943    0.0000 C   0  0  0  0  0  0  0  0  0  0  0  0
    1.0900    1.7360    0.0000 C   0  0  0  0  0  0  0  0  0  0  0  0
    1.8427    0.4663    0.0000 N   0  0  0  0  0  0  0  0  0  0  0  0
    0.3876   -0.3371    0.0000 C   0  0  0  0  0  0  0  0  0  0  0  0
   -0.3314    0.8989    0.0000 C   0  0  0  0  0  0  0  0  0  0  0  0
    0.3764    2.1406    0.0000 C   0  0  0  0  0  0  0  0  0  0  0  0
    1.8090    2.1406    0.0000 C   0  0  0  0  0  0  0  0  0  0  0  0
    1.8427   -0.3203    0.0000 N   0  0  0  0  0  0  0  0  0  0  0  0
    1.0900   -0.7416    0.0000 C   0  0  0  0  0  0  0  0  0  0  0  0
   -0.3314   -0.7416    0.0000 C   0  0  0  0  0  0  0  0  0  0  0  0
   -1.0450    0.4663    0.0000 C   0  0  0  0  0  0  0  0  0  0  0  0
    0.3764    2.9720    0.0000 C   0  0  0  0  0  0  0  0  0  0  0  0
    1.8090    2.9382    0.0000 C   0  0  0  0  0  0  0  0  0  0  0  0
    1.0900   -1.5563    0.0000 N   0  0  0  0  0  0  0  0  0  0  0  0
   -1.0450   -0.3203    0.0000 C   0  0  0  0  0  0  0  0  0  0  0  0
    1.0900    3.3428    0.0000 C   0  0  0  0  0  0  0  0  0  0  0  0
    0.3876   -1.9664    0.0000 C   0  0  0  0  0  0  0  0  0  0  0  0
    1.1237    4.1799    0.0000 O   0  0  0  0  0  0  0  0  0  0  0  0
    0.3876   -2.7923    0.0000 C   0  0  0  0  0  0  0  0  0  0  0  0
   -0.3314   -1.5563    0.0000 C   0  0  0  0  0  0  0  0  0  0  0  0
    0.4213    4.5845    0.0000 C   0  0  0  0  0  0  0  0  0  0  0  0
   -0.3314   -3.2024    0.0000 C   0  0  0  0  0  0  0  0  0  0  0  0
   -1.0450   -1.9776    0.0000 C   0  0  0  0  0  0  0  0  0  0  0  0
    0.4551    5.4159    0.0000 C   0  0  0  0  0  0  0  0  0  0  0  0
   -1.0450   -2.7642    0.0000 C   0  0  0  0  0  0  0  0  0  0  0  0
    0.4551    6.2305    0.0000 C   0  0  0  0  0  0  0  0  0  0  0  0
   -1.7977   -3.1743    0.0000 O   0  0  0  0  0  0  0  0  0  0  0  0
   -1.8259   -3.9665    0.0000 C   0  0  0  0  0  0  0  0  0  0  0  0
   -2.5563   -4.3428    0.0000 C   0  0  0  0  0  0  0  0  0  0  0  0
   -3.2418   -3.9215    0.0000 N   0  0  0  0  0  0  0  0  0  0  0  0
   -2.6124   -5.1912    0.0000 O   0  0  0  0  0  0  0  0  0  0  0  0
  1  2  2  0  0  0  0
  1  3  1  0  0  0  0
  1  4  1  0  0  0  0
  2  5  1  0  0  0  0
  2  6  1  0  0  0  0
  3  7  2  0  0  0  0
  3  8  1  0  0  0  0
  4  9  2  0  0  0  0
  5 10  2  0  0  0  0
  5 11  1  0  0  0  0
  6 12  2  0  0  0  0
  7 13  1  0  0  0  0
  8 14  2  0  0  0  0
  9 10  1  0  0  0  0
 10 15  1  0  0  0  0
 11 16  2  0  0  0  0
 12 16  1  0  0  0  0
 13 17  2  0  0  0  0
 14 17  1  0  0  0  0
 15 18  1  0  0  0  0
 17 19  1  0  0  0  0
 18 20  2  0  0  0  0
 18 21  1  0  0  0  0
 19 22  1  0  0  0  0
 20 23  1  0  0  0  0
 21 24  2  0  0  0  0
 22 25  1  0  0  0  0
 23 26  2  0  0  0  0
 24 26  1  0  0  0  0
 25 27  3  0  0  0  0
 26 28  1  0  0  0  0
 28 29  1  0  0  0  0
 29 30  1  0  0  0  0
 30 31  1  0  0  0  0
 30 32  2  0  0  0  0
M  END
> <CdId>
466

> <Mol Weight>
424.4513

> <Formula>
C25H20N4O3

> <Click_ID>
CLK006_G07 __ __ 

$$$$
