CLK020_E03
 OpenBabel03181413202D

 27 29  0  0  0  0  0  0  0  0999 V2000
    9.6424    4.1475    0.0000 N   0  3  0  0  0  0  0  0  0  0  0  0
    6.6864    2.0302    0.0000 C   0  0  0  0  0  0  0  0  0  0  0  0
    6.0540    2.5526    0.0000 C   0  0  0  0  0  0  0  0  0  0  0  0
    7.4563    2.3051    0.0000 C   0  0  0  0  0  0  0  0  0  0  0  0
    8.8312    4.0100    0.0000 C   0  0  0  0  0  0  0  0  0  0  0  0
    5.3391    2.1402    0.0000 C   0  0  0  0  0  0  0  0  0  0  0  0
    8.0888    1.7736    0.0000 C   0  0  0  0  0  0  0  0  0  0  0  0
    8.7212    1.2465    0.0000 N   0  0  0  0  0  0  0  0  0  0  0  0
    7.7404    3.0797    0.0000 C   0  0  0  0  0  0  0  0  0  0  0  0
    5.8065    4.7433    0.0000 C   0  0  0  0  0  0  0  0  0  0  0  0
    8.5562    3.2263    0.0000 C   0  0  0  0  0  0  0  0  0  0  0  0
    4.9954    4.8854    0.0000 C   0  0  0  0  0  0  0  0  0  0  0  0
    9.9311    4.9129    0.0000 O   0  5  0  0  0  0  0  0  0  0  0  0
    6.0540    3.3775    0.0000 C   0  0  0  0  0  0  0  0  0  0  0  0
   10.1786    3.5150    0.0000 O   0  0  0  0  0  0  0  0  0  0  0  0
    4.6241    2.5526    0.0000 C   0  0  0  0  0  0  0  0  0  0  0  0
    5.3391    3.7900    0.0000 C   0  0  0  0  0  0  0  0  0  0  0  0
    4.6241    3.3775    0.0000 C   0  0  0  0  0  0  0  0  0  0  0  0
    6.7689    3.7900    0.0000 O   0  0  0  0  0  0  0  0  0  0  0  0
    6.6177    4.5966    0.0000 C   0  0  0  0  0  0  0  0  0  0  0  0
    8.3041    4.6241    0.0000 C   0  0  0  0  0  0  0  0  0  0  0  0
    7.2089    3.7121    0.0000 C   0  0  0  0  0  0  0  0  0  0  0  0
    5.3391    1.3152    0.0000 C   0  0  0  0  0  0  0  0  0  0  0  0
    7.4930    4.4820    0.0000 C   0  0  0  0  0  0  0  0  0  0  0  0
    3.9092    2.1402    0.0000 C   0  0  0  0  0  0  0  0  0  0  0  0
    4.6241    0.9028    0.0000 C   0  0  0  0  0  0  0  0  0  0  0  0
    3.9092    1.3152    0.0000 C   0  0  0  0  0  0  0  0  0  0  0  0
  2  4  2  0  0  0  0
  3  2  1  0  0  0  0
  4  9  1  0  0  0  0
  5  1  1  0  0  0  0
  6  3  1  0  0  0  0
  7  4  1  0  0  0  0
  8  7  3  0  0  0  0
  9 11  2  0  0  0  0
  9 22  1  0  0  0  0
 10 20  1  0  0  0  0
 11  5  1  0  0  0  0
 12 10  3  0  0  0  0
 13  1  1  0  0  0  0
 14  3  2  0  0  0  0
 15  1  2  0  0  0  0
 16  6  1  0  0  0  0
 17 14  1  0  0  0  0
 18 17  2  0  0  0  0
 18 16  1  0  0  0  0
 19 14  1  0  0  0  0
 20 19  1  0  0  0  0
 21  5  2  0  0  0  0
 22 24  2  0  0  0  0
 23  6  2  0  0  0  0
 24 21  1  0  0  0  0
 25 16  2  0  0  0  0
 26 23  1  0  0  0  0
 27 26  2  0  0  0  0
 27 25  1  0  0  0  0
M  END
> <CdId>
1518

> <Mol Weight>
354.3582

> <Formula>
C22H14N2O3

> <Click_ID>
CLK020_E03 __ __ 

$$$$
