CLK051E11
 OpenBabel03181413202D

 29 31  0  0  0  0  0  0  0  0999 V2000
    0.6992   -0.9989    0.0000 N   0  0  0  0  0  0  0  0  0  0  0  0
    1.4858   -1.2528    0.0000 C   0  0  0  0  0  0  0  0  0  0  0  0
    0.2165   -1.6648    0.0000 C   0  0  0  0  0  0  0  0  0  0  0  0
   -1.1237    2.3057    0.0000 S   0  0  0  0  0  0  0  0  0  0  0  0
    0.6992   -2.3348    0.0000 C   0  0  3  0  0  0  0  0  0  0  0  0
    1.4858   -2.0768    0.0000 N   0  0  0  0  0  0  0  0  0  0  0  0
    0.4453   -0.2165    0.0000 N   0  0  0  0  0  0  0  0  0  0  0  0
    0.9989    0.3953    0.0000 C   0  0  0  0  0  0  0  0  0  0  0  0
   -0.3163    2.1351    0.0000 C   0  0  0  0  0  0  0  0  0  0  0  0
    0.7409    1.1819    0.0000 C   0  0  0  0  0  0  0  0  0  0  0  0
   -2.9924    3.4336    0.0000 C   0  0  0  0  0  0  0  0  0  0  0  0
   -0.0624    1.3527    0.0000 C   0  0  0  0  0  0  0  0  0  0  0  0
   -3.7957    3.6042    0.0000 C   0  0  0  0  0  0  0  0  0  0  0  0
   -0.9531    3.1131    0.0000 O   0  0  0  0  0  0  0  0  0  0  0  0
   -1.2943    1.4983    0.0000 O   0  0  0  0  0  0  0  0  0  0  0  0
   -0.6076   -1.6648    0.0000 O   0  0  0  0  0  0  0  0  0  0  0  0
    2.1517   -0.7699    0.0000 O   0  0  0  0  0  0  0  0  0  0  0  0
   -1.9311    2.4764    0.0000 N   0  0  0  0  0  0  0  0  0  0  0  0
   -0.1041   -2.5054    0.0000 C   0  0  0  0  0  0  0  0  0  0  0  0
    1.2528   -2.9466    0.0000 C   0  0  0  0  0  0  0  0  0  0  0  0
    1.8021    0.2247    0.0000 O   0  0  0  0  0  0  0  0  0  0  0  0
   -0.3621   -3.2879    0.0000 C   0  0  0  0  0  0  0  0  0  0  0  0
   -2.1850    3.2630    0.0000 C   0  0  0  0  0  0  0  0  0  0  0  0
    0.9989   -3.7290    0.0000 C   0  0  0  0  0  0  0  0  0  0  0  0
    0.1915   -3.8997    0.0000 C   0  0  3  0  0  0  0  0  0  0  0  0
    0.2330    2.7469    0.0000 C   0  0  0  0  0  0  0  0  0  0  0  0
    1.2943    1.7937    0.0000 C   0  0  0  0  0  0  0  0  0  0  0  0
    1.0405    2.5763    0.0000 C   0  0  0  0  0  0  0  0  0  0  0  0
   -0.0624   -4.6863    0.0000 C   0  0  0  0  0  0  0  0  0  0  0  0
  2  1  1  0  0  0  0
  3  1  1  0  0  0  0
  4  9  1  0  0  0  0
  5  3  1  0  0  0  0
  6  2  1  0  0  0  0
  6  5  1  0  0  0  0
  7  1  1  0  0  0  0
  8  7  1  0  0  0  0
  9 12  1  0  0  0  0
 10  8  1  0  0  0  0
 11 23  1  0  0  0  0
 12 10  2  0  0  0  0
 13 11  3  0  0  0  0
 14  4  2  0  0  0  0
 15  4  2  0  0  0  0
 16  3  2  0  0  0  0
 17  2  2  0  0  0  0
 18  4  1  0  0  0  0
 19  5  1  0  0  0  0
 20  5  1  0  0  0  0
 21  8  2  0  0  0  0
 22 19  1  0  0  0  0
 23 18  1  0  0  0  0
 24 20  1  0  0  0  0
 24 25  1  0  0  0  0
 25 22  1  0  0  0  0
 26  9  2  0  0  0  0
 26 28  1  0  0  0  0
 27 10  1  0  0  0  0
 28 27  2  0  0  0  0
 29 25  1  0  0  0  0
M  END
> <CdId>
3965

> <Mol Weight>
418.467

> <Formula>
C19H22N4O5S

> <Click_ID>
CLK051E11 __ __ 

$$$$
