CLK042F05
 OpenBabel03181413202D

 27 28  0  0  0  0  0  0  0  0999 V2000
    0.6872   -0.4206    0.0000 N   0  0  0  0  0  0  0  0  0  0  0  0
    1.4744   -0.1666    0.0000 C   0  0  0  0  0  0  0  0  0  0  0  0
    0.2041    0.2457    0.0000 C   0  0  0  0  0  0  0  0  0  0  0  0
    1.4744    0.6580    0.0000 N   0  0  0  0  0  0  0  0  0  0  0  0
    0.6872    0.9121    0.0000 C   0  0  3  0  0  0  0  0  0  0  0  0
    0.4331   -1.2037    0.0000 C   0  0  0  0  0  0  0  0  0  0  0  0
   -0.3748   -1.3744    0.0000 C   0  0  0  0  0  0  0  0  0  0  0  0
   -2.2407   -2.5031    0.0000 C   0  0  0  0  0  0  0  0  0  0  0  0
    0.9204    1.7035    0.0000 C   0  0  0  0  0  0  0  0  0  0  0  0
   -3.0487   -2.6738    0.0000 C   0  0  0  0  0  0  0  0  0  0  0  0
   -0.6289   -2.1616    0.0000 N   0  0  0  0  0  0  0  0  0  0  0  0
    2.1408   -0.6497    0.0000 O   0  0  0  0  0  0  0  0  0  0  0  0
   -0.6205    0.2457    0.0000 O   0  0  0  0  0  0  0  0  0  0  0  0
   -1.4327   -2.3323    0.0000 C   0  0  0  0  0  0  0  0  0  0  0  0
   -0.9246   -0.7622    0.0000 O   0  0  0  0  0  0  0  0  0  0  0  0
    1.7242    1.8992    0.0000 C   0  0  0  0  0  0  0  0  0  0  0  0
    0.3540    2.3032    0.0000 C   0  0  0  0  0  0  0  0  0  0  0  0
    0.0375    1.4161    0.0000 C   0  0  0  0  0  0  0  0  0  0  0  0
    1.3869    3.2861    0.0000 C   0  0  0  0  0  0  0  0  0  0  0  0
    0.5830    3.0945    0.0000 C   0  0  0  0  0  0  0  0  0  0  0  0
    1.9533    2.6905    0.0000 C   0  0  0  0  0  0  0  0  0  0  0  0
    1.6201    4.0732    0.0000 F   0  0  0  0  0  0  0  0  0  0  0  0
   -1.6076   -1.5243    0.0000 C   0  0  0  0  0  0  0  0  0  0  0  0
   -1.2620   -3.1403    0.0000 C   0  0  0  0  0  0  0  0  0  0  0  0
   -0.7289    1.1037    0.0000 C   0  0  0  0  0  0  0  0  0  0  0  0
   -1.8742   -3.6901    0.0000 C   0  0  0  0  0  0  0  0  0  0  0  0
   -0.9913   -0.9746    0.0000 C   0  0  0  0  0  0  0  0  0  0  0  0
  2  1  1  0  0  0  0
  3  1  1  0  0  0  0
  4  2  1  0  0  0  0
  5  3  1  0  0  0  0
  5  4  1  0  0  0  0
  6  1  1  0  0  0  0
  7  6  1  0  0  0  0
  8 14  1  0  0  0  0
  9  5  1  0  0  0  0
 10  8  3  0  0  0  0
 11  7  1  0  0  0  0
 12  2  2  0  0  0  0
 13  3  2  0  0  0  0
 14 11  1  0  0  0  0
 15  7  2  0  0  0  0
 16  9  1  0  0  0  0
 17  9  2  0  0  0  0
 18  5  1  0  0  0  0
 19 20  2  0  0  0  0
 19 21  1  0  0  0  0
 20 17  1  0  0  0  0
 21 16  2  0  0  0  0
 22 19  1  0  0  0  0
 23 14  1  0  0  0  0
 24 14  1  0  0  0  0
 25 18  1  0  0  0  0
 26 24  1  0  0  0  0
 27 23  1  0  0  0  0
M  END
> <CdId>
3198

> <Mol Weight>
373.4213

> <Formula>
C20H24FN3O3

> <Click_ID>
CLK042F05 __ __ 

$$$$
