CLK027_C07
 OpenBabel03181413202D

 24 26  0  0  0  0  0  0  0  0999 V2000
   -0.8765    0.3815    0.0000 N   0  0  0  0  0  0  0  0  0  0  0  0
   -1.4299   -0.2303    0.0000 C   0  0  0  0  0  0  0  0  0  0  0  0
   -0.1272    0.0550    0.0000 C   0  0  0  0  0  0  0  0  0  0  0  0
   -4.0423   -1.3887    0.0000 N   0  3  0  0  0  0  0  0  0  0  0  0
   -1.0141   -0.9487    0.0000 N   0  0  0  0  0  0  0  0  0  0  0  0
   -0.2028   -0.7666    0.0000 O   0  0  0  0  0  0  0  0  0  0  0  0
   -3.5577   -0.7253    0.0000 C   0  0  0  0  0  0  0  0  0  0  0  0
   -2.2480   -0.1444    0.0000 C   0  0  0  0  0  0  0  0  0  0  0  0
    4.1420    1.7393    0.0000 C   0  0  0  0  0  0  0  0  0  0  0  0
   -2.7327   -0.8112    0.0000 C   0  0  0  0  0  0  0  0  0  0  0  0
    4.8535    2.1484    0.0000 C   0  0  0  0  0  0  0  0  0  0  0  0
    0.5809    0.4709    0.0000 C   0  0  0  0  0  0  0  0  0  0  0  0
   -4.8570   -1.3096    0.0000 O   0  5  0  0  0  0  0  0  0  0  0  0
   -3.7055   -2.1449    0.0000 O   0  0  0  0  0  0  0  0  0  0  0  0
    1.2993    0.0584    0.0000 C   0  0  0  0  0  0  0  0  0  0  0  0
    0.5809    1.3028    0.0000 C   0  0  0  0  0  0  0  0  0  0  0  0
    2.0109    1.3062    0.0000 C   0  0  0  0  0  0  0  0  0  0  0  0
    2.0143    0.4812    0.0000 C   0  0  0  0  0  0  0  0  0  0  0  0
    1.2925    1.7153    0.0000 C   0  0  0  0  0  0  0  0  0  0  0  0
    3.4305    1.3199    0.0000 C   0  0  0  0  0  0  0  0  0  0  0  0
    2.7121    1.7256    0.0000 O   0  0  0  0  0  0  0  0  0  0  0  0
   -3.8911    0.0309    0.0000 C   0  0  0  0  0  0  0  0  0  0  0  0
   -2.5849    0.6084    0.0000 C   0  0  0  0  0  0  0  0  0  0  0  0
   -3.4065    0.6944    0.0000 C   0  0  0  0  0  0  0  0  0  0  0  0
  2  1  1  0  0  0  0
  3  1  2  0  0  0  0
  4  7  1  0  0  0  0
  5  2  2  0  0  0  0
  5  6  1  0  0  0  0
  6  3  1  0  0  0  0
  7 10  2  0  0  0  0
  7 22  1  0  0  0  0
  8  2  1  0  0  0  0
  9 20  1  0  0  0  0
 10  8  1  0  0  0  0
 11  9  3  0  0  0  0
 12  3  1  0  0  0  0
 13  4  1  0  0  0  0
 14  4  2  0  0  0  0
 15 12  2  0  0  0  0
 16 12  1  0  0  0  0
 17 19  1  0  0  0  0
 18 15  1  0  0  0  0
 18 17  2  0  0  0  0
 19 16  2  0  0  0  0
 20 21  1  0  0  0  0
 21 17  1  0  0  0  0
 22 24  2  0  0  0  0
 23  8  2  0  0  0  0
 24 23  1  0  0  0  0
M  END
> <CdId>
2040

> <Mol Weight>
321.2869

> <Formula>
C17H11N3O4

> <Click_ID>
CLK027_C07 __ __ 

$$$$
