CLK023_E11
 OpenBabel03181413202D

 29 30  0  0  0  0  0  0  0  0999 V2000
   -0.3575    0.4125    0.0000 C    0  0  0  0  0  0  0  0  0  0  0  0
   -1.0760    0.8250    0.0000 C    0  0  0  0  0  0  0  0  0  0  0  0
    0.3541    0.8250    0.0000 C    0  0  0  0  0  0  0  0  0  0  0  0
    1.0725    0.4125    0.0000 C    0  0  0  0  0  0  0  0  0  0  0  0
   -0.3575   -0.4228    0.0000 C    0  0  0  0  0  0  0  0  0  0  0  0
    2.5059    0.3987    0.0000 C    0  0  0  0  0  0  0  0  0  0  0  0
   -1.7909    0.4125    0.0000 N    0  0  0  0  0  0  0  0  0  0  0  0
    1.7978    0.8250    0.0000 C    0  0  0  0  0  0  0  0  0  0  0  0
   -0.3575   -1.2443    0.0000 N    0  0  0  0  0  0  0  0  0  0  0  0
    2.5059   -0.4228    0.0000 C    0  0  0  0  0  0  0  0  0  0  0  0
    1.0793   -0.4228    0.0000 C    0  0  0  0  0  0  0  0  0  0  0  0
    3.9393   -2.0763    0.0000 C    0  0  0  0  0  0  0  0  0  0  0  0
    1.7978   -0.8318    0.0000 C    0  0  0  0  0  0  0  0  0  0  0  0
   -3.2209    2.0625    0.0000 C    0  0  0  0  0  0  0  0  0  0  0  0
    4.6406   -2.4853    0.0000 C    0  0  0  0  0  0  0  0  0  0  0  0
   -2.5025    1.6500    0.0000 C    0  0  0  0  0  0  0  0  0  0  0  0
   -2.5025    0.8250    0.0000 C    0  0  0  0  0  0  0  0  0  0  0  0
   -1.0760    1.6465    0.0000 O    0  0  0  0  0  0  0  0  0  0  0  0
   -3.9359    1.6500    0.0000 C    0  0  0  0  0  0  0  0  0  0  0  0
   -3.9325    0.8250    0.0000 C    0  0  0  0  0  0  0  0  0  0  0  0
    1.7978    1.6465    0.0000 Br   0  0  0  0  0  0  0  0  0  0  0  0
   -3.2209    2.8909    0.0000 Cl   0  0  0  0  0  0  0  0  0  0  0  0
   -3.2209    0.4125    0.0000 C    0  0  0  0  0  0  0  0  0  0  0  0
    3.2175   -0.8318    0.0000 O    0  0  0  0  0  0  0  0  0  0  0  0
    1.7978   -1.6568    0.0000 O    0  0  0  0  0  0  0  0  0  0  0  0
    3.2313   -1.6568    0.0000 C    0  0  0  0  0  0  0  0  0  0  0  0
   -4.6441    2.0625    0.0000 C    0  0  0  0  0  0  0  0  0  0  0  0
    1.0793   -2.0659    0.0000 C    0  0  0  0  0  0  0  0  0  0  0  0
    1.0793   -2.8875    0.0000 C    0  0  0  0  0  0  0  0  0  0  0  0
  2  1  1  0  0  0  0
  3  1  2  0  0  0  0
  4  3  1  0  0  0  0
  5  1  1  0  0  0  0
  6  8  1  0  0  0  0
  7  2  1  0  0  0  0
  8  4  2  0  0  0  0
  9  5  3  0  0  0  0
 10 13  1  0  0  0  0
 10  6  2  0  0  0  0
 11  4  1  0  0  0  0
 12 26  1  0  0  0  0
 13 11  2  0  0  0  0
 14 16  1  0  0  0  0
 15 12  3  0  0  0  0
 16 17  2  0  0  0  0
 17  7  1  0  0  0  0
 18  2  2  0  0  0  0
 19 20  1  0  0  0  0
 19 14  2  0  0  0  0
 20 23  2  0  0  0  0
 21  8  1  0  0  0  0
 22 14  1  0  0  0  0
 23 17  1  0  0  0  0
 24 10  1  0  0  0  0
 25 13  1  0  0  0  0
 26 24  1  0  0  0  0
 27 19  1  0  0  0  0
 28 25  1  0  0  0  0
 29 28  1  0  0  0  0
M  END
> <CdId>
1746

> <Mol Weight>
473.747

> <Formula>
C22H18BrClN2O3

> <Click_ID>
CLK023_E11 __ __ 

$$$$
