CLK015_E09
 OpenBabel03181413202D

 30 32  0  0  0  0  0  0  0  0999 V2000
    1.6949   -1.6079    0.0000 N   0  0  0  0  0  0  0  0  0  0  0  0
    0.2657   -1.6079    0.0000 C   0  0  0  0  0  0  0  0  0  0  0  0
    0.9803   -1.1956    0.0000 C   0  0  0  0  0  0  0  0  0  0  0  0
    1.6949   -2.4324    0.0000 C   0  0  0  0  0  0  0  0  0  0  0  0
    0.9803   -2.8447    0.0000 N   0  0  0  0  0  0  0  0  0  0  0  0
    0.2657   -2.4324    0.0000 C   0  0  0  0  0  0  0  0  0  0  0  0
   -0.4489   -1.1956    0.0000 C   0  0  0  0  0  0  0  0  0  0  0  0
    2.4095   -1.1956    0.0000 C   0  0  0  0  0  0  0  0  0  0  0  0
    4.5533    0.0412    0.0000 C   0  0  0  0  0  0  0  0  0  0  0  0
   -3.3073    1.2780    0.0000 C   0  0  0  0  0  0  0  0  0  0  0  0
    2.4095   -2.8447    0.0000 O   0  0  0  0  0  0  0  0  0  0  0  0
   -4.0219    0.8658    0.0000 C   0  0  0  0  0  0  0  0  0  0  0  0
    0.9803   -0.3710    0.0000 O   0  0  0  0  0  0  0  0  0  0  0  0
   -0.4489   -2.8447    0.0000 O   0  0  0  0  0  0  0  0  0  0  0  0
    3.8387   -0.3710    0.0000 C   0  0  0  0  0  0  0  0  0  0  0  0
   -0.4489   -0.3619    0.0000 C   0  0  0  0  0  0  0  0  0  0  0  0
    4.5533    0.8658    0.0000 O   0  0  0  0  0  0  0  0  0  0  0  0
    3.1241   -1.6079    0.0000 C   0  0  0  0  0  0  0  0  0  0  0  0
    2.4095   -0.3710    0.0000 C   0  0  0  0  0  0  0  0  0  0  0  0
    3.8387   -1.1956    0.0000 C   0  0  0  0  0  0  0  0  0  0  0  0
    3.1241    0.0412    0.0000 C   0  0  0  0  0  0  0  0  0  0  0  0
   -1.1635    0.0504    0.0000 C   0  0  0  0  0  0  0  0  0  0  0  0
    5.2679   -0.3710    0.0000 O   0  0  0  0  0  0  0  0  0  0  0  0
   -1.1635    0.8749    0.0000 C   0  0  0  0  0  0  0  0  0  0  0  0
   -2.5927    0.8749    0.0000 C   0  0  0  0  0  0  0  0  0  0  0  0
   -1.8781    1.2872    0.0000 O   0  0  0  0  0  0  0  0  0  0  0  0
    0.2657    0.8658    0.0000 C   0  0  0  0  0  0  0  0  0  0  0  0
    0.2657    0.0504    0.0000 C   0  0  0  0  0  0  0  0  0  0  0  0
   -0.4489    1.2780    0.0000 C   0  0  0  0  0  0  0  0  0  0  0  0
    5.9825    0.0412    0.0000 C   0  0  0  0  0  0  0  0  0  0  0  0
  2  3  1  0  0  0  0
  3  1  1  0  0  0  0
  4  1  1  0  0  0  0
  5  4  1  0  0  0  0
  6  5  1  0  0  0  0
  6  2  1  0  0  0  0
  7  2  2  0  0  0  0
  8  1  1  0  0  0  0
  9 15  1  0  0  0  0
 10 25  1  0  0  0  0
 11  4  2  0  0  0  0
 12 10  3  0  0  0  0
 13  3  2  0  0  0  0
 14  6  2  0  0  0  0
 15 21  2  0  0  0  0
 16  7  1  0  0  0  0
 17  9  2  0  0  0  0
 18  8  1  0  0  0  0
 19  8  2  0  0  0  0
 20 18  2  0  0  0  0
 20 15  1  0  0  0  0
 21 19  1  0  0  0  0
 22 16  2  0  0  0  0
 23  9  1  0  0  0  0
 24 22  1  0  0  0  0
 25 26  1  0  0  0  0
 26 24  1  0  0  0  0
 27 28  2  0  0  0  0
 28 16  1  0  0  0  0
 29 27  1  0  0  0  0
 29 24  2  0  0  0  0
 30 23  1  0  0  0  0
M  END
> <CdId>
1124

> <Mol Weight>
404.3722

> <Formula>
C22H16N2O6

> <Click_ID>
CLK015_E09 __ __ 

$$$$
