CLK028_C07
 OpenBabel03181413202D

 25 26  0  0  0  0  0  0  0  0999 V2000
   -4.3003   -1.8494    0.0000 N    0  0  0  0  0  0  0  0  0  0  0  0
   -3.5819   -1.4403    0.0000 C    0  0  0  0  0  0  0  0  0  0  0  0
    0.7012    0.2200    0.0000 C    0  0  0  0  0  0  0  0  0  0  0  0
    2.1312    0.2200    0.0000 C    0  0  0  0  0  0  0  0  0  0  0  0
    1.4128   -0.2028    0.0000 C    0  0  0  0  0  0  0  0  0  0  0  0
   -2.8703   -0.1925    0.0000 N    0  0  0  0  0  0  0  0  0  0  0  0
    2.1347    1.0450    0.0000 C    0  0  0  0  0  0  0  0  0  0  0  0
    0.7081    1.0450    0.0000 C    0  0  0  0  0  0  0  0  0  0  0  0
    4.2900    1.4163    0.0000 C    0  0  0  0  0  0  0  0  0  0  0  0
    1.4231    1.4540    0.0000 C    0  0  0  0  0  0  0  0  0  0  0  0
    5.0118    1.8288    0.0000 C    0  0  0  0  0  0  0  0  0  0  0  0
   -0.7253    0.2200    0.0000 N    0  0  0  0  0  0  0  0  0  0  0  0
   -5.0118   -1.4403    0.0000 O    0  0  0  0  0  0  0  0  0  0  0  0
   -2.1553   -0.6016    0.0000 C    0  0  0  0  0  0  0  0  0  0  0  0
   -4.3003   -2.6744    0.0000 O    0  0  0  0  0  0  0  0  0  0  0  0
   -3.5819   -0.6016    0.0000 C    0  0  0  0  0  0  0  0  0  0  0  0
   -0.0138   -0.1925    0.0000 C    0  0  0  0  0  0  0  0  0  0  0  0
   -2.8703   -1.8494    0.0000 C    0  0  0  0  0  0  0  0  0  0  0  0
   -1.4369   -0.1925    0.0000 N    0  0  0  0  0  0  0  0  0  0  0  0
    1.4128   -1.0141    0.0000 Br   0  0  0  0  0  0  0  0  0  0  0  0
   -2.1553   -1.4403    0.0000 C    0  0  0  0  0  0  0  0  0  0  0  0
    2.8531    1.4437    0.0000 O    0  0  0  0  0  0  0  0  0  0  0  0
    1.4334    2.2790    0.0000 O    0  0  0  0  0  0  0  0  0  0  0  0
    3.5716    1.0175    0.0000 C    0  0  0  0  0  0  0  0  0  0  0  0
    0.7253    2.6778    0.0000 C    0  0  0  0  0  0  0  0  0  0  0  0
  2  1  1  0  0  0  0
  3 17  1  0  0  0  0
  4  5  2  0  0  0  0
  5  3  1  0  0  0  0
  6 16  2  0  0  0  0
  7 10  2  0  0  0  0
  7  4  1  0  0  0  0
  8  3  2  0  0  0  0
  9 24  1  0  0  0  0
 10  8  1  0  0  0  0
 11  9  3  0  0  0  0
 12 19  1  0  0  0  0
 13  1  1  0  0  0  0
 14 21  2  0  0  0  0
 14  6  1  0  0  0  0
 15  1  2  0  0  0  0
 16  2  1  0  0  0  0
 17 12  2  0  0  0  0
 18  2  2  0  0  0  0
 19 14  1  0  0  0  0
 20  5  1  0  0  0  0
 21 18  1  0  0  0  0
 22  7  1  0  0  0  0
 23 10  1  0  0  0  0
 24 22  1  0  0  0  0
 25 23  1  0  0  0  0
M  END
> <CdId>
2111

> <Mol Weight>
405.203

> <Formula>
C16H13BrN4O4

> <Click_ID>
CLK028_C07 __ __ 

$$$$
