CLK040H10
 OpenBabel03181413202D

 23 25  0  0  0  0  0  0  0  0999 V2000
    0.4833    1.6250    0.0000 C   0  0  0  0  0  0  0  0  0  0  0  0
    0.4833    2.4500    0.0000 C   0  0  0  0  0  0  0  0  0  0  0  0
   -0.2292    1.2125    0.0000 C   0  0  0  0  0  0  0  0  0  0  0  0
    1.2667    2.7042    0.0000 S   0  0  0  0  0  0  0  0  0  0  0  0
    1.2667    1.3708    0.0000 C   0  0  0  0  0  0  0  0  0  0  0  0
    1.7542    2.0375    0.0000 C   0  0  0  0  0  0  0  0  0  0  0  0
   -0.2292    0.3875    0.0000 N   0  0  0  0  0  0  0  0  0  0  0  0
   -0.2292    2.8625    0.0000 N   0  0  0  0  0  0  0  0  0  0  0  0
   -0.9458    1.6250    0.0000 N   0  0  0  0  0  0  0  0  0  0  0  0
   -0.2292   -2.0875    0.0000 C   0  0  0  0  0  0  0  0  0  0  0  0
   -1.6583   -3.7375    0.0000 C   0  0  0  0  0  0  0  0  0  0  0  0
   -2.3750   -4.1500    0.0000 C   0  0  0  0  0  0  0  0  0  0  0  0
   -0.9458    2.4500    0.0000 C   0  0  0  0  0  0  0  0  0  0  0  0
    0.4833   -0.0250    0.0000 C   0  0  0  0  0  0  0  0  0  0  0  0
   -0.9458   -0.0250    0.0000 C   0  0  0  0  0  0  0  0  0  0  0  0
   -0.2292   -1.2625    0.0000 C   0  0  0  0  0  0  0  0  0  0  0  0
    0.4833   -2.5000    0.0000 O   0  0  0  0  0  0  0  0  0  0  0  0
    0.4833   -0.8500    0.0000 C   0  0  0  0  0  0  0  0  0  0  0  0
   -0.9458   -0.8500    0.0000 C   0  0  0  0  0  0  0  0  0  0  0  0
   -0.9458   -2.5000    0.0000 N   0  0  0  0  0  0  0  0  0  0  0  0
    1.5250    0.5875    0.0000 C   0  0  0  0  0  0  0  0  0  0  0  0
    2.5792    2.0375    0.0000 C   0  0  0  0  0  0  0  0  0  0  0  0
   -0.9458   -3.3250    0.0000 C   0  0  0  0  0  0  0  0  0  0  0  0
  2  1  2  0  0  0  0
  3  1  1  0  0  0  0
  4  2  1  0  0  0  0
  4  6  1  0  0  0  0
  5  1  1  0  0  0  0
  6  5  2  0  0  0  0
  7  3  1  0  0  0  0
  8  2  1  0  0  0  0
  9  3  2  0  0  0  0
  9 13  1  0  0  0  0
 10 16  1  0  0  0  0
 11 23  1  0  0  0  0
 12 11  3  0  0  0  0
 13  8  2  0  0  0  0
 14  7  1  0  0  0  0
 15  7  1  0  0  0  0
 16 18  1  0  0  0  0
 16 19  1  0  0  0  0
 17 10  2  0  0  0  0
 18 14  1  0  0  0  0
 19 15  1  0  0  0  0
 20 10  1  0  0  0  0
 21  5  1  0  0  0  0
 22  6  1  0  0  0  0
 23 20  1  0  0  0  0
M  END
> <CdId>
3080

> <Mol Weight>
328.432

> <Formula>
C17H20N4OS

> <Click_ID>
CLK040H10 __ __ 

$$$$
