CLK021_B09
 OpenBabel03181413202D

 21 20  0  0  0  0  0  0  0  0999 V2000
    8.4746    0.2841    0.0000 Cl   0  0  0  0  0  0  0  0  0  0  0  0
    0.8709    3.8591    0.0000 C    0  0  0  0  0  0  0  0  0  0  0  0
    0.0459    3.8591    0.0000 C    0  0  0  0  0  0  0  0  0  0  0  0
    3.3459    2.4291    0.0000 C    0  0  0  0  0  0  0  0  0  0  0  0
    2.9334    3.1441    0.0000 C    0  0  0  0  0  0  0  0  0  0  0  0
    5.8209    3.8591    0.0000 N    0  0  0  0  0  0  0  0  0  0  0  0
    4.1709    2.4291    0.0000 C    0  0  0  0  0  0  0  0  0  0  0  0
    6.6459    3.8591    0.0000 C    0  0  0  0  0  0  0  0  0  0  0  0
    3.3459    3.8591    0.0000 C    0  0  0  0  0  0  0  0  0  0  0  0
    4.5834    3.1441    0.0000 C    0  0  0  0  0  0  0  0  0  0  0  0
    5.4084    3.1441    0.0000 C    0  0  0  0  0  0  0  0  0  0  0  0
    4.1709    3.8591    0.0000 C    0  0  0  0  0  0  0  0  0  0  0  0
    2.9334    1.7141    0.0000 O    0  0  0  0  0  0  0  0  0  0  0  0
    2.1084    3.1441    0.0000 O    0  0  0  0  0  0  0  0  0  0  0  0
    1.6959    3.8591    0.0000 C    0  0  0  0  0  0  0  0  0  0  0  0
    7.6496    4.8584    0.0000 O    0  0  0  0  0  0  0  0  0  0  0  0
    6.8521    4.6384    0.0000 C    0  0  0  0  0  0  0  0  0  0  0  0
    6.5725    3.0341    0.0000 C    0  0  0  0  0  0  0  0  0  0  0  0
    7.4571    3.7125    0.0000 C    0  0  0  0  0  0  0  0  0  0  0  0
    3.3459    0.9991    0.0000 C    0  0  0  0  0  0  0  0  0  0  0  0
    2.9334    0.2841    0.0000 C    0  0  0  0  0  0  0  0  0  0  0  0
  3  2  3  0  0  0  0
  4  5  2  0  0  0  0
  5 14  1  0  0  0  0
  6 11  1  0  0  0  0
  7  4  1  0  0  0  0
  7 10  2  0  0  0  0
  8  6  1  0  0  0  0
  9  5  1  0  0  0  0
 10 12  1  0  0  0  0
 11 10  1  0  0  0  0
 12  9  2  0  0  0  0
 13  4  1  0  0  0  0
 14 15  1  0  0  0  0
 15  2  1  0  0  0  0
 16 17  1  0  0  0  0
 17  8  1  0  0  0  0
 18  8  1  0  0  0  0
 19  8  1  0  0  0  0
 20 13  1  0  0  0  0
 21 20  1  0  0  0  0
M  END
> <CdId>
1574

> <Mol Weight>
313.82

> <Formula>
C16H24ClNO3

> <Click_ID>
CLK021_B09 __ __ 

$$$$
