CLK009_E03
 OpenBabel03181413202D

 22 23  0  0  0  0  0  0  0  0999 V2000
   -3.1525    0.0709    0.0000 C   0  0  0  0  0  0  0  0  0  0  0  0
   -2.4144    0.4962    0.0000 N   0  0  0  0  0  0  0  0  0  0  0  0
    3.2693    0.4128    0.0000 C   0  0  0  0  0  0  0  0  0  0  0  0
    3.9906    0.8131    0.0000 C   0  0  0  0  0  0  0  0  0  0  0  0
   -1.7139    0.0709    0.0000 C   0  0  0  0  0  0  0  0  0  0  0  0
   -3.8530    0.4712    0.0000 C   0  0  0  0  0  0  0  0  0  0  0  0
    1.1509    0.0333    0.0000 C   0  0  0  0  0  0  0  0  0  0  0  0
   -1.7139   -0.7673    0.0000 O   0  0  0  0  0  0  0  0  0  0  0  0
    1.1301   -0.8048    0.0000 O   0  0  0  0  0  0  0  0  0  0  0  0
   -4.5536    0.0709    0.0000 C   0  0  0  0  0  0  0  0  0  0  0  0
    1.8515    0.4336    0.0000 O   0  0  0  0  0  0  0  0  0  0  0  0
    2.5687    0.0125    0.0000 C   0  0  0  0  0  0  0  0  0  0  0  0
   -3.1525   -0.7673    0.0000 C   0  0  0  0  0  0  0  0  0  0  0  0
   -0.9966    0.4712    0.0000 C   0  0  0  0  0  0  0  0  0  0  0  0
    0.4295    0.4504    0.0000 C   0  0  0  0  0  0  0  0  0  0  0  0
   -0.2960    0.0500    0.0000 C   0  0  0  0  0  0  0  0  0  0  0  0
   -3.8530   -1.1676    0.0000 C   0  0  0  0  0  0  0  0  0  0  0  0
   -3.8488    1.3010    0.0000 C   0  0  0  0  0  0  0  0  0  0  0  0
   -4.5536   -0.7673    0.0000 C   0  0  0  0  0  0  0  0  0  0  0  0
   -5.2750    0.4837    0.0000 C   0  0  0  0  0  0  0  0  0  0  0  0
   -4.5536    1.7222    0.0000 C   0  0  0  0  0  0  0  0  0  0  0  0
   -5.2750    1.3135    0.0000 C   0  0  0  0  0  0  0  0  0  0  0  0
  2  1  1  0  0  0  0
  3 12  1  0  0  0  0
  4  3  3  0  0  0  0
  5  2  1  0  0  0  0
  6  1  1  0  0  0  0
  7 15  1  0  0  0  0
  8  5  2  0  0  0  0
  9  7  2  0  0  0  0
 10  6  2  0  0  0  0
 10 19  1  0  0  0  0
 11  7  1  0  0  0  0
 12 11  1  0  0  0  0
 13  1  2  0  0  0  0
 14  5  1  0  0  0  0
 15 16  1  0  0  0  0
 16 14  1  0  0  0  0
 17 13  1  0  0  0  0
 18  6  1  0  0  0  0
 19 17  2  0  0  0  0
 20 10  1  0  0  0  0
 21 18  2  0  0  0  0
 22 21  1  0  0  0  0
 22 20  2  0  0  0  0
M  END
> <CdId>
638

> <Mol Weight>
295.3325

> <Formula>
C18H17NO3

> <Click_ID>
CLK009_E03 __ __ 

$$$$
