CLK007_E08
 OpenBabel03181413202D

 28 30  0  0  0  0  0  0  0  0999 V2000
    0.0829   -0.7871    0.0000 C   0  0  0  0  0  0  0  0  0  0  0  0
    0.7975   -0.3728    0.0000 C   0  0  3  0  0  0  0  0  0  0  0  0
    0.0829   -1.6017    0.0000 C   0  0  0  0  0  0  0  0  0  0  0  0
   -0.6283   -0.3659    0.0000 C   0  0  0  0  0  0  0  0  0  0  0  0
    0.7975    0.4522    0.0000 C   0  0  0  0  0  0  0  0  0  0  0  0
    1.5085   -0.7767    0.0000 C   0  0  0  0  0  0  0  0  0  0  0  0
   -0.6283   -2.0160    0.0000 N   0  0  0  0  0  0  0  0  0  0  0  0
    0.7975   -2.0160    0.0000 N   0  0  0  0  0  0  0  0  0  0  0  0
   -1.3360   -0.7871    0.0000 N   0  0  0  0  0  0  0  0  0  0  0  0
   -0.6283    0.4626    0.0000 O   0  0  0  0  0  0  0  0  0  0  0  0
    1.5085    0.8664    0.0000 C   0  0  0  0  0  0  0  0  0  0  0  0
    0.0829    0.8630    0.0000 C   0  0  0  0  0  0  0  0  0  0  0  0
    1.5085   -1.6017    0.0000 C   0  0  0  0  0  0  0  0  0  0  0  0
   -1.3360   -1.6121    0.0000 C   0  0  0  0  0  0  0  0  0  0  0  0
    1.5050    1.6915    0.0000 C   0  0  0  0  0  0  0  0  0  0  0  0
    2.3059    0.6524    0.0000 O   0  0  0  0  0  0  0  0  0  0  0  0
    0.0725    1.6811    0.0000 C   0  0  0  0  0  0  0  0  0  0  0  0
    2.2231   -2.0160    0.0000 O   0  0  0  0  0  0  0  0  0  0  0  0
   -2.0574   -2.0229    0.0000 S   0  0  0  0  0  0  0  0  0  0  0  0
    0.7940    2.1023    0.0000 C   0  0  0  0  0  0  0  0  0  0  0  0
    2.7099   -0.0587    0.0000 C   0  0  0  0  0  0  0  0  0  0  0  0
   -0.6421    2.0920    0.0000 O   0  0  0  0  0  0  0  0  0  0  0  0
   -2.7685   -1.6121    0.0000 C   0  0  0  0  0  0  0  0  0  0  0  0
    0.7837    2.9273    0.0000 O   0  0  0  0  0  0  0  0  0  0  0  0
   -1.3567    1.6811    0.0000 C   0  0  0  0  0  0  0  0  0  0  0  0
   -2.7685   -0.7871    0.0000 C   0  0  0  0  0  0  0  0  0  0  0  0
    0.0725    3.3381    0.0000 C   0  0  0  0  0  0  0  0  0  0  0  0
   -3.4831   -0.3728    0.0000 C   0  0  0  0  0  0  0  0  0  0  0  0
  1  2  1  0  0  0  0
  1  3  2  0  0  0  0
  1  4  1  0  0  0  0
  2  5  1  0  0  0  0
  2  6  1  0  0  0  0
  3  7  1  0  0  0  0
  3  8  1  0  0  0  0
  4  9  1  0  0  0  0
  4 10  2  0  0  0  0
  5 11  2  0  0  0  0
  5 12  1  0  0  0  0
  6 13  1  0  0  0  0
  7 14  2  0  0  0  0
  8 13  1  0  0  0  0
  9 14  1  0  0  0  0
 11 15  1  0  0  0  0
 11 16  1  0  0  0  0
 12 17  2  0  0  0  0
 13 18  2  0  0  0  0
 14 19  1  0  0  0  0
 15 20  2  0  0  0  0
 16 21  1  0  0  0  0
 17 22  1  0  0  0  0
 17 20  1  0  0  0  0
 19 23  1  0  0  0  0
 20 24  1  0  0  0  0
 22 25  1  0  0  0  0
 23 26  1  0  0  0  0
 24 27  1  0  0  0  0
 26 28  3  0  0  0  0
M  END
> <CdId>
527

> <Mol Weight>
401.436

> <Formula>
C19H19N3O5S

> <Click_ID>
CLK007_E08 __ __ 

$$$$
