CLK039C02
 OpenBabel03181413202D

 20 21  0  0  0  0  0  0  0  0999 V2000
    1.6750   -0.1417    0.0000 C   0  0  0  0  0  0  0  0  0  0  0  0
    0.9625   -0.5542    0.0000 N   0  0  0  0  0  0  0  0  0  0  0  0
    1.6750    0.6833    0.0000 C   0  0  0  0  0  0  0  0  0  0  0  0
    0.2500   -0.1417    0.0000 C   0  0  0  0  0  0  0  0  0  0  0  0
    0.9625    1.0958    0.0000 C   0  0  0  0  0  0  0  0  0  0  0  0
   -4.0375   -0.1417    0.0000 C   0  0  0  0  0  0  0  0  0  0  0  0
   -4.7542    0.2708    0.0000 C   0  0  0  0  0  0  0  0  0  0  0  0
    0.2500    0.6833    0.0000 C   0  0  0  0  0  0  0  0  0  0  0  0
   -1.8958   -0.5542    0.0000 C   0  0  0  0  0  0  0  0  0  0  0  0
   -0.4667   -0.5542    0.0000 S   0  0  0  0  0  0  0  0  0  0  0  0
    2.3917   -0.5542    0.0000 C   0  0  0  0  0  0  0  0  0  0  0  0
   -1.8958   -1.3792    0.0000 O   0  0  0  0  0  0  0  0  0  0  0  0
   -2.6083   -0.1417    0.0000 N   0  0  0  0  0  0  0  0  0  0  0  0
   -1.1792   -0.1417    0.0000 C   0  0  0  0  0  0  0  0  0  0  0  0
   -3.3250   -0.5542    0.0000 C   0  0  0  0  0  0  0  0  0  0  0  0
    2.3917    1.0958    0.0000 C   0  0  0  0  0  0  0  0  0  0  0  0
    0.9625    1.9208    0.0000 C   0  0  0  0  0  0  0  0  0  0  0  0
    3.1042    0.6833    0.0000 C   0  0  0  0  0  0  0  0  0  0  0  0
    3.1042   -0.1417    0.0000 C   0  0  0  0  0  0  0  0  0  0  0  0
    2.3917   -1.3792    0.0000 C   0  0  0  0  0  0  0  0  0  0  0  0
  2  1  1  0  0  0  0
  3  1  1  0  0  0  0
  4  2  2  0  0  0  0
  4  8  1  0  0  0  0
  5  3  1  0  0  0  0
  6 15  1  0  0  0  0
  7  6  3  0  0  0  0
  8  5  2  0  0  0  0
  9 14  1  0  0  0  0
 10  4  1  0  0  0  0
 11  1  2  0  0  0  0
 12  9  2  0  0  0  0
 13  9  1  0  0  0  0
 14 10  1  0  0  0  0
 15 13  1  0  0  0  0
 16  3  2  0  0  0  0
 17  5  1  0  0  0  0
 18 16  1  0  0  0  0
 18 19  2  0  0  0  0
 19 11  1  0  0  0  0
 20 11  1  0  0  0  0
M  END
> <CdId>
2931

> <Mol Weight>
284.376

> <Formula>
C16H16N2OS

> <Click_ID>
CLK039C02 __ __ 

$$$$
