CLK038F04
 OpenBabel03181413202D

 24 25  0  0  0  0  0  0  0  0999 V2000
   -0.2125    1.9708    0.0000 S   0  0  0  0  0  0  0  0  0  0  0  0
   -0.2125    2.7958    0.0000 N   0  0  0  0  0  0  0  0  0  0  0  0
   -0.2125   -1.3292    0.0000 C   0  0  0  0  0  0  0  0  0  0  0  0
   -0.2125    1.1458    0.0000 C   0  0  0  0  0  0  0  0  0  0  0  0
    0.5042   -1.7417    0.0000 N   0  0  0  0  0  0  0  0  0  0  0  0
    0.5042   -3.3917    0.0000 C   0  0  0  0  0  0  0  0  0  0  0  0
   -1.0375    1.9708    0.0000 O   0  0  0  0  0  0  0  0  0  0  0  0
    0.6125    1.9708    0.0000 O   0  0  0  0  0  0  0  0  0  0  0  0
    0.5042   -4.2167    0.0000 C   0  0  0  0  0  0  0  0  0  0  0  0
   -0.2125   -0.5042    0.0000 C   0  0  0  0  0  0  0  0  0  0  0  0
    0.5042   -2.5667    0.0000 C   0  0  0  0  0  0  0  0  0  0  0  0
   -0.9250   -1.7417    0.0000 O   0  0  0  0  0  0  0  0  0  0  0  0
    0.5042    0.7333    0.0000 C   0  0  0  0  0  0  0  0  0  0  0  0
   -0.9250    0.7333    0.0000 C   0  0  0  0  0  0  0  0  0  0  0  0
    0.5042   -0.0917    0.0000 C   0  0  0  0  0  0  0  0  0  0  0  0
   -0.9250   -0.0917    0.0000 C   0  0  0  0  0  0  0  0  0  0  0  0
    0.4583    3.2792    0.0000 C   0  0  0  0  0  0  0  0  0  0  0  0
   -0.8792    3.2792    0.0000 C   0  0  0  0  0  0  0  0  0  0  0  0
   -0.3208   -2.5667    0.0000 C   0  0  0  0  0  0  0  0  0  0  0  0
    1.3292   -2.5667    0.0000 C   0  0  0  0  0  0  0  0  0  0  0  0
   -0.6250    4.0583    0.0000 C   0  0  0  0  0  0  0  0  0  0  0  0
    0.2000    4.0583    0.0000 C   0  0  0  0  0  0  0  0  0  0  0  0
   -0.7333   -1.8542    0.0000 C   0  0  0  0  0  0  0  0  0  0  0  0
    1.7417   -3.2833    0.0000 C   0  0  0  0  0  0  0  0  0  0  0  0
  2  1  1  0  0  0  0
  3 10  1  0  0  0  0
  4  1  1  0  0  0  0
  5  3  1  0  0  0  0
  6 11  1  0  0  0  0
  7  1  2  0  0  0  0
  8  1  2  0  0  0  0
  9  6  3  0  0  0  0
 10 16  2  0  0  0  0
 11  5  1  0  0  0  0
 12  3  2  0  0  0  0
 13  4  1  0  0  0  0
 14  4  2  0  0  0  0
 15 13  2  0  0  0  0
 15 10  1  0  0  0  0
 16 14  1  0  0  0  0
 17  2  1  0  0  0  0
 18  2  1  0  0  0  0
 19 11  1  0  0  0  0
 20 11  1  0  0  0  0
 21 18  1  0  0  0  0
 21 22  1  0  0  0  0
 22 17  1  0  0  0  0
 23 19  1  0  0  0  0
 24 20  1  0  0  0  0
M  END
> <CdId>
2870

> <Mol Weight>
348.46

> <Formula>
C18H24N2O3S

> <Click_ID>
CLK038F04 __ __ 

$$$$
