CLK025_D08
 OpenBabel03181413202D

 25 26  0  0  0  0  0  0  0  0999 V2000
    2.4998    0.4930    0.0000 N   0  0  0  0  0  0  0  0  0  0  0  0
    2.1688   -0.2551    0.0000 C   0  0  0  0  0  0  0  0  0  0  0  0
    1.8826    1.0448    0.0000 C   0  0  0  0  0  0  0  0  0  0  0  0
    1.1689    0.6310    0.0000 C   0  0  0  0  0  0  0  0  0  0  0  0
    1.3447   -0.1793    0.0000 S   0  0  0  0  0  0  0  0  0  0  0  0
    2.5929   -0.9792    0.0000 N   0  0  0  0  0  0  0  0  0  0  0  0
   -1.6999   -0.2034    0.0000 C   0  0  0  0  0  0  0  0  0  0  0  0
    0.4448    1.0448    0.0000 C   0  0  0  0  0  0  0  0  0  0  0  0
   -0.9896   -0.6172    0.0000 C   0  0  0  0  0  0  0  0  0  0  0  0
   -1.6999    0.6206    0.0000 C   0  0  0  0  0  0  0  0  0  0  0  0
   -0.2689    0.6206    0.0000 C   0  0  0  0  0  0  0  0  0  0  0  0
    3.4170   -0.9655    0.0000 C   0  0  0  0  0  0  0  0  0  0  0  0
   -3.1239   -1.8758    0.0000 C   0  0  0  0  0  0  0  0  0  0  0  0
   -3.8411   -2.2895    0.0000 C   0  0  0  0  0  0  0  0  0  0  0  0
   -0.2689   -0.2034    0.0000 C   0  0  0  0  0  0  0  0  0  0  0  0
   -0.9896    1.0309    0.0000 C   0  0  0  0  0  0  0  0  0  0  0  0
    1.9550    1.8688    0.0000 O   0  0  0  0  0  0  0  0  0  0  0  0
    3.8273   -0.2414    0.0000 O   0  0  0  0  0  0  0  0  0  0  0  0
   -0.9896   -1.4413    0.0000 I   0  0  0  0  0  0  0  0  0  0  0  0
   -2.4170   -0.6275    0.0000 O   0  0  0  0  0  0  0  0  0  0  0  0
   -2.4170    1.0448    0.0000 O   0  0  0  0  0  0  0  0  0  0  0  0
   -2.4136   -1.4654    0.0000 C   0  0  0  0  0  0  0  0  0  0  0  0
    3.8376   -1.6723    0.0000 C   0  0  0  0  0  0  0  0  0  0  0  0
   -2.4136    1.8791    0.0000 C   0  0  0  0  0  0  0  0  0  0  0  0
   -3.1239    2.2929    0.0000 C   0  0  0  0  0  0  0  0  0  0  0  0
  2  1  2  0  0  0  0
  3  1  1  0  0  0  0
  4  3  1  0  0  0  0
  5  2  1  0  0  0  0
  5  4  1  0  0  0  0
  6  2  1  0  0  0  0
  7 10  1  0  0  0  0
  8  4  2  0  0  0  0
  9 15  1  0  0  0  0
  9  7  2  0  0  0  0
 10 16  2  0  0  0  0
 11  8  1  0  0  0  0
 12  6  1  0  0  0  0
 13 22  1  0  0  0  0
 14 13  3  0  0  0  0
 15 11  2  0  0  0  0
 16 11  1  0  0  0  0
 17  3  2  0  0  0  0
 18 12  2  0  0  0  0
 19  9  1  0  0  0  0
 20  7  1  0  0  0  0
 21 10  1  0  0  0  0
 22 20  1  0  0  0  0
 23 12  1  0  0  0  0
 24 21  1  0  0  0  0
 25 24  1  0  0  0  0
M  END
> <CdId>
1893

> <Mol Weight>
470.281

> <Formula>
C17H15IN2O4S

> <Click_ID>
CLK025_D08 __ __ 

$$$$
