CLK026_F06
 OpenBabel03181413202D

 29 32  0  0  0  0  0  0  0  0999 V2000
   -1.9467    1.8402    0.0000 N    0  0  0  0  0  0  0  0  0  0  0  0
   -2.7569    1.6789    0.0000 C    0  0  0  0  0  0  0  0  0  0  0  0
   -2.1046    0.5185    0.0000 C    0  0  0  0  0  0  0  0  0  0  0  0
    0.1786   -0.5803    0.0000 N    0  0  0  0  0  0  0  0  0  0  0  0
   -1.5415    1.1192    0.0000 C    0  0  0  0  0  0  0  0  0  0  0  0
   -1.1604   -0.5527    0.0000 C    0  0  0  0  0  0  0  0  0  0  0  0
   -2.8531    0.8549    0.0000 S    0  0  0  0  0  0  0  0  0  0  0  0
   -0.4944   -0.0859    0.0000 C    0  0  0  0  0  0  0  0  0  0  0  0
   -1.9432   -0.2919    0.0000 C    0  0  0  0  0  0  0  0  0  0  0  0
   -0.0962   -1.3630    0.0000 C    0  0  0  0  0  0  0  0  0  0  0  0
   -0.9098   -1.3527    0.0000 C    0  0  0  0  0  0  0  0  0  0  0  0
    0.9647   -0.3434    0.0000 C    0  0  0  0  0  0  0  0  0  0  0  0
    1.5656   -0.9029    0.0000 C    0  0  0  0  0  0  0  0  0  0  0  0
    2.3518   -0.6524    0.0000 C    0  0  0  0  0  0  0  0  0  0  0  0
   -0.7828    2.6677    0.0000 C    0  0  0  0  0  0  0  0  0  0  0  0
    0.0309    2.7913    0.0000 C    0  0  0  0  0  0  0  0  0  0  0  0
    2.9389   -1.2291    0.0000 C    0  0  0  0  0  0  0  0  0  0  0  0
   -3.3646    2.2419    0.0000 O    0  0  0  0  0  0  0  0  0  0  0  0
   -0.7244    1.0300    0.0000 O    0  0  0  0  0  0  0  0  0  0  0  0
   -1.6033    2.5818    0.0000 C    0  0  0  0  0  0  0  0  0  0  0  0
    1.3767   -1.7132    0.0000 C    0  0  0  0  0  0  0  0  0  0  0  0
    2.7638   -2.0394    0.0000 C    0  0  0  0  0  0  0  0  0  0  0  0
    2.5372    0.1374    0.0000 Cl   0  0  0  0  0  0  0  0  0  0  0  0
    1.9844   -2.2728    0.0000 C    0  0  0  0  0  0  0  0  0  0  0  0
    3.3612   -2.5956    0.0000 Cl   0  0  0  0  0  0  0  0  0  0  0  0
    0.3022   -2.0840    0.0000 C    0  0  0  0  0  0  0  0  0  0  0  0
   -1.3458   -2.0531    0.0000 C    0  0  0  0  0  0  0  0  0  0  0  0
   -0.9441   -2.7741    0.0000 C    0  0  0  0  0  0  0  0  0  0  0  0
   -0.1133   -2.7878    0.0000 C    0  0  0  0  0  0  0  0  0  0  0  0
  2  1  1  0  0  0  0
  3  5  1  0  0  0  0
  4  8  1  0  0  0  0
  5  1  1  0  0  0  0
  6  9  1  0  0  0  0
  7  2  1  0  0  0  0
  7  3  1  0  0  0  0
  8  6  2  0  0  0  0
  9  3  2  0  0  0  0
 10 11  1  0  0  0  0
 10  4  1  0  0  0  0
 11  6  1  0  0  0  0
 12  4  1  0  0  0  0
 13 12  1  0  0  0  0
 14 13  1  0  0  0  0
 15 20  1  0  0  0  0
 16 15  3  0  0  0  0
 17 14  2  0  0  0  0
 18  2  2  0  0  0  0
 19  5  2  0  0  0  0
 20  1  1  0  0  0  0
 21 13  2  0  0  0  0
 22 24  2  0  0  0  0
 22 17  1  0  0  0  0
 23 14  1  0  0  0  0
 24 21  1  0  0  0  0
 25 22  1  0  0  0  0
 26 10  2  0  0  0  0
 27 11  2  0  0  0  0
 28 27  1  0  0  0  0
 29 28  2  0  0  0  0
 29 26  1  0  0  0  0
M  END
> <CdId>
1991

> <Mol Weight>
441.33

> <Formula>
C22H14Cl2N2O2S

> <Click_ID>
CLK026_F06 __ __ 

$$$$
