CLK038C03
 OpenBabel03181413202D

 22 22  0  0  0  0  0  0  0  0999 V2000
    0.5833    0.9750    0.0000 S   0  0  0  0  0  0  0  0  0  0  0  0
   -0.8458   -3.1500    0.0000 C   0  0  0  0  0  0  0  0  0  0  0  0
   -0.1333   -1.0875    0.0000 C   0  0  0  0  0  0  0  0  0  0  0  0
    0.5833    1.8000    0.0000 C   0  0  0  0  0  0  0  0  0  0  0  0
   -0.8458   -3.9750    0.0000 C   0  0  0  0  0  0  0  0  0  0  0  0
    0.5833    0.1500    0.0000 C   0  0  0  0  0  0  0  0  0  0  0  0
   -0.1333   -0.2625    0.0000 C   0  0  0  0  0  0  0  0  0  0  0  0
   -0.8458   -1.5000    0.0000 N   0  0  0  0  0  0  0  0  0  0  0  0
   -0.2417    0.9750    0.0000 O   0  0  0  0  0  0  0  0  0  0  0  0
    1.4083    0.9750    0.0000 O   0  0  0  0  0  0  0  0  0  0  0  0
   -0.8458   -2.3250    0.0000 C   0  0  0  0  0  0  0  0  0  0  0  0
    0.5833   -1.5000    0.0000 O   0  0  0  0  0  0  0  0  0  0  0  0
    1.2958    2.2125    0.0000 C   0  0  0  0  0  0  0  0  0  0  0  0
   -0.1333    2.2125    0.0000 C   0  0  0  0  0  0  0  0  0  0  0  0
   -0.1333    3.0417    0.0000 C   0  0  0  0  0  0  0  0  0  0  0  0
    1.2958    3.0417    0.0000 C   0  0  0  0  0  0  0  0  0  0  0  0
    0.5833    3.4542    0.0000 C   0  0  0  0  0  0  0  0  0  0  0  0
   -0.0208   -2.3250    0.0000 C   0  0  0  0  0  0  0  0  0  0  0  0
   -1.6708   -2.3250    0.0000 C   0  0  0  0  0  0  0  0  0  0  0  0
    0.5833    4.2750    0.0000 C   0  0  0  0  0  0  0  0  0  0  0  0
   -2.0833   -1.6083    0.0000 C   0  0  0  0  0  0  0  0  0  0  0  0
    0.3917   -3.0375    0.0000 C   0  0  0  0  0  0  0  0  0  0  0  0
  2 11  1  0  0  0  0
  3  7  1  0  0  0  0
  4  1  1  0  0  0  0
  5  2  3  0  0  0  0
  6  1  1  0  0  0  0
  7  6  1  0  0  0  0
  8  3  1  0  0  0  0
  9  1  2  0  0  0  0
 10  1  2  0  0  0  0
 11  8  1  0  0  0  0
 12  3  2  0  0  0  0
 13  4  1  0  0  0  0
 14  4  2  0  0  0  0
 15 14  1  0  0  0  0
 16 13  2  0  0  0  0
 17 15  2  0  0  0  0
 17 16  1  0  0  0  0
 18 11  1  0  0  0  0
 19 11  1  0  0  0  0
 20 17  1  0  0  0  0
 21 19  1  0  0  0  0
 22 18  1  0  0  0  0
M  END
> <CdId>
2859

> <Mol Weight>
321.434

> <Formula>
C17H23NO3S

> <Click_ID>
CLK038C03 __ __ 

$$$$
