CLK027_F05
 OpenBabel03181413202D

 29 30  0  0  0  0  0  0  0  0999 V2000
   -0.7116   -1.0278    0.0000 C    0  0  0  0  0  0  0  0  0  0  0  0
   -1.4231   -1.4472    0.0000 C    0  0  0  0  0  0  0  0  0  0  0  0
    0.0103   -1.4403    0.0000 C    0  0  0  0  0  0  0  0  0  0  0  0
    2.1415   -0.1822    0.0000 C    0  0  0  0  0  0  0  0  0  0  0  0
   -2.1382   -1.0416    0.0000 N    0  0  0  0  0  0  0  0  0  0  0  0
   -0.7253   -0.2063    0.0000 C    0  0  0  0  0  0  0  0  0  0  0  0
    2.1485   -1.0038    0.0000 C    0  0  0  0  0  0  0  0  0  0  0  0
    1.4300    0.2234    0.0000 C    0  0  0  0  0  0  0  0  0  0  0  0
    0.7219   -1.0175    0.0000 C    0  0  0  0  0  0  0  0  0  0  0  0
   -0.7357    0.6153    0.0000 N    0  0  0  0  0  0  0  0  0  0  0  0
    4.2865    0.2475    0.0000 C    0  0  0  0  0  0  0  0  0  0  0  0
    4.9947    0.6668    0.0000 C    0  0  0  0  0  0  0  0  0  0  0  0
    1.4438   -1.4231    0.0000 C    0  0  0  0  0  0  0  0  0  0  0  0
    0.7219   -0.1925    0.0000 C    0  0  0  0  0  0  0  0  0  0  0  0
   -2.8463   -1.4609    0.0000 C    0  0  3  0  0  0  0  0  0  0  0  0
   -1.4128   -2.2722    0.0000 O    0  0  0  0  0  0  0  0  0  0  0  0
   -3.5647   -1.0519    0.0000 C    0  0  0  0  0  0  0  0  0  0  0  0
    2.8737   -1.4231    0.0000 Cl   0  0  0  0  0  0  0  0  0  0  0  0
    2.8600    0.2440    0.0000 O    0  0  0  0  0  0  0  0  0  0  0  0
    1.4266    1.0450    0.0000 O    0  0  0  0  0  0  0  0  0  0  0  0
    3.5750   -0.1685    0.0000 C    0  0  0  0  0  0  0  0  0  0  0  0
   -2.8428   -2.2859    0.0000 C    0  0  0  0  0  0  0  0  0  0  0  0
   -3.5716   -0.2269    0.0000 C    0  0  0  0  0  0  0  0  0  0  0  0
   -4.2762   -1.4644    0.0000 C    0  0  0  0  0  0  0  0  0  0  0  0
    2.1278    1.4644    0.0000 C    0  0  0  0  0  0  0  0  0  0  0  0
    2.1278    2.2894    0.0000 C    0  0  0  0  0  0  0  0  0  0  0  0
   -4.9947   -1.0622    0.0000 C    0  0  0  0  0  0  0  0  0  0  0  0
   -4.2900    0.1788    0.0000 C    0  0  0  0  0  0  0  0  0  0  0  0
   -4.9947   -0.2303    0.0000 C    0  0  0  0  0  0  0  0  0  0  0  0
  2  1  1  0  0  0  0
  3  1  2  0  0  0  0
  4  8  2  0  0  0  0
  5  2  1  0  0  0  0
  6  1  1  0  0  0  0
  7 13  2  0  0  0  0
  7  4  1  0  0  0  0
  8 14  1  0  0  0  0
  9  3  1  0  0  0  0
 10  6  3  0  0  0  0
 11 21  1  0  0  0  0
 12 11  3  0  0  0  0
 13  9  1  0  0  0  0
 14  9  2  0  0  0  0
 15  5  1  0  0  0  0
 16  2  2  0  0  0  0
 17 15  1  0  0  0  0
 18  7  1  0  0  0  0
 19  4  1  0  0  0  0
 20  8  1  0  0  0  0
 21 19  1  0  0  0  0
 22 15  1  0  0  0  0
 23 17  2  0  0  0  0
 24 17  1  0  0  0  0
 25 20  1  0  0  0  0
 26 25  1  0  0  0  0
 27 24  2  0  0  0  0
 28 23  1  0  0  0  0
 28 29  2  0  0  0  0
 29 27  1  0  0  0  0
M  END
> <CdId>
2065

> <Mol Weight>
408.877

> <Formula>
C23H21ClN2O3

> <Click_ID>
CLK027_F05 __ __ 

$$$$
