CLK020_E02
 OpenBabel03181413202D

 25 26  0  0  0  0  0  0  0  0999 V2000
    6.7971    2.6216    0.0000 N   0  3  0  0  0  0  0  0  0  0  0  0
    4.3221    4.0516    0.0000 C   0  0  0  0  0  0  0  0  0  0  0  0
    4.7346    4.7621    0.0000 C   0  0  0  0  0  0  0  0  0  0  0  0
    4.7346    3.3366    0.0000 C   0  0  0  0  0  0  0  0  0  0  0  0
    5.9721    2.6216    0.0000 C   0  0  0  0  0  0  0  0  0  0  0  0
    4.3221    5.4771    0.0000 C   0  0  0  0  0  0  0  0  0  0  0  0
    3.9096    6.1921    0.0000 N   0  0  0  0  0  0  0  0  0  0  0  0
    8.8596    4.7621    0.0000 N   0  0  0  0  0  0  0  0  0  0  0  0
    5.5596    3.3366    0.0000 C   0  0  0  0  0  0  0  0  0  0  0  0
    2.2596    1.9066    0.0000 C   0  0  0  0  0  0  0  0  0  0  0  0
    1.4346    1.9066    0.0000 C   0  0  0  0  0  0  0  0  0  0  0  0
    8.0346    4.7621    0.0000 C   0  0  0  0  0  0  0  0  0  0  0  0
    7.2096    1.9066    0.0000 O   0  5  0  0  0  0  0  0  0  0  0  0
    5.5596    4.7621    0.0000 C   0  0  0  0  0  0  0  0  0  0  0  0
    7.2096    3.3366    0.0000 O   0  0  0  0  0  0  0  0  0  0  0  0
    4.3221    2.6216    0.0000 C   0  0  0  0  0  0  0  0  0  0  0  0
    5.5596    1.9066    0.0000 C   0  0  0  0  0  0  0  0  0  0  0  0
    4.7346    1.9066    0.0000 C   0  0  0  0  0  0  0  0  0  0  0  0
    5.9721    4.0516    0.0000 C   0  0  0  0  0  0  0  0  0  0  0  0
    5.9721    5.4771    0.0000 C   0  0  0  0  0  0  0  0  0  0  0  0
    7.2096    4.7621    0.0000 C   0  0  0  0  0  0  0  0  0  0  0  0
    6.7971    4.0516    0.0000 C   0  0  0  0  0  0  0  0  0  0  0  0
    6.7971    5.4771    0.0000 C   0  0  0  0  0  0  0  0  0  0  0  0
    3.4971    2.6216    0.0000 O   0  0  0  0  0  0  0  0  0  0  0  0
    3.0846    1.9066    0.0000 C   0  0  0  0  0  0  0  0  0  0  0  0
  2  4  1  0  0  0  0
  3  2  2  0  0  0  0
  4  9  1  0  0  0  0
  5  1  1  0  0  0  0
  6  3  1  0  0  0  0
  7  6  3  0  0  0  0
  8 12  3  0  0  0  0
  9  5  2  0  0  0  0
 10 25  1  0  0  0  0
 11 10  3  0  0  0  0
 12 21  1  0  0  0  0
 13  1  1  0  0  0  0
 14  3  1  0  0  0  0
 15  1  2  0  0  0  0
 16 18  1  0  0  0  0
 16  4  2  0  0  0  0
 17  5  1  0  0  0  0
 18 17  2  0  0  0  0
 19 14  2  0  0  0  0
 20 14  1  0  0  0  0
 21 23  1  0  0  0  0
 21 22  2  0  0  0  0
 22 19  1  0  0  0  0
 23 20  2  0  0  0  0
 24 16  1  0  0  0  0
 25 24  1  0  0  0  0
M  END
> <CdId>
1517

> <Mol Weight>
329.3089

> <Formula>
C19H11N3O3

> <Click_ID>
CLK020_E02 __ __ 

$$$$
