CLK045F05
 OpenBabel03181413202D

 25 26  0  0  0  0  0  0  0  0999 V2000
    0.5208   -0.1875    0.0000 C   0  0  0  0  0  0  0  0  0  0  0  0
    1.3042    0.0667    0.0000 C   0  0  0  0  0  0  0  0  0  0  0  0
    0.0375    0.4792    0.0000 N   0  0  0  0  0  0  0  0  0  0  0  0
    0.5208    1.1458    0.0000 N   0  0  0  0  0  0  0  0  0  0  0  0
    0.2667   -0.9750    0.0000 C   0  0  0  0  0  0  0  0  0  0  0  0
    1.3042    0.8917    0.0000 C   0  0  0  0  0  0  0  0  0  0  0  0
   -3.2625    0.4792    0.0000 C   0  0  0  0  0  0  0  0  0  0  0  0
   -0.7875    0.4792    0.0000 C   0  0  0  0  0  0  0  0  0  0  0  0
    1.9708   -0.4208    0.0000 C   0  0  0  0  0  0  0  0  0  0  0  0
   -2.4375    0.4792    0.0000 C   0  0  0  0  0  0  0  0  0  0  0  0
   -1.2000   -0.2375    0.0000 N   0  0  0  0  0  0  0  0  0  0  0  0
    4.1458   -0.2333    0.0000 C   0  0  0  0  0  0  0  0  0  0  0  0
    4.9000    0.1042    0.0000 C   0  0  0  0  0  0  0  0  0  0  0  0
   -2.0250   -0.2375    0.0000 C   0  0  0  0  0  0  0  0  0  0  0  0
   -2.0250    1.1917    0.0000 C   0  0  0  0  0  0  0  0  0  0  0  0
    1.8875   -1.2417    0.0000 O   0  0  0  0  0  0  0  0  0  0  0  0
   -1.2000    1.1917    0.0000 C   0  0  0  0  0  0  0  0  0  0  0  0
   -0.5208   -0.7208    0.0000 F   0  0  0  0  0  0  0  0  0  0  0  0
    0.0125   -1.7583    0.0000 F   0  0  0  0  0  0  0  0  0  0  0  0
    1.0500   -1.2292    0.0000 F   0  0  0  0  0  0  0  0  0  0  0  0
   -3.2625    1.3042    0.0000 F   0  0  0  0  0  0  0  0  0  0  0  0
   -4.0917    0.4792    0.0000 F   0  0  0  0  0  0  0  0  0  0  0  0
   -3.2625   -0.3458    0.0000 F   0  0  0  0  0  0  0  0  0  0  0  0
    2.7250   -0.0833    0.0000 N   0  0  0  0  0  0  0  0  0  0  0  0
    3.3917   -0.5667    0.0000 C   0  0  0  0  0  0  0  0  0  0  0  0
  2  1  2  0  0  0  0
  3  1  1  0  0  0  0
  4  3  1  0  0  0  0
  4  6  2  0  0  0  0
  5  1  1  0  0  0  0
  6  2  1  0  0  0  0
  7 10  1  0  0  0  0
  8  3  1  0  0  0  0
  9  2  1  0  0  0  0
 10 14  2  0  0  0  0
 10 15  1  0  0  0  0
 11  8  2  0  0  0  0
 12 25  1  0  0  0  0
 13 12  3  0  0  0  0
 14 11  1  0  0  0  0
 15 17  2  0  0  0  0
 16  9  2  0  0  0  0
 17  8  1  0  0  0  0
 18  5  1  0  0  0  0
 19  5  1  0  0  0  0
 20  5  1  0  0  0  0
 21  7  1  0  0  0  0
 22  7  1  0  0  0  0
 23  7  1  0  0  0  0
 24  9  1  0  0  0  0
 25 24  1  0  0  0  0
M  END
> <CdId>
3438

> <Mol Weight>
362.2299

> <Formula>
C14H8F6N4O

> <Click_ID>
CLK045F05 __ __ 

$$$$
