CLK004_F10
 OpenBabel03181413202D

 26 28  0  0  0  0  0  0  0  0999 V2000
    0.8864    0.2147    0.0000 C    0  0  3  0  0  0  0  0  0  0  0  0
    1.3019   -0.4986    0.0000 C    0  0  0  0  0  0  0  0  0  0  0  0
    0.0588    0.2147    0.0000 C    0  0  0  0  0  0  0  0  0  0  0  0
    1.3053    0.9210    0.0000 C    0  0  0  0  0  0  0  0  0  0  0  0
    2.1294   -0.5090    0.0000 C    0  0  0  0  0  0  0  0  0  0  0  0
    0.8864   -1.2153    0.0000 C    0  0  0  0  0  0  0  0  0  0  0  0
   -0.3531    0.9417    0.0000 C    0  0  0  0  0  0  0  0  0  0  0  0
   -0.3531   -0.4882    0.0000 C    0  0  0  0  0  0  0  0  0  0  0  0
    2.1294    0.9175    0.0000 C    0  0  0  0  0  0  0  0  0  0  0  0
    0.8898    1.6446    0.0000 C    0  0  0  0  0  0  0  0  0  0  0  0
    2.5344    0.2042    0.0000 O    0  0  0  0  0  0  0  0  0  0  0  0
    2.5344   -1.2153    0.0000 C    0  0  0  0  0  0  0  0  0  0  0  0
    1.2915   -1.9320    0.0000 C    0  0  0  0  0  0  0  0  0  0  0  0
    0.0588   -1.2153    0.0000 O    0  0  0  0  0  0  0  0  0  0  0  0
   -1.1669    0.9417    0.0000 C    0  0  0  0  0  0  0  0  0  0  0  0
   -1.1738   -0.4882    0.0000 C    0  0  0  0  0  0  0  0  0  0  0  0
    2.5483    1.6343    0.0000 N    0  0  0  0  0  0  0  0  0  0  0  0
    0.4882    2.3613    0.0000 N    0  0  0  0  0  0  0  0  0  0  0  0
    2.1294   -1.9320    0.0000 C    0  0  0  0  0  0  0  0  0  0  0  0
   -1.5962    0.2285    0.0000 C    0  0  0  0  0  0  0  0  0  0  0  0
   -1.5754    1.6585    0.0000 Cl   0  0  0  0  0  0  0  0  0  0  0  0
   -1.5962   -1.1911    0.0000 Cl   0  0  0  0  0  0  0  0  0  0  0  0
   -2.4133    0.2285    0.0000 O    0  0  0  0  0  0  0  0  0  0  0  0
   -2.8253   -0.4743    0.0000 C    0  0  0  0  0  0  0  0  0  0  0  0
   -3.6528   -0.4848    0.0000 C    0  0  0  0  0  0  0  0  0  0  0  0
   -4.4700   -0.4743    0.0000 C    0  0  0  0  0  0  0  0  0  0  0  0
  1  2  1  0  0  0  0
  1  3  1  0  0  0  0
  1  4  1  0  0  0  0
  2  5  2  0  0  0  0
  2  6  1  0  0  0  0
  3  7  2  0  0  0  0
  3  8  1  0  0  0  0
  4  9  2  0  0  0  0
  4 10  1  0  0  0  0
  5 11  1  0  0  0  0
  5 12  1  0  0  0  0
  6 13  1  0  0  0  0
  6 14  2  0  0  0  0
  7 15  1  0  0  0  0
  8 16  2  0  0  0  0
  9 17  1  0  0  0  0
  9 11  1  0  0  0  0
 10 18  3  0  0  0  0
 12 19  1  0  0  0  0
 13 19  1  0  0  0  0
 15 20  2  0  0  0  0
 15 21  1  0  0  0  0
 16 22  1  0  0  0  0
 16 20  1  0  0  0  0
 20 23  1  0  0  0  0
 23 24  1  0  0  0  0
 24 25  1  0  0  0  0
 25 26  3  0  0  0  0
M  END
> <CdId>
299

> <Mol Weight>
389.232

> <Formula>
C19H14Cl2N2O3

> <Click_ID>
CLK004_F10 __ __ 

$$$$
