CLK036_A03
 OpenBabel03181413202D

 16 17  0  0  0  0  0  0  0  0999 V2000
   -3.2862    7.3196    0.0000 N   0  0  0  0  0  0  0  0  0  0  0  0
   -4.0012    6.9071    0.0000 C   0  0  0  0  0  0  0  0  0  0  0  0
   -4.0012    6.0821    0.0000 N   0  0  0  0  0  0  0  0  0  0  0  0
   -2.5804    6.0821    0.0000 N   0  0  0  0  0  0  0  0  0  0  0  0
   -2.5804    6.9071    0.0000 C   0  0  0  0  0  0  0  0  0  0  0  0
   -3.2862    5.6696    0.0000 C   0  0  0  0  0  0  0  0  0  0  0  0
   -3.2862    8.1446    0.0000 C   0  0  0  0  0  0  0  0  0  0  0  0
   -1.8654    7.3196    0.0000 C   0  0  0  0  0  0  0  0  0  0  0  0
   -2.5804    3.6116    0.0000 C   0  0  0  0  0  0  0  0  0  0  0  0
   -2.5804    8.5571    0.0000 C   0  0  0  0  0  0  0  0  0  0  0  0
   -2.5804    2.7866    0.0000 C   0  0  0  0  0  0  0  0  0  0  0  0
   -1.8654    8.1446    0.0000 C   0  0  0  0  0  0  0  0  0  0  0  0
   -4.7254    7.3196    0.0000 O   0  0  0  0  0  0  0  0  0  0  0  0
   -3.2862    4.8446    0.0000 S   0  0  0  0  0  0  0  0  0  0  0  0
   -2.5712    4.4321    0.0000 C   0  0  0  0  0  0  0  0  0  0  0  0
   -2.5804    9.3821    0.0000 C   0  0  0  0  0  0  0  0  0  0  0  0
  2  1  1  0  0  0  0
  3  2  1  0  0  0  0
  3  6  2  0  0  0  0
  4  5  2  0  0  0  0
  5  1  1  0  0  0  0
  6  4  1  0  0  0  0
  7  1  1  0  0  0  0
  8  5  1  0  0  0  0
  9 15  1  0  0  0  0
 10  7  2  0  0  0  0
 11  9  3  0  0  0  0
 12 10  1  0  0  0  0
 12  8  2  0  0  0  0
 13  2  2  0  0  0  0
 14  6  1  0  0  0  0
 15 14  1  0  0  0  0
 16 10  1  0  0  0  0
M  END
> <CdId>
2727

> <Mol Weight>
231.274

> <Formula>
C11H9N3OS

> <Click_ID>
CLK036_A03 __ __ 

$$$$
