CLK009_B05
 OpenBabel03181413202D

 19 19  0  0  0  0  0  0  0  0999 V2000
    5.2173   -0.1297    0.0000 C    0  0  0  0  0  0  0  0  0  0  0  0
    5.2173   -0.9610    0.0000 C    0  0  0  0  0  0  0  0  0  0  0  0
    3.0950    1.9808    0.0000 C    0  0  0  0  0  0  0  0  0  0  0  0
    2.3876    2.4053    0.0000 N    0  0  0  0  0  0  0  0  0  0  0  0
    5.9247    1.9278    0.0000 C    0  0  0  0  0  0  0  0  0  0  0  0
    3.0950    1.1613    0.0000 O    0  0  0  0  0  0  0  0  0  0  0  0
    6.6322    2.3286    0.0000 O    0  0  0  0  0  0  0  0  0  0  0  0
    1.6802    1.9808    0.0000 C    0  0  0  0  0  0  0  0  0  0  0  0
    0.2653    1.1967    0.0000 C    0  0  0  0  0  0  0  0  0  0  0  0
    5.9247    1.1083    0.0000 O    0  0  0  0  0  0  0  0  0  0  0  0
   -0.4716    0.7722    0.0000 Cl   0  0  0  0  0  0  0  0  0  0  0  0
    1.6802    1.1967    0.0000 C    0  0  0  0  0  0  0  0  0  0  0  0
    0.9727    2.4053    0.0000 C    0  0  0  0  0  0  0  0  0  0  0  0
    0.2653    1.9808    0.0000 C    0  0  0  0  0  0  0  0  0  0  0  0
    0.9727    0.7722    0.0000 C    0  0  0  0  0  0  0  0  0  0  0  0
    5.2173    0.6838    0.0000 C    0  0  0  0  0  0  0  0  0  0  0  0
    3.8024    2.3816    0.0000 C    0  0  0  0  0  0  0  0  0  0  0  0
    5.2173    2.3522    0.0000 C    0  0  0  0  0  0  0  0  0  0  0  0
    4.5099    1.9572    0.0000 C    0  0  0  0  0  0  0  0  0  0  0  0
  2  1  3  0  0  0  0
  3 17  1  0  0  0  0
  4  3  1  0  0  0  0
  5 10  1  0  0  0  0
  6  3  2  0  0  0  0
  7  5  2  0  0  0  0
  8  4  1  0  0  0  0
  9 14  2  0  0  0  0
 10 16  1  0  0  0  0
 11  9  1  0  0  0  0
 12  8  1  0  0  0  0
 13  8  2  0  0  0  0
 14 13  1  0  0  0  0
 15 12  2  0  0  0  0
 15  9  1  0  0  0  0
 16  1  1  0  0  0  0
 17 19  1  0  0  0  0
 18  5  1  0  0  0  0
 19 18  1  0  0  0  0
M  END
> <CdId>
610

> <Mol Weight>
279.719

> <Formula>
C14H14ClNO3

> <Click_ID>
CLK009_B05 __ __ 

$$$$
