CLK011_H10
 OpenBabel03181413202D

 29 31  0  0  0  0  0  0  0  0999 V2000
    6.4893   -1.3370    0.0000 N   0  0  0  0  0  0  0  0  0  0  0  0
    6.1519   -2.0909    0.0000 C   0  0  0  0  0  0  0  0  0  0  0  0
    5.8728   -0.7789    0.0000 C   0  0  0  0  0  0  0  0  0  0  0  0
    5.1523   -1.1995    0.0000 C   0  0  0  0  0  0  0  0  0  0  0  0
    5.3272   -2.0034    0.0000 S   0  0  0  0  0  0  0  0  0  0  0  0
    4.4025   -0.8622    0.0000 C   0  0  0  0  0  0  0  0  0  0  0  0
    7.2890   -1.1621    0.0000 C   0  0  0  0  0  0  0  0  0  0  0  0
    1.1538   -4.1276    0.0000 C   0  0  0  0  0  0  0  0  0  0  0  0
    0.4915   -4.6108    0.0000 C   0  0  0  0  0  0  0  0  0  0  0  0
    6.5642   -2.8031    0.0000 O   0  0  0  0  0  0  0  0  0  0  0  0
    3.1530   -2.6532    0.0000 C   0  0  0  0  0  0  0  0  0  0  0  0
    5.9520    0.0375    0.0000 O   0  0  0  0  0  0  0  0  0  0  0  0
    3.7361   -1.3495    0.0000 C   0  0  0  0  0  0  0  0  0  0  0  0
    3.8153   -2.1659    0.0000 C   0  0  0  0  0  0  0  0  0  0  0  0
    2.3908   -2.3283    0.0000 C   0  0  0  0  0  0  0  0  0  0  0  0
    2.3116   -1.4994    0.0000 C   0  0  0  0  0  0  0  0  0  0  0  0
    7.5472   -0.3791    0.0000 C   0  0  0  0  0  0  0  0  0  0  0  0
    2.9781   -1.0163    0.0000 C   0  0  0  0  0  0  0  0  0  0  0  0
    8.0595    1.1871    0.0000 C   0  0  0  0  0  0  0  0  0  0  0  0
    3.2405   -3.4737    0.0000 O   0  0  0  0  0  0  0  0  0  0  0  0
    8.3136    1.9701    0.0000 F   0  0  0  0  0  0  0  0  0  0  0  0
    1.7368   -2.8156    0.0000 O   0  0  0  0  0  0  0  0  0  0  0  0
    8.3511   -0.2041    0.0000 C   0  0  0  0  0  0  0  0  0  0  0  0
    6.9891    0.2332    0.0000 C   0  0  0  0  0  0  0  0  0  0  0  0
    8.6093    0.5706    0.0000 C   0  0  0  0  0  0  0  0  0  0  0  0
    7.2515    1.0204    0.0000 C   0  0  0  0  0  0  0  0  0  0  0  0
    1.8160   -3.6361    0.0000 C   0  0  0  0  0  0  0  0  0  0  0  0
    4.0027   -3.8028    0.0000 C   0  0  0  0  0  0  0  0  0  0  0  0
    4.0902   -4.6233    0.0000 C   0  0  0  0  0  0  0  0  0  0  0  0
  2  1  1  0  0  0  0
  3  1  1  0  0  0  0
  4  3  1  0  0  0  0
  5  2  1  0  0  0  0
  5  4  1  0  0  0  0
  6  4  2  0  0  0  0
  7  1  1  0  0  0  0
  8 27  1  0  0  0  0
  9  8  3  0  0  0  0
 10  2  2  0  0  0  0
 11 14  2  0  0  0  0
 12  3  2  0  0  0  0
 13  6  1  0  0  0  0
 14 13  1  0  0  0  0
 15 16  2  0  0  0  0
 15 11  1  0  0  0  0
 16 18  1  0  0  0  0
 17  7  1  0  0  0  0
 18 13  2  0  0  0  0
 19 26  1  0  0  0  0
 19 25  2  0  0  0  0
 20 11  1  0  0  0  0
 21 19  1  0  0  0  0
 22 15  1  0  0  0  0
 23 17  2  0  0  0  0
 24 17  1  0  0  0  0
 25 23  1  0  0  0  0
 26 24  2  0  0  0  0
 27 22  1  0  0  0  0
 28 20  1  0  0  0  0
 29 28  1  0  0  0  0
M  END
> <CdId>
835

> <Mol Weight>
411.446

> <Formula>
C22H18FNO4S

> <Click_ID>
CLK011_H10 __ __ 

$$$$
