CLK038G11
 OpenBabel03181413202D

 28 31  0  0  0  0  0  0  0  0999 V2000
    1.3500    0.9875    0.0000 S   0  0  0  0  0  0  0  0  0  0  0  0
    0.6375   -0.2500    0.0000 C   0  0  0  0  0  0  0  0  0  0  0  0
    1.3500    0.1625    0.0000 N   0  0  0  0  0  0  0  0  0  0  0  0
   -0.0792    0.1625    0.0000 N   0  0  0  0  0  0  0  0  0  0  0  0
    0.6375   -1.0750    0.0000 C   0  0  0  0  0  0  0  0  0  0  0  0
   -0.0792   -1.4875    0.0000 N   0  0  0  0  0  0  0  0  0  0  0  0
   -0.7917   -0.2500    0.0000 C   0  0  0  0  0  0  0  0  0  0  0  0
   -0.7917   -1.0750    0.0000 C   0  0  0  0  0  0  0  0  0  0  0  0
   -1.5083   -1.4875    0.0000 C   0  0  0  0  0  0  0  0  0  0  0  0
   -1.5083    0.1625    0.0000 C   0  0  0  0  0  0  0  0  0  0  0  0
   -2.2208   -0.2500    0.0000 C   0  0  0  0  0  0  0  0  0  0  0  0
   -2.2208   -1.0750    0.0000 C   0  0  0  0  0  0  0  0  0  0  0  0
    2.1750    0.9875    0.0000 O   0  0  0  0  0  0  0  0  0  0  0  0
    0.5250    0.9875    0.0000 O   0  0  0  0  0  0  0  0  0  0  0  0
    2.0667   -2.7250    0.0000 C   0  0  0  0  0  0  0  0  0  0  0  0
    1.3500    1.8125    0.0000 C   0  0  0  0  0  0  0  0  0  0  0  0
    2.7792   -3.1375    0.0000 C   0  0  0  0  0  0  0  0  0  0  0  0
   -2.9375    0.1625    0.0000 O   0  0  0  0  0  0  0  0  0  0  0  0
   -2.9375   -1.4875    0.0000 O   0  0  0  0  0  0  0  0  0  0  0  0
    1.3500   -1.4875    0.0000 N   0  0  0  0  0  0  0  0  0  0  0  0
    1.3500   -2.3125    0.0000 C   0  0  0  0  0  0  0  0  0  0  0  0
   -3.6500   -1.0750    0.0000 C   0  0  0  0  0  0  0  0  0  0  0  0
   -3.6500   -0.2500    0.0000 C   0  0  0  0  0  0  0  0  0  0  0  0
    2.0667    2.2250    0.0000 C   0  0  0  0  0  0  0  0  0  0  0  0
    0.6375    2.2250    0.0000 C   0  0  0  0  0  0  0  0  0  0  0  0
    0.6375    3.0500    0.0000 C   0  0  0  0  0  0  0  0  0  0  0  0
    2.0667    3.0500    0.0000 C   0  0  0  0  0  0  0  0  0  0  0  0
    1.3500    3.4625    0.0000 C   0  0  0  0  0  0  0  0  0  0  0  0
  2  3  1  0  0  0  0
  3  1  1  0  0  0  0
  4  2  1  0  0  0  0
  5  2  2  0  0  0  0
  6  5  1  0  0  0  0
  7  4  2  0  0  0  0
  8  6  2  0  0  0  0
  8  7  1  0  0  0  0
  9  8  1  0  0  0  0
 10  7  1  0  0  0  0
 11 10  2  0  0  0  0
 12  9  2  0  0  0  0
 12 11  1  0  0  0  0
 13  1  2  0  0  0  0
 14  1  2  0  0  0  0
 15 21  1  0  0  0  0
 16  1  1  0  0  0  0
 17 15  3  0  0  0  0
 18 11  1  0  0  0  0
 19 12  1  0  0  0  0
 20  5  1  0  0  0  0
 21 20  1  0  0  0  0
 22 19  1  0  0  0  0
 22 23  1  0  0  0  0
 23 18  1  0  0  0  0
 24 16  1  0  0  0  0
 25 16  2  0  0  0  0
 26 25  1  0  0  0  0
 27 24  2  0  0  0  0
 28 26  2  0  0  0  0
 28 27  1  0  0  0  0
M  END
> <CdId>
2927

> <Mol Weight>
396.42

> <Formula>
C19H16N4O4S

> <Click_ID>
CLK038G11 __ __ 

$$$$
