CLK044A10
 OpenBabel03181413202D

 15 15  0  0  0  0  0  0  0  0999 V2000
   -0.2417   -0.0792    0.0000 C    0  0  0  0  0  0  0  0  0  0  0  0
   -0.2417    0.7458    0.0000 C    0  0  0  0  0  0  0  0  0  0  0  0
    0.4750   -0.4917    0.0000 C    0  0  0  0  0  0  0  0  0  0  0  0
   -2.3833   -0.4917    0.0000 C    0  0  0  0  0  0  0  0  0  0  0  0
   -3.1000   -0.9042    0.0000 C    0  0  0  0  0  0  0  0  0  0  0  0
    0.4750    1.1583    0.0000 C    0  0  0  0  0  0  0  0  0  0  0  0
    1.1875   -0.0792    0.0000 C    0  0  0  0  0  0  0  0  0  0  0  0
    1.1875    0.7458    0.0000 C    0  0  0  0  0  0  0  0  0  0  0  0
   -0.9542    1.1583    0.0000 Cl   0  0  0  0  0  0  0  0  0  0  0  0
   -0.9542   -0.4917    0.0000 O    0  0  0  0  0  0  0  0  0  0  0  0
    0.4750   -1.3167    0.0000 O    0  0  0  0  0  0  0  0  0  0  0  0
   -1.6708   -0.0792    0.0000 C    0  0  0  0  0  0  0  0  0  0  0  0
    2.6167    0.7458    0.0000 O    0  0  0  0  0  0  0  0  0  0  0  0
    1.9042    1.1583    0.0000 C    0  0  0  0  0  0  0  0  0  0  0  0
    1.1875   -1.7292    0.0000 C    0  0  0  0  0  0  0  0  0  0  0  0
  2  1  1  0  0  0  0
  3  1  2  0  0  0  0
  4 12  1  0  0  0  0
  5  4  3  0  0  0  0
  6  2  2  0  0  0  0
  6  8  1  0  0  0  0
  7  3  1  0  0  0  0
  8  7  2  0  0  0  0
  9  2  1  0  0  0  0
 10  1  1  0  0  0  0
 11  3  1  0  0  0  0
 12 10  1  0  0  0  0
 13 14  1  0  0  0  0
 14  8  1  0  0  0  0
 15 11  1  0  0  0  0
M  END
> <CdId>
3393

> <Mol Weight>
226.656

> <Formula>
C11H11ClO3

> <Click_ID>
CLK044A10 __ __ 

$$$$
