CLK028_A09
 OpenBabel03181413202D

 26 28  0  0  0  0  0  0  0  0999 V2000
    1.3128    0.3024    0.0000 C   0  0  0  0  0  0  0  0  0  0  0  0
    1.3986   -0.5189    0.0000 C   0  0  0  0  0  0  0  0  0  0  0  0
    2.2062   -0.6942    0.0000 N   0  0  0  0  0  0  0  0  0  0  0  0
    2.0688    0.6323    0.0000 C   0  0  0  0  0  0  0  0  0  0  0  0
    2.6186    0.0206    0.0000 C   0  0  0  0  0  0  0  0  0  0  0  0
    0.6014    0.7148    0.0000 N   0  0  0  0  0  0  0  0  0  0  0  0
   -0.1099    1.9520    0.0000 C   0  0  0  0  0  0  0  0  0  0  0  0
    0.6014    1.5396    0.0000 N   0  0  0  0  0  0  0  0  0  0  0  0
    2.0551   -2.1135    0.0000 C   0  0  0  0  0  0  0  0  0  0  0  0
    1.5636   -2.7733    0.0000 C   0  0  0  0  0  0  0  0  0  0  0  0
    0.7801   -1.0687    0.0000 O   0  0  0  0  0  0  0  0  0  0  0  0
   -1.5396    1.9520    0.0000 N   0  0  0  0  0  0  0  0  0  0  0  0
   -2.2543    1.5396    0.0000 C   0  0  0  0  0  0  0  0  0  0  0  0
    2.5396   -1.4399    0.0000 C   0  0  0  0  0  0  0  0  0  0  0  0
   -0.1099    2.7767    0.0000 O   0  0  0  0  0  0  0  0  0  0  0  0
   -0.8248    1.5396    0.0000 C   0  0  0  0  0  0  0  0  0  0  0  0
   -2.9726    1.9520    0.0000 C   0  0  0  0  0  0  0  0  0  0  0  0
    2.3196    1.4159    0.0000 C   0  0  0  0  0  0  0  0  0  0  0  0
    3.4193    0.1924    0.0000 C   0  0  0  0  0  0  0  0  0  0  0  0
   -2.2543    0.7079    0.0000 C   0  0  0  0  0  0  0  0  0  0  0  0
   -2.9726    2.7767    0.0000 C   0  0  0  0  0  0  0  0  0  0  0  0
   -3.6840    1.5396    0.0000 C   0  0  0  0  0  0  0  0  0  0  0  0
    3.1306    1.5842    0.0000 C   0  0  0  0  0  0  0  0  0  0  0  0
    3.6805    0.9759    0.0000 C   0  0  0  0  0  0  0  0  0  0  0  0
   -2.9726    0.2955    0.0000 C   0  0  0  0  0  0  0  0  0  0  0  0
   -3.6840    0.7079    0.0000 C   0  0  0  0  0  0  0  0  0  0  0  0
  2  1  1  0  0  0  0
  3  2  1  0  0  0  0
  4  1  1  0  0  0  0
  5  4  2  0  0  0  0
  5  3  1  0  0  0  0
  6  1  2  0  0  0  0
  7  8  1  0  0  0  0
  8  6  1  0  0  0  0
  9 14  1  0  0  0  0
 10  9  3  0  0  0  0
 11  2  2  0  0  0  0
 12 16  1  0  0  0  0
 13 12  1  0  0  0  0
 14  3  1  0  0  0  0
 15  7  2  0  0  0  0
 16  7  1  0  0  0  0
 17 13  1  0  0  0  0
 18  4  1  0  0  0  0
 19  5  1  0  0  0  0
 20 13  2  0  0  0  0
 21 17  1  0  0  0  0
 22 17  2  0  0  0  0
 23 18  2  0  0  0  0
 24 23  1  0  0  0  0
 24 19  2  0  0  0  0
 25 20  1  0  0  0  0
 26 25  2  0  0  0  0
 26 22  1  0  0  0  0
M  END
> <CdId>
2093

> <Mol Weight>
346.3825

> <Formula>
C20H18N4O2

> <Click_ID>
CLK028_A09 __ __ 

$$$$
