CLK039D03
 OpenBabel03181413202D

 17 18  0  0  0  0  0  0  0  0999 V2000
   -0.8792   -0.3875    0.0000 S   0  0  0  0  0  0  0  0  0  0  0  0
    2.5333    0.4375    0.0000 C   0  0  0  0  0  0  0  0  0  0  0  0
    2.0458   -0.2292    0.0000 N   0  0  0  0  0  0  0  0  0  0  0  0
    2.0458    1.1083    0.0000 N   0  0  0  0  0  0  0  0  0  0  0  0
    1.2625    0.0250    0.0000 C   0  0  0  0  0  0  0  0  0  0  0  0
   -0.1667    0.0250    0.0000 C   0  0  0  0  0  0  0  0  0  0  0  0
    1.2625    0.8500    0.0000 C   0  0  0  0  0  0  0  0  0  0  0  0
    0.5500   -0.3875    0.0000 C   0  0  0  0  0  0  0  0  0  0  0  0
   -3.0250   -0.8000    0.0000 C   0  0  0  0  0  0  0  0  0  0  0  0
   -3.7375   -1.2125    0.0000 C   0  0  0  0  0  0  0  0  0  0  0  0
   -0.4667   -1.1000    0.0000 O   0  0  0  0  0  0  0  0  0  0  0  0
   -1.2917    0.3292    0.0000 O   0  0  0  0  0  0  0  0  0  0  0  0
   -1.5958   -0.8000    0.0000 N   0  0  0  0  0  0  0  0  0  0  0  0
    3.3583    0.4375    0.0000 O   0  0  0  0  0  0  0  0  0  0  0  0
   -0.1667    0.8500    0.0000 C   0  0  0  0  0  0  0  0  0  0  0  0
    0.5500    1.2625    0.0000 C   0  0  0  0  0  0  0  0  0  0  0  0
   -2.3083   -0.3875    0.0000 C   0  0  0  0  0  0  0  0  0  0  0  0
  2  3  1  0  0  0  0
  3  5  1  0  0  0  0
  4  7  1  0  0  0  0
  4  2  1  0  0  0  0
  5  8  1  0  0  0  0
  6  1  1  0  0  0  0
  7  5  2  0  0  0  0
  8  6  2  0  0  0  0
  9 17  1  0  0  0  0
 10  9  3  0  0  0  0
 11  1  2  0  0  0  0
 12  1  2  0  0  0  0
 13  1  1  0  0  0  0
 14  2  2  0  0  0  0
 15  6  1  0  0  0  0
 16 15  2  0  0  0  0
 16  7  1  0  0  0  0
 17 13  1  0  0  0  0
M  END
> <CdId>
2940

> <Mol Weight>
251.262

> <Formula>
C10H9N3O3S

> <Click_ID>
CLK039D03 __ __ 

$$$$
