CLK023_A11
 OpenBabel03181413202D

 27 28  0  0  0  0  0  0  0  0999 V2000
    0.4987   -1.9946    0.0000 C    0  0  0  0  0  0  0  0  0  0  0  0
   -0.0825   -1.4169    0.0000 C    0  0  0  0  0  0  0  0  0  0  0  0
    1.2964   -1.7779    0.0000 C    0  0  0  0  0  0  0  0  0  0  0  0
    1.9292    0.6293    0.0000 C    0  0  0  0  0  0  0  0  0  0  0  0
    0.2923   -2.7890    0.0000 C    0  0  0  0  0  0  0  0  0  0  0  0
    2.5173    0.0413    0.0000 C    0  0  0  0  0  0  0  0  0  0  0  0
    1.1211    0.4024    0.0000 C    0  0  0  0  0  0  0  0  0  0  0  0
   -0.8769   -1.6335    0.0000 N    0  0  0  0  0  0  0  0  0  0  0  0
    1.5097   -0.9801    0.0000 C    0  0  0  0  0  0  0  0  0  0  0  0
    0.0860   -3.5902    0.0000 N    0  0  0  0  0  0  0  0  0  0  0  0
    1.7607    2.7958    0.0000 C    0  0  0  0  0  0  0  0  0  0  0  0
   -1.9121    0.2923    0.0000 C    0  0  0  0  0  0  0  0  0  0  0  0
    1.9740    3.5902    0.0000 C    0  0  0  0  0  0  0  0  0  0  0  0
   -1.3068   -0.2682    0.0000 C    0  0  0  0  0  0  0  0  0  0  0  0
    0.9217   -0.3955    0.0000 C    0  0  0  0  0  0  0  0  0  0  0  0
    2.3041   -0.7600    0.0000 C    0  0  0  0  0  0  0  0  0  0  0  0
   -1.4891   -1.0695    0.0000 C    0  0  0  0  0  0  0  0  0  0  0  0
    0.1238   -0.6155    0.0000 O    0  0  0  0  0  0  0  0  0  0  0  0
   -2.6995    0.0447    0.0000 C    0  0  0  0  0  0  0  0  0  0  0  0
   -2.8749   -0.7669    0.0000 C    0  0  0  0  0  0  0  0  0  0  0  0
    3.3082    0.2545    0.0000 Br   0  0  0  0  0  0  0  0  0  0  0  0
    0.5365    0.9836    0.0000 Cl   0  0  0  0  0  0  0  0  0  0  0  0
    2.1356    1.4202    0.0000 O    0  0  0  0  0  0  0  0  0  0  0  0
   -1.7297    1.0936    0.0000 Cl   0  0  0  0  0  0  0  0  0  0  0  0
   -2.2662   -1.3205    0.0000 C    0  0  0  0  0  0  0  0  0  0  0  0
    1.5475    2.0014    0.0000 C    0  0  0  0  0  0  0  0  0  0  0  0
   -3.3117    0.6018    0.0000 C    0  0  0  0  0  0  0  0  0  0  0  0
  2  1  1  0  0  0  0
  3  1  2  0  0  0  0
  4  6  2  0  0  0  0
  5  1  1  0  0  0  0
  6 16  1  0  0  0  0
  7 15  2  0  0  0  0
  7  4  1  0  0  0  0
  8  2  1  0  0  0  0
  9  3  1  0  0  0  0
 10  5  3  0  0  0  0
 11 26  1  0  0  0  0
 12 14  1  0  0  0  0
 12 19  2  0  0  0  0
 13 11  3  0  0  0  0
 14 17  2  0  0  0  0
 15  9  1  0  0  0  0
 16  9  2  0  0  0  0
 17  8  1  0  0  0  0
 18  2  2  0  0  0  0
 19 20  1  0  0  0  0
 20 25  2  0  0  0  0
 21  6  1  0  0  0  0
 22  7  1  0  0  0  0
 23  4  1  0  0  0  0
 24 12  1  0  0  0  0
 25 17  1  0  0  0  0
 26 23  1  0  0  0  0
 27 19  1  0  0  0  0
M  END
> <CdId>
1706

> <Mol Weight>
464.139

> <Formula>
C20H13BrCl2N2O2

> <Click_ID>
CLK023_A11 __ __ 

$$$$
