CLK003_A04
 OpenBabel03181413202D

 17 18  0  0  0  0  0  0  0  0999 V2000
    0.8497    0.0042    0.0000 C   0  0  0  0  0  0  0  0  0  0  0  0
    1.6107    0.2960    0.0000 C   0  0  0  0  0  0  0  0  0  0  0  0
    0.1860    0.5412    0.0000 N   0  0  0  0  0  0  0  0  0  0  0  0
    0.7271   -0.8287    0.0000 C   0  0  0  0  0  0  0  0  0  0  0  0
    2.2702   -0.2410    0.0000 C   0  0  0  0  0  0  0  0  0  0  0  0
   -0.5961    0.2494    0.0000 C   0  0  0  0  0  0  0  0  0  0  0  0
    1.3655   -1.3444    0.0000 C   0  0  0  0  0  0  0  0  0  0  0  0
    2.1222   -1.0527    0.0000 C   0  0  0  0  0  0  0  0  0  0  0  0
    3.0819    0.0508    0.0000 C   0  0  0  0  0  0  0  0  0  0  0  0
   -1.2345    0.7990    0.0000 C   0  0  0  0  0  0  0  0  0  0  0  0
   -0.7441   -0.5835    0.0000 O   0  0  0  0  0  0  0  0  0  0  0  0
    3.8640    0.3552    0.0000 C   0  0  0  0  0  0  0  0  0  0  0  0
   -2.0335    0.4946    0.0000 C   0  0  0  0  0  0  0  0  0  0  0  0
   -2.6465    1.0316    0.0000 C   0  0  0  0  0  0  0  0  0  0  0  0
   -2.3379   -0.2410    0.0000 S   0  0  0  0  0  0  0  0  0  0  0  0
   -3.3187    0.6172    0.0000 C   0  0  0  0  0  0  0  0  0  0  0  0
   -3.1496   -0.1691    0.0000 C   0  0  0  0  0  0  0  0  0  0  0  0
  1  2  1  0  0  0  0
  1  3  1  0  0  0  0
  1  4  2  0  0  0  0
  2  5  2  0  0  0  0
  3  6  1  0  0  0  0
  4  7  1  0  0  0  0
  5  8  1  0  0  0  0
  5  9  1  0  0  0  0
  6 10  1  0  0  0  0
  6 11  2  0  0  0  0
  7  8  2  0  0  0  0
  9 12  3  0  0  0  0
 10 13  1  0  0  0  0
 13 14  2  0  0  0  0
 13 15  1  0  0  0  0
 14 16  1  0  0  0  0
 15 17  1  0  0  0  0
 16 17  2  0  0  0  0
M  END
> <CdId>
163

> <Mol Weight>
241.308

> <Formula>
C14H11NOS

> <Click_ID>
CLK003_A04 __ __ 

$$$$
