CLK038B08
 OpenBabel03181413202D

 19 20  0  0  0  0  0  0  0  0999 V2000
   -0.0417    0.1542    0.0000 C   0  0  0  0  0  0  0  0  0  0  0  0
    0.6750   -0.2583    0.0000 N   0  0  0  0  0  0  0  0  0  0  0  0
    0.6750   -1.0833    0.0000 N   0  0  0  0  0  0  0  0  0  0  0  0
   -0.0417   -1.4958    0.0000 C   0  0  0  0  0  0  0  0  0  0  0  0
   -0.7542   -0.2583    0.0000 C   0  0  0  0  0  0  0  0  0  0  0  0
   -0.7542   -1.0833    0.0000 C   0  0  0  0  0  0  0  0  0  0  0  0
   -0.0417    0.9792    0.0000 C   0  0  0  0  0  0  0  0  0  0  0  0
    1.3875    2.6292    0.0000 C   0  0  0  0  0  0  0  0  0  0  0  0
    2.1042    3.0417    0.0000 C   0  0  0  0  0  0  0  0  0  0  0  0
   -0.0417   -2.3208    0.0000 O   0  0  0  0  0  0  0  0  0  0  0  0
   -0.7542    1.3917    0.0000 O   0  0  0  0  0  0  0  0  0  0  0  0
    0.6750    1.3917    0.0000 N   0  0  0  0  0  0  0  0  0  0  0  0
    1.3875   -1.4958    0.0000 C   0  0  0  0  0  0  0  0  0  0  0  0
    0.6750    2.2167    0.0000 C   0  0  0  0  0  0  0  0  0  0  0  0
   -1.4667    0.1542    0.0000 C   0  0  0  0  0  0  0  0  0  0  0  0
   -1.4667   -1.4958    0.0000 C   0  0  0  0  0  0  0  0  0  0  0  0
    2.1042   -1.0833    0.0000 C   0  0  0  0  0  0  0  0  0  0  0  0
   -2.1833   -0.2583    0.0000 C   0  0  0  0  0  0  0  0  0  0  0  0
   -2.1833   -1.0833    0.0000 C   0  0  0  0  0  0  0  0  0  0  0  0
  2  1  2  0  0  0  0
  3  2  1  0  0  0  0
  4  6  1  0  0  0  0
  4  3  1  0  0  0  0
  5  1  1  0  0  0  0
  6  5  2  0  0  0  0
  7  1  1  0  0  0  0
  8 14  1  0  0  0  0
  9  8  3  0  0  0  0
 10  4  2  0  0  0  0
 11  7  2  0  0  0  0
 12  7  1  0  0  0  0
 13  3  1  0  0  0  0
 14 12  1  0  0  0  0
 15  5  1  0  0  0  0
 16  6  1  0  0  0  0
 17 13  1  0  0  0  0
 18 15  2  0  0  0  0
 19 16  2  0  0  0  0
 19 18  1  0  0  0  0
M  END
> <CdId>
2898

> <Mol Weight>
255.2719

> <Formula>
C14H13N3O2

> <Click_ID>
CLK038B08 __ __ 

$$$$
