CLK006_H06
 OpenBabel03181413202D

 30 32  0  0  0  0  0  0  0  0999 V2000
   -0.0579   -0.9050    0.0000 C   0  0  3  0  0  0  0  0  0  0  0  0
    0.9687    0.0579    0.0000 C   0  0  0  0  0  0  0  0  0  0  0  0
   -0.8126   -1.2463    0.0000 C   0  0  0  0  0  0  0  0  0  0  0  0
    0.6275   -1.2463    0.0000 C   0  0  0  0  0  0  0  0  0  0  0  0
   -0.9484   -0.1446    0.0000 C   0  0  0  0  0  0  0  0  0  0  0  0
    0.4916    0.7461    0.0000 C   0  0  0  0  0  0  0  0  0  0  0  0
    1.7234    0.1214    0.0000 C   0  0  0  0  0  0  0  0  0  0  0  0
   -0.8126   -2.0067    0.0000 C   0  0  0  0  0  0  0  0  0  0  0  0
   -1.4313   -0.9050    0.0000 C   0  0  0  0  0  0  0  0  0  0  0  0
    0.6275   -2.0067    0.0000 C   0  0  0  0  0  0  0  0  0  0  0  0
    1.5180   -1.1045    0.0000 C   0  0  0  0  0  0  0  0  0  0  0  0
   -0.5407    0.7461    0.0000 N   0  0  0  0  0  0  0  0  0  0  0  0
   -1.9142   -0.1446    0.0000 O   0  0  0  0  0  0  0  0  0  0  0  0
    0.7691    1.4313    0.0000 C   0  0  0  0  0  0  0  0  0  0  0  0
    2.0704    0.9484    0.0000 O   0  0  0  0  0  0  0  0  0  0  0  0
    2.3421   -0.1446    0.0000 O   0  0  0  0  0  0  0  0  0  0  0  0
   -0.0579   -2.3421    0.0000 O   0  0  0  0  0  0  0  0  0  0  0  0
   -1.4313   -2.3421    0.0000 C   0  0  0  0  0  0  0  0  0  0  0  0
   -2.2583   -1.2463    0.0000 C   0  0  0  0  0  0  0  0  0  0  0  0
    1.3157   -2.3421    0.0000 N   0  0  0  0  0  0  0  0  0  0  0  0
    2.3421   -1.1045    0.0000 N   0  0  0  0  0  0  0  0  0  0  0  0
   -1.1595    1.7118    0.0000 C   0  0  0  0  0  0  0  0  0  0  0  0
    0.3933    2.0704    0.0000 C   0  0  0  0  0  0  0  0  0  0  0  0
    2.9609    0.9484    0.0000 C   0  0  0  0  0  0  0  0  0  0  0  0
   -2.2583   -2.0704    0.0000 C   0  0  0  0  0  0  0  0  0  0  0  0
   -2.3306    1.7118    0.0000 C   0  0  0  0  0  0  0  0  0  0  0  0
    0.7691    2.7181    0.0000 O   0  0  0  0  0  0  0  0  0  0  0  0
   -0.3470    2.0704    0.0000 O   0  0  0  0  0  0  0  0  0  0  0  0
   -2.9465    2.6689    0.0000 C   0  0  0  0  0  0  0  0  0  0  0  0
    0.3933    3.3513    0.0000 C   0  0  0  0  0  0  0  0  0  0  0  0
  1  2  1  0  0  0  0
  1  3  1  0  0  0  0
  1  4  1  0  0  0  0
  1  5  1  0  0  0  0
  2  6  2  0  0  0  0
  2  7  1  0  0  0  0
  3  8  1  0  0  0  0
  3  9  2  0  0  0  0
  4 10  2  0  0  0  0
  4 11  1  0  0  0  0
  5 12  1  0  0  0  0
  5 13  2  0  0  0  0
  6 14  1  0  0  0  0
  6 12  1  0  0  0  0
  7 15  1  0  0  0  0
  7 16  2  0  0  0  0
  8 17  1  0  0  0  0
  8 18  2  0  0  0  0
  9 19  1  0  0  0  0
 10 20  1  0  0  0  0
 10 17  1  0  0  0  0
 11 21  3  0  0  0  0
 12 22  1  0  0  0  0
 14 23  1  0  0  0  0
 15 24  1  0  0  0  0
 18 25  1  0  0  0  0
 19 25  2  0  0  0  0
 22 26  1  0  0  0  0
 23 27  1  0  0  0  0
 23 28  2  0  0  0  0
 26 29  3  0  0  0  0
 27 30  1  0  0  0  0
M  END
> <CdId>
475

> <Mol Weight>
407.3762

> <Formula>
C21H17N3O6

> <Click_ID>
CLK006_H06 __ __ 

$$$$
