CLK005_D11
 OpenBabel03181413202D

 20 21  0  0  0  0  0  0  0  0999 V2000
    1.1028    0.1891    0.0000 C   0  0  0  0  0  0  0  0  0  0  0  0
   -0.3230    0.1891    0.0000 C   0  0  0  0  0  0  0  0  0  0  0  0
    0.3870    0.5994    0.0000 C   0  0  0  0  0  0  0  0  0  0  0  0
    1.1028   -0.6401    0.0000 C   0  0  0  0  0  0  0  0  0  0  0  0
    0.3870   -1.0504    0.0000 N   0  0  0  0  0  0  0  0  0  0  0  0
   -1.7516    0.1891    0.0000 C   0  0  0  0  0  0  0  0  0  0  0  0
   -1.0358    0.5994    0.0000 N   0  0  0  0  0  0  0  0  0  0  0  0
   -3.8988    0.5994    0.0000 C   0  0  0  0  0  0  0  0  0  0  0  0
   -4.6030    1.0125    0.0000 C   0  0  0  0  0  0  0  0  0  0  0  0
    1.8185    0.5994    0.0000 C   0  0  0  0  0  0  0  0  0  0  0  0
    1.8185   -1.0504    0.0000 C   0  0  0  0  0  0  0  0  0  0  0  0
   -0.3230   -0.6401    0.0000 C   0  0  0  0  0  0  0  0  0  0  0  0
   -1.7516   -0.6401    0.0000 O   0  0  0  0  0  0  0  0  0  0  0  0
   -2.4673    0.5994    0.0000 N   0  0  0  0  0  0  0  0  0  0  0  0
    2.5343   -0.6401    0.0000 C   0  0  0  0  0  0  0  0  0  0  0  0
    0.3870    1.4286    0.0000 O   0  0  0  0  0  0  0  0  0  0  0  0
    2.5343    0.1891    0.0000 C   0  0  0  0  0  0  0  0  0  0  0  0
   -3.1831    0.1891    0.0000 C   0  0  0  0  0  0  0  0  0  0  0  0
    3.2501   -1.0504    0.0000 O   0  0  0  0  0  0  0  0  0  0  0  0
    3.9658   -0.6401    0.0000 C   0  0  0  0  0  0  0  0  0  0  0  0
  2  3  2  0  0  0  0
  3  1  1  0  0  0  0
  4  1  1  0  0  0  0
  5  4  1  0  0  0  0
  6  7  1  0  0  0  0
  7  2  1  0  0  0  0
  8 18  1  0  0  0  0
  9  8  3  0  0  0  0
 10  1  2  0  0  0  0
 11  4  2  0  0  0  0
 12  5  2  0  0  0  0
 12  2  1  0  0  0  0
 13  6  2  0  0  0  0
 14  6  1  0  0  0  0
 15 17  2  0  0  0  0
 15 11  1  0  0  0  0
 16  3  1  0  0  0  0
 17 10  1  0  0  0  0
 18 14  1  0  0  0  0
 19 15  1  0  0  0  0
 20 19  1  0  0  0  0
M  END
> <CdId>
360

> <Mol Weight>
271.2713

> <Formula>
C14H13N3O3

> <Click_ID>
CLK005_D11 __ __ 

$$$$
