CLK048B10
 OpenBabel03181413202D

 21 22  0  0  0  0  0  0  0  0999 V2000
    1.2963   -0.4210    0.0000 N   0  0  0  0  0  0  0  0  0  0  0  0
    1.2963   -1.2463    0.0000 N   0  0  0  0  0  0  0  0  0  0  0  0
    0.0292   -0.8336    0.0000 C   0  0  0  0  0  0  0  0  0  0  0  0
    0.5127   -0.1668    0.0000 C   0  0  0  0  0  0  0  0  0  0  0  0
    0.5127   -1.5048    0.0000 C   0  0  0  0  0  0  0  0  0  0  0  0
   -0.7962   -0.8336    0.0000 C   0  0  0  0  0  0  0  0  0  0  0  0
   -3.6849    1.3088    0.0000 C   0  0  0  0  0  0  0  0  0  0  0  0
   -4.0975    2.0217    0.0000 C   0  0  0  0  0  0  0  0  0  0  0  0
    1.9633    0.0625    0.0000 C   0  0  0  0  0  0  0  0  0  0  0  0
   -2.0342   -0.1209    0.0000 C   0  0  0  0  0  0  0  0  0  0  0  0
   -2.4468   -0.8336    0.0000 O   0  0  0  0  0  0  0  0  0  0  0  0
   -1.2088   -0.1209    0.0000 C   0  0  0  0  0  0  0  0  0  0  0  0
   -2.4468    0.5961    0.0000 N   0  0  0  0  0  0  0  0  0  0  0  0
    0.2584    0.6170    0.0000 C   0  0  0  0  0  0  0  0  0  0  0  0
   -3.2722    0.5961    0.0000 C   0  0  0  0  0  0  0  0  0  0  0  0
    0.2584   -2.2885    0.0000 C   0  0  0  0  0  0  0  0  0  0  0  0
    2.7178   -0.2751    0.0000 C   0  0  0  0  0  0  0  0  0  0  0  0
    1.8800    0.8836    0.0000 C   0  0  0  0  0  0  0  0  0  0  0  0
    2.5468    1.3673    0.0000 C   0  0  0  0  0  0  0  0  0  0  0  0
    3.3889    0.2126    0.0000 C   0  0  0  0  0  0  0  0  0  0  0  0
    3.3014    1.0337    0.0000 C   0  0  0  0  0  0  0  0  0  0  0  0
  2  1  1  0  0  0  0
  3  4  2  0  0  0  0
  3  5  1  0  0  0  0
  4  1  1  0  0  0  0
  5  2  2  0  0  0  0
  6  3  1  0  0  0  0
  7 15  1  0  0  0  0
  8  7  3  0  0  0  0
  9  1  1  0  0  0  0
 10 12  1  0  0  0  0
 11 10  2  0  0  0  0
 12  6  1  0  0  0  0
 13 10  1  0  0  0  0
 14  4  1  0  0  0  0
 15 13  1  0  0  0  0
 16  5  1  0  0  0  0
 17  9  1  0  0  0  0
 18  9  2  0  0  0  0
 19 18  1  0  0  0  0
 20 17  2  0  0  0  0
 21 19  2  0  0  0  0
 21 20  1  0  0  0  0
M  END
> <CdId>
3714

> <Mol Weight>
281.3523

> <Formula>
C17H19N3O

> <Click_ID>
CLK048B10 __ __ 

$$$$
