CLK052A05
 OpenBabel03181413202D

 26 27  0  0  0  0  0  0  0  0999 V2000
    0.5750    0.3042    0.0000 S    0  0  0  0  0  0  0  0  0  0  0  0
    1.2875    0.7167    0.0000 C    0  0  0  0  0  0  0  0  0  0  0  0
   -0.1375   -0.1083    0.0000 N    0  0  0  0  0  0  0  0  0  0  0  0
   -1.5667   -0.1083    0.0000 C    0  0  0  0  0  0  0  0  0  0  0  0
   -0.8542    0.3042    0.0000 C    0  0  0  0  0  0  0  0  0  0  0  0
   -1.5667   -0.9333    0.0000 C    0  0  0  0  0  0  0  0  0  0  0  0
    1.2875    1.5417    0.0000 C    0  0  0  0  0  0  0  0  0  0  0  0
    0.9875   -0.4125    0.0000 O    0  0  0  0  0  0  0  0  0  0  0  0
    0.1625    1.0167    0.0000 O    0  0  0  0  0  0  0  0  0  0  0  0
   -2.9958   -2.5833    0.0000 C    0  0  0  0  0  0  0  0  0  0  0  0
   -3.7125   -2.9958    0.0000 C    0  0  0  0  0  0  0  0  0  0  0  0
    2.0042    0.3042    0.0000 C    0  0  0  0  0  0  0  0  0  0  0  0
   -0.8542   -1.3458    0.0000 O    0  0  0  0  0  0  0  0  0  0  0  0
   -2.2833   -1.3458    0.0000 N    0  0  0  0  0  0  0  0  0  0  0  0
    2.7167    0.7167    0.0000 C    0  0  0  0  0  0  0  0  0  0  0  0
    2.0042    1.9542    0.0000 C    0  0  0  0  0  0  0  0  0  0  0  0
    2.7167    1.5417    0.0000 C    0  0  0  0  0  0  0  0  0  0  0  0
    2.0042    2.7792    0.0000 Br   0  0  0  0  0  0  0  0  0  0  0  0
   -2.2833   -2.1708    0.0000 C    0  0  0  0  0  0  0  0  0  0  0  0
   -2.2833    0.3042    0.0000 C    0  0  0  0  0  0  0  0  0  0  0  0
    2.0042   -0.5208    0.0000 O    0  0  0  0  0  0  0  0  0  0  0  0
   -0.8542    1.1292    0.0000 C    0  0  0  0  0  0  0  0  0  0  0  0
    2.7167   -0.9333    0.0000 C    0  0  0  0  0  0  0  0  0  0  0  0
   -2.2833    1.1292    0.0000 C    0  0  0  0  0  0  0  0  0  0  0  0
   -1.5667    1.5417    0.0000 C    0  0  0  0  0  0  0  0  0  0  0  0
    2.7167   -1.7583    0.0000 C    0  0  0  0  0  0  0  0  0  0  0  0
  2  1  1  0  0  0  0
  3  1  1  0  0  0  0
  4  5  2  0  0  0  0
  5  3  1  0  0  0  0
  6  4  1  0  0  0  0
  7  2  1  0  0  0  0
  8  1  2  0  0  0  0
  9  1  2  0  0  0  0
 10 19  1  0  0  0  0
 11 10  3  0  0  0  0
 12  2  2  0  0  0  0
 13  6  2  0  0  0  0
 14  6  1  0  0  0  0
 15 12  1  0  0  0  0
 16  7  2  0  0  0  0
 16 17  1  0  0  0  0
 17 15  2  0  0  0  0
 18 16  1  0  0  0  0
 19 14  1  0  0  0  0
 20  4  1  0  0  0  0
 21 12  1  0  0  0  0
 22  5  1  0  0  0  0
 23 21  1  0  0  0  0
 24 20  2  0  0  0  0
 24 25  1  0  0  0  0
 25 22  2  0  0  0  0
 26 23  1  0  0  0  0
M  END
> <CdId>
3993

> <Mol Weight>
437.308

> <Formula>
C18H17BrN2O4S

> <Click_ID>
CLK052A05 __ __ 

$$$$
