CLK050G04
 OpenBabel03181413202D

 18 19  0  0  0  0  0  0  0  0999 V2000
    0.3167   -0.2292    0.0000 C    0  0  0  0  0  0  0  0  0  0  0  0
    1.0292   -0.6417    0.0000 C    0  0  0  0  0  0  0  0  0  0  0  0
    0.3167    0.5958    0.0000 N    0  0  0  0  0  0  0  0  0  0  0  0
   -2.5417    0.5958    0.0000 C    0  0  0  0  0  0  0  0  0  0  0  0
   -3.2583    0.1833    0.0000 C    0  0  0  0  0  0  0  0  0  0  0  0
    2.4583   -0.6417    0.0000 N    0  0  0  0  0  0  0  0  0  0  0  0
    1.0292   -1.4667    0.0000 C    0  0  0  0  0  0  0  0  0  0  0  0
   -0.4000   -0.6417    0.0000 O    0  0  0  0  0  0  0  0  0  0  0  0
   -0.4000    1.0083    0.0000 C    0  0  0  0  0  0  0  0  0  0  0  0
   -1.8292    1.0083    0.0000 C    0  0  0  0  0  0  0  0  0  0  0  0
    1.7458   -0.2292    0.0000 C    0  0  0  0  0  0  0  0  0  0  0  0
   -1.1125    0.5958    0.0000 C    0  0  0  0  0  0  0  0  0  0  0  0
    1.7458   -1.8792    0.0000 C    0  0  0  0  0  0  0  0  0  0  0  0
    1.7458   -2.7042    0.0000 Br   0  0  0  0  0  0  0  0  0  0  0  0
    2.4583   -1.4667    0.0000 C    0  0  0  0  0  0  0  0  0  0  0  0
   -1.1125    2.2458    0.0000 C    0  0  0  0  0  0  0  0  0  0  0  0
   -0.4000    1.8333    0.0000 C    0  0  0  0  0  0  0  0  0  0  0  0
   -1.8292    1.8333    0.0000 C    0  0  0  0  0  0  0  0  0  0  0  0
  2  1  1  0  0  0  0
  3  1  1  0  0  0  0
  4 10  1  0  0  0  0
  5  4  3  0  0  0  0
  6 11  1  0  0  0  0
  6 15  2  0  0  0  0
  7  2  1  0  0  0  0
  8  1  2  0  0  0  0
  9  3  1  0  0  0  0
 10 12  1  0  0  0  0
 11  2  2  0  0  0  0
 12  9  2  0  0  0  0
 13  7  2  0  0  0  0
 14 13  1  0  0  0  0
 15 13  1  0  0  0  0
 16 17  2  0  0  0  0
 17  9  1  0  0  0  0
 18 10  2  0  0  0  0
 18 16  1  0  0  0  0
M  END
> <CdId>
3831

> <Mol Weight>
301.138

> <Formula>
C14H9BrN2O

> <Click_ID>
CLK050G04 __ __ 

$$$$
