CLK040G08
 OpenBabel03181413202D

 25 26  0  0  0  0  0  0  0  0999 V2000
   -0.0583   -0.5583    0.0000 S   0  0  0  0  0  0  0  0  0  0  0  0
   -0.0583    0.2667    0.0000 N   0  0  0  0  0  0  0  0  0  0  0  0
   -0.0583   -1.3833    0.0000 C   0  0  0  0  0  0  0  0  0  0  0  0
   -0.0583    2.7417    0.0000 C   0  0  0  0  0  0  0  0  0  0  0  0
   -0.0583    1.9167    0.0000 N   0  0  0  0  0  0  0  0  0  0  0  0
   -0.7750   -1.7958    0.0000 C   0  0  0  0  0  0  0  0  0  0  0  0
    0.7667   -0.5583    0.0000 O   0  0  0  0  0  0  0  0  0  0  0  0
   -0.8833   -0.5583    0.0000 O   0  0  0  0  0  0  0  0  0  0  0  0
   -0.7750    0.6792    0.0000 C   0  0  0  0  0  0  0  0  0  0  0  0
    0.6542    0.6792    0.0000 C   0  0  0  0  0  0  0  0  0  0  0  0
    1.3708    4.3875    0.0000 C   0  0  0  0  0  0  0  0  0  0  0  0
   -0.7750   -2.6208    0.0000 C   0  0  0  0  0  0  0  0  0  0  0  0
    2.0833    4.8000    0.0000 C   0  0  0  0  0  0  0  0  0  0  0  0
    0.6542    1.5042    0.0000 C   0  0  0  0  0  0  0  0  0  0  0  0
   -0.7750    1.5042    0.0000 C   0  0  0  0  0  0  0  0  0  0  0  0
   -0.7750    3.1542    0.0000 O   0  0  0  0  0  0  0  0  0  0  0  0
   -0.0583   -3.0333    0.0000 C   0  0  0  0  0  0  0  0  0  0  0  0
    0.6542   -1.7958    0.0000 C   0  0  0  0  0  0  0  0  0  0  0  0
    0.6542    3.1542    0.0000 N   0  0  0  0  0  0  0  0  0  0  0  0
    0.6542   -2.6208    0.0000 C   0  0  0  0  0  0  0  0  0  0  0  0
   -1.4875   -3.0333    0.0000 O   0  0  0  0  0  0  0  0  0  0  0  0
    0.6542    3.9792    0.0000 C   0  0  0  0  0  0  0  0  0  0  0  0
   -0.0583   -3.8583    0.0000 O   0  0  0  0  0  0  0  0  0  0  0  0
   -2.2042   -2.6208    0.0000 C   0  0  0  0  0  0  0  0  0  0  0  0
    0.6542   -4.2708    0.0000 C   0  0  0  0  0  0  0  0  0  0  0  0
  2  1  1  0  0  0  0
  3  1  1  0  0  0  0
  4  5  1  0  0  0  0
  5 15  1  0  0  0  0
  5 14  1  0  0  0  0
  6  3  2  0  0  0  0
  7  1  2  0  0  0  0
  8  1  2  0  0  0  0
  9  2  1  0  0  0  0
 10  2  1  0  0  0  0
 11 22  1  0  0  0  0
 12  6  1  0  0  0  0
 13 11  3  0  0  0  0
 14 10  1  0  0  0  0
 15  9  1  0  0  0  0
 16  4  2  0  0  0  0
 17 12  2  0  0  0  0
 18  3  1  0  0  0  0
 19  4  1  0  0  0  0
 20 18  2  0  0  0  0
 20 17  1  0  0  0  0
 21 12  1  0  0  0  0
 22 19  1  0  0  0  0
 23 17  1  0  0  0  0
 24 21  1  0  0  0  0
 25 23  1  0  0  0  0
M  END
> <CdId>
3063

> <Mol Weight>
367.42

> <Formula>
C16H21N3O5S

> <Click_ID>
CLK040G08 __ __ 

$$$$
