CLK011_B04
 OpenBabel03181413202D

 27 29  0  0  0  0  0  0  0  0999 V2000
    6.5170   -3.8745    0.0000 N    0  0  0  0  0  0  0  0  0  0  0  0
    5.8553   -4.3572    0.0000 C    0  0  0  0  0  0  0  0  0  0  0  0
    6.9290   -5.1437    0.0000 C    0  0  0  0  0  0  0  0  0  0  0  0
    7.1829   -4.3572    0.0000 C    0  0  0  0  0  0  0  0  0  0  0  0
    6.1050   -5.1437    0.0000 S    0  0  0  0  0  0  0  0  0  0  0  0
    7.4159   -5.8096    0.0000 C    0  0  0  0  0  0  0  0  0  0  0  0
    7.0788   -6.5587    0.0000 C    0  0  0  0  0  0  0  0  0  0  0  0
    5.0730   -4.0992    0.0000 N    0  0  0  0  0  0  0  0  0  0  0  0
    9.6881   -7.7197    0.0000 C    0  0  0  0  0  0  0  0  0  0  0  0
   10.5038   -7.6406    0.0000 C    0  0  0  0  0  0  0  0  0  0  0  0
    3.9452   -2.2390    0.0000 C    0  0  0  0  0  0  0  0  0  0  0  0
    7.5574   -7.2286    0.0000 C    0  0  0  0  0  0  0  0  0  0  0  0
    7.9694   -4.0992    0.0000 O    0  0  0  0  0  0  0  0  0  0  0  0
    4.8982   -3.3002    0.0000 C    0  0  0  0  0  0  0  0  0  0  0  0
    6.2590   -6.6461    0.0000 C    0  0  0  0  0  0  0  0  0  0  0  0
    4.1200   -3.0463    0.0000 C    0  0  0  0  0  0  0  0  0  0  0  0
    4.5569   -1.6854    0.0000 C    0  0  0  0  0  0  0  0  0  0  0  0
    7.2204   -7.9819    0.0000 C    0  0  0  0  0  0  0  0  0  0  0  0
    5.3435   -1.9393    0.0000 C    0  0  0  0  0  0  0  0  0  0  0  0
    5.9177   -7.3951    0.0000 C    0  0  0  0  0  0  0  0  0  0  0  0
    5.5099   -2.7466    0.0000 C    0  0  0  0  0  0  0  0  0  0  0  0
    6.3964   -8.0693    0.0000 C    0  0  0  0  0  0  0  0  0  0  0  0
    5.0938   -7.4783    0.0000 Br   0  0  0  0  0  0  0  0  0  0  0  0
    8.3814   -7.1413    0.0000 O    0  0  0  0  0  0  0  0  0  0  0  0
    8.8641   -7.8071    0.0000 C    0  0  0  0  0  0  0  0  0  0  0  0
    3.1586   -1.9893    0.0000 C    0  0  0  0  0  0  0  0  0  0  0  0
    4.3863   -0.8781    0.0000 C    0  0  0  0  0  0  0  0  0  0  0  0
  2  1  2  0  0  0  0
  3  4  1  0  0  0  0
  4  1  1  0  0  0  0
  5  2  1  0  0  0  0
  5  3  1  0  0  0  0
  6  3  2  0  0  0  0
  7  6  1  0  0  0  0
  8  2  1  0  0  0  0
  9 25  1  0  0  0  0
 10  9  3  0  0  0  0
 11 16  2  0  0  0  0
 12  7  2  0  0  0  0
 13  4  2  0  0  0  0
 14  8  1  0  0  0  0
 15  7  1  0  0  0  0
 16 14  1  0  0  0  0
 17 19  2  0  0  0  0
 17 11  1  0  0  0  0
 18 12  1  0  0  0  0
 19 21  1  0  0  0  0
 20 15  2  0  0  0  0
 21 14  2  0  0  0  0
 22 20  1  0  0  0  0
 22 18  2  0  0  0  0
 23 20  1  0  0  0  0
 24 12  1  0  0  0  0
 25 24  1  0  0  0  0
 26 11  1  0  0  0  0
 27 17  1  0  0  0  0
M  END
> <CdId>
769

> <Mol Weight>
441.341

> <Formula>
C21H17BrN2O2S

> <Click_ID>
CLK011_B04 __ __ 

$$$$
