CLK052B04
 OpenBabel03181413202D

 16 16  0  0  0  0  0  0  0  0999 V2000
   -1.1167    0.1292    0.0000 C   0  0  0  0  0  0  0  0  0  0  0  0
    1.0250    3.0167    0.0000 C   0  0  0  0  0  0  0  0  0  0  0  0
   -0.4042    0.5417    0.0000 C   0  0  0  0  0  0  0  0  0  0  0  0
    1.7375    3.4292    0.0000 C   0  0  0  0  0  0  0  0  0  0  0  0
   -1.1167   -0.6958    0.0000 C   0  0  0  0  0  0  0  0  0  0  0  0
    0.3125    1.7792    0.0000 N   0  0  0  0  0  0  0  0  0  0  0  0
    0.3125    0.1292    0.0000 C   0  0  0  0  0  0  0  0  0  0  0  0
   -0.4042    1.3667    0.0000 C   0  0  0  0  0  0  0  0  0  0  0  0
   -0.4042   -1.1083    0.0000 C   0  0  0  0  0  0  0  0  0  0  0  0
   -1.8333    0.5417    0.0000 O   0  0  0  0  0  0  0  0  0  0  0  0
    0.3125    2.6042    0.0000 C   0  0  0  0  0  0  0  0  0  0  0  0
    0.3125   -0.6958    0.0000 C   0  0  0  0  0  0  0  0  0  0  0  0
   -0.4042   -1.9333    0.0000 O   0  0  0  0  0  0  0  0  0  0  0  0
    0.3125   -2.3458    0.0000 C   0  0  0  0  0  0  0  0  0  0  0  0
    0.3125   -3.1708    0.0000 C   0  0  0  0  0  0  0  0  0  0  0  0
    1.0250   -3.5833    0.0000 C   0  0  0  0  0  0  0  0  0  0  0  0
  2 11  1  0  0  0  0
  3  1  2  0  0  0  0
  4  2  3  0  0  0  0
  5  1  1  0  0  0  0
  6  8  2  0  0  0  0
  7  3  1  0  0  0  0
  7 12  2  0  0  0  0
  8  3  1  0  0  0  0
  9  5  2  0  0  0  0
 10  1  1  0  0  0  0
 11  6  1  0  0  0  0
 12  9  1  0  0  0  0
 13  9  1  0  0  0  0
 14 13  1  0  0  0  0
 15 14  1  0  0  0  0
 16 15  1  0  0  0  0
M  END
> <CdId>
3986

> <Mol Weight>
217.2637

> <Formula>
C13H15NO2

> <Click_ID>
CLK052B04 __ __ 

$$$$
