CLK009_D03
 OpenBabel03181413202D

 20 20  0  0  0  0  0  0  0  0999 V2000
   -1.4149   -0.7256    0.0000 C    0  0  0  0  0  0  0  0  0  0  0  0
   -2.1122   -0.3185    0.0000 C    0  0  0  0  0  0  0  0  0  0  0  0
   -1.4149   -1.5520    0.0000 C    0  0  0  0  0  0  0  0  0  0  0  0
   -0.6973   -0.3185    0.0000 N    0  0  0  0  0  0  0  0  0  0  0  0
   -2.1122   -1.9632    0.0000 C    0  0  0  0  0  0  0  0  0  0  0  0
   -2.8257   -0.7417    0.0000 C    0  0  0  0  0  0  0  0  0  0  0  0
    4.3092   -0.7256    0.0000 C    0  0  0  0  0  0  0  0  0  0  0  0
    0.0363   -0.7256    0.0000 C    0  0  0  0  0  0  0  0  0  0  0  0
    5.0308   -1.1287    0.0000 C    0  0  0  0  0  0  0  0  0  0  0  0
   -2.8257   -1.5358    0.0000 C    0  0  0  0  0  0  0  0  0  0  0  0
    2.1808   -0.3185    0.0000 C    0  0  0  0  0  0  0  0  0  0  0  0
    0.0363   -1.5520    0.0000 O    0  0  0  0  0  0  0  0  0  0  0  0
    2.1808    0.5159    0.0000 O    0  0  0  0  0  0  0  0  0  0  0  0
   -2.1001    0.4958    0.0000 Cl   0  0  0  0  0  0  0  0  0  0  0  0
   -0.7215   -1.9833    0.0000 Cl   0  0  0  0  0  0  0  0  0  0  0  0
    0.7538   -0.3185    0.0000 C    0  0  0  0  0  0  0  0  0  0  0  0
    1.4673   -0.7256    0.0000 C    0  0  0  0  0  0  0  0  0  0  0  0
   -3.5433   -1.9027    0.0000 Cl   0  0  0  0  0  0  0  0  0  0  0  0
    2.8822   -0.7256    0.0000 O    0  0  0  0  0  0  0  0  0  0  0  0
    3.5957   -0.2943    0.0000 C    0  0  0  0  0  0  0  0  0  0  0  0
  2  1  1  0  0  0  0
  3  1  2  0  0  0  0
  4  1  1  0  0  0  0
  5  3  1  0  0  0  0
  6  2  2  0  0  0  0
  6 10  1  0  0  0  0
  7 20  1  0  0  0  0
  8  4  1  0  0  0  0
  9  7  3  0  0  0  0
 10  5  2  0  0  0  0
 11 17  1  0  0  0  0
 12  8  2  0  0  0  0
 13 11  2  0  0  0  0
 14  2  1  0  0  0  0
 15  3  1  0  0  0  0
 16  8  1  0  0  0  0
 17 16  1  0  0  0  0
 18 10  1  0  0  0  0
 19 11  1  0  0  0  0
 20 19  1  0  0  0  0
M  END
> <CdId>
628

> <Mol Weight>
334.582

> <Formula>
C13H10Cl3NO3

> <Click_ID>
CLK009_D03 __ __ 

$$$$
