CLK049B03
 OpenBabel03181413202D

 14 14  0  0  0  0  0  0  0  0999 V2000
    0.2000    0.7083    0.0000 C   0  0  0  0  0  0  0  0  0  0  0  0
    0.9167    2.7708    0.0000 C   0  0  0  0  0  0  0  0  0  0  0  0
    0.9167    3.5958    0.0000 C   0  0  0  0  0  0  0  0  0  0  0  0
   -0.5125    0.2958    0.0000 N   0  0  0  0  0  0  0  0  0  0  0  0
    0.9167    0.2958    0.0000 O   0  0  0  0  0  0  0  0  0  0  0  0
    0.2000    1.5333    0.0000 N   0  0  0  0  0  0  0  0  0  0  0  0
   -0.5125   -0.5292    0.0000 C   0  0  0  0  0  0  0  0  0  0  0  0
   -0.5125   -2.1792    0.0000 C   0  0  0  0  0  0  0  0  0  0  0  0
   -0.5125   -3.0042    0.0000 F   0  0  0  0  0  0  0  0  0  0  0  0
    0.9167    1.9458    0.0000 C   0  0  0  0  0  0  0  0  0  0  0  0
    0.2000   -0.9417    0.0000 C   0  0  0  0  0  0  0  0  0  0  0  0
   -1.2250   -0.9417    0.0000 C   0  0  0  0  0  0  0  0  0  0  0  0
    0.2000   -1.7667    0.0000 C   0  0  0  0  0  0  0  0  0  0  0  0
   -1.2250   -1.7667    0.0000 C   0  0  0  0  0  0  0  0  0  0  0  0
  2 10  1  0  0  0  0
  3  2  3  0  0  0  0
  4  1  1  0  0  0  0
  5  1  2  0  0  0  0
  6  1  1  0  0  0  0
  7  4  1  0  0  0  0
  8 14  2  0  0  0  0
  9  8  1  0  0  0  0
 10  6  1  0  0  0  0
 11  7  1  0  0  0  0
 12  7  2  0  0  0  0
 13 11  2  0  0  0  0
 13  8  1  0  0  0  0
 14 12  1  0  0  0  0
M  END
> <CdId>
3738

> <Mol Weight>
192.1897

> <Formula>
C10H9FN2O

> <Click_ID>
CLK049B03 __ __ 

$$$$
