CLK038F02
 OpenBabel03181413202D

 27 29  0  0  0  0  0  0  0  0999 V2000
   -0.1500    0.7833    0.0000 C   0  0  0  0  0  0  0  0  0  0  0  0
   -0.6333    0.1167    0.0000 C   0  0  0  0  0  0  0  0  0  0  0  0
   -0.6333    1.4500    0.0000 O   0  0  0  0  0  0  0  0  0  0  0  0
    0.6750    0.7833    0.0000 C   0  0  0  0  0  0  0  0  0  0  0  0
   -0.6750   -2.0667    0.0000 C   0  0  0  0  0  0  0  0  0  0  0  0
   -1.1625   -2.7333    0.0000 N   0  0  0  0  0  0  0  0  0  0  0  0
   -1.4208    0.3708    0.0000 C   0  0  0  0  0  0  0  0  0  0  0  0
   -1.4208    1.1958    0.0000 C   0  0  0  0  0  0  0  0  0  0  0  0
    0.1083   -2.3208    0.0000 S   0  0  0  0  0  0  0  0  0  0  0  0
    1.0875    1.4958    0.0000 N   0  0  0  0  0  0  0  0  0  0  0  0
   -0.3792   -0.6708    0.0000 C   0  0  0  0  0  0  0  0  0  0  0  0
    2.7375    1.4958    0.0000 C   0  0  0  0  0  0  0  0  0  0  0  0
   -0.6750   -3.4042    0.0000 C   0  0  0  0  0  0  0  0  0  0  0  0
    0.1083   -3.1458    0.0000 C   0  0  0  0  0  0  0  0  0  0  0  0
    3.5625    1.4958    0.0000 C   0  0  0  0  0  0  0  0  0  0  0  0
   -0.9333   -1.2833    0.0000 S   0  0  0  0  0  0  0  0  0  0  0  0
    1.9125    1.4958    0.0000 C   0  0  0  0  0  0  0  0  0  0  0  0
    1.0875    0.0667    0.0000 O   0  0  0  0  0  0  0  0  0  0  0  0
   -2.1333   -0.0417    0.0000 C   0  0  0  0  0  0  0  0  0  0  0  0
   -2.1333    1.6083    0.0000 C   0  0  0  0  0  0  0  0  0  0  0  0
   -0.9333   -4.1875    0.0000 C   0  0  0  0  0  0  0  0  0  0  0  0
    1.9125    2.3208    0.0000 C   0  0  0  0  0  0  0  0  0  0  0  0
    1.9125    0.6708    0.0000 C   0  0  0  0  0  0  0  0  0  0  0  0
    2.6250    2.7333    0.0000 C   0  0  0  0  0  0  0  0  0  0  0  0
    1.2000    0.2583    0.0000 C   0  0  0  0  0  0  0  0  0  0  0  0
   -2.8500    0.3708    0.0000 C   0  0  0  0  0  0  0  0  0  0  0  0
   -2.8500    1.1958    0.0000 C   0  0  0  0  0  0  0  0  0  0  0  0
  2  1  2  0  0  0  0
  3  1  1  0  0  0  0
  4  1  1  0  0  0  0
  5 16  1  0  0  0  0
  6  5  2  0  0  0  0
  7  2  1  0  0  0  0
  7  8  2  0  0  0  0
  8  3  1  0  0  0  0
  9  5  1  0  0  0  0
 10  4  1  0  0  0  0
 11  2  1  0  0  0  0
 12 17  1  0  0  0  0
 13  6  1  0  0  0  0
 14  9  1  0  0  0  0
 14 13  2  0  0  0  0
 15 12  3  0  0  0  0
 16 11  1  0  0  0  0
 17 10  1  0  0  0  0
 18  4  2  0  0  0  0
 19  7  1  0  0  0  0
 20  8  1  0  0  0  0
 21 13  1  0  0  0  0
 22 17  1  0  0  0  0
 23 17  1  0  0  0  0
 24 22  1  0  0  0  0
 25 23  1  0  0  0  0
 26 19  2  0  0  0  0
 26 27  1  0  0  0  0
 27 20  2  0  0  0  0
M  END
> <CdId>
2854

> <Mol Weight>
398.542

> <Formula>
C21H22N2O2S2

> <Click_ID>
CLK038F02 __ __ 

$$$$
