CLK004_G02
 OpenBabel03181413202D

 33 35  0  0  0  0  0  0  0  0999 V2000
    0.3737    0.2009    0.0000 C   0  0  3  0  0  0  0  0  0  0  0  0
   -0.1900    0.8013    0.0000 N   0  0  0  0  0  0  0  0  0  0  0  0
    1.1771    0.3888    0.0000 C   0  0  0  0  0  0  0  0  0  0  0  0
    0.1404   -0.5896    0.0000 C   0  0  0  0  0  0  0  0  0  0  0  0
   -0.9935    0.6091    0.0000 C   0  0  0  0  0  0  0  0  0  0  0  0
    0.0497    1.5918    0.0000 C   0  0  0  0  0  0  0  0  0  0  0  0
    1.7451   -0.2095    0.0000 C   0  0  0  0  0  0  0  0  0  0  0  0
    1.4126    1.1793    0.0000 C   0  0  0  0  0  0  0  0  0  0  0  0
    0.7041   -1.1922    0.0000 N   0  0  0  0  0  0  0  0  0  0  0  0
   -0.6631   -0.7797    0.0000 O   0  0  0  0  0  0  0  0  0  0  0  0
   -1.5572    1.2117    0.0000 C   0  0  0  0  0  0  0  0  0  0  0  0
   -1.2268   -0.1815    0.0000 C   0  0  0  0  0  0  0  0  0  0  0  0
   -0.5184    2.1879    0.0000 C   0  0  0  0  0  0  0  0  0  0  0  0
    0.8488    1.7775    0.0000 O   0  0  0  0  0  0  0  0  0  0  0  0
    2.5443   -0.0194    0.0000 C   0  0  0  0  0  0  0  0  0  0  0  0
    2.2160    1.3693    0.0000 C   0  0  0  0  0  0  0  0  0  0  0  0
    0.4687   -1.9763    0.0000 C   0  0  0  0  0  0  0  0  0  0  0  0
   -2.3607    1.0216    0.0000 C   0  0  0  0  0  0  0  0  0  0  0  0
   -2.0303   -0.3694    0.0000 C   0  0  0  0  0  0  0  0  0  0  0  0
   -1.0821    2.7862    0.0000 C   0  0  0  0  0  0  0  0  0  0  0  0
    2.7840    0.7710    0.0000 C   0  0  0  0  0  0  0  0  0  0  0  0
   -0.3326   -2.1642    0.0000 C   0  0  0  0  0  0  0  0  0  0  0  0
    1.0345   -2.5767    0.0000 C   0  0  0  0  0  0  0  0  0  0  0  0
   -2.5961    0.2311    0.0000 C   0  0  0  0  0  0  0  0  0  0  0  0
   -2.9244    1.6177    0.0000 O   0  0  0  0  0  0  0  0  0  0  0  0
   -2.2656   -1.1641    0.0000 O   0  0  0  0  0  0  0  0  0  0  0  0
    3.5875    0.9589    0.0000 O   0  0  0  0  0  0  0  0  0  0  0  0
   -0.5702   -2.9546    0.0000 C   0  0  0  0  0  0  0  0  0  0  0  0
    0.7970   -3.3672    0.0000 C   0  0  0  0  0  0  0  0  0  0  0  0
   -2.6890    2.4082    0.0000 C   0  0  0  0  0  0  0  0  0  0  0  0
   -1.6998   -1.7624    0.0000 C   0  0  0  0  0  0  0  0  0  0  0  0
    3.8229    1.7495    0.0000 C   0  0  0  0  0  0  0  0  0  0  0  0
   -0.0043   -3.5573    0.0000 C   0  0  0  0  0  0  0  0  0  0  0  0
  1  2  1  0  0  0  0
  1  3  1  0  0  0  0
  1  4  1  0  0  0  0
  2  5  1  0  0  0  0
  2  6  1  0  0  0  0
  3  7  2  0  0  0  0
  3  8  1  0  0  0  0
  4  9  1  0  0  0  0
  4 10  2  0  0  0  0
  5 11  1  0  0  0  0
  5 12  2  0  0  0  0
  6 13  1  0  0  0  0
  6 14  2  0  0  0  0
  7 15  1  0  0  0  0
  8 16  2  0  0  0  0
  9 17  1  0  0  0  0
 11 18  2  0  0  0  0
 12 19  1  0  0  0  0
 13 20  3  0  0  0  0
 15 21  2  0  0  0  0
 16 21  1  0  0  0  0
 17 22  1  0  0  0  0
 17 23  1  0  0  0  0
 18 24  1  0  0  0  0
 18 25  1  0  0  0  0
 19 26  1  0  0  0  0
 19 24  2  0  0  0  0
 21 27  1  0  0  0  0
 22 28  1  0  0  0  0
 23 29  1  0  0  0  0
 25 30  1  0  0  0  0
 26 31  1  0  0  0  0
 27 32  1  0  0  0  0
 28 33  1  0  0  0  0
 29 33  1  0  0  0  0
M  END
> <CdId>
301

> <Mol Weight>
450.5268

> <Formula>
C26H30N2O5

> <Click_ID>
CLK004_G02 __ __ 

$$$$
