CLK025_B07
 OpenBabel03181413202D

 29 31  0  0  0  0  0  0  0  0999 V2000
   -1.0059    0.0835    0.0000 C    0  0  3  0  0  0  0  0  0  0  0  0
   -0.5395   -0.5499    0.0000 C    0  0  0  0  0  0  0  0  0  0  0  0
   -1.7890   -0.1706    0.0000 C    0  0  0  0  0  0  0  0  0  0  0  0
   -1.0059   -1.2530    0.0000 N    0  0  0  0  0  0  0  0  0  0  0  0
    3.4353    1.7646    0.0000 N    0  0  0  0  0  0  0  0  0  0  0  0
   -1.7890   -1.0024    0.0000 C    0  0  0  0  0  0  0  0  0  0  0  0
    2.6104    1.8726    0.0000 C    0  0  0  0  0  0  0  0  0  0  0  0
   -0.1601    0.8597    0.0000 C    0  0  0  0  0  0  0  0  0  0  0  0
    2.1127    1.2286    0.0000 C    0  0  0  0  0  0  0  0  0  0  0  0
    0.7971    0.6787    0.0000 C    0  0  0  0  0  0  0  0  0  0  0  0
    1.2948    1.3365    0.0000 C    0  0  0  0  0  0  0  0  0  0  0  0
   -1.2565   -2.6522    0.0000 C    0  0  0  0  0  0  0  0  0  0  0  0
   -2.5060   -1.4131    0.0000 C    0  0  0  0  0  0  0  0  0  0  0  0
   -1.7924   -3.2822    0.0000 C    0  0  0  0  0  0  0  0  0  0  0  0
   -2.5060    0.2402    0.0000 C    0  0  0  0  0  0  0  0  0  0  0  0
    2.3041    2.6417    0.0000 C    0  0  0  0  0  0  0  0  0  0  0  0
    3.7450    1.0093    0.0000 O    0  0  0  0  0  0  0  0  0  0  0  0
    0.2506   -0.6161    0.0000 O    0  0  0  0  0  0  0  0  0  0  0  0
    3.9260    2.4224    0.0000 O    0  0  0  0  0  0  0  0  0  0  0  0
   -0.7344   -2.0292    0.0000 C    0  0  0  0  0  0  0  0  0  0  0  0
   -1.3957    0.9537    0.0000 O    0  0  0  0  0  0  0  0  0  0  0  0
    1.0720    0.1044    0.0000 O    0  0  0  0  0  0  0  0  0  0  0  0
    0.9815    2.0918    0.0000 C    0  0  0  0  0  0  0  0  0  0  0  0
    1.4862    2.7496    0.0000 C    0  0  0  0  0  0  0  0  0  0  0  0
   -3.2125   -0.1706    0.0000 C    0  0  0  0  0  0  0  0  0  0  0  0
   -3.2125   -1.0024    0.0000 C    0  0  0  0  0  0  0  0  0  0  0  0
   -3.9295    0.2402    0.0000 Br   0  0  0  0  0  0  0  0  0  0  0  0
    2.8053    3.2856    0.0000 O    0  0  0  0  0  0  0  0  0  0  0  0
    3.6197    3.1742    0.0000 C    0  0  0  0  0  0  0  0  0  0  0  0
  2  1  1  0  0  0  0
  3  1  1  0  0  0  0
  4  2  1  0  0  0  0
  5  7  1  0  0  0  0
  6  3  2  0  0  0  0
  6  4  1  0  0  0  0
  7  9  2  0  0  0  0
  7 16  1  0  0  0  0
  8  1  1  0  0  0  0
  9 11  1  0  0  0  0
 10  8  1  0  0  0  0
 11 10  1  0  0  0  0
 12 20  1  0  0  0  0
 13  6  1  0  0  0  0
 14 12  3  0  0  0  0
 15  3  1  0  0  0  0
 16 24  2  0  0  0  0
 17  5  1  0  0  0  0
 18  2  2  0  0  0  0
 19  5  2  0  0  0  0
 20  4  1  0  0  0  0
 21  1  1  0  0  0  0
 22 10  2  0  0  0  0
 23 11  2  0  0  0  0
 24 23  1  0  0  0  0
 25 15  2  0  0  0  0
 26 25  1  0  0  0  0
 26 13  2  0  0  0  0
 27 25  1  0  0  0  0
 28 16  1  0  0  0  0
 29 28  1  0  0  0  0
M  END
> <CdId>
1872

> <Mol Weight>
459.247

> <Formula>
C20H15BrN2O6

> <Click_ID>
CLK025_B07 __ __ 

$$$$
