CLK028_F11
 OpenBabel03181413202D

 24 25  0  0  0  0  0  0  0  0999 V2000
    3.9619   -1.2444    0.0000 N   0  3  0  0  0  0  0  0  0  0  0  0
    0.3501   -0.0208    0.0000 C   0  0  0  0  0  0  0  0  0  0  0  0
    1.1370    0.4229    0.0000 N   0  0  0  0  0  0  0  0  0  0  0  0
    3.2617   -0.8250    0.0000 C   0  0  0  0  0  0  0  0  0  0  0  0
    3.2652    0.0000    0.0000 C   0  0  0  0  0  0  0  0  0  0  0  0
    1.8441    0.0173    0.0000 C   0  0  0  0  0  0  0  0  0  0  0  0
    2.5650    0.4194    0.0000 C   0  0  0  0  0  0  0  0  0  0  0  0
   -3.9550    1.6534    0.0000 C   0  0  0  0  0  0  0  0  0  0  0  0
   -4.6863    2.0728    0.0000 C   0  0  0  0  0  0  0  0  0  0  0  0
    3.9584   -2.0693    0.0000 O   0  5  0  0  0  0  0  0  0  0  0  0
   -0.3605    0.3848    0.0000 C   0  0  0  0  0  0  0  0  0  0  0  0
    4.6829   -0.8388    0.0000 O   0  0  0  0  0  0  0  0  0  0  0  0
    0.3363   -0.9255    0.0000 O   0  0  0  0  0  0  0  0  0  0  0  0
    2.5442   -1.2270    0.0000 C   0  0  0  0  0  0  0  0  0  0  0  0
    1.8337   -0.8076    0.0000 C   0  0  0  0  0  0  0  0  0  0  0  0
   -1.0746   -0.0208    0.0000 C   0  0  0  0  0  0  0  0  0  0  0  0
   -0.3605    1.2166    0.0000 C   0  0  0  0  0  0  0  0  0  0  0  0
   -1.7817    1.2166    0.0000 C   0  0  0  0  0  0  0  0  0  0  0  0
    2.5685    1.2409    0.0000 O   0  0  0  0  0  0  0  0  0  0  0  0
   -1.0642    1.6257    0.0000 C   0  0  0  0  0  0  0  0  0  0  0  0
   -1.7955    0.3986    0.0000 C   0  0  0  0  0  0  0  0  0  0  0  0
   -3.2305    1.2305    0.0000 C   0  0  0  0  0  0  0  0  0  0  0  0
   -2.5061    1.6499    0.0000 O   0  0  0  0  0  0  0  0  0  0  0  0
    3.2791    1.6499    0.0000 C   0  0  0  0  0  0  0  0  0  0  0  0
  2  3  1  0  0  0  0
  3  6  1  0  0  0  0
  4  1  1  0  0  0  0
  5  4  1  0  0  0  0
  6 15  2  0  0  0  0
  6  7  1  0  0  0  0
  7  5  2  0  0  0  0
  8 22  1  0  0  0  0
  9  8  3  0  0  0  0
 10  1  1  0  0  0  0
 11  2  1  0  0  0  0
 12  1  2  0  0  0  0
 13  2  2  0  0  0  0
 14  4  2  0  0  0  0
 15 14  1  0  0  0  0
 16 11  1  0  0  0  0
 17 11  2  0  0  0  0
 18 20  2  0  0  0  0
 19  7  1  0  0  0  0
 20 17  1  0  0  0  0
 21 16  2  0  0  0  0
 21 18  1  0  0  0  0
 22 23  1  0  0  0  0
 23 18  1  0  0  0  0
 24 19  1  0  0  0  0
M  END
> <CdId>
2145

> <Mol Weight>
326.3035

> <Formula>
C17H14N2O5

> <Click_ID>
CLK028_F11 __ __ 

$$$$
