CLK024_G02
 OpenBabel03181413202D

 27 28  0  0  0  0  0  0  0  0999 V2000
    1.4244   -2.2097    0.0000 C    0  0  0  0  0  0  0  0  0  0  0  0
    1.4281    0.1096    0.0000 C    0  0  0  0  0  0  0  0  0  0  0  0
    0.7049   -2.6225    0.0000 C    0  0  0  0  0  0  0  0  0  0  0  0
    0.7159    0.5259    0.0000 C    0  0  0  0  0  0  0  0  0  0  0  0
    2.1330   -2.6225    0.0000 C    0  0  0  0  0  0  0  0  0  0  0  0
    0.0073    1.7604    0.0000 C    0  0  0  0  0  0  0  0  0  0  0  0
    0.7269    1.3477    0.0000 C    0  0  0  0  0  0  0  0  0  0  0  0
    2.8452   -3.0315    0.0000 N    0  0  0  0  0  0  0  0  0  0  0  0
   -0.7085    1.3550    0.0000 C    0  0  0  0  0  0  0  0  0  0  0  0
   -0.0073    0.1205    0.0000 C    0  0  0  0  0  0  0  0  0  0  0  0
   -2.1147    3.0242    0.0000 C    0  0  0  0  0  0  0  0  0  0  0  0
   -0.7159    0.5332    0.0000 C    0  0  0  0  0  0  0  0  0  0  0  0
   -0.0073   -2.2061    0.0000 N    0  0  0  0  0  0  0  0  0  0  0  0
   -2.8270    3.4478    0.0000 C    0  0  0  0  0  0  0  0  0  0  0  0
    0.7049   -3.4443    0.0000 O    0  0  0  0  0  0  0  0  0  0  0  0
    1.4354    1.7568    0.0000 Br   0  0  0  0  0  0  0  0  0  0  0  0
   -0.7159   -2.6151    0.0000 C    0  0  0  0  0  0  0  0  0  0  0  0
   -1.4135    1.7823    0.0000 O    0  0  0  0  0  0  0  0  0  0  0  0
   -1.4281    0.1388    0.0000 O    0  0  0  0  0  0  0  0  0  0  0  0
   -1.4281   -2.1987    0.0000 C    0  0  0  0  0  0  0  0  0  0  0  0
   -1.4062    2.6078    0.0000 C    0  0  0  0  0  0  0  0  0  0  0  0
   -1.4317   -0.6757    0.0000 C    0  0  0  0  0  0  0  0  0  0  0  0
   -1.4208   -1.3733    0.0000 C    0  0  0  0  0  0  0  0  0  0  0  0
   -2.1367   -2.6078    0.0000 C    0  0  0  0  0  0  0  0  0  0  0  0
   -2.1257   -0.9642    0.0000 C    0  0  0  0  0  0  0  0  0  0  0  0
   -2.8489   -2.1914    0.0000 C    0  0  0  0  0  0  0  0  0  0  0  0
   -2.8489   -1.3624    0.0000 C    0  0  0  0  0  0  0  0  0  0  0  0
  2  1  2  0  0  0  0
  3  1  1  0  0  0  0
  4  2  1  0  0  0  0
  5  1  1  0  0  0  0
  6  7  2  0  0  0  0
  6  9  1  0  0  0  0
  7  4  1  0  0  0  0
  8  5  3  0  0  0  0
  9 12  2  0  0  0  0
 10  4  2  0  0  0  0
 11 21  1  0  0  0  0
 12 10  1  0  0  0  0
 13  3  1  0  0  0  0
 14 11  3  0  0  0  0
 15  3  2  0  0  0  0
 16  7  1  0  0  0  0
 17 13  1  0  0  0  0
 18  9  1  0  0  0  0
 19 12  1  0  0  0  0
 20 17  1  0  0  0  0
 21 18  1  0  0  0  0
 22 19  1  0  0  0  0
 23 20  2  0  0  0  0
 24 20  1  0  0  0  0
 25 23  1  0  0  0  0
 26 24  2  0  0  0  0
 27 26  1  0  0  0  0
 27 25  2  0  0  0  0
M  END
> <CdId>
1837

> <Mol Weight>
425.275

> <Formula>
C21H17BrN2O3

> <Click_ID>
CLK024_G02 __ __ 

$$$$
