CLK023_H04
 OpenBabel03181413202D

 29 31  0  0  0  0  0  0  0  0999 V2000
    2.5171    0.0069    0.0000 N    0  0  0  0  0  0  0  0  0  0  0  0
    1.8067    1.2516    0.0000 C    0  0  0  0  0  0  0  0  0  0  0  0
    1.8067    0.4172    0.0000 C    0  0  0  0  0  0  0  0  0  0  0  0
    3.2308    0.4172    0.0000 C    0  0  0  0  0  0  0  0  0  0  0  0
    3.2308    1.2516    0.0000 N    0  0  0  0  0  0  0  0  0  0  0  0
    2.5171    1.6619    0.0000 C    0  0  0  0  0  0  0  0  0  0  0  0
    2.5171   -0.8240    0.0000 C    0  0  0  0  0  0  0  0  0  0  0  0
    1.0793    1.6689    0.0000 C    0  0  0  0  0  0  0  0  0  0  0  0
   -1.0689    0.4310    0.0000 C    0  0  0  0  0  0  0  0  0  0  0  0
   -1.0689    1.2551    0.0000 C    0  0  0  0  0  0  0  0  0  0  0  0
   -0.3552    0.0172    0.0000 C    0  0  0  0  0  0  0  0  0  0  0  0
    0.3655    1.2551    0.0000 C    0  0  0  0  0  0  0  0  0  0  0  0
    3.2377   -1.2344    0.0000 C    0  0  0  0  0  0  0  0  0  0  0  0
   -3.2342    0.0379    0.0000 C    0  0  0  0  0  0  0  0  0  0  0  0
    3.9549    0.0035    0.0000 O    0  0  0  0  0  0  0  0  0  0  0  0
   -3.9583   -0.3689    0.0000 C    0  0  0  0  0  0  0  0  0  0  0  0
    1.0793    0.0035    0.0000 O    0  0  0  0  0  0  0  0  0  0  0  0
   -0.3482    1.6689    0.0000 C    0  0  0  0  0  0  0  0  0  0  0  0
    0.3552    0.4310    0.0000 C    0  0  0  0  0  0  0  0  0  0  0  0
    2.5171    2.4861    0.0000 O    0  0  0  0  0  0  0  0  0  0  0  0
   -1.7827    1.6757    0.0000 Br   0  0  0  0  0  0  0  0  0  0  0  0
   -0.3552   -0.8068    0.0000 Br   0  0  0  0  0  0  0  0  0  0  0  0
    3.2377   -2.0585    0.0000 C    0  0  0  0  0  0  0  0  0  0  0  0
   -1.7964    0.0172    0.0000 O    0  0  0  0  0  0  0  0  0  0  0  0
    1.8067   -1.2344    0.0000 C    0  0  0  0  0  0  0  0  0  0  0  0
    3.9549   -2.4826    0.0000 F    0  0  0  0  0  0  0  0  0  0  0  0
   -2.5067    0.4379    0.0000 C    0  0  0  0  0  0  0  0  0  0  0  0
    1.8067   -2.0585    0.0000 C    0  0  0  0  0  0  0  0  0  0  0  0
    2.5171   -2.4722    0.0000 C    0  0  0  0  0  0  0  0  0  0  0  0
  2  3  1  0  0  0  0
  3  1  1  0  0  0  0
  4  1  1  0  0  0  0
  5  4  1  0  0  0  0
  6  5  1  0  0  0  0
  6  2  1  0  0  0  0
  7  1  1  0  0  0  0
  8  2  2  0  0  0  0
  9 11  2  0  0  0  0
  9 10  1  0  0  0  0
 10 18  2  0  0  0  0
 11 19  1  0  0  0  0
 12  8  1  0  0  0  0
 13  7  1  0  0  0  0
 14 27  1  0  0  0  0
 15  4  2  0  0  0  0
 16 14  3  0  0  0  0
 17  3  2  0  0  0  0
 18 12  1  0  0  0  0
 19 12  2  0  0  0  0
 20  6  2  0  0  0  0
 21 10  1  0  0  0  0
 22 11  1  0  0  0  0
 23 13  2  0  0  0  0
 23 29  1  0  0  0  0
 24  9  1  0  0  0  0
 25  7  2  0  0  0  0
 26 23  1  0  0  0  0
 27 24  1  0  0  0  0
 28 25  1  0  0  0  0
 29 28  2  0  0  0  0
M  END
> <CdId>
1769

> <Mol Weight>
522.119

> <Formula>
C20H11Br2FN2O4

> <Click_ID>
CLK023_H04 __ __ 

$$$$
