CLK028_E05
 OpenBabel03181413202D

 29 32  0  0  0  0  0  0  0  0999 V2000
    1.7900    0.1171    0.0000 N   0  0  0  0  0  0  0  0  0  0  0  0
    0.3718    0.1171    0.0000 C   0  0  0  0  0  0  0  0  0  0  0  0
    1.7900   -0.7057    0.0000 C   0  0  0  0  0  0  0  0  0  0  0  0
    1.0809    0.5301    0.0000 C   0  0  0  0  0  0  0  0  0  0  0  0
    1.0809   -1.1153    0.0000 N   0  0  0  0  0  0  0  0  0  0  0  0
    0.3718   -0.7057    0.0000 C   0  0  0  0  0  0  0  0  0  0  0  0
   -1.0602    0.1171    0.0000 C   0  0  0  0  0  0  0  0  0  0  0  0
   -0.3511    0.5267    0.0000 C   0  0  0  0  0  0  0  0  0  0  0  0
   -1.9690   -0.8813    0.0000 N   0  0  0  0  0  0  0  0  0  0  0  0
   -1.1498   -0.7057    0.0000 C   0  0  0  0  0  0  0  0  0  0  0  0
    2.5129    0.5267    0.0000 C   0  0  0  0  0  0  0  0  0  0  0  0
   -1.8244    0.4509    0.0000 C   0  0  0  0  0  0  0  0  0  0  0  0
   -2.3787   -0.1652    0.0000 C   0  0  0  0  0  0  0  0  0  0  0  0
    2.5129   -1.1256    0.0000 S   0  0  0  0  0  0  0  0  0  0  0  0
   -3.1187   -1.7211    0.0000 C   0  0  0  0  0  0  0  0  0  0  0  0
    1.0809    1.3597    0.0000 O   0  0  0  0  0  0  0  0  0  0  0  0
   -3.9484   -1.7590    0.0000 C   0  0  0  0  0  0  0  0  0  0  0  0
   -0.3511   -1.1256    0.0000 O   0  0  0  0  0  0  0  0  0  0  0  0
    3.2220    0.1171    0.0000 C   0  0  0  0  0  0  0  0  0  0  0  0
   -2.2960   -1.6385    0.0000 C   0  0  0  0  0  0  0  0  0  0  0  0
   -3.1807    0.0035    0.0000 C   0  0  0  0  0  0  0  0  0  0  0  0
   -2.0722    1.2358    0.0000 C   0  0  0  0  0  0  0  0  0  0  0  0
    2.5094    1.3494    0.0000 C   0  0  0  0  0  0  0  0  0  0  0  0
    3.2185   -0.7057    0.0000 C   0  0  0  0  0  0  0  0  0  0  0  0
    3.9414    0.5198    0.0000 C   0  0  0  0  0  0  0  0  0  0  0  0
   -2.8812    1.3976    0.0000 C   0  0  0  0  0  0  0  0  0  0  0  0
   -3.4389    0.7883    0.0000 C   0  0  0  0  0  0  0  0  0  0  0  0
    3.2220    1.7624    0.0000 C   0  0  0  0  0  0  0  0  0  0  0  0
    3.9449    1.3494    0.0000 C   0  0  0  0  0  0  0  0  0  0  0  0
  2  4  1  0  0  0  0
  3  1  1  0  0  0  0
  4  1  1  0  0  0  0
  5  3  1  0  0  0  0
  5  6  1  0  0  0  0
  6  2  1  0  0  0  0
  7  8  1  0  0  0  0
  8  2  2  0  0  0  0
  9 10  1  0  0  0  0
  9 13  1  0  0  0  0
 10  7  2  0  0  0  0
 11  1  1  0  0  0  0
 12  7  1  0  0  0  0
 13 12  1  0  0  0  0
 14  3  2  0  0  0  0
 15 20  1  0  0  0  0
 16  4  2  0  0  0  0
 17 15  3  0  0  0  0
 18  6  2  0  0  0  0
 19 11  2  0  0  0  0
 20  9  1  0  0  0  0
 21 13  2  0  0  0  0
 21 27  1  0  0  0  0
 22 12  2  0  0  0  0
 23 11  1  0  0  0  0
 24 19  1  0  0  0  0
 25 19  1  0  0  0  0
 26 22  1  0  0  0  0
 27 26  2  0  0  0  0
 28 23  2  0  0  0  0
 29 28  1  0  0  0  0
 29 25  2  0  0  0  0
M  END
> <CdId>
2129

> <Mol Weight>
399.465

> <Formula>
C23H17N3O2S

> <Click_ID>
CLK028_E05 __ __ 

$$$$
