CLK008_B06
 OpenBabel03181413202D

 33 37  0  0  0  0  0  0  0  0999 V2000
   -0.8559    0.2386    0.0000 C   0  0  0  0  0  0  0  0  0  0  0  0
   -0.8559   -0.5832    0.0000 C   0  0  0  0  0  0  0  0  0  0  0  0
   -0.1439    0.6552    0.0000 C   0  0  0  0  0  0  0  0  0  0  0  0
   -1.5717    0.6514    0.0000 C   0  0  0  0  0  0  0  0  0  0  0  0
   -0.1363   -0.9961    0.0000 C   0  0  0  0  0  0  0  0  0  0  0  0
   -1.5641   -0.9961    0.0000 C   0  0  0  0  0  0  0  0  0  0  0  0
    0.5795    0.2424    0.0000 C   0  0  3  0  0  0  0  0  0  0  0  0
   -0.1439    1.4884    0.0000 C   0  0  0  0  0  0  0  0  0  0  0  0
   -1.5755    1.4808    0.0000 C   0  0  0  0  0  0  0  0  0  0  0  0
    0.5795   -0.5832    0.0000 N   0  0  0  0  0  0  0  0  0  0  0  0
   -0.1363   -1.8216    0.0000 C   0  0  0  0  0  0  0  0  0  0  0  0
   -1.5641   -1.8216    0.0000 C   0  0  0  0  0  0  0  0  0  0  0  0
   -2.2761   -0.5832    0.0000 C   0  0  0  0  0  0  0  0  0  0  0  0
    1.2915    0.6666    0.0000 C   0  0  0  0  0  0  0  0  0  0  0  0
   -0.8559    1.9012    0.0000 C   0  0  0  0  0  0  0  0  0  0  0  0
    0.5719    1.9012    0.0000 O   0  0  0  0  0  0  0  0  0  0  0  0
   -1.9845    0.7651    0.0000 C   0  0  0  0  0  0  0  0  0  0  0  0
   -2.2913    1.8899    0.0000 C   0  0  0  0  0  0  0  0  0  0  0  0
   -0.8559   -2.2307    0.0000 C   0  0  0  0  0  0  0  0  0  0  0  0
   -2.2761   -2.2307    0.0000 C   0  0  0  0  0  0  0  0  0  0  0  0
   -2.9843   -0.9961    0.0000 C   0  0  0  0  0  0  0  0  0  0  0  0
    2.0073    0.2537    0.0000 C   0  0  0  0  0  0  0  0  0  0  0  0
    1.2839    1.4884    0.0000 C   0  0  0  0  0  0  0  0  0  0  0  0
   -2.9843   -1.8216    0.0000 C   0  0  0  0  0  0  0  0  0  0  0  0
    2.7117    0.6666    0.0000 C   0  0  0  0  0  0  0  0  0  0  0  0
    2.0073   -0.5719    0.0000 O   0  0  0  0  0  0  0  0  0  0  0  0
    1.9997    1.9012    0.0000 C   0  0  0  0  0  0  0  0  0  0  0  0
    2.7117    1.4884    0.0000 C   0  0  0  0  0  0  0  0  0  0  0  0
    3.4275    0.2537    0.0000 I   0  0  0  0  0  0  0  0  0  0  0  0
    1.2991   -0.9809    0.0000 C   0  0  0  0  0  0  0  0  0  0  0  0
    1.9997    2.7230    0.0000 I   0  0  0  0  0  0  0  0  0  0  0  0
    1.2991   -1.8065    0.0000 C   0  0  0  0  0  0  0  0  0  0  0  0
    1.2991   -2.6284    0.0000 C   0  0  0  0  0  0  0  0  0  0  0  0
  1  2  1  0  0  0  0
  1  3  2  0  0  0  0
  1  4  1  0  0  0  0
  2  5  1  0  0  0  0
  2  6  2  0  0  0  0
  3  7  1  0  0  0  0
  3  8  1  0  0  0  0
  4  9  1  0  0  0  0
  5 10  1  0  0  0  0
  5 11  2  0  0  0  0
  6 12  1  0  0  0  0
  6 13  1  0  0  0  0
  7 14  1  0  0  0  0
  7 10  1  0  0  0  0
  8 15  1  0  0  0  0
  8 16  2  0  0  0  0
  9 17  1  0  0  0  0
  9 18  1  0  0  0  0
  9 15  1  0  0  0  0
 11 19  1  0  0  0  0
 12 20  1  0  0  0  0
 12 19  2  0  0  0  0
 13 21  2  0  0  0  0
 14 22  1  0  0  0  0
 14 23  2  0  0  0  0
 20 24  2  0  0  0  0
 21 24  1  0  0  0  0
 22 25  2  0  0  0  0
 22 26  1  0  0  0  0
 23 27  1  0  0  0  0
 25 28  1  0  0  0  0
 25 29  1  0  0  0  0
 26 30  1  0  0  0  0
 27 31  1  0  0  0  0
 27 28  2  0  0  0  0
 30 32  1  0  0  0  0
 32 33  3  0  0  0  0
M  END
> <CdId>
570

> <Mol Weight>
659.2967

> <Formula>
C28H23I2NO2

> <Click_ID>
CLK008_B06 __ __ 

$$$$
