CLK019_C07
 OpenBabel03181413202D

 22 23  0  0  0  0  0  0  0  0999 V2000
    3.4196    0.3841    0.0000 C    0  0  0  0  0  0  0  0  0  0  0  0
    3.4113    1.2108    0.0000 C    0  0  0  0  0  0  0  0  0  0  0  0
    4.1378   -0.0293    0.0000 C    0  0  0  0  0  0  0  0  0  0  0  0
    4.8517   -0.4426    0.0000 N    0  0  0  0  0  0  0  0  0  0  0  0
   -0.1586    4.0709    0.0000 C    0  0  0  0  0  0  0  0  0  0  0  0
   -0.8643    4.4760    0.0000 C    0  0  0  0  0  0  0  0  0  0  0  0
    1.9708    2.8392    0.0000 C    0  0  0  0  0  0  0  0  0  0  0  0
    2.7056   -0.0293    0.0000 C    0  0  0  0  0  0  0  0  0  0  0  0
    2.6973    1.6116    0.0000 C    0  0  0  0  0  0  0  0  0  0  0  0
    2.6931    2.4258    0.0000 C    0  0  0  0  0  0  0  0  0  0  0  0
    1.2693    2.4258    0.0000 C    0  0  0  0  0  0  0  0  0  0  0  0
    2.7056   -0.8685    0.0000 C    0  0  0  0  0  0  0  0  0  0  0  0
    1.9833    0.3758    0.0000 C    0  0  0  0  0  0  0  0  0  0  0  0
    1.2693    1.6116    0.0000 C    0  0  0  0  0  0  0  0  0  0  0  0
    1.9708    3.6534    0.0000 I    0  0  0  0  0  0  0  0  0  0  0  0
    1.9916    1.1983    0.0000 C    0  0  0  0  0  0  0  0  0  0  0  0
    1.2693   -0.8685    0.0000 C    0  0  0  0  0  0  0  0  0  0  0  0
    1.2693   -0.0293    0.0000 C    0  0  0  0  0  0  0  0  0  0  0  0
    1.9833   -1.2819    0.0000 C    0  0  0  0  0  0  0  0  0  0  0  0
    0.5553   -1.2819    0.0000 Cl   0  0  0  0  0  0  0  0  0  0  0  0
    0.5553    2.8392    0.0000 O    0  0  0  0  0  0  0  0  0  0  0  0
    0.5553    3.6576    0.0000 C    0  0  0  0  0  0  0  0  0  0  0  0
  2  1  2  0  0  0  0
  3  1  1  0  0  0  0
  4  3  3  0  0  0  0
  5 22  1  0  0  0  0
  6  5  3  0  0  0  0
  7 10  2  0  0  0  0
  7 11  1  0  0  0  0
  8  1  1  0  0  0  0
  9  2  1  0  0  0  0
 10  9  1  0  0  0  0
 11 14  2  0  0  0  0
 12  8  1  0  0  0  0
 13  8  2  0  0  0  0
 14 16  1  0  0  0  0
 15  7  1  0  0  0  0
 16  9  2  0  0  0  0
 17 18  2  0  0  0  0
 18 13  1  0  0  0  0
 19 12  2  0  0  0  0
 19 17  1  0  0  0  0
 20 17  1  0  0  0  0
 21 11  1  0  0  0  0
 22 21  1  0  0  0  0
M  END
> <CdId>
1422

> <Mol Weight>
419.644

> <Formula>
C18H11ClINO

> <Click_ID>
CLK019_C07 __ __ 

$$$$
