CLK004_D06
 OpenBabel03181413202D

 25 27  0  0  0  0  0  0  0  0999 V2000
   -0.9031    0.0797    0.0000 C   0  0  3  0  0  0  0  0  0  0  0  0
   -1.7151   -0.0645    0.0000 C   0  0  0  0  0  0  0  0  0  0  0  0
   -0.5085   -0.6489    0.0000 C   0  0  0  0  0  0  0  0  0  0  0  0
    0.0341    0.7058    0.0000 C   0  0  0  0  0  0  0  0  0  0  0  0
   -1.1649    1.0245    0.0000 O   0  0  0  0  0  0  0  0  0  0  0  0
   -1.8252   -0.8727    0.0000 C   0  0  0  0  0  0  0  0  0  0  0  0
   -2.3602    0.4515    0.0000 C   0  0  0  0  0  0  0  0  0  0  0  0
   -1.0852   -1.2408    0.0000 N   0  0  0  0  0  0  0  0  0  0  0  0
    0.3073   -0.7627    0.0000 O   0  0  0  0  0  0  0  0  0  0  0  0
    0.8272    0.2960    0.0000 C   0  0  0  0  0  0  0  0  0  0  0  0
   -2.5955   -1.1877    0.0000 C   0  0  0  0  0  0  0  0  0  0  0  0
   -3.1229    0.1442    0.0000 C   0  0  0  0  0  0  0  0  0  0  0  0
   -0.9448   -2.0528    0.0000 C   0  0  0  0  0  0  0  0  0  0  0  0
    1.5178    0.7475    0.0000 C   0  0  0  0  0  0  0  0  0  0  0  0
    0.8576   -0.3946    0.0000 O   0  0  0  0  0  0  0  0  0  0  0  0
   -3.2405   -0.6754    0.0000 C   0  0  0  0  0  0  0  0  0  0  0  0
   -1.5786   -2.5803    0.0000 C   0  0  0  0  0  0  0  0  0  0  0  0
    1.4874    1.5634    0.0000 C   0  0  0  0  0  0  0  0  0  0  0  0
    2.2464    0.3642    0.0000 C   0  0  0  0  0  0  0  0  0  0  0  0
   -2.2084   -3.1116    0.0000 C   0  0  0  0  0  0  0  0  0  0  0  0
    2.1781    2.0149    0.0000 C   0  0  0  0  0  0  0  0  0  0  0  0
    2.9484    0.8044    0.0000 C   0  0  0  0  0  0  0  0  0  0  0  0
    2.9067    1.6279    0.0000 C   0  0  0  0  0  0  0  0  0  0  0  0
    3.6086    2.0756    0.0000 C   0  0  0  0  0  0  0  0  0  0  0  0
    4.3372    1.6962    0.0000 C   0  0  0  0  0  0  0  0  0  0  0  0
  1  2  1  0  0  0  0
  1  3  1  0  0  0  0
  1  4  1  0  0  0  0
  1  5  1  0  0  0  0
  2  6  2  0  0  0  0
  2  7  1  0  0  0  0
  3  8  1  0  0  0  0
  3  9  2  0  0  0  0
  4 10  1  0  0  0  0
  6 11  1  0  0  0  0
  6  8  1  0  0  0  0
  7 12  2  0  0  0  0
  8 13  1  0  0  0  0
 10 14  1  0  0  0  0
 10 15  2  0  0  0  0
 11 16  2  0  0  0  0
 12 16  1  0  0  0  0
 13 17  1  0  0  0  0
 14 18  2  0  0  0  0
 14 19  1  0  0  0  0
 17 20  3  0  0  0  0
 18 21  1  0  0  0  0
 19 22  2  0  0  0  0
 21 23  2  0  0  0  0
 22 23  1  0  0  0  0
 23 24  1  0  0  0  0
 24 25  1  0  0  0  0
M  END
> <CdId>
275

> <Mol Weight>
333.3805

> <Formula>
C21H19NO3

> <Click_ID>
CLK004_D06 __ __ 

$$$$
