CLK006_H02
 OpenBabel03181413202D

 30 33  0  0  0  0  0  0  0  0999 V2000
   -0.1365   -1.0078    0.0000 C   0  0  0  0  0  0  0  0  0  0  0  0
   -0.2624   -0.2204    0.0000 C   0  0  0  0  0  0  0  0  0  0  0  0
   -0.8398   -1.3822    0.0000 N   0  0  0  0  0  0  0  0  0  0  0  0
    0.6123   -1.3962    0.0000 N   0  0  0  0  0  0  0  0  0  0  0  0
    0.2240    0.2694    0.0000 C   0  0  3  0  0  0  0  0  0  0  0  0
   -1.0638   -0.1085    0.0000 C   0  0  0  0  0  0  0  0  0  0  0  0
   -0.9553   -2.2011    0.0000 C   0  0  0  0  0  0  0  0  0  0  0  0
   -1.4137   -0.8328    0.0000 N   0  0  0  0  0  0  0  0  0  0  0  0
    1.3892   -1.0322    0.0000 C   0  0  0  0  0  0  0  0  0  0  0  0
    0.2134    1.1058    0.0000 C   0  0  0  0  0  0  0  0  0  0  0  0
    1.0392    0.2800    0.0000 S   0  0  0  0  0  0  0  0  0  0  0  0
   -1.7882    0.3044    0.0000 C   0  0  0  0  0  0  0  0  0  0  0  0
   -1.7286   -2.5090    0.0000 C   0  0  0  0  0  0  0  0  0  0  0  0
   -0.3114   -2.7015    0.0000 C   0  0  0  0  0  0  0  0  0  0  0  0
    1.5396   -0.2310    0.0000 C   0  0  3  0  0  0  0  0  0  0  0  0
    2.0400   -1.5326    0.0000 O   0  0  0  0  0  0  0  0  0  0  0  0
   -0.5004    1.5082    0.0000 C   0  0  0  0  0  0  0  0  0  0  0  0
    0.9273    1.5187    0.0000 C   0  0  0  0  0  0  0  0  0  0  0  0
   -1.8406   -3.3278    0.0000 C   0  0  0  0  0  0  0  0  0  0  0  0
   -0.4269   -3.5237    0.0000 C   0  0  0  0  0  0  0  0  0  0  0  0
    2.3270    0.0000    0.0000 C   0  0  0  0  0  0  0  0  0  0  0  0
   -0.5144    2.3340    0.0000 C   0  0  0  0  0  0  0  0  0  0  0  0
    0.9273    2.3445    0.0000 C   0  0  0  0  0  0  0  0  0  0  0  0
   -1.1897   -3.8352    0.0000 C   0  0  0  0  0  0  0  0  0  0  0  0
    0.2134    2.7469    0.0000 C   0  0  0  0  0  0  0  0  0  0  0  0
   -1.4067   -4.6295    0.0000 F   0  0  0  0  0  0  0  0  0  0  0  0
    0.1995    3.5832    0.0000 O   0  0  0  0  0  0  0  0  0  0  0  0
    0.9133    3.9961    0.0000 C   0  0  0  0  0  0  0  0  0  0  0  0
    0.9133    4.8220    0.0000 C   0  0  0  0  0  0  0  0  0  0  0  0
    0.8993    5.6478    0.0000 C   0  0  0  0  0  0  0  0  0  0  0  0
  1  2  2  0  0  0  0
  1  3  1  0  0  0  0
  1  4  1  0  0  0  0
  2  5  1  0  0  0  0
  2  6  1  0  0  0  0
  3  7  1  0  0  0  0
  3  8  1  0  0  0  0
  4  9  1  0  0  0  0
  5 10  1  0  0  0  0
  5 11  1  0  0  0  0
  6 12  1  0  0  0  0
  6  8  2  0  0  0  0
  7 13  2  0  0  0  0
  7 14  1  0  0  0  0
  9 15  1  0  0  0  0
  9 16  2  0  0  0  0
 10 17  1  0  0  0  0
 10 18  2  0  0  0  0
 11 15  1  0  0  0  0
 13 19  1  0  0  0  0
 14 20  2  0  0  0  0
 15 21  1  0  0  0  0
 17 22  2  0  0  0  0
 18 23  1  0  0  0  0
 19 24  2  0  0  0  0
 20 24  1  0  0  0  0
 22 25  1  0  0  0  0
 23 25  2  0  0  0  0
 24 26  1  0  0  0  0
 25 27  1  0  0  0  0
 27 28  1  0  0  0  0
 28 29  1  0  0  0  0
 29 30  3  0  0  0  0
M  END
> <CdId>
471

> <Mol Weight>
421.487

> <Formula>
C23H20FN3O2S

> <Click_ID>
CLK006_H02 __ __ 

$$$$
