CLK044F10
 OpenBabel03181413202D

 27 29  0  0  0  0  0  0  0  0999 V2000
    0.4959   -0.0500    0.0000 C   0  0  0  0  0  0  0  0  0  0  0  0
    0.4959    0.7751    0.0000 C   0  0  0  0  0  0  0  0  0  0  0  0
    1.2835   -0.3043    0.0000 N   0  0  0  0  0  0  0  0  0  0  0  0
   -0.2167   -0.4626    0.0000 N   0  0  0  0  0  0  0  0  0  0  0  0
   -0.2167    1.1877    0.0000 C   0  0  0  0  0  0  0  0  0  0  0  0
   -0.9335    0.7751    0.0000 N   0  0  0  0  0  0  0  0  0  0  0  0
    1.7670    0.3626    0.0000 N   0  0  0  0  0  0  0  0  0  0  0  0
   -0.9335   -0.0500    0.0000 C   0  0  0  0  0  0  0  0  0  0  0  0
    1.2835    1.0294    0.0000 C   0  0  0  0  0  0  0  0  0  0  0  0
    0.6876   -3.1006    0.0000 C   0  0  0  0  0  0  0  0  0  0  0  0
    1.5378   -1.0877    0.0000 C   0  0  0  0  0  0  0  0  0  0  0  0
    1.2377   -2.4880    0.0000 C   0  0  0  0  0  0  0  0  0  0  0  0
   -1.6461    1.1877    0.0000 C   0  0  0  0  0  0  0  0  0  0  0  0
    0.9835   -1.7045    0.0000 C   0  0  0  0  0  0  0  0  0  0  0  0
   -3.0756    3.6632    0.0000 C   0  0  0  0  0  0  0  0  0  0  0  0
   -3.7924    4.0716    0.0000 C   0  0  0  0  0  0  0  0  0  0  0  0
   -1.6461    2.0129    0.0000 C   0  0  0  0  0  0  0  0  0  0  0  0
   -0.2167    2.0129    0.0000 O   0  0  0  0  0  0  0  0  0  0  0  0
   -0.9335    2.4255    0.0000 O   0  0  0  0  0  0  0  0  0  0  0  0
    1.3002   -3.6549    0.0000 F   0  0  0  0  0  0  0  0  0  0  0  0
    0.0750   -2.5505    0.0000 F   0  0  0  0  0  0  0  0  0  0  0  0
    0.1375   -3.7132    0.0000 F   0  0  0  0  0  0  0  0  0  0  0  0
   -2.3629    2.4255    0.0000 N   0  0  0  0  0  0  0  0  0  0  0  0
   -2.3629    3.2506    0.0000 C   0  0  0  0  0  0  0  0  0  0  0  0
    2.3421   -1.2627    0.0000 C   0  0  0  0  0  0  0  0  0  0  0  0
    2.0462   -2.6588    0.0000 C   0  0  0  0  0  0  0  0  0  0  0  0
    2.6005   -2.0462    0.0000 C   0  0  0  0  0  0  0  0  0  0  0  0
  2  1  2  0  0  0  0
  3  1  1  0  0  0  0
  4  1  1  0  0  0  0
  5  2  1  0  0  0  0
  6  5  1  0  0  0  0
  7  3  1  0  0  0  0
  8  4  2  0  0  0  0
  8  6  1  0  0  0  0
  9  2  1  0  0  0  0
  9  7  2  0  0  0  0
 10 12  1  0  0  0  0
 11  3  1  0  0  0  0
 12 14  2  0  0  0  0
 13  6  1  0  0  0  0
 14 11  1  0  0  0  0
 15 24  1  0  0  0  0
 16 15  3  0  0  0  0
 17 13  1  0  0  0  0
 18  5  2  0  0  0  0
 19 17  2  0  0  0  0
 20 10  1  0  0  0  0
 21 10  1  0  0  0  0
 22 10  1  0  0  0  0
 23 17  1  0  0  0  0
 24 23  1  0  0  0  0
 25 11  2  0  0  0  0
 26 12  1  0  0  0  0
 27 25  1  0  0  0  0
 27 26  2  0  0  0  0
M  END
> <CdId>
3398

> <Mol Weight>
375.3047

> <Formula>
C17H12F3N5O2

> <Click_ID>
CLK044F10 __ __ 

$$$$
