CLK049G08
 OpenBabel03181413202D

 19 20  0  0  0  0  0  0  0  0999 V2000
    0.3000   -0.1292    0.0000 C   0  0  0  0  0  0  0  0  0  0  0  0
    1.0125   -0.5417    0.0000 N   0  0  0  0  0  0  0  0  0  0  0  0
   -3.2750   -0.5417    0.0000 C   0  0  0  0  0  0  0  0  0  0  0  0
   -0.4167   -0.5417    0.0000 N   0  0  0  0  0  0  0  0  0  0  0  0
   -3.9875   -0.9542    0.0000 C   0  0  0  0  0  0  0  0  0  0  0  0
    1.7292   -0.1292    0.0000 C   0  0  0  0  0  0  0  0  0  0  0  0
    0.3000    0.6958    0.0000 O   0  0  0  0  0  0  0  0  0  0  0  0
    2.4417   -0.5417    0.0000 C   0  0  0  0  0  0  0  0  0  0  0  0
   -1.1292   -0.1292    0.0000 C   0  0  0  0  0  0  0  0  0  0  0  0
   -2.5583   -0.1292    0.0000 C   0  0  0  0  0  0  0  0  0  0  0  0
   -1.8458   -0.5417    0.0000 C   0  0  0  0  0  0  0  0  0  0  0  0
    2.4417   -1.3667    0.0000 F   0  0  0  0  0  0  0  0  0  0  0  0
   -1.8458    1.1083    0.0000 C   0  0  0  0  0  0  0  0  0  0  0  0
    1.7292    0.6958    0.0000 C   0  0  0  0  0  0  0  0  0  0  0  0
   -1.1292    0.6958    0.0000 C   0  0  0  0  0  0  0  0  0  0  0  0
    3.1583   -0.1292    0.0000 C   0  0  0  0  0  0  0  0  0  0  0  0
   -2.5583    0.6958    0.0000 C   0  0  0  0  0  0  0  0  0  0  0  0
    2.4417    1.1083    0.0000 C   0  0  0  0  0  0  0  0  0  0  0  0
    3.1583    0.6958    0.0000 C   0  0  0  0  0  0  0  0  0  0  0  0
  2  1  1  0  0  0  0
  3 10  1  0  0  0  0
  4  1  1  0  0  0  0
  5  3  3  0  0  0  0
  6  2  1  0  0  0  0
  7  1  2  0  0  0  0
  8  6  2  0  0  0  0
  9  4  1  0  0  0  0
 10 11  1  0  0  0  0
 11  9  2  0  0  0  0
 12  8  1  0  0  0  0
 13 15  2  0  0  0  0
 14  6  1  0  0  0  0
 15  9  1  0  0  0  0
 16  8  1  0  0  0  0
 17 10  2  0  0  0  0
 17 13  1  0  0  0  0
 18 14  2  0  0  0  0
 18 19  1  0  0  0  0
 19 16  2  0  0  0  0
M  END
> <CdId>
3783

> <Mol Weight>
254.259

> <Formula>
C15H11FN2O

> <Click_ID>
CLK049G08 __ __ 

$$$$
