CLK006_C05
 OpenBabel03181413202D

 22 24  0  0  0  0  0  0  0  0999 V2000
    5.4477   -5.8986    0.0000 C   0  0  0  0  0  0  0  0  0  0  0  0
    4.9635   -5.2348    0.0000 N   0  0  0  0  0  0  0  0  0  0  0  0
    4.9635   -6.5665    0.0000 N   0  0  0  0  0  0  0  0  0  0  0  0
    4.1745   -6.3161    0.0000 C   0  0  0  0  0  0  0  0  0  0  0  0
    4.1745   -5.4895    0.0000 C   0  0  0  0  0  0  0  0  0  0  0  0
    4.6630   -7.9692    0.0000 C   0  0  0  0  0  0  0  0  0  0  0  0
    4.1077   -8.5786    0.0000 C   0  0  0  0  0  0  0  0  0  0  0  0
    6.2743   -5.8903    0.0000 C   0  0  0  0  0  0  0  0  0  0  0  0
    5.2140   -7.3555    0.0000 C   0  0  0  0  0  0  0  0  0  0  0  0
    7.9316   -5.8986    0.0000 C   0  0  0  0  0  0  0  0  0  0  0  0
    6.6876   -5.1764    0.0000 O   0  0  0  0  0  0  0  0  0  0  0  0
    7.5183   -5.1764    0.0000 C   0  0  0  0  0  0  0  0  0  0  0  0
    8.7582   -5.8986    0.0000 C   0  0  0  0  0  0  0  0  0  0  0  0
    3.4607   -6.7294    0.0000 C   0  0  0  0  0  0  0  0  0  0  0  0
    9.1840   -6.6166    0.0000 O   0  0  0  0  0  0  0  0  0  0  0  0
    3.4607   -5.0762    0.0000 C   0  0  0  0  0  0  0  0  0  0  0  0
    8.7582   -4.4626    0.0000 C   0  0  0  0  0  0  0  0  0  0  0  0
    7.9316   -4.4626    0.0000 C   0  0  0  0  0  0  0  0  0  0  0  0
    9.1714   -5.1764    0.0000 C   0  0  0  0  0  0  0  0  0  0  0  0
    8.7707   -7.3430    0.0000 C   0  0  0  0  0  0  0  0  0  0  0  0
    2.7469   -6.3161    0.0000 C   0  0  0  0  0  0  0  0  0  0  0  0
    2.7469   -5.4895    0.0000 C   0  0  0  0  0  0  0  0  0  0  0  0
  2  1  2  0  0  0  0
  3  1  1  0  0  0  0
  4  3  1  0  0  0  0
  5  2  1  0  0  0  0
  5  4  1  0  0  0  0
  6  9  1  0  0  0  0
  7  6  3  0  0  0  0
  8  1  1  0  0  0  0
  9  3  1  0  0  0  0
 10 12  2  0  0  0  0
 11  8  1  0  0  0  0
 12 11  1  0  0  0  0
 13 10  1  0  0  0  0
 14  4  2  0  0  0  0
 15 13  1  0  0  0  0
 16  5  2  0  0  0  0
 17 18  2  0  0  0  0
 18 12  1  0  0  0  0
 19 17  1  0  0  0  0
 19 13  2  0  0  0  0
 20 15  1  0  0  0  0
 21 14  1  0  0  0  0
 22 16  1  0  0  0  0
 22 21  2  0  0  0  0
M  END
> <CdId>
424

> <Mol Weight>
292.3318

> <Formula>
C18H16N2O2

> <Click_ID>
CLK006_C05 __ __ 

$$$$
