CLK005_F06
 OpenBabel03181413202D

 28 31  0  0  0  0  0  0  0  0999 V2000
    0.6639    0.3642    0.0000 C   0  0  3  0  0  0  0  0  0  0  0  0
    1.3772   -0.0380    0.0000 C   0  0  0  0  0  0  0  0  0  0  0  0
    0.6488    1.1838    0.0000 C   0  0  0  0  0  0  0  0  0  0  0  0
   -0.0531   -0.0531    0.0000 C   0  0  0  0  0  0  0  0  0  0  0  0
    2.0868    0.3870    0.0000 C   0  0  0  0  0  0  0  0  0  0  0  0
    1.3886   -0.8498    0.0000 C   0  0  0  0  0  0  0  0  0  0  0  0
    1.3507    1.6011    0.0000 C   0  0  0  0  0  0  0  0  0  0  0  0
   -0.0645    1.5897    0.0000 C   0  0  0  0  0  0  0  0  0  0  0  0
   -0.7664    0.3453    0.0000 C   0  0  0  0  0  0  0  0  0  0  0  0
   -0.0380   -0.8765    0.0000 C   0  0  0  0  0  0  0  0  0  0  0  0
    2.0753    1.2027    0.0000 N   0  0  0  0  0  0  0  0  0  0  0  0
    2.8076   -0.0189    0.0000 C   0  0  0  0  0  0  0  0  0  0  0  0
    2.1057   -1.2634    0.0000 C   0  0  0  0  0  0  0  0  0  0  0  0
    0.6715   -1.2862    0.0000 O   0  0  0  0  0  0  0  0  0  0  0  0
    1.3468    2.4358    0.0000 C   0  0  0  0  0  0  0  0  0  0  0  0
   -0.0797    2.4093    0.0000 C   0  0  0  0  0  0  0  0  0  0  0  0
   -0.7815    1.1723    0.0000 O   0  0  0  0  0  0  0  0  0  0  0  0
   -1.4835   -0.0797    0.0000 C   0  0  0  0  0  0  0  0  0  0  0  0
   -0.7437   -1.3051    0.0000 C   0  0  0  0  0  0  0  0  0  0  0  0
    2.8190   -0.8461    0.0000 C   0  0  0  0  0  0  0  0  0  0  0  0
    0.6222    2.8266    0.0000 C   0  0  0  0  0  0  0  0  0  0  0  0
   -1.4683   -0.9067    0.0000 C   0  0  0  0  0  0  0  0  0  0  0  0
   -2.1968    0.3225    0.0000 O   0  0  0  0  0  0  0  0  0  0  0  0
   -2.1740   -1.3279    0.0000 O   0  0  0  0  0  0  0  0  0  0  0  0
   -2.2119    1.1496    0.0000 C   0  0  0  0  0  0  0  0  0  0  0  0
   -2.1626   -2.1588    0.0000 C   0  0  0  0  0  0  0  0  0  0  0  0
   -2.8720   -2.5799    0.0000 C   0  0  0  0  0  0  0  0  0  0  0  0
   -2.8570   -3.4032    0.0000 C   0  0  0  0  0  0  0  0  0  0  0  0
  1  2  1  0  0  0  0
  1  3  1  0  0  0  0
  1  4  1  0  0  0  0
  2  5  2  0  0  0  0
  2  6  1  0  0  0  0
  3  7  2  0  0  0  0
  3  8  1  0  0  0  0
  4  9  1  0  0  0  0
  4 10  2  0  0  0  0
  5 11  1  0  0  0  0
  5 12  1  0  0  0  0
  6 13  1  0  0  0  0
  6 14  2  0  0  0  0
  7 15  1  0  0  0  0
  7 11  1  0  0  0  0
  8 16  1  0  0  0  0
  8 17  2  0  0  0  0
  9 18  2  0  0  0  0
 10 19  1  0  0  0  0
 12 20  1  0  0  0  0
 13 20  1  0  0  0  0
 15 21  1  0  0  0  0
 16 21  1  0  0  0  0
 18 22  1  0  0  0  0
 18 23  1  0  0  0  0
 19 22  2  0  0  0  0
 22 24  1  0  0  0  0
 23 25  1  0  0  0  0
 24 26  1  0  0  0  0
 26 27  1  0  0  0  0
 27 28  3  0  0  0  0
M  END
> <CdId>
375

> <Mol Weight>
377.433

> <Formula>
C23H23NO4

> <Click_ID>
CLK005_F06 __ __ 

$$$$
