CLK026_E11
 OpenBabel03181413202D

 13 14  0  0  0  0  0  0  0  0999 V2000
   -0.4802   -0.1377    0.0000 C   0  0  3  0  0  0  0  0  0  0  0  0
    0.2369   -0.5474    0.0000 C   0  0  3  0  0  0  0  0  0  0  0  0
   -0.6018    0.5603    0.0000 C   0  0  0  0  0  0  0  0  0  0  0  0
   -0.6723   -0.4642    0.0000 C   0  0  3  0  0  0  0  0  0  0  0  0
    0.9604   -0.9604    0.0000 C   0  0  0  0  0  0  0  0  0  0  0  0
    0.0544   -0.8548    0.0000 C   0  0  0  0  0  0  0  0  0  0  0  0
   -1.3222   -0.4642    0.0000 C   0  0  0  0  0  0  0  0  0  0  0  0
    1.5399   -1.3030    0.0000 C   0  0  0  0  0  0  0  0  0  0  0  0
   -1.5431   -0.8131    0.0000 C   0  0  0  0  0  0  0  0  0  0  0  0
    0.9956   -0.2818    0.0000 O   0  0  0  0  0  0  0  0  0  0  0  0
    0.2593    0.1377    0.0000 C   0  0  0  0  0  0  0  0  0  0  0  0
   -0.1281    1.3062    0.0000 C   0  0  0  0  0  0  0  0  0  0  0  0
   -1.0148    1.2165    0.0000 C   0  0  0  0  0  0  0  0  0  0  0  0
  2  1  1  0  0  0  0
  3  1  1  0  0  0  0
  4  3  1  0  0  0  0
  4  6  1  0  0  0  0
  5  2  1  0  0  0  0
  6  2  1  0  0  0  0
  7  1  1  0  0  0  0
  8  5  3  0  0  0  0
  9  7  1  0  0  0  0
  9  4  1  0  0  0  0
 10  2  1  0  0  0  0
 11  1  1  0  0  0  0
 12  3  1  0  0  0  0
 13  3  1  0  0  0  0
M  END
> <CdId>
1986

> <Mol Weight>
178.2707

> <Formula>
C12H18O

> <Click_ID>
CLK026_E11 __ __ 

$$$$
