CLK048E11
 OpenBabel03181413202D

 28 29  0  0  0  0  0  0  0  0999 V2000
    1.9375    2.1833    0.0000 S   0  0  0  0  0  0  0  0  0  0  0  0
   -0.9208    0.5333    0.0000 C   0  0  0  0  0  0  0  0  0  0  0  0
   -0.9208   -0.2917    0.0000 N   0  0  0  0  0  0  0  0  0  0  0  0
   -1.6333   -1.5292    0.0000 C   0  0  0  0  0  0  0  0  0  0  0  0
   -1.6333   -0.7042    0.0000 C   0  0  0  0  0  0  0  0  0  0  0  0
    1.2208    1.7708    0.0000 C   0  0  0  0  0  0  0  0  0  0  0  0
   -2.3500   -1.9417    0.0000 C   0  0  0  0  0  0  0  0  0  0  0  0
    4.0792    2.5958    0.0000 C   0  0  0  0  0  0  0  0  0  0  0  0
    4.7958    3.0083    0.0000 C   0  0  0  0  0  0  0  0  0  0  0  0
    2.3500    1.4667    0.0000 O   0  0  0  0  0  0  0  0  0  0  0  0
    1.5250    2.8958    0.0000 O   0  0  0  0  0  0  0  0  0  0  0  0
   -2.3500   -2.7667    0.0000 C   0  0  0  0  0  0  0  0  0  0  0  0
   -0.2042    0.9458    0.0000 C   0  0  0  0  0  0  0  0  0  0  0  0
    2.6500    2.5958    0.0000 N   0  0  0  0  0  0  0  0  0  0  0  0
   -1.6333    0.9458    0.0000 O   0  0  0  0  0  0  0  0  0  0  0  0
   -0.9208   -1.9417    0.0000 C   0  0  0  0  0  0  0  0  0  0  0  0
    1.2208    0.9458    0.0000 C   0  0  0  0  0  0  0  0  0  0  0  0
    0.5083    2.1833    0.0000 C   0  0  0  0  0  0  0  0  0  0  0  0
    0.5083    0.5333    0.0000 C   0  0  0  0  0  0  0  0  0  0  0  0
   -0.2042    1.7708    0.0000 C   0  0  0  0  0  0  0  0  0  0  0  0
   -1.6333   -3.1792    0.0000 C   0  0  0  0  0  0  0  0  0  0  0  0
   -0.9208   -2.7667    0.0000 C   0  0  0  0  0  0  0  0  0  0  0  0
   -3.0625   -1.5292    0.0000 O   0  0  0  0  0  0  0  0  0  0  0  0
    3.3667    2.1833    0.0000 C   0  0  0  0  0  0  0  0  0  0  0  0
   -0.2042   -0.7042    0.0000 C   0  0  0  0  0  0  0  0  0  0  0  0
   -1.6333   -4.0042    0.0000 O   0  0  0  0  0  0  0  0  0  0  0  0
   -3.0625   -0.7042    0.0000 C   0  0  0  0  0  0  0  0  0  0  0  0
   -0.9208   -4.4167    0.0000 C   0  0  0  0  0  0  0  0  0  0  0  0
  2 13  1  0  0  0  0
  3  2  1  0  0  0  0
  4  5  1  0  0  0  0
  5  3  1  0  0  0  0
  6  1  1  0  0  0  0
  7  4  2  0  0  0  0
  8 24  1  0  0  0  0
  9  8  3  0  0  0  0
 10  1  2  0  0  0  0
 11  1  2  0  0  0  0
 12  7  1  0  0  0  0
 13 20  2  0  0  0  0
 14  1  1  0  0  0  0
 15  2  2  0  0  0  0
 16  4  1  0  0  0  0
 17  6  1  0  0  0  0
 18  6  2  0  0  0  0
 19 17  2  0  0  0  0
 19 13  1  0  0  0  0
 20 18  1  0  0  0  0
 21 12  2  0  0  0  0
 22 16  2  0  0  0  0
 22 21  1  0  0  0  0
 23  7  1  0  0  0  0
 24 14  1  0  0  0  0
 25  3  1  0  0  0  0
 26 21  1  0  0  0  0
 27 23  1  0  0  0  0
 28 26  1  0  0  0  0
M  END
> <CdId>
3725

> <Mol Weight>
402.464

> <Formula>
C20H22N2O5S

> <Click_ID>
CLK048E11 __ __ 

$$$$
