CLK008_H03
 OpenBabel03181413202D

 26 28  0  0  0  0  0  0  0  0999 V2000
   -0.0687   -1.8618    0.0000 C   0  0  0  0  0  0  0  0  0  0  0  0
   -0.0619   -2.6930    0.0000 C   0  0  0  0  0  0  0  0  0  0  0  0
   -0.7042   -1.3603    0.0000 N   0  0  0  0  0  0  0  0  0  0  0  0
    0.6148   -1.4153    0.0000 O   0  0  0  0  0  0  0  0  0  0  0  0
    0.6492   -3.1019    0.0000 C   0  0  0  0  0  0  0  0  0  0  0  0
   -0.7798   -3.1019    0.0000 C   0  0  0  0  0  0  0  0  0  0  0  0
   -0.4087   -0.5874    0.0000 C   0  0  0  0  0  0  0  0  0  0  0  0
    0.3985   -0.6252    0.0000 C   0  0  0  0  0  0  0  0  0  0  0  0
    0.6389   -3.9297    0.0000 C   0  0  0  0  0  0  0  0  0  0  0  0
   -0.7798   -3.9297    0.0000 C   0  0  0  0  0  0  0  0  0  0  0  0
   -0.8657    0.1099    0.0000 C   0  0  0  0  0  0  0  0  0  0  0  0
    0.9103    0.0309    0.0000 O   0  0  0  0  0  0  0  0  0  0  0  0
   -0.0687   -4.3419    0.0000 C   0  0  0  0  0  0  0  0  0  0  0  0
    1.3569   -4.3419    0.0000 C   0  0  0  0  0  0  0  0  0  0  0  0
   -0.4843    0.8451    0.0000 C   0  0  0  0  0  0  0  0  0  0  0  0
   -0.9412    1.5424    0.0000 C   0  0  0  0  0  0  0  0  0  0  0  0
    0.3297    0.8932    0.0000 C   0  0  0  0  0  0  0  0  0  0  0  0
   -0.5668    2.2774    0.0000 C   0  0  0  0  0  0  0  0  0  0  0  0
    0.7111    1.6248    0.0000 C   0  0  0  0  0  0  0  0  0  0  0  0
    0.2542    2.3221    0.0000 C   0  0  0  0  0  0  0  0  0  0  0  0
   -1.0168    2.9576    0.0000 O   0  0  0  0  0  0  0  0  0  0  0  0
    0.6286    3.0572    0.0000 O   0  0  0  0  0  0  0  0  0  0  0  0
   -1.8377    2.9164    0.0000 C   0  0  0  0  0  0  0  0  0  0  0  0
    0.1786    3.7408    0.0000 C   0  0  0  0  0  0  0  0  0  0  0  0
    0.5531    4.4690    0.0000 C   0  0  0  0  0  0  0  0  0  0  0  0
    1.3740    4.5103    0.0000 C   0  0  0  0  0  0  0  0  0  0  0  0
  1  2  1  0  0  0  0
  1  3  2  0  0  0  0
  1  4  1  0  0  0  0
  2  5  1  0  0  0  0
  2  6  2  0  0  0  0
  3  7  1  0  0  0  0
  4  8  1  0  0  0  0
  5  9  2  0  0  0  0
  6 10  1  0  0  0  0
  7 11  2  0  0  0  0
  7  8  1  0  0  0  0
  8 12  2  0  0  0  0
  9 13  1  0  0  0  0
  9 14  1  0  0  0  0
 10 13  2  0  0  0  0
 11 15  1  0  0  0  0
 15 16  1  0  0  0  0
 15 17  2  0  0  0  0
 16 18  2  0  0  0  0
 17 19  1  0  0  0  0
 18 20  1  0  0  0  0
 18 21  1  0  0  0  0
 19 20  2  0  0  0  0
 20 22  1  0  0  0  0
 21 23  1  0  0  0  0
 22 24  1  0  0  0  0
 24 25  1  0  0  0  0
 25 26  3  0  0  0  0
M  END
> <CdId>
594

> <Mol Weight>
347.364

> <Formula>
C21H17NO4

> <Click_ID>
CLK008_H03 __ __ 

$$$$
