CLK020_G11
 OpenBabel03181413202D

 26 27  0  0  0  0  0  0  0  0999 V2000
    2.2414   -1.3915    0.0000 S    0  0  0  0  0  0  0  0  0  0  0  0
    2.2539   -0.5541    0.0000 N    0  0  0  0  0  0  0  0  0  0  0  0
    2.9747   -0.1417    0.0000 C    0  0  0  0  0  0  0  0  0  0  0  0
    3.6913   -0.5666    0.0000 C    0  0  0  0  0  0  0  0  0  0  0  0
    5.8410   -0.1542    0.0000 C    0  0  0  0  0  0  0  0  0  0  0  0
    2.6539   -2.1040    0.0000 O    0  0  0  0  0  0  0  0  0  0  0  0
    3.0663   -1.3915    0.0000 O    0  0  0  0  0  0  0  0  0  0  0  0
    1.5290   -1.7998    0.0000 C    0  0  0  0  0  0  0  0  0  0  0  0
    6.5534    0.2583    0.0000 C    0  0  0  0  0  0  0  0  0  0  0  0
    1.5373   -0.1417    0.0000 C    0  0  0  0  0  0  0  0  0  0  0  0
    4.4162   -0.1542    0.0000 N    0  0  0  0  0  0  0  0  0  0  0  0
    5.1286   -0.5749    0.0000 C    0  0  0  0  0  0  0  0  0  0  0  0
    3.6871   -1.4040    0.0000 O    0  0  0  0  0  0  0  0  0  0  0  0
    1.5373    0.6832    0.0000 C    0  0  0  0  0  0  0  0  0  0  0  0
    0.8166   -0.5541    0.0000 C    0  0  0  0  0  0  0  0  0  0  0  0
    0.1042    0.6832    0.0000 C    0  0  0  0  0  0  0  0  0  0  0  0
    0.1042   -0.1417    0.0000 C    0  0  0  0  0  0  0  0  0  0  0  0
    0.8166    1.0957    0.0000 C    0  0  0  0  0  0  0  0  0  0  0  0
   -0.6082    1.0957    0.0000 Cl   0  0  0  0  0  0  0  0  0  0  0  0
    0.8166   -1.3790    0.0000 C    0  0  0  0  0  0  0  0  0  0  0  0
    1.5165   -2.6247    0.0000 C    0  0  0  0  0  0  0  0  0  0  0  0
    5.5411   -1.2874    0.0000 C    0  0  0  0  0  0  0  0  0  0  0  0
    4.7162   -1.2874    0.0000 C    0  0  0  0  0  0  0  0  0  0  0  0
    0.8041   -3.0289    0.0000 C    0  0  0  0  0  0  0  0  0  0  0  0
    0.0917   -1.7790    0.0000 C    0  0  0  0  0  0  0  0  0  0  0  0
    0.0875   -2.6122    0.0000 C    0  0  0  0  0  0  0  0  0  0  0  0
  2  1  1  0  0  0  0
  3  2  1  0  0  0  0
  4  3  1  0  0  0  0
  5 12  1  0  0  0  0
  6  1  2  0  0  0  0
  7  1  2  0  0  0  0
  8  1  1  0  0  0  0
  9  5  3  0  0  0  0
 10  2  1  0  0  0  0
 11  4  1  0  0  0  0
 12 11  1  0  0  0  0
 13  4  2  0  0  0  0
 14 10  1  0  0  0  0
 15 10  2  0  0  0  0
 16 17  2  0  0  0  0
 17 15  1  0  0  0  0
 18 14  2  0  0  0  0
 18 16  1  0  0  0  0
 19 16  1  0  0  0  0
 20  8  2  0  0  0  0
 21  8  1  0  0  0  0
 22 12  1  0  0  0  0
 23 12  1  0  0  0  0
 24 21  2  0  0  0  0
 25 20  1  0  0  0  0
 25 26  2  0  0  0  0
 26 24  1  0  0  0  0
M  END
> <CdId>
1546

> <Mol Weight>
390.884

> <Formula>
C19H19ClN2O3S

> <Click_ID>
CLK020_G11 __ __ 

$$$$
