CLK030_C06
 OpenBabel03181413202D

 22 23  0  0  0  0  0  0  0  0999 V2000
   -1.1649    2.3882    0.0000 C   0  0  0  0  0  0  0  0  0  0  0  0
   -0.3382    2.3799    0.0000 N   0  0  0  0  0  0  0  0  0  0  0  0
   -1.6492    1.7244    0.0000 N   0  0  0  0  0  0  0  0  0  0  0  0
   -1.6492    3.0563    0.0000 S   0  0  0  0  0  0  0  0  0  0  0  0
   -4.5928    3.2192    0.0000 N   0  3  0  0  0  0  0  0  0  0  0  0
   -2.4383    2.8016    0.0000 C   0  0  0  0  0  0  0  0  0  0  0  0
   -2.4383    1.9749    0.0000 C   0  0  0  0  0  0  0  0  0  0  0  0
    0.0752    3.0939    0.0000 C   0  0  0  0  0  0  0  0  0  0  0  0
   -3.1523    3.2149    0.0000 C   0  0  0  0  0  0  0  0  0  0  0  0
   -3.8663    2.8016    0.0000 C   0  0  0  0  0  0  0  0  0  0  0  0
   -1.9498    0.3215    0.0000 C   0  0  0  0  0  0  0  0  0  0  0  0
   -3.1523    1.5615    0.0000 C   0  0  0  0  0  0  0  0  0  0  0  0
   -2.5010   -0.2923    0.0000 C   0  0  0  0  0  0  0  0  0  0  0  0
    0.9019    3.0939    0.0000 C   0  0  0  0  0  0  0  0  0  0  0  0
   -4.5928    4.0376    0.0000 O   0  5  0  0  0  0  0  0  0  0  0  0
   -5.3068    2.8058    0.0000 O   0  0  0  0  0  0  0  0  0  0  0  0
   -0.3382    3.8079    0.0000 O   0  0  0  0  0  0  0  0  0  0  0  0
   -3.8663    1.9749    0.0000 C   0  0  0  0  0  0  0  0  0  0  0  0
   -1.3987    0.9352    0.0000 C   0  0  0  0  0  0  0  0  0  0  0  0
    1.2819    2.3632    0.0000 C   0  0  0  0  0  0  0  0  0  0  0  0
    1.3570    3.8037    0.0000 C   0  0  0  0  0  0  0  0  0  0  0  0
    1.7328    3.1190    0.0000 C   0  0  0  0  0  0  0  0  0  0  0  0
  2  1  2  0  0  0  0
  3  1  1  0  0  0  0
  4  1  1  0  0  0  0
  5 10  1  0  0  0  0
  6  4  1  0  0  0  0
  6  7  2  0  0  0  0
  7  3  1  0  0  0  0
  8  2  1  0  0  0  0
  9  6  1  0  0  0  0
 10  9  2  0  0  0  0
 10 18  1  0  0  0  0
 11 19  1  0  0  0  0
 12  7  1  0  0  0  0
 13 11  3  0  0  0  0
 14  8  1  0  0  0  0
 15  5  1  0  0  0  0
 16  5  2  0  0  0  0
 17  8  2  0  0  0  0
 18 12  2  0  0  0  0
 19  3  1  0  0  0  0
 20 14  1  0  0  0  0
 21 14  1  0  0  0  0
 22 14  1  0  0  0  0
M  END
> <CdId>
2270

> <Mol Weight>
317.363

> <Formula>
C15H15N3O3S

> <Click_ID>
CLK030_C06 __ __ 

$$$$
