CLK026_A09
 OpenBabel03181413202D

 26 28  0  0  0  0  0  0  0  0999 V2000
   -2.7758    0.0206    0.0000 N    0  0  0  0  0  0  0  0  0  0  0  0
   -2.7622   -0.8029    0.0000 C    0  0  0  0  0  0  0  0  0  0  0  0
   -1.5063   -0.3774    0.0000 C    0  0  0  0  0  0  0  0  0  0  0  0
   -2.0004    0.2848    0.0000 C    0  0  0  0  0  0  0  0  0  0  0  0
   -1.9867   -1.0500    0.0000 S    0  0  0  0  0  0  0  0  0  0  0  0
   -0.6794   -0.3671    0.0000 C    0  0  0  0  0  0  0  0  0  0  0  0
   -0.2814    0.3465    0.0000 C    0  0  0  0  0  0  0  0  0  0  0  0
   -3.3695    1.3141    0.0000 C    0  0  0  0  0  0  0  0  0  0  0  0
   -3.3454    2.1411    0.0000 C    0  0  0  0  0  0  0  0  0  0  0  0
   -3.4313   -1.2867    0.0000 O    0  0  0  0  0  0  0  0  0  0  0  0
    0.5387    0.3568    0.0000 C    0  0  0  0  0  0  0  0  0  0  0  0
   -1.7568    1.0705    0.0000 O    0  0  0  0  0  0  0  0  0  0  0  0
   -3.4449    0.4941    0.0000 C    0  0  0  0  0  0  0  0  0  0  0  0
   -0.7068    1.0534    0.0000 C    0  0  0  0  0  0  0  0  0  0  0  0
    0.9505   -0.3534    0.0000 O    0  0  0  0  0  0  0  0  0  0  0  0
    0.9470    1.0774    0.0000 C    0  0  0  0  0  0  0  0  0  0  0  0
   -0.2951    1.7773    0.0000 C    0  0  0  0  0  0  0  0  0  0  0  0
    1.7808   -0.3397    0.0000 C    0  0  0  0  0  0  0  0  0  0  0  0
    0.5284    1.7808    0.0000 C    0  0  0  0  0  0  0  0  0  0  0  0
   -0.7068    2.4842    0.0000 Br   0  0  0  0  0  0  0  0  0  0  0  0
    2.2028   -1.0500    0.0000 C    0  0  0  0  0  0  0  0  0  0  0  0
    3.0161   -1.0397    0.0000 C    0  0  0  0  0  0  0  0  0  0  0  0
    1.7911   -1.7602    0.0000 C    0  0  0  0  0  0  0  0  0  0  0  0
    3.4416   -1.7465    0.0000 C    0  0  0  0  0  0  0  0  0  0  0  0
    2.2097   -2.4808    0.0000 C    0  0  0  0  0  0  0  0  0  0  0  0
    3.0298   -2.4705    0.0000 C    0  0  0  0  0  0  0  0  0  0  0  0
  2  1  1  0  0  0  0
  3  4  1  0  0  0  0
  4  1  1  0  0  0  0
  5  2  1  0  0  0  0
  5  3  1  0  0  0  0
  6  3  2  0  0  0  0
  7  6  1  0  0  0  0
  8 13  1  0  0  0  0
  9  8  3  0  0  0  0
 10  2  2  0  0  0  0
 11  7  1  0  0  0  0
 12  4  2  0  0  0  0
 13  1  1  0  0  0  0
 14  7  2  0  0  0  0
 15 11  1  0  0  0  0
 16 11  2  0  0  0  0
 17 14  1  0  0  0  0
 18 15  1  0  0  0  0
 19 17  2  0  0  0  0
 19 16  1  0  0  0  0
 20 17  1  0  0  0  0
 21 18  1  0  0  0  0
 22 21  1  0  0  0  0
 23 21  2  0  0  0  0
 24 22  2  0  0  0  0
 25 23  1  0  0  0  0
 26 25  2  0  0  0  0
 26 24  1  0  0  0  0
M  END
> <CdId>
1944

> <Mol Weight>
428.299

> <Formula>
C20H14BrNO3S

> <Click_ID>
CLK026_A09 __ __ 

$$$$
