CLK038A02
 OpenBabel03181413202D

 20 20  0  0  0  0  0  0  0  0999 V2000
    0.0000   -0.6583    0.0000 C    0  0  0  0  0  0  0  0  0  0  0  0
    0.7125   -1.0708    0.0000 N    0  0  0  0  0  0  0  0  0  0  0  0
    0.7125   -2.7208    0.0000 C    0  0  0  0  0  0  0  0  0  0  0  0
    0.7125   -3.5458    0.0000 C    0  0  0  0  0  0  0  0  0  0  0  0
    0.7125   -1.8958    0.0000 C    0  0  0  0  0  0  0  0  0  0  0  0
    0.0000    0.1667    0.0000 C    0  0  3  0  0  0  0  0  0  0  0  0
   -0.7167    0.5792    0.0000 O    0  0  0  0  0  0  0  0  0  0  0  0
   -0.7167   -1.0708    0.0000 O    0  0  0  0  0  0  0  0  0  0  0  0
   -0.7167    1.4042    0.0000 C    0  0  0  0  0  0  0  0  0  0  0  0
   -0.7167    3.0542    0.0000 C    0  0  0  0  0  0  0  0  0  0  0  0
   -0.7167    3.8792    0.0000 Cl   0  0  0  0  0  0  0  0  0  0  0  0
    0.0000    1.8167    0.0000 C    0  0  0  0  0  0  0  0  0  0  0  0
   -1.4292    1.8167    0.0000 C    0  0  0  0  0  0  0  0  0  0  0  0
   -1.4292    2.6417    0.0000 C    0  0  0  0  0  0  0  0  0  0  0  0
    0.0000    2.6417    0.0000 C    0  0  0  0  0  0  0  0  0  0  0  0
    1.5375   -1.8958    0.0000 C    0  0  0  0  0  0  0  0  0  0  0  0
   -0.1125   -1.8958    0.0000 C    0  0  0  0  0  0  0  0  0  0  0  0
    0.7125    0.5792    0.0000 C    0  0  0  0  0  0  0  0  0  0  0  0
   -0.5250   -1.1792    0.0000 C    0  0  0  0  0  0  0  0  0  0  0  0
    1.9500   -2.6083    0.0000 C    0  0  0  0  0  0  0  0  0  0  0  0
  2  1  1  0  0  0  0
  3  5  1  0  0  0  0
  4  3  3  0  0  0  0
  5  2  1  0  0  0  0
  6  1  1  0  0  0  0
  7  6  1  0  0  0  0
  8  1  2  0  0  0  0
  9  7  1  0  0  0  0
 10 14  2  0  0  0  0
 10 15  1  0  0  0  0
 11 10  1  0  0  0  0
 12  9  1  0  0  0  0
 13  9  2  0  0  0  0
 14 13  1  0  0  0  0
 15 12  2  0  0  0  0
 16  5  1  0  0  0  0
 17  5  1  0  0  0  0
 18  6  1  0  0  0  0
 19 17  1  0  0  0  0
 20 16  1  0  0  0  0
M  END
> <CdId>
2849

> <Mol Weight>
293.789

> <Formula>
C16H20ClNO2

> <Click_ID>
CLK038A02 __ __ 

$$$$
