CLK043C04
 OpenBabel03181413202D

 26 28  0  0  0  0  0  0  0  0999 V2000
    0.0042   -2.6532    0.0000 S   0  0  0  0  0  0  0  0  0  0  0  0
    1.0513    2.3946    0.0000 C   0  0  0  0  0  0  0  0  0  0  0  0
   -0.2503    0.6383    0.0000 C   0  0  0  0  0  0  0  0  0  0  0  0
    1.7646    2.8076    0.0000 C   0  0  0  0  0  0  0  0  0  0  0  0
    1.7646    1.9816    0.0000 C   0  0  0  0  0  0  0  0  0  0  0  0
   -0.0584   -1.8314    0.0000 C   0  0  0  0  0  0  0  0  0  0  0  0
    0.4338    1.1055    0.0000 N   0  0  0  0  0  0  0  0  0  0  0  0
   -0.5507   -4.7682    0.0000 C   0  0  0  0  0  0  0  0  0  0  0  0
   -0.4881   -5.5900    0.0000 C   0  0  0  0  0  0  0  0  0  0  0  0
    0.8260   -2.5906    0.0000 O   0  0  0  0  0  0  0  0  0  0  0  0
   -0.8218   -2.7158    0.0000 O   0  0  0  0  0  0  0  0  0  0  0  0
    0.3712    1.9315    0.0000 C   0  0  0  0  0  0  0  0  0  0  0  0
   -0.1877   -0.1835    0.0000 C   0  0  0  0  0  0  0  0  0  0  0  0
    0.0668   -3.4792    0.0000 N   0  0  0  0  0  0  0  0  0  0  0  0
    0.3712    2.8617    0.0000 C   0  0  0  0  0  0  0  0  0  0  0  0
   -0.9929    0.9970    0.0000 O   0  0  0  0  0  0  0  0  0  0  0  0
   -0.8052   -1.4726    0.0000 C   0  0  0  0  0  0  0  0  0  0  0  0
    0.6215   -1.3641    0.0000 C   0  0  0  0  0  0  0  0  0  0  0  0
   -0.8677   -0.6508    0.0000 C   0  0  0  0  0  0  0  0  0  0  0  0
    0.5590   -0.5424    0.0000 C   0  0  0  0  0  0  0  0  0  0  0  0
   -0.6174   -3.9423    0.0000 C   0  0  0  0  0  0  0  0  0  0  0  0
   -0.3755    2.5072    0.0000 C   0  0  0  0  0  0  0  0  0  0  0  0
    0.4338    3.6877    0.0000 C   0  0  0  0  0  0  0  0  0  0  0  0
   -0.2503    4.1467    0.0000 C   0  0  0  0  0  0  0  0  0  0  0  0
   -1.0555    2.9703    0.0000 C   0  0  0  0  0  0  0  0  0  0  0  0
   -0.9929    3.7963    0.0000 C   0  0  0  0  0  0  0  0  0  0  0  0
  2 12  1  0  0  0  0
  3 13  1  0  0  0  0
  4  2  1  0  0  0  0
  4  5  1  0  0  0  0
  5  2  1  0  0  0  0
  6  1  1  0  0  0  0
  7  3  1  0  0  0  0
  8 21  1  0  0  0  0
  9  8  3  0  0  0  0
 10  1  2  0  0  0  0
 11  1  2  0  0  0  0
 12  7  1  0  0  0  0
 13 20  2  0  0  0  0
 14  1  1  0  0  0  0
 15  2  1  0  0  0  0
 16  3  2  0  0  0  0
 17  6  1  0  0  0  0
 18  6  2  0  0  0  0
 19 17  2  0  0  0  0
 19 13  1  0  0  0  0
 20 18  1  0  0  0  0
 21 14  1  0  0  0  0
 22 15  2  0  0  0  0
 23 15  1  0  0  0  0
 24 23  2  0  0  0  0
 25 22  1  0  0  0  0
 26 25  2  0  0  0  0
 26 24  1  0  0  0  0
M  END
> <CdId>
3267

> <Mol Weight>
368.449

> <Formula>
C20H20N2O3S

> <Click_ID>
CLK043C04 __ __ 

$$$$
