CLK026_H05
 OpenBabel03181413202D

 21 22  0  0  0  0  0  0  0  0999 V2000
    3.1221   -0.6025    0.0000 N    0  0  0  0  0  0  0  0  0  0  0  0
    1.8212   -0.7805    0.0000 C    0  0  0  0  0  0  0  0  0  0  0  0
    2.7866    0.1335    0.0000 C    0  0  0  0  0  0  0  0  0  0  0  0
    2.5332   -1.1673    0.0000 C    0  0  0  0  0  0  0  0  0  0  0  0
    1.9684    0.0240    0.0000 N    0  0  0  0  0  0  0  0  0  0  0  0
    1.1126   -1.2050    0.0000 C    0  0  0  0  0  0  0  0  0  0  0  0
    0.3868   -0.8045    0.0000 C    0  0  0  0  0  0  0  0  0  0  0  0
   -0.3355    0.4245    0.0000 C    0  0  0  0  0  0  0  0  0  0  0  0
    0.3732    0.0205    0.0000 C    0  0  0  0  0  0  0  0  0  0  0  0
   -1.0510    0.0137    0.0000 C    0  0  0  0  0  0  0  0  0  0  0  0
   -0.3286   -1.2256    0.0000 C    0  0  0  0  0  0  0  0  0  0  0  0
   -2.4853    1.6603    0.0000 C    0  0  0  0  0  0  0  0  0  0  0  0
   -1.0373   -0.8181    0.0000 C    0  0  0  0  0  0  0  0  0  0  0  0
   -3.2008    2.0677    0.0000 C    0  0  0  0  0  0  0  0  0  0  0  0
    3.1974    0.8490    0.0000 O    0  0  0  0  0  0  0  0  0  0  0  0
    2.6359   -1.9889    0.0000 O    0  0  0  0  0  0  0  0  0  0  0  0
    1.0749    0.4313    0.0000 Br   0  0  0  0  0  0  0  0  0  0  0  0
   -1.7664    0.4245    0.0000 O    0  0  0  0  0  0  0  0  0  0  0  0
   -1.7288   -1.2529    0.0000 O    0  0  0  0  0  0  0  0  0  0  0  0
   -1.7733    1.2564    0.0000 C    0  0  0  0  0  0  0  0  0  0  0  0
   -1.7116   -2.0643    0.0000 C    0  0  0  0  0  0  0  0  0  0  0  0
  2  4  1  0  0  0  0
  3  1  1  0  0  0  0
  4  1  1  0  0  0  0
  5  3  1  0  0  0  0
  5  2  1  0  0  0  0
  6  2  2  0  0  0  0
  7  6  1  0  0  0  0
  8  9  2  0  0  0  0
  8 10  1  0  0  0  0
  9  7  1  0  0  0  0
 10 13  2  0  0  0  0
 11  7  2  0  0  0  0
 12 20  1  0  0  0  0
 13 11  1  0  0  0  0
 14 12  3  0  0  0  0
 15  3  2  0  0  0  0
 16  4  2  0  0  0  0
 17  9  1  0  0  0  0
 18 10  1  0  0  0  0
 19 13  1  0  0  0  0
 20 18  1  0  0  0  0
 21 19  1  0  0  0  0
M  END
> <CdId>
2010

> <Mol Weight>
351.152

> <Formula>
C14H11BrN2O4

> <Click_ID>
CLK026_H05 __ __ 

$$$$
