CLK044H11
 OpenBabel03181413202D

 28 29  0  0  0  0  0  0  0  0999 V2000
   -0.0250   -0.9572    0.0000 C   0  0  0  0  0  0  0  0  0  0  0  0
   -0.0250   -2.2891    0.0000 C   0  0  0  0  0  0  0  0  0  0  0  0
   -0.5077   -1.6231    0.0000 C   0  0  0  0  0  0  0  0  0  0  0  0
    0.7574   -1.2111    0.0000 N   0  0  0  0  0  0  0  0  0  0  0  0
    0.7574   -2.0352    0.0000 C   0  0  0  0  0  0  0  0  0  0  0  0
    0.2705    0.4370    0.0000 C   0  0  0  0  0  0  0  0  0  0  0  0
   -0.2789   -0.1748    0.0000 C   0  0  0  0  0  0  0  0  0  0  0  0
    0.0167    1.2236    0.0000 C   0  0  0  0  0  0  0  0  0  0  0  0
   -0.2789   -3.0757    0.0000 C   0  0  0  0  0  0  0  0  0  0  0  0
    1.0780    0.2664    0.0000 C   0  0  0  0  0  0  0  0  0  0  0  0
    1.8853    0.0957    0.0000 N   0  0  0  0  0  0  0  0  0  0  0  0
    0.5701    1.8354    0.0000 C   0  0  0  0  0  0  0  0  0  0  0  0
   -1.5524    3.7457    0.0000 C   0  0  0  0  0  0  0  0  0  0  0  0
   -2.3598    3.9163    0.0000 C   0  0  0  0  0  0  0  0  0  0  0  0
   -1.0863   -0.0042    0.0000 O   0  0  0  0  0  0  0  0  0  0  0  0
    0.2705   -3.6875    0.0000 O   0  0  0  0  0  0  0  0  0  0  0  0
    0.3163    2.6178    0.0000 C   0  0  0  0  0  0  0  0  0  0  0  0
   -1.3318   -1.6231    0.0000 C   0  0  0  0  0  0  0  0  0  0  0  0
   -1.0863   -3.2463    0.0000 O   0  0  0  0  0  0  0  0  0  0  0  0
    1.4276   -2.5221    0.0000 C   0  0  0  0  0  0  0  0  0  0  0  0
   -0.4911    2.7885    0.0000 O   0  0  0  0  0  0  0  0  0  0  0  0
   -0.7449    3.5751    0.0000 C   0  0  0  0  0  0  0  0  0  0  0  0
    1.3734    1.6648    0.0000 C   0  0  0  0  0  0  0  0  0  0  0  0
    0.8657    3.2296    0.0000 C   0  0  0  0  0  0  0  0  0  0  0  0
   -1.3402   -4.0287    0.0000 C   0  0  0  0  0  0  0  0  0  0  0  0
   -2.1475   -4.1994    0.0000 C   0  0  0  0  0  0  0  0  0  0  0  0
    1.9270    2.2766    0.0000 C   0  0  0  0  0  0  0  0  0  0  0  0
    1.6731    3.0590    0.0000 C   0  0  0  0  0  0  0  0  0  0  0  0
  2  3  1  0  0  0  0
  3  1  2  0  0  0  0
  4  1  1  0  0  0  0
  5  4  1  0  0  0  0
  5  2  2  0  0  0  0
  6  7  1  0  0  0  0
  7  1  1  0  0  0  0
  8  6  2  0  0  0  0
  9  2  1  0  0  0  0
 10  6  1  0  0  0  0
 11 10  3  0  0  0  0
 12  8  1  0  0  0  0
 13 22  1  0  0  0  0
 14 13  3  0  0  0  0
 15  7  2  0  0  0  0
 16  9  2  0  0  0  0
 17 12  2  0  0  0  0
 18  3  1  0  0  0  0
 19  9  1  0  0  0  0
 20  5  1  0  0  0  0
 21 17  1  0  0  0  0
 22 21  1  0  0  0  0
 23 12  1  0  0  0  0
 24 17  1  0  0  0  0
 25 19  1  0  0  0  0
 26 25  1  0  0  0  0
 27 23  2  0  0  0  0
 28 24  2  0  0  0  0
 28 27  1  0  0  0  0
M  END
> <CdId>
3408

> <Mol Weight>
376.4052

> <Formula>
C22H20N2O4

> <Click_ID>
CLK044H11 __ __ 

$$$$
