CLK003_F08
 OpenBabel03181413202D

 17 18  0  0  0  0  0  0  0  0999 V2000
    0.6687   -0.4828    0.0000 C   0  0  0  0  0  0  0  0  0  0  0  0
    0.6687    0.3358    0.0000 C   0  0  0  0  0  0  0  0  0  0  0  0
    1.4514   -0.7437    0.0000 N   0  0  0  0  0  0  0  0  0  0  0  0
   -0.1139   -0.7437    0.0000 O   0  0  0  0  0  0  0  0  0  0  0  0
   -0.1139    0.5967    0.0000 C   0  0  0  0  0  0  0  0  0  0  0  0
    1.4514    0.5967    0.0000 C   0  0  0  0  0  0  0  0  0  0  0  0
    1.9252   -0.0810    0.0000 N   0  0  0  0  0  0  0  0  0  0  0  0
    1.7123   -1.5264    0.0000 C   0  0  0  0  0  0  0  0  0  0  0  0
   -0.5967   -0.0810    0.0000 C   0  0  3  0  0  0  0  0  0  0  0  0
    1.7123    1.3974    0.0000 C   0  0  0  0  0  0  0  0  0  0  0  0
    1.1755   -2.1531    0.0000 N   0  0  0  0  0  0  0  0  0  0  0  0
    2.5339   -1.7003    0.0000 S   0  0  0  0  0  0  0  0  0  0  0  0
   -1.4184   -0.0810    0.0000 C   0  0  0  0  0  0  0  0  0  0  0  0
   -1.8322    0.6297    0.0000 O   0  0  0  0  0  0  0  0  0  0  0  0
   -2.6509    0.6297    0.0000 C   0  0  0  0  0  0  0  0  0  0  0  0
   -3.0707    1.3434    0.0000 C   0  0  0  0  0  0  0  0  0  0  0  0
   -3.4845    2.0751    0.0000 C   0  0  0  0  0  0  0  0  0  0  0  0
  1  2  2  0  0  0  0
  1  3  1  0  0  0  0
  1  4  1  0  0  0  0
  2  5  1  0  0  0  0
  2  6  1  0  0  0  0
  3  7  1  0  0  0  0
  3  8  1  0  0  0  0
  4  9  1  0  0  0  0
  5  9  1  0  0  0  0
  6 10  1  0  0  0  0
  6  7  2  0  0  0  0
  8 11  1  0  0  0  0
  8 12  2  0  0  0  0
  9 13  1  0  0  0  0
 13 14  1  0  0  0  0
 14 15  1  0  0  0  0
 15 16  1  0  0  0  0
 16 17  3  0  0  0  0
M  END
> <CdId>
217

> <Mol Weight>
251.305

> <Formula>
C11H13N3O2S

> <Click_ID>
CLK003_F08 __ __ 

$$$$
