CLK051F03
 OpenBabel03181413202D

 18 19  0  0  0  0  0  0  0  0999 V2000
   -0.5917    0.2125    0.0000 C   0  0  0  0  0  0  0  0  0  0  0  0
   -1.0750    0.8792    0.0000 N   0  0  0  0  0  0  0  0  0  0  0  0
    0.1917    0.4667    0.0000 C   0  0  0  0  0  0  0  0  0  0  0  0
    2.3375    0.0542    0.0000 N   0  3  0  0  0  0  0  0  0  0  0  0
   -0.5917    1.5458    0.0000 N   0  0  0  0  0  0  0  0  0  0  0  0
   -0.8458   -0.5750    0.0000 C   0  0  0  0  0  0  0  0  0  0  0  0
    0.9083    0.0542    0.0000 C   0  0  0  0  0  0  0  0  0  0  0  0
    1.6208    0.4667    0.0000 C   0  0  0  0  0  0  0  0  0  0  0  0
    0.1917    1.2917    0.0000 C   0  0  0  0  0  0  0  0  0  0  0  0
   -2.7167   -1.7000    0.0000 C   0  0  0  0  0  0  0  0  0  0  0  0
   -3.5208   -1.8750    0.0000 C   0  0  0  0  0  0  0  0  0  0  0  0
    2.3375   -0.7708    0.0000 O   0  5  0  0  0  0  0  0  0  0  0  0
    3.0500    0.4667    0.0000 O   0  0  0  0  0  0  0  0  0  0  0  0
   -0.2958   -1.1875    0.0000 O   0  0  0  0  0  0  0  0  0  0  0  0
    1.6208    1.2917    0.0000 C   0  0  0  0  0  0  0  0  0  0  0  0
    0.9083    1.7042    0.0000 C   0  0  0  0  0  0  0  0  0  0  0  0
   -1.6542   -0.7458    0.0000 N   0  0  0  0  0  0  0  0  0  0  0  0
   -1.9083   -1.5292    0.0000 C   0  0  0  0  0  0  0  0  0  0  0  0
  2  1  2  0  0  0  0
  3  1  1  0  0  0  0
  4  8  1  0  0  0  0
  5  2  1  0  0  0  0
  5  9  1  0  0  0  0
  6  1  1  0  0  0  0
  7  3  1  0  0  0  0
  8  7  2  0  0  0  0
  9  3  2  0  0  0  0
 10 18  1  0  0  0  0
 11 10  3  0  0  0  0
 12  4  1  0  0  0  0
 13  4  2  0  0  0  0
 14  6  2  0  0  0  0
 15  8  1  0  0  0  0
 16  9  1  0  0  0  0
 16 15  2  0  0  0  0
 17  6  1  0  0  0  0
 18 17  1  0  0  0  0
M  END
> <CdId>
3902

> <Mol Weight>
244.2062

> <Formula>
C11H8N4O3

> <Click_ID>
CLK051F03 __ __ 

$$$$
