CLK041B05
 OpenBabel03181413202D

 23 24  0  0  0  0  0  0  0  0999 V2000
    0.2000    2.5375    0.0000 N   0  0  0  0  0  0  0  0  0  0  0  0
   -0.2833    3.2042    0.0000 C   0  0  0  0  0  0  0  0  0  0  0  0
   -0.2667   -1.2167    0.0000 C   0  0  0  0  0  0  0  0  0  0  0  0
    0.5833   -3.2250    0.0000 C   0  0  0  0  0  0  0  0  0  0  0  0
    1.1375   -3.8375    0.0000 C   0  0  0  0  0  0  0  0  0  0  0  0
   -0.0542    1.7542    0.0000 C   0  0  0  0  0  0  0  0  0  0  0  0
   -0.5208   -2.0000    0.0000 N   0  0  0  0  0  0  0  0  0  0  0  0
    0.0333   -2.6125    0.0000 C   0  0  0  0  0  0  0  0  0  0  0  0
   -1.1083    3.2042    0.0000 O   0  0  0  0  0  0  0  0  0  0  0  0
    0.5417   -1.0417    0.0000 O   0  0  0  0  0  0  0  0  0  0  0  0
   -0.8583    1.5792    0.0000 C   0  0  0  0  0  0  0  0  0  0  0  0
    0.5000    1.1375    0.0000 C   0  0  0  0  0  0  0  0  0  0  0  0
   -0.8167   -0.6000    0.0000 C   0  0  0  0  0  0  0  0  0  0  0  0
   -0.5625    0.1833    0.0000 C   0  0  0  0  0  0  0  0  0  0  0  0
    0.9875    2.7917    0.0000 C   0  0  0  0  0  0  0  0  0  0  0  0
    0.2458    0.3542    0.0000 C   0  0  0  0  0  0  0  0  0  0  0  0
   -1.1167    0.7958    0.0000 C   0  0  0  0  0  0  0  0  0  0  0  0
    0.2000    3.8708    0.0000 C   0  0  0  0  0  0  0  0  0  0  0  0
    0.9875    3.6167    0.0000 C   0  0  0  0  0  0  0  0  0  0  0  0
    0.6458   -2.0583    0.0000 C   0  0  0  0  0  0  0  0  0  0  0  0
   -0.5833   -3.1625    0.0000 C   0  0  0  0  0  0  0  0  0  0  0  0
    1.4292   -2.3167    0.0000 C   0  0  0  0  0  0  0  0  0  0  0  0
   -1.3667   -2.9083    0.0000 C   0  0  0  0  0  0  0  0  0  0  0  0
  2  1  1  0  0  0  0
  3 13  1  0  0  0  0
  4  8  1  0  0  0  0
  5  4  3  0  0  0  0
  6  1  1  0  0  0  0
  7  3  1  0  0  0  0
  8  7  1  0  0  0  0
  9  2  2  0  0  0  0
 10  3  2  0  0  0  0
 11  6  2  0  0  0  0
 12  6  1  0  0  0  0
 13 14  1  0  0  0  0
 14 17  2  0  0  0  0
 15  1  1  0  0  0  0
 16 12  2  0  0  0  0
 16 14  1  0  0  0  0
 17 11  1  0  0  0  0
 18  2  1  0  0  0  0
 18 19  1  0  0  0  0
 19 15  1  0  0  0  0
 20  8  1  0  0  0  0
 21  8  1  0  0  0  0
 22 20  1  0  0  0  0
 23 21  1  0  0  0  0
M  END
> <CdId>
3114

> <Mol Weight>
312.4061

> <Formula>
C19H24N2O2

> <Click_ID>
CLK041B05 __ __ 

$$$$
