CLK020_A11
 OpenBabel03181413202D

 32 34  0  0  0  0  0  0  0  0999 V2000
    1.1526   -0.9154    0.0000 N   0  0  0  0  0  0  0  0  0  0  0  0
    1.4105   -1.7018    0.0000 C   0  0  0  0  0  0  0  0  0  0  0  0
    1.8225   -0.4286    0.0000 C   0  0  0  0  0  0  0  0  0  0  0  0
    2.4882   -0.9154    0.0000 C   0  0  0  0  0  0  0  0  0  0  0  0
    2.2344   -1.7018    0.0000 N   0  0  0  0  0  0  0  0  0  0  0  0
    0.3745   -0.6616    0.0000 C   0  0  0  0  0  0  0  0  0  0  0  0
    3.2746   -0.6616    0.0000 C   0  0  0  0  0  0  0  0  0  0  0  0
    0.1997    0.1456    0.0000 C   0  0  0  0  0  0  0  0  0  0  0  0
    3.4452    0.1456    0.0000 C   0  0  0  0  0  0  0  0  0  0  0  0
    3.0083    1.5104    0.0000 C   0  0  0  0  0  0  0  0  0  0  0  0
    3.7947    1.7600    0.0000 C   0  0  0  0  0  0  0  0  0  0  0  0
    4.4064    1.2066    0.0000 C   0  0  0  0  0  0  0  0  0  0  0  0
    4.9556    3.6158    0.0000 C   0  0  0  0  0  0  0  0  0  0  0  0
    5.1304    4.4230    0.0000 C   0  0  0  0  0  0  0  0  0  0  0  0
    0.9237   -2.3634    0.0000 O   0  0  0  0  0  0  0  0  0  0  0  0
    1.8142    0.3952    0.0000 O   0  0  0  0  0  0  0  0  0  0  0  0
    2.8336    0.7073    0.0000 C   0  0  0  0  0  0  0  0  0  0  0  0
    4.2316    0.3952    0.0000 C   0  0  0  0  0  0  0  0  0  0  0  0
   -0.5825    0.3952    0.0000 C   0  0  0  0  0  0  0  0  0  0  0  0
    5.8044    0.9112    0.0000 C   0  0  0  0  0  0  0  0  0  0  0  0
    6.5825    1.1692    0.0000 C   0  0  0  0  0  0  0  0  0  0  0  0
    2.4091    2.0679    0.0000 O   0  0  0  0  0  0  0  0  0  0  0  0
   -1.1941   -0.1540    0.0000 F   0  0  0  0  0  0  0  0  0  0  0  0
    3.9737    2.5672    0.0000 O   0  0  0  0  0  0  0  0  0  0  0  0
    5.1845    1.4688    0.0000 C   0  0  0  0  0  0  0  0  0  0  0  0
    4.7726    2.8169    0.0000 C   0  0  0  0  0  0  0  0  0  0  0  0
    0.8156    0.6948    0.0000 C   0  0  0  0  0  0  0  0  0  0  0  0
   -0.7572    1.1983    0.0000 C   0  0  0  0  0  0  0  0  0  0  0  0
    1.6269    1.8183    0.0000 C   0  0  0  0  0  0  0  0  0  0  0  0
    0.6408    1.4979    0.0000 C   0  0  0  0  0  0  0  0  0  0  0  0
    1.0236    2.3717    0.0000 C   0  0  0  0  0  0  0  0  0  0  0  0
   -0.1456    1.7559    0.0000 C   0  0  0  0  0  0  0  0  0  0  0  0
  2  1  1  0  0  0  0
  3  1  1  0  0  0  0
  4  3  1  0  0  0  0
  4  5  1  0  0  0  0
  5  2  1  0  0  0  0
  6  1  1  0  0  0  0
  7  4  2  0  0  0  0
  8  6  1  0  0  0  0
  9  7  1  0  0  0  0
 10 17  1  0  0  0  0
 11 12  1  0  0  0  0
 11 10  2  0  0  0  0
 12 18  2  0  0  0  0
 13 26  1  0  0  0  0
 14 13  3  0  0  0  0
 15  2  2  0  0  0  0
 16  3  2  0  0  0  0
 17  9  2  0  0  0  0
 18  9  1  0  0  0  0
 19  8  1  0  0  0  0
 20 25  1  0  0  0  0
 21 20  2  0  0  0  0
 22 10  1  0  0  0  0
 23 19  1  0  0  0  0
 24 11  1  0  0  0  0
 25 12  1  0  0  0  0
 26 24  1  0  0  0  0
 27  8  2  0  0  0  0
 28 19  2  0  0  0  0
 29 22  1  0  0  0  0
 30 27  1  0  0  0  0
 31 29  1  0  0  0  0
 32 30  2  0  0  0  0
 32 28  1  0  0  0  0
M  END
> <CdId>
1486

> <Mol Weight>
434.4595

> <Formula>
C25H23FN2O4

> <Click_ID>
CLK020_A11 __ __ 

$$$$
