CLK013_F04
 OpenBabel03181413202D

 28 30  0  0  0  0  0  0  0  0999 V2000
    4.7321   -2.6804    0.0000 N    0  0  0  0  0  0  0  0  0  0  0  0
    4.4342   -3.4497    0.0000 C    0  0  0  0  0  0  0  0  0  0  0  0
    4.0992   -2.1592    0.0000 C    0  0  0  0  0  0  0  0  0  0  0  0
    3.4043   -2.5977    0.0000 C    0  0  0  0  0  0  0  0  0  0  0  0
    3.6152   -3.4001    0.0000 S    0  0  0  0  0  0  0  0  0  0  0  0
    5.5345   -2.4694    0.0000 C    0  0  0  0  0  0  0  0  0  0  0  0
    2.6349   -2.2999    0.0000 C    0  0  0  0  0  0  0  0  0  0  0  0
    0.6991   -3.8634    0.0000 C    0  0  0  0  0  0  0  0  0  0  0  0
    0.5750   -3.0444    0.0000 C    0  0  0  0  0  0  0  0  0  0  0  0
    1.4767   -4.1571    0.0000 C    0  0  0  0  0  0  0  0  0  0  0  0
    1.9896   -2.8211    0.0000 C    0  0  0  0  0  0  0  0  0  0  0  0
    6.1053   -3.0568    0.0000 C    0  0  0  0  0  0  0  0  0  0  0  0
   -0.4467   -5.7206    0.0000 C    0  0  0  0  0  0  0  0  0  0  0  0
   -1.0878   -6.2336    0.0000 C    0  0  0  0  0  0  0  0  0  0  0  0
    4.8810   -4.1364    0.0000 O    0  0  0  0  0  0  0  0  0  0  0  0
    1.2203   -2.5232    0.0000 C    0  0  0  0  0  0  0  0  0  0  0  0
    4.1447   -1.3320    0.0000 O    0  0  0  0  0  0  0  0  0  0  0  0
    2.1137   -3.6401    0.0000 C    0  0  0  0  0  0  0  0  0  0  0  0
   -0.1944   -2.7466    0.0000 Cl   0  0  0  0  0  0  0  0  0  0  0  0
    6.9037   -2.8459    0.0000 C    0  0  0  0  0  0  0  0  0  0  0  0
    0.0662   -4.3846    0.0000 O    0  0  0  0  0  0  0  0  0  0  0  0
    1.6050   -4.9678    0.0000 O    0  0  0  0  0  0  0  0  0  0  0  0
    5.7454   -1.6794    0.0000 C    0  0  0  0  0  0  0  0  0  0  0  0
    7.4703   -3.4373    0.0000 Cl   0  0  0  0  0  0  0  0  0  0  0  0
    0.1903   -5.1994    0.0000 C    0  0  0  0  0  0  0  0  0  0  0  0
    6.5438   -1.4685    0.0000 C    0  0  0  0  0  0  0  0  0  0  0  0
    7.1229   -2.0517    0.0000 C    0  0  0  0  0  0  0  0  0  0  0  0
    2.3743   -5.2657    0.0000 C    0  0  0  0  0  0  0  0  0  0  0  0
  2  1  1  0  0  0  0
  3  1  1  0  0  0  0
  4  3  1  0  0  0  0
  5  2  1  0  0  0  0
  5  4  1  0  0  0  0
  6  1  1  0  0  0  0
  7  4  2  0  0  0  0
  8 10  1  0  0  0  0
  8  9  2  0  0  0  0
  9 16  1  0  0  0  0
 10 18  2  0  0  0  0
 11  7  1  0  0  0  0
 12  6  2  0  0  0  0
 13 25  1  0  0  0  0
 14 13  3  0  0  0  0
 15  2  2  0  0  0  0
 16 11  2  0  0  0  0
 17  3  2  0  0  0  0
 18 11  1  0  0  0  0
 19  9  1  0  0  0  0
 20 12  1  0  0  0  0
 21  8  1  0  0  0  0
 22 10  1  0  0  0  0
 23  6  1  0  0  0  0
 24 20  1  0  0  0  0
 25 21  1  0  0  0  0
 26 23  2  0  0  0  0
 27 26  1  0  0  0  0
 27 20  2  0  0  0  0
 28 22  1  0  0  0  0
M  END
> <CdId>
969

> <Mol Weight>
434.293

> <Formula>
C20H13Cl2NO4S

> <Click_ID>
CLK013_F04 __ __ 

$$$$
