CLK037G11
 OpenBabel03181413202D

 28 30  0  0  0  0  0  0  0  0999 V2000
   -0.6742    1.6398    0.0000 N   0  0  0  0  0  0  0  0  0  0  0  0
    0.1124    1.3859    0.0000 C   0  0  0  0  0  0  0  0  0  0  0  0
   -1.1570    0.9739    0.0000 C   0  0  0  0  0  0  0  0  0  0  0  0
   -0.6742    0.3079    0.0000 C   0  0  0  0  0  0  0  0  0  0  0  0
    0.1124    0.5619    0.0000 S   0  0  0  0  0  0  0  0  0  0  0  0
   -0.9281    2.4264    0.0000 C   0  0  0  0  0  0  0  0  0  0  0  0
   -0.9281   -0.4745    0.0000 C   0  0  0  0  0  0  0  0  0  0  0  0
    0.7783    1.8729    0.0000 S   0  0  0  0  0  0  0  0  0  0  0  0
    1.5732   -4.3201    0.0000 C   0  0  0  0  0  0  0  0  0  0  0  0
    2.1268   -4.9319    0.0000 C   0  0  0  0  0  0  0  0  0  0  0  0
    0.9822   -1.5275    0.0000 C   0  0  0  0  0  0  0  0  0  0  0  0
   -1.9810    0.9739    0.0000 O   0  0  0  0  0  0  0  0  0  0  0  0
   -0.3746   -1.0863    0.0000 C   0  0  0  0  0  0  0  0  0  0  0  0
   -1.7355    2.5970    0.0000 C   0  0  0  0  0  0  0  0  0  0  0  0
    0.4287   -0.9157    0.0000 C   0  0  0  0  0  0  0  0  0  0  0  0
    0.7284   -2.3141    0.0000 C   0  0  0  0  0  0  0  0  0  0  0  0
   -0.0791   -2.4847    0.0000 C   0  0  0  0  0  0  0  0  0  0  0  0
   -0.6326   -1.8729    0.0000 C   0  0  0  0  0  0  0  0  0  0  0  0
   -2.2849    1.9852    0.0000 F   0  0  0  0  0  0  0  0  0  0  0  0
    1.7855   -1.3567    0.0000 O   0  0  0  0  0  0  0  0  0  0  0  0
    1.2777   -2.9259    0.0000 O   0  0  0  0  0  0  0  0  0  0  0  0
    1.0238   -3.7083    0.0000 C   0  0  0  0  0  0  0  0  0  0  0  0
   -0.3746    3.0382    0.0000 C   0  0  0  0  0  0  0  0  0  0  0  0
   -1.9894    3.3794    0.0000 C   0  0  0  0  0  0  0  0  0  0  0  0
    2.0435   -0.5743    0.0000 C   0  0  0  0  0  0  0  0  0  0  0  0
   -0.6326    3.8206    0.0000 C   0  0  0  0  0  0  0  0  0  0  0  0
    2.8467   -0.4037    0.0000 C   0  0  0  0  0  0  0  0  0  0  0  0
   -1.4359    3.9912    0.0000 C   0  0  0  0  0  0  0  0  0  0  0  0
  2  1  1  0  0  0  0
  3  1  1  0  0  0  0
  4  3  1  0  0  0  0
  5  2  1  0  0  0  0
  5  4  1  0  0  0  0
  6  1  1  0  0  0  0
  7  4  2  0  0  0  0
  8  2  2  0  0  0  0
  9 22  1  0  0  0  0
 10  9  3  0  0  0  0
 11 15  1  0  0  0  0
 12  3  2  0  0  0  0
 13  7  1  0  0  0  0
 14  6  2  0  0  0  0
 15 13  2  0  0  0  0
 16 17  1  0  0  0  0
 16 11  2  0  0  0  0
 17 18  2  0  0  0  0
 18 13  1  0  0  0  0
 19 14  1  0  0  0  0
 20 11  1  0  0  0  0
 21 16  1  0  0  0  0
 22 21  1  0  0  0  0
 23  6  1  0  0  0  0
 24 14  1  0  0  0  0
 25 20  1  0  0  0  0
 26 23  2  0  0  0  0
 27 25  1  0  0  0  0
 28 24  2  0  0  0  0
 28 26  1  0  0  0  0
M  END
> <CdId>
2847

> <Mol Weight>
413.485

> <Formula>
C21H16FNO3S2

> <Click_ID>
CLK037G11 __ __ 

$$$$
