CLK010_A08
 OpenBabel03181413202D

 30 32  0  0  0  0  0  0  0  0999 V2000
    2.8497   -0.6749    0.0000 N   0  0  0  0  0  0  0  0  0  0  0  0
    3.5538   -1.9123    0.0000 C   0  0  0  0  0  0  0  0  0  0  0  0
    2.8414   -1.4998    0.0000 C   0  0  0  0  0  0  0  0  0  0  0  0
    3.5621   -0.2625    0.0000 C   0  0  0  0  0  0  0  0  0  0  0  0
    4.2745   -0.6791    0.0000 N   0  0  0  0  0  0  0  0  0  0  0  0
    4.2662   -1.5040    0.0000 C   0  0  0  0  0  0  0  0  0  0  0  0
    3.5496   -2.7372    0.0000 C   0  0  0  0  0  0  0  0  0  0  0  0
    5.6868   -3.9912    0.0000 C   0  0  0  0  0  0  0  0  0  0  0  0
    4.9661   -4.3912    0.0000 C   0  0  0  0  0  0  0  0  0  0  0  0
    5.6993   -3.1663    0.0000 C   0  0  0  0  0  0  0  0  0  0  0  0
    2.1290   -0.2625    0.0000 C   0  0  0  0  0  0  0  0  0  0  0  0
    4.2620   -3.1538    0.0000 C   0  0  0  0  0  0  0  0  0  0  0  0
    7.0909   -5.6785    0.0000 C   0  0  0  0  0  0  0  0  0  0  0  0
    3.5621    0.5624    0.0000 O   0  0  0  0  0  0  0  0  0  0  0  0
    7.8033   -6.0993    0.0000 C   0  0  0  0  0  0  0  0  0  0  0  0
    2.1290   -1.9040    0.0000 O   0  0  0  0  0  0  0  0  0  0  0  0
    4.2537   -3.9787    0.0000 C   0  0  0  0  0  0  0  0  0  0  0  0
    4.9869   -2.7414    0.0000 C   0  0  0  0  0  0  0  0  0  0  0  0
    4.9786   -1.9165    0.0000 O   0  0  0  0  0  0  0  0  0  0  0  0
    1.4123   -0.6749    0.0000 C   0  0  0  0  0  0  0  0  0  0  0  0
    2.1290    0.5707    0.0000 C   0  0  0  0  0  0  0  0  0  0  0  0
    4.9536   -5.2286    0.0000 I   0  0  0  0  0  0  0  0  0  0  0  0
    6.3910   -4.4162    0.0000 O   0  0  0  0  0  0  0  0  0  0  0  0
    6.4160   -2.7664    0.0000 O   0  0  0  0  0  0  0  0  0  0  0  0
    1.4123    0.9832    0.0000 C   0  0  0  0  0  0  0  0  0  0  0  0
    0.6999   -0.2625    0.0000 C   0  0  0  0  0  0  0  0  0  0  0  0
    0.6999    0.5707    0.0000 C   0  0  0  0  0  0  0  0  0  0  0  0
    6.3785   -5.2494    0.0000 C   0  0  0  0  0  0  0  0  0  0  0  0
   -0.0208    0.9832    0.0000 C   0  0  0  0  0  0  0  0  0  0  0  0
    6.4160   -1.9540    0.0000 C   0  0  0  0  0  0  0  0  0  0  0  0
  2  3  1  0  0  0  0
  2  6  1  0  0  0  0
  3  1  1  0  0  0  0
  4  1  1  0  0  0  0
  5  4  1  0  0  0  0
  6  5  1  0  0  0  0
  7  2  2  0  0  0  0
  8 10  2  0  0  0  0
  9 17  2  0  0  0  0
  9  8  1  0  0  0  0
 10 18  1  0  0  0  0
 11  1  1  0  0  0  0
 12  7  1  0  0  0  0
 13 28  1  0  0  0  0
 14  4  2  0  0  0  0
 15 13  3  0  0  0  0
 16  3  2  0  0  0  0
 17 12  1  0  0  0  0
 18 12  2  0  0  0  0
 19  6  2  0  0  0  0
 20 11  1  0  0  0  0
 21 11  2  0  0  0  0
 22  9  1  0  0  0  0
 23  8  1  0  0  0  0
 24 10  1  0  0  0  0
 25 21  1  0  0  0  0
 26 20  2  0  0  0  0
 27 25  2  0  0  0  0
 27 26  1  0  0  0  0
 28 23  1  0  0  0  0
 29 27  1  0  0  0  0
 30 24  1  0  0  0  0
M  END
> <CdId>
683

> <Mol Weight>
516.2853

> <Formula>
C22H17IN2O5

> <Click_ID>
CLK010_A08 __ __ 

$$$$
