CLK018_H03
 OpenBabel03181413202D

 27 28  0  0  0  0  0  0  0  0999 V2000
    5.1154   -2.7774    0.0000 N    0  0  0  0  0  0  0  0  0  0  0  0
    5.3724   -3.5609    0.0000 C    0  0  0  0  0  0  0  0  0  0  0  0
    5.7828   -2.2924    0.0000 C    0  0  0  0  0  0  0  0  0  0  0  0
    6.4461   -2.7774    0.0000 C    0  0  0  0  0  0  0  0  0  0  0  0
    6.1932   -3.5609    0.0000 S    0  0  0  0  0  0  0  0  0  0  0  0
    7.2379   -2.5245    0.0000 C    0  0  0  0  0  0  0  0  0  0  0  0
    4.3320   -2.5245    0.0000 C    0  0  3  0  0  0  0  0  0  0  0  0
    7.4120   -1.7079    0.0000 C    0  0  0  0  0  0  0  0  0  0  0  0
    8.3695   -0.6591    0.0000 C    0  0  0  0  0  0  0  0  0  0  0  0
    4.1579   -1.7204    0.0000 C    0  0  0  0  0  0  0  0  0  0  0  0
    8.1954   -1.4716    0.0000 C    0  0  0  0  0  0  0  0  0  0  0  0
    7.7644   -0.1037    0.0000 C    0  0  0  0  0  0  0  0  0  0  0  0
    6.7943   -1.1566    0.0000 C    0  0  0  0  0  0  0  0  0  0  0  0
    8.9292    1.7618    0.0000 C    0  0  0  0  0  0  0  0  0  0  0  0
    6.9767   -0.3400    0.0000 C    0  0  0  0  0  0  0  0  0  0  0  0
    9.1033    2.5701    0.0000 C    0  0  0  0  0  0  0  0  0  0  0  0
    4.8792   -4.2325    0.0000 O    0  0  0  0  0  0  0  0  0  0  0  0
    5.7746   -1.4675    0.0000 O    0  0  0  0  0  0  0  0  0  0  0  0
    3.3744   -1.4716    0.0000 O    0  0  0  0  0  0  0  0  0  0  0  0
    8.8048   -2.0188    0.0000 Br   0  0  0  0  0  0  0  0  0  0  0  0
    4.7672   -1.1732    0.0000 O    0  0  0  0  0  0  0  0  0  0  0  0
    7.9509    0.7089    0.0000 O    0  0  0  0  0  0  0  0  0  0  0  0
    6.3715    0.2072    0.0000 O    0  0  0  0  0  0  0  0  0  0  0  0
    8.7426    0.9534    0.0000 C    0  0  0  0  0  0  0  0  0  0  0  0
    3.7226   -3.0759    0.0000 C    0  0  0  0  0  0  0  0  0  0  0  0
    4.5931   -0.3648    0.0000 C    0  0  0  0  0  0  0  0  0  0  0  0
    5.5963   -0.0291    0.0000 C    0  0  0  0  0  0  0  0  0  0  0  0
  2  1  1  0  0  0  0
  3  1  1  0  0  0  0
  4  3  1  0  0  0  0
  4  5  1  0  0  0  0
  5  2  1  0  0  0  0
  6  4  2  0  0  0  0
  7  1  1  0  0  0  0
  8  6  1  0  0  0  0
  9 11  2  0  0  0  0
 10  7  1  0  0  0  0
 11  8  1  0  0  0  0
 12 15  2  0  0  0  0
 12  9  1  0  0  0  0
 13  8  2  0  0  0  0
 14 24  1  0  0  0  0
 15 13  1  0  0  0  0
 16 14  3  0  0  0  0
 17  2  2  0  0  0  0
 18  3  2  0  0  0  0
 19 10  2  0  0  0  0
 20 11  1  0  0  0  0
 21 10  1  0  0  0  0
 22 12  1  0  0  0  0
 23 15  1  0  0  0  0
 24 22  1  0  0  0  0
 25  7  1  0  0  0  0
 26 21  1  0  0  0  0
 27 23  1  0  0  0  0
M  END
> <CdId>
1388

> <Mol Weight>
454.292

> <Formula>
C18H16BrNO6S

> <Click_ID>
CLK018_H03 __ __ 

$$$$
