CLK028_C02
 OpenBabel03181413202D

 29 30  0  0  0  0  0  0  0  0999 V2000
   -0.3643    0.8282    0.0000 C    0  0  0  0  0  0  0  0  0  0  0  0
   -1.0757    1.2371    0.0000 C    0  0  0  0  0  0  0  0  0  0  0  0
   -1.7939    0.8282    0.0000 N    0  0  0  0  0  0  0  0  0  0  0  0
    0.3471    1.2371    0.0000 C    0  0  0  0  0  0  0  0  0  0  0  0
    2.5017   -0.0035    0.0000 C    0  0  0  0  0  0  0  0  0  0  0  0
   -2.5052    1.2371    0.0000 C    0  0  0  0  0  0  0  0  0  0  0  0
   -3.2131    0.8282    0.0000 C    0  0  0  0  0  0  0  0  0  0  0  0
   -0.3643   -0.0035    0.0000 C    0  0  0  0  0  0  0  0  0  0  0  0
    2.5017    0.8144    0.0000 C    0  0  0  0  0  0  0  0  0  0  0  0
    1.7904   -0.4124    0.0000 C    0  0  0  0  0  0  0  0  0  0  0  0
    1.0653    0.8282    0.0000 C    0  0  0  0  0  0  0  0  0  0  0  0
   -0.3643   -0.8282    0.0000 N    0  0  0  0  0  0  0  0  0  0  0  0
    3.9279   -1.6495    0.0000 C    0  0  0  0  0  0  0  0  0  0  0  0
    4.6427   -2.0619    0.0000 C    0  0  0  0  0  0  0  0  0  0  0  0
    1.7904    1.2371    0.0000 C    0  0  0  0  0  0  0  0  0  0  0  0
    1.0790   -0.0035    0.0000 C    0  0  0  0  0  0  0  0  0  0  0  0
   -1.0757    2.0654    0.0000 O    0  0  0  0  0  0  0  0  0  0  0  0
   -3.9279    1.2371    0.0000 C    0  0  0  0  0  0  0  0  0  0  0  0
    3.2097    1.2303    0.0000 Br   0  0  0  0  0  0  0  0  0  0  0  0
    3.2097   -0.4124    0.0000 O    0  0  0  0  0  0  0  0  0  0  0  0
    1.7904   -1.2406    0.0000 O    0  0  0  0  0  0  0  0  0  0  0  0
   -4.6461    0.8282    0.0000 Cl   0  0  0  0  0  0  0  0  0  0  0  0
    3.2097   -1.2406    0.0000 C    0  0  0  0  0  0  0  0  0  0  0  0
   -2.5052    2.0654    0.0000 C    0  0  0  0  0  0  0  0  0  0  0  0
   -3.2131    0.0068    0.0000 C    0  0  0  0  0  0  0  0  0  0  0  0
   -3.2131    2.4743    0.0000 C    0  0  0  0  0  0  0  0  0  0  0  0
   -3.9382    2.0654    0.0000 C    0  0  0  0  0  0  0  0  0  0  0  0
    1.0790   -1.6495    0.0000 C    0  0  0  0  0  0  0  0  0  0  0  0
    1.0790   -2.4708    0.0000 C    0  0  0  0  0  0  0  0  0  0  0  0
  2  1  1  0  0  0  0
  3  2  1  0  0  0  0
  4  1  2  0  0  0  0
  5 10  1  0  0  0  0
  5  9  2  0  0  0  0
  6  3  1  0  0  0  0
  7  6  1  0  0  0  0
  8  1  1  0  0  0  0
  9 15  1  0  0  0  0
 10 16  2  0  0  0  0
 11  4  1  0  0  0  0
 12  8  3  0  0  0  0
 13 23  1  0  0  0  0
 14 13  3  0  0  0  0
 15 11  2  0  0  0  0
 16 11  1  0  0  0  0
 17  2  2  0  0  0  0
 18  7  2  0  0  0  0
 19  9  1  0  0  0  0
 20  5  1  0  0  0  0
 21 10  1  0  0  0  0
 22 18  1  0  0  0  0
 23 20  1  0  0  0  0
 24  6  2  0  0  0  0
 25  7  1  0  0  0  0
 26 24  1  0  0  0  0
 27 26  2  0  0  0  0
 27 18  1  0  0  0  0
 28 21  1  0  0  0  0
 29 28  1  0  0  0  0
M  END
> <CdId>
2106

> <Mol Weight>
473.747

> <Formula>
C22H18BrClN2O3

> <Click_ID>
CLK028_C02 __ __ 

$$$$
