CLK010_C06
 OpenBabel03181413202D

 28 30  0  0  0  0  0  0  0  0999 V2000
    2.4969   -0.6764    0.0000 N   0  0  0  0  0  0  0  0  0  0  0  0
    2.4927   -1.5031    0.0000 C   0  0  0  0  0  0  0  0  0  0  0  0
    3.1983   -1.9165    0.0000 C   0  0  0  0  0  0  0  0  0  0  0  0
    3.2108   -0.2630    0.0000 C   0  0  0  0  0  0  0  0  0  0  0  0
    3.9248   -0.6806    0.0000 N   0  0  0  0  0  0  0  0  0  0  0  0
    3.9206   -1.5073    0.0000 C   0  0  0  0  0  0  0  0  0  0  0  0
    1.7787   -0.2630    0.0000 C   0  0  0  0  0  0  0  0  0  0  0  0
    3.1983   -2.7432    0.0000 C   0  0  0  0  0  0  0  0  0  0  0  0
    6.7181   -5.6742    0.0000 C   0  0  0  0  0  0  0  0  0  0  0  0
    3.2108    0.5637    0.0000 O   0  0  0  0  0  0  0  0  0  0  0  0
    7.4279   -6.0918    0.0000 C   0  0  0  0  0  0  0  0  0  0  0  0
    1.7704   -1.9081    0.0000 O   0  0  0  0  0  0  0  0  0  0  0  0
    1.7787    0.5720    0.0000 C   0  0  0  0  0  0  0  0  0  0  0  0
    1.0564   -0.6764    0.0000 C   0  0  0  0  0  0  0  0  0  0  0  0
    4.6346   -1.9207    0.0000 O   0  0  0  0  0  0  0  0  0  0  0  0
    0.3424   -0.2630    0.0000 C   0  0  0  0  0  0  0  0  0  0  0  0
    1.0564    0.9853    0.0000 C   0  0  0  0  0  0  0  0  0  0  0  0
    3.9081   -3.1607    0.0000 C   0  0  0  0  0  0  0  0  0  0  0  0
    0.3424    0.5720    0.0000 C   0  0  0  0  0  0  0  0  0  0  0  0
    5.3235   -3.9958    0.0000 C   0  0  0  0  0  0  0  0  0  0  0  0
    3.8998   -3.9749    0.0000 C   0  0  0  0  0  0  0  0  0  0  0  0
    4.6263   -2.7557    0.0000 C   0  0  0  0  0  0  0  0  0  0  0  0
    5.3360   -3.1733    0.0000 C   0  0  0  0  0  0  0  0  0  0  0  0
    4.6137   -4.4008    0.0000 C   0  0  0  0  0  0  0  0  0  0  0  0
    6.0166   -5.2484    0.0000 C   0  0  0  0  0  0  0  0  0  0  0  0
    6.0292   -4.4259    0.0000 O   0  0  0  0  0  0  0  0  0  0  0  0
    1.0564    1.8120    0.0000 C   0  0  0  0  0  0  0  0  0  0  0  0
   -0.3758   -0.6764    0.0000 C   0  0  0  0  0  0  0  0  0  0  0  0
  2  1  1  0  0  0  0
  3  2  1  0  0  0  0
  3  6  1  0  0  0  0
  4  1  1  0  0  0  0
  5  4  1  0  0  0  0
  6  5  1  0  0  0  0
  7  1  1  0  0  0  0
  8  3  2  0  0  0  0
  9 25  1  0  0  0  0
 10  4  2  0  0  0  0
 11  9  3  0  0  0  0
 12  2  2  0  0  0  0
 13  7  2  0  0  0  0
 14  7  1  0  0  0  0
 15  6  2  0  0  0  0
 16 14  2  0  0  0  0
 17 13  1  0  0  0  0
 17 19  2  0  0  0  0
 18  8  1  0  0  0  0
 19 16  1  0  0  0  0
 20 23  2  0  0  0  0
 21 18  1  0  0  0  0
 22 18  2  0  0  0  0
 23 22  1  0  0  0  0
 24 21  2  0  0  0  0
 24 20  1  0  0  0  0
 25 26  1  0  0  0  0
 26 20  1  0  0  0  0
 27 17  1  0  0  0  0
 28 16  1  0  0  0  0
M  END
> <CdId>
701

> <Mol Weight>
374.3893

> <Formula>
C22H18N2O4

> <Click_ID>
CLK010_C06 __ __ 

$$$$
