CLK028_B05
 OpenBabel03181413202D

 26 28  0  0  0  0  0  0  0  0999 V2000
   -2.3683    0.7163    0.0000 C   0  0  0  0  0  0  0  0  0  0  0  0
   -3.1429    0.4695    0.0000 O   0  0  0  0  0  0  0  0  0  0  0  0
   -1.6554    0.3016    0.0000 C   0  0  0  0  0  0  0  0  0  0  0  0
   -2.3683    1.5458    0.0000 C   0  0  0  0  0  0  0  0  0  0  0  0
   -3.6193    1.1413    0.0000 C   0  0  0  0  0  0  0  0  0  0  0  0
   -3.1326    1.7959    0.0000 C   0  0  0  0  0  0  0  0  0  0  0  0
    4.0409   -2.2004    0.0000 C   0  0  0  0  0  0  0  0  0  0  0  0
    4.7572   -2.6288    0.0000 C   0  0  0  0  0  0  0  0  0  0  0  0
   -0.2262    0.2947    0.0000 N   0  0  0  0  0  0  0  0  0  0  0  0
    2.6288    0.2811    0.0000 C   0  0  0  0  0  0  0  0  0  0  0  0
   -0.9391    0.7163    0.0000 N   0  0  0  0  0  0  0  0  0  0  0  0
   -1.6657   -0.5244    0.0000 O   0  0  0  0  0  0  0  0  0  0  0  0
    2.6288   -0.5484    0.0000 C   0  0  0  0  0  0  0  0  0  0  0  0
    1.9125    0.6957    0.0000 C   0  0  0  0  0  0  0  0  0  0  0  0
    1.9090   -0.9597    0.0000 C   0  0  0  0  0  0  0  0  0  0  0  0
    0.4935    0.7026    0.0000 C   0  0  0  0  0  0  0  0  0  0  0  0
    1.2098    0.2879    0.0000 C   0  0  0  0  0  0  0  0  0  0  0  0
    1.1995   -0.5381    0.0000 C   0  0  0  0  0  0  0  0  0  0  0  0
    3.3417    0.6957    0.0000 O   0  0  0  0  0  0  0  0  0  0  0  0
    3.3417   -0.9631    0.0000 O   0  0  0  0  0  0  0  0  0  0  0  0
    4.0546   -1.3743    0.0000 C   0  0  0  0  0  0  0  0  0  0  0  0
   -4.4350    1.2270    0.0000 C   0  0  0  0  0  0  0  0  0  0  0  0
   -3.4616    2.5431    0.0000 C   0  0  0  0  0  0  0  0  0  0  0  0
    3.3485    1.5217    0.0000 C   0  0  0  0  0  0  0  0  0  0  0  0
   -4.2705    2.6322    0.0000 C   0  0  0  0  0  0  0  0  0  0  0  0
   -4.7606    1.9810    0.0000 C   0  0  0  0  0  0  0  0  0  0  0  0
  2  1  1  0  0  0  0
  3  1  1  0  0  0  0
  4  1  2  0  0  0  0
  5  2  1  0  0  0  0
  5  6  2  0  0  0  0
  6  4  1  0  0  0  0
  7 21  1  0  0  0  0
  8  7  3  0  0  0  0
  9 11  1  0  0  0  0
 10 14  2  0  0  0  0
 11  3  1  0  0  0  0
 12  3  2  0  0  0  0
 13 15  2  0  0  0  0
 13 10  1  0  0  0  0
 14 17  1  0  0  0  0
 15 18  1  0  0  0  0
 16  9  2  0  0  0  0
 17 16  1  0  0  0  0
 18 17  2  0  0  0  0
 19 10  1  0  0  0  0
 20 13  1  0  0  0  0
 21 20  1  0  0  0  0
 22  5  1  0  0  0  0
 23  6  1  0  0  0  0
 24 19  1  0  0  0  0
 25 23  2  0  0  0  0
 26 22  2  0  0  0  0
 26 25  1  0  0  0  0
M  END
> <CdId>
2099

> <Mol Weight>
348.352

> <Formula>
C20H16N2O4

> <Click_ID>
CLK028_B05 __ __ 

$$$$
