CLK026_C03
 OpenBabel03181413202D

 28 31  0  0  0  0  0  0  0  0999 V2000
    1.7909    0.1134    0.0000 N   0  0  0  0  0  0  0  0  0  0  0  0
    0.3747    0.1134    0.0000 C   0  0  0  0  0  0  0  0  0  0  0  0
    1.0793    0.5328    0.0000 C   0  0  0  0  0  0  0  0  0  0  0  0
    1.7909   -0.7116    0.0000 C   0  0  0  0  0  0  0  0  0  0  0  0
    1.0793   -1.1172    0.0000 N   0  0  0  0  0  0  0  0  0  0  0  0
    0.3747   -0.7116    0.0000 C   0  0  0  0  0  0  0  0  0  0  0  0
   -1.0587    0.1134    0.0000 C   0  0  0  0  0  0  0  0  0  0  0  0
   -0.3438    0.5225    0.0000 C   0  0  0  0  0  0  0  0  0  0  0  0
   -1.9594   -0.8800    0.0000 N   0  0  0  0  0  0  0  0  0  0  0  0
   -1.1481   -0.7047    0.0000 C   0  0  0  0  0  0  0  0  0  0  0  0
   -1.8184    0.4503    0.0000 C   0  0  0  0  0  0  0  0  0  0  0  0
   -2.3719   -0.1615    0.0000 C   0  0  0  0  0  0  0  0  0  0  0  0
   -3.1178   -1.7153    0.0000 C   0  0  0  0  0  0  0  0  0  0  0  0
    2.5094    0.5225    0.0000 C   0  0  0  0  0  0  0  0  0  0  0  0
    2.5094   -1.1241    0.0000 O   0  0  0  0  0  0  0  0  0  0  0  0
   -3.9428   -1.7531    0.0000 C   0  0  0  0  0  0  0  0  0  0  0  0
    1.0793    1.3578    0.0000 O   0  0  0  0  0  0  0  0  0  0  0  0
   -0.3438   -1.1241    0.0000 O   0  0  0  0  0  0  0  0  0  0  0  0
    3.2140    1.7566    0.0000 N   0  0  0  0  0  0  0  0  0  0  0  0
   -2.2928   -1.6362    0.0000 C   0  0  0  0  0  0  0  0  0  0  0  0
    2.5025    1.3441    0.0000 C   0  0  0  0  0  0  0  0  0  0  0  0
   -3.1728    0.0068    0.0000 C   0  0  0  0  0  0  0  0  0  0  0  0
   -2.0693    1.2375    0.0000 C   0  0  0  0  0  0  0  0  0  0  0  0
    3.9393    1.3441    0.0000 C   0  0  0  0  0  0  0  0  0  0  0  0
    3.2140    0.1066    0.0000 C   0  0  0  0  0  0  0  0  0  0  0  0
    3.9359    0.5191    0.0000 C   0  0  0  0  0  0  0  0  0  0  0  0
   -2.8737    1.4060    0.0000 C   0  0  0  0  0  0  0  0  0  0  0  0
   -3.4306    0.7941    0.0000 C   0  0  0  0  0  0  0  0  0  0  0  0
  2  3  1  0  0  0  0
  2  6  1  0  0  0  0
  3  1  1  0  0  0  0
  4  1  1  0  0  0  0
  5  4  1  0  0  0  0
  6  5  1  0  0  0  0
  7  8  1  0  0  0  0
  8  2  2  0  0  0  0
  9 10  1  0  0  0  0
 10  7  2  0  0  0  0
 11  7  1  0  0  0  0
 12 11  1  0  0  0  0
 12  9  1  0  0  0  0
 13 20  1  0  0  0  0
 14  1  1  0  0  0  0
 15  4  2  0  0  0  0
 16 13  3  0  0  0  0
 17  3  2  0  0  0  0
 18  6  2  0  0  0  0
 19 21  2  0  0  0  0
 19 24  1  0  0  0  0
 20  9  1  0  0  0  0
 21 14  1  0  0  0  0
 22 12  2  0  0  0  0
 23 11  2  0  0  0  0
 24 26  2  0  0  0  0
 25 14  2  0  0  0  0
 26 25  1  0  0  0  0
 27 23  1  0  0  0  0
 28 27  2  0  0  0  0
 28 22  1  0  0  0  0
M  END
> <CdId>
1958

> <Mol Weight>
370.3609

> <Formula>
C21H14N4O3

> <Click_ID>
CLK026_C03 __ __ 

$$$$
