CLK020_D07
 OpenBabel03181413202D

 24 26  0  0  0  0  0  0  0  0999 V2000
    1.5596   -0.8130    0.0000 N    0  0  0  0  0  0  0  0  0  0  0  0
    1.8167   -1.5969    0.0000 C    0  0  0  0  0  0  0  0  0  0  0  0
    2.8910   -0.8130    0.0000 C    0  0  0  0  0  0  0  0  0  0  0  0
    2.2273   -0.3277    0.0000 C    0  0  0  0  0  0  0  0  0  0  0  0
    2.6380   -1.5969    0.0000 S    0  0  0  0  0  0  0  0  0  0  0  0
    5.4999   -1.6716    0.0000 C    0  0  0  0  0  0  0  0  0  0  0  0
    3.6749   -0.5599    0.0000 C    0  0  0  0  0  0  0  0  0  0  0  0
    6.3253   -1.7711    0.0000 C    0  0  0  0  0  0  0  0  0  0  0  0
    5.1059   -0.9499    0.0000 O    0  0  0  0  0  0  0  0  0  0  0  0
    4.2971   -1.1116    0.0000 C    0  0  0  0  0  0  0  0  0  0  0  0
    4.9441   -2.2813    0.0000 C    0  0  0  0  0  0  0  0  0  0  0  0
    6.6488   -2.5301    0.0000 C    0  0  0  0  0  0  0  0  0  0  0  0
    0.6097    0.2447    0.0000 C    0  0  0  0  0  0  0  0  0  0  0  0
    4.1975   -1.9536    0.0000 C    0  0  0  0  0  0  0  0  0  0  0  0
    0.3899    1.0410    0.0000 C    0  0  0  0  0  0  0  0  0  0  0  0
    6.8106   -1.1116    0.0000 C    0  0  0  0  0  0  0  0  0  0  0  0
    1.3314   -2.2564    0.0000 O    0  0  0  0  0  0  0  0  0  0  0  0
    2.2191    0.4935    0.0000 O    0  0  0  0  0  0  0  0  0  0  0  0
    0.7839   -0.5599    0.0000 C    0  0  0  0  0  0  0  0  0  0  0  0
    7.4701   -2.6297    0.0000 C    0  0  0  0  0  0  0  0  0  0  0  0
    6.1511   -3.1896    0.0000 Br   0  0  0  0  0  0  0  0  0  0  0  0
    7.6443   -1.2112    0.0000 C    0  0  0  0  0  0  0  0  0  0  0  0
    7.9554   -1.9660    0.0000 C    0  0  0  0  0  0  0  0  0  0  0  0
    8.7891   -2.0697    0.0000 C    0  0  0  0  0  0  0  0  0  0  0  0
  2  1  1  0  0  0  0
  3  4  1  0  0  0  0
  3  5  1  0  0  0  0
  4  1  1  0  0  0  0
  5  2  1  0  0  0  0
  6  9  1  0  0  0  0
  6 11  2  0  0  0  0
  7  3  2  0  0  0  0
  8  6  1  0  0  0  0
  9 10  1  0  0  0  0
 10  7  1  0  0  0  0
 11 14  1  0  0  0  0
 12  8  2  0  0  0  0
 13 19  1  0  0  0  0
 14 10  2  0  0  0  0
 15 13  3  0  0  0  0
 16  8  1  0  0  0  0
 17  2  2  0  0  0  0
 18  4  2  0  0  0  0
 19  1  1  0  0  0  0
 20 12  1  0  0  0  0
 21 12  1  0  0  0  0
 22 16  2  0  0  0  0
 23 22  1  0  0  0  0
 23 20  2  0  0  0  0
 24 23  1  0  0  0  0
M  END
> <CdId>
1512

> <Mol Weight>
402.262

> <Formula>
C18H12BrNO3S

> <Click_ID>
CLK020_D07 __ __ 

$$$$
