CLK042A04
 OpenBabel03181413202D

 11  9  0  0  0  0  0  0  0  0999 V2000
    0.4750   -4.5375    0.0000 C    0  0  0  0  0  0  0  0  0  0  0  0
    1.1875   -4.9500    0.0000 C    0  0  0  0  0  0  0  0  0  0  0  0
   -0.2417   -3.3000    0.0000 N    0  0  0  0  0  0  0  0  0  0  0  0
   -0.2417   -1.6500    0.0000 N    0  0  0  0  0  0  0  0  0  0  0  0
   -0.2417   -4.1250    0.0000 C    0  0  0  0  0  0  0  0  0  0  0  0
    1.6500    0.0000    0.0000 Cl   0  0  0  0  0  0  0  0  0  0  0  0
    0.0000    0.0000    0.0000 Cl   0  0  0  0  0  0  0  0  0  0  0  0
    0.4750   -2.8875    0.0000 C    0  0  0  0  0  0  0  0  0  0  0  0
   -0.9542   -2.8875    0.0000 C    0  0  0  0  0  0  0  0  0  0  0  0
   -0.9542   -2.0625    0.0000 C    0  0  0  0  0  0  0  0  0  0  0  0
    0.4750   -2.0625    0.0000 C    0  0  0  0  0  0  0  0  0  0  0  0
  2  1  3  0  0  0  0
  3  5  1  0  0  0  0
  4 10  1  0  0  0  0
  4 11  1  0  0  0  0
  5  1  1  0  0  0  0
  8  3  1  0  0  0  0
  9  3  1  0  0  0  0
 10  9  1  0  0  0  0
 11  8  1  0  0  0  0
M  END
> <CdId>
3185

> <Mol Weight>
197.105

> <Formula>
C7H14Cl2N2

> <Click_ID>
CLK042A04 __ __ 

$$$$
