CLK047H09
 OpenBabel03181413202D

 18 19  0  0  0  0  0  0  0  0999 V2000
   -0.4833   -0.6167    0.0000 C   0  0  0  0  0  0  0  0  0  0  0  0
    0.0042    0.0500    0.0000 N   0  0  0  0  0  0  0  0  0  0  0  0
    0.7875   -0.2042    0.0000 C   0  0  0  0  0  0  0  0  0  0  0  0
    0.0042   -1.2833    0.0000 C   0  0  0  0  0  0  0  0  0  0  0  0
    0.7875   -1.0292    0.0000 O   0  0  0  0  0  0  0  0  0  0  0  0
   -1.3083   -0.6167    0.0000 C   0  0  0  0  0  0  0  0  0  0  0  0
   -2.9583    0.8125    0.0000 C   0  0  0  0  0  0  0  0  0  0  0  0
   -3.3708    1.5292    0.0000 C   0  0  0  0  0  0  0  0  0  0  0  0
    1.4542    0.2833    0.0000 C   0  0  0  0  0  0  0  0  0  0  0  0
   -1.7208   -1.3292    0.0000 O   0  0  0  0  0  0  0  0  0  0  0  0
   -1.7208    0.1000    0.0000 N   0  0  0  0  0  0  0  0  0  0  0  0
   -0.2500   -2.0667    0.0000 C   0  0  0  0  0  0  0  0  0  0  0  0
   -2.5458    0.1000    0.0000 C   0  0  0  0  0  0  0  0  0  0  0  0
    2.2083   -0.0542    0.0000 C   0  0  0  0  0  0  0  0  0  0  0  0
    1.3667    1.1000    0.0000 C   0  0  0  0  0  0  0  0  0  0  0  0
    2.0375    1.5875    0.0000 C   0  0  0  0  0  0  0  0  0  0  0  0
    2.8750    0.4292    0.0000 C   0  0  0  0  0  0  0  0  0  0  0  0
    2.7917    1.2500    0.0000 C   0  0  0  0  0  0  0  0  0  0  0  0
  2  1  1  0  0  0  0
  3  2  2  0  0  0  0
  3  5  1  0  0  0  0
  4  1  2  0  0  0  0
  5  4  1  0  0  0  0
  6  1  1  0  0  0  0
  7 13  1  0  0  0  0
  8  7  3  0  0  0  0
  9  3  1  0  0  0  0
 10  6  2  0  0  0  0
 11  6  1  0  0  0  0
 12  4  1  0  0  0  0
 13 11  1  0  0  0  0
 14  9  1  0  0  0  0
 15  9  2  0  0  0  0
 16 15  1  0  0  0  0
 17 14  2  0  0  0  0
 18 16  2  0  0  0  0
 18 17  1  0  0  0  0
M  END
> <CdId>
3632

> <Mol Weight>
240.2573

> <Formula>
C14H12N2O2

> <Click_ID>
CLK047H09 __ __ 

$$$$
