CLK022_H06
 OpenBabel03181413202D

 19 20  0  0  0  0  0  0  0  0999 V2000
    2.9059    2.0716    0.0000 C   0  0  0  0  0  0  0  0  0  0  0  0
    2.4246    2.7362    0.0000 S   0  0  0  0  0  0  0  0  0  0  0  0
    3.7309    2.0716    0.0000 N   0  0  0  0  0  0  0  0  0  0  0  0
    2.4246    1.4025    0.0000 N   0  0  0  0  0  0  0  0  0  0  0  0
    1.6409    1.6591    0.0000 N   0  0  0  0  0  0  0  0  0  0  0  0
    4.1434    1.3566    0.0000 C   0  0  0  0  0  0  0  0  0  0  0  0
    1.6409    2.4841    0.0000 C   0  0  0  0  0  0  0  0  0  0  0  0
    8.6809    2.0716    0.0000 C   0  0  0  0  0  0  0  0  0  0  0  0
    9.5059    2.0716    0.0000 C   0  0  0  0  0  0  0  0  0  0  0  0
    4.9684    1.3566    0.0000 C   0  0  0  0  0  0  0  0  0  0  0  0
    3.7309    0.6416    0.0000 O   0  0  0  0  0  0  0  0  0  0  0  0
    5.3809    0.6416    0.0000 C   0  0  0  0  0  0  0  0  0  0  0  0
    5.3809    2.0716    0.0000 C   0  0  0  0  0  0  0  0  0  0  0  0
    6.6184    1.3566    0.0000 C   0  0  0  0  0  0  0  0  0  0  0  0
    6.2059    0.6416    0.0000 C   0  0  0  0  0  0  0  0  0  0  0  0
    6.2059    2.0716    0.0000 C   0  0  0  0  0  0  0  0  0  0  0  0
    7.8559    2.0716    0.0000 C   0  0  0  0  0  0  0  0  0  0  0  0
    7.4434    1.3566    0.0000 O   0  0  0  0  0  0  0  0  0  0  0  0
    0.9671    2.9654    0.0000 C   0  0  0  0  0  0  0  0  0  0  0  0
  2  1  1  0  0  0  0
  3  1  1  0  0  0  0
  4  1  2  0  0  0  0
  5  4  1  0  0  0  0
  5  7  2  0  0  0  0
  6  3  1  0  0  0  0
  7  2  1  0  0  0  0
  8 17  1  0  0  0  0
  9  8  3  0  0  0  0
 10  6  1  0  0  0  0
 11  6  2  0  0  0  0
 12 10  1  0  0  0  0
 13 10  2  0  0  0  0
 14 16  2  0  0  0  0
 14 15  1  0  0  0  0
 15 12  2  0  0  0  0
 16 13  1  0  0  0  0
 17 18  1  0  0  0  0
 18 14  1  0  0  0  0
 19  7  1  0  0  0  0
M  END
> <CdId>
1694

> <Mol Weight>
273.31

> <Formula>
C13H11N3O2S

> <Click_ID>
CLK022_H06 __ __ 

$$$$
