CLK039H04
 OpenBabel03181413202D

 19 20  0  0  0  0  0  0  0  0999 V2000
    0.7000    1.9042    0.0000 C   0  0  0  0  0  0  0  0  0  0  0  0
    0.7000    1.0792    0.0000 C   0  0  0  0  0  0  0  0  0  0  0  0
    1.4833    2.1583    0.0000 S   0  0  0  0  0  0  0  0  0  0  0  0
    1.4833    0.8208    0.0000 C   0  0  0  0  0  0  0  0  0  0  0  0
    1.9667    1.4917    0.0000 C   0  0  0  0  0  0  0  0  0  0  0  0
   -0.0167    0.6667    0.0000 C   0  0  0  0  0  0  0  0  0  0  0  0
   -0.0167    2.3167    0.0000 N   0  0  0  0  0  0  0  0  0  0  0  0
   -0.7292    1.0792    0.0000 N   0  0  0  0  0  0  0  0  0  0  0  0
   -2.1583   -3.0458    0.0000 C   0  0  0  0  0  0  0  0  0  0  0  0
   -2.8750   -3.4583    0.0000 C   0  0  0  0  0  0  0  0  0  0  0  0
   -0.0167   -0.1583    0.0000 S   0  0  0  0  0  0  0  0  0  0  0  0
   -0.7292    1.9042    0.0000 C   0  0  0  0  0  0  0  0  0  0  0  0
   -0.7292   -1.3958    0.0000 C   0  0  0  0  0  0  0  0  0  0  0  0
   -0.0167   -1.8083    0.0000 O   0  0  0  0  0  0  0  0  0  0  0  0
   -0.7292   -0.5708    0.0000 C   0  0  0  0  0  0  0  0  0  0  0  0
   -1.4458   -1.8083    0.0000 N   0  0  0  0  0  0  0  0  0  0  0  0
    1.7375    0.0375    0.0000 C   0  0  0  0  0  0  0  0  0  0  0  0
    2.7917    1.4917    0.0000 C   0  0  0  0  0  0  0  0  0  0  0  0
   -1.4458   -2.6333    0.0000 C   0  0  0  0  0  0  0  0  0  0  0  0
  2  1  2  0  0  0  0
  3  1  1  0  0  0  0
  4  2  1  0  0  0  0
  4  5  2  0  0  0  0
  5  3  1  0  0  0  0
  6  2  1  0  0  0  0
  7  1  1  0  0  0  0
  8  6  2  0  0  0  0
  8 12  1  0  0  0  0
  9 19  1  0  0  0  0
 10  9  3  0  0  0  0
 11  6  1  0  0  0  0
 12  7  2  0  0  0  0
 13 15  1  0  0  0  0
 14 13  2  0  0  0  0
 15 11  1  0  0  0  0
 16 13  1  0  0  0  0
 17  4  1  0  0  0  0
 18  5  1  0  0  0  0
 19 16  1  0  0  0  0
M  END
> <CdId>
2952

> <Mol Weight>
291.392

> <Formula>
C13H13N3OS2

> <Click_ID>
CLK039H04 __ __ 

$$$$
