CLK040D05
 OpenBabel03181413202D

 21 22  0  0  0  0  0  0  0  0999 V2000
    1.8000   -0.5292    0.0000 C   0  0  0  0  0  0  0  0  0  0  0  0
    1.0875   -0.9417    0.0000 N   0  0  0  0  0  0  0  0  0  0  0  0
    0.3708   -0.5292    0.0000 C   0  0  0  0  0  0  0  0  0  0  0  0
   -1.0583   -0.5292    0.0000 N   0  0  0  0  0  0  0  0  0  0  0  0
   -3.2000    1.5333    0.0000 C   0  0  0  0  0  0  0  0  0  0  0  0
   -2.4875    0.2958    0.0000 N   0  0  0  0  0  0  0  0  0  0  0  0
   -3.2000    2.3583    0.0000 C   0  0  0  0  0  0  0  0  0  0  0  0
   -0.3417   -0.9417    0.0000 C   0  0  0  0  0  0  0  0  0  0  0  0
    2.5167   -0.9417    0.0000 C   0  0  0  0  0  0  0  0  0  0  0  0
    1.8000    0.2958    0.0000 C   0  0  0  0  0  0  0  0  0  0  0  0
    0.3708    0.2958    0.0000 O   0  0  0  0  0  0  0  0  0  0  0  0
   -1.0583    0.2958    0.0000 C   0  0  0  0  0  0  0  0  0  0  0  0
   -1.7708   -0.9417    0.0000 C   0  0  0  0  0  0  0  0  0  0  0  0
   -2.4875   -0.5292    0.0000 C   0  0  0  0  0  0  0  0  0  0  0  0
   -1.7708    0.7083    0.0000 C   0  0  0  0  0  0  0  0  0  0  0  0
   -3.2000    0.7083    0.0000 C   0  0  0  0  0  0  0  0  0  0  0  0
    3.2292    0.2958    0.0000 C   0  0  0  0  0  0  0  0  0  0  0  0
    2.5167    0.7083    0.0000 C   0  0  0  0  0  0  0  0  0  0  0  0
    3.2292   -0.5292    0.0000 C   0  0  0  0  0  0  0  0  0  0  0  0
    2.5167   -1.7667    0.0000 C   0  0  0  0  0  0  0  0  0  0  0  0
    1.0875    0.7083    0.0000 C   0  0  0  0  0  0  0  0  0  0  0  0
  2  1  1  0  0  0  0
  3  2  1  0  0  0  0
  4  8  1  0  0  0  0
  5 16  1  0  0  0  0
  6 14  1  0  0  0  0
  6 15  1  0  0  0  0
  7  5  3  0  0  0  0
  8  3  1  0  0  0  0
  9  1  2  0  0  0  0
 10  1  1  0  0  0  0
 11  3  2  0  0  0  0
 12  4  1  0  0  0  0
 13  4  1  0  0  0  0
 14 13  1  0  0  0  0
 15 12  1  0  0  0  0
 16  6  1  0  0  0  0
 17 19  2  0  0  0  0
 18 10  2  0  0  0  0
 18 17  1  0  0  0  0
 19  9  1  0  0  0  0
 20  9  1  0  0  0  0
 21 10  1  0  0  0  0
M  END
> <CdId>
3036

> <Mol Weight>
285.384

> <Formula>
C17H23N3O

> <Click_ID>
CLK040D05 __ __ 

$$$$
