CLK038G05
 OpenBabel03181413202D

 29 30  0  0  0  0  0  0  0  0999 V2000
    4.1083    1.7417    0.0000 N   0  0  0  0  0  0  0  0  0  0  0  0
    4.8917    2.8208    0.0000 N   0  0  0  0  0  0  0  0  0  0  0  0
    5.3792    2.1542    0.0000 N   0  0  0  0  0  0  0  0  0  0  0  0
    4.1083    2.5667    0.0000 C   0  0  0  0  0  0  0  0  0  0  0  0
    4.8917    1.4875    0.0000 C   0  0  0  0  0  0  0  0  0  0  0  0
   -0.2083   -0.3542    0.0000 C   0  0  0  0  0  0  0  0  0  0  0  0
    0.2042    0.3583    0.0000 C   0  0  0  0  0  0  0  0  0  0  0  0
    4.5542   -2.0917    0.0000 C   0  0  0  0  0  0  0  0  0  0  0  0
    3.7458   -1.9208    0.0000 C   0  0  0  0  0  0  0  0  0  0  0  0
    3.3917    1.3292    0.0000 C   0  0  0  0  0  0  0  0  0  0  0  0
    3.3917    2.9792    0.0000 C   0  0  0  0  0  0  0  0  0  0  0  0
    5.1458    0.7042    0.0000 C   0  0  0  0  0  0  0  0  0  0  0  0
    7.2708   -1.2083    0.0000 C   0  0  0  0  0  0  0  0  0  0  0  0
    0.2042   -1.0708    0.0000 O   0  0  0  0  0  0  0  0  0  0  0  0
    1.0292    0.3583    0.0000 O   0  0  0  0  0  0  0  0  0  0  0  0
    2.6792    1.7417    0.0000 C   0  0  0  0  0  0  0  0  0  0  0  0
    6.7208   -1.8250    0.0000 C   0  0  0  0  0  0  0  0  0  0  0  0
    2.6792    2.5667    0.0000 C   0  0  0  0  0  0  0  0  0  0  0  0
   -0.2083    1.0750    0.0000 O   0  0  0  0  0  0  0  0  0  0  0  0
   -1.0333   -0.3542    0.0000 O   0  0  0  0  0  0  0  0  0  0  0  0
    6.2083   -0.2542    0.0000 N   0  0  0  0  0  0  0  0  0  0  0  0
    5.9125   -1.6500    0.0000 O   0  0  0  0  0  0  0  0  0  0  0  0
    5.3625   -2.2625    0.0000 C   0  0  0  0  0  0  0  0  0  0  0  0
    7.0167   -0.4250    0.0000 C   0  0  0  0  0  0  0  0  0  0  0  0
    5.9542    0.5292    0.0000 C   0  0  0  0  0  0  0  0  0  0  0  0
    8.0792   -1.3833    0.0000 C   0  0  0  0  0  0  0  0  0  0  0  0
    6.9750   -2.6083    0.0000 C   0  0  0  0  0  0  0  0  0  0  0  0
    8.3333   -2.1667    0.0000 C   0  0  0  0  0  0  0  0  0  0  0  0
    7.7833   -2.7792    0.0000 C   0  0  0  0  0  0  0  0  0  0  0  0
  2  4  2  0  0  0  0
  2  3  1  0  0  0  0
  3  5  2  0  0  0  0
  4  1  1  0  0  0  0
  5  1  1  0  0  0  0
  7  6  1  0  0  0  0
  8 23  1  0  0  0  0
  9  8  3  0  0  0  0
 10  1  1  0  0  0  0
 11  4  1  0  0  0  0
 12  5  1  0  0  0  0
 13 24  1  0  0  0  0
 14  6  2  0  0  0  0
 15  7  2  0  0  0  0
 16 10  2  0  0  0  0
 16 18  1  0  0  0  0
 17 13  2  0  0  0  0
 18 11  2  0  0  0  0
 19  7  1  0  0  0  0
 20  6  1  0  0  0  0
 21 25  1  0  0  0  0
 22 17  1  0  0  0  0
 23 22  1  0  0  0  0
 24 21  1  0  0  0  0
 25 12  1  0  0  0  0
 26 13  1  0  0  0  0
 27 17  1  0  0  0  0
 28 26  2  0  0  0  0
 28 29  1  0  0  0  0
 29 27  2  0  0  0  0
M  END
> <CdId>
2879

> <Mol Weight>
396.3966

> <Formula>
C20H20N4O5

> <Click_ID>
CLK038G05 __ __ 

$$$$
