CLK047D03
 OpenBabel03181413202D

 11 11  0  0  0  0  0  0  0  0999 V2000
    0.7624    0.0000    0.0000 C   0  0  0  0  0  0  0  0  0  0  0  0
    0.0542    0.4250    0.0000 C   0  0  0  0  0  0  0  0  0  0  0  0
    1.5206    0.3250    0.0000 S   0  0  0  0  0  0  0  0  0  0  0  0
   -2.0956    0.0417    0.0000 C   0  0  0  0  0  0  0  0  0  0  0  0
   -2.8164   -0.3583    0.0000 C   0  0  0  0  0  0  0  0  0  0  0  0
    0.8332   -0.8207    0.0000 C   0  0  0  0  0  0  0  0  0  0  0  0
    2.0623   -0.2958    0.0000 C   0  0  0  0  0  0  0  0  0  0  0  0
    0.0667    1.2499    0.0000 O   0  0  0  0  0  0  0  0  0  0  0  0
    1.6373   -1.0041    0.0000 C   0  0  0  0  0  0  0  0  0  0  0  0
   -0.6666    0.0208    0.0000 N   0  0  0  0  0  0  0  0  0  0  0  0
   -1.3748    0.4457    0.0000 C   0  0  0  0  0  0  0  0  0  0  0  0
  2  1  1  0  0  0  0
  3  1  1  0  0  0  0
  4 11  1  0  0  0  0
  5  4  3  0  0  0  0
  6  1  2  0  0  0  0
  7  3  1  0  0  0  0
  7  9  2  0  0  0  0
  8  2  2  0  0  0  0
  9  6  1  0  0  0  0
 10  2  1  0  0  0  0
 11 10  1  0  0  0  0
M  END
> <CdId>
3580

> <Mol Weight>
165.212

> <Formula>
C8H7NOS

> <Click_ID>
CLK047D03 __ __ 

$$$$
