CLK015_E10
 OpenBabel03181413202D

 23 25  0  0  0  0  0  0  0  0999 V2000
    1.5633   -0.8149    0.0000 N   0  0  0  0  0  0  0  0  0  0  0  0
    1.8211   -1.6008    0.0000 C   0  0  0  0  0  0  0  0  0  0  0  0
    2.8980   -0.8149    0.0000 C   0  0  0  0  0  0  0  0  0  0  0  0
    2.2327   -0.3285    0.0000 C   0  0  0  0  0  0  0  0  0  0  0  0
    3.8542    0.2453    0.0000 C   0  0  0  0  0  0  0  0  0  0  0  0
    2.6443   -1.6008    0.0000 S   0  0  0  0  0  0  0  0  0  0  0  0
    3.7212    1.5799    0.0000 N   0  0  0  0  0  0  0  0  0  0  0  0
    3.6838   -0.5613    0.0000 C   0  0  0  0  0  0  0  0  0  0  0  0
    3.3096    0.8607    0.0000 C   0  0  0  0  0  0  0  0  0  0  0  0
    4.6151    0.5821    0.0000 C   0  0  0  0  0  0  0  0  0  0  0  0
    4.5320    1.3970    0.0000 C   0  0  0  0  0  0  0  0  0  0  0  0
    0.6112    0.2453    0.0000 C   0  0  0  0  0  0  0  0  0  0  0  0
    3.8834    2.9936    0.0000 C   0  0  0  0  0  0  0  0  0  0  0  0
    4.4155    3.6255    0.0000 C   0  0  0  0  0  0  0  0  0  0  0  0
    0.3909    1.0436    0.0000 C   0  0  0  0  0  0  0  0  0  0  0  0
    1.3346   -2.2618    0.0000 O   0  0  0  0  0  0  0  0  0  0  0  0
    2.2244    0.4947    0.0000 O   0  0  0  0  0  0  0  0  0  0  0  0
    0.7858   -0.5613    0.0000 C   0  0  0  0  0  0  0  0  0  0  0  0
    3.3969    2.3283    0.0000 C   0  0  0  0  0  0  0  0  0  0  0  0
    5.2013    1.8793    0.0000 C   0  0  0  0  0  0  0  0  0  0  0  0
    5.3635    0.2328    0.0000 C   0  0  0  0  0  0  0  0  0  0  0  0
    6.0288    0.7193    0.0000 C   0  0  0  0  0  0  0  0  0  0  0  0
    5.9414    1.5425    0.0000 C   0  0  0  0  0  0  0  0  0  0  0  0
  2  1  1  0  0  0  0
  3  4  1  0  0  0  0
  3  6  1  0  0  0  0
  4  1  1  0  0  0  0
  5  8  1  0  0  0  0
  6  2  1  0  0  0  0
  7  9  1  0  0  0  0
  7 11  1  0  0  0  0
  8  3  2  0  0  0  0
  9  5  2  0  0  0  0
 10  5  1  0  0  0  0
 11 10  1  0  0  0  0
 12 18  1  0  0  0  0
 13 19  1  0  0  0  0
 14 13  3  0  0  0  0
 15 12  3  0  0  0  0
 16  2  2  0  0  0  0
 17  4  2  0  0  0  0
 18  1  1  0  0  0  0
 19  7  1  0  0  0  0
 20 11  2  0  0  0  0
 20 23  1  0  0  0  0
 21 10  2  0  0  0  0
 22 21  1  0  0  0  0
 23 22  2  0  0  0  0
M  END
> <CdId>
1125

> <Mol Weight>
320.365

> <Formula>
C18H12N2O2S

> <Click_ID>
CLK015_E10 __ __ 

$$$$
