CLK014_C11
 OpenBabel03181413202D

 23 24  0  0  0  0  0  0  0  0999 V2000
    1.5637   -0.8151    0.0000 N   0  0  0  0  0  0  0  0  0  0  0  0
    1.8215   -1.6011    0.0000 C   0  0  0  0  0  0  0  0  0  0  0  0
    2.2332   -0.3286    0.0000 C   0  0  0  0  0  0  0  0  0  0  0  0
    2.8986   -0.8151    0.0000 C   0  0  0  0  0  0  0  0  0  0  0  0
    2.6449   -1.6011    0.0000 S   0  0  0  0  0  0  0  0  0  0  0  0
    3.6846   -0.5614    0.0000 C   0  0  0  0  0  0  0  0  0  0  0  0
    0.6113    0.2453    0.0000 C   0  0  0  0  0  0  0  0  0  0  0  0
    0.3909    1.0438    0.0000 C   0  0  0  0  0  0  0  0  0  0  0  0
    4.8157    1.3100    0.0000 C   0  0  0  0  0  0  0  0  0  0  0  0
    1.3349   -2.2623    0.0000 O   0  0  0  0  0  0  0  0  0  0  0  0
    2.2249    0.4948    0.0000 O   0  0  0  0  0  0  0  0  0  0  0  0
    5.3564    3.7137    0.0000 C   0  0  0  0  0  0  0  0  0  0  0  0
    4.2044    1.8589    0.0000 C   0  0  0  0  0  0  0  0  0  0  0  0
    3.8551    0.2453    0.0000 C   0  0  0  0  0  0  0  0  0  0  0  0
    0.7860   -0.5614    0.0000 C   0  0  0  0  0  0  0  0  0  0  0  0
    4.6328    0.4948    0.0000 C   0  0  0  0  0  0  0  0  0  0  0  0
    4.3833    2.6574    0.0000 O   0  0  0  0  0  0  0  0  0  0  0  0
    4.7451    4.2710    0.0000 O   0  0  0  0  0  0  0  0  0  0  0  0
    3.4184    1.6052    0.0000 C   0  0  0  0  0  0  0  0  0  0  0  0
    5.1693    2.9152    0.0000 C   0  0  0  0  0  0  0  0  0  0  0  0
    5.5934    1.5678    0.0000 I   0  0  0  0  0  0  0  0  0  0  0  0
    3.2438    0.8067    0.0000 C   0  0  0  0  0  0  0  0  0  0  0  0
    6.1424    3.9756    0.0000 O   0  0  0  0  0  0  0  0  0  0  0  0
  2  1  1  0  0  0  0
  3  1  1  0  0  0  0
  4  3  1  0  0  0  0
  4  5  1  0  0  0  0
  5  2  1  0  0  0  0
  6  4  2  0  0  0  0
  7 15  1  0  0  0  0
  8  7  3  0  0  0  0
  9 16  2  0  0  0  0
  9 13  1  0  0  0  0
 10  2  2  0  0  0  0
 11  3  2  0  0  0  0
 12 20  1  0  0  0  0
 13 19  2  0  0  0  0
 14  6  1  0  0  0  0
 15  1  1  0  0  0  0
 16 14  1  0  0  0  0
 17 13  1  0  0  0  0
 18 12  2  0  0  0  0
 19 22  1  0  0  0  0
 20 17  1  0  0  0  0
 21  9  1  0  0  0  0
 22 14  2  0  0  0  0
 23 12  1  0  0  0  0
M  END
> <CdId>
1026

> <Mol Weight>
443.213

> <Formula>
C15H10INO5S

> <Click_ID>
CLK014_C11 __ __ 

$$$$
