CLK024_G08
 OpenBabel03181413202D

 30 32  0  0  0  0  0  0  0  0999 V2000
   -2.4888   -2.2928    0.0000 N   0  0  0  0  0  0  0  0  0  0  0  0
   -2.2481   -3.0731    0.0000 C   0  0  0  0  0  0  0  0  0  0  0  0
   -1.8356   -1.8082    0.0000 C   0  0  0  0  0  0  0  0  0  0  0  0
   -1.1585   -2.3100    0.0000 C   0  0  0  0  0  0  0  0  0  0  0  0
   -1.4231   -3.0834    0.0000 S   0  0  0  0  0  0  0  0  0  0  0  0
    0.2407    0.3575    0.0000 C   0  0  0  0  0  0  0  0  0  0  0  0
   -0.3850   -2.0419    0.0000 C   0  0  0  0  0  0  0  0  0  0  0  0
    0.8318   -0.2303    0.0000 C   0  0  0  0  0  0  0  0  0  0  0  0
   -0.5569    0.1341    0.0000 C   0  0  0  0  0  0  0  0  0  0  0  0
    0.4675    1.1482    0.0000 O   0  0  0  0  0  0  0  0  0  0  0  0
   -0.1891   -1.2410    0.0000 C   0  0  0  0  0  0  0  0  0  0  0  0
    3.4444    1.1825    0.0000 N   0  0  0  0  0  0  0  0  0  0  0  0
   -3.4478   -1.2272    0.0000 C   0  0  0  0  0  0  0  0  0  0  0  0
    2.8669    1.7703    0.0000 C   0  0  0  0  0  0  0  0  0  0  0  0
   -2.8291   -0.6772    0.0000 C   0  0  0  0  0  0  0  0  0  0  0  0
   -2.7363   -3.7366    0.0000 O   0  0  0  0  0  0  0  0  0  0  0  0
    0.6050   -1.0278    0.0000 C   0  0  0  0  0  0  0  0  0  0  0  0
   -0.7700   -0.6565    0.0000 C   0  0  0  0  0  0  0  0  0  0  0  0
   -1.8356   -0.9832    0.0000 O   0  0  0  0  0  0  0  0  0  0  0  0
   -3.2725   -2.0350    0.0000 C   0  0  0  0  0  0  0  0  0  0  0  0
    2.2825    2.3581    0.0000 C   0  0  0  0  0  0  0  0  0  0  0  0
    1.2684    1.3578    0.0000 C   0  0  0  0  0  0  0  0  0  0  0  0
    1.4885    2.1588    0.0000 C   0  0  0  0  0  0  0  0  0  0  0  0
    1.6294   -0.0309    0.0000 I   0  0  0  0  0  0  0  0  0  0  0  0
   -1.1344    0.7219    0.0000 O   0  0  0  0  0  0  0  0  0  0  0  0
    2.5059    3.1522    0.0000 C   0  0  0  0  0  0  0  0  0  0  0  0
    0.9040    2.7328    0.0000 C   0  0  0  0  0  0  0  0  0  0  0  0
   -0.9213    1.5194    0.0000 C   0  0  0  0  0  0  0  0  0  0  0  0
    1.1275    3.5303    0.0000 C   0  0  0  0  0  0  0  0  0  0  0  0
    1.9284    3.7366    0.0000 C   0  0  0  0  0  0  0  0  0  0  0  0
  2  1  1  0  0  0  0
  3  1  1  0  0  0  0
  4  3  1  0  0  0  0
  5  2  1  0  0  0  0
  5  4  1  0  0  0  0
  6  9  1  0  0  0  0
  7  4  2  0  0  0  0
  8 17  1  0  0  0  0
  8  6  2  0  0  0  0
  9 18  2  0  0  0  0
 10  6  1  0  0  0  0
 11  7  1  0  0  0  0
 12 14  3  0  0  0  0
 13 20  1  0  0  0  0
 14 21  1  0  0  0  0
 15 13  3  0  0  0  0
 16  2  2  0  0  0  0
 17 11  2  0  0  0  0
 18 11  1  0  0  0  0
 19  3  2  0  0  0  0
 20  1  1  0  0  0  0
 21 23  2  0  0  0  0
 22 10  1  0  0  0  0
 23 22  1  0  0  0  0
 24  8  1  0  0  0  0
 25  9  1  0  0  0  0
 26 21  1  0  0  0  0
 26 30  2  0  0  0  0
 27 23  1  0  0  0  0
 28 25  1  0  0  0  0
 29 27  2  0  0  0  0
 30 29  1  0  0  0  0
M  END
> <CdId>
1843

> <Mol Weight>
530.335

> <Formula>
C22H15IN2O4S

> <Click_ID>
CLK024_G08 __ __ 

$$$$
