CLK031_B07
 OpenBabel03181413202D

 29 32  0  0  0  0  0  0  0  0999 V2000
   -1.1636    2.3855    0.0000 C   0  0  0  0  0  0  0  0  0  0  0  0
   -0.3378    2.3772    0.0000 N   0  0  0  0  0  0  0  0  0  0  0  0
   -4.5876    3.2155    0.0000 S   0  0  0  0  0  0  0  0  0  0  0  0
   -1.6473    1.7224    0.0000 N   0  0  0  0  0  0  0  0  0  0  0  0
   -1.6473    3.0529    0.0000 S   0  0  0  0  0  0  0  0  0  0  0  0
   -2.4356    2.7984    0.0000 C   0  0  0  0  0  0  0  0  0  0  0  0
   -2.4356    1.9727    0.0000 C   0  0  0  0  0  0  0  0  0  0  0  0
    0.0751    3.0904    0.0000 C   0  0  0  0  0  0  0  0  0  0  0  0
   -3.8619    2.7984    0.0000 C   0  0  0  0  0  0  0  0  0  0  0  0
   -3.1488    3.2113    0.0000 C   0  0  0  0  0  0  0  0  0  0  0  0
    0.9008    3.0904    0.0000 C   0  0  0  0  0  0  0  0  0  0  0  0
   -1.9476    0.3211    0.0000 C   0  0  0  0  0  0  0  0  0  0  0  0
   -3.1488    1.5598    0.0000 C   0  0  0  0  0  0  0  0  0  0  0  0
    1.3137    2.3855    0.0000 C   0  0  0  0  0  0  0  0  0  0  0  0
   -2.4981   -0.2920    0.0000 C   0  0  0  0  0  0  0  0  0  0  0  0
   -4.1497    3.9120    0.0000 O   0  0  0  0  0  0  0  0  0  0  0  0
   -5.0255    2.5107    0.0000 O   0  0  0  0  0  0  0  0  0  0  0  0
    2.1312    2.3730    0.0000 C   0  0  0  0  0  0  0  0  0  0  0  0
   -5.2883    3.6492    0.0000 N   0  0  0  0  0  0  0  0  0  0  0  0
   -0.3378    3.8036    0.0000 O   0  0  0  0  0  0  0  0  0  0  0  0
   -3.8619    1.9727    0.0000 C   0  0  0  0  0  0  0  0  0  0  0  0
    2.5566    3.0737    0.0000 C   0  0  0  0  0  0  0  0  0  0  0  0
   -1.3971    0.9342    0.0000 C   0  0  0  0  0  0  0  0  0  0  0  0
    1.3262    3.8161    0.0000 C   0  0  0  0  0  0  0  0  0  0  0  0
    2.1520    3.8119    0.0000 C   0  0  0  0  0  0  0  0  0  0  0  0
    2.5441    1.6473    0.0000 C   0  0  0  0  0  0  0  0  0  0  0  0
    3.3907    3.0654    0.0000 C   0  0  0  0  0  0  0  0  0  0  0  0
    3.3782    1.6390    0.0000 C   0  0  0  0  0  0  0  0  0  0  0  0
    3.7953    2.3605    0.0000 C   0  0  0  0  0  0  0  0  0  0  0  0
  2  1  2  0  0  0  0
  3  9  1  0  0  0  0
  4  1  1  0  0  0  0
  5  1  1  0  0  0  0
  6  5  1  0  0  0  0
  6  7  2  0  0  0  0
  7  4  1  0  0  0  0
  8  2  1  0  0  0  0
  9 10  2  0  0  0  0
  9 21  1  0  0  0  0
 10  6  1  0  0  0  0
 11  8  1  0  0  0  0
 12 23  1  0  0  0  0
 13  7  1  0  0  0  0
 14 11  2  0  0  0  0
 15 12  3  0  0  0  0
 16  3  2  0  0  0  0
 17  3  2  0  0  0  0
 18 14  1  0  0  0  0
 19  3  1  0  0  0  0
 20  8  2  0  0  0  0
 21 13  2  0  0  0  0
 22 25  1  0  0  0  0
 22 18  2  0  0  0  0
 23  4  1  0  0  0  0
 24 11  1  0  0  0  0
 25 24  2  0  0  0  0
 26 18  1  0  0  0  0
 27 22  1  0  0  0  0
 28 26  1  0  0  0  0
 29 27  1  0  0  0  0
 29 28  1  0  0  0  0
M  END
> <CdId>
2341

> <Mol Weight>
425.524

> <Formula>
C21H19N3O3S2

> <Click_ID>
CLK031_B07 __ __ 

$$$$
