CLK001_B09
 OpenBabel03181413202D

 13 13  0  0  0  0  0  0  0  0999 V2000
   -0.2975   -0.7236    0.0000 C   0  0  0  0  0  0  0  0  0  0  0  0
   -1.7227   -0.7236    0.0000 C   0  0  0  0  0  0  0  0  0  0  0  0
    0.2866   -0.1395    0.0000 C   0  0  0  0  0  0  0  0  0  0  0  0
   -0.2975   -1.5501    0.0000 N   0  0  0  0  0  0  0  0  0  0  0  0
   -1.7227   -1.5501    0.0000 N   0  0  0  0  0  0  0  0  0  0  0  0
   -2.3105   -0.1395    0.0000 N   0  0  0  0  0  0  0  0  0  0  0  0
    0.0735    0.6501    0.0000 N   0  0  0  0  0  0  0  0  0  0  0  0
    1.0836   -0.3526    0.0000 N   0  0  0  0  0  0  0  0  0  0  0  0
   -1.0064   -1.9615    0.0000 O   0  0  0  0  0  0  0  0  0  0  0  0
    0.7787    1.0652    0.0000 O   0  0  0  0  0  0  0  0  0  0  0  0
    0.9917    1.8586    0.0000 C   0  0  0  0  0  0  0  0  0  0  0  0
    1.7779    2.0717    0.0000 C   0  0  0  0  0  0  0  0  0  0  0  0
    2.3619    1.4987    0.0000 C   0  0  0  0  0  0  0  0  0  0  0  0
  1  2  1  0  0  0  0
  1  3  1  0  0  0  0
  1  4  2  0  0  0  0
  2  5  2  0  0  0  0
  2  6  1  0  0  0  0
  3  7  2  0  0  0  0
  3  8  1  0  0  0  0
  4  9  1  0  0  0  0
  5  9  1  0  0  0  0
  7 10  1  0  0  0  0
 10 11  1  0  0  0  0
 11 12  1  0  0  0  0
 12 13  3  0  0  0  0
M  END
> <CdId>
18

> <Mol Weight>
181.1521

> <Formula>
C6H7N5O2

> <Click_ID>
CLK001_B09 __ __ 

$$$$
