CLK007_H07
 OpenBabel03181413202D

 24 26  0  0  0  0  0  0  0  0999 V2000
    0.1797   -0.4146    0.0000 C    0  0  0  0  0  0  0  0  0  0  0  0
    0.8915    0.0000    0.0000 C    0  0  3  0  0  0  0  0  0  0  0  0
    0.1797   -1.2334    0.0000 C    0  0  0  0  0  0  0  0  0  0  0  0
   -0.5356    0.0069    0.0000 C    0  0  0  0  0  0  0  0  0  0  0  0
    0.8915    0.8257    0.0000 C    0  0  0  0  0  0  0  0  0  0  0  0
    1.6066   -0.4077    0.0000 C    0  0  0  0  0  0  0  0  0  0  0  0
   -0.5356   -1.6446    0.0000 N    0  0  0  0  0  0  0  0  0  0  0  0
    0.8915   -1.6446    0.0000 N    0  0  0  0  0  0  0  0  0  0  0  0
   -1.2404   -0.4146    0.0000 N    0  0  0  0  0  0  0  0  0  0  0  0
   -0.5356    0.8326    0.0000 O    0  0  0  0  0  0  0  0  0  0  0  0
    1.6066    1.2334    0.0000 C    0  0  0  0  0  0  0  0  0  0  0  0
    0.1797    1.2334    0.0000 C    0  0  0  0  0  0  0  0  0  0  0  0
    1.6066   -1.2334    0.0000 C    0  0  0  0  0  0  0  0  0  0  0  0
   -1.2404   -1.2404    0.0000 C    0  0  0  0  0  0  0  0  0  0  0  0
    1.6066    2.0627    0.0000 C    0  0  0  0  0  0  0  0  0  0  0  0
    2.3218    0.8223    0.0000 F    0  0  0  0  0  0  0  0  0  0  0  0
    0.1658    2.0524    0.0000 C    0  0  0  0  0  0  0  0  0  0  0  0
   -0.5390    1.6481    0.0000 Cl   0  0  0  0  0  0  0  0  0  0  0  0
    2.3218   -1.6446    0.0000 O    0  0  0  0  0  0  0  0  0  0  0  0
   -1.9625   -1.6550    0.0000 S    0  0  0  0  0  0  0  0  0  0  0  0
    0.8880    2.4739    0.0000 C    0  0  0  0  0  0  0  0  0  0  0  0
   -2.6777   -1.2404    0.0000 C    0  0  0  0  0  0  0  0  0  0  0  0
   -2.6777   -0.4146    0.0000 C    0  0  0  0  0  0  0  0  0  0  0  0
   -3.3895    0.0000    0.0000 C    0  0  0  0  0  0  0  0  0  0  0  0
  1  2  1  0  0  0  0
  1  3  2  0  0  0  0
  1  4  1  0  0  0  0
  2  5  1  0  0  0  0
  2  6  1  0  0  0  0
  3  7  1  0  0  0  0
  3  8  1  0  0  0  0
  4  9  1  0  0  0  0
  4 10  2  0  0  0  0
  5 11  2  0  0  0  0
  5 12  1  0  0  0  0
  6 13  1  0  0  0  0
  7 14  2  0  0  0  0
  8 13  1  0  0  0  0
  9 14  1  0  0  0  0
 11 15  1  0  0  0  0
 11 16  1  0  0  0  0
 12 17  2  0  0  0  0
 12 18  1  0  0  0  0
 13 19  2  0  0  0  0
 14 20  1  0  0  0  0
 15 21  2  0  0  0  0
 17 21  1  0  0  0  0
 20 22  1  0  0  0  0
 22 23  1  0  0  0  0
 23 24  3  0  0  0  0
M  END
> <CdId>
556

> <Mol Weight>
363.794

> <Formula>
C16H11ClFN3O2S

> <Click_ID>
CLK007_H07 __ __ 

$$$$
