CLK007_B05
 OpenBabel03181413202D

 29 32  0  0  0  0  0  0  0  0999 V2000
    0.6551   -1.8757    0.0000 C    0  0  0  0  0  0  0  0  0  0  0  0
    0.5723   -1.0585    0.0000 C    0  0  0  0  0  0  0  0  0  0  0  0
    1.4584   -2.0584    0.0000 C    0  0  0  0  0  0  0  0  0  0  0  0
    0.0966   -2.4859    0.0000 C    0  0  0  0  0  0  0  0  0  0  0  0
    1.3240   -0.7240    0.0000 C    0  0  0  0  0  0  0  0  0  0  0  0
   -0.1414   -0.6447    0.0000 C    0  0  0  0  0  0  0  0  0  0  0  0
    1.8722   -1.3447    0.0000 N    0  0  0  0  0  0  0  0  0  0  0  0
    1.7101   -2.8376    0.0000 C    0  0  0  0  0  0  0  0  0  0  0  0
    0.3483   -3.2755    0.0000 C    0  0  0  0  0  0  0  0  0  0  0  0
   -0.1414    0.1793    0.0000 C    0  0  0  0  0  0  0  0  0  0  0  0
    2.6963   -1.2620    0.0000 C    0  0  0  0  0  0  0  0  0  0  0  0
    1.1551   -3.4479    0.0000 C    0  0  0  0  0  0  0  0  0  0  0  0
   -0.8447    0.5930    0.0000 C    0  0  0  0  0  0  0  0  0  0  0  0
    0.5792    0.5861    0.0000 C    0  0  0  0  0  0  0  0  0  0  0  0
    3.1721   -1.9377    0.0000 C    0  0  0  0  0  0  0  0  0  0  0  0
   -0.8413    1.4170    0.0000 N    0  0  0  0  0  0  0  0  0  0  0  0
   -1.5653    0.1862    0.0000 O    0  0  0  0  0  0  0  0  0  0  0  0
    0.5861    1.4136    0.0000 N    0  0  0  0  0  0  0  0  0  0  0  0
    1.2930    0.1759    0.0000 O    0  0  0  0  0  0  0  0  0  0  0  0
    3.6168   -2.6342    0.0000 C    0  0  0  0  0  0  0  0  0  0  0  0
   -1.5550    1.8308    0.0000 C    0  0  0  0  0  0  0  0  0  0  0  0
   -0.1276    1.8308    0.0000 C    0  0  0  0  0  0  0  0  0  0  0  0
   -2.2756    1.4170    0.0000 C    0  0  0  0  0  0  0  0  0  0  0  0
   -1.5550    2.6618    0.0000 C    0  0  0  0  0  0  0  0  0  0  0  0
   -0.1276    2.6549    0.0000 O    0  0  0  0  0  0  0  0  0  0  0  0
   -2.9894    1.8308    0.0000 C    0  0  0  0  0  0  0  0  0  0  0  0
   -2.2756    3.0756    0.0000 C    0  0  0  0  0  0  0  0  0  0  0  0
   -2.9894    2.6618    0.0000 C    0  0  0  0  0  0  0  0  0  0  0  0
   -3.7134    3.0756    0.0000 Cl   0  0  0  0  0  0  0  0  0  0  0  0
  1  2  1  0  0  0  0
  1  3  1  0  0  0  0
  1  4  2  0  0  0  0
  2  5  2  0  0  0  0
  2  6  1  0  0  0  0
  3  7  1  0  0  0  0
  3  8  2  0  0  0  0
  4  9  1  0  0  0  0
  5  7  1  0  0  0  0
  6 10  2  0  0  0  0
  7 11  1  0  0  0  0
  8 12  1  0  0  0  0
  9 12  2  0  0  0  0
 10 13  1  0  0  0  0
 10 14  1  0  0  0  0
 11 15  1  0  0  0  0
 13 16  1  0  0  0  0
 13 17  2  0  0  0  0
 14 18  1  0  0  0  0
 14 19  2  0  0  0  0
 15 20  3  0  0  0  0
 16 21  1  0  0  0  0
 16 22  1  0  0  0  0
 18 22  1  0  0  0  0
 21 23  1  0  0  0  0
 21 24  2  0  0  0  0
 22 25  2  0  0  0  0
 23 26  2  0  0  0  0
 24 27  1  0  0  0  0
 26 28  1  0  0  0  0
 27 28  2  0  0  0  0
 28 29  1  0  0  0  0
M  END
> <CdId>
494

> <Mol Weight>
403.818

> <Formula>
C22H14ClN3O3

> <Click_ID>
CLK007_B05 __ __ 

$$$$
