CLK045B02
 OpenBabel03181413202D

 26 28  0  0  0  0  0  0  0  0999 V2000
    0.5951    0.8073    0.0000 S   0  0  0  0  0  0  0  0  0  0  0  0
    0.3413    1.5938    0.0000 N   0  0  0  0  0  0  0  0  0  0  0  0
    0.5535   -1.3733    0.0000 C   0  0  0  0  0  0  0  0  0  0  0  0
    0.8490    0.0250    0.0000 C   0  0  0  0  0  0  0  0  0  0  0  0
   -0.4453    1.8477    0.0000 C   0  0  0  0  0  0  0  0  0  0  0  0
    0.2954   -0.5868    0.0000 C   0  0  0  0  0  0  0  0  0  0  0  0
    0.0000   -1.9851    0.0000 C   0  0  0  0  0  0  0  0  0  0  0  0
    0.8240    2.2597    0.0000 C   0  0  0  0  0  0  0  0  0  0  0  0
   -0.1915    0.5535    0.0000 O   0  0  0  0  0  0  0  0  0  0  0  0
    1.3775    1.0612    0.0000 O   0  0  0  0  0  0  0  0  0  0  0  0
   -2.1640   -2.2514    0.0000 C   0  0  0  0  0  0  0  0  0  0  0  0
   -2.9672   -2.0808    0.0000 C   0  0  0  0  0  0  0  0  0  0  0  0
    1.3566   -1.5439    0.0000 C   0  0  0  0  0  0  0  0  0  0  0  0
   -0.4453    2.6717    0.0000 C   0  0  0  0  0  0  0  0  0  0  0  0
    1.6563   -0.1456    0.0000 C   0  0  0  0  0  0  0  0  0  0  0  0
    0.2539   -2.7674    0.0000 O   0  0  0  0  0  0  0  0  0  0  0  0
    0.3413    2.9256    0.0000 C   0  0  0  0  0  0  0  0  0  0  0  0
    1.9102   -0.9322    0.0000 C   0  0  0  0  0  0  0  0  0  0  0  0
   -0.8073   -1.8103    0.0000 N   0  0  0  0  0  0  0  0  0  0  0  0
   -1.3566   -2.4262    0.0000 C   0  0  0  0  0  0  0  0  0  0  0  0
    1.6105   -2.3263    0.0000 O   0  0  0  0  0  0  0  0  0  0  0  0
   -1.1569    1.4357    0.0000 C   0  0  0  0  0  0  0  0  0  0  0  0
   -1.1569    3.0837    0.0000 C   0  0  0  0  0  0  0  0  0  0  0  0
    2.4178   -2.4969    0.0000 C   0  0  0  0  0  0  0  0  0  0  0  0
   -1.8727    1.8477    0.0000 C   0  0  0  0  0  0  0  0  0  0  0  0
   -1.8727    2.6717    0.0000 C   0  0  0  0  0  0  0  0  0  0  0  0
  2  1  1  0  0  0  0
  3  6  1  0  0  0  0
  4  1  1  0  0  0  0
  5  2  1  0  0  0  0
  6  4  2  0  0  0  0
  7  3  1  0  0  0  0
  8  2  1  0  0  0  0
  9  1  2  0  0  0  0
 10  1  2  0  0  0  0
 11 20  1  0  0  0  0
 12 11  3  0  0  0  0
 13  3  2  0  0  0  0
 14  5  2  0  0  0  0
 14 17  1  0  0  0  0
 15  4  1  0  0  0  0
 16  7  2  0  0  0  0
 17  8  1  0  0  0  0
 18 15  2  0  0  0  0
 18 13  1  0  0  0  0
 19  7  1  0  0  0  0
 20 19  1  0  0  0  0
 21 13  1  0  0  0  0
 22  5  1  0  0  0  0
 23 14  1  0  0  0  0
 24 21  1  0  0  0  0
 25 22  2  0  0  0  0
 25 26  1  0  0  0  0
 26 23  2  0  0  0  0
M  END
> <CdId>
3410

> <Mol Weight>
370.422

> <Formula>
C19H18N2O4S

> <Click_ID>
CLK045B02 __ __ 

$$$$
