CLK015_B03
 OpenBabel03181413202D

 29 31  0  0  0  0  0  0  0  0999 V2000
    2.4095   -1.5850    0.0000 N    0  0  0  0  0  0  0  0  0  0  0  0
    0.9803   -1.5850    0.0000 C    0  0  0  0  0  0  0  0  0  0  0  0
    1.6949   -1.1727    0.0000 C    0  0  0  0  0  0  0  0  0  0  0  0
    2.4095   -2.4095    0.0000 C    0  0  0  0  0  0  0  0  0  0  0  0
    1.6949   -2.8218    0.0000 N    0  0  0  0  0  0  0  0  0  0  0  0
    0.9803   -2.4095    0.0000 C    0  0  0  0  0  0  0  0  0  0  0  0
    0.2657   -1.1727    0.0000 C    0  0  0  0  0  0  0  0  0  0  0  0
   -1.8781   -2.4049    0.0000 C    0  0  0  0  0  0  0  0  0  0  0  0
   -1.8781   -1.5804    0.0000 C    0  0  0  0  0  0  0  0  0  0  0  0
   -1.1635   -2.8172    0.0000 C    0  0  0  0  0  0  0  0  0  0  0  0
    3.1241   -1.1727    0.0000 C    0  0  0  0  0  0  0  0  0  0  0  0
   -0.4489   -1.5850    0.0000 C    0  0  0  0  0  0  0  0  0  0  0  0
   -3.3073   -4.0586    0.0000 C    0  0  0  0  0  0  0  0  0  0  0  0
    3.1241   -2.8218    0.0000 O    0  0  0  0  0  0  0  0  0  0  0  0
   -3.3073   -4.8832    0.0000 C    0  0  0  0  0  0  0  0  0  0  0  0
    1.6949   -0.3482    0.0000 O    0  0  0  0  0  0  0  0  0  0  0  0
   -0.4489   -2.4049    0.0000 C    0  0  0  0  0  0  0  0  0  0  0  0
   -1.1635   -1.1727    0.0000 C    0  0  0  0  0  0  0  0  0  0  0  0
    0.2657   -2.8218    0.0000 O    0  0  0  0  0  0  0  0  0  0  0  0
    3.8387   -1.5850    0.0000 C    0  0  0  0  0  0  0  0  0  0  0  0
    3.1241   -0.3482    0.0000 C    0  0  0  0  0  0  0  0  0  0  0  0
   -2.5927   -1.1681    0.0000 Cl   0  0  0  0  0  0  0  0  0  0  0  0
   -1.1635   -3.6417    0.0000 Cl   0  0  0  0  0  0  0  0  0  0  0  0
   -2.5927   -2.8172    0.0000 O    0  0  0  0  0  0  0  0  0  0  0  0
    4.5533   -0.3482    0.0000 C    0  0  0  0  0  0  0  0  0  0  0  0
    4.5533   -1.1727    0.0000 C    0  0  0  0  0  0  0  0  0  0  0  0
    3.8387    0.0641    0.0000 C    0  0  0  0  0  0  0  0  0  0  0  0
   -2.5927   -3.6463    0.0000 C    0  0  0  0  0  0  0  0  0  0  0  0
    5.2679    0.0641    0.0000 O    0  0  0  0  0  0  0  0  0  0  0  0
  2  3  1  0  0  0  0
  2  6  1  0  0  0  0
  3  1  1  0  0  0  0
  4  1  1  0  0  0  0
  5  4  1  0  0  0  0
  6  5  1  0  0  0  0
  7  2  2  0  0  0  0
  8  9  1  0  0  0  0
  9 18  2  0  0  0  0
 10 17  1  0  0  0  0
 10  8  2  0  0  0  0
 11  1  1  0  0  0  0
 12  7  1  0  0  0  0
 13 28  1  0  0  0  0
 14  4  2  0  0  0  0
 15 13  3  0  0  0  0
 16  3  2  0  0  0  0
 17 12  2  0  0  0  0
 18 12  1  0  0  0  0
 19  6  2  0  0  0  0
 20 11  1  0  0  0  0
 21 11  2  0  0  0  0
 22  9  1  0  0  0  0
 23 10  1  0  0  0  0
 24  8  1  0  0  0  0
 25 27  2  0  0  0  0
 26 20  2  0  0  0  0
 26 25  1  0  0  0  0
 27 21  1  0  0  0  0
 28 24  1  0  0  0  0
 29 25  1  0  0  0  0
M  END
> <CdId>
1088

> <Mol Weight>
431.226

> <Formula>
C20H12Cl2N2O5

> <Click_ID>
CLK015_B03 __ __ 

$$$$
