CLK012_C07
 OpenBabel03181413202D

 24 26  0  0  0  0  0  0  0  0999 V2000
    1.6209   -0.7326    0.0000 C    0  0  3  0  0  0  0  0  0  0  0  0
    2.0101   -1.4607    0.0000 C    0  0  0  0  0  0  0  0  0  0  0  0
    1.4332   -2.0513    0.0000 N    0  0  0  0  0  0  0  0  0  0  0  0
    0.8105   -0.8791    0.0000 C    0  0  0  0  0  0  0  0  0  0  0  0
    0.6914   -1.6942    0.0000 C    0  0  0  0  0  0  0  0  0  0  0  0
    2.5459   -0.1008    0.0000 C    0  0  0  0  0  0  0  0  0  0  0  0
    3.3426   -0.5220    0.0000 C    0  0  0  0  0  0  0  0  0  0  0  0
    0.9387   -3.3975    0.0000 C    0  0  0  0  0  0  0  0  0  0  0  0
    0.3068   -3.9195    0.0000 C    0  0  0  0  0  0  0  0  0  0  0  0
    4.0385   -0.0733    0.0000 C    0  0  0  0  0  0  0  0  0  0  0  0
    2.8206   -1.5797    0.0000 O    0  0  0  0  0  0  0  0  0  0  0  0
    1.5706   -2.8618    0.0000 C    0  0  0  0  0  0  0  0  0  0  0  0
    1.3599    0.2014    0.0000 O    0  0  0  0  0  0  0  0  0  0  0  0
    4.7666   -0.4579    0.0000 C    0  0  0  0  0  0  0  0  0  0  0  0
    3.3700   -1.2088    0.0000 O    0  0  0  0  0  0  0  0  0  0  0  0
    5.4580   -0.0137    0.0000 C    0  0  0  0  0  0  0  0  0  0  0  0
    0.1648   -0.3618    0.0000 C    0  0  0  0  0  0  0  0  0  0  0  0
    6.1951   -0.3892    0.0000 Br   0  0  0  0  0  0  0  0  0  0  0  0
   -0.0687   -1.9964    0.0000 C    0  0  0  0  0  0  0  0  0  0  0  0
    4.0019    0.7509    0.0000 C    0  0  0  0  0  0  0  0  0  0  0  0
    4.6888    1.1905    0.0000 C    0  0  0  0  0  0  0  0  0  0  0  0
    5.4259    0.8105    0.0000 C    0  0  0  0  0  0  0  0  0  0  0  0
   -0.5998   -0.6731    0.0000 C    0  0  0  0  0  0  0  0  0  0  0  0
   -0.7234   -1.4882    0.0000 C    0  0  0  0  0  0  0  0  0  0  0  0
  2  1  1  0  0  0  0
  3  2  1  0  0  0  0
  4  1  1  0  0  0  0
  5  4  2  0  0  0  0
  5  3  1  0  0  0  0
  6  1  1  0  0  0  0
  7  6  1  0  0  0  0
  8 12  1  0  0  0  0
  9  8  3  0  0  0  0
 10  7  1  0  0  0  0
 11  2  2  0  0  0  0
 12  3  1  0  0  0  0
 13  1  1  0  0  0  0
 14 10  1  0  0  0  0
 15  7  2  0  0  0  0
 16 14  2  0  0  0  0
 16 22  1  0  0  0  0
 17  4  1  0  0  0  0
 18 16  1  0  0  0  0
 19  5  1  0  0  0  0
 20 10  2  0  0  0  0
 21 20  1  0  0  0  0
 22 21  2  0  0  0  0
 23 17  2  0  0  0  0
 24 23  1  0  0  0  0
 24 19  2  0  0  0  0
M  END
> <CdId>
862

> <Mol Weight>
384.223

> <Formula>
C19H14BrNO3

> <Click_ID>
CLK012_C07 __ __ 

$$$$
