CLK031_A09
 OpenBabel03181413202D

 36 39  0  0  0  0  0  0  0  0999 V2000
   -1.1625    2.3833    0.0000 C   0  0  0  0  0  0  0  0  0  0  0  0
    3.3792    3.0708    0.0000 S   0  0  0  0  0  0  0  0  0  0  0  0
   -0.3375    2.3750    0.0000 N   0  0  0  0  0  0  0  0  0  0  0  0
   -4.5833    3.2125    0.0000 S   0  0  0  0  0  0  0  0  0  0  0  0
   -1.6458    1.7208    0.0000 N   0  0  0  0  0  0  0  0  0  0  0  0
   -1.6458    3.0500    0.0000 S   0  0  0  0  0  0  0  0  0  0  0  0
   -2.4333    2.7958    0.0000 C   0  0  0  0  0  0  0  0  0  0  0  0
   -2.4333    1.9708    0.0000 C   0  0  0  0  0  0  0  0  0  0  0  0
    3.3750    2.2375    0.0000 N   0  0  0  0  0  0  0  0  0  0  0  0
    0.0750    3.0875    0.0000 C   0  0  0  0  0  0  0  0  0  0  0  0
   -3.8583    2.7958    0.0000 C   0  0  0  0  0  0  0  0  0  0  0  0
   -3.1458    3.2083    0.0000 C   0  0  0  0  0  0  0  0  0  0  0  0
    2.5542    3.0708    0.0000 C   0  0  0  0  0  0  0  0  0  0  0  0
    4.2042    3.0625    0.0000 O   0  0  0  0  0  0  0  0  0  0  0  0
    3.3917    3.9000    0.0000 O   0  0  0  0  0  0  0  0  0  0  0  0
   -1.9458    0.3208    0.0000 C   0  0  0  0  0  0  0  0  0  0  0  0
   -3.1458    1.5583    0.0000 C   0  0  0  0  0  0  0  0  0  0  0  0
   -2.4958   -0.2917    0.0000 C   0  0  0  0  0  0  0  0  0  0  0  0
   -5.0208    2.5083    0.0000 O   0  0  0  0  0  0  0  0  0  0  0  0
   -4.1458    3.9083    0.0000 O   0  0  0  0  0  0  0  0  0  0  0  0
    0.9000    3.0875    0.0000 C   0  0  0  0  0  0  0  0  0  0  0  0
   -5.2833    3.6458    0.0000 N   0  0  0  0  0  0  0  0  0  0  0  0
   -0.3375    3.8000    0.0000 O   0  0  0  0  0  0  0  0  0  0  0  0
   -3.8583    1.9708    0.0000 C   0  0  0  0  0  0  0  0  0  0  0  0
    4.0792    1.8250    0.0000 C   0  0  0  0  0  0  0  0  0  0  0  0
   -1.3958    0.9333    0.0000 C   0  0  0  0  0  0  0  0  0  0  0  0
    2.1417    3.8000    0.0000 C   0  0  0  0  0  0  0  0  0  0  0  0
    2.1292    2.3583    0.0000 C   0  0  0  0  0  0  0  0  0  0  0  0
    1.3042    3.8000    0.0000 C   0  0  0  0  0  0  0  0  0  0  0  0
    1.3042    2.3708    0.0000 C   0  0  0  0  0  0  0  0  0  0  0  0
    2.6542    1.8333    0.0000 C   0  0  0  0  0  0  0  0  0  0  0  0
    4.0792    0.9958    0.0000 C   0  0  0  0  0  0  0  0  0  0  0  0
    4.8042    2.2333    0.0000 C   0  0  0  0  0  0  0  0  0  0  0  0
    5.5167    1.8125    0.0000 C   0  0  0  0  0  0  0  0  0  0  0  0
    4.7917    0.5750    0.0000 C   0  0  0  0  0  0  0  0  0  0  0  0
    5.5167    0.9833    0.0000 C   0  0  0  0  0  0  0  0  0  0  0  0
  2 13  1  0  0  0  0
  3  1  2  0  0  0  0
  4 11  1  0  0  0  0
  5  1  1  0  0  0  0
  6  1  1  0  0  0  0
  7  6  1  0  0  0  0
  7  8  2  0  0  0  0
  8  5  1  0  0  0  0
  9  2  1  0  0  0  0
 10  3  1  0  0  0  0
 11 12  2  0  0  0  0
 11 24  1  0  0  0  0
 12  7  1  0  0  0  0
 13 28  2  0  0  0  0
 14  2  2  0  0  0  0
 15  2  2  0  0  0  0
 16 26  1  0  0  0  0
 17  8  1  0  0  0  0
 18 16  3  0  0  0  0
 19  4  2  0  0  0  0
 20  4  2  0  0  0  0
 21 10  1  0  0  0  0
 22  4  1  0  0  0  0
 23 10  2  0  0  0  0
 24 17  2  0  0  0  0
 25  9  1  0  0  0  0
 26  5  1  0  0  0  0
 27 29  2  0  0  0  0
 27 13  1  0  0  0  0
 28 30  1  0  0  0  0
 29 21  1  0  0  0  0
 30 21  2  0  0  0  0
 31  9  1  0  0  0  0
 32 25  2  0  0  0  0
 33 25  1  0  0  0  0
 34 33  2  0  0  0  0
 35 32  1  0  0  0  0
 36 34  1  0  0  0  0
 36 35  2  0  0  0  0
M  END
> <CdId>
2333

> <Mol Weight>
540.634

> <Formula>
C24H20N4O5S3

> <Click_ID>
CLK031_A09 __ __ 

$$$$
