CLK021_H09
 OpenBabel03181413202D

 25 27  0  0  0  0  0  0  0  0999 V2000
    3.5639    2.5240    0.0000 C    0  0  3  0  0  0  0  0  0  0  0  0
    2.8905    3.0050    0.0000 C    0  0  0  0  0  0  0  0  0  0  0  0
    2.2309    2.5240    0.0000 N    0  0  0  0  0  0  0  0  0  0  0  0
    3.3028    1.7407    0.0000 C    0  0  0  0  0  0  0  0  0  0  0  0
    2.4782    1.7407    0.0000 C    0  0  0  0  0  0  0  0  0  0  0  0
    4.3151    2.1850    0.0000 C    0  0  0  0  0  0  0  0  0  0  0  0
    4.8832    2.7851    0.0000 C    0  0  0  0  0  0  0  0  0  0  0  0
    5.6893    2.5789    0.0000 C    0  0  0  0  0  0  0  0  0  0  0  0
    6.2574    3.1836    0.0000 C    0  0  0  0  0  0  0  0  0  0  0  0
    0.9391    2.1254    0.0000 C    0  0  0  0  0  0  0  0  0  0  0  0
    0.4306    1.4796    0.0000 C    0  0  0  0  0  0  0  0  0  0  0  0
    7.0636    2.9775    0.0000 C    0  0  0  0  0  0  0  0  0  0  0  0
    5.9138    1.7865    0.0000 C    0  0  0  0  0  0  0  0  0  0  0  0
    2.8905    3.8295    0.0000 O    0  0  0  0  0  0  0  0  0  0  0  0
    4.7320    3.3348    0.0000 O    0  0  0  0  0  0  0  0  0  0  0  0
    1.4429    2.7760    0.0000 C    0  0  0  0  0  0  0  0  0  0  0  0
    3.9762    3.2386    0.0000 O    0  0  0  0  0  0  0  0  0  0  0  0
    7.2881    2.1804    0.0000 C    0  0  0  0  0  0  0  0  0  0  0  0
    6.0329    3.9669    0.0000 Cl   0  0  0  0  0  0  0  0  0  0  0  0
    6.7109    1.5895    0.0000 C    0  0  0  0  0  0  0  0  0  0  0  0
    3.7151    1.0261    0.0000 C    0  0  0  0  0  0  0  0  0  0  0  0
    8.0851    1.9880    0.0000 Cl   0  0  0  0  0  0  0  0  0  0  0  0
    2.0660    1.0261    0.0000 C    0  0  0  0  0  0  0  0  0  0  0  0
    3.3028    0.3115    0.0000 C    0  0  0  0  0  0  0  0  0  0  0  0
    2.4782    0.3115    0.0000 C    0  0  0  0  0  0  0  0  0  0  0  0
  2  1  1  0  0  0  0
  3  2  1  0  0  0  0
  4  1  1  0  0  0  0
  5  4  2  0  0  0  0
  5  3  1  0  0  0  0
  6  1  1  0  0  0  0
  7  6  1  0  0  0  0
  8  7  1  0  0  0  0
  9  8  1  0  0  0  0
 10 16  1  0  0  0  0
 11 10  3  0  0  0  0
 12  9  2  0  0  0  0
 12 18  1  0  0  0  0
 13  8  2  0  0  0  0
 14  2  2  0  0  0  0
 15  7  2  0  0  0  0
 16  3  1  0  0  0  0
 17  1  1  0  0  0  0
 18 20  2  0  0  0  0
 19  9  1  0  0  0  0
 20 13  1  0  0  0  0
 21  4  1  0  0  0  0
 22 18  1  0  0  0  0
 23  5  1  0  0  0  0
 24 21  2  0  0  0  0
 25 24  1  0  0  0  0
 25 23  2  0  0  0  0
M  END
> <CdId>
1634

> <Mol Weight>
374.217

> <Formula>
C19H13Cl2NO3

> <Click_ID>
CLK021_H09 __ __ 

$$$$
