CLK036_H05
 OpenBabel03181413202D

 28 30  0  0  0  0  0  0  0  0999 V2000
   -0.4672    4.8694    0.0000 C   0  0  0  0  0  0  0  0  0  0  0  0
   -0.0550    4.1456    0.0000 N   0  0  0  0  0  0  0  0  0  0  0  0
   -1.2780    4.9519    0.0000 N   0  0  0  0  0  0  0  0  0  0  0  0
   -0.1328    5.6252    0.0000 S   0  0  0  0  0  0  0  0  0  0  0  0
    2.4233    1.2734    0.0000 S   0  0  0  0  0  0  0  0  0  0  0  0
   -1.4521    8.2363    0.0000 N   0  3  0  0  0  0  0  0  0  0  0  0
   -0.7421    6.1749    0.0000 C   0  0  0  0  0  0  0  0  0  0  0  0
   -1.4521    5.7627    0.0000 C   0  0  0  0  0  0  0  0  0  0  0  0
    0.7742    4.1456    0.0000 C   0  0  0  0  0  0  0  0  0  0  0  0
   -0.7421    6.9995    0.0000 C   0  0  0  0  0  0  0  0  0  0  0  0
   -1.4521    7.4118    0.0000 C   0  0  0  0  0  0  0  0  0  0  0  0
    2.0110    2.0018    0.0000 C   0  0  0  0  0  0  0  0  0  0  0  0
   -1.5620    3.5684    0.0000 C   0  0  0  0  0  0  0  0  0  0  0  0
   -2.1667    6.1749    0.0000 C   0  0  0  0  0  0  0  0  0  0  0  0
   -1.3009    2.7851    0.0000 C   0  0  0  0  0  0  0  0  0  0  0  0
   -0.7421    8.6486    0.0000 O   0  5  0  0  0  0  0  0  0  0  0  0
    1.1865    3.4310    0.0000 C   0  0  0  0  0  0  0  0  0  0  0  0
    3.1516    1.6857    0.0000 O   0  0  0  0  0  0  0  0  0  0  0  0
    1.7041    0.8612    0.0000 O   0  0  0  0  0  0  0  0  0  0  0  0
   -2.1667    8.6486    0.0000 O   0  0  0  0  0  0  0  0  0  0  0  0
    1.1865    4.8419    0.0000 O   0  0  0  0  0  0  0  0  0  0  0  0
   -2.1667    6.9995    0.0000 C   0  0  0  0  0  0  0  0  0  0  0  0
   -1.8231    4.3380    0.0000 C   0  0  0  0  0  0  0  0  0  0  0  0
    2.4233    2.7164    0.0000 C   0  0  0  0  0  0  0  0  0  0  0  0
    1.1865    2.0018    0.0000 C   0  0  0  0  0  0  0  0  0  0  0  0
    2.0110    3.4310    0.0000 C   0  0  0  0  0  0  0  0  0  0  0  0
    0.7742    2.7164    0.0000 C   0  0  0  0  0  0  0  0  0  0  0  0
    2.8355    0.5497    0.0000 C   0  0  0  0  0  0  0  0  0  0  0  0
  2  1  2  0  0  0  0
  3  1  1  0  0  0  0
  4  1  1  0  0  0  0
  5 12  1  0  0  0  0
  6 11  1  0  0  0  0
  7  4  1  0  0  0  0
  8  3  1  0  0  0  0
  8  7  2  0  0  0  0
  9  2  1  0  0  0  0
 10  7  1  0  0  0  0
 11 10  2  0  0  0  0
 12 25  2  0  0  0  0
 13 23  1  0  0  0  0
 14  8  1  0  0  0  0
 15 13  3  0  0  0  0
 16  6  1  0  0  0  0
 17  9  1  0  0  0  0
 18  5  2  0  0  0  0
 19  5  2  0  0  0  0
 20  6  2  0  0  0  0
 21  9  2  0  0  0  0
 22 14  2  0  0  0  0
 22 11  1  0  0  0  0
 23  3  1  0  0  0  0
 24 26  2  0  0  0  0
 24 12  1  0  0  0  0
 25 27  1  0  0  0  0
 26 17  1  0  0  0  0
 27 17  2  0  0  0  0
 28  5  1  0  0  0  0
M  END
> <CdId>
2767

> <Mol Weight>
415.443

> <Formula>
C18H13N3O5S2

> <Click_ID>
CLK036_H05 __ __ 

$$$$
