CLK017_A05
 OpenBabel03181413202D

 23 24  0  0  0  0  0  0  0  0999 V2000
    5.7826   -2.2806    0.0000 N    0  0  0  0  0  0  0  0  0  0  0  0
    5.4379   -3.0284    0.0000 C    0  0  0  0  0  0  0  0  0  0  0  0
    5.1720   -1.7240    0.0000 C    0  0  0  0  0  0  0  0  0  0  0  0
    4.4533   -2.1353    0.0000 C    0  0  0  0  0  0  0  0  0  0  0  0
    4.6278   -2.9329    0.0000 N    0  0  0  0  0  0  0  0  0  0  0  0
    3.7056   -1.7946    0.0000 C    0  0  0  0  0  0  0  0  0  0  0  0
    1.6824   -3.2444    0.0000 C    0  0  0  0  0  0  0  0  0  0  0  0
    1.6077   -2.4095    0.0000 C    0  0  0  0  0  0  0  0  0  0  0  0
    2.4344   -3.5809    0.0000 C    0  0  0  0  0  0  0  0  0  0  0  0
    3.0326   -2.2806    0.0000 C    0  0  0  0  0  0  0  0  0  0  0  0
    5.8491   -3.7429    0.0000 S    0  0  0  0  0  0  0  0  0  0  0  0
    0.4279   -5.0349    0.0000 C    0  0  0  0  0  0  0  0  0  0  0  0
   -0.2451   -5.5084    0.0000 C    0  0  0  0  0  0  0  0  0  0  0  0
    2.2724   -1.9317    0.0000 C    0  0  0  0  0  0  0  0  0  0  0  0
    5.2634   -0.9098    0.0000 O    0  0  0  0  0  0  0  0  0  0  0  0
    3.1074   -3.0949    0.0000 C    0  0  0  0  0  0  0  0  0  0  0  0
    6.5844   -2.1104    0.0000 C    0  0  0  0  0  0  0  0  0  0  0  0
    0.8516   -2.0730    0.0000 Br   0  0  0  0  0  0  0  0  0  0  0  0
    1.0137   -3.7263    0.0000 O    0  0  0  0  0  0  0  0  0  0  0  0
    2.5216   -4.3993    0.0000 O    0  0  0  0  0  0  0  0  0  0  0  0
    1.0884   -4.5405    0.0000 C    0  0  0  0  0  0  0  0  0  0  0  0
    3.2776   -4.7399    0.0000 C    0  0  0  0  0  0  0  0  0  0  0  0
    6.8461   -1.3252    0.0000 C    0  0  0  0  0  0  0  0  0  0  0  0
  2  1  1  0  0  0  0
  3  1  1  0  0  0  0
  4  3  1  0  0  0  0
  5  2  1  0  0  0  0
  5  4  1  0  0  0  0
  6  4  2  0  0  0  0
  7  9  1  0  0  0  0
  7  8  2  0  0  0  0
  8 14  1  0  0  0  0
  9 16  2  0  0  0  0
 10  6  1  0  0  0  0
 11  2  2  0  0  0  0
 12 21  1  0  0  0  0
 13 12  3  0  0  0  0
 14 10  2  0  0  0  0
 15  3  2  0  0  0  0
 16 10  1  0  0  0  0
 17  1  1  0  0  0  0
 18  8  1  0  0  0  0
 19  7  1  0  0  0  0
 20  9  1  0  0  0  0
 21 19  1  0  0  0  0
 22 20  1  0  0  0  0
 23 17  1  0  0  0  0
M  END
> <CdId>
1240

> <Mol Weight>
395.271

> <Formula>
C16H15BrN2O3S

> <Click_ID>
CLK017_A05 __ __ 

$$$$
