CLK012_D06
 OpenBabel03181413202D

 24 25  0  0  0  0  0  0  0  0999 V2000
    1.5650   -0.8158    0.0000 N   0  0  0  0  0  0  0  0  0  0  0  0
    1.8230   -1.6024    0.0000 C   0  0  0  0  0  0  0  0  0  0  0  0
    2.2350   -0.3288    0.0000 C   0  0  0  0  0  0  0  0  0  0  0  0
    2.9010   -0.8158    0.0000 C   0  0  0  0  0  0  0  0  0  0  0  0
    2.6470   -1.6024    0.0000 S   0  0  0  0  0  0  0  0  0  0  0  0
    3.6876   -0.5619    0.0000 C   0  0  0  0  0  0  0  0  0  0  0  0
    0.6118    0.2455    0.0000 C   0  0  0  0  0  0  0  0  0  0  0  0
    0.3913    1.0446    0.0000 C   0  0  0  0  0  0  0  0  0  0  0  0
    1.3360   -2.2642    0.0000 O   0  0  0  0  0  0  0  0  0  0  0  0
    4.8113    1.2986    0.0000 C   0  0  0  0  0  0  0  0  0  0  0  0
    2.2267    0.4952    0.0000 O   0  0  0  0  0  0  0  0  0  0  0  0
    2.9842    2.9550    0.0000 C   0  0  0  0  0  0  0  0  0  0  0  0
    4.1995    1.8562    0.0000 C   0  0  0  0  0  0  0  0  0  0  0  0
    3.8582    0.2455    0.0000 C   0  0  0  0  0  0  0  0  0  0  0  0
    0.7866   -0.5619    0.0000 C   0  0  0  0  0  0  0  0  0  0  0  0
    4.6365    0.4952    0.0000 C   0  0  0  0  0  0  0  0  0  0  0  0
    4.3743    2.6553    0.0000 O   0  0  0  0  0  0  0  0  0  0  0  0
    2.8094    2.1476    0.0000 O   0  0  0  0  0  0  0  0  0  0  0  0
    3.4212    1.5940    0.0000 C   0  0  0  0  0  0  0  0  0  0  0  0
    3.7625    3.2089    0.0000 C   0  0  0  0  0  0  0  0  0  0  0  0
    2.3641    3.5044    0.0000 N   0  0  0  0  0  0  0  0  0  0  0  0
    3.2464    0.7949    0.0000 C   0  0  0  0  0  0  0  0  0  0  0  0
    5.5938    1.5483    0.0000 O   0  0  0  0  0  0  0  0  0  0  0  0
    5.7686    2.3557    0.0000 C   0  0  0  0  0  0  0  0  0  0  0  0
  2  1  1  0  0  0  0
  3  1  1  0  0  0  0
  4  3  1  0  0  0  0
  4  5  1  0  0  0  0
  5  2  1  0  0  0  0
  6  4  2  0  0  0  0
  7 15  1  0  0  0  0
  8  7  3  0  0  0  0
  9  2  2  0  0  0  0
 10 16  1  0  0  0  0
 11  3  2  0  0  0  0
 12 20  1  0  0  0  0
 13 19  1  0  0  0  0
 13 10  2  0  0  0  0
 14  6  1  0  0  0  0
 15  1  1  0  0  0  0
 16 14  2  0  0  0  0
 17 13  1  0  0  0  0
 18 12  2  0  0  0  0
 19 22  2  0  0  0  0
 20 17  1  0  0  0  0
 21 12  1  0  0  0  0
 22 14  1  0  0  0  0
 23 10  1  0  0  0  0
 24 23  1  0  0  0  0
M  END
> <CdId>
871

> <Mol Weight>
346.358

> <Formula>
C16H14N2O5S

> <Click_ID>
CLK012_D06 __ __ 

$$$$
