CLK037G09
 OpenBabel03181413202D

 24 23  0  0  0  0  0  0  0  0999 V2000
    5.4667    0.3583    0.0000 C   0  0  0  0  0  0  0  0  0  0  0  0
    5.0542   -0.3542    0.0000 C   0  0  0  0  0  0  0  0  0  0  0  0
    1.8625    3.8292    0.0000 C   0  0  0  0  0  0  0  0  0  0  0  0
    2.5792    4.2375    0.0000 C   0  0  0  0  0  0  0  0  0  0  0  0
    6.2917    0.3583    0.0000 O   0  0  0  0  0  0  0  0  0  0  0  0
    5.4667   -1.0708    0.0000 O   0  0  0  0  0  0  0  0  0  0  0  0
    5.0542    1.0750    0.0000 O   0  0  0  0  0  0  0  0  0  0  0  0
    4.2292   -0.3542    0.0000 O   0  0  0  0  0  0  0  0  0  0  0  0
   -0.9958   -2.7708    0.0000 C   0  0  0  0  0  0  0  0  0  0  0  0
   -0.2792    0.1167    0.0000 O   0  0  0  0  0  0  0  0  0  0  0  0
    1.1500    2.5917    0.0000 N   0  0  0  0  0  0  0  0  0  0  0  0
    0.4333    1.3542    0.0000 C   0  0  3  0  0  0  0  0  0  0  0  0
   -0.9958   -1.1208    0.0000 C   0  0  0  0  0  0  0  0  0  0  0  0
    1.1500    3.4167    0.0000 C   0  0  0  0  0  0  0  0  0  0  0  0
   -0.2792   -2.3583    0.0000 C   0  0  0  0  0  0  0  0  0  0  0  0
   -1.7083   -2.3583    0.0000 C   0  0  0  0  0  0  0  0  0  0  0  0
   -1.7083   -1.5333    0.0000 C   0  0  0  0  0  0  0  0  0  0  0  0
   -0.2792   -1.5333    0.0000 C   0  0  0  0  0  0  0  0  0  0  0  0
    1.1500    0.9417    0.0000 O   0  0  0  0  0  0  0  0  0  0  0  0
   -0.9958   -3.5958    0.0000 O   0  0  0  0  0  0  0  0  0  0  0  0
   -0.2792    0.9417    0.0000 C   0  0  0  0  0  0  0  0  0  0  0  0
    0.4333    2.1792    0.0000 C   0  0  0  0  0  0  0  0  0  0  0  0
   -0.9958   -0.2958    0.0000 C   0  0  0  0  0  0  0  0  0  0  0  0
   -0.2792   -4.0083    0.0000 C   0  0  0  0  0  0  0  0  0  0  0  0
  2  1  1  0  0  0  0
  4  3  3  0  0  0  0
  5  1  2  0  0  0  0
  6  2  2  0  0  0  0
  7  1  1  0  0  0  0
  8  2  1  0  0  0  0
  9 16  2  0  0  0  0
 10 21  1  0  0  0  0
 11 14  1  0  0  0  0
 12 22  1  0  0  0  0
 13 23  1  0  0  0  0
 14  3  1  0  0  0  0
 15 18  2  0  0  0  0
 15  9  1  0  0  0  0
 16 17  1  0  0  0  0
 17 13  2  0  0  0  0
 18 13  1  0  0  0  0
 19 12  1  0  0  0  0
 20  9  1  0  0  0  0
 21 12  1  0  0  0  0
 22 11  1  0  0  0  0
 23 10  1  0  0  0  0
 24 20  1  0  0  0  0
M  END
> <CdId>
2831

> <Mol Weight>
339.3404

> <Formula>
C16H21NO7

> <Click_ID>
CLK037G09 __ __ 

$$$$
