CLK023_F02
 OpenBabel03181413202D

 32 34  0  0  0  0  0  0  0  0999 V2000
   -1.0585   -1.2476    0.0000 N    0  0  0  0  0  0  0  0  0  0  0  0
   -1.4744   -0.5327    0.0000 C    0  0  0  0  0  0  0  0  0  0  0  0
   -0.2543   -1.0791    0.0000 C    0  0  0  0  0  0  0  0  0  0  0  0
   -0.1650   -0.2578    0.0000 C    0  0  0  0  0  0  0  0  0  0  0  0
   -0.9176    0.0790    0.0000 N    0  0  0  0  0  0  0  0  0  0  0  0
    0.5499    0.1547    0.0000 C    0  0  0  0  0  0  0  0  0  0  0  0
    0.5533    2.6257    0.0000 C    0  0  0  0  0  0  0  0  0  0  0  0
   -1.3988   -2.0002    0.0000 C    0  0  0  0  0  0  0  0  0  0  0  0
   -0.1650    2.2167    0.0000 C    0  0  0  0  0  0  0  0  0  0  0  0
    1.2647    2.2133    0.0000 C    0  0  0  0  0  0  0  0  0  0  0  0
   -2.2202   -2.0862    0.0000 C    0  0  0  0  0  0  0  0  0  0  0  0
    0.5499    0.9795    0.0000 C    0  0  0  0  0  0  0  0  0  0  0  0
   -0.1581    4.6878    0.0000 C    0  0  0  0  0  0  0  0  0  0  0  0
   -0.1581    5.5126    0.0000 C    0  0  0  0  0  0  0  0  0  0  0  0
   -2.2924   -0.4433    0.0000 O    0  0  0  0  0  0  0  0  0  0  0  0
   -2.5570   -2.8388    0.0000 N    0  0  0  0  0  0  0  0  0  0  0  0
    0.3574   -1.6325    0.0000 O    0  0  0  0  0  0  0  0  0  0  0  0
   -0.1650    1.3884    0.0000 C    0  0  0  0  0  0  0  0  0  0  0  0
    1.2647    1.3919    0.0000 C    0  0  0  0  0  0  0  0  0  0  0  0
   -2.7013   -1.4160    0.0000 O    0  0  0  0  0  0  0  0  0  0  0  0
   -0.8764    2.6292    0.0000 Br   0  0  0  0  0  0  0  0  0  0  0  0
   -2.0724   -3.5056    0.0000 C    0  0  0  0  0  0  0  0  0  0  0  0
    0.5533    3.4505    0.0000 O    0  0  0  0  0  0  0  0  0  0  0  0
    1.9831    2.6257    0.0000 O    0  0  0  0  0  0  0  0  0  0  0  0
   -1.1067   -4.8425    0.0000 C    0  0  0  0  0  0  0  0  0  0  0  0
   -2.4092   -4.2582    0.0000 C    0  0  0  0  0  0  0  0  0  0  0  0
   -1.2510   -3.4231    0.0000 C    0  0  0  0  0  0  0  0  0  0  0  0
   -0.7698   -4.0898    0.0000 C    0  0  0  0  0  0  0  0  0  0  0  0
   -1.9246   -4.9284    0.0000 C    0  0  0  0  0  0  0  0  0  0  0  0
   -0.1581    3.8596    0.0000 C    0  0  0  0  0  0  0  0  0  0  0  0
   -0.6221   -5.5126    0.0000 C    0  0  0  0  0  0  0  0  0  0  0  0
    2.6979    2.2133    0.0000 C    0  0  0  0  0  0  0  0  0  0  0  0
  2  1  1  0  0  0  0
  3  1  1  0  0  0  0
  4  3  1  0  0  0  0
  5  2  1  0  0  0  0
  5  4  1  0  0  0  0
  6  4  2  0  0  0  0
  7 10  2  0  0  0  0
  8  1  1  0  0  0  0
  9 18  2  0  0  0  0
  9  7  1  0  0  0  0
 10 19  1  0  0  0  0
 11  8  1  0  0  0  0
 12  6  1  0  0  0  0
 13 30  1  0  0  0  0
 14 13  3  0  0  0  0
 15  2  2  0  0  0  0
 16 11  1  0  0  0  0
 17  3  2  0  0  0  0
 18 12  1  0  0  0  0
 19 12  2  0  0  0  0
 20 11  2  0  0  0  0
 21  9  1  0  0  0  0
 22 16  1  0  0  0  0
 23  7  1  0  0  0  0
 24 10  1  0  0  0  0
 25 28  1  0  0  0  0
 25 29  2  0  0  0  0
 26 22  2  0  0  0  0
 27 22  1  0  0  0  0
 28 27  2  0  0  0  0
 29 26  1  0  0  0  0
 30 23  1  0  0  0  0
 31 25  1  0  0  0  0
 32 24  1  0  0  0  0
M  END
> <CdId>
1747

> <Mol Weight>
498.326

> <Formula>
C23H20BrN3O5

> <Click_ID>
CLK023_F02 __ __ 

$$$$
