CLK036_A02
 OpenBabel03181413202D

 28 31  0  0  0  0  0  0  0  0999 V2000
   -0.5470    2.1923    0.0000 C   0  0  0  0  0  0  0  0  0  0  0  0
    0.2422    2.4512    0.0000 N   0  0  0  0  0  0  0  0  0  0  0  0
   -0.8018    1.4031    0.0000 N   0  0  0  0  0  0  0  0  0  0  0  0
    1.1943    3.5077    0.0000 C   0  0  0  0  0  0  0  0  0  0  0  0
   -1.2152    2.6766    0.0000 S   0  0  0  0  0  0  0  0  0  0  0  0
    1.4574    4.2886    0.0000 N   0  0  0  0  0  0  0  0  0  0  0  0
   -1.6286    1.4031    0.0000 C   0  0  0  0  0  0  0  0  0  0  0  0
   -1.8791    2.1881    0.0000 C   0  0  0  0  0  0  0  0  0  0  0  0
    0.4176    3.2529    0.0000 C   0  0  0  0  0  0  0  0  0  0  0  0
    1.8457    3.0316    0.0000 S   0  0  0  0  0  0  0  0  0  0  0  0
   -2.1755    0.7975    0.0000 C   0  0  0  0  0  0  0  0  0  0  0  0
   -2.6892    2.3635    0.0000 C   0  0  0  0  0  0  0  0  0  0  0  0
    2.2842    4.2886    0.0000 C   0  0  0  0  0  0  0  0  0  0  0  0
    2.5222    3.4951    0.0000 C   0  0  0  0  0  0  0  0  0  0  0  0
   -2.9773    0.9646    0.0000 C   0  0  0  0  0  0  0  0  0  0  0  0
   -3.2404    1.7496    0.0000 C   0  0  0  0  0  0  0  0  0  0  0  0
    0.4928    0.8226    0.0000 C   0  0  0  0  0  0  0  0  0  0  0  0
    0.8393    1.5742    0.0000 C   0  0  0  0  0  0  0  0  0  0  0  0
   -0.1962    3.8083    0.0000 O   0  0  0  0  0  0  0  0  0  0  0  0
   -0.3215    0.7391    0.0000 C   0  0  0  0  0  0  0  0  0  0  0  0
   -3.5285    0.3466    0.0000 O   0  0  0  0  0  0  0  0  0  0  0  0
   -4.0421    1.9250    0.0000 O   0  0  0  0  0  0  0  0  0  0  0  0
    2.8479    4.8982    0.0000 C   0  0  0  0  0  0  0  0  0  0  0  0
    3.3323    3.3155    0.0000 C   0  0  0  0  0  0  0  0  0  0  0  0
   -4.5933    1.3112    0.0000 C   0  0  0  0  0  0  0  0  0  0  0  0
   -3.2780   -0.4385    0.0000 C   0  0  0  0  0  0  0  0  0  0  0  0
    3.6497    4.7145    0.0000 C   0  0  0  0  0  0  0  0  0  0  0  0
    3.8877    3.9169    0.0000 C   0  0  0  0  0  0  0  0  0  0  0  0
  2  1  2  0  0  0  0
  3  1  1  0  0  0  0
  4  9  1  0  0  0  0
  5  1  1  0  0  0  0
  6  4  2  0  0  0  0
  7  3  1  0  0  0  0
  8  5  1  0  0  0  0
  8  7  2  0  0  0  0
  9  2  1  0  0  0  0
 10  4  1  0  0  0  0
 11  7  1  0  0  0  0
 12  8  1  0  0  0  0
 13  6  1  0  0  0  0
 13 14  2  0  0  0  0
 14 10  1  0  0  0  0
 15 11  2  0  0  0  0
 15 16  1  0  0  0  0
 16 12  2  0  0  0  0
 17 20  1  0  0  0  0
 18 17  3  0  0  0  0
 19  9  2  0  0  0  0
 20  3  1  0  0  0  0
 21 15  1  0  0  0  0
 22 16  1  0  0  0  0
 23 13  1  0  0  0  0
 24 14  1  0  0  0  0
 25 22  1  0  0  0  0
 26 21  1  0  0  0  0
 27 23  2  0  0  0  0
 27 28  1  0  0  0  0
 28 24  2  0  0  0  0
M  END
> <CdId>
2726

> <Mol Weight>
409.481

> <Formula>
C20H15N3O3S2

> <Click_ID>
CLK036_A02 __ __ 

$$$$
