CLK007_H02
 OpenBabel03181413202D

 33 37  0  0  0  0  0  0  0  0999 V2000
   -0.1623    0.6075    0.0000 C    0  0  3  0  0  0  0  0  0  0  0  0
   -0.8733    0.1968    0.0000 C    0  0  0  0  0  0  0  0  0  0  0  0
    0.6317    0.8216    0.0000 C    0  0  0  0  0  0  0  0  0  0  0  0
    0.5523    0.1968    0.0000 C    0  0  0  0  0  0  0  0  0  0  0  0
   -0.6109    1.2980    0.0000 C    0  0  0  0  0  0  0  0  0  0  0  0
   -0.8837   -0.6317    0.0000 C    0  0  0  0  0  0  0  0  0  0  0  0
   -1.5879    0.6075    0.0000 C    0  0  0  0  0  0  0  0  0  0  0  0
    0.6766    1.6465    0.0000 C    0  0  0  0  0  0  0  0  0  0  0  0
    1.3290    0.3832    0.0000 C    0  0  0  0  0  0  0  0  0  0  0  0
    0.5523   -0.6317    0.0000 C    0  0  0  0  0  0  0  0  0  0  0  0
    1.2634   -0.2174    0.0000 C    0  0  0  0  0  0  0  0  0  0  0  0
   -0.1001    1.9469    0.0000 N    0  0  0  0  0  0  0  0  0  0  0  0
   -1.2013    1.8848    0.0000 O    0  0  0  0  0  0  0  0  0  0  0  0
   -0.1692   -1.0425    0.0000 N    0  0  0  0  0  0  0  0  0  0  0  0
   -1.5879   -1.0425    0.0000 C    0  0  0  0  0  0  0  0  0  0  0  0
   -2.3024    0.1968    0.0000 C    0  0  0  0  0  0  0  0  0  0  0  0
   -2.1747    1.1979    0.0000 O    0  0  0  0  0  0  0  0  0  0  0  0
    1.4084    2.0331    0.0000 C    0  0  0  0  0  0  0  0  0  0  0  0
    2.0643    0.7594    0.0000 C    0  0  0  0  0  0  0  0  0  0  0  0
    1.2565   -1.0563    0.0000 N    0  0  0  0  0  0  0  0  0  0  0  0
    1.9780   -0.6317    0.0000 N    0  0  0  0  0  0  0  0  0  0  0  0
   -0.3210    2.7408    0.0000 C    0  0  0  0  0  0  0  0  0  0  0  0
   -0.1726   -1.8710    0.0000 C    0  0  0  0  0  0  0  0  0  0  0  0
   -2.3024   -0.6317    0.0000 C    0  0  0  0  0  0  0  0  0  0  0  0
    2.1022    1.5845    0.0000 C    0  0  0  0  0  0  0  0  0  0  0  0
    0.2555    3.3276    0.0000 C    0  0  0  0  0  0  0  0  0  0  0  0
    0.5385   -2.2817    0.0000 C    0  0  0  0  0  0  0  0  0  0  0  0
   -0.8940   -2.2714    0.0000 C    0  0  0  0  0  0  0  0  0  0  0  0
    0.0414    4.1251    0.0000 C    0  0  0  0  0  0  0  0  0  0  0  0
    0.5316   -3.1067    0.0000 C    0  0  0  0  0  0  0  0  0  0  0  0
   -0.9010   -3.0964    0.0000 C    0  0  0  0  0  0  0  0  0  0  0  0
   -0.1864   -3.5209    0.0000 C    0  0  0  0  0  0  0  0  0  0  0  0
    1.2427   -3.5209    0.0000 Cl   0  0  0  0  0  0  0  0  0  0  0  0
  1  2  1  0  0  0  0
  1  3  1  0  0  0  0
  1  4  1  0  0  0  0
  1  5  1  0  0  0  0
  2  6  2  0  0  0  0
  2  7  1  0  0  0  0
  3  8  2  0  0  0  0
  3  9  1  0  0  0  0
  4 10  2  0  0  0  0
  4 11  1  0  0  0  0
  5 12  1  0  0  0  0
  5 13  2  0  0  0  0
  6 14  1  0  0  0  0
  6 15  1  0  0  0  0
  7 16  1  0  0  0  0
  7 17  2  0  0  0  0
  8 18  1  0  0  0  0
  8 12  1  0  0  0  0
  9 19  2  0  0  0  0
 10 20  1  0  0  0  0
 10 14  1  0  0  0  0
 11 21  3  0  0  0  0
 12 22  1  0  0  0  0
 14 23  1  0  0  0  0
 15 24  1  0  0  0  0
 16 24  1  0  0  0  0
 18 25  2  0  0  0  0
 19 25  1  0  0  0  0
 22 26  1  0  0  0  0
 23 27  1  0  0  0  0
 23 28  2  0  0  0  0
 26 29  3  0  0  0  0
 27 30  2  0  0  0  0
 28 31  1  0  0  0  0
 30 32  1  0  0  0  0
 30 33  1  0  0  0  0
 31 32  2  0  0  0  0
M  END
> <CdId>
551

> <Mol Weight>
454.908

> <Formula>
C26H19ClN4O2

> <Click_ID>
CLK007_H02 __ __ 

$$$$
