CLK043G03
 OpenBabel03181413202D

 28 30  0  0  0  0  0  0  0  0999 V2000
   -2.3000    1.1708    0.0000 S   0  0  0  0  0  0  0  0  0  0  0  0
    0.5583    1.1708    0.0000 C   0  0  0  0  0  0  0  0  0  0  0  0
    1.9875   -2.1292    0.0000 C   0  0  0  0  0  0  0  0  0  0  0  0
   -1.5833    1.5833    0.0000 C   0  0  0  0  0  0  0  0  0  0  0  0
    2.7042   -2.5417    0.0000 N   0  0  0  0  0  0  0  0  0  0  0  0
    0.5583    0.3458    0.0000 N   0  0  0  0  0  0  0  0  0  0  0  0
   -0.1542    1.5833    0.0000 C   0  0  0  0  0  0  0  0  0  0  0  0
    2.7042   -3.3667    0.0000 C   0  0  0  0  0  0  0  0  0  0  0  0
   -4.4417    0.7583    0.0000 C   0  0  0  0  0  0  0  0  0  0  0  0
    1.9875   -1.3042    0.0000 C   0  0  0  0  0  0  0  0  0  0  0  0
   -0.8708    1.1708    0.0000 C   0  0  0  0  0  0  0  0  0  0  0  0
   -5.1583    0.3458    0.0000 C   0  0  0  0  0  0  0  0  0  0  0  0
   -1.8875    0.4583    0.0000 O   0  0  0  0  0  0  0  0  0  0  0  0
   -2.7125    1.8875    0.0000 O   0  0  0  0  0  0  0  0  0  0  0  0
    3.1167   -4.0792    0.0000 C   0  0  0  0  0  0  0  0  0  0  0  0
    2.2917   -4.0792    0.0000 C   0  0  0  0  0  0  0  0  0  0  0  0
   -3.0125    0.7583    0.0000 N   0  0  0  0  0  0  0  0  0  0  0  0
    1.2750   -0.0667    0.0000 C   0  0  0  0  0  0  0  0  0  0  0  0
    1.2750   -0.8917    0.0000 C   0  0  0  0  0  0  0  0  0  0  0  0
    1.2750   -2.5417    0.0000 O   0  0  0  0  0  0  0  0  0  0  0  0
    1.2750    1.5833    0.0000 O   0  0  0  0  0  0  0  0  0  0  0  0
   -3.7292    1.1708    0.0000 C   0  0  0  0  0  0  0  0  0  0  0  0
   -1.5833    2.4083    0.0000 C   0  0  0  0  0  0  0  0  0  0  0  0
   -0.1542    2.4083    0.0000 C   0  0  0  0  0  0  0  0  0  0  0  0
    2.7042   -0.8917    0.0000 C   0  0  0  0  0  0  0  0  0  0  0  0
   -0.8708    2.8208    0.0000 C   0  0  0  0  0  0  0  0  0  0  0  0
    2.7042   -0.0667    0.0000 C   0  0  0  0  0  0  0  0  0  0  0  0
    1.9875    0.3458    0.0000 C   0  0  0  0  0  0  0  0  0  0  0  0
  2  7  1  0  0  0  0
  3 10  1  0  0  0  0
  4  1  1  0  0  0  0
  5  3  1  0  0  0  0
  6  2  1  0  0  0  0
  7 11  2  0  0  0  0
  8  5  1  0  0  0  0
  9 22  1  0  0  0  0
 10 19  2  0  0  0  0
 11  4  1  0  0  0  0
 12  9  3  0  0  0  0
 13  1  2  0  0  0  0
 14  1  2  0  0  0  0
 15  8  1  0  0  0  0
 15 16  1  0  0  0  0
 16  8  1  0  0  0  0
 17  1  1  0  0  0  0
 18  6  1  0  0  0  0
 19 18  1  0  0  0  0
 20  3  2  0  0  0  0
 21  2  2  0  0  0  0
 22 17  1  0  0  0  0
 23  4  2  0  0  0  0
 24  7  1  0  0  0  0
 25 10  1  0  0  0  0
 26 23  1  0  0  0  0
 26 24  2  0  0  0  0
 27 28  1  0  0  0  0
 27 25  2  0  0  0  0
 28 18  2  0  0  0  0
M  END
> <CdId>
3263

> <Mol Weight>
397.448

> <Formula>
C20H19N3O4S

> <Click_ID>
CLK043G03 __ __ 

$$$$
