CLK051D07
 OpenBabel03181413202D

 28 30  0  0  0  0  0  0  0  0999 V2000
   -2.4333    1.2667    0.0000 S    0  0  0  0  0  0  0  0  0  0  0  0
    1.1375   -1.6208    0.0000 C    0  0  0  0  0  0  0  0  0  0  0  0
    0.4250   -1.2083    0.0000 N    0  0  0  0  0  0  0  0  0  0  0  0
    0.4250   -0.3833    0.0000 C    0  0  0  0  0  0  0  0  0  0  0  0
    1.8500   -1.2083    0.0000 C    0  0  0  0  0  0  0  0  0  0  0  0
    2.2625   -0.4917    0.0000 N    0  0  0  0  0  0  0  0  0  0  0  0
   -1.7208    0.8542    0.0000 C    0  0  0  0  0  0  0  0  0  0  0  0
    1.1375   -2.4458    0.0000 C    0  0  0  0  0  0  0  0  0  0  0  0
   -3.8625    2.9167    0.0000 C    0  0  0  0  0  0  0  0  0  0  0  0
   -4.5792    3.3292    0.0000 C    0  0  0  0  0  0  0  0  0  0  0  0
   -2.0208    1.9833    0.0000 O    0  0  0  0  0  0  0  0  0  0  0  0
   -2.8458    0.5542    0.0000 O    0  0  0  0  0  0  0  0  0  0  0  0
   -0.2917    0.0292    0.0000 C    0  0  0  0  0  0  0  0  0  0  0  0
    2.5667   -1.6208    0.0000 C    0  0  0  0  0  0  0  0  0  0  0  0
   -3.1500    1.6792    0.0000 N    0  0  0  0  0  0  0  0  0  0  0  0
    1.1375    0.0292    0.0000 O    0  0  0  0  0  0  0  0  0  0  0  0
   -1.7208    0.0292    0.0000 C    0  0  0  0  0  0  0  0  0  0  0  0
   -1.0042    1.2667    0.0000 C    0  0  0  0  0  0  0  0  0  0  0  0
   -1.0042   -0.3833    0.0000 C    0  0  0  0  0  0  0  0  0  0  0  0
   -0.2917    0.8542    0.0000 C    0  0  0  0  0  0  0  0  0  0  0  0
    1.8500   -2.8583    0.0000 C    0  0  0  0  0  0  0  0  0  0  0  0
    2.5667   -2.4458    0.0000 C    0  0  0  0  0  0  0  0  0  0  0  0
    1.8500   -3.6833    0.0000 Cl   0  0  0  0  0  0  0  0  0  0  0  0
   -3.1500    2.5042    0.0000 C    0  0  0  0  0  0  0  0  0  0  0  0
    3.0833   -0.4042    0.0000 C    0  0  0  0  0  0  0  0  0  0  0  0
    1.9292    0.2625    0.0000 C    0  0  0  0  0  0  0  0  0  0  0  0
    2.5417    0.8125    0.0000 C    0  0  0  0  0  0  0  0  0  0  0  0
    3.2583    0.4000    0.0000 C    0  0  0  0  0  0  0  0  0  0  0  0
  2  3  1  0  0  0  0
  3  4  1  0  0  0  0
  4 13  1  0  0  0  0
  5  2  2  0  0  0  0
  6  5  1  0  0  0  0
  7  1  1  0  0  0  0
  8  2  1  0  0  0  0
  9 24  1  0  0  0  0
 10  9  3  0  0  0  0
 11  1  2  0  0  0  0
 12  1  2  0  0  0  0
 13 19  2  0  0  0  0
 14  5  1  0  0  0  0
 14 22  2  0  0  0  0
 15  1  1  0  0  0  0
 16  4  2  0  0  0  0
 17  7  2  0  0  0  0
 18  7  1  0  0  0  0
 19 17  1  0  0  0  0
 20 18  2  0  0  0  0
 20 13  1  0  0  0  0
 21  8  2  0  0  0  0
 22 21  1  0  0  0  0
 23 21  1  0  0  0  0
 24 15  1  0  0  0  0
 25  6  1  0  0  0  0
 26  6  1  0  0  0  0
 27 26  1  0  0  0  0
 27 28  1  0  0  0  0
 28 25  1  0  0  0  0
M  END
> <CdId>
3932

> <Mol Weight>
417.909

> <Formula>
C20H20ClN3O3S

> <Click_ID>
CLK051D07 __ __ 

$$$$
