CLK018_H02
 OpenBabel03181413202D

 23 25  0  0  0  0  0  0  0  0999 V2000
    2.1096   -0.2289    0.0000 N   0  0  0  0  0  0  0  0  0  0  0  0
    2.3592   -1.0153    0.0000 C   0  0  0  0  0  0  0  0  0  0  0  0
    3.4369   -0.2289    0.0000 C   0  0  0  0  0  0  0  0  0  0  0  0
    2.7711    0.2579    0.0000 C   0  0  0  0  0  0  0  0  0  0  0  0
    3.1831   -1.0153    0.0000 S   0  0  0  0  0  0  0  0  0  0  0  0
    4.2233    0.0250    0.0000 C   0  0  0  0  0  0  0  0  0  0  0  0
    4.3939    0.8321    0.0000 C   0  0  0  0  0  0  0  0  0  0  0  0
    5.3426    1.8932    0.0000 C   0  0  0  0  0  0  0  0  0  0  0  0
    4.7351    2.4424    0.0000 C   0  0  0  0  0  0  0  0  0  0  0  0
    3.9487    2.1845    0.0000 C   0  0  0  0  0  0  0  0  0  0  0  0
    5.1720    1.0860    0.0000 C   0  0  0  0  0  0  0  0  0  0  0  0
    3.7822    1.3814    0.0000 C   0  0  0  0  0  0  0  0  0  0  0  0
    0.7115   -0.5285    0.0000 C   0  0  0  0  0  0  0  0  0  0  0  0
    0.1248   -1.1110    0.0000 C   0  0  0  0  0  0  0  0  0  0  0  0
    1.8766   -1.6769    0.0000 O   0  0  0  0  0  0  0  0  0  0  0  0
    4.7226    3.2663    0.0000 O   0  0  0  0  0  0  0  0  0  0  0  0
    3.4619    2.8460    0.0000 O   0  0  0  0  0  0  0  0  0  0  0  0
    2.7711    1.0818    0.0000 O   0  0  0  0  0  0  0  0  0  0  0  0
    1.3274    0.0250    0.0000 C   0  0  0  0  0  0  0  0  0  0  0  0
    3.9362    3.5159    0.0000 C   0  0  0  0  0  0  0  0  0  0  0  0
    5.7836    0.5326    0.0000 O   0  0  0  0  0  0  0  0  0  0  0  0
    6.5701    0.7864    0.0000 C   0  0  0  0  0  0  0  0  0  0  0  0
    6.7406    1.5936    0.0000 C   0  0  0  0  0  0  0  0  0  0  0  0
  2  1  1  0  0  0  0
  3  4  1  0  0  0  0
  3  5  1  0  0  0  0
  4  1  1  0  0  0  0
  5  2  1  0  0  0  0
  6  3  2  0  0  0  0
  7  6  1  0  0  0  0
  8 11  1  0  0  0  0
  9 10  1  0  0  0  0
  9  8  2  0  0  0  0
 10 12  2  0  0  0  0
 11  7  2  0  0  0  0
 12  7  1  0  0  0  0
 13 19  1  0  0  0  0
 14 13  3  0  0  0  0
 15  2  2  0  0  0  0
 16  9  1  0  0  0  0
 17 10  1  0  0  0  0
 18  4  2  0  0  0  0
 19  1  1  0  0  0  0
 20 17  1  0  0  0  0
 20 16  1  0  0  0  0
 21 11  1  0  0  0  0
 22 21  1  0  0  0  0
 23 22  1  0  0  0  0
M  END
> <CdId>
1387

> <Mol Weight>
331.343

> <Formula>
C16H13NO5S

> <Click_ID>
CLK018_H02 __ __ 

$$$$
