CLK048E09
 OpenBabel03181413202D

 16 17  0  0  0  0  0  0  0  0999 V2000
    0.1750   -0.1542    0.0000 C   0  0  0  0  0  0  0  0  0  0  0  0
   -0.5375   -0.5667    0.0000 N   0  0  0  0  0  0  0  0  0  0  0  0
    0.8917   -0.5667    0.0000 C   0  0  0  0  0  0  0  0  0  0  0  0
   -0.5375    1.0833    0.0000 N   0  0  0  0  0  0  0  0  0  0  0  0
    3.0333   -0.1542    0.0000 C   0  0  0  0  0  0  0  0  0  0  0  0
    3.7500    0.2583    0.0000 C   0  0  0  0  0  0  0  0  0  0  0  0
   -1.2542   -0.1542    0.0000 C   0  0  0  0  0  0  0  0  0  0  0  0
    0.1750    0.6708    0.0000 C   0  0  0  0  0  0  0  0  0  0  0  0
   -1.2542    0.6708    0.0000 C   0  0  0  0  0  0  0  0  0  0  0  0
    0.8917   -1.3917    0.0000 O   0  0  0  0  0  0  0  0  0  0  0  0
    1.6042   -0.1542    0.0000 N   0  0  0  0  0  0  0  0  0  0  0  0
    2.3208   -0.5667    0.0000 C   0  0  0  0  0  0  0  0  0  0  0  0
   -1.9667   -0.5667    0.0000 C   0  0  0  0  0  0  0  0  0  0  0  0
   -1.9667    1.0833    0.0000 C   0  0  0  0  0  0  0  0  0  0  0  0
   -2.6833   -0.1542    0.0000 C   0  0  0  0  0  0  0  0  0  0  0  0
   -2.6833    0.6708    0.0000 C   0  0  0  0  0  0  0  0  0  0  0  0
  2  1  2  0  0  0  0
  3  1  1  0  0  0  0
  4  8  2  0  0  0  0
  5 12  1  0  0  0  0
  6  5  3  0  0  0  0
  7  2  1  0  0  0  0
  8  1  1  0  0  0  0
  9  7  2  0  0  0  0
  9  4  1  0  0  0  0
 10  3  2  0  0  0  0
 11  3  1  0  0  0  0
 12 11  1  0  0  0  0
 13  7  1  0  0  0  0
 14  9  1  0  0  0  0
 15 13  2  0  0  0  0
 15 16  1  0  0  0  0
 16 14  2  0  0  0  0
M  END
> <CdId>
3709

> <Mol Weight>
211.2194

> <Formula>
C12H9N3O

> <Click_ID>
CLK048E09 __ __ 

$$$$
