CLK039A04
 OpenBabel03181413202D

 20 22  0  0  0  0  0  0  0  0999 V2000
   -0.9370    0.6913    0.0000 C   0  0  0  0  0  0  0  0  0  0  0  0
   -0.4498    1.3576    0.0000 C   0  0  0  0  0  0  0  0  0  0  0  0
   -0.5997   -0.0625    0.0000 C   0  0  0  0  0  0  0  0  0  0  0  0
    0.2207   -0.1457    0.0000 N   0  0  0  0  0  0  0  0  0  0  0  0
    0.3706    1.2743    0.0000 N   0  0  0  0  0  0  0  0  0  0  0  0
   -0.9370    2.0281    0.0000 S   0  0  0  0  0  0  0  0  0  0  0  0
   -1.7199    0.9453    0.0000 C   0  0  0  0  0  0  0  0  0  0  0  0
   -1.7199    1.7698    0.0000 C   0  0  0  0  0  0  0  0  0  0  0  0
    0.7038    0.5205    0.0000 C   0  0  0  0  0  0  0  0  0  0  0  0
    0.5539   -0.8995    0.0000 C   0  0  0  0  0  0  0  0  0  0  0  0
    2.8651   -2.5778    0.0000 C   0  0  0  0  0  0  0  0  0  0  0  0
    3.2025   -3.3315    0.0000 C   0  0  0  0  0  0  0  0  0  0  0  0
    1.3742   -0.9870    0.0000 C   0  0  0  0  0  0  0  0  0  0  0  0
   -1.0827   -0.7288    0.0000 O   0  0  0  0  0  0  0  0  0  0  0  0
    1.8615   -0.3206    0.0000 O   0  0  0  0  0  0  0  0  0  0  0  0
    1.7116   -1.7407    0.0000 N   0  0  0  0  0  0  0  0  0  0  0  0
   -2.5028    0.6913    0.0000 C   0  0  0  0  0  0  0  0  0  0  0  0
   -2.5028    2.0281    0.0000 C   0  0  0  0  0  0  0  0  0  0  0  0
    2.5319   -1.8282    0.0000 C   0  0  0  0  0  0  0  0  0  0  0  0
   -2.9901    1.3576    0.0000 C   0  0  0  0  0  0  0  0  0  0  0  0
  2  1  2  0  0  0  0
  3  1  1  0  0  0  0
  4  3  1  0  0  0  0
  5  2  1  0  0  0  0
  5  9  2  0  0  0  0
  6  2  1  0  0  0  0
  7  1  1  0  0  0  0
  8  7  2  0  0  0  0
  8  6  1  0  0  0  0
  9  4  1  0  0  0  0
 10  4  1  0  0  0  0
 11 19  1  0  0  0  0
 12 11  3  0  0  0  0
 13 10  1  0  0  0  0
 14  3  2  0  0  0  0
 15 13  2  0  0  0  0
 16 13  1  0  0  0  0
 17  7  1  0  0  0  0
 18  8  1  0  0  0  0
 19 16  1  0  0  0  0
 20 17  1  0  0  0  0
 20 18  1  0  0  0  0
M  END
> <CdId>
2945

> <Mol Weight>
287.337

> <Formula>
C14H13N3O2S

> <Click_ID>
CLK039A04 __ __ 

$$$$
