CLK040C04
 OpenBabel03181413202D

 28 29  0  0  0  0  0  0  0  0999 V2000
   -0.3583    1.1208    0.0000 S   0  0  0  0  0  0  0  0  0  0  0  0
   -1.0750    1.5333    0.0000 N   0  0  0  0  0  0  0  0  0  0  0  0
    0.3542    0.7083    0.0000 C   0  0  0  0  0  0  0  0  0  0  0  0
   -2.5042    2.3583    0.0000 N   0  0  0  0  0  0  0  0  0  0  0  0
    1.0708   -1.3542    0.0000 C   0  0  0  0  0  0  0  0  0  0  0  0
   -3.2167    2.7708    0.0000 C   0  0  0  0  0  0  0  0  0  0  0  0
    1.7833   -1.7667    0.0000 N   0  0  0  0  0  0  0  0  0  0  0  0
    1.7833   -3.4167    0.0000 C   0  0  0  0  0  0  0  0  0  0  0  0
    1.0708   -0.5292    0.0000 C   0  0  0  0  0  0  0  0  0  0  0  0
    0.3542   -0.1167    0.0000 C   0  0  0  0  0  0  0  0  0  0  0  0
   -0.7708    0.4083    0.0000 O   0  0  0  0  0  0  0  0  0  0  0  0
    0.0542    1.8375    0.0000 O   0  0  0  0  0  0  0  0  0  0  0  0
   -1.0750    2.3583    0.0000 C   0  0  0  0  0  0  0  0  0  0  0  0
   -1.7875    1.1208    0.0000 C   0  0  0  0  0  0  0  0  0  0  0  0
    1.7833   -4.2417    0.0000 C   0  0  0  0  0  0  0  0  0  0  0  0
    1.7833   -2.5917    0.0000 C   0  0  0  0  0  0  0  0  0  0  0  0
   -1.7875    2.7708    0.0000 C   0  0  0  0  0  0  0  0  0  0  0  0
   -2.5042    1.5333    0.0000 C   0  0  0  0  0  0  0  0  0  0  0  0
    0.3542   -1.7667    0.0000 O   0  0  0  0  0  0  0  0  0  0  0  0
   -3.9333    2.3583    0.0000 O   0  0  0  0  0  0  0  0  0  0  0  0
    1.0708    1.1208    0.0000 C   0  0  0  0  0  0  0  0  0  0  0  0
   -3.2167    3.5958    0.0000 C   0  0  0  0  0  0  0  0  0  0  0  0
    1.7833   -0.1167    0.0000 C   0  0  0  0  0  0  0  0  0  0  0  0
    1.7833    0.7083    0.0000 C   0  0  0  0  0  0  0  0  0  0  0  0
    0.9583   -2.5917    0.0000 C   0  0  0  0  0  0  0  0  0  0  0  0
    2.6083   -2.5917    0.0000 C   0  0  0  0  0  0  0  0  0  0  0  0
    0.5458   -1.8750    0.0000 C   0  0  0  0  0  0  0  0  0  0  0  0
    3.0208   -3.3042    0.0000 C   0  0  0  0  0  0  0  0  0  0  0  0
  2  1  1  0  0  0  0
  3  1  1  0  0  0  0
  4 18  1  0  0  0  0
  4 17  1  0  0  0  0
  5  9  1  0  0  0  0
  6  4  1  0  0  0  0
  7  5  1  0  0  0  0
  8 16  1  0  0  0  0
  9 10  2  0  0  0  0
 10  3  1  0  0  0  0
 11  1  2  0  0  0  0
 12  1  2  0  0  0  0
 13  2  1  0  0  0  0
 14  2  1  0  0  0  0
 15  8  3  0  0  0  0
 16  7  1  0  0  0  0
 17 13  1  0  0  0  0
 18 14  1  0  0  0  0
 19  5  2  0  0  0  0
 20  6  2  0  0  0  0
 21  3  2  0  0  0  0
 22  6  1  0  0  0  0
 23  9  1  0  0  0  0
 24 21  1  0  0  0  0
 24 23  2  0  0  0  0
 25 16  1  0  0  0  0
 26 16  1  0  0  0  0
 27 25  1  0  0  0  0
 28 26  1  0  0  0  0
M  END
> <CdId>
3027

> <Mol Weight>
405.511

> <Formula>
C20H27N3O4S

> <Click_ID>
CLK040C04 __ __ 

$$$$
