CLK016_D09
 OpenBabel03181413202D

 19 20  0  0  0  0  0  0  0  0999 V2000
    1.5701   -0.8185    0.0000 N    0  0  0  0  0  0  0  0  0  0  0  0
    1.8290   -1.6077    0.0000 C    0  0  0  0  0  0  0  0  0  0  0  0
    2.9106   -0.8185    0.0000 C    0  0  0  0  0  0  0  0  0  0  0  0
    2.2424   -0.3299    0.0000 C    0  0  0  0  0  0  0  0  0  0  0  0
    2.6558   -1.6077    0.0000 S    0  0  0  0  0  0  0  0  0  0  0  0
    3.9837   -0.4677    0.0000 C    0  0  0  0  0  0  0  0  0  0  0  0
    4.1591    0.3340    0.0000 C    0  0  0  0  0  0  0  0  0  0  0  0
    0.6138    0.2463    0.0000 C    0  0  0  0  0  0  0  0  0  0  0  0
    0.3926    1.0481    0.0000 C    0  0  0  0  0  0  0  0  0  0  0  0
    1.3404   -2.2717    0.0000 O    0  0  0  0  0  0  0  0  0  0  0  0
    2.2341    0.4969    0.0000 O    0  0  0  0  0  0  0  0  0  0  0  0
    4.9400    0.5846    0.0000 C    0  0  0  0  0  0  0  0  0  0  0  0
    3.5494    0.8852    0.0000 C    0  0  0  0  0  0  0  0  0  0  0  0
    0.7892   -0.5637    0.0000 C    0  0  0  0  0  0  0  0  0  0  0  0
    5.5538    0.0334    0.0000 Cl   0  0  0  0  0  0  0  0  0  0  0  0
    2.7602    0.6389    0.0000 F    0  0  0  0  0  0  0  0  0  0  0  0
    4.5015    1.9375    0.0000 C    0  0  0  0  0  0  0  0  0  0  0  0
    3.7248    1.6912    0.0000 C    0  0  0  0  0  0  0  0  0  0  0  0
    5.1154    1.3863    0.0000 C    0  0  0  0  0  0  0  0  0  0  0  0
  2  1  1  0  0  0  0
  3  4  1  0  0  0  0
  4  1  1  0  0  0  0
  5  2  1  0  0  0  0
  5  3  1  0  0  0  0
  6  3  2  0  0  0  0
  7  6  1  0  0  0  0
  8 14  1  0  0  0  0
  9  8  3  0  0  0  0
 10  2  2  0  0  0  0
 11  4  2  0  0  0  0
 12  7  1  0  0  0  0
 13  7  2  0  0  0  0
 14  1  1  0  0  0  0
 15 12  1  0  0  0  0
 16 13  1  0  0  0  0
 17 18  2  0  0  0  0
 18 13  1  0  0  0  0
 19 12  2  0  0  0  0
 19 17  1  0  0  0  0
M  END
> <CdId>
1194

> <Mol Weight>
295.717

> <Formula>
C13H7ClFNO2S

> <Click_ID>
CLK016_D09 __ __ 

$$$$
