CLK044F05
 OpenBabel03181413202D

 26 27  0  0  0  0  0  0  0  0999 V2000
   -2.6125    0.7458    0.0000 S   0  0  0  0  0  0  0  0  0  0  0  0
    0.2458   -0.9042    0.0000 C   0  0  0  0  0  0  0  0  0  0  0  0
    0.9583   -0.4917    0.0000 N   0  0  0  0  0  0  0  0  0  0  0  0
    2.3875   -0.4917    0.0000 C   0  0  0  0  0  0  0  0  0  0  0  0
    1.6750   -0.9042    0.0000 C   0  0  3  0  0  0  0  0  0  0  0  0
   -1.9000    0.3333    0.0000 C   0  0  0  0  0  0  0  0  0  0  0  0
   -4.0417    2.3958    0.0000 C   0  0  0  0  0  0  0  0  0  0  0  0
   -4.7542    2.8083    0.0000 C   0  0  0  0  0  0  0  0  0  0  0  0
   -3.0250    0.0333    0.0000 O   0  0  0  0  0  0  0  0  0  0  0  0
   -2.2000    1.4625    0.0000 O   0  0  0  0  0  0  0  0  0  0  0  0
   -0.4708   -0.4917    0.0000 C   0  0  0  0  0  0  0  0  0  0  0  0
   -3.3250    1.1583    0.0000 N   0  0  0  0  0  0  0  0  0  0  0  0
    0.2458   -1.7292    0.0000 O   0  0  0  0  0  0  0  0  0  0  0  0
    3.1042   -0.9042    0.0000 C   0  0  0  0  0  0  0  0  0  0  0  0
   -1.1833    0.7458    0.0000 C   0  0  0  0  0  0  0  0  0  0  0  0
   -1.9000   -0.4917    0.0000 C   0  0  0  0  0  0  0  0  0  0  0  0
   -0.4708    0.3333    0.0000 C   0  0  0  0  0  0  0  0  0  0  0  0
   -1.1833   -0.9042    0.0000 C   0  0  0  0  0  0  0  0  0  0  0  0
   -3.3250    1.9833    0.0000 C   0  0  0  0  0  0  0  0  0  0  0  0
    3.1042   -1.7292    0.0000 O   0  0  0  0  0  0  0  0  0  0  0  0
    2.3875    0.3333    0.0000 C   0  0  0  0  0  0  0  0  0  0  0  0
    1.6750   -1.7292    0.0000 C   0  0  0  0  0  0  0  0  0  0  0  0
    3.8167   -0.4917    0.0000 C   0  0  0  0  0  0  0  0  0  0  0  0
    3.8167   -2.1417    0.0000 C   0  0  0  0  0  0  0  0  0  0  0  0
    3.1042    0.7458    0.0000 C   0  0  0  0  0  0  0  0  0  0  0  0
    3.8167    0.3333    0.0000 C   0  0  0  0  0  0  0  0  0  0  0  0
  2 11  1  0  0  0  0
  3  2  1  0  0  0  0
  4  5  1  0  0  0  0
  5  3  1  0  0  0  0
  6  1  1  0  0  0  0
  7 19  1  0  0  0  0
  8  7  3  0  0  0  0
  9  1  2  0  0  0  0
 10  1  2  0  0  0  0
 11 18  2  0  0  0  0
 12  1  1  0  0  0  0
 13  2  2  0  0  0  0
 14  4  2  0  0  0  0
 15  6  1  0  0  0  0
 16  6  2  0  0  0  0
 17 15  2  0  0  0  0
 17 11  1  0  0  0  0
 18 16  1  0  0  0  0
 19 12  1  0  0  0  0
 20 14  1  0  0  0  0
 21  4  1  0  0  0  0
 22  5  1  0  0  0  0
 23 14  1  0  0  0  0
 24 20  1  0  0  0  0
 25 21  2  0  0  0  0
 25 26  1  0  0  0  0
 26 23  2  0  0  0  0
M  END
> <CdId>
3358

> <Mol Weight>
372.438

> <Formula>
C19H20N2O4S

> <Click_ID>
CLK044F05 __ __ 

$$$$
