CLK033_H11
 OpenBabel03181413202D

 25 27  0  0  0  0  0  0  0  0999 V2000
   -4.5812    2.5488    0.0000 C   0  0  0  0  0  0  0  0  0  0  0  0
   -3.8690    2.9694    0.0000 N   0  0  0  0  0  0  0  0  0  0  0  0
   -4.6729    1.7325    0.0000 N   0  0  0  0  0  0  0  0  0  0  0  0
   -5.3184    2.8945    0.0000 S   0  0  0  0  0  0  0  0  0  0  0  0
   -1.8492    4.4896    0.0000 C   0  0  0  0  0  0  0  0  0  0  0  0
   -5.4808    1.5701    0.0000 C   0  0  0  0  0  0  0  0  0  0  0  0
   -1.0203    4.4147    0.0000 N   0  3  0  0  0  0  0  0  0  0  0  0
   -5.8806    2.2947    0.0000 C   0  0  0  0  0  0  0  0  0  0  0  0
   -2.3947    3.8815    0.0000 S   0  0  0  0  0  0  0  0  0  0  0  0
   -3.8690    3.7983    0.0000 C   0  0  0  0  0  0  0  0  0  0  0  0
   -3.1569    4.2106    0.0000 C   0  0  0  0  0  0  0  0  0  0  0  0
   -2.2823    5.2018    0.0000 C   0  0  0  0  0  0  0  0  0  0  0  0
   -3.0694    5.0144    0.0000 C   0  0  0  0  0  0  0  0  0  0  0  0
   -6.7011    2.3072    0.0000 C   0  0  0  0  0  0  0  0  0  0  0  0
   -4.2439    0.3498    0.0000 C   0  0  0  0  0  0  0  0  0  0  0  0
   -4.4188   -0.4540    0.0000 C   0  0  0  0  0  0  0  0  0  0  0  0
   -5.9056    0.8704    0.0000 C   0  0  0  0  0  0  0  0  0  0  0  0
   -0.6705    3.6691    0.0000 O   0  5  0  0  0  0  0  0  0  0  0  0
   -0.5455    5.0894    0.0000 O   0  0  0  0  0  0  0  0  0  0  0  0
   -7.1259    1.5993    0.0000 C   0  0  0  0  0  0  0  0  0  0  0  0
   -4.5937    4.2106    0.0000 O   0  0  0  0  0  0  0  0  0  0  0  0
   -6.7136    0.8829    0.0000 C   0  0  0  0  0  0  0  0  0  0  0  0
   -4.0564    1.1620    0.0000 C   0  0  0  0  0  0  0  0  0  0  0  0
   -7.1009    3.0319    0.0000 C   0  0  0  0  0  0  0  0  0  0  0  0
   -7.1134    0.1582    0.0000 C   0  0  0  0  0  0  0  0  0  0  0  0
  2  1  2  0  0  0  0
  3  1  1  0  0  0  0
  4  1  1  0  0  0  0
  5  9  1  0  0  0  0
  5 12  2  0  0  0  0
  6  3  1  0  0  0  0
  7  5  1  0  0  0  0
  8  4  1  0  0  0  0
  8  6  2  0  0  0  0
  9 11  1  0  0  0  0
 10  2  1  0  0  0  0
 11 10  1  0  0  0  0
 12 13  1  0  0  0  0
 13 11  2  0  0  0  0
 14  8  1  0  0  0  0
 15 23  1  0  0  0  0
 16 15  3  0  0  0  0
 17  6  1  0  0  0  0
 18  7  1  0  0  0  0
 19  7  2  0  0  0  0
 20 14  2  0  0  0  0
 21 10  2  0  0  0  0
 22 17  2  0  0  0  0
 22 20  1  0  0  0  0
 23  3  1  0  0  0  0
 24 14  1  0  0  0  0
 25 22  1  0  0  0  0
M  END
> <CdId>
2565

> <Mol Weight>
371.433

> <Formula>
C17H13N3O3S2

> <Click_ID>
CLK033_H11 __ __ 

$$$$
