CLK042B05
 OpenBabel03181413202D

 20 20  0  0  0  0  0  0  0  0999 V2000
    1.3917   -0.7208    0.0000 S   0  0  0  0  0  0  0  0  0  0  0  0
    1.3917    0.1042    0.0000 C   0  0  0  0  0  0  0  0  0  0  0  0
   -1.4667    0.1042    0.0000 C   0  0  0  0  0  0  0  0  0  0  0  0
    1.3917   -1.5458    0.0000 N   0  0  0  0  0  0  0  0  0  0  0  0
    2.2167   -0.7208    0.0000 O   0  0  0  0  0  0  0  0  0  0  0  0
    0.5667   -0.7208    0.0000 O   0  0  0  0  0  0  0  0  0  0  0  0
    0.6750    0.5167    0.0000 C   0  0  0  0  0  0  0  0  0  0  0  0
   -3.6083    0.5167    0.0000 C   0  0  0  0  0  0  0  0  0  0  0  0
   -4.3250    0.9292    0.0000 C   0  0  0  0  0  0  0  0  0  0  0  0
   -0.7542    0.5167    0.0000 N   0  0  0  0  0  0  0  0  0  0  0  0
   -0.0375    0.1042    0.0000 C   0  0  0  0  0  0  0  0  0  0  0  0
   -1.4667   -0.7208    0.0000 O   0  0  0  0  0  0  0  0  0  0  0  0
   -2.1792    0.5167    0.0000 N   0  0  0  0  0  0  0  0  0  0  0  0
   -2.8958    0.1042    0.0000 C   0  0  0  0  0  0  0  0  0  0  0  0
    2.1042    0.5167    0.0000 C   0  0  0  0  0  0  0  0  0  0  0  0
    2.1042   -1.9583    0.0000 C   0  0  0  0  0  0  0  0  0  0  0  0
    0.6750   -1.9583    0.0000 C   0  0  0  0  0  0  0  0  0  0  0  0
    0.6750    1.3417    0.0000 C   0  0  0  0  0  0  0  0  0  0  0  0
    2.1042    1.3417    0.0000 C   0  0  0  0  0  0  0  0  0  0  0  0
    1.3917    1.7542    0.0000 C   0  0  0  0  0  0  0  0  0  0  0  0
  2  1  1  0  0  0  0
  3 10  1  0  0  0  0
  4  1  1  0  0  0  0
  5  1  2  0  0  0  0
  6  1  2  0  0  0  0
  7  2  2  0  0  0  0
  8 14  1  0  0  0  0
  9  8  3  0  0  0  0
 10 11  1  0  0  0  0
 11  7  1  0  0  0  0
 12  3  2  0  0  0  0
 13  3  1  0  0  0  0
 14 13  1  0  0  0  0
 15  2  1  0  0  0  0
 16  4  1  0  0  0  0
 17  4  1  0  0  0  0
 18  7  1  0  0  0  0
 19 15  2  0  0  0  0
 20 18  2  0  0  0  0
 20 19  1  0  0  0  0
M  END
> <CdId>
3194

> <Mol Weight>
295.357

> <Formula>
C13H17N3O3S

> <Click_ID>
CLK042B05 __ __ 

$$$$
