CLK021_G09
 OpenBabel03181413202D

 16 17  0  0  0  0  0  0  0  0999 V2000
    3.3578    3.0050    0.0000 N   0  0  0  0  0  0  0  0  0  0  0  0
    4.0265    1.8506    0.0000 N   0  0  0  0  0  0  0  0  0  0  0  0
    3.2707    2.1850    0.0000 C   0  0  0  0  0  0  0  0  0  0  0  0
    4.5762    2.4599    0.0000 C   0  0  0  0  0  0  0  0  0  0  0  0
    4.1639    3.1791    0.0000 C   0  0  0  0  0  0  0  0  0  0  0  0
    4.9794    0.7924    0.0000 C   0  0  0  0  0  0  0  0  0  0  0  0
    5.7627    0.5313    0.0000 C   0  0  0  0  0  0  0  0  0  0  0  0
    1.1315    1.7728    0.0000 C   0  0  0  0  0  0  0  0  0  0  0  0
    4.1960    1.0444    0.0000 C   0  0  0  0  0  0  0  0  0  0  0  0
    0.4169    2.1850    0.0000 O   0  0  0  0  0  0  0  0  0  0  0  0
    1.8415    2.1850    0.0000 N   0  0  0  0  0  0  0  0  0  0  0  0
    2.5515    1.7728    0.0000 C   0  0  0  0  0  0  0  0  0  0  0  0
    5.4008    2.4599    0.0000 C   0  0  0  0  0  0  0  0  0  0  0  0
    4.5762    3.8937    0.0000 C   0  0  0  0  0  0  0  0  0  0  0  0
    5.8130    3.1791    0.0000 C   0  0  0  0  0  0  0  0  0  0  0  0
    5.4008    3.8937    0.0000 C   0  0  0  0  0  0  0  0  0  0  0  0
  2  3  1  0  0  0  0
  3  1  2  0  0  0  0
  4  5  1  0  0  0  0
  4  2  1  0  0  0  0
  5  1  1  0  0  0  0
  6  9  1  0  0  0  0
  7  6  3  0  0  0  0
  8 11  1  0  0  0  0
  9  2  1  0  0  0  0
 10  8  2  0  0  0  0
 11 12  1  0  0  0  0
 12  3  1  0  0  0  0
 13  4  2  0  0  0  0
 13 15  1  0  0  0  0
 14  5  2  0  0  0  0
 15 16  2  0  0  0  0
 16 14  1  0  0  0  0
M  END
> <CdId>
1624

> <Mol Weight>
213.2352

> <Formula>
C12H11N3O

> <Click_ID>
CLK021_G09 __ __ 

$$$$
