CLK023_H07
 OpenBabel03181413202D

 31 33  0  0  0  0  0  0  0  0999 V2000
   -0.3369   -1.3066    0.0000 C    0  0  0  0  0  0  0  0  0  0  0  0
    0.0791   -2.0115    0.0000 N    0  0  0  0  0  0  0  0  0  0  0  0
    0.8906   -1.8258    0.0000 C    0  0  0  0  0  0  0  0  0  0  0  0
    0.9525   -1.0212    0.0000 C    0  0  0  0  0  0  0  0  0  0  0  0
    0.2028   -0.6808    0.0000 S    0  0  0  0  0  0  0  0  0  0  0  0
   -1.1656   -1.3066    0.0000 N    0  0  0  0  0  0  0  0  0  0  0  0
    1.6263   -0.5467    0.0000 C    0  0  0  0  0  0  0  0  0  0  0  0
    1.3994    1.9083    0.0000 C    0  0  0  0  0  0  0  0  0  0  0  0
    2.1490    1.5714    0.0000 C    0  0  0  0  0  0  0  0  0  0  0  0
    0.7289    1.4338    0.0000 C    0  0  0  0  0  0  0  0  0  0  0  0
    1.5507    0.2682    0.0000 C    0  0  0  0  0  0  0  0  0  0  0  0
    1.9943    4.0367    0.0000 C    0  0  0  0  0  0  0  0  0  0  0  0
    1.9874    4.8722    0.0000 C    0  0  0  0  0  0  0  0  0  0  0  0
    2.2212    0.7495    0.0000 C    0  0  0  0  0  0  0  0  0  0  0  0
    0.8011    0.6154    0.0000 C    0  0  0  0  0  0  0  0  0  0  0  0
    1.4751   -2.4103    0.0000 O    0  0  0  0  0  0  0  0  0  0  0  0
   -0.3336   -2.7267    0.0000 C    0  0  0  0  0  0  0  0  0  0  0  0
   -1.6023   -0.6086    0.0000 C    0  0  0  0  0  0  0  0  0  0  0  0
    2.8195    2.0389    0.0000 Cl   0  0  0  0  0  0  0  0  0  0  0  0
    1.3272    2.7301    0.0000 O    0  0  0  0  0  0  0  0  0  0  0  0
   -0.0825    1.6504    0.0000 O    0  0  0  0  0  0  0  0  0  0  0  0
    1.9977    3.2183    0.0000 C    0  0  0  0  0  0  0  0  0  0  0  0
   -0.3198   -4.1570    0.0000 O    0  0  0  0  0  0  0  0  0  0  0  0
    0.0860   -3.4384    0.0000 C    0  0  0  0  0  0  0  0  0  0  0  0
   -1.1656    0.0894    0.0000 C    0  0  0  0  0  0  0  0  0  0  0  0
   -2.4309   -0.5845    0.0000 C    0  0  0  0  0  0  0  0  0  0  0  0
   -0.7943    1.2481    0.0000 C    0  0  0  0  0  0  0  0  0  0  0  0
    0.0928   -4.8722    0.0000 C    0  0  0  0  0  0  0  0  0  0  0  0
   -1.5576    0.8252    0.0000 C    0  0  0  0  0  0  0  0  0  0  0  0
   -2.8229    0.1513    0.0000 C    0  0  0  0  0  0  0  0  0  0  0  0
   -2.3897    0.8493    0.0000 C    0  0  0  0  0  0  0  0  0  0  0  0
  2  1  1  0  0  0  0
  3  2  1  0  0  0  0
  4  5  1  0  0  0  0
  4  3  1  0  0  0  0
  5  1  1  0  0  0  0
  6  1  2  0  0  0  0
  7  4  2  0  0  0  0
  8 10  2  0  0  0  0
  9 14  2  0  0  0  0
  9  8  1  0  0  0  0
 10 15  1  0  0  0  0
 11  7  1  0  0  0  0
 12 22  1  0  0  0  0
 13 12  3  0  0  0  0
 14 11  1  0  0  0  0
 15 11  2  0  0  0  0
 16  3  2  0  0  0  0
 17  2  1  0  0  0  0
 18  6  1  0  0  0  0
 19  9  1  0  0  0  0
 20  8  1  0  0  0  0
 21 10  1  0  0  0  0
 22 20  1  0  0  0  0
 23 24  1  0  0  0  0
 24 17  1  0  0  0  0
 25 18  2  0  0  0  0
 26 18  1  0  0  0  0
 27 21  1  0  0  0  0
 28 23  1  0  0  0  0
 29 25  1  0  0  0  0
 30 26  2  0  0  0  0
 31 30  1  0  0  0  0
 31 29  2  0  0  0  0
M  END
> <CdId>
1772

> <Mol Weight>
456.942

> <Formula>
C23H21ClN2O4S

> <Click_ID>
CLK023_H07 __ __ 

$$$$
