CLK047E03
 OpenBabel03181413202D

 14 14  0  0  0  0  0  0  0  0999 V2000
   -0.0542   -0.6750    0.0000 C   0  0  0  0  0  0  0  0  0  0  0  0
   -2.1958    2.2125    0.0000 N   0  0  0  0  0  0  0  0  0  0  0  0
    1.3750   -2.3250    0.0000 C   0  0  0  0  0  0  0  0  0  0  0  0
    2.0917   -2.7375    0.0000 C   0  0  0  0  0  0  0  0  0  0  0  0
   -0.0542    0.1500    0.0000 C   0  0  0  0  0  0  0  0  0  0  0  0
   -1.4833    1.8000    0.0000 C   0  0  0  0  0  0  0  0  0  0  0  0
   -0.7667    0.5625    0.0000 C   0  0  0  0  0  0  0  0  0  0  0  0
   -0.7667   -1.0875    0.0000 O   0  0  0  0  0  0  0  0  0  0  0  0
    0.6625   -1.0875    0.0000 N   0  0  0  0  0  0  0  0  0  0  0  0
   -0.7667    1.3875    0.0000 C   0  0  0  0  0  0  0  0  0  0  0  0
    0.6625   -1.9125    0.0000 C   0  0  0  0  0  0  0  0  0  0  0  0
    0.6625    0.5625    0.0000 C   0  0  0  0  0  0  0  0  0  0  0  0
    0.6625    1.3875    0.0000 C   0  0  0  0  0  0  0  0  0  0  0  0
   -0.0542    1.8000    0.0000 C   0  0  0  0  0  0  0  0  0  0  0  0
  2  6  3  0  0  0  0
  3 11  1  0  0  0  0
  4  3  3  0  0  0  0
  5  1  1  0  0  0  0
  6 10  1  0  0  0  0
  7  5  2  0  0  0  0
  8  1  2  0  0  0  0
  9  1  1  0  0  0  0
 10  7  1  0  0  0  0
 11  9  1  0  0  0  0
 12  5  1  0  0  0  0
 13 12  2  0  0  0  0
 14 10  2  0  0  0  0
 14 13  1  0  0  0  0
M  END
> <CdId>
3581

> <Mol Weight>
184.194

> <Formula>
C11H8N2O

> <Click_ID>
CLK047E03 __ __ 

$$$$
