CLK002_F03
 OpenBabel03181413202D

 24 25  0  0  0  0  0  0  0  0999 V2000
   -0.4571    0.0152    0.0000 C   0  0  0  0  0  0  0  0  0  0  0  0
   -0.4571    0.8432    0.0000 N   0  0  0  0  0  0  0  0  0  0  0  0
   -1.1581   -0.3963    0.0000 N   0  0  0  0  0  0  0  0  0  0  0  0
    0.2743   -0.3963    0.0000 N   0  0  0  0  0  0  0  0  0  0  0  0
    0.2743    1.2598    0.0000 C   0  0  0  0  0  0  0  0  0  0  0  0
   -1.1581   -1.2090    0.0000 C   0  0  0  0  0  0  0  0  0  0  0  0
    0.2743   -1.2090    0.0000 C   0  0  0  0  0  0  0  0  0  0  0  0
    0.2743    2.0877    0.0000 C   0  0  0  0  0  0  0  0  0  0  0  0
    0.9803    0.8432    0.0000 C   0  0  0  0  0  0  0  0  0  0  0  0
   -0.4571   -1.6509    0.0000 N   0  0  0  0  0  0  0  0  0  0  0  0
   -1.8795   -1.6509    0.0000 O   0  0  0  0  0  0  0  0  0  0  0  0
    0.9905   -1.6509    0.0000 O   0  0  0  0  0  0  0  0  0  0  0  0
    0.9803    2.5144    0.0000 C   0  0  0  0  0  0  0  0  0  0  0  0
    1.6966    1.2598    0.0000 C   0  0  0  0  0  0  0  0  0  0  0  0
   -2.6007   -1.2395    0.0000 C   0  0  0  0  0  0  0  0  0  0  0  0
    0.9905   -2.4738    0.0000 C   0  0  0  0  0  0  0  0  0  0  0  0
    1.6966    2.0877    0.0000 C   0  0  0  0  0  0  0  0  0  0  0  0
    0.9803    3.3271    0.0000 N   0  3  0  0  0  0  0  0  0  0  0  0
   -3.3119   -1.6509    0.0000 C   0  0  0  0  0  0  0  0  0  0  0  0
    1.6966   -2.8852    0.0000 C   0  0  0  0  0  0  0  0  0  0  0  0
    0.2743    3.7437    0.0000 O   0  0  0  0  0  0  0  0  0  0  0  0
    1.6966    3.7437    0.0000 O   0  5  0  0  0  0  0  0  0  0  0  0
   -3.9977   -2.0471    0.0000 C   0  0  0  0  0  0  0  0  0  0  0  0
    2.3924   -3.2814    0.0000 C   0  0  0  0  0  0  0  0  0  0  0  0
  1  2  1  0  0  0  0
  1  3  1  0  0  0  0
  1  4  2  0  0  0  0
  2  5  1  0  0  0  0
  3  6  2  0  0  0  0
  4  7  1  0  0  0  0
  5  8  2  0  0  0  0
  5  9  1  0  0  0  0
  6 10  1  0  0  0  0
  6 11  1  0  0  0  0
  7 12  1  0  0  0  0
  7 10  2  0  0  0  0
  8 13  1  0  0  0  0
  9 14  2  0  0  0  0
 11 15  1  0  0  0  0
 12 16  1  0  0  0  0
 13 17  2  0  0  0  0
 13 18  1  0  0  0  0
 14 17  1  0  0  0  0
 15 19  1  0  0  0  0
 16 20  1  0  0  0  0
 18 21  2  0  0  0  0
 18 22  1  0  0  0  0
 19 23  3  0  0  0  0
 20 24  3  0  0  0  0
M  END
> <CdId>
132

> <Mol Weight>
325.2789

> <Formula>
C15H11N5O4

> <Click_ID>
CLK002_F03 __ __ 

$$$$
