CLK027_H03
 OpenBabel03181413202D

 27 29  0  0  0  0  0  0  0  0999 V2000
   -0.5251    1.1565    0.0000 N    0  0  0  0  0  0  0  0  0  0  0  0
   -0.7653    1.9390    0.0000 C    0  0  0  0  0  0  0  0  0  0  0  0
    0.2986    1.1531    0.0000 C    0  0  0  0  0  0  0  0  0  0  0  0
    0.5628    1.9287    0.0000 C    0  0  0  0  0  0  0  0  0  0  0  0
   -0.0995    2.4194    0.0000 N    0  0  0  0  0  0  0  0  0  0  0  0
    1.3624    2.0899    0.0000 C    0  0  0  0  0  0  0  0  0  0  0  0
   -1.0158    0.4942    0.0000 C    0  0  0  0  0  0  0  0  0  0  0  0
    3.7612   -1.7914    0.0000 C    0  0  0  0  0  0  0  0  0  0  0  0
    4.2862   -2.4159    0.0000 C    0  0  0  0  0  0  0  0  0  0  0  0
    2.1620    0.0789    0.0000 C    0  0  0  0  0  0  0  0  0  0  0  0
   -1.5614    2.1894    0.0000 O    0  0  0  0  0  0  0  0  0  0  0  0
    0.7756    0.4667    0.0000 O    0  0  0  0  0  0  0  0  0  0  0  0
    1.9081    1.4790    0.0000 C    0  0  0  0  0  0  0  0  0  0  0  0
    1.6232    0.7172    0.0000 C    0  0  0  0  0  0  0  0  0  0  0  0
    2.9753    0.2197    0.0000 C    0  0  0  0  0  0  0  0  0  0  0  0
    3.2567    0.9952    0.0000 C    0  0  0  0  0  0  0  0  0  0  0  0
   -1.8360    0.5903    0.0000 C    0  0  0  0  0  0  0  0  0  0  0  0
    1.8840   -0.7035    0.0000 Br   0  0  0  0  0  0  0  0  0  0  0  0
    2.7248    1.6266    0.0000 C    0  0  0  0  0  0  0  0  0  0  0  0
   -3.4729    0.7893    0.0000 C    0  0  0  0  0  0  0  0  0  0  0  0
   -4.2896    0.8922    0.0000 Cl   0  0  0  0  0  0  0  0  0  0  0  0
    3.4969   -0.3947    0.0000 O    0  0  0  0  0  0  0  0  0  0  0  0
   -2.3232   -0.0686    0.0000 C    0  0  0  0  0  0  0  0  0  0  0  0
   -2.1620    1.3521    0.0000 C    0  0  0  0  0  0  0  0  0  0  0  0
   -2.9718    1.4516    0.0000 C    0  0  0  0  0  0  0  0  0  0  0  0
   -3.1400    0.0274    0.0000 C    0  0  0  0  0  0  0  0  0  0  0  0
    3.2224   -1.1565    0.0000 C    0  0  0  0  0  0  0  0  0  0  0  0
  2  1  1  0  0  0  0
  3  1  1  0  0  0  0
  4  3  1  0  0  0  0
  5  2  1  0  0  0  0
  5  4  1  0  0  0  0
  6  4  2  0  0  0  0
  7  1  1  0  0  0  0
  8 27  1  0  0  0  0
  9  8  3  0  0  0  0
 10 14  1  0  0  0  0
 11  2  2  0  0  0  0
 12  3  2  0  0  0  0
 13  6  1  0  0  0  0
 14 13  2  0  0  0  0
 15 16  1  0  0  0  0
 15 10  2  0  0  0  0
 16 19  2  0  0  0  0
 17  7  1  0  0  0  0
 18 10  1  0  0  0  0
 19 13  1  0  0  0  0
 20 25  2  0  0  0  0
 20 26  1  0  0  0  0
 21 20  1  0  0  0  0
 22 15  1  0  0  0  0
 23 17  1  0  0  0  0
 24 17  2  0  0  0  0
 25 24  1  0  0  0  0
 26 23  2  0  0  0  0
 27 22  1  0  0  0  0
M  END
> <CdId>
2079

> <Mol Weight>
445.694

> <Formula>
C20H14BrClN2O3

> <Click_ID>
CLK027_H03 __ __ 

$$$$
