CLK003_H05
 OpenBabel03181413202D

 31 33  0  0  0  0  0  0  0  0999 V2000
    0.9591    0.4622    0.0000 C   0  0  0  0  0  0  0  0  0  0  0  0
    1.6601    0.0577    0.0000 C   0  0  0  0  0  0  0  0  0  0  0  0
    0.0809    0.2003    0.0000 C   0  0  0  0  0  0  0  0  0  0  0  0
    0.9591    1.2750    0.0000 N   0  0  0  0  0  0  0  0  0  0  0  0
    2.3611    0.4622    0.0000 C   0  0  0  0  0  0  0  0  0  0  0  0
    1.6601   -0.7511    0.0000 C   0  0  0  0  0  0  0  0  0  0  0  0
   -0.1002   -0.5816    0.0000 C   0  0  0  0  0  0  0  0  0  0  0  0
   -0.5162    0.7588    0.0000 C   0  0  0  0  0  0  0  0  0  0  0  0
    2.3611    1.2750    0.0000 N   0  0  0  0  0  0  0  0  0  0  0  0
    3.2548    0.1617    0.0000 N   0  0  0  0  0  0  0  0  0  0  0  0
    1.6601   -1.5600    0.0000 N   0  0  0  0  0  0  0  0  0  0  0  0
   -0.9051   -0.8320    0.0000 C   0  0  0  0  0  0  0  0  0  0  0  0
   -1.1016    1.3058    0.0000 N   0  0  0  0  0  0  0  0  0  0  0  0
    2.9351    1.8450    0.0000 C   0  0  0  0  0  0  0  0  0  0  0  0
   -1.1016   -1.6447    0.0000 C   0  0  0  0  0  0  0  0  0  0  0  0
   -1.5215   -0.2619    0.0000 C   0  0  0  0  0  0  0  0  0  0  0  0
    2.7232    2.6423    0.0000 C   0  0  0  0  0  0  0  0  0  0  0  0
    3.7093    1.6409    0.0000 C   0  0  0  0  0  0  0  0  0  0  0  0
   -1.9027   -1.8951    0.0000 C   0  0  0  0  0  0  0  0  0  0  0  0
   -2.3226   -0.5008    0.0000 C   0  0  0  0  0  0  0  0  0  0  0  0
    3.2933    3.2162    0.0000 C   0  0  0  0  0  0  0  0  0  0  0  0
    4.2870    2.2109    0.0000 C   0  0  0  0  0  0  0  0  0  0  0  0
   -2.5114   -1.3173    0.0000 C   0  0  0  0  0  0  0  0  0  0  0  0
   -2.0915   -2.7040    0.0000 O   0  0  0  0  0  0  0  0  0  0  0  0
   -2.9351    0.0732    0.0000 I   0  0  0  0  0  0  0  0  0  0  0  0
    4.0790    2.9967    0.0000 C   0  0  0  0  0  0  0  0  0  0  0  0
   -3.3125   -1.5600    0.0000 O   0  0  0  0  0  0  0  0  0  0  0  0
   -1.4829   -3.2779    0.0000 C   0  0  0  0  0  0  0  0  0  0  0  0
   -3.9210   -0.9899    0.0000 C   0  0  0  0  0  0  0  0  0  0  0  0
   -4.7300   -1.2249    0.0000 C   0  0  0  0  0  0  0  0  0  0  0  0
   -5.5273   -1.4713    0.0000 C   0  0  0  0  0  0  0  0  0  0  0  0
  1  2  1  0  0  0  0
  1  3  1  0  0  0  0
  1  4  2  0  0  0  0
  2  5  2  0  0  0  0
  2  6  1  0  0  0  0
  3  7  2  0  0  0  0
  3  8  1  0  0  0  0
  4  9  1  0  0  0  0
  5 10  1  0  0  0  0
  5  9  1  0  0  0  0
  6 11  3  0  0  0  0
  7 12  1  0  0  0  0
  8 13  3  0  0  0  0
  9 14  1  0  0  0  0
 12 15  1  0  0  0  0
 12 16  2  0  0  0  0
 14 17  2  0  0  0  0
 14 18  1  0  0  0  0
 15 19  2  0  0  0  0
 16 20  1  0  0  0  0
 17 21  1  0  0  0  0
 18 22  2  0  0  0  0
 19 23  1  0  0  0  0
 19 24  1  0  0  0  0
 20 25  1  0  0  0  0
 20 23  2  0  0  0  0
 21 26  2  0  0  0  0
 22 26  1  0  0  0  0
 23 27  1  0  0  0  0
 24 28  1  0  0  0  0
 27 29  1  0  0  0  0
 29 30  1  0  0  0  0
 30 31  3  0  0  0  0
M  END
> <CdId>
234

> <Mol Weight>
521.3099

> <Formula>
C23H16IN5O2

> <Click_ID>
CLK003_H05 __ __ 

$$$$
