CLK027_A08
 OpenBabel03181413202D

 20 21  0  0  0  0  0  0  0  0999 V2000
    1.4983   -0.2170    0.0000 N    0  0  0  0  0  0  0  0  0  0  0  0
    1.1505    0.5201    0.0000 C    0  0  0  0  0  0  0  0  0  0  0  0
    0.1722   -0.3892    0.0000 C    0  0  0  0  0  0  0  0  0  0  0  0
    0.8955   -0.7888    0.0000 C    0  0  0  0  0  0  0  0  0  0  0  0
    0.3307    0.4202    0.0000 S    0  0  0  0  0  0  0  0  0  0  0  0
   -0.5270   -0.8060    0.0000 C    0  0  0  0  0  0  0  0  0  0  0  0
   -1.2468   -0.4065    0.0000 C    0  0  0  0  0  0  0  0  0  0  0  0
   -1.9565   -0.8267    0.0000 C    0  0  0  0  0  0  0  0  0  0  0  0
   -2.6832   -0.4271    0.0000 C    0  0  0  0  0  0  0  0  0  0  0  0
    2.8554    0.2515    0.0000 C    0  0  0  0  0  0  0  0  0  0  0  0
   -2.6935    0.3961    0.0000 C    0  0  0  0  0  0  0  0  0  0  0  0
    3.3928    0.8749    0.0000 C    0  0  0  0  0  0  0  0  0  0  0  0
    1.5638    1.2400    0.0000 O    0  0  0  0  0  0  0  0  0  0  0  0
   -1.2538    0.4202    0.0000 C    0  0  0  0  0  0  0  0  0  0  0  0
    0.9989   -1.6155    0.0000 O    0  0  0  0  0  0  0  0  0  0  0  0
   -1.9736    0.8232    0.0000 C    0  0  0  0  0  0  0  0  0  0  0  0
    2.3112   -0.3685    0.0000 C    0  0  0  0  0  0  0  0  0  0  0  0
   -3.3962   -0.8439    0.0000 I    0  0  0  0  0  0  0  0  0  0  0  0
   -1.9461   -1.6568    0.0000 O    0  0  0  0  0  0  0  0  0  0  0  0
   -1.9736    1.6602    0.0000 Cl   0  0  0  0  0  0  0  0  0  0  0  0
  2  1  1  0  0  0  0
  3  4  1  0  0  0  0
  4  1  1  0  0  0  0
  5  2  1  0  0  0  0
  5  3  1  0  0  0  0
  6  3  2  0  0  0  0
  7  6  1  0  0  0  0
  8  7  1  0  0  0  0
  9  8  2  0  0  0  0
  9 11  1  0  0  0  0
 10 17  1  0  0  0  0
 11 16  2  0  0  0  0
 12 10  3  0  0  0  0
 13  2  2  0  0  0  0
 14  7  2  0  0  0  0
 15  4  2  0  0  0  0
 16 14  1  0  0  0  0
 17  1  1  0  0  0  0
 18  9  1  0  0  0  0
 19  8  1  0  0  0  0
 20 16  1  0  0  0  0
M  END
> <CdId>
2023

> <Mol Weight>
419.622

> <Formula>
C13H7ClINO3S

> <Click_ID>
CLK027_A08 __ __ 

$$$$
