CLK039E05
 OpenBabel03181413202D

 16 16  0  0  0  0  0  0  0  0999 V2000
   -2.1000   -0.7958    0.0000 N   0  3  0  0  0  0  0  0  0  0  0  0
   -1.3875   -0.3833    0.0000 C   0  0  0  0  0  0  0  0  0  0  0  0
   -0.6708   -0.7958    0.0000 C   0  0  0  0  0  0  0  0  0  0  0  0
    0.7583    0.8542    0.0000 C   0  0  0  0  0  0  0  0  0  0  0  0
    0.0417    0.4417    0.0000 C   0  0  0  0  0  0  0  0  0  0  0  0
    0.0417   -0.3833    0.0000 C   0  0  0  0  0  0  0  0  0  0  0  0
    2.9000    0.4417    0.0000 C   0  0  0  0  0  0  0  0  0  0  0  0
    3.6167    0.0292    0.0000 C   0  0  0  0  0  0  0  0  0  0  0  0
   -1.3875    0.4417    0.0000 C   0  0  0  0  0  0  0  0  0  0  0  0
   -2.8167   -0.3833    0.0000 O   0  5  0  0  0  0  0  0  0  0  0  0
   -2.1000   -1.6208    0.0000 O   0  0  0  0  0  0  0  0  0  0  0  0
   -0.6708    0.8542    0.0000 C   0  0  0  0  0  0  0  0  0  0  0  0
    0.7583    1.6792    0.0000 O   0  0  0  0  0  0  0  0  0  0  0  0
    1.4708    0.4417    0.0000 N   0  0  0  0  0  0  0  0  0  0  0  0
    2.1875    0.8542    0.0000 C   0  0  0  0  0  0  0  0  0  0  0  0
   -0.6708   -1.6208    0.0000 C   0  0  0  0  0  0  0  0  0  0  0  0
  2  1  1  0  0  0  0
  3  2  2  0  0  0  0
  4  5  1  0  0  0  0
  5  6  2  0  0  0  0
  6  3  1  0  0  0  0
  7 15  1  0  0  0  0
  8  7  3  0  0  0  0
  9  2  1  0  0  0  0
 10  1  1  0  0  0  0
 11  1  2  0  0  0  0
 12  9  2  0  0  0  0
 12  5  1  0  0  0  0
 13  4  2  0  0  0  0
 14  4  1  0  0  0  0
 15 14  1  0  0  0  0
 16  3  1  0  0  0  0
M  END
> <CdId>
2957

> <Mol Weight>
218.2087

> <Formula>
C11H10N2O3

> <Click_ID>
CLK039E05 __ __ 

$$$$
