CLK009_A08
 OpenBabel03181413202D

 20 20  0  0  0  0  0  0  0  0999 V2000
   -1.6739    0.0857    0.0000 N    0  0  0  0  0  0  0  0  0  0  0  0
    0.4921    0.7791    0.0000 C    0  0  3  0  0  0  0  0  0  0  0  0
   -0.0447    0.0895    0.0000 C    0  0  3  0  0  0  0  0  0  0  0  0
   -0.1901    0.4586    0.0000 C    0  0  0  0  0  0  0  0  0  0  0  0
   -0.9693    0.3877    0.0000 C    0  0  0  0  0  0  0  0  0  0  0  0
   -2.3226   -0.4288    0.0000 C    0  0  0  0  0  0  0  0  0  0  0  0
   -2.9527   -0.9283    0.0000 C    0  0  0  0  0  0  0  0  0  0  0  0
   -3.6349   -1.4465    0.0000 C    0  0  0  0  0  0  0  0  0  0  0  0
   -1.0849    0.8015    0.0000 C    0  0  0  0  0  0  0  0  0  0  0  0
    1.2564    0.3765    0.0000 C    0  0  0  0  0  0  0  0  0  0  0  0
    0.8314    1.5770    0.0000 O    0  0  0  0  0  0  0  0  0  0  0  0
    0.8947    0.0895    0.0000 C    0  0  0  0  0  0  0  0  0  0  0  0
   -2.8296    0.2199    0.0000 C    0  0  0  0  0  0  0  0  0  0  0  0
   -1.8081   -1.0737    0.0000 C    0  0  0  0  0  0  0  0  0  0  0  0
    1.8044    0.7717    0.0000 C    0  0  0  0  0  0  0  0  0  0  0  0
    1.6553   -0.3617    0.0000 C    0  0  0  0  0  0  0  0  0  0  0  0
    2.5500    0.4436    0.0000 C    0  0  0  0  0  0  0  0  0  0  0  0
    2.3077   -0.7158    0.0000 C    0  0  0  0  0  0  0  0  0  0  0  0
    2.8893   -0.2722    0.0000 C    0  0  0  0  0  0  0  0  0  0  0  0
   -1.9535    1.5061    0.0000 Br   0  0  0  0  0  0  0  0  0  0  0  0
  2  4  1  0  0  0  0
  2  3  1  0  0  0  0
  3  5  1  0  0  0  0
  4  9  1  0  0  0  0
  5  1  1  0  0  0  0
  6  1  1  0  0  0  0
  7  6  1  0  0  0  0
  8  7  3  0  0  0  0
  9  1  1  0  0  0  0
 10  2  1  0  0  0  0
 11  2  1  0  0  0  0
 12  3  1  0  0  0  0
 13  6  1  0  0  0  0
 14  6  1  0  0  0  0
 15 10  2  0  0  0  0
 16 10  1  0  0  0  0
 17 15  1  0  0  0  0
 18 16  2  0  0  0  0
 19 17  2  0  0  0  0
 19 18  1  0  0  0  0
M  END
> <CdId>
603

> <Mol Weight>
338.283

> <Formula>
C17H24BrNO

> <Click_ID>
CLK009_A08 __ __ 

$$$$
