CLK041B10
 OpenBabel03181413202D

 26 29  0  0  0  0  0  0  0  0999 V2000
   -0.8204   -0.1124    0.0000 C   0  0  0  0  0  0  0  0  0  0  0  0
    1.2743    0.2998    0.0000 N   0  0  0  0  0  0  0  0  0  0  0  0
   -1.3035    0.5539    0.0000 N   0  0  0  0  0  0  0  0  0  0  0  0
   -1.3035   -0.7788    0.0000 N   0  0  0  0  0  0  0  0  0  0  0  0
    0.0042   -0.1124    0.0000 C   0  0  3  0  0  0  0  0  0  0  0  0
    1.2743   -0.5247    0.0000 C   0  0  0  0  0  0  0  0  0  0  0  0
    0.4872    0.5539    0.0000 C   0  0  0  0  0  0  0  0  0  0  0  0
    1.9406    0.7829    0.0000 C   0  0  0  0  0  0  0  0  0  0  0  0
   -2.0906   -0.5247    0.0000 C   0  0  0  0  0  0  0  0  0  0  0  0
   -2.0906    0.2998    0.0000 C   0  0  0  0  0  0  0  0  0  0  0  0
    0.4872   -0.7788    0.0000 C   0  0  0  0  0  0  0  0  0  0  0  0
   -1.6033   -2.1780    0.0000 C   0  0  0  0  0  0  0  0  0  0  0  0
   -2.1530   -2.7902    0.0000 C   0  0  0  0  0  0  0  0  0  0  0  0
    1.9406   -1.0119    0.0000 O   0  0  0  0  0  0  0  0  0  0  0  0
    2.6943    0.4498    0.0000 C   0  0  0  0  0  0  0  0  0  0  0  0
    1.8532    1.6033    0.0000 C   0  0  0  0  0  0  0  0  0  0  0  0
   -1.0494   -1.5658    0.0000 C   0  0  0  0  0  0  0  0  0  0  0  0
   -2.8027   -0.9370    0.0000 C   0  0  0  0  0  0  0  0  0  0  0  0
   -2.8027    0.7121    0.0000 C   0  0  0  0  0  0  0  0  0  0  0  0
    3.2732    1.7532    0.0000 C   0  0  0  0  0  0  0  0  0  0  0  0
    3.3607    0.9328    0.0000 C   0  0  0  0  0  0  0  0  0  0  0  0
    2.5194    2.0906    0.0000 C   0  0  0  0  0  0  0  0  0  0  0  0
    1.0994    1.9406    0.0000 C   0  0  0  0  0  0  0  0  0  0  0  0
    2.7818   -0.3706    0.0000 C   0  0  0  0  0  0  0  0  0  0  0  0
   -3.5189   -0.5247    0.0000 C   0  0  0  0  0  0  0  0  0  0  0  0
   -3.5189    0.2998    0.0000 C   0  0  0  0  0  0  0  0  0  0  0  0
  2  7  1  0  0  0  0
  3  1  2  0  0  0  0
  4  1  1  0  0  0  0
  5  1  1  0  0  0  0
  6 11  1  0  0  0  0
  6  2  1  0  0  0  0
  7  5  1  0  0  0  0
  8  2  1  0  0  0  0
  9  4  1  0  0  0  0
  9 10  2  0  0  0  0
 10  3  1  0  0  0  0
 11  5  1  0  0  0  0
 12 17  1  0  0  0  0
 13 12  3  0  0  0  0
 14  6  2  0  0  0  0
 15  8  2  0  0  0  0
 16  8  1  0  0  0  0
 17  4  1  0  0  0  0
 18  9  1  0  0  0  0
 19 10  1  0  0  0  0
 20 21  2  0  0  0  0
 21 15  1  0  0  0  0
 22 16  2  0  0  0  0
 22 20  1  0  0  0  0
 23 16  1  0  0  0  0
 24 15  1  0  0  0  0
 25 18  2  0  0  0  0
 25 26  1  0  0  0  0
 26 19  2  0  0  0  0
M  END
> <CdId>
3154

> <Mol Weight>
343.4216

> <Formula>
C22H21N3O

> <Click_ID>
CLK041B10 __ __ 

$$$$
