CLK049F11
 OpenBabel03181413202D

 19 19  0  0  0  0  0  0  0  0999 V2000
    1.7379    0.1208    0.0000 N   0  0  0  0  0  0  0  0  0  0  0  0
    1.3170    0.8335    0.0000 N   0  0  0  0  0  0  0  0  0  0  0  0
    0.4334   -0.1708    0.0000 C   0  0  0  0  0  0  0  0  0  0  0  0
    1.1920   -0.4959    0.0000 C   0  0  0  0  0  0  0  0  0  0  0  0
    0.5126    0.6501    0.0000 C   0  0  0  0  0  0  0  0  0  0  0  0
   -0.2751   -0.5918    0.0000 C   0  0  0  0  0  0  0  0  0  0  0  0
   -3.8508   -0.2167    0.0000 C   0  0  0  0  0  0  0  0  0  0  0  0
   -4.5718    0.1875    0.0000 C   0  0  0  0  0  0  0  0  0  0  0  0
    2.5588    0.0458    0.0000 C   0  0  0  0  0  0  0  0  0  0  0  0
   -1.7046   -0.6043    0.0000 C   0  0  0  0  0  0  0  0  0  0  0  0
   -1.6962   -1.4295    0.0000 O   0  0  0  0  0  0  0  0  0  0  0  0
   -0.9960   -0.1875    0.0000 C   0  0  0  0  0  0  0  0  0  0  0  0
   -2.4213   -0.2000    0.0000 N   0  0  0  0  0  0  0  0  0  0  0  0
    1.3711   -1.3045    0.0000 C   0  0  0  0  0  0  0  0  0  0  0  0
   -3.1340   -0.6209    0.0000 C   0  0  0  0  0  0  0  0  0  0  0  0
   -0.1083    1.1961    0.0000 C   0  0  0  0  0  0  0  0  0  0  0  0
    3.0381    0.7169    0.0000 C   0  0  0  0  0  0  0  0  0  0  0  0
    2.6923    1.4670    0.0000 C   0  0  0  0  0  0  0  0  0  0  0  0
    3.8591    0.6418    0.0000 C   0  0  0  0  0  0  0  0  0  0  0  0
  2  1  1  0  0  0  0
  3  4  2  0  0  0  0
  3  5  1  0  0  0  0
  4  1  1  0  0  0  0
  5  2  2  0  0  0  0
  6  3  1  0  0  0  0
  7 15  1  0  0  0  0
  8  7  3  0  0  0  0
  9  1  1  0  0  0  0
 10 12  1  0  0  0  0
 11 10  2  0  0  0  0
 12  6  1  0  0  0  0
 13 10  1  0  0  0  0
 14  4  1  0  0  0  0
 15 13  1  0  0  0  0
 16  5  1  0  0  0  0
 17  9  1  0  0  0  0
 18 17  1  0  0  0  0
 19 17  1  0  0  0  0
M  END
> <CdId>
3806

> <Mol Weight>
261.3626

> <Formula>
C15H23N3O

> <Click_ID>
CLK049F11 __ __ 

$$$$
