CLK011_H04
 OpenBabel03181413202D

 32 34  0  0  0  0  0  0  0  0999 V2000
   -2.2491   -3.4265    0.0000 N    0  0  0  0  0  0  0  0  0  0  0  0
   -1.5208   -3.8525    0.0000 C    0  0  0  0  0  0  0  0  0  0  0  0
   -2.2400   -2.5973    0.0000 C    0  0  0  0  0  0  0  0  0  0  0  0
   -0.8062   -3.4402    0.0000 C    0  0  0  0  0  0  0  0  0  0  0  0
   -1.5208   -2.1759    0.0000 N    0  0  0  0  0  0  0  0  0  0  0  0
   -2.9637   -3.8387    0.0000 C    0  0  0  0  0  0  0  0  0  0  0  0
   -0.7971   -2.6157    0.0000 C    0  0  0  0  0  0  0  0  0  0  0  0
   -2.9684   -4.6633    0.0000 C    0  0  0  0  0  0  0  0  0  0  0  0
   -0.0916   -3.8525    0.0000 C    0  0  0  0  0  0  0  0  0  0  0  0
   -3.6830   -3.4265    0.0000 C    0  0  0  0  0  0  0  0  0  0  0  0
   -4.4067   -3.8250    0.0000 C    0  0  0  0  0  0  0  0  0  0  0  0
   -3.6921   -5.0756    0.0000 C    0  0  0  0  0  0  0  0  0  0  0  0
   -4.4067   -4.6587    0.0000 C    0  0  0  0  0  0  0  0  0  0  0  0
    3.4814   -0.9666    0.0000 C    0  0  0  0  0  0  0  0  0  0  0  0
   -2.9684   -2.1759    0.0000 O    0  0  0  0  0  0  0  0  0  0  0  0
   -1.5208   -4.6770    0.0000 O    0  0  0  0  0  0  0  0  0  0  0  0
    3.4814   -0.1420    0.0000 C    0  0  0  0  0  0  0  0  0  0  0  0
    1.3376   -2.2034    0.0000 C    0  0  0  0  0  0  0  0  0  0  0  0
   -0.0778   -2.1988    0.0000 O    0  0  0  0  0  0  0  0  0  0  0  0
    0.6230   -3.4402    0.0000 C    0  0  0  0  0  0  0  0  0  0  0  0
    0.6230   -2.6157    0.0000 C    0  0  0  0  0  0  0  0  0  0  0  0
    2.0522   -2.6157    0.0000 C    0  0  0  0  0  0  0  0  0  0  0  0
    2.0522   -3.4402    0.0000 C    0  0  0  0  0  0  0  0  0  0  0  0
   -5.1213   -5.0709    0.0000 Cl   0  0  0  0  0  0  0  0  0  0  0  0
    1.3376   -1.3789    0.0000 Cl   0  0  0  0  0  0  0  0  0  0  0  0
   -3.6783   -2.5882    0.0000 O    0  0  0  0  0  0  0  0  0  0  0  0
    1.3376   -3.8525    0.0000 C    0  0  0  0  0  0  0  0  0  0  0  0
   -3.6967   -5.9138    0.0000 O    0  0  0  0  0  0  0  0  0  0  0  0
    2.7668   -2.2034    0.0000 O    0  0  0  0  0  0  0  0  0  0  0  0
    2.7668   -1.3789    0.0000 C    0  0  0  0  0  0  0  0  0  0  0  0
   -4.4067   -2.1622    0.0000 C    0  0  0  0  0  0  0  0  0  0  0  0
   -4.4342   -6.3261    0.0000 C    0  0  0  0  0  0  0  0  0  0  0  0
  2  1  1  0  0  0  0
  3  1  1  0  0  0  0
  4  2  1  0  0  0  0
  5  3  1  0  0  0  0
  6  1  1  0  0  0  0
  7  5  1  0  0  0  0
  7  4  1  0  0  0  0
  8  6  2  0  0  0  0
  9  4  2  0  0  0  0
 10  6  1  0  0  0  0
 11 10  2  0  0  0  0
 12  8  1  0  0  0  0
 13 11  1  0  0  0  0
 13 12  2  0  0  0  0
 14 30  1  0  0  0  0
 15  3  2  0  0  0  0
 16  2  2  0  0  0  0
 17 14  3  0  0  0  0
 18 21  1  0  0  0  0
 18 22  2  0  0  0  0
 19  7  2  0  0  0  0
 20  9  1  0  0  0  0
 21 20  2  0  0  0  0
 22 23  1  0  0  0  0
 23 27  2  0  0  0  0
 24 13  1  0  0  0  0
 25 18  1  0  0  0  0
 26 10  1  0  0  0  0
 27 20  1  0  0  0  0
 28 12  1  0  0  0  0
 29 22  1  0  0  0  0
 30 29  1  0  0  0  0
 31 26  1  0  0  0  0
 32 28  1  0  0  0  0
M  END
> <CdId>
829

> <Mol Weight>
475.278

> <Formula>
C22H16Cl2N2O6

> <Click_ID>
CLK011_H04 __ __ 

$$$$
