CLK035_F09
 OpenBabel03181413202D

 21 23  0  0  0  0  0  0  0  0999 V2000
   -3.3000    1.7333    0.0000 C    0  0  0  0  0  0  0  0  0  0  0  0
   -3.3000    2.5708    0.0000 C    0  0  0  0  0  0  0  0  0  0  0  0
   -4.0958    1.4833    0.0000 N    0  0  0  0  0  0  0  0  0  0  0  0
   -4.5833    2.1500    0.0000 N    0  0  0  0  0  0  0  0  0  0  0  0
   -4.0958    2.8208    0.0000 N    0  0  0  0  0  0  0  0  0  0  0  0
   -2.5958    1.3250    0.0000 N    0  0  0  0  0  0  0  0  0  0  0  0
   -2.5958    2.9833    0.0000 C    0  0  0  0  0  0  0  0  0  0  0  0
   -1.8833    2.5583    0.0000 N    0  0  0  0  0  0  0  0  0  0  0  0
   -1.8833    1.7333    0.0000 C    0  0  0  0  0  0  0  0  0  0  0  0
   -4.3458    0.6958    0.0000 C    0  0  0  0  0  0  0  0  0  0  0  0
   -5.1583    0.5208    0.0000 C    0  0  0  0  0  0  0  0  0  0  0  0
   -5.4083   -0.2542    0.0000 C    0  0  0  0  0  0  0  0  0  0  0  0
   -1.1583    3.7958    0.0000 C    0  0  0  0  0  0  0  0  0  0  0  0
   -1.1625    4.6167    0.0000 C    0  0  0  0  0  0  0  0  0  0  0  0
   -2.5875    3.8000    0.0000 O    0  0  0  0  0  0  0  0  0  0  0  0
   -3.7958    0.0833    0.0000 C    0  0  0  0  0  0  0  0  0  0  0  0
   -4.8500   -0.8750    0.0000 C    0  0  0  0  0  0  0  0  0  0  0  0
   -4.0500   -0.7042    0.0000 C    0  0  0  0  0  0  0  0  0  0  0  0
   -1.1625    2.9708    0.0000 C    0  0  0  0  0  0  0  0  0  0  0  0
   -6.2042   -0.4292    0.0000 Cl   0  0  0  0  0  0  0  0  0  0  0  0
   -5.1083   -1.6625    0.0000 C    0  0  0  0  0  0  0  0  0  0  0  0
  2  1  2  0  0  0  0
  3  1  1  0  0  0  0
  4  3  1  0  0  0  0
  5  2  1  0  0  0  0
  5  4  2  0  0  0  0
  6  1  1  0  0  0  0
  7  2  1  0  0  0  0
  8  9  1  0  0  0  0
  8  7  1  0  0  0  0
  9  6  2  0  0  0  0
 10  3  1  0  0  0  0
 11 10  2  0  0  0  0
 12 11  1  0  0  0  0
 12 17  2  0  0  0  0
 13 19  1  0  0  0  0
 14 13  3  0  0  0  0
 15  7  2  0  0  0  0
 16 10  1  0  0  0  0
 17 18  1  0  0  0  0
 18 16  2  0  0  0  0
 19  8  1  0  0  0  0
 20 12  1  0  0  0  0
 21 17  1  0  0  0  0
M  END
> <CdId>
2703

> <Mol Weight>
299.715

> <Formula>
C14H10ClN5O

> <Click_ID>
CLK035_F09 __ __ 

$$$$
