CLK049F02
 OpenBabel03181413202D

 21 23  0  0  0  0  0  0  0  0999 V2000
   -0.7167    0.1000    0.0000 C   0  0  3  0  0  0  0  0  0  0  0  0
   -1.4292   -0.3125    0.0000 O   0  0  0  0  0  0  0  0  0  0  0  0
    0.0000   -0.3125    0.0000 C   0  0  0  0  0  0  0  0  0  0  0  0
   -1.4292    1.3375    0.0000 O   0  0  0  0  0  0  0  0  0  0  0  0
    0.7125    0.1000    0.0000 N   0  0  0  0  0  0  0  0  0  0  0  0
   -2.1458    0.1000    0.0000 C   0  0  0  0  0  0  0  0  0  0  0  0
    3.5708    0.1000    0.0000 C   0  0  0  0  0  0  0  0  0  0  0  0
    4.2833    0.5125    0.0000 C   0  0  0  0  0  0  0  0  0  0  0  0
   -0.7167    0.9250    0.0000 C   0  0  0  0  0  0  0  0  0  0  0  0
   -2.1458    0.9250    0.0000 C   0  0  0  0  0  0  0  0  0  0  0  0
    0.0000   -1.1375    0.0000 O   0  0  0  0  0  0  0  0  0  0  0  0
    1.4250   -0.3125    0.0000 C   0  0  0  0  0  0  0  0  0  0  0  0
    2.8542   -0.3125    0.0000 C   0  0  0  0  0  0  0  0  0  0  0  0
    2.1417    0.1000    0.0000 C   0  0  0  0  0  0  0  0  0  0  0  0
    2.1417   -1.5500    0.0000 C   0  0  0  0  0  0  0  0  0  0  0  0
   -2.8583   -0.3125    0.0000 C   0  0  0  0  0  0  0  0  0  0  0  0
    1.4250   -1.1375    0.0000 C   0  0  0  0  0  0  0  0  0  0  0  0
   -2.8583    1.3375    0.0000 C   0  0  0  0  0  0  0  0  0  0  0  0
    2.8542   -1.1375    0.0000 C   0  0  0  0  0  0  0  0  0  0  0  0
   -3.5750    0.1000    0.0000 C   0  0  0  0  0  0  0  0  0  0  0  0
   -3.5750    0.9250    0.0000 C   0  0  0  0  0  0  0  0  0  0  0  0
  2  1  1  0  0  0  0
  3  1  1  0  0  0  0
  4  9  1  0  0  0  0
  5  3  1  0  0  0  0
  6  2  1  0  0  0  0
  7 13  1  0  0  0  0
  8  7  3  0  0  0  0
  9  1  1  0  0  0  0
 10  6  2  0  0  0  0
 10  4  1  0  0  0  0
 11  3  2  0  0  0  0
 12  5  1  0  0  0  0
 13 14  1  0  0  0  0
 14 12  2  0  0  0  0
 15 17  2  0  0  0  0
 16  6  1  0  0  0  0
 17 12  1  0  0  0  0
 18 10  1  0  0  0  0
 19 13  2  0  0  0  0
 19 15  1  0  0  0  0
 20 16  2  0  0  0  0
 20 21  1  0  0  0  0
 21 18  2  0  0  0  0
M  END
> <CdId>
3734

> <Mol Weight>
279.29

> <Formula>
C17H13NO3

> <Click_ID>
CLK049F02 __ __ 

$$$$
