CLK021_F08
 OpenBabel03181413202D

 24 25  0  0  0  0  0  0  0  0999 V2000
    8.4837    3.9669    0.0000 N    0  0  0  0  0  0  0  0  0  0  0  0
    3.1241    1.8231    0.0000 C    0  0  0  0  0  0  0  0  0  0  0  0
    3.5364    1.1085    0.0000 C    0  0  0  0  0  0  0  0  0  0  0  0
    3.5364    2.5377    0.0000 C    0  0  0  0  0  0  0  0  0  0  0  0
    8.0714    3.2523    0.0000 C    0  0  0  0  0  0  0  0  0  0  0  0
    1.0628    2.5377    0.0000 C    0  0  0  0  0  0  0  0  0  0  0  0
    0.2382    2.5377    0.0000 C    0  0  0  0  0  0  0  0  0  0  0  0
    7.2468    3.2523    0.0000 C    0  0  0  0  0  0  0  0  0  0  0  0
    9.3082    3.9669    0.0000 O    0  0  0  0  0  0  0  0  0  0  0  0
    8.0714    4.6724    0.0000 O    0  0  0  0  0  0  0  0  0  0  0  0
    4.3609    1.1085    0.0000 C    0  0  0  0  0  0  0  0  0  0  0  0
    4.3609    2.5377    0.0000 C    0  0  0  0  0  0  0  0  0  0  0  0
    4.7732    1.8231    0.0000 C    0  0  0  0  0  0  0  0  0  0  0  0
    6.0100    2.5377    0.0000 N    0  0  0  0  0  0  0  0  0  0  0  0
    6.8346    2.5377    0.0000 C    0  0  0  0  0  0  0  0  0  0  0  0
    3.1241    0.3939    0.0000 Cl   0  0  0  0  0  0  0  0  0  0  0  0
    5.5978    1.8231    0.0000 C    0  0  0  0  0  0  0  0  0  0  0  0
    2.2996    1.8231    0.0000 O    0  0  0  0  0  0  0  0  0  0  0  0
    3.1241    3.2523    0.0000 O    0  0  0  0  0  0  0  0  0  0  0  0
    1.8873    2.5377    0.0000 C    0  0  0  0  0  0  0  0  0  0  0  0
    8.4837    2.5377    0.0000 C    0  0  0  0  0  0  0  0  0  0  0  0
    8.0714    1.8231    0.0000 C    0  0  0  0  0  0  0  0  0  0  0  0
    7.2468    1.8231    0.0000 C    0  0  0  0  0  0  0  0  0  0  0  0
    3.5364    3.9669    0.0000 C    0  0  0  0  0  0  0  0  0  0  0  0
  2  4  1  0  0  0  0
  3 11  1  0  0  0  0
  3  2  2  0  0  0  0
  4 12  2  0  0  0  0
  5  1  1  0  0  0  0
  6 20  1  0  0  0  0
  7  6  3  0  0  0  0
  8  5  1  0  0  0  0
  9  1  1  0  0  0  0
 10  1  2  0  0  0  0
 11 13  2  0  0  0  0
 12 13  1  0  0  0  0
 13 17  1  0  0  0  0
 14 15  1  0  0  0  0
 15  8  2  0  0  0  0
 16  3  1  0  0  0  0
 17 14  1  0  0  0  0
 18  2  1  0  0  0  0
 19  4  1  0  0  0  0
 20 18  1  0  0  0  0
 21  5  2  0  0  0  0
 22 21  1  0  0  0  0
 23 22  2  0  0  0  0
 23 15  1  0  0  0  0
 24 19  1  0  0  0  0
M  END
> <CdId>
1613

> <Mol Weight>
346.765

> <Formula>
C17H15ClN2O4

> <Click_ID>
CLK021_F08 __ __ 

$$$$
