CLK046G03
 OpenBabel03181413202D

 26 28  0  0  0  0  0  0  0  0999 V2000
   -1.1042   -0.4333    0.0000 C   0  0  0  0  0  0  0  0  0  0  0  0
   -1.5875   -1.1000    0.0000 C   0  0  0  0  0  0  0  0  0  0  0  0
   -1.5875    0.2333    0.0000 S   0  0  0  0  0  0  0  0  0  0  0  0
   -2.3750   -0.8458    0.0000 C   0  0  0  0  0  0  0  0  0  0  0  0
   -2.3750   -0.0208    0.0000 C   0  0  0  0  0  0  0  0  0  0  0  0
   -0.2792   -0.4333    0.0000 N   0  0  0  0  0  0  0  0  0  0  0  0
   -1.3333   -1.8833    0.0000 C   0  0  0  0  0  0  0  0  0  0  0  0
    3.8458    2.4250    0.0000 C   0  0  0  0  0  0  0  0  0  0  0  0
    0.1333    0.2833    0.0000 C   0  0  0  0  0  0  0  0  0  0  0  0
    4.2583    3.1417    0.0000 C   0  0  0  0  0  0  0  0  0  0  0  0
   -0.5250   -2.0542    0.0000 O   0  0  0  0  0  0  0  0  0  0  0  0
    1.3708    0.9958    0.0000 N   0  0  0  0  0  0  0  0  0  0  0  0
   -0.2792    0.9958    0.0000 O   0  0  0  0  0  0  0  0  0  0  0  0
    3.4333    1.7125    0.0000 C   0  0  0  0  0  0  0  0  0  0  0  0
    0.9583    0.2833    0.0000 C   0  0  0  0  0  0  0  0  0  0  0  0
    2.1958    0.9958    0.0000 C   0  0  0  0  0  0  0  0  0  0  0  0
   -1.8875   -2.4958    0.0000 O   0  0  0  0  0  0  0  0  0  0  0  0
    2.6083    1.7125    0.0000 C   0  0  0  0  0  0  0  0  0  0  0  0
   -3.0875   -1.2583    0.0000 C   0  0  0  0  0  0  0  0  0  0  0  0
   -3.0875    0.3917    0.0000 C   0  0  0  0  0  0  0  0  0  0  0  0
    3.4333    0.2833    0.0000 C   0  0  0  0  0  0  0  0  0  0  0  0
    3.8458    0.9958    0.0000 C   0  0  0  0  0  0  0  0  0  0  0  0
    2.6083    0.2833    0.0000 C   0  0  0  0  0  0  0  0  0  0  0  0
   -1.6292   -3.2833    0.0000 C   0  0  0  0  0  0  0  0  0  0  0  0
   -3.8042   -0.8458    0.0000 C   0  0  0  0  0  0  0  0  0  0  0  0
   -3.8042   -0.0208    0.0000 C   0  0  0  0  0  0  0  0  0  0  0  0
  2  1  2  0  0  0  0
  3  1  1  0  0  0  0
  4  2  1  0  0  0  0
  4  5  2  0  0  0  0
  5  3  1  0  0  0  0
  6  1  1  0  0  0  0
  7  2  1  0  0  0  0
  8 14  1  0  0  0  0
  9  6  1  0  0  0  0
 10  8  3  0  0  0  0
 11  7  2  0  0  0  0
 12 15  1  0  0  0  0
 13  9  2  0  0  0  0
 14 18  1  0  0  0  0
 15  9  1  0  0  0  0
 16 12  1  0  0  0  0
 17  7  1  0  0  0  0
 18 16  2  0  0  0  0
 19  4  1  0  0  0  0
 20  5  1  0  0  0  0
 21 23  2  0  0  0  0
 22 14  2  0  0  0  0
 22 21  1  0  0  0  0
 23 16  1  0  0  0  0
 24 17  1  0  0  0  0
 25 19  1  0  0  0  0
 25 26  1  0  0  0  0
 26 20  1  0  0  0  0
M  END
> <CdId>
3503

> <Mol Weight>
368.449

> <Formula>
C20H20N2O3S

> <Click_ID>
CLK046G03 __ __ 

$$$$
