CLK027_H02
 OpenBabel03181413202D

 24 25  0  0  0  0  0  0  0  0999 V2000
   -4.2865   -0.8422    0.0000 N   0  3  0  0  0  0  0  0  0  0  0  0
   -3.5750   -0.4228    0.0000 C   0  0  0  0  0  0  0  0  0  0  0  0
    4.2935   -0.8147    0.0000 C   0  0  0  0  0  0  0  0  0  0  0  0
    5.0050   -1.2307    0.0000 C   0  0  0  0  0  0  0  0  0  0  0  0
   -0.7150    0.4125    0.0000 N   0  0  0  0  0  0  0  0  0  0  0  0
   -5.0050   -0.4331    0.0000 O   0  5  0  0  0  0  0  0  0  0  0  0
    2.1347    0.4228    0.0000 C   0  0  0  0  0  0  0  0  0  0  0  0
   -4.2762   -1.6638    0.0000 O   0  0  0  0  0  0  0  0  0  0  0  0
    2.1415   -0.4057    0.0000 C   0  0  0  0  0  0  0  0  0  0  0  0
    1.4197    0.8353    0.0000 C   0  0  0  0  0  0  0  0  0  0  0  0
   -1.4369    0.8215    0.0000 N   0  0  0  0  0  0  0  0  0  0  0  0
   -3.5750    0.4022    0.0000 C   0  0  0  0  0  0  0  0  0  0  0  0
   -2.8669   -0.8318    0.0000 C   0  0  0  0  0  0  0  0  0  0  0  0
    1.4231   -0.8147    0.0000 C   0  0  0  0  0  0  0  0  0  0  0  0
   -0.0068    0.8250    0.0000 C   0  0  0  0  0  0  0  0  0  0  0  0
    0.7116    0.4228    0.0000 C   0  0  0  0  0  0  0  0  0  0  0  0
   -2.1485    0.4022    0.0000 C   0  0  0  0  0  0  0  0  0  0  0  0
    0.7150   -0.4057    0.0000 C   0  0  0  0  0  0  0  0  0  0  0  0
   -2.1485   -0.4228    0.0000 C   0  0  0  0  0  0  0  0  0  0  0  0
   -2.8669    0.8147    0.0000 C   0  0  0  0  0  0  0  0  0  0  0  0
    2.8497    0.8456    0.0000 O   0  0  0  0  0  0  0  0  0  0  0  0
    2.8634   -0.8182    0.0000 O   0  0  0  0  0  0  0  0  0  0  0  0
    3.5750   -0.4057    0.0000 C   0  0  0  0  0  0  0  0  0  0  0  0
    2.8428    1.6672    0.0000 C   0  0  0  0  0  0  0  0  0  0  0  0
  2  1  1  0  0  0  0
  3 23  1  0  0  0  0
  4  3  3  0  0  0  0
  5 11  1  0  0  0  0
  6  1  1  0  0  0  0
  7 10  1  0  0  0  0
  7  9  2  0  0  0  0
  8  1  2  0  0  0  0
  9 14  1  0  0  0  0
 10 16  2  0  0  0  0
 11 17  1  0  0  0  0
 12  2  1  0  0  0  0
 13  2  2  0  0  0  0
 14 18  2  0  0  0  0
 15  5  2  0  0  0  0
 16 15  1  0  0  0  0
 17 19  2  0  0  0  0
 18 16  1  0  0  0  0
 19 13  1  0  0  0  0
 20 12  2  0  0  0  0
 20 17  1  0  0  0  0
 21  7  1  0  0  0  0
 22  9  1  0  0  0  0
 23 22  1  0  0  0  0
 24 21  1  0  0  0  0
M  END
> <CdId>
2078

> <Mol Weight>
325.3187

> <Formula>
C17H15N3O4

> <Click_ID>
CLK027_H02 __ __ 

$$$$
