CLK004_D11
 OpenBabel03181413202D

 27 29  0  0  0  0  0  0  0  0999 V2000
   -1.0874    1.0683    0.0000 C   0  0  0  0  0  0  0  0  0  0  0  0
   -0.6982    1.7817    0.0000 C   0  0  0  0  0  0  0  0  0  0  0  0
   -0.7440    0.3282    0.0000 N   0  0  0  0  0  0  0  0  0  0  0  0
   -1.9000    0.9653    0.0000 N   0  0  0  0  0  0  0  0  0  0  0  0
    0.1183    1.7970    0.0000 C   0  0  0  0  0  0  0  0  0  0  0  0
   -1.1713    2.5715    0.0000 C   0  0  0  0  0  0  0  0  0  0  0  0
   -1.3391   -0.2251    0.0000 C   0  0  0  0  0  0  0  0  0  0  0  0
   -2.0527    0.1678    0.0000 C   0  0  0  0  0  0  0  0  0  0  0  0
    0.5418    1.0798    0.0000 C   0  0  0  0  0  0  0  0  0  0  0  0
   -1.6520    3.3613    0.0000 N   0  0  0  0  0  0  0  0  0  0  0  0
   -1.3201   -1.0416    0.0000 C   0  0  0  0  0  0  0  0  0  0  0  0
   -2.7471   -0.2518    0.0000 C   0  0  0  0  0  0  0  0  0  0  0  0
    1.3735    1.0951    0.0000 C   0  0  0  0  0  0  0  0  0  0  0  0
    0.1412    0.3586    0.0000 C   0  0  0  0  0  0  0  0  0  0  0  0
   -2.0259   -1.4537    0.0000 C   0  0  0  0  0  0  0  0  0  0  0  0
   -2.7356   -1.0683    0.0000 C   0  0  0  0  0  0  0  0  0  0  0  0
    1.8009    0.3854    0.0000 C   0  0  0  0  0  0  0  0  0  0  0  0
    0.5723   -0.3472    0.0000 C   0  0  0  0  0  0  0  0  0  0  0  0
   -3.4490   -1.4956    0.0000 C   0  0  0  0  0  0  0  0  0  0  0  0
    1.4002   -0.3433    0.0000 C   0  0  0  0  0  0  0  0  0  0  0  0
    2.6326    0.3968    0.0000 O   0  0  0  0  0  0  0  0  0  0  0  0
    1.8314   -1.0530    0.0000 O   0  0  0  0  0  0  0  0  0  0  0  0
    3.0599   -0.3053    0.0000 C   0  0  0  0  0  0  0  0  0  0  0  0
    1.4270   -1.7817    0.0000 C   0  0  0  0  0  0  0  0  0  0  0  0
    3.8916   -0.2938    0.0000 C   0  0  0  0  0  0  0  0  0  0  0  0
    1.8467   -2.4914    0.0000 C   0  0  0  0  0  0  0  0  0  0  0  0
    2.2777   -3.1973    0.0000 C   0  0  0  0  0  0  0  0  0  0  0  0
  1  2  1  0  0  0  0
  1  3  2  0  0  0  0
  1  4  1  0  0  0  0
  2  5  2  0  0  0  0
  2  6  1  0  0  0  0
  3  7  1  0  0  0  0
  4  8  1  0  0  0  0
  5  9  1  0  0  0  0
  6 10  3  0  0  0  0
  7 11  1  0  0  0  0
  7  8  2  0  0  0  0
  8 12  1  0  0  0  0
  9 13  2  0  0  0  0
  9 14  1  0  0  0  0
 11 15  2  0  0  0  0
 12 16  2  0  0  0  0
 13 17  1  0  0  0  0
 14 18  2  0  0  0  0
 15 16  1  0  0  0  0
 16 19  1  0  0  0  0
 17 20  2  0  0  0  0
 17 21  1  0  0  0  0
 18 20  1  0  0  0  0
 20 22  1  0  0  0  0
 21 23  1  0  0  0  0
 22 24  1  0  0  0  0
 23 25  1  0  0  0  0
 24 26  1  0  0  0  0
 26 27  3  0  0  0  0
M  END
> <CdId>
280

> <Mol Weight>
357.4052

> <Formula>
C22H19N3O2

> <Click_ID>
CLK004_D11 __ __ 

$$$$
