CLK038E06
 OpenBabel03181413202D

 15 15  0  0  0  0  0  0  0  0999 V2000
    0.3792   -0.5500    0.0000 S   0  0  0  0  0  0  0  0  0  0  0  0
    0.3792    0.2750    0.0000 C   0  0  0  0  0  0  0  0  0  0  0  0
   -1.7625    2.3375    0.0000 N   0  0  0  0  0  0  0  0  0  0  0  0
   -0.3375   -2.6125    0.0000 C   0  0  0  0  0  0  0  0  0  0  0  0
   -0.3375   -3.4375    0.0000 C   0  0  0  0  0  0  0  0  0  0  0  0
    1.2042   -0.5500    0.0000 O   0  0  0  0  0  0  0  0  0  0  0  0
   -0.4458   -0.5500    0.0000 O   0  0  0  0  0  0  0  0  0  0  0  0
   -1.0500    1.9250    0.0000 C   0  0  0  0  0  0  0  0  0  0  0  0
    0.3792   -1.3750    0.0000 N   0  0  0  0  0  0  0  0  0  0  0  0
   -0.3375    0.6875    0.0000 C   0  0  0  0  0  0  0  0  0  0  0  0
   -0.3375    1.5125    0.0000 C   0  0  0  0  0  0  0  0  0  0  0  0
   -0.3375   -1.7875    0.0000 C   0  0  0  0  0  0  0  0  0  0  0  0
    1.0917    0.6875    0.0000 C   0  0  0  0  0  0  0  0  0  0  0  0
    1.0917    1.5125    0.0000 C   0  0  0  0  0  0  0  0  0  0  0  0
    0.3792    1.9250    0.0000 C   0  0  0  0  0  0  0  0  0  0  0  0
  2  1  1  0  0  0  0
  3  8  3  0  0  0  0
  4 12  1  0  0  0  0
  5  4  3  0  0  0  0
  6  1  2  0  0  0  0
  7  1  2  0  0  0  0
  8 11  1  0  0  0  0
  9  1  1  0  0  0  0
 10  2  2  0  0  0  0
 11 10  1  0  0  0  0
 12  9  1  0  0  0  0
 13  2  1  0  0  0  0
 14 13  2  0  0  0  0
 15 11  2  0  0  0  0
 15 14  1  0  0  0  0
M  END
> <CdId>
2885

> <Mol Weight>
220.248

> <Formula>
C10H8N2O2S

> <Click_ID>
CLK038E06 __ __ 

$$$$
