CLK004_E03
 OpenBabel03181413202D

 10 10  0  0  0  0  0  0  0  0999 V2000
    6.7750  -11.6250    0.0000 C   0  0  0  0  0  0  0  0  0  0  0  0
    7.6000  -11.6250    0.0000 C   0  0  0  0  0  0  0  0  0  0  0  0
    5.5292  -12.3333    0.0000 N   0  0  0  0  0  0  0  0  0  0  0  0
    5.9417  -11.6250    0.0000 C   0  0  0  0  0  0  0  0  0  0  0  0
    4.7125  -12.3333    0.0000 C   0  0  0  0  0  0  0  0  0  0  0  0
    4.2917  -13.0542    0.0000 C   0  0  0  0  0  0  0  0  0  0  0  0
    4.2917  -11.6250    0.0000 C   0  0  0  0  0  0  0  0  0  0  0  0
    3.4667  -11.6250    0.0000 C   0  0  0  0  0  0  0  0  0  0  0  0
    3.4667  -13.0542    0.0000 C   0  0  0  0  0  0  0  0  0  0  0  0
    3.0542  -12.3292    0.0000 C   0  0  0  0  0  0  0  0  0  0  0  0
  2  1  3  0  0  0  0
  3  4  1  0  0  0  0
  4  1  1  0  0  0  0
  5  3  1  0  0  0  0
  6  5  1  0  0  0  0
  7  5  1  0  0  0  0
  8  7  1  0  0  0  0
  9  6  1  0  0  0  0
 10  8  1  0  0  0  0
 10  9  1  0  0  0  0
M  END
> <CdId>
282

> <Mol Weight>
137.2221

> <Formula>
C9H15N

> <Click_ID>
CLK004_E03 __ __ 

$$$$
