CLK007_D04
 OpenBabel03181413202D

 35 39  0  0  0  0  0  0  0  0999 V2000
    0.0448    0.6859    0.0000 C   0  0  3  0  0  0  0  0  0  0  0  0
   -0.6687    0.2654    0.0000 C   0  0  0  0  0  0  0  0  0  0  0  0
    0.8376    0.8996    0.0000 C   0  0  0  0  0  0  0  0  0  0  0  0
    0.7583    0.2654    0.0000 C   0  0  0  0  0  0  0  0  0  0  0  0
   -0.4032    1.3719    0.0000 C   0  0  0  0  0  0  0  0  0  0  0  0
   -0.6756   -0.5584    0.0000 C   0  0  0  0  0  0  0  0  0  0  0  0
   -1.3788    0.6859    0.0000 C   0  0  0  0  0  0  0  0  0  0  0  0
    0.8825    1.7234    0.0000 C   0  0  0  0  0  0  0  0  0  0  0  0
    1.5304    0.4515    0.0000 C   0  0  0  0  0  0  0  0  0  0  0  0
    0.7583   -0.5584    0.0000 C   0  0  0  0  0  0  0  0  0  0  0  0
    1.4684   -0.1482    0.0000 C   0  0  0  0  0  0  0  0  0  0  0  0
    0.1069    2.0130    0.0000 N   0  0  0  0  0  0  0  0  0  0  0  0
   -0.9927    1.9613    0.0000 O   0  0  0  0  0  0  0  0  0  0  0  0
    0.0379   -0.9720    0.0000 N   0  0  0  0  0  0  0  0  0  0  0  0
   -1.3788   -0.9651    0.0000 C   0  0  0  0  0  0  0  0  0  0  0  0
   -2.0923    0.2654    0.0000 C   0  0  0  0  0  0  0  0  0  0  0  0
   -1.9682    1.2719    0.0000 O   0  0  0  0  0  0  0  0  0  0  0  0
    1.6097    2.1026    0.0000 C   0  0  0  0  0  0  0  0  0  0  0  0
    2.2681    0.8273    0.0000 C   0  0  0  0  0  0  0  0  0  0  0  0
    1.4615   -0.9755    0.0000 N   0  0  0  0  0  0  0  0  0  0  0  0
    2.1819   -0.5584    0.0000 N   0  0  0  0  0  0  0  0  0  0  0  0
   -0.1034    2.8127    0.0000 C   0  0  0  0  0  0  0  0  0  0  0  0
    0.0310   -1.7890    0.0000 C   0  0  0  0  0  0  0  0  0  0  0  0
   -2.0923   -0.5584    0.0000 C   0  0  0  0  0  0  0  0  0  0  0  0
    2.3060    1.6511    0.0000 C   0  0  0  0  0  0  0  0  0  0  0  0
    0.4722    3.3987    0.0000 C   0  0  0  0  0  0  0  0  0  0  0  0
    0.7445   -2.2094    0.0000 C   0  0  0  0  0  0  0  0  0  0  0  0
   -0.6894   -2.1957    0.0000 C   0  0  0  0  0  0  0  0  0  0  0  0
   -2.5024   -1.2719    0.0000 C   0  0  0  0  0  0  0  0  0  0  0  0
   -2.8920   -0.3378    0.0000 C   0  0  0  0  0  0  0  0  0  0  0  0
    0.2620    4.1984    0.0000 C   0  0  0  0  0  0  0  0  0  0  0  0
    0.7376   -3.0264    0.0000 C   0  0  0  0  0  0  0  0  0  0  0  0
   -0.6928   -3.0195    0.0000 C   0  0  0  0  0  0  0  0  0  0  0  0
    0.0207   -3.4366    0.0000 C   0  0  0  0  0  0  0  0  0  0  0  0
    0.0103   -4.2638    0.0000 F   0  0  0  0  0  0  0  0  0  0  0  0
  1  2  1  0  0  0  0
  1  3  1  0  0  0  0
  1  4  1  0  0  0  0
  1  5  1  0  0  0  0
  2  6  2  0  0  0  0
  2  7  1  0  0  0  0
  3  8  2  0  0  0  0
  3  9  1  0  0  0  0
  4 10  2  0  0  0  0
  4 11  1  0  0  0  0
  5 12  1  0  0  0  0
  5 13  2  0  0  0  0
  6 14  1  0  0  0  0
  6 15  1  0  0  0  0
  7 16  1  0  0  0  0
  7 17  2  0  0  0  0
  8 18  1  0  0  0  0
  8 12  1  0  0  0  0
  9 19  2  0  0  0  0
 10 20  1  0  0  0  0
 10 14  1  0  0  0  0
 11 21  3  0  0  0  0
 12 22  1  0  0  0  0
 14 23  1  0  0  0  0
 15 24  1  0  0  0  0
 16 24  1  0  0  0  0
 18 25  2  0  0  0  0
 19 25  1  0  0  0  0
 22 26  1  0  0  0  0
 23 27  1  0  0  0  0
 23 28  2  0  0  0  0
 24 29  1  0  0  0  0
 24 30  1  0  0  0  0
 26 31  3  0  0  0  0
 27 32  2  0  0  0  0
 28 33  1  0  0  0  0
 32 34  1  0  0  0  0
 33 34  2  0  0  0  0
 34 35  1  0  0  0  0
M  END
> <CdId>
513

> <Mol Weight>
466.5062

> <Formula>
C28H23FN4O2

> <Click_ID>
CLK007_D04 __ __ 

$$$$
