CLK051C04
 OpenBabel03181413202D

 17 17  0  0  0  0  0  0  0  0999 V2000
    0.3333   -0.9208    0.0000 C   0  0  0  0  0  0  0  0  0  0  0  0
    0.3333   -0.0958    0.0000 N   0  0  0  0  0  0  0  0  0  0  0  0
   -0.3792    0.3167    0.0000 C   0  0  3  0  0  0  0  0  0  0  0  0
    1.7625   -2.5708    0.0000 C   0  0  0  0  0  0  0  0  0  0  0  0
    2.4792   -2.9833    0.0000 C   0  0  0  0  0  0  0  0  0  0  0  0
   -0.3792   -1.3333    0.0000 O   0  0  0  0  0  0  0  0  0  0  0  0
   -0.3792    1.1417    0.0000 C   0  0  0  0  0  0  0  0  0  0  0  0
    1.0500   -1.3333    0.0000 N   0  0  0  0  0  0  0  0  0  0  0  0
   -1.0958   -0.0958    0.0000 C   0  0  0  0  0  0  0  0  0  0  0  0
    1.0500   -2.1583    0.0000 C   0  0  0  0  0  0  0  0  0  0  0  0
    0.3333    1.5542    0.0000 C   0  0  0  0  0  0  0  0  0  0  0  0
   -1.0958    1.5542    0.0000 C   0  0  0  0  0  0  0  0  0  0  0  0
   -1.8083    0.3167    0.0000 C   0  0  0  0  0  0  0  0  0  0  0  0
   -1.0958   -0.9208    0.0000 C   0  0  0  0  0  0  0  0  0  0  0  0
   -1.0958    2.3792    0.0000 C   0  0  0  0  0  0  0  0  0  0  0  0
    0.3333    2.3792    0.0000 C   0  0  0  0  0  0  0  0  0  0  0  0
   -0.3792    2.7917    0.0000 C   0  0  0  0  0  0  0  0  0  0  0  0
  2  1  1  0  0  0  0
  3  2  1  0  0  0  0
  4 10  1  0  0  0  0
  5  4  3  0  0  0  0
  6  1  2  0  0  0  0
  7  3  1  0  0  0  0
  8  1  1  0  0  0  0
  9  3  1  0  0  0  0
 10  8  1  0  0  0  0
 11  7  1  0  0  0  0
 12  7  2  0  0  0  0
 13  9  1  0  0  0  0
 14  9  1  0  0  0  0
 15 12  1  0  0  0  0
 16 11  2  0  0  0  0
 17 15  2  0  0  0  0
 17 16  1  0  0  0  0
M  END
> <CdId>
3907

> <Mol Weight>
230.3055

> <Formula>
C14H18N2O

> <Click_ID>
CLK051C04 __ __ 

$$$$
