CLK025_G05
 OpenBabel03181413202D

 22 24  0  0  0  0  0  0  0  0999 V2000
    0.8387    0.7080    0.0000 C   0  0  0  0  0  0  0  0  0  0  0  0
    0.7528   -0.1134    0.0000 C   0  0  0  0  0  0  0  0  0  0  0  0
    1.5055   -0.4469    0.0000 N   0  0  0  0  0  0  0  0  0  0  0  0
    1.6430    0.8765    0.0000 C   0  0  0  0  0  0  0  0  0  0  0  0
    2.0555    0.1650    0.0000 C   0  0  0  0  0  0  0  0  0  0  0  0
    0.2269    1.2580    0.0000 N   0  0  0  0  0  0  0  0  0  0  0  0
   -1.1721    1.5571    0.0000 C   0  0  0  0  0  0  0  0  0  0  0  0
   -1.9558    1.2993    0.0000 C   0  0  0  0  0  0  0  0  0  0  0  0
   -0.5637    1.0071    0.0000 N   0  0  0  0  0  0  0  0  0  0  0  0
    1.0656   -1.8045    0.0000 C   0  0  0  0  0  0  0  0  0  0  0  0
   -2.2135    0.5156    0.0000 S   0  0  0  0  0  0  0  0  0  0  0  0
    0.4469   -2.3579    0.0000 C   0  0  0  0  0  0  0  0  0  0  0  0
    0.0344   -0.5224    0.0000 O   0  0  0  0  0  0  0  0  0  0  0  0
   -1.0002    2.3614    0.0000 O   0  0  0  0  0  0  0  0  0  0  0  0
   -2.6260    1.7839    0.0000 C   0  0  0  0  0  0  0  0  0  0  0  0
   -3.0385    0.5156    0.0000 C   0  0  0  0  0  0  0  0  0  0  0  0
    1.6740   -1.2546    0.0000 C   0  0  0  0  0  0  0  0  0  0  0  0
   -3.2963    1.2993    0.0000 C   0  0  0  0  0  0  0  0  0  0  0  0
    2.0555    1.5948    0.0000 C   0  0  0  0  0  0  0  0  0  0  0  0
    2.8804    0.1650    0.0000 C   0  0  0  0  0  0  0  0  0  0  0  0
    2.8804    1.5948    0.0000 C   0  0  0  0  0  0  0  0  0  0  0  0
    3.2929    0.8765    0.0000 C   0  0  0  0  0  0  0  0  0  0  0  0
  2  1  1  0  0  0  0
  3  2  1  0  0  0  0
  4  1  1  0  0  0  0
  5  4  2  0  0  0  0
  5  3  1  0  0  0  0
  6  1  2  0  0  0  0
  7  9  1  0  0  0  0
  8  7  1  0  0  0  0
  9  6  1  0  0  0  0
 10 17  1  0  0  0  0
 11  8  1  0  0  0  0
 12 10  3  0  0  0  0
 13  2  2  0  0  0  0
 14  7  2  0  0  0  0
 15  8  2  0  0  0  0
 16 11  1  0  0  0  0
 16 18  2  0  0  0  0
 17  3  1  0  0  0  0
 18 15  1  0  0  0  0
 19  4  1  0  0  0  0
 20  5  1  0  0  0  0
 21 19  2  0  0  0  0
 22 21  1  0  0  0  0
 22 20  2  0  0  0  0
M  END
> <CdId>
1920

> <Mol Weight>
309.342

> <Formula>
C16H11N3O2S

> <Click_ID>
CLK025_G05 __ __ 

$$$$
