CLK011_G04
 OpenBabel03181413202D

 31 34  0  0  0  0  0  0  0  0999 V2000
    6.5214   -3.8771    0.0000 N    0  0  0  0  0  0  0  0  0  0  0  0
    5.8593   -4.3601    0.0000 C    0  0  0  0  0  0  0  0  0  0  0  0
    7.1878   -4.3601    0.0000 C    0  0  0  0  0  0  0  0  0  0  0  0
    6.9337   -5.1472    0.0000 C    0  0  0  0  0  0  0  0  0  0  0  0
    6.1092   -5.1472    0.0000 S    0  0  0  0  0  0  0  0  0  0  0  0
    5.0764   -4.1020    0.0000 N    0  0  0  0  0  0  0  0  0  0  0  0
    6.4007   -8.0748    0.0000 C    0  0  0  0  0  0  0  0  0  0  0  0
    7.4209   -5.8135    0.0000 C    0  0  0  0  0  0  0  0  0  0  0  0
    5.9218   -7.4002    0.0000 C    0  0  0  0  0  0  0  0  0  0  0  0
    7.2253   -7.9873    0.0000 C    0  0  0  0  0  0  0  0  0  0  0  0
    4.9015   -3.3024    0.0000 C    0  0  0  0  0  0  0  0  0  0  0  0
    7.0836   -6.5631    0.0000 C    0  0  0  0  0  0  0  0  0  0  0  0
    4.9015   -9.6614    0.0000 C    0  0  0  0  0  0  0  0  0  0  0  0
    4.5642  -10.4110    0.0000 C    0  0  0  0  0  0  0  0  0  0  0  0
    4.1227   -3.0483    0.0000 C    0  0  0  0  0  0  0  0  0  0  0  0
    6.2633   -6.6506    0.0000 C    0  0  0  0  0  0  0  0  0  0  0  0
    7.5626   -7.2335    0.0000 C    0  0  0  0  0  0  0  0  0  0  0  0
    7.9748   -4.1020    0.0000 O    0  0  0  0  0  0  0  0  0  0  0  0
    5.0972   -7.4834    0.0000 Br   0  0  0  0  0  0  0  0  0  0  0  0
    3.9520   -2.2405    0.0000 C    0  0  0  0  0  0  0  0  0  0  0  0
    6.0634   -8.8244    0.0000 O    0  0  0  0  0  0  0  0  0  0  0  0
    7.7083   -8.6620    0.0000 O    0  0  0  0  0  0  0  0  0  0  0  0
    5.2388   -8.9076    0.0000 C    0  0  0  0  0  0  0  0  0  0  0  0
    5.5137   -2.7485    0.0000 C    0  0  0  0  0  0  0  0  0  0  0  0
    5.3471   -1.9406    0.0000 C    0  0  0  0  0  0  0  0  0  0  0  0
    3.5148   -3.5980    0.0000 C    0  0  0  0  0  0  0  0  0  0  0  0
    4.5600   -1.6866    0.0000 C    0  0  0  0  0  0  0  0  0  0  0  0
    3.1650   -1.9906    0.0000 C    0  0  0  0  0  0  0  0  0  0  0  0
    7.3710   -9.4116    0.0000 C    0  0  0  0  0  0  0  0  0  0  0  0
    2.7360   -3.3482    0.0000 C    0  0  0  0  0  0  0  0  0  0  0  0
    2.5611   -2.5403    0.0000 C    0  0  0  0  0  0  0  0  0  0  0  0
  2  1  2  0  0  0  0
  3  1  1  0  0  0  0
  4  3  1  0  0  0  0
  5  2  1  0  0  0  0
  5  4  1  0  0  0  0
  6  2  1  0  0  0  0
  7 10  2  0  0  0  0
  7  9  1  0  0  0  0
  8  4  2  0  0  0  0
  9 16  2  0  0  0  0
 10 17  1  0  0  0  0
 11  6  1  0  0  0  0
 12  8  1  0  0  0  0
 13 23  1  0  0  0  0
 14 13  3  0  0  0  0
 15 11  1  0  0  0  0
 16 12  1  0  0  0  0
 17 12  2  0  0  0  0
 18  3  2  0  0  0  0
 19  9  1  0  0  0  0
 20 15  1  0  0  0  0
 21  7  1  0  0  0  0
 22 10  1  0  0  0  0
 23 21  1  0  0  0  0
 24 11  2  0  0  0  0
 25 24  1  0  0  0  0
 26 15  2  0  0  0  0
 27 25  2  0  0  0  0
 27 20  1  0  0  0  0
 28 20  2  0  0  0  0
 28 31  1  0  0  0  0
 29 22  1  0  0  0  0
 30 26  1  0  0  0  0
 31 30  2  0  0  0  0
M  END
> <CdId>
819

> <Mol Weight>
493.372

> <Formula>
C24H17BrN2O3S

> <Click_ID>
CLK011_G04 __ __ 

$$$$
