CLK032_G09
 OpenBabel03181413202D

 22 24  0  0  0  0  0  0  0  0999 V2000
   -1.8964    2.1589    0.0000 C    0  0  0  0  0  0  0  0  0  0  0  0
   -1.0711    2.1589    0.0000 N    0  0  0  0  0  0  0  0  0  0  0  0
   -2.3756    2.8215    0.0000 N    0  0  0  0  0  0  0  0  0  0  0  0
   -2.3756    1.4837    0.0000 S    0  0  0  0  0  0  0  0  0  0  0  0
   -3.1634    2.5590    0.0000 C    0  0  0  0  0  0  0  0  0  0  0  0
   -0.6585    1.4462    0.0000 C    0  0  0  0  0  0  0  0  0  0  0  0
    0.1667    1.4462    0.0000 C    0  0  0  0  0  0  0  0  0  0  0  0
   -3.1592    1.7337    0.0000 C    0  0  0  0  0  0  0  0  0  0  0  0
    0.6669    0.7752    0.0000 S    0  0  0  0  0  0  0  0  0  0  0  0
    1.4504    1.0461    0.0000 C    0  0  0  0  0  0  0  0  0  0  0  0
    0.6502    2.1089    0.0000 C    0  0  0  0  0  0  0  0  0  0  0  0
    1.4296    1.8631    0.0000 C    0  0  0  0  0  0  0  0  0  0  0  0
   -1.3211    3.7718    0.0000 C    0  0  0  0  0  0  0  0  0  0  0  0
   -0.5209    3.9468    0.0000 C    0  0  0  0  0  0  0  0  0  0  0  0
   -3.8760    2.9841    0.0000 C    0  0  0  0  0  0  0  0  0  0  0  0
   -1.0628    0.7252    0.0000 O    0  0  0  0  0  0  0  0  0  0  0  0
   -2.1256    3.6093    0.0000 C    0  0  0  0  0  0  0  0  0  0  0  0
    2.1298    0.5709    0.0000 Cl   0  0  0  0  0  0  0  0  0  0  0  0
   -3.8760    3.8010    0.0000 F    0  0  0  0  0  0  0  0  0  0  0  0
   -3.8760    1.3254    0.0000 C    0  0  0  0  0  0  0  0  0  0  0  0
   -4.5846    1.7337    0.0000 C    0  0  0  0  0  0  0  0  0  0  0  0
   -4.5846    2.5590    0.0000 C    0  0  0  0  0  0  0  0  0  0  0  0
  2  1  2  0  0  0  0
  3  1  1  0  0  0  0
  4  1  1  0  0  0  0
  5  3  1  0  0  0  0
  6  2  1  0  0  0  0
  7  6  1  0  0  0  0
  8  4  1  0  0  0  0
  8  5  2  0  0  0  0
  9  7  1  0  0  0  0
 10  9  1  0  0  0  0
 10 12  2  0  0  0  0
 11  7  2  0  0  0  0
 12 11  1  0  0  0  0
 13 17  1  0  0  0  0
 14 13  3  0  0  0  0
 15  5  1  0  0  0  0
 16  6  2  0  0  0  0
 17  3  1  0  0  0  0
 18 10  1  0  0  0  0
 19 15  1  0  0  0  0
 20  8  1  0  0  0  0
 21 20  2  0  0  0  0
 21 22  1  0  0  0  0
 22 15  2  0  0  0  0
M  END
> <CdId>
2473

> <Mol Weight>
350.818

> <Formula>
C15H8ClFN2OS2

> <Click_ID>
CLK032_G09 __ __ 

$$$$
