CLK003_B07
 OpenBabel03181413202D

 17 18  0  0  0  0  0  0  0  0999 V2000
   -0.8920    0.0554    0.0000 C   0  0  0  0  0  0  0  0  0  0  0  0
   -0.6459   -0.7320    0.0000 C   0  0  0  0  0  0  0  0  0  0  0  0
   -0.3383    0.6613    0.0000 C   0  0  0  0  0  0  0  0  0  0  0  0
   -1.7163    0.0707    0.0000 C   0  0  0  0  0  0  0  0  0  0  0  0
    0.1784   -0.9104    0.0000 N   0  0  0  0  0  0  0  0  0  0  0  0
   -1.3195   -1.1934    0.0000 S   0  0  0  0  0  0  0  0  0  0  0  0
    0.4645    0.4829    0.0000 N   0  0  0  0  0  0  0  0  0  0  0  0
   -0.5721    1.4641    0.0000 O   0  0  0  0  0  0  0  0  0  0  0  0
   -1.9624   -0.7136    0.0000 C   0  0  0  0  0  0  0  0  0  0  0  0
   -2.2115    0.7351    0.0000 C   0  0  0  0  0  0  0  0  0  0  0  0
    0.7320   -0.3014    0.0000 C   0  0  0  0  0  0  0  0  0  0  0  0
    1.0150    1.1073    0.0000 C   0  0  0  0  0  0  0  0  0  0  0  0
   -2.7651   -0.9812    0.0000 C   0  0  0  0  0  0  0  0  0  0  0  0
    1.5502   -0.4798    0.0000 S   0  0  0  0  0  0  0  0  0  0  0  0
    2.0977    0.1446    0.0000 C   0  0  0  0  0  0  0  0  0  0  0  0
    2.9220   -0.0185    0.0000 C   0  0  0  0  0  0  0  0  0  0  0  0
    3.4572    0.6059    0.0000 C   0  0  0  0  0  0  0  0  0  0  0  0
  1  2  2  0  0  0  0
  1  3  1  0  0  0  0
  1  4  1  0  0  0  0
  2  5  1  0  0  0  0
  2  6  1  0  0  0  0
  3  7  1  0  0  0  0
  3  8  2  0  0  0  0
  4  9  2  0  0  0  0
  4 10  1  0  0  0  0
  5 11  2  0  0  0  0
  6  9  1  0  0  0  0
  7 12  1  0  0  0  0
  7 11  1  0  0  0  0
  9 13  1  0  0  0  0
 11 14  1  0  0  0  0
 14 15  1  0  0  0  0
 15 16  1  0  0  0  0
 16 17  3  0  0  0  0
M  END
> <CdId>
176

> <Mol Weight>
264.366

> <Formula>
C12H12N2OS2

> <Click_ID>
CLK003_B07 __ __ 

$$$$
