CLK015_B06
 OpenBabel03181413202D

 22 23  0  0  0  0  0  0  0  0999 V2000
    4.4841   -1.1273    0.0000 N   0  0  0  0  0  0  0  0  0  0  0  0
    4.0723   -1.8386    0.0000 C   0  0  0  0  0  0  0  0  0  0  0  0
    3.1821   -0.8528    0.0000 C   0  0  0  0  0  0  0  0  0  0  0  0
    3.9308   -0.5158    0.0000 C   0  0  0  0  0  0  0  0  0  0  0  0
    3.2612   -1.6722    0.0000 N   0  0  0  0  0  0  0  0  0  0  0  0
    2.4625   -0.4410    0.0000 C   0  0  0  0  0  0  0  0  0  0  0  0
    4.4050   -2.5956    0.0000 S   0  0  0  0  0  0  0  0  0  0  0  0
   -1.1064   -3.3443    0.0000 C   0  0  0  0  0  0  0  0  0  0  0  0
   -1.8177   -3.7479    0.0000 C   0  0  0  0  0  0  0  0  0  0  0  0
    4.0973    0.2870    0.0000 O   0  0  0  0  0  0  0  0  0  0  0  0
    0.3162   -0.8528    0.0000 C   0  0  0  0  0  0  0  0  0  0  0  0
    1.7512   -0.8528    0.0000 C   0  0  0  0  0  0  0  0  0  0  0  0
    1.0357   -0.4410    0.0000 C   0  0  0  0  0  0  0  0  0  0  0  0
    0.3162   -1.6846    0.0000 C   0  0  0  0  0  0  0  0  0  0  0  0
    5.3035   -1.0399    0.0000 C   0  0  0  0  0  0  0  0  0  0  0  0
    1.0357   -2.0882    0.0000 C   0  0  0  0  0  0  0  0  0  0  0  0
    2.6497   -2.2212    0.0000 C   0  0  0  0  0  0  0  0  0  0  0  0
    1.7512   -1.6764    0.0000 C   0  0  0  0  0  0  0  0  0  0  0  0
   -0.3951   -0.4410    0.0000 O   0  0  0  0  0  0  0  0  0  0  0  0
   -0.3951   -2.0965    0.0000 O   0  0  0  0  0  0  0  0  0  0  0  0
   -0.3951   -2.9201    0.0000 C   0  0  0  0  0  0  0  0  0  0  0  0
   -1.1106   -0.8610    0.0000 C   0  0  0  0  0  0  0  0  0  0  0  0
  2  1  1  0  0  0  0
  3  4  1  0  0  0  0
  4  1  1  0  0  0  0
  5  2  1  0  0  0  0
  5  3  1  0  0  0  0
  6  3  2  0  0  0  0
  7  2  2  0  0  0  0
  8 21  1  0  0  0  0
  9  8  3  0  0  0  0
 10  4  2  0  0  0  0
 11 13  1  0  0  0  0
 11 14  2  0  0  0  0
 12  6  1  0  0  0  0
 13 12  2  0  0  0  0
 14 16  1  0  0  0  0
 15  1  1  0  0  0  0
 16 18  2  0  0  0  0
 17  5  1  0  0  0  0
 18 12  1  0  0  0  0
 19 11  1  0  0  0  0
 20 14  1  0  0  0  0
 21 20  1  0  0  0  0
 22 19  1  0  0  0  0
M  END
> <CdId>
1091

> <Mol Weight>
316.375

> <Formula>
C16H16N2O3S

> <Click_ID>
CLK015_B06 __ __ 

$$$$
