CLK012_C05
 OpenBabel03181413202D

 31 33  0  0  0  0  0  0  0  0999 V2000
    4.7282   -2.4472    0.0000 N    0  0  0  0  0  0  0  0  0  0  0  0
    4.5910   -3.2698    0.0000 C    0  0  0  0  0  0  0  0  0  0  0  0
    3.9928   -2.0733    0.0000 C    0  0  0  0  0  0  0  0  0  0  0  0
    3.4069   -2.6591    0.0000 C    0  0  0  0  0  0  0  0  0  0  0  0
    3.7809   -3.3945    0.0000 S    0  0  0  0  0  0  0  0  0  0  0  0
    5.4635   -2.0815    0.0000 C    0  0  0  0  0  0  0  0  0  0  0  0
    2.5926   -2.5220    0.0000 C    0  0  0  0  0  0  0  0  0  0  0  0
    1.0138   -4.4539    0.0000 C    0  0  0  0  0  0  0  0  0  0  0  0
    0.7229   -3.6687    0.0000 C    0  0  0  0  0  0  0  0  0  0  0  0
    1.8364   -4.5786    0.0000 C    0  0  0  0  0  0  0  0  0  0  0  0
    5.5009   -1.2589    0.0000 C    0  0  0  0  0  0  0  0  0  0  0  0
    2.0608   -3.1701    0.0000 C    0  0  0  0  0  0  0  0  0  0  0  0
    0.2742   -6.5105    0.0000 C    0  0  0  0  0  0  0  0  0  0  0  0
   -0.2493   -7.1462    0.0000 C    0  0  0  0  0  0  0  0  0  0  0  0
    5.1769   -3.8515    0.0000 O    0  0  0  0  0  0  0  0  0  0  0  0
    3.8639   -1.2631    0.0000 O    0  0  0  0  0  0  0  0  0  0  0  0
    1.2464   -3.0330    0.0000 C    0  0  0  0  0  0  0  0  0  0  0  0
    2.3599   -3.9429    0.0000 C    0  0  0  0  0  0  0  0  0  0  0  0
    6.2363   -0.8892    0.0000 C    0  0  0  0  0  0  0  0  0  0  0  0
    4.8154   -0.8102    0.0000 O    0  0  0  0  0  0  0  0  0  0  0  0
    6.2737   -0.0665    0.0000 C    0  0  0  0  0  0  0  0  0  0  0  0
    6.9219   -1.3379    0.0000 C    0  0  0  0  0  0  0  0  0  0  0  0
   -0.0872   -3.5399    0.0000 Cl   0  0  0  0  0  0  0  0  0  0  0  0
    0.4903   -5.0979    0.0000 O    0  0  0  0  0  0  0  0  0  0  0  0
    7.7071   -0.1538    0.0000 C    0  0  0  0  0  0  0  0  0  0  0  0
    2.1231   -5.3514    0.0000 O    0  0  0  0  0  0  0  0  0  0  0  0
    7.6573   -0.9764    0.0000 C    0  0  0  0  0  0  0  0  0  0  0  0
    7.0174    0.2991    0.0000 C    0  0  0  0  0  0  0  0  0  0  0  0
    8.4425    0.2119    0.0000 Cl   0  0  0  0  0  0  0  0  0  0  0  0
    0.7852   -5.8624    0.0000 C    0  0  0  0  0  0  0  0  0  0  0  0
    2.9458   -5.4843    0.0000 C    0  0  0  0  0  0  0  0  0  0  0  0
  2  1  1  0  0  0  0
  3  1  1  0  0  0  0
  4  3  1  0  0  0  0
  5  2  1  0  0  0  0
  5  4  1  0  0  0  0
  6  1  1  0  0  0  0
  7  4  2  0  0  0  0
  8 10  1  0  0  0  0
  8  9  2  0  0  0  0
  9 17  1  0  0  0  0
 10 18  2  0  0  0  0
 11  6  1  0  0  0  0
 12  7  1  0  0  0  0
 13 30  1  0  0  0  0
 14 13  3  0  0  0  0
 15  2  2  0  0  0  0
 16  3  2  0  0  0  0
 17 12  2  0  0  0  0
 18 12  1  0  0  0  0
 19 11  1  0  0  0  0
 20 11  2  0  0  0  0
 21 19  1  0  0  0  0
 22 19  2  0  0  0  0
 23  9  1  0  0  0  0
 24  8  1  0  0  0  0
 25 27  2  0  0  0  0
 25 28  1  0  0  0  0
 26 10  1  0  0  0  0
 27 22  1  0  0  0  0
 28 21  2  0  0  0  0
 29 25  1  0  0  0  0
 30 24  1  0  0  0  0
 31 26  1  0  0  0  0
M  END
> <CdId>
860

> <Mol Weight>
476.329

> <Formula>
C22H15Cl2NO5S

> <Click_ID>
CLK012_C05 __ __ 

$$$$
