CLK006_E05
 OpenBabel03181413202D

 17 19  0  0  0  0  0  0  0  0999 V2000
    0.3458    0.3697    0.0000 C   0  0  0  0  0  0  0  0  0  0  0  0
   -0.1369   -0.3012    0.0000 N   0  0  0  0  0  0  0  0  0  0  0  0
    1.1708    0.3766    0.0000 C   0  0  0  0  0  0  0  0  0  0  0  0
   -0.1506    1.0373    0.0000 N   0  0  0  0  0  0  0  0  0  0  0  0
   -0.9243   -0.0548    0.0000 C   0  0  0  0  0  0  0  0  0  0  0  0
    0.2773   -1.0133    0.0000 C   0  0  0  0  0  0  0  0  0  0  0  0
    1.6501    1.0441    0.0000 C   0  0  0  0  0  0  0  0  0  0  0  0
    1.6603   -0.2876    0.0000 O   0  0  0  0  0  0  0  0  0  0  0  0
   -0.9311    0.7703    0.0000 C   0  0  0  0  0  0  0  0  0  0  0  0
   -1.6398   -0.4656    0.0000 C   0  0  0  0  0  0  0  0  0  0  0  0
   -0.1335   -1.7185    0.0000 C   0  0  0  0  0  0  0  0  0  0  0  0
    2.4340    0.7976    0.0000 C   0  0  0  0  0  0  0  0  0  0  0  0
    2.4408   -0.0274    0.0000 C   0  0  0  0  0  0  0  0  0  0  0  0
   -1.6398    1.1845    0.0000 C   0  0  0  0  0  0  0  0  0  0  0  0
   -2.3519   -0.0513    0.0000 C   0  0  0  0  0  0  0  0  0  0  0  0
    0.2773   -2.4340    0.0000 C   0  0  0  0  0  0  0  0  0  0  0  0
   -2.3519    0.7737    0.0000 C   0  0  0  0  0  0  0  0  0  0  0  0
  1  2  1  0  0  0  0
  1  3  1  0  0  0  0
  1  4  2  0  0  0  0
  2  5  1  0  0  0  0
  2  6  1  0  0  0  0
  3  7  2  0  0  0  0
  3  8  1  0  0  0  0
  4  9  1  0  0  0  0
  5 10  2  0  0  0  0
  5  9  1  0  0  0  0
  6 11  1  0  0  0  0
  7 12  1  0  0  0  0
  8 13  1  0  0  0  0
  9 14  2  0  0  0  0
 10 15  1  0  0  0  0
 11 16  3  0  0  0  0
 12 13  2  0  0  0  0
 14 17  1  0  0  0  0
 15 17  2  0  0  0  0
M  END
> <CdId>
444

> <Mol Weight>
222.242

> <Formula>
C14H10N2O

> <Click_ID>
CLK006_E05 __ __ 

$$$$
