CLK020_E08
 OpenBabel03181413202D

 23 24  0  0  0  0  0  0  0  0999 V2000
    1.5629   -0.8147    0.0000 N   0  0  0  0  0  0  0  0  0  0  0  0
    1.8205   -1.6003    0.0000 C   0  0  0  0  0  0  0  0  0  0  0  0
    2.8971   -0.8147    0.0000 C   0  0  0  0  0  0  0  0  0  0  0  0
    2.2320   -0.3284    0.0000 C   0  0  0  0  0  0  0  0  0  0  0  0
    2.6435   -1.6003    0.0000 S   0  0  0  0  0  0  0  0  0  0  0  0
    4.8174   -0.1912    0.0000 C   0  0  0  0  0  0  0  0  0  0  0  0
    4.9919    0.6110    0.0000 C   0  0  0  0  0  0  0  0  0  0  0  0
    0.6110    0.2452    0.0000 C   0  0  0  0  0  0  0  0  0  0  0  0
    4.3809    1.1597    0.0000 C   0  0  0  0  0  0  0  0  0  0  0  0
    0.3907    1.0432    0.0000 C   0  0  0  0  0  0  0  0  0  0  0  0
    4.5555    1.9660    0.0000 C   0  0  0  0  0  0  0  0  0  0  0  0
    1.3342   -2.2611    0.0000 O   0  0  0  0  0  0  0  0  0  0  0  0
    2.2237    0.4946    0.0000 O   0  0  0  0  0  0  0  0  0  0  0  0
    0.7856   -0.5611    0.0000 C   0  0  0  0  0  0  0  0  0  0  0  0
    5.7733    0.8604    0.0000 C   0  0  0  0  0  0  0  0  0  0  0  0
    5.3411    2.2278    0.0000 C   0  0  0  0  0  0  0  0  0  0  0  0
    5.9479    1.6667    0.0000 C   0  0  0  0  0  0  0  0  0  0  0  0
    3.6036    0.9061    0.0000 O   0  0  0  0  0  0  0  0  0  0  0  0
    5.5156    3.0259    0.0000 O   0  0  0  0  0  0  0  0  0  0  0  0
    3.4291    0.0998    0.0000 C   0  0  0  0  0  0  0  0  0  0  0  0
    4.9046    3.5787    0.0000 C   0  0  0  0  0  0  0  0  0  0  0  0
    2.6477   -0.1538    0.0000 C   0  0  0  0  0  0  0  0  0  0  0  0
    5.0750    4.3809    0.0000 C   0  0  0  0  0  0  0  0  0  0  0  0
  2  1  1  0  0  0  0
  3  4  1  0  0  0  0
  3  5  1  0  0  0  0
  4  1  1  0  0  0  0
  5  2  1  0  0  0  0
  6  3  2  0  0  0  0
  7  6  1  0  0  0  0
  8 14  1  0  0  0  0
  9  7  1  0  0  0  0
 10  8  3  0  0  0  0
 11  9  2  0  0  0  0
 11 16  1  0  0  0  0
 12  2  2  0  0  0  0
 13  4  2  0  0  0  0
 14  1  1  0  0  0  0
 15  7  2  0  0  0  0
 16 17  2  0  0  0  0
 17 15  1  0  0  0  0
 18  9  1  0  0  0  0
 19 16  1  0  0  0  0
 20 18  1  0  0  0  0
 21 19  1  0  0  0  0
 22 20  1  0  0  0  0
 23 21  1  0  0  0  0
M  END
> <CdId>
1523

> <Mol Weight>
331.386

> <Formula>
C17H17NO4S

> <Click_ID>
CLK020_E08 __ __ 

$$$$
