CLK029_A07
 OpenBabel03181413202D

 27 30  0  0  0  0  0  0  0  0999 V2000
   -1.7492    0.7947    0.0000 N   0  0  0  0  0  0  0  0  0  0  0  0
   -2.3567    1.3428    0.0000 C   0  0  0  0  0  0  0  0  0  0  0  0
   -3.7496    1.6396    0.0000 N   0  0  0  0  0  0  0  0  0  0  0  0
   -4.5580    1.4615    0.0000 C   0  0  0  0  0  0  0  0  0  0  0  0
   -2.0232    2.0917    0.0000 N   0  0  0  0  0  0  0  0  0  0  0  0
   -1.0367    1.2057    0.0000 C   0  0  0  0  0  0  0  0  0  0  0  0
   -1.2057    2.0095    0.0000 N   0  0  0  0  0  0  0  0  0  0  0  0
   -4.9691    2.1739    0.0000 S   0  0  0  0  0  0  0  0  0  0  0  0
   -3.1331    1.0915    0.0000 C   0  0  0  0  0  0  0  0  0  0  0  0
   -3.6583    2.4526    0.0000 C   0  0  0  0  0  0  0  0  0  0  0  0
   -1.7903   -0.0183    0.0000 C   0  0  0  0  0  0  0  0  0  0  0  0
   -4.4073    2.7905    0.0000 C   0  0  0  0  0  0  0  0  0  0  0  0
    1.1418    1.0139    0.0000 C   0  0  0  0  0  0  0  0  0  0  0  0
    1.8954    0.6805    0.0000 C   0  0  0  0  0  0  0  0  0  0  0  0
   -4.8869    0.7079    0.0000 O   0  0  0  0  0  0  0  0  0  0  0  0
   -1.1052   -0.4659    0.0000 C   0  0  0  0  0  0  0  0  0  0  0  0
   -0.2831    0.8723    0.0000 S   0  0  0  0  0  0  0  0  0  0  0  0
    0.3882    1.3519    0.0000 C   0  0  0  0  0  0  0  0  0  0  0  0
   -2.9869    2.9412    0.0000 C   0  0  0  0  0  0  0  0  0  0  0  0
   -2.5302   -0.3882    0.0000 C   0  0  0  0  0  0  0  0  0  0  0  0
   -4.4941    3.6126    0.0000 C   0  0  0  0  0  0  0  0  0  0  0  0
   -0.3699   -0.0868    0.0000 C   0  0  0  0  0  0  0  0  0  0  0  0
   -1.1463   -1.2879    0.0000 C   0  0  0  0  0  0  0  0  0  0  0  0
   -3.0691    3.7633    0.0000 C   0  0  0  0  0  0  0  0  0  0  0  0
   -2.5713   -1.2194    0.0000 C   0  0  0  0  0  0  0  0  0  0  0  0
   -3.8318    4.0922    0.0000 C   0  0  0  0  0  0  0  0  0  0  0  0
   -1.8725   -1.6625    0.0000 C   0  0  0  0  0  0  0  0  0  0  0  0
  2  1  1  0  0  0  0
  3  9  1  0  0  0  0
  4  3  1  0  0  0  0
  5  2  2  0  0  0  0
  6  1  1  0  0  0  0
  7  6  2  0  0  0  0
  7  5  1  0  0  0  0
  8  4  1  0  0  0  0
  9  2  1  0  0  0  0
 10  3  1  0  0  0  0
 11  1  1  0  0  0  0
 12 10  2  0  0  0  0
 12  8  1  0  0  0  0
 13 18  1  0  0  0  0
 14 13  3  0  0  0  0
 15  4  2  0  0  0  0
 16 11  1  0  0  0  0
 17  6  1  0  0  0  0
 18 17  1  0  0  0  0
 19 10  1  0  0  0  0
 20 11  2  0  0  0  0
 21 12  1  0  0  0  0
 22 16  1  0  0  0  0
 23 16  2  0  0  0  0
 23 27  1  0  0  0  0
 24 19  2  0  0  0  0
 25 20  1  0  0  0  0
 26 24  1  0  0  0  0
 26 21  2  0  0  0  0
 27 25  2  0  0  0  0
M  END
> <CdId>
2171

> <Mol Weight>
392.497

> <Formula>
C20H16N4OS2

> <Click_ID>
CLK029_A07 __ __ 

$$$$
