CLK049C09
 OpenBabel03181413202D

 22 24  0  0  0  0  0  0  0  0999 V2000
   -0.2958   -0.7667    0.0000 C   0  0  0  0  0  0  0  0  0  0  0  0
   -0.2958   -1.5917    0.0000 C   0  0  0  0  0  0  0  0  0  0  0  0
    0.4208   -0.3542    0.0000 C   0  0  0  0  0  0  0  0  0  0  0  0
   -1.0083   -0.3542    0.0000 C   0  0  0  0  0  0  0  0  0  0  0  0
   -1.0083   -2.0042    0.0000 O   0  0  0  0  0  0  0  0  0  0  0  0
    0.4208    0.4708    0.0000 N   0  0  0  0  0  0  0  0  0  0  0  0
   -1.7250   -0.7667    0.0000 C   0  0  0  0  0  0  0  0  0  0  0  0
   -1.7250   -1.5917    0.0000 C   0  0  0  0  0  0  0  0  0  0  0  0
    1.8500    2.9458    0.0000 C   0  0  0  0  0  0  0  0  0  0  0  0
    1.8500    3.7708    0.0000 C   0  0  0  0  0  0  0  0  0  0  0  0
    0.4208   -2.0042    0.0000 O   0  0  0  0  0  0  0  0  0  0  0  0
    1.1333   -0.7667    0.0000 O   0  0  0  0  0  0  0  0  0  0  0  0
    1.1333    0.8833    0.0000 C   0  0  0  0  0  0  0  0  0  0  0  0
    1.8500    2.1208    0.0000 C   0  0  0  0  0  0  0  0  0  0  0  0
    1.1333    1.7083    0.0000 C   0  0  0  0  0  0  0  0  0  0  0  0
    2.5625    0.8833    0.0000 C   0  0  0  0  0  0  0  0  0  0  0  0
   -2.4375   -0.3542    0.0000 C   0  0  0  0  0  0  0  0  0  0  0  0
   -2.4375   -2.0042    0.0000 C   0  0  0  0  0  0  0  0  0  0  0  0
    1.8500    0.4708    0.0000 C   0  0  0  0  0  0  0  0  0  0  0  0
    2.5625    1.7083    0.0000 C   0  0  0  0  0  0  0  0  0  0  0  0
   -3.1542   -1.5917    0.0000 C   0  0  0  0  0  0  0  0  0  0  0  0
   -3.1542   -0.7667    0.0000 C   0  0  0  0  0  0  0  0  0  0  0  0
  2  1  1  0  0  0  0
  3  1  1  0  0  0  0
  4  1  2  0  0  0  0
  5  2  1  0  0  0  0
  6  3  1  0  0  0  0
  7  4  1  0  0  0  0
  8  5  1  0  0  0  0
  8  7  2  0  0  0  0
  9 14  1  0  0  0  0
 10  9  3  0  0  0  0
 11  2  2  0  0  0  0
 12  3  2  0  0  0  0
 13  6  1  0  0  0  0
 14 15  1  0  0  0  0
 15 13  2  0  0  0  0
 16 19  2  0  0  0  0
 17  7  1  0  0  0  0
 18  8  1  0  0  0  0
 19 13  1  0  0  0  0
 20 14  2  0  0  0  0
 20 16  1  0  0  0  0
 21 18  2  0  0  0  0
 21 22  1  0  0  0  0
 22 17  2  0  0  0  0
M  END
> <CdId>
3787

> <Mol Weight>
289.2848

> <Formula>
C18H11NO3

> <Click_ID>
CLK049C09 __ __ 

$$$$
