CLK049E09
 OpenBabel03181413202D

 17 18  0  0  0  0  0  0  0  0999 V2000
    3.4458   -0.5792    0.0000 C   0  0  0  0  0  0  0  0  0  0  0  0
    4.1583   -0.9917    0.0000 C   0  0  0  0  0  0  0  0  0  0  0  0
    1.3000   -0.1667    0.0000 C   0  0  0  0  0  0  0  0  0  0  0  0
   -1.5583   -0.1667    0.0000 C   0  0  0  0  0  0  0  0  0  0  0  0
   -0.8417   -0.5792    0.0000 C   0  0  0  0  0  0  0  0  0  0  0  0
   -0.1292   -0.1667    0.0000 C   0  0  0  0  0  0  0  0  0  0  0  0
    1.3000    0.6583    0.0000 O   0  0  0  0  0  0  0  0  0  0  0  0
   -1.5583    0.6583    0.0000 C   0  0  0  0  0  0  0  0  0  0  0  0
    0.5875   -0.5792    0.0000 C   0  0  0  0  0  0  0  0  0  0  0  0
   -0.8417    1.0708    0.0000 C   0  0  0  0  0  0  0  0  0  0  0  0
    2.0167   -0.5792    0.0000 N   0  0  0  0  0  0  0  0  0  0  0  0
   -0.1292    0.6583    0.0000 C   0  0  0  0  0  0  0  0  0  0  0  0
    2.7292   -0.1667    0.0000 C   0  0  0  0  0  0  0  0  0  0  0  0
   -2.2708   -0.5792    0.0000 C   0  0  0  0  0  0  0  0  0  0  0  0
   -2.2708    1.0708    0.0000 C   0  0  0  0  0  0  0  0  0  0  0  0
   -2.9875   -0.1667    0.0000 C   0  0  0  0  0  0  0  0  0  0  0  0
   -2.9875    0.6583    0.0000 C   0  0  0  0  0  0  0  0  0  0  0  0
  2  1  3  0  0  0  0
  3 11  1  0  0  0  0
  4  5  1  0  0  0  0
  5  6  2  0  0  0  0
  6  9  1  0  0  0  0
  7  3  2  0  0  0  0
  8  4  2  0  0  0  0
  8 10  1  0  0  0  0
  9  3  1  0  0  0  0
 10 12  2  0  0  0  0
 11 13  1  0  0  0  0
 12  6  1  0  0  0  0
 13  1  1  0  0  0  0
 14  4  1  0  0  0  0
 15  8  1  0  0  0  0
 16 14  2  0  0  0  0
 16 17  1  0  0  0  0
 17 15  2  0  0  0  0
M  END
> <CdId>
3789

> <Mol Weight>
223.2698

> <Formula>
C15H13NO

> <Click_ID>
CLK049E09 __ __ 

$$$$
