CLK012_E08
 OpenBabel03181413202D

 29 31  0  0  0  0  0  0  0  0999 V2000
    1.5587   -0.8125    0.0000 N    0  0  0  0  0  0  0  0  0  0  0  0
    1.8157   -1.5960    0.0000 C    0  0  0  0  0  0  0  0  0  0  0  0
    2.2261   -0.3275    0.0000 C    0  0  0  0  0  0  0  0  0  0  0  0
    2.8894   -0.8125    0.0000 C    0  0  0  0  0  0  0  0  0  0  0  0
    2.6365   -1.5960    0.0000 S    0  0  0  0  0  0  0  0  0  0  0  0
    4.1827    1.8737    0.0000 C    0  0  0  0  0  0  0  0  0  0  0  0
    3.6729   -0.5596    0.0000 C    0  0  0  0  0  0  0  0  0  0  0  0
    4.7921    1.3265    0.0000 C    0  0  0  0  0  0  0  0  0  0  0  0
    3.3993    1.6125    0.0000 C    0  0  0  0  0  0  0  0  0  0  0  0
    4.3568    2.6820    0.0000 O    0  0  0  0  0  0  0  0  0  0  0  0
    3.8345    0.2487    0.0000 C    0  0  0  0  0  0  0  0  0  0  0  0
    0.6094    0.2445    0.0000 C    0  0  0  0  0  0  0  0  0  0  0  0
    0.3897    1.0405    0.0000 C    0  0  0  0  0  0  0  0  0  0  0  0
    1.3307   -2.2551    0.0000 O    0  0  0  0  0  0  0  0  0  0  0  0
    5.3269    3.7391    0.0000 C    0  0  0  0  0  0  0  0  0  0  0  0
    4.6263    0.5057    0.0000 C    0  0  0  0  0  0  0  0  0  0  0  0
    2.2178    0.4933    0.0000 O    0  0  0  0  0  0  0  0  0  0  0  0
    3.2251    0.8042    0.0000 C    0  0  0  0  0  0  0  0  0  0  0  0
    0.7835   -0.5596    0.0000 C    0  0  0  0  0  0  0  0  0  0  0  0
    5.1528    2.9308    0.0000 C    0  0  0  0  0  0  0  0  0  0  0  0
    6.1103    3.9796    0.0000 C    0  0  0  0  0  0  0  0  0  0  0  0
    5.5756    1.5752    0.0000 Cl   0  0  0  0  0  0  0  0  0  0  0  0
    2.7899    2.1639    0.0000 O    0  0  0  0  0  0  0  0  0  0  0  0
    6.7155    3.4282    0.0000 F    0  0  0  0  0  0  0  0  0  0  0  0
    4.7051    4.2822    0.0000 C    0  0  0  0  0  0  0  0  0  0  0  0
    6.2844    4.7797    0.0000 C    0  0  0  0  0  0  0  0  0  0  0  0
    2.0064    1.9110    0.0000 C    0  0  0  0  0  0  0  0  0  0  0  0
    4.8874    5.0906    0.0000 C    0  0  0  0  0  0  0  0  0  0  0  0
    5.6751    5.3476    0.0000 C    0  0  0  0  0  0  0  0  0  0  0  0
  2  1  1  0  0  0  0
  3  1  1  0  0  0  0
  4  3  1  0  0  0  0
  4  5  1  0  0  0  0
  5  2  1  0  0  0  0
  6  9  2  0  0  0  0
  6  8  1  0  0  0  0
  7  4  2  0  0  0  0
  8 16  2  0  0  0  0
  9 18  1  0  0  0  0
 10  6  1  0  0  0  0
 11  7  1  0  0  0  0
 12 19  1  0  0  0  0
 13 12  3  0  0  0  0
 14  2  2  0  0  0  0
 15 20  1  0  0  0  0
 16 11  1  0  0  0  0
 17  3  2  0  0  0  0
 18 11  2  0  0  0  0
 19  1  1  0  0  0  0
 20 10  1  0  0  0  0
 21 15  2  0  0  0  0
 22  8  1  0  0  0  0
 23  9  1  0  0  0  0
 24 21  1  0  0  0  0
 25 15  1  0  0  0  0
 26 21  1  0  0  0  0
 26 29  2  0  0  0  0
 27 23  1  0  0  0  0
 28 25  2  0  0  0  0
 29 28  1  0  0  0  0
M  END
> <CdId>
883

> <Mol Weight>
431.865

> <Formula>
C21H15ClFNO4S

> <Click_ID>
CLK012_E08 __ __ 

$$$$
