CLK018_E11
 OpenBabel03181413202D

 30 32  0  0  0  0  0  0  0  0999 V2000
    1.5636   -0.8151    0.0000 N    0  0  0  0  0  0  0  0  0  0  0  0
    1.8214   -1.6010    0.0000 C    0  0  0  0  0  0  0  0  0  0  0  0
    2.2331   -0.3286    0.0000 C    0  0  0  0  0  0  0  0  0  0  0  0
    2.8985   -0.8151    0.0000 C    0  0  0  0  0  0  0  0  0  0  0  0
    2.6448   -1.6010    0.0000 S    0  0  0  0  0  0  0  0  0  0  0  0
    4.2042    1.8588    0.0000 C    0  0  0  0  0  0  0  0  0  0  0  0
    3.6844   -0.5614    0.0000 C    0  0  0  0  0  0  0  0  0  0  0  0
    4.8072    1.3057    0.0000 C    0  0  0  0  0  0  0  0  0  0  0  0
    3.4183    1.6051    0.0000 C    0  0  0  0  0  0  0  0  0  0  0  0
    4.3913    2.6655    0.0000 O    0  0  0  0  0  0  0  0  0  0  0  0
    3.8549    0.2495    0.0000 C    0  0  0  0  0  0  0  0  0  0  0  0
    6.1421    3.9630    0.0000 C    0  0  0  0  0  0  0  0  0  0  0  0
    0.6113    0.2453    0.0000 C    0  0  0  0  0  0  0  0  0  0  0  0
    5.3644    3.7135    0.0000 C    0  0  0  0  0  0  0  0  0  0  0  0
    0.3909    1.0437    0.0000 C    0  0  0  0  0  0  0  0  0  0  0  0
    6.3292    4.7573    0.0000 C    0  0  0  0  0  0  0  0  0  0  0  0
    1.3349   -2.2622    0.0000 O    0  0  0  0  0  0  0  0  0  0  0  0
    4.6408    0.4948    0.0000 C    0  0  0  0  0  0  0  0  0  0  0  0
    2.2248    0.4948    0.0000 O    0  0  0  0  0  0  0  0  0  0  0  0
    3.2436    0.8067    0.0000 C    0  0  0  0  0  0  0  0  0  0  0  0
    5.1815    2.9150    0.0000 C    0  0  0  0  0  0  0  0  0  0  0  0
    0.7859   -0.5614    0.0000 C    0  0  0  0  0  0  0  0  0  0  0  0
    4.7448    4.2708    0.0000 C    0  0  0  0  0  0  0  0  0  0  0  0
    5.7179    5.3187    0.0000 C    0  0  0  0  0  0  0  0  0  0  0  0
    5.6014    1.5469    0.0000 Cl   0  0  0  0  0  0  0  0  0  0  0  0
    6.7492    3.3891    0.0000 Cl   0  0  0  0  0  0  0  0  0  0  0  0
    2.8194    2.1665    0.0000 O    0  0  0  0  0  0  0  0  0  0  0  0
    4.9320    5.0692    0.0000 C    0  0  0  0  0  0  0  0  0  0  0  0
    5.9133    6.1171    0.0000 Cl   0  0  0  0  0  0  0  0  0  0  0  0
    2.0335    1.9170    0.0000 C    0  0  0  0  0  0  0  0  0  0  0  0
  2  1  1  0  0  0  0
  3  1  1  0  0  0  0
  4  3  1  0  0  0  0
  4  5  1  0  0  0  0
  5  2  1  0  0  0  0
  6  9  2  0  0  0  0
  6  8  1  0  0  0  0
  7  4  2  0  0  0  0
  8 18  2  0  0  0  0
  9 20  1  0  0  0  0
 10  6  1  0  0  0  0
 11  7  1  0  0  0  0
 12 14  2  0  0  0  0
 13 22  1  0  0  0  0
 14 21  1  0  0  0  0
 15 13  3  0  0  0  0
 16 12  1  0  0  0  0
 16 24  2  0  0  0  0
 17  2  2  0  0  0  0
 18 11  1  0  0  0  0
 19  3  2  0  0  0  0
 20 11  2  0  0  0  0
 21 10  1  0  0  0  0
 22  1  1  0  0  0  0
 23 14  1  0  0  0  0
 24 28  1  0  0  0  0
 25  8  1  0  0  0  0
 26 12  1  0  0  0  0
 27  9  1  0  0  0  0
 28 23  2  0  0  0  0
 29 24  1  0  0  0  0
 30 27  1  0  0  0  0
M  END
> <CdId>
1366

> <Mol Weight>
482.764

> <Formula>
C21H14Cl3NO4S

> <Click_ID>
CLK018_E11 __ __ 

$$$$
