CLK031_F11
 OpenBabel03181413202D

 27 29  0  0  0  0  0  0  0  0999 V2000
    0.8292   -0.6667    0.0000 C   0  0  0  0  0  0  0  0  0  0  0  0
   -2.5833    0.1708    0.0000 S   0  0  0  0  0  0  0  0  0  0  0  0
    0.3417   -1.3292    0.0000 N   0  0  0  0  0  0  0  0  0  0  0  0
    1.6542   -0.6667    0.0000 N   0  0  0  0  0  0  0  0  0  0  0  0
    0.3417    0.0083    0.0000 S   0  0  0  0  0  0  0  0  0  0  0  0
   -0.4375   -0.2500    0.0000 C   0  0  0  0  0  0  0  0  0  0  0  0
   -0.4375   -1.0750    0.0000 C   0  0  0  0  0  0  0  0  0  0  0  0
   -1.8708   -0.2500    0.0000 C   0  0  0  0  0  0  0  0  0  0  0  0
   -1.1500    0.1625    0.0000 C   0  0  0  0  0  0  0  0  0  0  0  0
    2.0667    0.0458    0.0000 C   0  0  0  0  0  0  0  0  0  0  0  0
    0.0417   -2.7292    0.0000 C   0  0  0  0  0  0  0  0  0  0  0  0
   -1.1500   -1.4875    0.0000 C   0  0  0  0  0  0  0  0  0  0  0  0
   -0.5083   -3.3417    0.0000 C   0  0  0  0  0  0  0  0  0  0  0  0
   -2.1500    0.8583    0.0000 O   0  0  0  0  0  0  0  0  0  0  0  0
   -3.0208   -0.5417    0.0000 O   0  0  0  0  0  0  0  0  0  0  0  0
   -3.2875    0.5958    0.0000 N   0  0  0  0  0  0  0  0  0  0  0  0
   -1.8708   -1.0750    0.0000 C   0  0  0  0  0  0  0  0  0  0  0  0
    0.6000   -2.1167    0.0000 C   0  0  0  0  0  0  0  0  0  0  0  0
    1.6542    0.7583    0.0000 O   0  0  0  0  0  0  0  0  0  0  0  0
    3.3167    0.7583    0.0000 O   0  0  0  0  0  0  0  0  0  0  0  0
    2.8917    0.0458    0.0000 C   0  0  0  0  0  0  0  0  0  0  0  0
    4.1417    0.7458    0.0000 C   0  0  0  0  0  0  0  0  0  0  0  0
    4.5375    0.0250    0.0000 C   0  0  0  0  0  0  0  0  0  0  0  0
    4.5542    1.4583    0.0000 C   0  0  0  0  0  0  0  0  0  0  0  0
    5.3792    1.4458    0.0000 C   0  0  0  0  0  0  0  0  0  0  0  0
    5.3625    0.0125    0.0000 C   0  0  0  0  0  0  0  0  0  0  0  0
    5.7875    0.7208    0.0000 C   0  0  0  0  0  0  0  0  0  0  0  0
  2  8  1  0  0  0  0
  3  1  1  0  0  0  0
  4  1  2  0  0  0  0
  5  1  1  0  0  0  0
  6  5  1  0  0  0  0
  6  7  2  0  0  0  0
  7  3  1  0  0  0  0
  8  9  2  0  0  0  0
  8 17  1  0  0  0  0
  9  6  1  0  0  0  0
 10  4  1  0  0  0  0
 11 18  1  0  0  0  0
 12  7  1  0  0  0  0
 13 11  3  0  0  0  0
 14  2  2  0  0  0  0
 15  2  2  0  0  0  0
 16  2  1  0  0  0  0
 17 12  2  0  0  0  0
 18  3  1  0  0  0  0
 19 10  2  0  0  0  0
 20 21  1  0  0  0  0
 21 10  1  0  0  0  0
 22 20  1  0  0  0  0
 23 22  2  0  0  0  0
 24 22  1  0  0  0  0
 25 24  2  0  0  0  0
 26 23  1  0  0  0  0
 27 25  1  0  0  0  0
 27 26  2  0  0  0  0
M  END
> <CdId>
2385

> <Mol Weight>
401.459

> <Formula>
C18H15N3O4S2

> <Click_ID>
CLK031_F11 __ __ 

$$$$
