CLK010_H07
 OpenBabel03181413202D

 30 32  0  0  0  0  0  0  0  0999 V2000
    2.4851   -0.6732    0.0000 N    0  0  0  0  0  0  0  0  0  0  0  0
    3.1832   -1.9074    0.0000 C    0  0  0  0  0  0  0  0  0  0  0  0
    2.4809   -1.4960    0.0000 C    0  0  0  0  0  0  0  0  0  0  0  0
    3.1956   -0.2618    0.0000 C    0  0  0  0  0  0  0  0  0  0  0  0
    3.9062   -0.6774    0.0000 N    0  0  0  0  0  0  0  0  0  0  0  0
    3.9021   -1.5002    0.0000 C    0  0  0  0  0  0  0  0  0  0  0  0
    3.1832   -2.7302    0.0000 C    0  0  0  0  0  0  0  0  0  0  0  0
    3.8938   -3.1458    0.0000 C    0  0  0  0  0  0  0  0  0  0  0  0
    4.6002   -4.3800    0.0000 C    0  0  0  0  0  0  0  0  0  0  0  0
    1.7703   -0.2618    0.0000 C    0  0  0  0  0  0  0  0  0  0  0  0
    3.8813   -3.9686    0.0000 C    0  0  0  0  0  0  0  0  0  0  0  0
    5.3150   -3.9810    0.0000 C    0  0  0  0  0  0  0  0  0  0  0  0
    4.6168   -2.7344    0.0000 C    0  0  0  0  0  0  0  0  0  0  0  0
    6.7195   -5.6640    0.0000 C    0  0  0  0  0  0  0  0  0  0  0  0
    5.3274   -3.1583    0.0000 C    0  0  0  0  0  0  0  0  0  0  0  0
    3.1956    0.5610    0.0000 O    0  0  0  0  0  0  0  0  0  0  0  0
    7.4301   -6.0837    0.0000 C    0  0  0  0  0  0  0  0  0  0  0  0
    1.7620   -1.8991    0.0000 O    0  0  0  0  0  0  0  0  0  0  0  0
    4.6127   -1.9116    0.0000 O    0  0  0  0  0  0  0  0  0  0  0  0
    1.0514   -0.6732    0.0000 C    0  0  0  0  0  0  0  0  0  0  0  0
    1.7703    0.5693    0.0000 C    0  0  0  0  0  0  0  0  0  0  0  0
    3.1707   -4.3675    0.0000 Br   0  0  0  0  0  0  0  0  0  0  0  0
    0.3408    0.5693    0.0000 C    0  0  0  0  0  0  0  0  0  0  0  0
    6.0256   -4.4049    0.0000 O    0  0  0  0  0  0  0  0  0  0  0  0
    6.0380   -2.7593    0.0000 O    0  0  0  0  0  0  0  0  0  0  0  0
    1.0514    0.9807    0.0000 C    0  0  0  0  0  0  0  0  0  0  0  0
    0.3408   -0.2618    0.0000 C    0  0  0  0  0  0  0  0  0  0  0  0
   -0.3823    0.9807    0.0000 Cl   0  0  0  0  0  0  0  0  0  0  0  0
    6.0131   -5.2360    0.0000 C    0  0  0  0  0  0  0  0  0  0  0  0
    6.0463   -1.9490    0.0000 C    0  0  0  0  0  0  0  0  0  0  0  0
  2  3  1  0  0  0  0
  2  6  1  0  0  0  0
  3  1  1  0  0  0  0
  4  1  1  0  0  0  0
  5  4  1  0  0  0  0
  6  5  1  0  0  0  0
  7  2  2  0  0  0  0
  8  7  1  0  0  0  0
  9 11  2  0  0  0  0
 10  1  1  0  0  0  0
 11  8  1  0  0  0  0
 12 15  2  0  0  0  0
 12  9  1  0  0  0  0
 13  8  2  0  0  0  0
 14 29  1  0  0  0  0
 15 13  1  0  0  0  0
 16  4  2  0  0  0  0
 17 14  3  0  0  0  0
 18  3  2  0  0  0  0
 19  6  2  0  0  0  0
 20 10  1  0  0  0  0
 21 10  2  0  0  0  0
 22 11  1  0  0  0  0
 23 26  2  0  0  0  0
 23 27  1  0  0  0  0
 24 12  1  0  0  0  0
 25 15  1  0  0  0  0
 26 21  1  0  0  0  0
 27 20  2  0  0  0  0
 28 23  1  0  0  0  0
 29 24  1  0  0  0  0
 30 25  1  0  0  0  0
M  END
> <CdId>
752

> <Mol Weight>
489.703

> <Formula>
C21H14BrClN2O5

> <Click_ID>
CLK010_H07 __ __ 

$$$$
