CLK034_G02
 OpenBabel03181413202D

 23 25  0  0  0  0  0  0  0  0999 V2000
   -4.5679    2.5414    0.0000 C   0  0  0  0  0  0  0  0  0  0  0  0
   -3.8578    2.9608    0.0000 N   0  0  0  0  0  0  0  0  0  0  0  0
   -4.6676    1.7275    0.0000 N   0  0  0  0  0  0  0  0  0  0  0  0
   -5.3029    2.8861    0.0000 S   0  0  0  0  0  0  0  0  0  0  0  0
   -5.4691    1.5697    0.0000 C   0  0  0  0  0  0  0  0  0  0  0  0
   -3.8578    3.7873    0.0000 C   0  0  0  0  0  0  0  0  0  0  0  0
   -5.8760    2.2881    0.0000 C   0  0  0  0  0  0  0  0  0  0  0  0
   -3.1477    4.1984    0.0000 C   0  0  0  0  0  0  0  0  0  0  0  0
   -4.2357    0.3488    0.0000 C   0  0  0  0  0  0  0  0  0  0  0  0
   -4.4184   -0.4609    0.0000 C   0  0  0  0  0  0  0  0  0  0  0  0
   -2.3919    3.8703    0.0000 O   0  0  0  0  0  0  0  0  0  0  0  0
   -5.8927    0.8679    0.0000 C   0  0  0  0  0  0  0  0  0  0  0  0
   -4.5804    4.1901    0.0000 O   0  0  0  0  0  0  0  0  0  0  0  0
   -3.0605    5.0248    0.0000 C   0  0  0  0  0  0  0  0  0  0  0  0
   -1.8396    4.4766    0.0000 C   0  0  0  0  0  0  0  0  0  0  0  0
   -4.0489    1.1544    0.0000 C   0  0  0  0  0  0  0  0  0  0  0  0
   -2.2507    5.1826    0.0000 C   0  0  0  0  0  0  0  0  0  0  0  0
   -6.6817    2.3047    0.0000 C   0  0  0  0  0  0  0  0  0  0  0  0
   -5.5023    0.1370    0.0000 O   0  0  0  0  0  0  0  0  0  0  0  0
   -7.1177    1.6029    0.0000 C   0  0  0  0  0  0  0  0  0  0  0  0
   -6.7066    0.8803    0.0000 C   0  0  0  0  0  0  0  0  0  0  0  0
   -5.9259   -0.5648    0.0000 C   0  0  0  0  0  0  0  0  0  0  0  0
   -5.5438   -1.2749    0.0000 C   0  0  0  0  0  0  0  0  0  0  0  0
  2  1  2  0  0  0  0
  3  1  1  0  0  0  0
  4  1  1  0  0  0  0
  5  3  1  0  0  0  0
  6  2  1  0  0  0  0
  7  4  1  0  0  0  0
  7  5  2  0  0  0  0
  8  6  1  0  0  0  0
  9 16  1  0  0  0  0
 10  9  3  0  0  0  0
 11  8  1  0  0  0  0
 12  5  1  0  0  0  0
 13  6  2  0  0  0  0
 14  8  2  0  0  0  0
 15 11  1  0  0  0  0
 15 17  2  0  0  0  0
 16  3  1  0  0  0  0
 17 14  1  0  0  0  0
 18  7  1  0  0  0  0
 19 12  1  0  0  0  0
 20 18  2  0  0  0  0
 21 12  2  0  0  0  0
 21 20  1  0  0  0  0
 22 19  1  0  0  0  0
 23 22  1  0  0  0  0
M  END
> <CdId>
2626

> <Mol Weight>
326.37

> <Formula>
C17H14N2O3S

> <Click_ID>
CLK034_G02 __ __ 

$$$$
