CLK017_D10
 OpenBabel03181413202D

 27 29  0  0  0  0  0  0  0  0999 V2000
    5.2345   -0.5135    0.0000 N   0  0  0  0  0  0  0  0  0  0  0  0
    5.6444   -1.2217    0.0000 C   0  0  0  0  0  0  0  0  0  0  0  0
    4.3358   -1.5032    0.0000 C   0  0  0  0  0  0  0  0  0  0  0  0
    4.4269   -0.6833    0.0000 C   0  0  0  0  0  0  0  0  0  0  0  0
    5.0854   -1.8387    0.0000 S   0  0  0  0  0  0  0  0  0  0  0  0
    3.6194   -1.9132    0.0000 C   0  0  0  0  0  0  0  0  0  0  0  0
    3.6194   -2.7456    0.0000 C   0  0  0  0  0  0  0  0  0  0  0  0
    2.8947   -3.1556    0.0000 C   0  0  0  0  0  0  0  0  0  0  0  0
    6.3898    0.3188    0.0000 C   0  0  0  0  0  0  0  0  0  0  0  0
    7.2098    0.3106    0.0000 C   0  0  0  0  0  0  0  0  0  0  0  0
    6.4644   -1.3211    0.0000 O   0  0  0  0  0  0  0  0  0  0  0  0
    4.3275   -3.1597    0.0000 C   0  0  0  0  0  0  0  0  0  0  0  0
    3.8182   -0.1284    0.0000 O   0  0  0  0  0  0  0  0  0  0  0  0
    2.8947   -3.9797    0.0000 C   0  0  0  0  0  0  0  0  0  0  0  0
    2.1783   -2.7373    0.0000 C   0  0  0  0  0  0  0  0  0  0  0  0
    5.5699    0.2360    0.0000 C   0  0  0  0  0  0  0  0  0  0  0  0
    4.3275   -3.9797    0.0000 C   0  0  0  0  0  0  0  0  0  0  0  0
    3.6152   -4.4021    0.0000 C   0  0  0  0  0  0  0  0  0  0  0  0
    2.1783   -4.4021    0.0000 C   0  0  0  0  0  0  0  0  0  0  0  0
    1.4701   -3.1473    0.0000 C   0  0  0  0  0  0  0  0  0  0  0  0
    1.4660   -3.9755    0.0000 C   0  0  0  0  0  0  0  0  0  0  0  0
    5.0357   -2.7498    0.0000 O   0  0  0  0  0  0  0  0  0  0  0  0
    0.7578   -2.7373    0.0000 O   0  0  0  0  0  0  0  0  0  0  0  0
    5.7521   -3.1597    0.0000 C   0  0  0  0  0  0  0  0  0  0  0  0
    0.0414   -3.1473    0.0000 C   0  0  0  0  0  0  0  0  0  0  0  0
   -0.6709   -2.7332    0.0000 C   0  0  0  0  0  0  0  0  0  0  0  0
    6.4644   -2.7498    0.0000 C   0  0  0  0  0  0  0  0  0  0  0  0
  2  1  1  0  0  0  0
  3  4  1  0  0  0  0
  4  1  1  0  0  0  0
  5  2  1  0  0  0  0
  5  3  1  0  0  0  0
  6  3  2  0  0  0  0
  7  6  1  0  0  0  0
  8  7  2  0  0  0  0
  9 16  1  0  0  0  0
 10  9  3  0  0  0  0
 11  2  2  0  0  0  0
 12  7  1  0  0  0  0
 13  4  2  0  0  0  0
 14  8  1  0  0  0  0
 14 18  2  0  0  0  0
 15  8  1  0  0  0  0
 16  1  1  0  0  0  0
 17 12  2  0  0  0  0
 18 17  1  0  0  0  0
 19 14  1  0  0  0  0
 19 21  2  0  0  0  0
 20 15  2  0  0  0  0
 21 20  1  0  0  0  0
 22 12  1  0  0  0  0
 23 20  1  0  0  0  0
 24 22  1  0  0  0  0
 25 23  1  0  0  0  0
 26 25  1  0  0  0  0
 27 24  1  0  0  0  0
M  END
> <CdId>
1275

> <Mol Weight>
381.445

> <Formula>
C21H19NO4S

> <Click_ID>
CLK017_D10 __ __ 

$$$$
