CLK050E04
 OpenBabel03181413202D

 18 18  0  0  0  0  0  0  0  0999 V2000
    1.0292    1.9708    0.0000 C   0  0  0  0  0  0  0  0  0  0  0  0
    1.7458    4.0292    0.0000 C   0  0  0  0  0  0  0  0  0  0  0  0
    1.7458    4.8542    0.0000 C   0  0  0  0  0  0  0  0  0  0  0  0
    1.7458    1.5583    0.0000 O   0  0  0  0  0  0  0  0  0  0  0  0
    1.0292    2.7958    0.0000 N   0  0  0  0  0  0  0  0  0  0  0  0
    0.3167    1.5583    0.0000 N   0  0  0  0  0  0  0  0  0  0  0  0
   -1.1125   -1.7417    0.0000 C   0  0  0  0  0  0  0  0  0  0  0  0
   -1.1125   -3.3917    0.0000 C   0  0  0  0  0  0  0  0  0  0  0  0
   -0.4000   -0.5042    0.0000 S   0  0  0  0  0  0  0  0  0  0  0  0
    1.7458    3.2083    0.0000 C   0  0  0  0  0  0  0  0  0  0  0  0
   -0.4000   -2.9792    0.0000 C   0  0  0  0  0  0  0  0  0  0  0  0
   -1.8292   -2.9792    0.0000 C   0  0  0  0  0  0  0  0  0  0  0  0
   -1.8292   -2.1542    0.0000 C   0  0  0  0  0  0  0  0  0  0  0  0
   -0.4000   -2.1542    0.0000 C   0  0  0  0  0  0  0  0  0  0  0  0
   -1.1125   -0.9167    0.0000 C   0  0  0  0  0  0  0  0  0  0  0  0
    0.3167    0.7333    0.0000 C   0  0  0  0  0  0  0  0  0  0  0  0
   -0.4000    0.3208    0.0000 C   0  0  0  0  0  0  0  0  0  0  0  0
   -1.1125   -4.2167    0.0000 C   0  0  0  0  0  0  0  0  0  0  0  0
  2 10  1  0  0  0  0
  3  2  3  0  0  0  0
  4  1  2  0  0  0  0
  5  1  1  0  0  0  0
  6  1  1  0  0  0  0
  7 15  1  0  0  0  0
  8 12  2  0  0  0  0
  9 17  1  0  0  0  0
 10  5  1  0  0  0  0
 11 14  2  0  0  0  0
 11  8  1  0  0  0  0
 12 13  1  0  0  0  0
 13  7  2  0  0  0  0
 14  7  1  0  0  0  0
 15  9  1  0  0  0  0
 16  6  1  0  0  0  0
 17 16  1  0  0  0  0
 18  8  1  0  0  0  0
M  END
> <CdId>
3829

> <Mol Weight>
262.371

> <Formula>
C14H18N2OS

> <Click_ID>
CLK050E04 __ __ 

$$$$
