CLK018_F10
 OpenBabel03181413202D

 34 37  0  0  0  0  0  0  0  0999 V2000
    3.9449   -1.3400    0.0000 N   0  0  0  0  0  0  0  0  0  0  0  0
    4.1954   -2.1290    0.0000 C   0  0  0  0  0  0  0  0  0  0  0  0
    5.2766   -1.3400    0.0000 C   0  0  0  0  0  0  0  0  0  0  0  0
    4.6087   -0.8558    0.0000 C   0  0  0  0  0  0  0  0  0  0  0  0
    5.0219   -2.1290    0.0000 S   0  0  0  0  0  0  0  0  0  0  0  0
    6.3536   -0.9936    0.0000 C   0  0  0  0  0  0  0  0  0  0  0  0
    6.5290   -0.1795    0.0000 C   0  0  0  0  0  0  0  0  0  0  0  0
    3.1476   -1.0812    0.0000 C   0  0  0  0  0  0  0  0  0  0  0  0
    2.5340   -1.6323    0.0000 C   0  0  0  0  0  0  0  0  0  0  0  0
    7.3054    0.0709    0.0000 C   0  0  0  0  0  0  0  0  0  0  0  0
    4.6880    1.4778    0.0000 C   0  0  0  0  0  0  0  0  0  0  0  0
    4.8633    2.2876    0.0000 C   0  0  0  0  0  0  0  0  0  0  0  0
    1.7533   -1.3818    0.0000 N   0  0  0  0  0  0  0  0  0  0  0  0
    3.7112   -2.7970    0.0000 O   0  0  0  0  0  0  0  0  0  0  0  0
    5.9153    0.3715    0.0000 C   0  0  0  0  0  0  0  0  0  0  0  0
    4.6087   -0.0293    0.0000 O   0  0  0  0  0  0  0  0  0  0  0  0
    0.6262    0.4967    0.0000 C   0  0  0  0  0  0  0  0  0  0  0  0
    1.5822   -0.5678    0.0000 C   0  0  0  0  0  0  0  0  0  0  0  0
    0.7932   -0.3173    0.0000 C   0  0  0  0  0  0  0  0  0  0  0  0
    1.2440    1.0478    0.0000 C   0  0  0  0  0  0  0  0  0  0  0  0
    2.7093   -2.4463    0.0000 O   0  0  0  0  0  0  0  0  0  0  0  0
    7.4808    0.8724    0.0000 C   0  0  0  0  0  0  0  0  0  0  0  0
    6.0864    1.1772    0.0000 C   0  0  0  0  0  0  0  0  0  0  0  0
    6.8671    1.4360    0.0000 C   0  0  0  0  0  0  0  0  0  0  0  0
    2.0288    0.7848    0.0000 C   0  0  0  0  0  0  0  0  0  0  0  0
    2.1958   -0.0167    0.0000 C   0  0  0  0  0  0  0  0  0  0  0  0
    5.1263    0.1210    0.0000 O   0  0  0  0  0  0  0  0  0  0  0  0
    4.5127    0.6721    0.0000 C   0  0  0  0  0  0  0  0  0  0  0  0
    7.9191   -0.4884    0.0000 C   0  0  0  0  0  0  0  0  0  0  0  0
   -0.1586    0.7514    0.0000 C   0  0  0  0  0  0  0  0  0  0  0  0
    1.0770    1.8535    0.0000 C   0  0  0  0  0  0  0  0  0  0  0  0
    8.2572    1.1354    0.0000 C   0  0  0  0  0  0  0  0  0  0  0  0
    8.7039   -0.2171    0.0000 C   0  0  0  0  0  0  0  0  0  0  0  0
    8.8709    0.5844    0.0000 C   0  0  0  0  0  0  0  0  0  0  0  0
  2  1  1  0  0  0  0
  3  4  1  0  0  0  0
  3  5  1  0  0  0  0
  4  1  1  0  0  0  0
  5  2  1  0  0  0  0
  6  3  2  0  0  0  0
  7  6  1  0  0  0  0
  8  1  1  0  0  0  0
  9  8  1  0  0  0  0
 10  7  1  0  0  0  0
 11 28  1  0  0  0  0
 12 11  3  0  0  0  0
 13  9  1  0  0  0  0
 14  2  2  0  0  0  0
 15  7  2  0  0  0  0
 16  4  2  0  0  0  0
 17 19  2  0  0  0  0
 18 13  1  0  0  0  0
 19 18  1  0  0  0  0
 20 25  2  0  0  0  0
 20 17  1  0  0  0  0
 21  9  2  0  0  0  0
 22 10  1  0  0  0  0
 22 24  1  0  0  0  0
 23 15  1  0  0  0  0
 24 23  2  0  0  0  0
 25 26  1  0  0  0  0
 26 18  2  0  0  0  0
 27 15  1  0  0  0  0
 28 27  1  0  0  0  0
 29 10  2  0  0  0  0
 30 17  1  0  0  0  0
 31 20  1  0  0  0  0
 32 22  2  0  0  0  0
 32 34  1  0  0  0  0
 33 29  1  0  0  0  0
 34 33  2  0  0  0  0
M  END
> <CdId>
1375

> <Mol Weight>
470.54

> <Formula>
C27H22N2O4S

> <Click_ID>
CLK018_F10 __ __ 

$$$$
