CLK006_C11
 OpenBabel03181413202D

 15 16  0  0  0  0  0  0  0  0999 V2000
    5.5662   -6.4183    0.0000 C    0  0  0  0  0  0  0  0  0  0  0  0
    6.2770   -6.0067    0.0000 C    0  0  0  0  0  0  0  0  0  0  0  0
    8.4178   -4.7597    0.0000 C    0  0  0  0  0  0  0  0  0  0  0  0
    9.1369   -4.3440    0.0000 C    0  0  0  0  0  0  0  0  0  0  0  0
    6.2770   -5.1796    0.0000 N    0  0  0  0  0  0  0  0  0  0  0  0
    5.5662   -7.2455    0.0000 C    0  0  0  0  0  0  0  0  0  0  0  0
    6.9919   -6.4183    0.0000 C    0  0  0  0  0  0  0  0  0  0  0  0
    6.2770   -7.6571    0.0000 C    0  0  0  0  0  0  0  0  0  0  0  0
    6.9919   -7.2455    0.0000 C    0  0  0  0  0  0  0  0  0  0  0  0
    4.8470   -7.6695    0.0000 Cl   0  0  0  0  0  0  0  0  0  0  0  0
    7.7111   -5.9985    0.0000 O    0  0  0  0  0  0  0  0  0  0  0  0
    7.7070   -5.1712    0.0000 C    0  0  0  0  0  0  0  0  0  0  0  0
    4.8511   -6.0067    0.0000 C    0  0  0  0  0  0  0  0  0  0  0  0
    5.5662   -4.7680    0.0000 C    0  0  0  0  0  0  0  0  0  0  0  0
    4.8511   -5.1796    0.0000 C    0  0  0  0  0  0  0  0  0  0  0  0
  2  1  1  0  0  0  0
  3 12  1  0  0  0  0
  4  3  3  0  0  0  0
  5  2  1  0  0  0  0
  5 14  2  0  0  0  0
  6  1  2  0  0  0  0
  7  2  2  0  0  0  0
  7  9  1  0  0  0  0
  8  6  1  0  0  0  0
  9  8  2  0  0  0  0
 10  6  1  0  0  0  0
 11  7  1  0  0  0  0
 12 11  1  0  0  0  0
 13  1  1  0  0  0  0
 14 15  1  0  0  0  0
 15 13  2  0  0  0  0
M  END
> <CdId>
430

> <Mol Weight>
217.651

> <Formula>
C12H8ClNO

> <Click_ID>
CLK006_C11 __ __ 

$$$$
