CLK007_F04
 OpenBabel03181413202D

 16 17  0  0  0  0  0  0  0  0999 V2000
    5.8791  -13.4087    0.0000 O   0  0  0  0  0  0  0  0  0  0  0  0
    5.7419  -14.2237    0.0000 C   0  0  0  0  0  0  0  0  0  0  0  0
    6.4778  -14.6061    0.0000 N   0  0  0  0  0  0  0  0  0  0  0  0
    7.0640  -14.0241    0.0000 N   0  0  0  0  0  0  0  0  0  0  0  0
    6.6981  -13.2882    0.0000 C   0  0  0  0  0  0  0  0  0  0  0  0
    8.2947  -11.7872    0.0000 C   0  0  0  0  0  0  0  0  0  0  0  0
    8.6814  -11.0555    0.0000 C   0  0  0  0  0  0  0  0  0  0  0  0
    4.9935  -14.5604    0.0000 C   0  0  0  0  0  0  0  0  0  0  0  0
    7.0765  -12.5522    0.0000 S   0  0  0  0  0  0  0  0  0  0  0  0
    4.9062  -15.3795    0.0000 C   0  0  0  0  0  0  0  0  0  0  0  0
    4.3282  -14.0740    0.0000 C   0  0  0  0  0  0  0  0  0  0  0  0
    3.4842  -15.2340    0.0000 C   0  0  0  0  0  0  0  0  0  0  0  0
    3.5715  -14.4108    0.0000 C   0  0  0  0  0  0  0  0  0  0  0  0
    4.1536  -15.7162    0.0000 C   0  0  0  0  0  0  0  0  0  0  0  0
    7.9080  -12.5148    0.0000 C   0  0  0  0  0  0  0  0  0  0  0  0
    2.7234  -15.5708    0.0000 O   0  0  0  0  0  0  0  0  0  0  0  0
  2  1  1  0  0  0  0
  3  2  2  0  0  0  0
  4  5  2  0  0  0  0
  4  3  1  0  0  0  0
  5  1  1  0  0  0  0
  6 15  1  0  0  0  0
  7  6  3  0  0  0  0
  8  2  1  0  0  0  0
  9  5  1  0  0  0  0
 10  8  1  0  0  0  0
 11  8  2  0  0  0  0
 12 13  2  0  0  0  0
 12 14  1  0  0  0  0
 13 11  1  0  0  0  0
 14 10  2  0  0  0  0
 15  9  1  0  0  0  0
 16 12  1  0  0  0  0
M  END
> <CdId>
533

> <Mol Weight>
232.258

> <Formula>
C11H8N2O2S

> <Click_ID>
CLK007_F04 __ __ 

$$$$
