CLK002_H07
 OpenBabel03181413202D

 28 29  0  0  0  0  0  0  0  0999 V2000
   -0.9637    0.4440    0.0000 C   0  0  0  0  0  0  0  0  0  0  0  0
   -0.2443    0.0309    0.0000 N   0  0  0  0  0  0  0  0  0  0  0  0
   -0.9637    1.2769    0.0000 C   0  0  0  0  0  0  0  0  0  0  0  0
   -1.6797    0.0413    0.0000 C   0  0  0  0  0  0  0  0  0  0  0  0
   -0.2512   -0.7951    0.0000 S   0  0  0  0  0  0  0  0  0  0  0  0
    0.4715    0.4440    0.0000 C   0  0  0  0  0  0  0  0  0  0  0  0
   -1.6797    1.7002    0.0000 C   0  0  0  0  0  0  0  0  0  0  0  0
   -0.2443    1.6866    0.0000 O   0  0  0  0  0  0  0  0  0  0  0  0
   -2.3886    0.4440    0.0000 C   0  0  0  0  0  0  0  0  0  0  0  0
   -0.9637   -1.2080    0.0000 C   0  0  0  0  0  0  0  0  0  0  0  0
    0.3339   -1.3767    0.0000 O   0  0  0  0  0  0  0  0  0  0  0  0
    0.5782   -0.7951    0.0000 O   0  0  0  0  0  0  0  0  0  0  0  0
    1.1909    0.0309    0.0000 C   0  0  0  0  0  0  0  0  0  0  0  0
   -2.3886    1.2769    0.0000 C   0  0  0  0  0  0  0  0  0  0  0  0
   -0.2409    2.5160    0.0000 C   0  0  0  0  0  0  0  0  0  0  0  0
   -1.6797   -0.7916    0.0000 C   0  0  0  0  0  0  0  0  0  0  0  0
   -0.9637   -2.0307    0.0000 C   0  0  0  0  0  0  0  0  0  0  0  0
    1.9033    0.4509    0.0000 N   0  0  0  0  0  0  0  0  0  0  0  0
    1.1840   -0.7951    0.0000 O   0  0  0  0  0  0  0  0  0  0  0  0
    0.4715    2.9221    0.0000 C   0  0  0  0  0  0  0  0  0  0  0  0
   -2.3989   -1.1944    0.0000 C   0  0  0  0  0  0  0  0  0  0  0  0
   -1.6866   -2.4437    0.0000 C   0  0  0  0  0  0  0  0  0  0  0  0
    2.6123    0.0447    0.0000 C   0  0  0  0  0  0  0  0  0  0  0  0
   -2.3989   -2.0307    0.0000 C   0  0  0  0  0  0  0  0  0  0  0  0
    3.3214    0.4612    0.0000 C   0  0  0  0  0  0  0  0  0  0  0  0
    3.0253   -0.6609    0.0000 C   0  0  0  0  0  0  0  0  0  0  0  0
    2.0272   -0.5369    0.0000 C   0  0  0  0  0  0  0  0  0  0  0  0
    4.0235    0.8845    0.0000 C   0  0  0  0  0  0  0  0  0  0  0  0
  1  2  1  0  0  0  0
  1  3  1  0  0  0  0
  1  4  2  0  0  0  0
  2  5  1  0  0  0  0
  2  6  1  0  0  0  0
  3  7  2  0  0  0  0
  3  8  1  0  0  0  0
  4  9  1  0  0  0  0
  5 10  1  0  0  0  0
  5 11  2  0  0  0  0
  5 12  2  0  0  0  0
  6 13  1  0  0  0  0
  7 14  1  0  0  0  0
  8 15  1  0  0  0  0
  9 14  2  0  0  0  0
 10 16  2  0  0  0  0
 10 17  1  0  0  0  0
 13 18  1  0  0  0  0
 13 19  2  0  0  0  0
 15 20  1  0  0  0  0
 16 21  1  0  0  0  0
 17 22  2  0  0  0  0
 18 23  1  0  0  0  0
 21 24  2  0  0  0  0
 22 24  1  0  0  0  0
 23 25  1  0  0  0  0
 23 26  1  0  0  0  0
 23 27  1  0  0  0  0
 25 28  3  0  0  0  0
M  END
> <CdId>
156

> <Mol Weight>
400.491

> <Formula>
C21H24N2O4S

> <Click_ID>
CLK002_H07 __ __ 

$$$$
