CLK041G08
 OpenBabel03181413202D

 27 30  0  0  0  0  0  0  0  0999 V2000
   -1.0458    0.0417    0.0000 C   0  0  0  0  0  0  0  0  0  0  0  0
    1.0500    0.4542    0.0000 N   0  0  0  0  0  0  0  0  0  0  0  0
   -1.5292    0.7083    0.0000 N   0  0  0  0  0  0  0  0  0  0  0  0
   -1.5292   -0.6250    0.0000 N   0  0  0  0  0  0  0  0  0  0  0  0
   -0.2208    0.0417    0.0000 C   0  0  3  0  0  0  0  0  0  0  0  0
    1.0500   -0.3708    0.0000 C   0  0  0  0  0  0  0  0  0  0  0  0
    0.2667    0.7083    0.0000 C   0  0  0  0  0  0  0  0  0  0  0  0
   -2.3125   -0.3708    0.0000 C   0  0  0  0  0  0  0  0  0  0  0  0
   -2.3125    0.4542    0.0000 C   0  0  0  0  0  0  0  0  0  0  0  0
    1.7167    0.9375    0.0000 C   0  0  0  0  0  0  0  0  0  0  0  0
    0.2667   -0.6250    0.0000 C   0  0  0  0  0  0  0  0  0  0  0  0
   -1.8250   -2.0250    0.0000 C   0  0  0  0  0  0  0  0  0  0  0  0
   -2.3792   -2.6375    0.0000 C   0  0  0  0  0  0  0  0  0  0  0  0
    1.7167   -0.8542    0.0000 O   0  0  0  0  0  0  0  0  0  0  0  0
    2.4708    0.6042    0.0000 C   0  0  0  0  0  0  0  0  0  0  0  0
   -1.2750   -1.4125    0.0000 C   0  0  0  0  0  0  0  0  0  0  0  0
    2.5583   -0.2167    0.0000 O   0  0  0  0  0  0  0  0  0  0  0  0
   -3.0292   -0.7833    0.0000 C   0  0  0  0  0  0  0  0  0  0  0  0
    1.6292    1.7583    0.0000 C   0  0  0  0  0  0  0  0  0  0  0  0
   -3.0292    0.8667    0.0000 C   0  0  0  0  0  0  0  0  0  0  0  0
    3.1375    1.0875    0.0000 C   0  0  0  0  0  0  0  0  0  0  0  0
    3.3125   -0.5542    0.0000 C   0  0  0  0  0  0  0  0  0  0  0  0
   -3.7417   -0.3708    0.0000 C   0  0  0  0  0  0  0  0  0  0  0  0
    2.3000    2.2458    0.0000 C   0  0  0  0  0  0  0  0  0  0  0  0
   -3.7417    0.4542    0.0000 C   0  0  0  0  0  0  0  0  0  0  0  0
    3.3958   -1.3750    0.0000 C   0  0  0  0  0  0  0  0  0  0  0  0
    3.0542    1.9083    0.0000 C   0  0  0  0  0  0  0  0  0  0  0  0
  2  7  1  0  0  0  0
  3  1  2  0  0  0  0
  4  1  1  0  0  0  0
  5  1  1  0  0  0  0
  6 11  1  0  0  0  0
  6  2  1  0  0  0  0
  7  5  1  0  0  0  0
  8  4  1  0  0  0  0
  8  9  2  0  0  0  0
  9  3  1  0  0  0  0
 10  2  1  0  0  0  0
 11  5  1  0  0  0  0
 12 16  1  0  0  0  0
 13 12  3  0  0  0  0
 14  6  2  0  0  0  0
 15 10  2  0  0  0  0
 16  4  1  0  0  0  0
 17 15  1  0  0  0  0
 18  8  1  0  0  0  0
 19 10  1  0  0  0  0
 20  9  1  0  0  0  0
 21 15  1  0  0  0  0
 22 17  1  0  0  0  0
 23 18  2  0  0  0  0
 23 25  1  0  0  0  0
 24 19  2  0  0  0  0
 24 27  1  0  0  0  0
 25 20  2  0  0  0  0
 26 22  1  0  0  0  0
 27 21  2  0  0  0  0
M  END
> <CdId>
3143

> <Mol Weight>
359.421

> <Formula>
C22H21N3O2

> <Click_ID>
CLK041G08 __ __ 

$$$$
