CLK026_A04
 OpenBabel03181413202D

 27 29  0  0  0  0  0  0  0  0999 V2000
   -1.5360   -0.5532    0.0000 N    0  0  0  0  0  0  0  0  0  0  0  0
   -1.1202    0.1546    0.0000 C    0  0  0  0  0  0  0  0  0  0  0  0
   -0.9965   -1.1683    0.0000 C    0  0  0  0  0  0  0  0  0  0  0  0
   -0.2371   -0.8453    0.0000 C    0  0  0  0  0  0  0  0  0  0  0  0
   -0.3127   -0.0206    0.0000 S    0  0  0  0  0  0  0  0  0  0  0  0
    0.4604   -1.2680    0.0000 C    0  0  0  0  0  0  0  0  0  0  0  0
    2.6493   -0.0447    0.0000 C    0  0  0  0  0  0  0  0  0  0  0  0
    1.9312    0.3643    0.0000 C    0  0  0  0  0  0  0  0  0  0  0  0
    2.6252   -0.8934    0.0000 C    0  0  0  0  0  0  0  0  0  0  0  0
   -2.3538   -0.6288    0.0000 C    0  0  0  0  0  0  0  0  0  0  0  0
    1.1958   -0.8556    0.0000 C    0  0  0  0  0  0  0  0  0  0  0  0
    4.0960    1.5875    0.0000 C    0  0  0  0  0  0  0  0  0  0  0  0
    4.8106    1.9758    0.0000 C    0  0  0  0  0  0  0  0  0  0  0  0
   -1.4467    0.9140    0.0000 O    0  0  0  0  0  0  0  0  0  0  0  0
    1.2061   -0.0344    0.0000 C    0  0  0  0  0  0  0  0  0  0  0  0
    1.9036   -1.2920    0.0000 C    0  0  0  0  0  0  0  0  0  0  0  0
   -1.1820   -1.9724    0.0000 O    0  0  0  0  0  0  0  0  0  0  0  0
   -2.7043   -1.3745    0.0000 C    0  0  0  0  0  0  0  0  0  0  0  0
   -2.8280    0.0550    0.0000 C    0  0  0  0  0  0  0  0  0  0  0  0
    3.3262   -1.3127    0.0000 Cl   0  0  0  0  0  0  0  0  0  0  0  0
    1.9449    1.1889    0.0000 Cl   0  0  0  0  0  0  0  0  0  0  0  0
    3.3641    0.3540    0.0000 O    0  0  0  0  0  0  0  0  0  0  0  0
   -3.9997   -0.7697    0.0000 C    0  0  0  0  0  0  0  0  0  0  0  0
   -3.6424   -0.0206    0.0000 C    0  0  0  0  0  0  0  0  0  0  0  0
   -3.5255   -1.4364    0.0000 C    0  0  0  0  0  0  0  0  0  0  0  0
   -4.8141   -0.8385    0.0000 Cl   0  0  0  0  0  0  0  0  0  0  0  0
    3.3777    1.1683    0.0000 C    0  0  0  0  0  0  0  0  0  0  0  0
  2  1  1  0  0  0  0
  3  1  1  0  0  0  0
  4  3  1  0  0  0  0
  4  5  1  0  0  0  0
  5  2  1  0  0  0  0
  6  4  2  0  0  0  0
  7  9  2  0  0  0  0
  8 15  2  0  0  0  0
  8  7  1  0  0  0  0
  9 16  1  0  0  0  0
 10  1  1  0  0  0  0
 11  6  1  0  0  0  0
 12 27  1  0  0  0  0
 13 12  3  0  0  0  0
 14  2  2  0  0  0  0
 15 11  1  0  0  0  0
 16 11  2  0  0  0  0
 17  3  2  0  0  0  0
 18 10  1  0  0  0  0
 19 10  2  0  0  0  0
 20  9  1  0  0  0  0
 21  8  1  0  0  0  0
 22  7  1  0  0  0  0
 23 24  2  0  0  0  0
 24 19  1  0  0  0  0
 25 18  2  0  0  0  0
 25 23  1  0  0  0  0
 26 23  1  0  0  0  0
 27 22  1  0  0  0  0
M  END
> <CdId>
1939

> <Mol Weight>
438.712

> <Formula>
C19H10Cl3NO3S

> <Click_ID>
CLK026_A04 __ __ 

$$$$
