CLK042B03
 OpenBabel03181413202D

 25 27  0  0  0  0  0  0  0  0999 V2000
    1.0458    0.5583    0.0000 C   0  0  0  0  0  0  0  0  0  0  0  0
    0.3292    0.1458    0.0000 C   0  0  0  0  0  0  0  0  0  0  0  0
    1.0458    1.3833    0.0000 C   0  0  0  0  0  0  0  0  0  0  0  0
    1.8292    0.3042    0.0000 C   0  0  0  0  0  0  0  0  0  0  0  0
    0.3292    1.7958    0.0000 N   0  0  0  0  0  0  0  0  0  0  0  0
   -0.3833    0.5583    0.0000 N   0  0  0  0  0  0  0  0  0  0  0  0
    1.8292    1.6375    0.0000 S   0  0  0  0  0  0  0  0  0  0  0  0
    2.3125    0.9708    0.0000 C   0  0  0  0  0  0  0  0  0  0  0  0
   -0.3833    1.3833    0.0000 C   0  0  0  0  0  0  0  0  0  0  0  0
   -4.6708    0.5583    0.0000 C   0  0  0  0  0  0  0  0  0  0  0  0
   -2.5292    0.1458    0.0000 C   0  0  0  0  0  0  0  0  0  0  0  0
    2.0833   -0.4792    0.0000 C   0  0  0  0  0  0  0  0  0  0  0  0
   -5.3875    0.9708    0.0000 C   0  0  0  0  0  0  0  0  0  0  0  0
   -1.8125    0.5583    0.0000 C   0  0  0  0  0  0  0  0  0  0  0  0
   -1.1000    0.1458    0.0000 C   0  0  0  0  0  0  0  0  0  0  0  0
    0.3292   -0.6792    0.0000 O   0  0  0  0  0  0  0  0  0  0  0  0
   -2.5292   -0.6792    0.0000 O   0  0  0  0  0  0  0  0  0  0  0  0
    2.8917   -0.6500    0.0000 C   0  0  0  0  0  0  0  0  0  0  0  0
    1.5333   -1.0917    0.0000 C   0  0  0  0  0  0  0  0  0  0  0  0
   -3.2417    0.5583    0.0000 N   0  0  0  0  0  0  0  0  0  0  0  0
    1.7875   -1.8792    0.0000 C   0  0  0  0  0  0  0  0  0  0  0  0
    3.1458   -1.4375    0.0000 C   0  0  0  0  0  0  0  0  0  0  0  0
    2.5958   -2.0500    0.0000 C   0  0  0  0  0  0  0  0  0  0  0  0
   -3.9583    0.1458    0.0000 C   0  0  0  0  0  0  0  0  0  0  0  0
    2.8500   -2.8333    0.0000 C   0  0  0  0  0  0  0  0  0  0  0  0
  2  1  1  0  0  0  0
  3  1  2  0  0  0  0
  4  1  1  0  0  0  0
  5  3  1  0  0  0  0
  6  2  1  0  0  0  0
  6  9  1  0  0  0  0
  7  3  1  0  0  0  0
  7  8  1  0  0  0  0
  8  4  2  0  0  0  0
  9  5  2  0  0  0  0
 10 24  1  0  0  0  0
 11 14  1  0  0  0  0
 12  4  1  0  0  0  0
 13 10  3  0  0  0  0
 14 15  1  0  0  0  0
 15  6  1  0  0  0  0
 16  2  2  0  0  0  0
 17 11  2  0  0  0  0
 18 12  1  0  0  0  0
 19 12  2  0  0  0  0
 20 11  1  0  0  0  0
 21 19  1  0  0  0  0
 22 18  2  0  0  0  0
 22 23  1  0  0  0  0
 23 21  2  0  0  0  0
 24 20  1  0  0  0  0
 25 23  1  0  0  0  0
M  END
> <CdId>
3178

> <Mol Weight>
351.422

> <Formula>
C19H17N3O2S

> <Click_ID>
CLK042B03 __ __ 

$$$$
