CLK003_A08
 OpenBabel03181413202D

 31 34  0  0  0  0  0  0  0  0999 V2000
    0.2831   -1.3980    0.0000 C   0  0  0  0  0  0  0  0  0  0  0  0
    1.0425   -1.0597    0.0000 C   0  0  0  0  0  0  0  0  0  0  0  0
   -0.2589   -0.7939    0.0000 C   0  0  0  0  0  0  0  0  0  0  0  0
    0.1208   -2.2057    0.0000 C   0  0  0  0  0  0  0  0  0  0  0  0
    0.9527   -0.2451    0.0000 C   0  0  0  0  0  0  0  0  0  0  0  0
    1.7915   -1.4083    0.0000 C   0  0  0  0  0  0  0  0  0  0  0  0
    0.1449   -0.0794    0.0000 N   0  0  0  0  0  0  0  0  0  0  0  0
   -0.6697   -2.4611    0.0000 C   0  0  0  0  0  0  0  0  0  0  0  0
    1.6224    0.2347    0.0000 C   0  0  0  0  0  0  0  0  0  0  0  0
    2.4473   -0.9181    0.0000 C   0  0  0  0  0  0  0  0  0  0  0  0
   -0.1864    0.6800    0.0000 C   0  0  0  0  0  0  0  0  0  0  0  0
   -1.3359   -1.9744    0.0000 C   0  0  0  0  0  0  0  0  0  0  0  0
   -0.9216   -3.2481    0.0000 S   0  0  0  0  0  0  0  0  0  0  0  0
    2.3679   -0.0967    0.0000 C   0  0  0  0  0  0  0  0  0  0  0  0
    0.3037    1.3428    0.0000 C   0  0  0  0  0  0  0  0  0  0  0  0
   -2.0090   -2.4611    0.0000 N   0  0  0  0  0  0  0  0  0  0  0  0
   -1.3428   -1.1460    0.0000 O   0  0  0  0  0  0  0  0  0  0  0  0
   -1.7501   -3.2481    0.0000 C   0  0  0  0  0  0  0  0  0  0  0  0
   -0.0345    2.0952    0.0000 N   0  0  0  0  0  0  0  0  0  0  0  0
    1.1219    1.2565    0.0000 O   0  0  0  0  0  0  0  0  0  0  0  0
   -2.7891   -2.2057    0.0000 C   0  0  0  0  0  0  0  0  0  0  0  0
   -2.2368   -3.9109    0.0000 O   0  0  0  0  0  0  0  0  0  0  0  0
    0.4453    2.7511    0.0000 C   0  0  0  0  0  0  0  0  0  0  0  0
   -2.9616   -1.3980    0.0000 C   0  0  0  0  0  0  0  0  0  0  0  0
    0.1070    3.5036    0.0000 C   0  0  0  0  0  0  0  0  0  0  0  0
    1.2599    2.6648    0.0000 C   0  0  0  0  0  0  0  0  0  0  0  0
   -3.1826   -0.5972    0.0000 C   0  0  0  0  0  0  0  0  0  0  0  0
    0.5937    4.1767    0.0000 C   0  0  0  0  0  0  0  0  0  0  0  0
    1.7466    3.3275    0.0000 C   0  0  0  0  0  0  0  0  0  0  0  0
    1.4222    4.0801    0.0000 C   0  0  0  0  0  0  0  0  0  0  0  0
    1.9089    4.7497    0.0000 F   0  0  0  0  0  0  0  0  0  0  0  0
  1  2  1  0  0  0  0
  1  3  2  0  0  0  0
  1  4  1  0  0  0  0
  2  5  1  0  0  0  0
  2  6  2  0  0  0  0
  3  7  1  0  0  0  0
  4  8  2  0  0  0  0
  5  9  2  0  0  0  0
  5  7  1  0  0  0  0
  6 10  1  0  0  0  0
  7 11  1  0  0  0  0
  8 12  1  0  0  0  0
  8 13  1  0  0  0  0
  9 14  1  0  0  0  0
 10 14  2  0  0  0  0
 11 15  1  0  0  0  0
 12 16  1  0  0  0  0
 12 17  2  0  0  0  0
 13 18  1  0  0  0  0
 15 19  1  0  0  0  0
 15 20  2  0  0  0  0
 16 21  1  0  0  0  0
 16 18  1  0  0  0  0
 18 22  2  0  0  0  0
 19 23  1  0  0  0  0
 21 24  1  0  0  0  0
 23 25  1  0  0  0  0
 23 26  2  0  0  0  0
 24 27  3  0  0  0  0
 25 28  2  0  0  0  0
 26 29  1  0  0  0  0
 28 30  1  0  0  0  0
 29 30  2  0  0  0  0
 30 31  1  0  0  0  0
M  END
> <CdId>
167

> <Mol Weight>
433.455

> <Formula>
C23H16FN3O3S

> <Click_ID>
CLK003_A08 __ __ 

$$$$
