CLK027_A03
 OpenBabel03181413202D

 28 31  0  0  0  0  0  0  0  0999 V2000
   -2.3455   -0.6947    0.0000 C   0  0  0  0  0  0  0  0  0  0  0  0
   -2.4108    0.1203    0.0000 C   0  0  0  0  0  0  0  0  0  0  0  0
   -3.2122    0.3164    0.0000 C   0  0  0  0  0  0  0  0  0  0  0  0
   -3.1090   -1.0180    0.0000 O   0  0  0  0  0  0  0  0  0  0  0  0
   -1.6336   -1.1211    0.0000 C   0  0  0  0  0  0  0  0  0  0  0  0
   -3.6455   -0.3921    0.0000 C   0  0  0  0  0  0  0  0  0  0  0  0
   -3.6076    1.0283    0.0000 C   0  0  0  0  0  0  0  0  0  0  0  0
    4.1441    0.3783    0.0000 C   0  0  0  0  0  0  0  0  0  0  0  0
    4.8560    0.7944    0.0000 C   0  0  0  0  0  0  0  0  0  0  0  0
   -0.1960   -1.1452    0.0000 N   0  0  0  0  0  0  0  0  0  0  0  0
   -0.9079   -0.7291    0.0000 N   0  0  0  0  0  0  0  0  0  0  0  0
   -1.6508   -1.9465    0.0000 O   0  0  0  0  0  0  0  0  0  0  0  0
   -4.4640   -0.3714    0.0000 C   0  0  0  0  0  0  0  0  0  0  0  0
   -4.4330    1.0524    0.0000 C   0  0  0  0  0  0  0  0  0  0  0  0
   -4.8595    0.3405    0.0000 C   0  0  0  0  0  0  0  0  0  0  0  0
    0.5365   -0.7600    0.0000 C   0  0  0  0  0  0  0  0  0  0  0  0
    1.9672   -0.8048    0.0000 C   0  0  0  0  0  0  0  0  0  0  0  0
    1.2416   -1.1968    0.0000 C   0  0  0  0  0  0  0  0  0  0  0  0
    2.6791   -1.2346    0.0000 C   0  0  0  0  0  0  0  0  0  0  0  0
    3.4254   -0.0172    0.0000 C   0  0  0  0  0  0  0  0  0  0  0  0
    3.4047   -0.8426    0.0000 O   0  0  0  0  0  0  0  0  0  0  0  0
   -3.1812    1.7299    0.0000 C   0  0  0  0  0  0  0  0  0  0  0  0
    1.9259   -2.4659    0.0000 C   0  0  0  0  0  0  0  0  0  0  0  0
    1.2175   -2.0291    0.0000 C   0  0  0  0  0  0  0  0  0  0  0  0
    2.6550   -2.0703    0.0000 C   0  0  0  0  0  0  0  0  0  0  0  0
   -4.8320    1.7711    0.0000 C   0  0  0  0  0  0  0  0  0  0  0  0
   -3.5733    2.4555    0.0000 C   0  0  0  0  0  0  0  0  0  0  0  0
   -4.3987    2.4693    0.0000 C   0  0  0  0  0  0  0  0  0  0  0  0
  2  1  2  0  0  0  0
  3  2  1  0  0  0  0
  4  1  1  0  0  0  0
  5  1  1  0  0  0  0
  6  4  1  0  0  0  0
  6  3  2  0  0  0  0
  7  3  1  0  0  0  0
  8 20  1  0  0  0  0
  9  8  3  0  0  0  0
 10 11  1  0  0  0  0
 11  5  1  0  0  0  0
 12  5  2  0  0  0  0
 13  6  1  0  0  0  0
 14  7  1  0  0  0  0
 14 15  1  0  0  0  0
 15 13  2  0  0  0  0
 16 10  2  0  0  0  0
 17 18  1  0  0  0  0
 18 16  1  0  0  0  0
 19 17  2  0  0  0  0
 19 25  1  0  0  0  0
 20 21  1  0  0  0  0
 21 19  1  0  0  0  0
 22  7  2  0  0  0  0
 23 24  1  0  0  0  0
 24 18  2  0  0  0  0
 25 23  2  0  0  0  0
 26 14  2  0  0  0  0
 27 22  1  0  0  0  0
 28 27  2  0  0  0  0
 28 26  1  0  0  0  0
M  END
> <CdId>
2018

> <Mol Weight>
368.3847

> <Formula>
C23H16N2O3

> <Click_ID>
CLK027_A03 __ __ 

$$$$
