CLK024_E11
 OpenBabel03181413202D

 22 23  0  0  0  0  0  0  0  0999 V2000
   -1.8493   -0.8885    0.0000 N    0  0  0  0  0  0  0  0  0  0  0  0
   -1.8700   -1.7185    0.0000 C    0  0  0  0  0  0  0  0  0  0  0  0
   -1.0641   -0.6302    0.0000 C    0  0  0  0  0  0  0  0  0  0  0  0
   -0.5854   -1.3190    0.0000 C    0  0  0  0  0  0  0  0  0  0  0  0
   -1.0848   -1.9802    0.0000 S    0  0  0  0  0  0  0  0  0  0  0  0
    0.2411   -1.3293    0.0000 C    0  0  0  0  0  0  0  0  0  0  0  0
   -3.2819   -0.7197    0.0000 C    0  0  0  0  0  0  0  0  0  0  0  0
   -4.0224   -1.0883    0.0000 C    0  0  0  0  0  0  0  0  0  0  0  0
    1.9078    0.0827    0.0000 C    0  0  0  0  0  0  0  0  0  0  0  0
   -2.5450   -2.1937    0.0000 O    0  0  0  0  0  0  0  0  0  0  0  0
   -0.7955    0.1481    0.0000 O    0  0  0  0  0  0  0  0  0  0  0  0
    0.6647   -0.6130    0.0000 C    0  0  0  0  0  0  0  0  0  0  0  0
   -2.5209   -0.3926    0.0000 C    0  0  0  0  0  0  0  0  0  0  0  0
    1.4877   -0.6267    0.0000 C    0  0  0  0  0  0  0  0  0  0  0  0
    1.5084    0.7955    0.0000 C    0  0  0  0  0  0  0  0  0  0  0  0
    0.6853    0.8093    0.0000 C    0  0  0  0  0  0  0  0  0  0  0  0
    3.1889    2.1971    0.0000 C    0  0  0  0  0  0  0  0  0  0  0  0
    4.0189    2.1696    0.0000 C    0  0  0  0  0  0  0  0  0  0  0  0
    2.7240    0.0688    0.0000 Br   0  0  0  0  0  0  0  0  0  0  0  0
    0.2651    0.1068    0.0000 C    0  0  0  0  0  0  0  0  0  0  0  0
    1.9251    1.5049    0.0000 O    0  0  0  0  0  0  0  0  0  0  0  0
    2.7585    1.4981    0.0000 C    0  0  0  0  0  0  0  0  0  0  0  0
  2  1  1  0  0  0  0
  3  1  1  0  0  0  0
  4  3  1  0  0  0  0
  5  2  1  0  0  0  0
  5  4  1  0  0  0  0
  6  4  2  0  0  0  0
  7 13  1  0  0  0  0
  8  7  3  0  0  0  0
  9 14  2  0  0  0  0
 10  2  2  0  0  0  0
 11  3  2  0  0  0  0
 12  6  1  0  0  0  0
 13  1  1  0  0  0  0
 14 12  1  0  0  0  0
 15 16  2  0  0  0  0
 15  9  1  0  0  0  0
 16 20  1  0  0  0  0
 17 22  1  0  0  0  0
 18 17  2  0  0  0  0
 19  9  1  0  0  0  0
 20 12  2  0  0  0  0
 21 15  1  0  0  0  0
 22 21  1  0  0  0  0
M  END
> <CdId>
1826

> <Mol Weight>
378.24

> <Formula>
C16H12BrNO3S

> <Click_ID>
CLK024_E11 __ __ 

$$$$
