CLK027_D05
 OpenBabel03181413202D

 30 32  0  0  0  0  0  0  0  0999 V2000
    0.7036    0.5026    0.0000 C   0  0  0  0  0  0  0  0  0  0  0  0
    1.3622    1.6950    0.0000 N   0  0  0  0  0  0  0  0  0  0  0  0
    0.6898    1.2791    0.0000 C   0  0  0  0  0  0  0  0  0  0  0  0
    2.0798    0.5095    0.0000 N   0  0  0  0  0  0  0  0  0  0  0  0
    1.3969    0.0867    0.0000 C   0  0  0  0  0  0  0  0  0  0  0  0
   -0.0243    0.0867    0.0000 C   0  0  0  0  0  0  0  0  0  0  0  0
    1.5633    2.4645    0.0000 C   0  0  0  0  0  0  0  0  0  0  0  0
    2.1422    4.7731    0.0000 C   0  0  0  0  0  0  0  0  0  0  0  0
   -0.7556   -4.5027    0.0000 C   0  0  0  0  0  0  0  0  0  0  0  0
   -0.7591   -5.3277    0.0000 C   0  0  0  0  0  0  0  0  0  0  0  0
   -0.0035    1.6707    0.0000 O   0  0  0  0  0  0  0  0  0  0  0  0
   -0.7418   -2.0001    0.0000 C   0  0  0  0  0  0  0  0  0  0  0  0
    1.9515    4.0139    0.0000 C   0  0  0  0  0  0  0  0  0  0  0  0
   -0.0243   -0.7522    0.0000 C   0  0  0  0  0  0  0  0  0  0  0  0
   -0.7418   -1.1751    0.0000 C   0  0  0  0  0  0  0  0  0  0  0  0
   -0.0243   -2.4160    0.0000 C   0  0  0  0  0  0  0  0  0  0  0  0
    1.5633    5.3277    0.0000 O   0  0  0  0  0  0  0  0  0  0  0  0
    2.3328    2.6933    0.0000 C   0  0  0  0  0  0  0  0  0  0  0  0
    0.9914    3.0122    0.0000 C   0  0  0  0  0  0  0  0  0  0  0  0
    1.1855    3.7852    0.0000 C   0  0  0  0  0  0  0  0  0  0  0  0
    2.5234    3.4559    0.0000 C   0  0  0  0  0  0  0  0  0  0  0  0
    0.7036   -2.0001    0.0000 C   0  0  0  0  0  0  0  0  0  0  0  0
    2.9082    5.0087    0.0000 O   0  0  0  0  0  0  0  0  0  0  0  0
    0.7036   -1.1612    0.0000 C   0  0  0  0  0  0  0  0  0  0  0  0
   -1.4662   -2.4160    0.0000 O   0  0  0  0  0  0  0  0  0  0  0  0
   -0.0243   -3.2479    0.0000 O   0  0  0  0  0  0  0  0  0  0  0  0
    1.4073   -0.7002    0.0000 C   0  0  0  0  0  0  0  0  0  0  0  0
   -0.7556   -3.6639    0.0000 C   0  0  0  0  0  0  0  0  0  0  0  0
   -2.1838   -2.0001    0.0000 C   0  0  0  0  0  0  0  0  0  0  0  0
   -2.9117   -2.4021    0.0000 C   0  0  0  0  0  0  0  0  0  0  0  0
  2  3  1  0  0  0  0
  2  4  1  0  0  0  0
  3  1  1  0  0  0  0
  4  5  2  0  0  0  0
  5  1  1  0  0  0  0
  6  1  2  0  0  0  0
  7  2  1  0  0  0  0
  8 13  1  0  0  0  0
  9 28  1  0  0  0  0
 10  9  3  0  0  0  0
 11  3  2  0  0  0  0
 12 15  2  0  0  0  0
 12 16  1  0  0  0  0
 13 20  2  0  0  0  0
 14  6  1  0  0  0  0
 15 14  1  0  0  0  0
 16 22  2  0  0  0  0
 17  8  2  0  0  0  0
 18  7  1  0  0  0  0
 19  7  2  0  0  0  0
 20 19  1  0  0  0  0
 21 18  2  0  0  0  0
 21 13  1  0  0  0  0
 22 24  1  0  0  0  0
 23  8  1  0  0  0  0
 24 14  2  0  0  0  0
 25 12  1  0  0  0  0
 26 16  1  0  0  0  0
 27  5  1  0  0  0  0
 28 26  1  0  0  0  0
 29 25  1  0  0  0  0
 30 29  1  0  0  0  0
M  END
> <CdId>
2047

> <Mol Weight>
404.4153

> <Formula>
C23H20N2O5

> <Click_ID>
CLK027_D05 __ __ 

$$$$
