CLK035_B08
 OpenBabel03181413202D

 25 27  0  0  0  0  0  0  0  0999 V2000
   -4.6010    2.5612    0.0000 C   0  0  0  0  0  0  0  0  0  0  0  0
   -4.6886    1.7353    0.0000 N   0  0  0  0  0  0  0  0  0  0  0  0
   -3.8669    2.9867    0.0000 N   0  0  0  0  0  0  0  0  0  0  0  0
   -5.3268    2.8991    0.0000 S   0  0  0  0  0  0  0  0  0  0  0  0
   -5.4937    1.5851    0.0000 C   0  0  0  0  0  0  0  0  0  0  0  0
   -5.9025    2.3026    0.0000 C   0  0  0  0  0  0  0  0  0  0  0  0
   -3.8752    3.8043    0.0000 C   0  0  0  0  0  0  0  0  0  0  0  0
   -4.2631    0.3587    0.0000 C   0  0  0  0  0  0  0  0  0  0  0  0
   -4.4508   -0.4547    0.0000 C   0  0  0  0  0  0  0  0  0  0  0  0
   -5.9275    0.8843    0.0000 C   0  0  0  0  0  0  0  0  0  0  0  0
   -4.0754    1.1638    0.0000 C   0  0  0  0  0  0  0  0  0  0  0  0
   -4.5885    4.2215    0.0000 O   0  0  0  0  0  0  0  0  0  0  0  0
   -3.1619    5.0224    0.0000 O   0  0  0  0  0  0  0  0  0  0  0  0
   -3.1619    4.2173    0.0000 C   0  0  0  0  0  0  0  0  0  0  0  0
   -6.7118    2.3234    0.0000 C   0  0  0  0  0  0  0  0  0  0  0  0
   -2.4360    5.4478    0.0000 C   0  0  0  0  0  0  0  0  0  0  0  0
   -5.5270    0.1460    0.0000 O   0  0  0  0  0  0  0  0  0  0  0  0
   -7.1498    1.6226    0.0000 C   0  0  0  0  0  0  0  0  0  0  0  0
   -6.7368    0.8885    0.0000 C   0  0  0  0  0  0  0  0  0  0  0  0
   -1.7227    5.0349    0.0000 C   0  0  0  0  0  0  0  0  0  0  0  0
   -2.4486    6.2696    0.0000 C   0  0  0  0  0  0  0  0  0  0  0  0
   -5.9650   -0.5548    0.0000 C   0  0  0  0  0  0  0  0  0  0  0  0
   -1.0094    5.4478    0.0000 C   0  0  0  0  0  0  0  0  0  0  0  0
   -1.7269    6.6867    0.0000 C   0  0  0  0  0  0  0  0  0  0  0  0
   -1.0094    6.2696    0.0000 C   0  0  0  0  0  0  0  0  0  0  0  0
  2  1  1  0  0  0  0
  3  1  2  0  0  0  0
  4  1  1  0  0  0  0
  5  2  1  0  0  0  0
  6  4  1  0  0  0  0
  6  5  2  0  0  0  0
  7  3  1  0  0  0  0
  8 11  1  0  0  0  0
  9  8  3  0  0  0  0
 10  5  1  0  0  0  0
 11  2  1  0  0  0  0
 12  7  2  0  0  0  0
 13 14  1  0  0  0  0
 14  7  1  0  0  0  0
 15  6  1  0  0  0  0
 16 13  1  0  0  0  0
 17 10  1  0  0  0  0
 18 15  2  0  0  0  0
 19 10  2  0  0  0  0
 19 18  1  0  0  0  0
 20 16  2  0  0  0  0
 21 16  1  0  0  0  0
 22 17  1  0  0  0  0
 23 20  1  0  0  0  0
 23 25  2  0  0  0  0
 24 21  2  0  0  0  0
 25 24  1  0  0  0  0
M  END
> <CdId>
2662

> <Mol Weight>
352.407

> <Formula>
C19H16N2O3S

> <Click_ID>
CLK035_B08 __ __ 

$$$$
