CLK046A10
 OpenBabel03181413202D

 21 22  0  0  0  0  0  0  0  0999 V2000
    2.2083   -1.1958    0.0000 N   0  3  0  0  0  0  0  0  0  0  0  0
    2.2083   -0.3708    0.0000 C   0  0  0  0  0  0  0  0  0  0  0  0
    0.0667    0.0417    0.0000 C   0  0  0  0  0  0  0  0  0  0  0  0
    1.4958    0.0417    0.0000 C   0  0  0  0  0  0  0  0  0  0  0  0
   -3.5083   -0.3708    0.0000 C   0  0  0  0  0  0  0  0  0  0  0  0
   -4.2208   -0.7833    0.0000 C   0  0  0  0  0  0  0  0  0  0  0  0
    1.4958   -1.6083    0.0000 O   0  5  0  0  0  0  0  0  0  0  0  0
   -0.6500   -0.3708    0.0000 N   0  0  0  0  0  0  0  0  0  0  0  0
    0.7792   -0.3708    0.0000 C   0  0  0  0  0  0  0  0  0  0  0  0
    2.9250   -1.6083    0.0000 O   0  0  0  0  0  0  0  0  0  0  0  0
    0.0667    0.8667    0.0000 O   0  0  0  0  0  0  0  0  0  0  0  0
   -1.3625    0.0417    0.0000 C   0  0  0  0  0  0  0  0  0  0  0  0
   -2.7917    0.0417    0.0000 C   0  0  0  0  0  0  0  0  0  0  0  0
   -2.0792   -0.3708    0.0000 C   0  0  0  0  0  0  0  0  0  0  0  0
    1.4958    0.8667    0.0000 C   0  0  0  0  0  0  0  0  0  0  0  0
    2.9250    0.0417    0.0000 C   0  0  0  0  0  0  0  0  0  0  0  0
   -2.0792    1.2792    0.0000 C   0  0  0  0  0  0  0  0  0  0  0  0
   -1.3625    0.8667    0.0000 C   0  0  0  0  0  0  0  0  0  0  0  0
   -2.7917    0.8667    0.0000 C   0  0  0  0  0  0  0  0  0  0  0  0
    2.2083    1.2792    0.0000 C   0  0  0  0  0  0  0  0  0  0  0  0
    2.9250    0.8667    0.0000 C   0  0  0  0  0  0  0  0  0  0  0  0
  2  1  1  0  0  0  0
  3  9  1  0  0  0  0
  4  2  2  0  0  0  0
  5 13  1  0  0  0  0
  6  5  3  0  0  0  0
  7  1  1  0  0  0  0
  8  3  1  0  0  0  0
  9  4  1  0  0  0  0
 10  1  2  0  0  0  0
 11  3  2  0  0  0  0
 12  8  1  0  0  0  0
 13 14  1  0  0  0  0
 14 12  2  0  0  0  0
 15  4  1  0  0  0  0
 16  2  1  0  0  0  0
 17 18  2  0  0  0  0
 18 12  1  0  0  0  0
 19 13  2  0  0  0  0
 19 17  1  0  0  0  0
 20 15  2  0  0  0  0
 20 21  1  0  0  0  0
 21 16  2  0  0  0  0
M  END
> <CdId>
3553

> <Mol Weight>
280.2781

> <Formula>
C16H12N2O3

> <Click_ID>
CLK046A10 __ __ 

$$$$
