CLK042H03
 OpenBabel03181413202D

 23 24  0  0  0  0  0  0  0  0999 V2000
   -0.1250   -0.9292    0.0000 S   0  0  0  0  0  0  0  0  0  0  0  0
   -0.1250   -0.1042    0.0000 N   0  0  0  0  0  0  0  0  0  0  0  0
   -0.1250   -1.7542    0.0000 C   0  0  0  0  0  0  0  0  0  0  0  0
   -0.1250    2.3708    0.0000 C   0  0  0  0  0  0  0  0  0  0  0  0
   -0.1250    1.5458    0.0000 N   0  0  0  0  0  0  0  0  0  0  0  0
   -0.8417   -2.1667    0.0000 C   0  0  0  0  0  0  0  0  0  0  0  0
    0.7000   -0.9292    0.0000 O   0  0  0  0  0  0  0  0  0  0  0  0
   -0.9500   -0.9292    0.0000 O   0  0  0  0  0  0  0  0  0  0  0  0
   -0.8417    0.3083    0.0000 C   0  0  0  0  0  0  0  0  0  0  0  0
    0.5875    0.3083    0.0000 C   0  0  0  0  0  0  0  0  0  0  0  0
    1.3042    4.0167    0.0000 C   0  0  0  0  0  0  0  0  0  0  0  0
    2.0167    4.4292    0.0000 C   0  0  0  0  0  0  0  0  0  0  0  0
    0.5875   -2.1667    0.0000 C   0  0  0  0  0  0  0  0  0  0  0  0
    0.5875    1.1333    0.0000 C   0  0  0  0  0  0  0  0  0  0  0  0
   -0.8417    1.1333    0.0000 C   0  0  0  0  0  0  0  0  0  0  0  0
   -0.8417    2.7833    0.0000 O   0  0  0  0  0  0  0  0  0  0  0  0
   -0.8417   -2.9917    0.0000 C   0  0  0  0  0  0  0  0  0  0  0  0
    0.5875    2.7833    0.0000 N   0  0  0  0  0  0  0  0  0  0  0  0
    0.5875   -2.9917    0.0000 C   0  0  0  0  0  0  0  0  0  0  0  0
   -0.1250   -3.4042    0.0000 C   0  0  0  0  0  0  0  0  0  0  0  0
    0.5875    3.6083    0.0000 C   0  0  0  0  0  0  0  0  0  0  0  0
   -1.5542   -1.7542    0.0000 C   0  0  0  0  0  0  0  0  0  0  0  0
   -0.1250   -4.2292    0.0000 C   0  0  0  0  0  0  0  0  0  0  0  0
  2  1  1  0  0  0  0
  3  1  1  0  0  0  0
  4  5  1  0  0  0  0
  5 15  1  0  0  0  0
  5 14  1  0  0  0  0
  6  3  2  0  0  0  0
  7  1  2  0  0  0  0
  8  1  2  0  0  0  0
  9  2  1  0  0  0  0
 10  2  1  0  0  0  0
 11 21  1  0  0  0  0
 12 11  3  0  0  0  0
 13  3  1  0  0  0  0
 14 10  1  0  0  0  0
 15  9  1  0  0  0  0
 16  4  2  0  0  0  0
 17  6  1  0  0  0  0
 18  4  1  0  0  0  0
 19 13  2  0  0  0  0
 19 20  1  0  0  0  0
 20 17  2  0  0  0  0
 21 18  1  0  0  0  0
 22  6  1  0  0  0  0
 23 20  1  0  0  0  0
M  END
> <CdId>
3184

> <Mol Weight>
335.421

> <Formula>
C16H21N3O3S

> <Click_ID>
CLK042H03 __ __ 

$$$$
