CLK049G03
 OpenBabel03181413202D

 21 22  0  0  0  0  0  0  0  0999 V2000
   -2.3833    3.1042    0.0000 C   0  0  0  0  0  0  0  0  0  0  0  0
   -3.1000    3.5167    0.0000 C   0  0  0  0  0  0  0  0  0  0  0  0
   -0.2417    0.2167    0.0000 C   0  0  0  0  0  0  0  0  0  0  0  0
   -0.9542    0.6292    0.0000 N   0  0  0  0  0  0  0  0  0  0  0  0
    0.4750   -1.8458    0.0000 C   0  0  0  0  0  0  0  0  0  0  0  0
   -0.9542    1.4542    0.0000 C   0  0  0  0  0  0  0  0  0  0  0  0
    0.4750    0.6292    0.0000 O   0  0  0  0  0  0  0  0  0  0  0  0
   -0.2417   -2.2583    0.0000 O   0  0  0  0  0  0  0  0  0  0  0  0
    0.4750   -1.0208    0.0000 C   0  0  0  0  0  0  0  0  0  0  0  0
    1.1875   -2.2583    0.0000 C   0  0  0  0  0  0  0  0  0  0  0  0
   -1.6708    2.6917    0.0000 C   0  0  0  0  0  0  0  0  0  0  0  0
   -0.2417   -0.6083    0.0000 C   0  0  0  0  0  0  0  0  0  0  0  0
   -1.6708    1.8667    0.0000 C   0  0  0  0  0  0  0  0  0  0  0  0
   -0.2417    2.6917    0.0000 C   0  0  0  0  0  0  0  0  0  0  0  0
   -0.2417    1.8667    0.0000 C   0  0  0  0  0  0  0  0  0  0  0  0
   -0.9542    3.1042    0.0000 C   0  0  0  0  0  0  0  0  0  0  0  0
    1.9042   -1.8458    0.0000 C   0  0  0  0  0  0  0  0  0  0  0  0
    1.1875   -3.0833    0.0000 C   0  0  0  0  0  0  0  0  0  0  0  0
    1.9042   -3.4958    0.0000 C   0  0  0  0  0  0  0  0  0  0  0  0
    2.6167   -2.2583    0.0000 C   0  0  0  0  0  0  0  0  0  0  0  0
    2.6167   -3.0833    0.0000 C   0  0  0  0  0  0  0  0  0  0  0  0
  2  1  3  0  0  0  0
  3  4  1  0  0  0  0
  4  6  1  0  0  0  0
  5  9  1  0  0  0  0
  6 13  2  0  0  0  0
  7  3  2  0  0  0  0
  8  5  2  0  0  0  0
  9 12  1  0  0  0  0
 10  5  1  0  0  0  0
 11  1  1  0  0  0  0
 12  3  1  0  0  0  0
 13 11  1  0  0  0  0
 14 16  1  0  0  0  0
 14 15  2  0  0  0  0
 15  6  1  0  0  0  0
 16 11  2  0  0  0  0
 17 10  2  0  0  0  0
 18 10  1  0  0  0  0
 19 18  2  0  0  0  0
 20 17  1  0  0  0  0
 21 20  2  0  0  0  0
 21 19  1  0  0  0  0
M  END
> <CdId>
3743

> <Mol Weight>
277.3172

> <Formula>
C18H15NO2

> <Click_ID>
CLK049G03 __ __ 

$$$$
