CLK041B11
 OpenBabel03181413202D

 22 23  0  0  0  0  0  0  0  0999 V2000
   -0.1333    2.2875    0.0000 C   0  0  0  0  0  0  0  0  0  0  0  0
   -0.1333    1.4625    0.0000 N   0  0  0  0  0  0  0  0  0  0  0  0
   -0.1333   -0.1875    0.0000 N   0  0  0  0  0  0  0  0  0  0  0  0
   -0.1333   -1.0125    0.0000 C   0  0  0  0  0  0  0  0  0  0  0  0
   -0.8458   -1.4250    0.0000 C   0  0  0  0  0  0  0  0  0  0  0  0
   -0.1333   -2.6625    0.0000 C   0  0  0  0  0  0  0  0  0  0  0  0
   -0.8458   -2.2500    0.0000 C   0  0  0  0  0  0  0  0  0  0  0  0
    1.2958    3.9375    0.0000 C   0  0  0  0  0  0  0  0  0  0  0  0
    2.0125    4.3458    0.0000 C   0  0  0  0  0  0  0  0  0  0  0  0
    0.5833   -1.4250    0.0000 C   0  0  0  0  0  0  0  0  0  0  0  0
   -0.1333   -3.4875    0.0000 C   0  0  0  0  0  0  0  0  0  0  0  0
   -0.8458    1.0500    0.0000 C   0  0  0  0  0  0  0  0  0  0  0  0
    0.5833    1.0500    0.0000 C   0  0  0  0  0  0  0  0  0  0  0  0
   -0.8458    0.2250    0.0000 C   0  0  0  0  0  0  0  0  0  0  0  0
    0.5833    0.2250    0.0000 C   0  0  0  0  0  0  0  0  0  0  0  0
   -0.8458    2.7042    0.0000 O   0  0  0  0  0  0  0  0  0  0  0  0
    0.5833   -2.2500    0.0000 C   0  0  0  0  0  0  0  0  0  0  0  0
    0.5833    2.7042    0.0000 N   0  0  0  0  0  0  0  0  0  0  0  0
    0.5833   -3.9000    0.0000 O   0  0  0  0  0  0  0  0  0  0  0  0
   -1.5625   -1.0125    0.0000 F   0  0  0  0  0  0  0  0  0  0  0  0
    0.5833    3.5250    0.0000 C   0  0  0  0  0  0  0  0  0  0  0  0
   -0.8458   -3.9000    0.0000 C   0  0  0  0  0  0  0  0  0  0  0  0
  2  1  1  0  0  0  0
  3 14  1  0  0  0  0
  4  3  1  0  0  0  0
  5  4  2  0  0  0  0
  6  7  2  0  0  0  0
  7  5  1  0  0  0  0
  8 21  1  0  0  0  0
  9  8  3  0  0  0  0
 10  4  1  0  0  0  0
 11  6  1  0  0  0  0
 12  2  1  0  0  0  0
 13  2  1  0  0  0  0
 14 12  1  0  0  0  0
 15 13  1  0  0  0  0
 15  3  1  0  0  0  0
 16  1  2  0  0  0  0
 17 10  2  0  0  0  0
 17  6  1  0  0  0  0
 18  1  1  0  0  0  0
 19 11  2  0  0  0  0
 20  5  1  0  0  0  0
 21 18  1  0  0  0  0
 22 11  1  0  0  0  0
M  END
> <CdId>
3162

> <Mol Weight>
303.3314

> <Formula>
C16H18FN3O2

> <Click_ID>
CLK041B11 __ __ 

$$$$
