CLK025_G10
 OpenBabel03181413202D

 22 24  0  0  0  0  0  0  0  0999 V2000
    1.1309    0.4263    0.0000 C    0  0  0  0  0  0  0  0  0  0  0  0
    1.6052   -0.2475    0.0000 C    0  0  0  0  0  0  0  0  0  0  0  0
    2.3924    0.0138    0.0000 N    0  0  0  0  0  0  0  0  0  0  0  0
    0.3059    0.4263    0.0000 C    0  0  0  0  0  0  0  0  0  0  0  0
    1.6052    1.0862    0.0000 C    0  0  0  0  0  0  0  0  0  0  0  0
    2.3924    0.8353    0.0000 C    0  0  0  0  0  0  0  0  0  0  0  0
   -0.1134   -0.2956    0.0000 C    0  0  0  0  0  0  0  0  0  0  0  0
   -2.5883    1.1275    0.0000 C    0  0  0  0  0  0  0  0  0  0  0  0
   -3.0076    1.8355    0.0000 C    0  0  0  0  0  0  0  0  0  0  0  0
    1.3543   -1.0244    0.0000 O    0  0  0  0  0  0  0  0  0  0  0  0
   -0.9452   -0.2956    0.0000 C    0  0  0  0  0  0  0  0  0  0  0  0
    0.3059   -1.0071    0.0000 C    0  0  0  0  0  0  0  0  0  0  0  0
   -1.3577   -1.0140    0.0000 C    0  0  0  0  0  0  0  0  0  0  0  0
   -0.1066   -1.7324    0.0000 C    0  0  0  0  0  0  0  0  0  0  0  0
   -0.9384   -1.7324    0.0000 C    0  0  0  0  0  0  0  0  0  0  0  0
    0.3059   -2.4474    0.0000 Br   0  0  0  0  0  0  0  0  0  0  0  0
   -1.3577    0.4125    0.0000 O    0  0  0  0  0  0  0  0  0  0  0  0
   -2.1758    0.4159    0.0000 C    0  0  0  0  0  0  0  0  0  0  0  0
    1.4368    1.8906    0.0000 C    0  0  0  0  0  0  0  0  0  0  0  0
    3.0043    1.3887    0.0000 C    0  0  0  0  0  0  0  0  0  0  0  0
    2.0418    2.4508    0.0000 C    0  0  0  0  0  0  0  0  0  0  0  0
    2.8290    2.1896    0.0000 C    0  0  0  0  0  0  0  0  0  0  0  0
  2  1  1  0  0  0  0
  3  2  1  0  0  0  0
  3  6  1  0  0  0  0
  4  1  2  0  0  0  0
  5  1  1  0  0  0  0
  6  5  2  0  0  0  0
  7  4  1  0  0  0  0
  8 18  1  0  0  0  0
  9  8  3  0  0  0  0
 10  2  2  0  0  0  0
 11  7  2  0  0  0  0
 12  7  1  0  0  0  0
 13 11  1  0  0  0  0
 13 15  2  0  0  0  0
 14 12  2  0  0  0  0
 15 14  1  0  0  0  0
 16 14  1  0  0  0  0
 17 11  1  0  0  0  0
 18 17  1  0  0  0  0
 19  5  1  0  0  0  0
 20  6  1  0  0  0  0
 20 22  2  0  0  0  0
 21 19  2  0  0  0  0
 22 21  1  0  0  0  0
M  END
> <CdId>
1925

> <Mol Weight>
354.197

> <Formula>
C18H12BrNO2

> <Click_ID>
CLK025_G10 __ __ 

$$$$
