CLK013_F03
 OpenBabel03181413202D

 27 29  0  0  0  0  0  0  0  0999 V2000
    5.7718   -2.0516    0.0000 N   0  0  0  0  0  0  0  0  0  0  0  0
    5.6470   -2.8630    0.0000 C   0  0  0  0  0  0  0  0  0  0  0  0
    5.0353   -1.6729    0.0000 C   0  0  0  0  0  0  0  0  0  0  0  0
    4.4485   -2.2513    0.0000 C   0  0  0  0  0  0  0  0  0  0  0  0
    4.8230   -2.9962    0.0000 S   0  0  0  0  0  0  0  0  0  0  0  0
    3.6371   -2.1265    0.0000 C   0  0  0  0  0  0  0  0  0  0  0  0
    6.5084   -1.6771    0.0000 C   0  0  0  0  0  0  0  0  0  0  0  0
    1.3358   -6.1089    0.0000 C   0  0  0  0  0  0  0  0  0  0  0  0
    0.8157   -6.7456    0.0000 C   0  0  0  0  0  0  0  0  0  0  0  0
    6.2213   -3.4498    0.0000 O   0  0  0  0  0  0  0  0  0  0  0  0
    1.7769   -3.2750    0.0000 C   0  0  0  0  0  0  0  0  0  0  0  0
    4.9104   -0.8614    0.0000 O   0  0  0  0  0  0  0  0  0  0  0  0
    3.1210   -2.7632    0.0000 C   0  0  0  0  0  0  0  0  0  0  0  0
    2.3013   -2.6383    0.0000 C   0  0  0  0  0  0  0  0  0  0  0  0
    2.0765   -4.0490    0.0000 C   0  0  0  0  0  0  0  0  0  0  0  0
    2.8880   -4.1822    0.0000 C   0  0  0  0  0  0  0  0  0  0  0  0
    3.4123   -3.5372    0.0000 C   0  0  0  0  0  0  0  0  0  0  0  0
    7.2033   -2.1265    0.0000 C   0  0  0  0  0  0  0  0  0  0  0  0
    0.9655   -3.1502    0.0000 O   0  0  0  0  0  0  0  0  0  0  0  0
    1.5522   -4.6940    0.0000 O   0  0  0  0  0  0  0  0  0  0  0  0
    1.8518   -5.4597    0.0000 C   0  0  0  0  0  0  0  0  0  0  0  0
    7.1534   -2.9504    0.0000 C   0  0  0  0  0  0  0  0  0  0  0  0
    7.9316   -1.7520    0.0000 C   0  0  0  0  0  0  0  0  0  0  0  0
    0.4411   -3.7869    0.0000 C   0  0  0  0  0  0  0  0  0  0  0  0
    8.6182   -2.2097    0.0000 C   0  0  0  0  0  0  0  0  0  0  0  0
    7.8317   -3.3999    0.0000 C   0  0  0  0  0  0  0  0  0  0  0  0
    8.5766   -3.0336    0.0000 C   0  0  0  0  0  0  0  0  0  0  0  0
  2  1  1  0  0  0  0
  3  1  1  0  0  0  0
  4  3  1  0  0  0  0
  5  2  1  0  0  0  0
  5  4  1  0  0  0  0
  6  4  2  0  0  0  0
  7  1  1  0  0  0  0
  8 21  1  0  0  0  0
  9  8  3  0  0  0  0
 10  2  2  0  0  0  0
 11 14  1  0  0  0  0
 11 15  2  0  0  0  0
 12  3  2  0  0  0  0
 13  6  1  0  0  0  0
 14 13  2  0  0  0  0
 15 16  1  0  0  0  0
 16 17  2  0  0  0  0
 17 13  1  0  0  0  0
 18  7  1  0  0  0  0
 19 11  1  0  0  0  0
 20 15  1  0  0  0  0
 21 20  1  0  0  0  0
 22 18  2  0  0  0  0
 23 18  1  0  0  0  0
 24 19  1  0  0  0  0
 25 23  2  0  0  0  0
 26 22  1  0  0  0  0
 27 25  1  0  0  0  0
 27 26  2  0  0  0  0
M  END
> <CdId>
968

> <Mol Weight>
379.429

> <Formula>
C21H17NO4S

> <Click_ID>
CLK013_F03 __ __ 

$$$$
