CLK020_G04
 OpenBabel03181413202D

 26 28  0  0  0  0  0  0  0  0999 V2000
    4.4825    1.8425    0.0000 C   0  0  0  0  0  0  0  0  0  0  0  0
    3.6575    1.8425    0.0000 C   0  0  0  0  0  0  0  0  0  0  0  0
    4.9637    1.1779    0.0000 N   0  0  0  0  0  0  0  0  0  0  0  0
    5.7200    3.9875    0.0000 N   0  3  0  0  0  0  0  0  0  0  0  0
    4.9637    2.5116    0.0000 N   0  0  0  0  0  0  0  0  0  0  0  0
    3.2450    2.5621    0.0000 C   0  0  0  0  0  0  0  0  0  0  0  0
    3.6575    3.2771    0.0000 C   0  0  0  0  0  0  0  0  0  0  0  0
    4.8950    3.9875    0.0000 C   0  0  0  0  0  0  0  0  0  0  0  0
    3.2450    1.1275    0.0000 C   0  0  0  0  0  0  0  0  0  0  0  0
    5.7521    1.4300    0.0000 C   0  0  0  0  0  0  0  0  0  0  0  0
    5.7521    2.2550    0.0000 C   0  0  0  0  0  0  0  0  0  0  0  0
    2.8325    0.4125    0.0000 N   0  0  0  0  0  0  0  0  0  0  0  0
    4.4825    3.2771    0.0000 C   0  0  0  0  0  0  0  0  0  0  0  0
    1.1825    4.6934    0.0000 C   0  0  0  0  0  0  0  0  0  0  0  0
    0.3575    4.6934    0.0000 C   0  0  0  0  0  0  0  0  0  0  0  0
    6.1325    4.6934    0.0000 O   0  5  0  0  0  0  0  0  0  0  0  0
    6.1325    3.2771    0.0000 O   0  0  0  0  0  0  0  0  0  0  0  0
    3.2450    3.9875    0.0000 C   0  0  0  0  0  0  0  0  0  0  0  0
    4.4825    4.6934    0.0000 C   0  0  0  0  0  0  0  0  0  0  0  0
    3.6575    4.6934    0.0000 C   0  0  0  0  0  0  0  0  0  0  0  0
    2.4154    3.9875    0.0000 O   0  0  0  0  0  0  0  0  0  0  0  0
    2.0075    4.6934    0.0000 C   0  0  0  0  0  0  0  0  0  0  0  0
    6.4625    1.0175    0.0000 C   0  0  0  0  0  0  0  0  0  0  0  0
    6.4625    2.6675    0.0000 C   0  0  0  0  0  0  0  0  0  0  0  0
    7.1775    1.4300    0.0000 C   0  0  0  0  0  0  0  0  0  0  0  0
    7.1775    2.2550    0.0000 C   0  0  0  0  0  0  0  0  0  0  0  0
  2  1  1  0  0  0  0
  3  1  2  0  0  0  0
  4  8  1  0  0  0  0
  5  1  1  0  0  0  0
  6  2  2  0  0  0  0
  7  6  1  0  0  0  0
  8 13  2  0  0  0  0
  9  2  1  0  0  0  0
 10  3  1  0  0  0  0
 10 11  2  0  0  0  0
 11  5  1  0  0  0  0
 12  9  3  0  0  0  0
 13  7  1  0  0  0  0
 14 22  1  0  0  0  0
 15 14  3  0  0  0  0
 16  4  1  0  0  0  0
 17  4  2  0  0  0  0
 18  7  2  0  0  0  0
 19 20  2  0  0  0  0
 19  8  1  0  0  0  0
 20 18  1  0  0  0  0
 21 18  1  0  0  0  0
 22 21  1  0  0  0  0
 23 10  1  0  0  0  0
 24 11  1  0  0  0  0
 25 23  2  0  0  0  0
 26 24  2  0  0  0  0
 26 25  1  0  0  0  0
M  END
> <CdId>
1539

> <Mol Weight>
344.3236

> <Formula>
C19H12N4O3

> <Click_ID>
CLK020_G04 __ __ 

$$$$
