CLK022_E05
 OpenBabel03181413202D

 23 24  0  0  0  0  0  0  0  0999 V2000
    4.1960    1.2734    0.0000 C   0  0  0  0  0  0  0  0  0  0  0  0
    3.7838    1.9880    0.0000 N   0  0  0  0  0  0  0  0  0  0  0  0
    2.9592    1.9880    0.0000 C   0  0  0  0  0  0  0  0  0  0  0  0
    8.7310    1.9880    0.0000 C   0  0  0  0  0  0  0  0  0  0  0  0
    9.5556    1.9880    0.0000 C   0  0  0  0  0  0  0  0  0  0  0  0
    5.0206    1.2734    0.0000 C   0  0  0  0  0  0  0  0  0  0  0  0
    2.5470    2.7026    0.0000 C   0  0  0  0  0  0  0  0  0  0  0  0
    2.5470    1.2734    0.0000 C   0  0  0  0  0  0  0  0  0  0  0  0
    3.7838    0.5588    0.0000 O   0  0  0  0  0  0  0  0  0  0  0  0
    1.7224    1.2734    0.0000 C   0  0  0  0  0  0  0  0  0  0  0  0
    1.7224    2.7026    0.0000 C   0  0  0  0  0  0  0  0  0  0  0  0
    1.3101    1.9880    0.0000 C   0  0  0  0  0  0  0  0  0  0  0  0
    5.4329    0.5588    0.0000 C   0  0  0  0  0  0  0  0  0  0  0  0
    5.4329    1.9880    0.0000 C   0  0  0  0  0  0  0  0  0  0  0  0
    6.6697    1.2734    0.0000 C   0  0  0  0  0  0  0  0  0  0  0  0
    6.2574    0.5588    0.0000 C   0  0  0  0  0  0  0  0  0  0  0  0
    6.2574    1.9880    0.0000 C   0  0  0  0  0  0  0  0  0  0  0  0
    1.3101    0.5588    0.0000 O   0  0  0  0  0  0  0  0  0  0  0  0
    1.3101    3.4172    0.0000 O   0  0  0  0  0  0  0  0  0  0  0  0
    7.9065    1.9880    0.0000 C   0  0  0  0  0  0  0  0  0  0  0  0
    7.4942    1.2734    0.0000 O   0  0  0  0  0  0  0  0  0  0  0  0
    0.4856    0.5588    0.0000 C   0  0  0  0  0  0  0  0  0  0  0  0
    0.4856    3.4172    0.0000 C   0  0  0  0  0  0  0  0  0  0  0  0
  2  1  1  0  0  0  0
  3  2  1  0  0  0  0
  4 20  1  0  0  0  0
  5  4  3  0  0  0  0
  6  1  1  0  0  0  0
  7  3  2  0  0  0  0
  8  3  1  0  0  0  0
  9  1  2  0  0  0  0
 10  8  2  0  0  0  0
 11  7  1  0  0  0  0
 12 10  1  0  0  0  0
 12 11  2  0  0  0  0
 13  6  2  0  0  0  0
 14  6  1  0  0  0  0
 15 17  1  0  0  0  0
 15 16  2  0  0  0  0
 16 13  1  0  0  0  0
 17 14  2  0  0  0  0
 18 10  1  0  0  0  0
 19 11  1  0  0  0  0
 20 21  1  0  0  0  0
 21 15  1  0  0  0  0
 22 18  1  0  0  0  0
 23 19  1  0  0  0  0
M  END
> <CdId>
1672

> <Mol Weight>
311.3319

> <Formula>
C18H17NO4

> <Click_ID>
CLK022_E05 __ __ 

$$$$
