CLK037G07
 OpenBabel03181413202D

 32 33  0  0  0  0  0  0  0  0999 V2000
    6.9667   -1.8542    0.0000 C    0  0  0  0  0  0  0  0  0  0  0  0
   -0.2083   -0.3542    0.0000 C    0  0  0  0  0  0  0  0  0  0  0  0
    0.2042    0.3583    0.0000 C    0  0  0  0  0  0  0  0  0  0  0  0
    4.1083    0.6208    0.0000 N    0  0  0  0  0  0  0  0  0  0  0  0
    8.3958    0.6208    0.0000 C    0  0  0  0  0  0  0  0  0  0  0  0
    8.3958    1.4458    0.0000 C    0  0  0  0  0  0  0  0  0  0  0  0
    7.6792   -1.4417    0.0000 C    0  0  0  0  0  0  0  0  0  0  0  0
    6.9667   -2.6792    0.0000 C    0  0  0  0  0  0  0  0  0  0  0  0
    6.2500   -1.4417    0.0000 C    0  0  0  0  0  0  0  0  0  0  0  0
    6.2500   -0.6167    0.0000 N    0  0  0  0  0  0  0  0  0  0  0  0
    1.0292    0.3583    0.0000 O    0  0  0  0  0  0  0  0  0  0  0  0
    0.2042   -1.0708    0.0000 O    0  0  0  0  0  0  0  0  0  0  0  0
    3.3917    1.0333    0.0000 C    0  0  0  0  0  0  0  0  0  0  0  0
    8.3958   -1.8542    0.0000 C    0  0  0  0  0  0  0  0  0  0  0  0
    4.8208   -0.6167    0.0000 C    0  0  0  0  0  0  0  0  0  0  0  0
    5.5375    0.6208    0.0000 C    0  0  0  0  0  0  0  0  0  0  0  0
    4.8208    1.0333    0.0000 C    0  0  0  0  0  0  0  0  0  0  0  0
    4.1083   -0.2042    0.0000 C    0  0  0  0  0  0  0  0  0  0  0  0
    5.5375   -0.2042    0.0000 C    0  0  0  0  0  0  0  0  0  0  0  0
    7.6792   -3.0917    0.0000 C    0  0  0  0  0  0  0  0  0  0  0  0
   -0.2083    1.0750    0.0000 O    0  0  0  0  0  0  0  0  0  0  0  0
   -1.0333   -0.3542    0.0000 O    0  0  0  0  0  0  0  0  0  0  0  0
    8.3958   -2.6792    0.0000 C    0  0  0  0  0  0  0  0  0  0  0  0
    7.6792   -3.9167    0.0000 Br   0  0  0  0  0  0  0  0  0  0  0  0
    7.6792   -0.6167    0.0000 O    0  0  0  0  0  0  0  0  0  0  0  0
    3.3917    1.8583    0.0000 C    0  0  0  0  0  0  0  0  0  0  0  0
    8.3958   -0.2042    0.0000 C    0  0  0  0  0  0  0  0  0  0  0  0
    2.6792    2.2708    0.0000 C    0  0  0  0  0  0  0  0  0  0  0  0
    4.1083    2.2708    0.0000 C    0  0  0  0  0  0  0  0  0  0  0  0
    4.1083    3.0958    0.0000 C    0  0  0  0  0  0  0  0  0  0  0  0
    2.6792    3.0958    0.0000 C    0  0  0  0  0  0  0  0  0  0  0  0
    3.3917    3.5083    0.0000 C    0  0  0  0  0  0  0  0  0  0  0  0
  3  2  1  0  0  0  0
  4 18  1  0  0  0  0
  4 17  1  0  0  0  0
  5 27  1  0  0  0  0
  6  5  3  0  0  0  0
  7  1  2  0  0  0  0
  8  1  1  0  0  0  0
  9  1  1  0  0  0  0
 10  9  1  0  0  0  0
 11  3  2  0  0  0  0
 12  2  2  0  0  0  0
 13  4  1  0  0  0  0
 14  7  1  0  0  0  0
 14 23  2  0  0  0  0
 15 19  1  0  0  0  0
 16 19  1  0  0  0  0
 17 16  1  0  0  0  0
 18 15  1  0  0  0  0
 19 10  1  0  0  0  0
 20  8  2  0  0  0  0
 21  3  1  0  0  0  0
 22  2  1  0  0  0  0
 23 20  1  0  0  0  0
 24 20  1  0  0  0  0
 25  7  1  0  0  0  0
 26 13  1  0  0  0  0
 27 25  1  0  0  0  0
 28 26  2  0  0  0  0
 29 26  1  0  0  0  0
 30 29  2  0  0  0  0
 31 28  1  0  0  0  0
 32 31  2  0  0  0  0
 32 30  1  0  0  0  0
M  END
> <CdId>
2815

> <Mol Weight>
503.386

> <Formula>
C24H27BrN2O5

> <Click_ID>
CLK037G07 __ __ 

$$$$
