CLK003_B03
 OpenBabel03181413202D

 26 28  0  0  0  0  0  0  0  0999 V2000
   -1.0705    0.0456    0.0000 C   0  0  3  0  0  0  0  0  0  0  0  0
   -1.8828   -0.0912    0.0000 C   0  0  0  0  0  0  0  0  0  0  0  0
   -0.6757   -0.6833    0.0000 C   0  0  0  0  0  0  0  0  0  0  0  0
   -0.1366    0.6795    0.0000 C   0  0  0  0  0  0  0  0  0  0  0  0
   -1.3324    0.9870    0.0000 O   0  0  0  0  0  0  0  0  0  0  0  0
   -1.9929   -0.9148    0.0000 C   0  0  0  0  0  0  0  0  0  0  0  0
   -2.5283    0.4176    0.0000 C   0  0  0  0  0  0  0  0  0  0  0  0
   -1.2565   -1.2755    0.0000 N   0  0  0  0  0  0  0  0  0  0  0  0
    0.1405   -0.7934    0.0000 O   0  0  0  0  0  0  0  0  0  0  0  0
    0.6568    0.2658    0.0000 C   0  0  0  0  0  0  0  0  0  0  0  0
   -2.7635   -1.2223    0.0000 C   0  0  0  0  0  0  0  0  0  0  0  0
   -3.2913    0.1138    0.0000 C   0  0  0  0  0  0  0  0  0  0  0  0
   -1.1122   -2.0879    0.0000 C   0  0  0  0  0  0  0  0  0  0  0  0
    1.3514    0.7061    0.0000 C   0  0  0  0  0  0  0  0  0  0  0  0
    0.6909   -0.4214    0.0000 O   0  0  0  0  0  0  0  0  0  0  0  0
   -3.4090   -0.7098    0.0000 C   0  0  0  0  0  0  0  0  0  0  0  0
   -1.7462   -2.6193    0.0000 C   0  0  0  0  0  0  0  0  0  0  0  0
    1.3173    1.5299    0.0000 C   0  0  0  0  0  0  0  0  0  0  0  0
    2.0803    0.3265    0.0000 C   0  0  0  0  0  0  0  0  0  0  0  0
   -2.3802   -3.1469    0.0000 C   0  0  0  0  0  0  0  0  0  0  0  0
    2.0120    1.9778    0.0000 C   0  0  0  0  0  0  0  0  0  0  0  0
    2.7826    0.7744    0.0000 C   0  0  0  0  0  0  0  0  0  0  0  0
    2.7408    1.6020    0.0000 C   0  0  0  0  0  0  0  0  0  0  0  0
    3.4431    2.0423    0.0000 O   0  0  0  0  0  0  0  0  0  0  0  0
    4.1720    1.6589    0.0000 C   0  0  0  0  0  0  0  0  0  0  0  0
    4.1985    0.8427    0.0000 C   0  0  0  0  0  0  0  0  0  0  0  0
  1  2  1  0  0  0  0
  1  3  1  0  0  0  0
  1  4  1  0  0  0  0
  1  5  1  0  0  0  0
  2  6  2  0  0  0  0
  2  7  1  0  0  0  0
  3  8  1  0  0  0  0
  3  9  2  0  0  0  0
  4 10  1  0  0  0  0
  6 11  1  0  0  0  0
  6  8  1  0  0  0  0
  7 12  2  0  0  0  0
  8 13  1  0  0  0  0
 10 14  1  0  0  0  0
 10 15  2  0  0  0  0
 11 16  2  0  0  0  0
 12 16  1  0  0  0  0
 13 17  1  0  0  0  0
 14 18  2  0  0  0  0
 14 19  1  0  0  0  0
 17 20  3  0  0  0  0
 18 21  1  0  0  0  0
 19 22  2  0  0  0  0
 21 23  2  0  0  0  0
 22 23  1  0  0  0  0
 23 24  1  0  0  0  0
 24 25  1  0  0  0  0
 25 26  1  0  0  0  0
M  END
> <CdId>
172

> <Mol Weight>
349.3799

> <Formula>
C21H19NO4

> <Click_ID>
CLK003_B03 __ __ 

$$$$
