CLK033_D07
 OpenBabel03181413202D

 29 31  0  0  0  0  0  0  0  0999 V2000
   -4.6285    2.5765    0.0000 C    0  0  0  0  0  0  0  0  0  0  0  0
   -3.8900    3.0045    0.0000 N    0  0  0  0  0  0  0  0  0  0  0  0
   -4.7167    1.7456    0.0000 N    0  0  0  0  0  0  0  0  0  0  0  0
   -5.5266    1.5946    0.0000 C    0  0  0  0  0  0  0  0  0  0  0  0
   -5.3587    2.9164    0.0000 S    0  0  0  0  0  0  0  0  0  0  0  0
   -5.9378    2.3164    0.0000 C    0  0  0  0  0  0  0  0  0  0  0  0
   -3.8984    3.8271    0.0000 C    0  0  0  0  0  0  0  0  0  0  0  0
   -5.9630    0.8896    0.0000 C    0  0  0  0  0  0  0  0  0  0  0  0
   -3.1808    4.2425    0.0000 C    0  0  0  0  0  0  0  0  0  0  0  0
   -1.7582    5.0524    0.0000 C    0  0  0  0  0  0  0  0  0  0  0  0
   -1.7582    4.2425    0.0000 C    0  0  0  0  0  0  0  0  0  0  0  0
   -2.4632    5.4679    0.0000 C    0  0  0  0  0  0  0  0  0  0  0  0
   -3.1808    5.0608    0.0000 C    0  0  0  0  0  0  0  0  0  0  0  0
   -2.4758    3.8354    0.0000 C    0  0  0  0  0  0  0  0  0  0  0  0
   -4.2886    0.3609    0.0000 C    0  0  0  0  0  0  0  0  0  0  0  0
   -4.4775   -0.4574    0.0000 C    0  0  0  0  0  0  0  0  0  0  0  0
   -6.7771    0.8938    0.0000 C    0  0  0  0  0  0  0  0  0  0  0  0
   -6.7519    2.3373    0.0000 C    0  0  0  0  0  0  0  0  0  0  0  0
   -4.6159    4.2467    0.0000 O    0  0  0  0  0  0  0  0  0  0  0  0
   -4.0998    1.1708    0.0000 C    0  0  0  0  0  0  0  0  0  0  0  0
   -7.1926    1.6323    0.0000 C    0  0  0  0  0  0  0  0  0  0  0  0
   -5.5601    0.1468    0.0000 Cl   0  0  0  0  0  0  0  0  0  0  0  0
   -1.0407    5.4553    0.0000 O    0  0  0  0  0  0  0  0  0  0  0  0
   -2.4674    6.2945    0.0000 O    0  0  0  0  0  0  0  0  0  0  0  0
   -1.0532    3.8354    0.0000 O    0  0  0  0  0  0  0  0  0  0  0  0
   -7.1883    0.1720    0.0000 Cl   0  0  0  0  0  0  0  0  0  0  0  0
   -0.1342    5.1405    0.0000 C    0  0  0  0  0  0  0  0  0  0  0  0
   -1.0532    3.0171    0.0000 C    0  0  0  0  0  0  0  0  0  0  0  0
   -1.7582    6.7016    0.0000 C    0  0  0  0  0  0  0  0  0  0  0  0
  2  1  2  0  0  0  0
  3  1  1  0  0  0  0
  4  3  1  0  0  0  0
  5  1  1  0  0  0  0
  6  5  1  0  0  0  0
  6  4  2  0  0  0  0
  7  2  1  0  0  0  0
  8  4  1  0  0  0  0
  9  7  1  0  0  0  0
 10 11  2  0  0  0  0
 10 12  1  0  0  0  0
 11 14  1  0  0  0  0
 12 13  2  0  0  0  0
 13  9  1  0  0  0  0
 14  9  2  0  0  0  0
 15 20  1  0  0  0  0
 16 15  3  0  0  0  0
 17  8  2  0  0  0  0
 17 21  1  0  0  0  0
 18  6  1  0  0  0  0
 19  7  2  0  0  0  0
 20  3  1  0  0  0  0
 21 18  2  0  0  0  0
 22  8  1  0  0  0  0
 23 10  1  0  0  0  0
 24 12  1  0  0  0  0
 25 11  1  0  0  0  0
 26 17  1  0  0  0  0
 27 23  1  0  0  0  0
 28 25  1  0  0  0  0
 29 24  1  0  0  0  0
M  END
> <CdId>
2521

> <Mol Weight>
451.323

> <Formula>
C20H16Cl2N2O4S

> <Click_ID>
CLK033_D07 __ __ 

$$$$
