CLK036_D05
 OpenBabel03181413202D

 27 29  0  0  0  0  0  0  0  0999 V2000
    4.1644   -0.8662    0.0000 C   0  0  0  0  0  0  0  0  0  0  0  0
    4.5017   -1.6283    0.0000 N   0  0  0  0  0  0  0  0  0  0  0  0
    3.3649   -0.7038    0.0000 N   0  0  0  0  0  0  0  0  0  0  0  0
    4.5767   -0.1541    0.0000 S   0  0  0  0  0  0  0  0  0  0  0  0
    7.6458   -3.3898    0.0000 S   0  0  0  0  0  0  0  0  0  0  0  0
    4.0270    0.4580    0.0000 C   0  0  0  0  0  0  0  0  0  0  0  0
    3.2774    0.1207    0.0000 C   0  0  0  0  0  0  0  0  0  0  0  0
    5.3263   -1.7158    0.0000 C   0  0  0  0  0  0  0  0  0  0  0  0
    6.8213   -3.3107    0.0000 C   0  0  0  0  0  0  0  0  0  0  0  0
    5.6636   -2.4654    0.0000 C   0  0  0  0  0  0  0  0  0  0  0  0
    2.9401   -2.0531    0.0000 C   0  0  0  0  0  0  0  0  0  0  0  0
    6.4840   -2.5528    0.0000 C   0  0  0  0  0  0  0  0  0  0  0  0
    3.1150   -2.8526    0.0000 C   0  0  0  0  0  0  0  0  0  0  0  0
    2.6028    0.6080    0.0000 C   0  0  0  0  0  0  0  0  0  0  0  0
    7.7250   -2.5653    0.0000 O   0  0  0  0  0  0  0  0  0  0  0  0
    7.5626   -4.2144    0.0000 O   0  0  0  0  0  0  0  0  0  0  0  0
    4.1145    1.2743    0.0000 C   0  0  0  0  0  0  0  0  0  0  0  0
    5.8135   -1.0411    0.0000 O   0  0  0  0  0  0  0  0  0  0  0  0
    2.7610   -1.2535    0.0000 C   0  0  0  0  0  0  0  0  0  0  0  0
    2.6902    1.4325    0.0000 C   0  0  0  0  0  0  0  0  0  0  0  0
    8.4704   -3.4773    0.0000 C   0  0  0  0  0  0  0  0  0  0  0  0
    3.4398    1.7615    0.0000 C   0  0  0  0  0  0  0  0  0  0  0  0
    6.3340   -3.9770    0.0000 C   0  0  0  0  0  0  0  0  0  0  0  0
    5.1764   -3.1400    0.0000 C   0  0  0  0  0  0  0  0  0  0  0  0
    5.5137   -3.8896    0.0000 C   0  0  0  0  0  0  0  0  0  0  0  0
    3.5148    2.5861    0.0000 C   0  0  0  0  0  0  0  0  0  0  0  0
    2.8401    3.0608    0.0000 C   0  0  0  0  0  0  0  0  0  0  0  0
  2  1  2  0  0  0  0
  3  1  1  0  0  0  0
  4  1  1  0  0  0  0
  5  9  1  0  0  0  0
  6  4  1  0  0  0  0
  6  7  2  0  0  0  0
  7  3  1  0  0  0  0
  8  2  1  0  0  0  0
  9 12  2  0  0  0  0
  9 23  1  0  0  0  0
 10  8  1  0  0  0  0
 11 19  1  0  0  0  0
 12 10  1  0  0  0  0
 13 11  3  0  0  0  0
 14  7  1  0  0  0  0
 15  5  2  0  0  0  0
 16  5  2  0  0  0  0
 17  6  1  0  0  0  0
 18  8  2  0  0  0  0
 19  3  1  0  0  0  0
 20 14  2  0  0  0  0
 20 22  1  0  0  0  0
 21  5  1  0  0  0  0
 22 17  2  0  0  0  0
 23 25  2  0  0  0  0
 24 10  2  0  0  0  0
 25 24  1  0  0  0  0
 26 22  1  0  0  0  0
 27 26  1  0  0  0  0
M  END
> <CdId>
2747

> <Mol Weight>
398.499

> <Formula>
C20H18N2O3S2

> <Click_ID>
CLK036_D05 __ __ 

$$$$
