CLK044D09
 OpenBabel03181413202D

 21 21  0  0  0  0  0  0  0  0999 V2000
   -1.7042   -0.2750    0.0000 C   0  0  0  0  0  0  0  0  0  0  0  0
    4.0125    0.5500    0.0000 C   0  0  0  0  0  0  0  0  0  0  0  0
    4.7250    0.1375    0.0000 C   0  0  0  0  0  0  0  0  0  0  0  0
   -2.4167   -0.6875    0.0000 O   0  0  0  0  0  0  0  0  0  0  0  0
    1.8708    0.9625    0.0000 C   0  0  0  0  0  0  0  0  0  0  0  0
   -0.9875   -0.6875    0.0000 C   0  0  0  0  0  0  0  0  0  0  0  0
   -3.1333   -0.2750    0.0000 C   0  0  0  0  0  0  0  0  0  0  0  0
    1.1542    0.5500    0.0000 C   0  0  0  0  0  0  0  0  0  0  0  0
    0.4417    0.9625    0.0000 C   0  0  0  0  0  0  0  0  0  0  0  0
   -0.2750   -0.2750    0.0000 C   0  0  0  0  0  0  0  0  0  0  0  0
    1.8708    1.7875    0.0000 O   0  0  0  0  0  0  0  0  0  0  0  0
   -1.7042    0.5500    0.0000 C   0  0  0  0  0  0  0  0  0  0  0  0
   -0.2750    0.5500    0.0000 C   0  0  0  0  0  0  0  0  0  0  0  0
    2.5833    0.5500    0.0000 N   0  0  0  0  0  0  0  0  0  0  0  0
   -3.1333    0.5500    0.0000 F   0  0  0  0  0  0  0  0  0  0  0  0
   -3.8458   -0.6875    0.0000 F   0  0  0  0  0  0  0  0  0  0  0  0
   -0.9875    0.9625    0.0000 C   0  0  0  0  0  0  0  0  0  0  0  0
   -0.9875   -1.5125    0.0000 O   0  0  0  0  0  0  0  0  0  0  0  0
    3.3000    0.9625    0.0000 C   0  0  0  0  0  0  0  0  0  0  0  0
   -0.2750   -1.9250    0.0000 C   0  0  0  0  0  0  0  0  0  0  0  0
   -0.2750   -2.7500    0.0000 C   0  0  0  0  0  0  0  0  0  0  0  0
  2 19  1  0  0  0  0
  3  2  3  0  0  0  0
  4  1  1  0  0  0  0
  5  8  1  0  0  0  0
  6  1  2  0  0  0  0
  7  4  1  0  0  0  0
  8  9  2  0  0  0  0
  9 13  1  0  0  0  0
 10  6  1  0  0  0  0
 11  5  2  0  0  0  0
 12  1  1  0  0  0  0
 13 10  2  0  0  0  0
 14  5  1  0  0  0  0
 15  7  1  0  0  0  0
 16  7  1  0  0  0  0
 17 12  2  0  0  0  0
 17 13  1  0  0  0  0
 18  6  1  0  0  0  0
 19 14  1  0  0  0  0
 20 18  1  0  0  0  0
 21 20  1  0  0  0  0
M  END
> <CdId>
3388

> <Mol Weight>
295.2813

> <Formula>
C15H15F2NO3

> <Click_ID>
CLK044D09 __ __ 

$$$$
