CLK013_G02
 OpenBabel03181413202D

 23 24  0  0  0  0  0  0  0  0999 V2000
    2.9011    1.4801    0.0000 C   0  0  0  0  0  0  0  0  0  0  0  0
    2.9011    2.3090    0.0000 C   0  0  0  0  0  0  0  0  0  0  0  0
    1.6578    0.7105    0.0000 N   0  3  0  0  0  0  0  0  0  0  0  0
    2.4866    0.7105    0.0000 C   0  0  0  0  0  0  0  0  0  0  0  0
    2.9011    3.1330    0.0000 N   0  0  0  0  0  0  0  0  0  0  0  0
    5.0917    3.5523    0.0000 C   0  0  0  0  0  0  0  0  0  0  0  0
    5.8022    3.1330    0.0000 C   0  0  0  0  0  0  0  0  0  0  0  0
    1.2433    1.4801    0.0000 O   0  5  0  0  0  0  0  0  0  0  0  0
    1.2433    0.0000    0.0000 O   0  0  0  0  0  0  0  0  0  0  0  0
    3.7300    2.3090    0.0000 O   0  0  0  0  0  0  0  0  0  0  0  0
    2.1906    3.5523    0.0000 C   0  0  0  0  0  0  0  0  0  0  0  0
    3.7300    1.4801    0.0000 C   0  0  0  0  0  0  0  0  0  0  0  0
    1.4209    3.1330    0.0000 C   0  0  0  0  0  0  0  0  0  0  0  0
    3.6116    3.5523    0.0000 C   0  0  0  0  0  0  0  0  0  0  0  0
    2.9011    0.0000    0.0000 C   0  0  0  0  0  0  0  0  0  0  0  0
    4.3812    3.1330    0.0000 C   0  0  0  0  0  0  0  0  0  0  0  0
    0.7105    3.5523    0.0000 C   0  0  0  0  0  0  0  0  0  0  0  0
    1.4209    2.3090    0.0000 C   0  0  0  0  0  0  0  0  0  0  0  0
    4.1444    0.7105    0.0000 C   0  0  0  0  0  0  0  0  0  0  0  0
    3.7300    0.0000    0.0000 C   0  0  0  0  0  0  0  0  0  0  0  0
    0.0000    3.1330    0.0000 C   0  0  0  0  0  0  0  0  0  0  0  0
    0.7105    1.8995    0.0000 C   0  0  0  0  0  0  0  0  0  0  0  0
    0.0000    2.3090    0.0000 C   0  0  0  0  0  0  0  0  0  0  0  0
  2  1  1  0  0  0  0
  3  4  1  0  0  0  0
  4  1  2  0  0  0  0
  5  2  1  0  0  0  0
  6 16  1  0  0  0  0
  7  6  3  0  0  0  0
  8  3  1  0  0  0  0
  9  3  2  0  0  0  0
 10  2  2  0  0  0  0
 11  5  1  0  0  0  0
 12  1  1  0  0  0  0
 13 11  1  0  0  0  0
 14  5  1  0  0  0  0
 15  4  1  0  0  0  0
 16 14  1  0  0  0  0
 17 13  2  0  0  0  0
 18 13  1  0  0  0  0
 19 12  2  0  0  0  0
 20 19  1  0  0  0  0
 20 15  2  0  0  0  0
 21 17  1  0  0  0  0
 22 18  2  0  0  0  0
 23 22  1  0  0  0  0
 23 21  2  0  0  0  0
M  END
> <CdId>
977

> <Mol Weight>
308.3312

> <Formula>
C18H16N2O3

> <Click_ID>
CLK013_G02 __ __ 

$$$$
