CLK023_H08
 OpenBabel03181413202D

 22 23  0  0  0  0  0  0  0  0999 V2000
   -1.8794   -0.2611    0.0000 N    0  0  0  0  0  0  0  0  0  0  0  0
   -2.3569   -0.9208    0.0000 C    0  0  0  0  0  0  0  0  0  0  0  0
   -1.0994   -0.5119    0.0000 C    0  0  0  0  0  0  0  0  0  0  0  0
   -1.0960   -1.3400    0.0000 C    0  0  0  0  0  0  0  0  0  0  0  0
   -1.8794   -1.5908    0.0000 S    0  0  0  0  0  0  0  0  0  0  0  0
   -0.3779   -1.7419    0.0000 C    0  0  0  0  0  0  0  0  0  0  0  0
    1.7626   -0.4982    0.0000 C    0  0  0  0  0  0  0  0  0  0  0  0
    1.7626   -1.3297    0.0000 C    0  0  0  0  0  0  0  0  0  0  0  0
    1.0548   -0.0859    0.0000 C    0  0  0  0  0  0  0  0  0  0  0  0
    0.3367   -1.3297    0.0000 C    0  0  0  0  0  0  0  0  0  0  0  0
   -1.5942    1.1373    0.0000 C    0  0  0  0  0  0  0  0  0  0  0  0
   -1.0445    1.7557    0.0000 C    0  0  0  0  0  0  0  0  0  0  0  0
   -3.1884   -0.9174    0.0000 O    0  0  0  0  0  0  0  0  0  0  0  0
    0.3367   -0.4982    0.0000 C    0  0  0  0  0  0  0  0  0  0  0  0
    1.0548   -1.7385    0.0000 C    0  0  0  0  0  0  0  0  0  0  0  0
   -0.4364   -0.0241    0.0000 O    0  0  0  0  0  0  0  0  0  0  0  0
   -2.1405    0.5222    0.0000 C    0  0  0  0  0  0  0  0  0  0  0  0
    2.4772   -1.7523    0.0000 Br   0  0  0  0  0  0  0  0  0  0  0  0
    1.0548    0.7353    0.0000 Br   0  0  0  0  0  0  0  0  0  0  0  0
    2.4772   -0.0756    0.0000 O    0  0  0  0  0  0  0  0  0  0  0  0
    2.4738    0.7524    0.0000 C    0  0  0  0  0  0  0  0  0  0  0  0
    3.1850    1.1613    0.0000 C    0  0  0  0  0  0  0  0  0  0  0  0
  2  1  1  0  0  0  0
  3  1  1  0  0  0  0
  4  3  1  0  0  0  0
  5  2  1  0  0  0  0
  5  4  1  0  0  0  0
  6  4  2  0  0  0  0
  7  8  1  0  0  0  0
  8 15  2  0  0  0  0
  9 14  1  0  0  0  0
  9  7  2  0  0  0  0
 10  6  1  0  0  0  0
 11 17  1  0  0  0  0
 12 11  3  0  0  0  0
 13  2  2  0  0  0  0
 14 10  2  0  0  0  0
 15 10  1  0  0  0  0
 16  3  2  0  0  0  0
 17  1  1  0  0  0  0
 18  8  1  0  0  0  0
 19  9  1  0  0  0  0
 20  7  1  0  0  0  0
 21 20  1  0  0  0  0
 22 21  1  0  0  0  0
M  END
> <CdId>
1773

> <Mol Weight>
445.126

> <Formula>
C15H11Br2NO3S

> <Click_ID>
CLK023_H08 __ __ 

$$$$
