CLK017_D05
 OpenBabel03181413202D

 33 35  0  0  0  0  0  0  0  0999 V2000
    8.5979   -6.0691    0.0000 N    0  0  0  0  0  0  0  0  0  0  0  0
    8.5979   -4.6513    0.0000 C    0  0  0  0  0  0  0  0  0  0  0  0
    8.1751   -5.3644    0.0000 C    0  0  0  0  0  0  0  0  0  0  0  0
    9.4187   -6.0733    0.0000 C    0  0  0  0  0  0  0  0  0  0  0  0
    9.8292   -5.3644    0.0000 N    0  0  0  0  0  0  0  0  0  0  0  0
    9.4187   -4.6431    0.0000 C    0  0  0  0  0  0  0  0  0  0  0  0
    8.1833   -6.7822    0.0000 C    0  0  0  0  0  0  0  0  0  0  0  0
    8.1875   -3.9342    0.0000 C    0  0  0  0  0  0  0  0  0  0  0  0
    7.3543   -6.7822    0.0000 C    0  0  0  0  0  0  0  0  0  0  0  0
    7.3625   -3.9342    0.0000 C    0  0  0  0  0  0  0  0  0  0  0  0
    6.1188   -4.6431    0.0000 C    0  0  0  0  0  0  0  0  0  0  0  0
    5.7126   -3.9217    0.0000 C    0  0  0  0  0  0  0  0  0  0  0  0
    6.1313   -3.2128    0.0000 C    0  0  0  0  0  0  0  0  0  0  0  0
    6.9438   -7.4911    0.0000 C    0  0  0  0  0  0  0  0  0  0  0  0
    3.6564   -3.1838    0.0000 C    0  0  0  0  0  0  0  0  0  0  0  0
    9.8292   -6.7904    0.0000 O    0  0  0  0  0  0  0  0  0  0  0  0
    2.8273   -3.1755    0.0000 C    0  0  0  0  0  0  0  0  0  0  0  0
    7.3543   -5.3644    0.0000 O    0  0  0  0  0  0  0  0  0  0  0  0
    6.9438   -4.6431    0.0000 C    0  0  0  0  0  0  0  0  0  0  0  0
    6.9521   -3.2128    0.0000 C    0  0  0  0  0  0  0  0  0  0  0  0
    9.8374   -3.9342    0.0000 O    0  0  0  0  0  0  0  0  0  0  0  0
    8.5979   -7.4911    0.0000 C    0  0  0  0  0  0  0  0  0  0  0  0
    7.3543   -8.2082    0.0000 C    0  0  0  0  0  0  0  0  0  0  0  0
    8.1833   -8.2124    0.0000 C    0  0  0  0  0  0  0  0  0  0  0  0
    6.1230   -1.7909    0.0000 C    0  0  0  0  0  0  0  0  0  0  0  0
    5.7126   -1.0737    0.0000 C    0  0  0  0  0  0  0  0  0  0  0  0
    6.1230   -7.4911    0.0000 Cl   0  0  0  0  0  0  0  0  0  0  0  0
    5.7002   -5.3395    0.0000 O    0  0  0  0  0  0  0  0  0  0  0  0
    4.8876   -3.9093    0.0000 O    0  0  0  0  0  0  0  0  0  0  0  0
    5.7126   -2.5040    0.0000 C    0  0  0  0  0  0  0  0  0  0  0  0
    4.4814   -3.1962    0.0000 C    0  0  0  0  0  0  0  0  0  0  0  0
    6.9438   -8.9213    0.0000 C    0  0  0  0  0  0  0  0  0  0  0  0
    6.1064   -6.0567    0.0000 C    0  0  0  0  0  0  0  0  0  0  0  0
  2  3  1  0  0  0  0
  3  1  1  0  0  0  0
  4  1  1  0  0  0  0
  5  4  1  0  0  0  0
  6  5  1  0  0  0  0
  6  2  1  0  0  0  0
  7  1  1  0  0  0  0
  8  2  2  0  0  0  0
  9  7  2  0  0  0  0
 10  8  1  0  0  0  0
 11 19  1  0  0  0  0
 11 12  2  0  0  0  0
 12 13  1  0  0  0  0
 13 20  2  0  0  0  0
 14  9  1  0  0  0  0
 14 23  2  0  0  0  0
 15 31  1  0  0  0  0
 16  4  2  0  0  0  0
 17 15  3  0  0  0  0
 18  3  2  0  0  0  0
 19 10  2  0  0  0  0
 20 10  1  0  0  0  0
 21  6  2  0  0  0  0
 22  7  1  0  0  0  0
 23 24  1  0  0  0  0
 24 22  2  0  0  0  0
 25 30  1  0  0  0  0
 26 25  2  0  0  0  0
 27 14  1  0  0  0  0
 28 11  1  0  0  0  0
 29 12  1  0  0  0  0
 30 13  1  0  0  0  0
 31 29  1  0  0  0  0
 32 23  1  0  0  0  0
 33 28  1  0  0  0  0
M  END
> <CdId>
1270

> <Mol Weight>
464.898

> <Formula>
C25H21ClN2O5

> <Click_ID>
CLK017_D05 __ __ 

$$$$
