CLK005_H03
 OpenBabel03181413202D

 27 30  0  0  0  0  0  0  0  0999 V2000
    0.4313    0.3693    0.0000 C   0  0  3  0  0  0  0  0  0  0  0  0
    1.1042   -0.1173    0.0000 C   0  0  3  0  0  0  0  0  0  0  0  0
   -0.2312   -0.1173    0.0000 C   0  0  3  0  0  0  0  0  0  0  0  0
    0.6695    1.6253    0.0000 O   0  0  0  0  0  0  0  0  0  0  0  0
   -0.3693    0.5832    0.0000 C   0  0  0  0  0  0  0  0  0  0  0  0
    1.6841    0.4694    0.0000 C   0  0  3  0  0  0  0  0  0  0  0  0
    0.8454   -0.9076    0.0000 C   0  0  0  0  0  0  0  0  0  0  0  0
    0.0207   -0.9076    0.0000 N   0  0  0  0  0  0  0  0  0  0  0  0
   -1.0180    0.1346    0.0000 C   0  0  0  0  0  0  0  0  0  0  0  0
    1.0077    0.9559    0.0000 C   0  0  3  0  0  0  0  0  0  0  0  0
    0.2174    1.1699    0.0000 C   0  0  0  0  0  0  0  0  0  0  0  0
    2.5088    0.5452    0.0000 C   0  0  0  0  0  0  0  0  0  0  0  0
    1.3320   -1.5702    0.0000 O   0  0  0  0  0  0  0  0  0  0  0  0
   -0.4694   -1.5702    0.0000 C   0  0  0  0  0  0  0  0  0  0  0  0
   -1.6322   -0.4175    0.0000 N   0  0  0  0  0  0  0  0  0  0  0  0
   -1.1940    0.9455    0.0000 O   0  0  0  0  0  0  0  0  0  0  0  0
    1.7220    1.3734    0.0000 C   0  0  0  0  0  0  0  0  0  0  0  0
    2.8608    1.2872    0.0000 N   0  0  0  0  0  0  0  0  0  0  0  0
    2.9815   -0.1311    0.0000 O   0  0  0  0  0  0  0  0  0  0  0  0
   -0.1311   -2.3294    0.0000 C   0  0  0  0  0  0  0  0  0  0  0  0
   -2.4190   -0.1656    0.0000 C   0  0  0  0  0  0  0  0  0  0  0  0
    3.6821    1.3562    0.0000 C   0  0  0  0  0  0  0  0  0  0  0  0
   -0.6177   -2.9954    0.0000 C   0  0  0  0  0  0  0  0  0  0  0  0
   -2.6710    0.6177    0.0000 C   0  0  0  0  0  0  0  0  0  0  0  0
   -3.0816   -0.6522    0.0000 C   0  0  0  0  0  0  0  0  0  0  0  0
   -3.4957    0.6177    0.0000 C   0  0  0  0  0  0  0  0  0  0  0  0
   -3.7442   -0.1656    0.0000 C   0  0  0  0  0  0  0  0  0  0  0  0
  1  2  1  0  0  0  0
  1  3  1  0  0  0  0
  1  4  1  0  0  0  0
  1  5  1  0  0  0  0
  2  6  1  0  0  0  0
  2  7  1  0  0  0  0
  3  8  1  0  0  0  0
  3  9  1  0  0  0  0
  4 10  1  0  0  0  0
  5 11  2  0  0  0  0
  6 12  1  0  0  0  0
  6 10  1  0  0  0  0
  7 13  2  0  0  0  0
  7  8  1  0  0  0  0
  8 14  1  0  0  0  0
  9 15  1  0  0  0  0
  9 16  2  0  0  0  0
 10 17  1  0  0  0  0
 10 11  1  0  0  0  0
 12 18  1  0  0  0  0
 12 19  2  0  0  0  0
 14 20  1  0  0  0  0
 15 21  1  0  0  0  0
 18 22  1  0  0  0  0
 20 23  3  0  0  0  0
 21 24  1  0  0  0  0
 21 25  1  0  0  0  0
 24 26  1  0  0  0  0
 25 27  1  0  0  0  0
 26 27  1  0  0  0  0
M  END
> <CdId>
392

> <Mol Weight>
371.4302

> <Formula>
C20H25N3O4

> <Click_ID>
CLK005_H03 __ __ 

$$$$
