CLK003_G07
 OpenBabel03181413202D

 21 21  0  0  0  0  0  0  0  0999 V2000
    1.2600   -1.0218    0.0000 C   0  0  0  0  0  0  0  0  0  0  0  0
    1.6604   -0.3072    0.0000 C   0  0  0  0  0  0  0  0  0  0  0  0
    1.6708   -1.7364    0.0000 C   0  0  0  0  0  0  0  0  0  0  0  0
    0.4350   -1.0218    0.0000 N   0  0  0  0  0  0  0  0  0  0  0  0
    2.4889   -0.3037    0.0000 C   0  0  0  0  0  0  0  0  0  0  0  0
    2.4958   -1.7364    0.0000 C   0  0  0  0  0  0  0  0  0  0  0  0
    0.0241   -0.3072    0.0000 C   0  0  0  0  0  0  0  0  0  0  0  0
    2.8998   -1.0183    0.0000 C   0  0  0  0  0  0  0  0  0  0  0  0
   -0.8043   -0.3072    0.0000 C   0  0  0  0  0  0  0  0  0  0  0  0
    0.4350    0.4107    0.0000 O   0  0  0  0  0  0  0  0  0  0  0  0
    3.7351   -1.0080    0.0000 N   0  3  0  0  0  0  0  0  0  0  0  0
   -1.2151    0.4038    0.0000 C   0  0  0  0  0  0  0  0  0  0  0  0
    4.1390   -0.2969    0.0000 O   0  0  0  0  0  0  0  0  0  0  0  0
    4.1528   -1.7226    0.0000 O   0  5  0  0  0  0  0  0  0  0  0  0
   -2.0436    0.4038    0.0000 C   0  0  0  0  0  0  0  0  0  0  0  0
   -2.4544    1.1184    0.0000 C   0  0  0  0  0  0  0  0  0  0  0  0
   -3.2795    1.1184    0.0000 O   0  0  0  0  0  0  0  0  0  0  0  0
   -2.0470    1.8365    0.0000 O   0  0  0  0  0  0  0  0  0  0  0  0
   -3.6937    1.8330    0.0000 C   0  0  0  0  0  0  0  0  0  0  0  0
   -4.5187    1.8330    0.0000 C   0  0  0  0  0  0  0  0  0  0  0  0
   -5.3472    1.8330    0.0000 C   0  0  0  0  0  0  0  0  0  0  0  0
  1  2  1  0  0  0  0
  1  3  2  0  0  0  0
  1  4  1  0  0  0  0
  2  5  2  0  0  0  0
  3  6  1  0  0  0  0
  4  7  1  0  0  0  0
  5  8  1  0  0  0  0
  6  8  2  0  0  0  0
  7  9  1  0  0  0  0
  7 10  2  0  0  0  0
  8 11  1  0  0  0  0
  9 12  1  0  0  0  0
 11 13  2  0  0  0  0
 11 14  1  0  0  0  0
 12 15  1  0  0  0  0
 15 16  1  0  0  0  0
 16 17  1  0  0  0  0
 16 18  2  0  0  0  0
 17 19  1  0  0  0  0
 19 20  1  0  0  0  0
 20 21  3  0  0  0  0
M  END
> <CdId>
226

> <Mol Weight>
290.2714

> <Formula>
C14H14N2O5

> <Click_ID>
CLK003_G07 __ __ 

$$$$
