CLK043A11
 OpenBabel03181413202D

 33 35  0  0  0  0  0  0  0  0999 V2000
    0.3000    2.2250    0.0000 N   0  0  0  0  0  0  0  0  0  0  0  0
    0.3000    1.4000    0.0000 C   0  0  0  0  0  0  0  0  0  0  0  0
   -0.4125    0.9875    0.0000 C   0  0  0  0  0  0  0  0  0  0  0  0
   -0.4125    2.6417    0.0000 C   0  0  0  0  0  0  0  0  0  0  0  0
   -1.1292    2.2250    0.0000 N   0  0  0  0  0  0  0  0  0  0  0  0
   -1.1292    1.4000    0.0000 C   0  0  0  0  0  0  0  0  0  0  0  0
   -0.4125    0.1625    0.0000 N   0  0  0  0  0  0  0  0  0  0  0  0
   -1.1292   -0.2500    0.0000 C   0  0  0  0  0  0  0  0  0  0  0  0
    1.0167    2.6417    0.0000 C   0  0  0  0  0  0  0  0  0  0  0  0
   -0.4125   -3.9625    0.0000 C   0  0  0  0  0  0  0  0  0  0  0  0
    0.3000   -4.3750    0.0000 C   0  0  0  0  0  0  0  0  0  0  0  0
   -0.4125    3.4625    0.0000 O   0  0  0  0  0  0  0  0  0  0  0  0
   -1.8417    0.9875    0.0000 O   0  0  0  0  0  0  0  0  0  0  0  0
    1.0167    0.9875    0.0000 N   0  0  0  0  0  0  0  0  0  0  0  0
   -1.1292   -1.0750    0.0000 C   0  0  0  0  0  0  0  0  0  0  0  0
   -1.8417   -1.4875    0.0000 N   0  0  0  0  0  0  0  0  0  0  0  0
   -1.8417    0.1625    0.0000 O   0  0  0  0  0  0  0  0  0  0  0  0
   -1.1292   -3.5500    0.0000 C   0  0  0  0  0  0  0  0  0  0  0  0
   -1.8417   -2.3125    0.0000 C   0  0  0  0  0  0  0  0  0  0  0  0
   -1.1292   -2.7250    0.0000 C   0  0  0  0  0  0  0  0  0  0  0  0
    1.7292    2.2250    0.0000 C   0  0  0  0  0  0  0  0  0  0  0  0
    0.3000   -0.2500    0.0000 C   0  0  0  0  0  0  0  0  0  0  0  0
    1.7292   -0.2500    0.0000 O   0  0  0  0  0  0  0  0  0  0  0  0
   -2.5583   -3.5500    0.0000 C   0  0  0  0  0  0  0  0  0  0  0  0
   -1.8417   -3.9625    0.0000 C   0  0  0  0  0  0  0  0  0  0  0  0
   -2.5583   -2.7250    0.0000 C   0  0  0  0  0  0  0  0  0  0  0  0
    1.0167    0.1625    0.0000 C   0  0  0  0  0  0  0  0  0  0  0  0
    2.4458    2.6417    0.0000 C   0  0  0  0  0  0  0  0  0  0  0  0
    1.7292    1.4000    0.0000 C   0  0  0  0  0  0  0  0  0  0  0  0
    2.4458    0.1625    0.0000 C   0  0  0  0  0  0  0  0  0  0  0  0
    2.4458    0.9875    0.0000 C   0  0  0  0  0  0  0  0  0  0  0  0
    3.1583    2.2250    0.0000 C   0  0  0  0  0  0  0  0  0  0  0  0
    3.1583    1.4000    0.0000 C   0  0  0  0  0  0  0  0  0  0  0  0
  2  1  1  0  0  0  0
  3  2  2  0  0  0  0
  4  1  1  0  0  0  0
  5  4  1  0  0  0  0
  6  5  1  0  0  0  0
  6  3  1  0  0  0  0
  7  3  1  0  0  0  0
  8  7  1  0  0  0  0
  9  1  1  0  0  0  0
 10 18  1  0  0  0  0
 11 10  3  0  0  0  0
 12  4  2  0  0  0  0
 13  6  2  0  0  0  0
 14  2  1  0  0  0  0
 15  8  1  0  0  0  0
 16 15  1  0  0  0  0
 17  8  2  0  0  0  0
 18 20  1  0  0  0  0
 19 16  1  0  0  0  0
 20 19  2  0  0  0  0
 21  9  1  0  0  0  0
 22  7  1  0  0  0  0
 23 27  1  0  0  0  0
 24 26  2  0  0  0  0
 25 18  2  0  0  0  0
 25 24  1  0  0  0  0
 26 19  1  0  0  0  0
 27 22  1  0  0  0  0
 28 21  2  0  0  0  0
 29 21  1  0  0  0  0
 30 23  1  0  0  0  0
 31 29  2  0  0  0  0
 32 28  1  0  0  0  0
 33 32  2  0  0  0  0
 33 31  1  0  0  0  0
M  END
> <CdId>
3321

> <Mol Weight>
447.4864

> <Formula>
C24H25N5O4

> <Click_ID>
CLK043A11 __ __ 

$$$$
