CLK021_A08
 OpenBabel03181413202D

 21 22  0  0  0  0  0  0  0  0999 V2000
    9.4822    3.4172    0.0000 N   0  3  0  0  0  0  0  0  0  0  0  0
    9.0700    2.7026    0.0000 C   0  0  0  0  0  0  0  0  0  0  0  0
    2.0614    1.9880    0.0000 C   0  0  0  0  0  0  0  0  0  0  0  0
    1.2368    1.9880    0.0000 C   0  0  0  0  0  0  0  0  0  0  0  0
    8.2454    2.7026    0.0000 C   0  0  0  0  0  0  0  0  0  0  0  0
   10.3068    3.4172    0.0000 O   0  5  0  0  0  0  0  0  0  0  0  0
    9.0700    4.1318    0.0000 O   0  0  0  0  0  0  0  0  0  0  0  0
    7.0086    1.9880    0.0000 N   0  0  0  0  0  0  0  0  0  0  0  0
    7.8331    1.9880    0.0000 C   0  0  0  0  0  0  0  0  0  0  0  0
    6.5963    1.2734    0.0000 C   0  0  0  0  0  0  0  0  0  0  0  0
    5.7718    1.2734    0.0000 C   0  0  0  0  0  0  0  0  0  0  0  0
    4.1227    1.2734    0.0000 C   0  0  0  0  0  0  0  0  0  0  0  0
    5.3595    0.5588    0.0000 C   0  0  0  0  0  0  0  0  0  0  0  0
    5.3595    1.9880    0.0000 C   0  0  0  0  0  0  0  0  0  0  0  0
    4.5350    0.5588    0.0000 C   0  0  0  0  0  0  0  0  0  0  0  0
    4.5350    1.9880    0.0000 C   0  0  0  0  0  0  0  0  0  0  0  0
    2.8859    1.9880    0.0000 C   0  0  0  0  0  0  0  0  0  0  0  0
    3.2982    1.2734    0.0000 O   0  0  0  0  0  0  0  0  0  0  0  0
    9.4822    1.9880    0.0000 C   0  0  0  0  0  0  0  0  0  0  0  0
    9.0700    1.2734    0.0000 C   0  0  0  0  0  0  0  0  0  0  0  0
    8.2454    1.2734    0.0000 C   0  0  0  0  0  0  0  0  0  0  0  0
  2  1  1  0  0  0  0
  3 17  1  0  0  0  0
  4  3  3  0  0  0  0
  5  2  1  0  0  0  0
  6  1  1  0  0  0  0
  7  1  2  0  0  0  0
  8  9  1  0  0  0  0
  9  5  2  0  0  0  0
 10  8  1  0  0  0  0
 11 10  1  0  0  0  0
 12 16  1  0  0  0  0
 13 11  2  0  0  0  0
 14 11  1  0  0  0  0
 15 13  1  0  0  0  0
 15 12  2  0  0  0  0
 16 14  2  0  0  0  0
 17 18  1  0  0  0  0
 18 12  1  0  0  0  0
 19  2  2  0  0  0  0
 20 19  1  0  0  0  0
 21 20  2  0  0  0  0
 21  9  1  0  0  0  0
M  END
> <CdId>
1563

> <Mol Weight>
282.294

> <Formula>
C16H14N2O3

> <Click_ID>
CLK021_A08 __ __ 

$$$$
