CLK049A03
 OpenBabel03181413202D

 21 23  0  0  0  0  0  0  0  0999 V2000
   -0.5625    1.2125    0.0000 N   0  0  0  0  0  0  0  0  0  0  0  0
   -1.0458    0.5458    0.0000 C   0  0  0  0  0  0  0  0  0  0  0  0
   -0.7917   -0.2375    0.0000 C   0  0  0  0  0  0  0  0  0  0  0  0
   -1.0458    1.8792    0.0000 O   0  0  0  0  0  0  0  0  0  0  0  0
   -1.8333    0.8000    0.0000 C   0  0  0  0  0  0  0  0  0  0  0  0
    0.0167   -0.4083    0.0000 C   0  0  0  0  0  0  0  0  0  0  0  0
    2.9875   -0.3125    0.0000 C   0  0  0  0  0  0  0  0  0  0  0  0
    3.5417    0.3000    0.0000 C   0  0  0  0  0  0  0  0  0  0  0  0
   -1.8333    1.6250    0.0000 C   0  0  0  0  0  0  0  0  0  0  0  0
    0.2708   -1.1958    0.0000 N   0  0  0  0  0  0  0  0  0  0  0  0
    0.5667    0.2042    0.0000 O   0  0  0  0  0  0  0  0  0  0  0  0
    1.0750   -1.3667    0.0000 C   0  0  0  0  0  0  0  0  0  0  0  0
    2.4375   -0.9250    0.0000 C   0  0  0  0  0  0  0  0  0  0  0  0
    1.6292   -0.7542    0.0000 C   0  0  0  0  0  0  0  0  0  0  0  0
   -2.5458    0.3875    0.0000 C   0  0  0  0  0  0  0  0  0  0  0  0
    2.1375   -2.3208    0.0000 C   0  0  0  0  0  0  0  0  0  0  0  0
    1.3333   -2.1500    0.0000 C   0  0  0  0  0  0  0  0  0  0  0  0
   -2.5458    2.0375    0.0000 C   0  0  0  0  0  0  0  0  0  0  0  0
    2.6917   -1.7083    0.0000 C   0  0  0  0  0  0  0  0  0  0  0  0
   -3.2625    0.8000    0.0000 C   0  0  0  0  0  0  0  0  0  0  0  0
   -3.2625    1.6250    0.0000 C   0  0  0  0  0  0  0  0  0  0  0  0
  2  1  2  0  0  0  0
  3  2  1  0  0  0  0
  4  1  1  0  0  0  0
  5  2  1  0  0  0  0
  5  9  2  0  0  0  0
  6  3  1  0  0  0  0
  7 13  1  0  0  0  0
  8  7  3  0  0  0  0
  9  4  1  0  0  0  0
 10  6  1  0  0  0  0
 11  6  2  0  0  0  0
 12 10  1  0  0  0  0
 13 14  1  0  0  0  0
 14 12  2  0  0  0  0
 15  5  1  0  0  0  0
 16 17  2  0  0  0  0
 17 12  1  0  0  0  0
 18  9  1  0  0  0  0
 19 13  2  0  0  0  0
 19 16  1  0  0  0  0
 20 15  2  0  0  0  0
 20 21  1  0  0  0  0
 21 18  2  0  0  0  0
M  END
> <CdId>
3737

> <Mol Weight>
276.2894

> <Formula>
C17H12N2O2

> <Click_ID>
CLK049A03 __ __ 

$$$$
