CLK052E04
 OpenBabel03181413202D

 35 38  0  0  0  0  0  0  0  0999 V2000
   -1.3458    2.3333    0.0000 C    0  0  0  0  0  0  0  0  0  0  0  0
   -1.3458    1.5083    0.0000 C    0  0  0  0  0  0  0  0  0  0  0  0
   -0.6333    2.7458    0.0000 N    0  0  0  0  0  0  0  0  0  0  0  0
   -0.6333    1.0958    0.0000 C    0  0  2  0  0  0  0  0  0  0  0  0
   -2.1292    2.5875    0.0000 N    0  0  0  0  0  0  0  0  0  0  0  0
   -2.6167    1.9208    0.0000 N    0  0  0  0  0  0  0  0  0  0  0  0
    0.0833    1.5083    0.0000 C    0  0  1  0  0  0  0  0  0  0  0  0
   -2.1292    1.2542    0.0000 C    0  0  0  0  0  0  0  0  0  0  0  0
    0.0833    2.3333    0.0000 C    0  0  0  0  0  0  0  0  0  0  0  0
    0.7958    1.0958    0.0000 N    0  0  0  0  0  0  0  0  0  0  0  0
   -0.6333    0.2708    0.0000 C    0  0  0  0  0  0  0  0  0  0  0  0
    0.7958    0.2708    0.0000 C    0  0  0  0  0  0  0  0  0  0  0  0
    0.0833   -0.1417    0.0000 C    0  0  0  0  0  0  0  0  0  0  0  0
   -1.3458   -3.4417    0.0000 C    0  0  0  0  0  0  0  0  0  0  0  0
   -1.3458   -4.2667    0.0000 C    0  0  0  0  0  0  0  0  0  0  0  0
    0.0833   -0.9667    0.0000 C    0  0  0  0  0  0  0  0  0  0  0  0
    1.5125   -0.1417    0.0000 C    0  0  0  0  0  0  0  0  0  0  0  0
    0.7958    2.7458    0.0000 O    0  0  0  0  0  0  0  0  0  0  0  0
   -1.3458   -0.1417    0.0000 C    0  0  0  0  0  0  0  0  0  0  0  0
   -0.6333   -1.3792    0.0000 C    0  0  0  0  0  0  0  0  0  0  0  0
   -0.0292    0.2708    0.0000 O    0  0  0  0  0  0  0  0  0  0  0  0
   -1.3458   -0.9667    0.0000 C    0  0  0  0  0  0  0  0  0  0  0  0
    1.5125   -0.9667    0.0000 C    0  0  0  0  0  0  0  0  0  0  0  0
    2.2250    0.2708    0.0000 C    0  0  0  0  0  0  0  0  0  0  0  0
   -2.3875    3.3708    0.0000 C    0  0  0  0  0  0  0  0  0  0  0  0
    2.9417   -0.9667    0.0000 C    0  0  0  0  0  0  0  0  0  0  0  0
   -2.3875    0.4667    0.0000 C    0  0  0  0  0  0  0  0  0  0  0  0
    2.9417   -0.1417    0.0000 C    0  0  0  0  0  0  0  0  0  0  0  0
    2.2250   -1.3792    0.0000 C    0  0  0  0  0  0  0  0  0  0  0  0
    0.7958   -1.3792    0.0000 O    0  0  0  0  0  0  0  0  0  0  0  0
    3.6542   -1.3792    0.0000 Cl   0  0  0  0  0  0  0  0  0  0  0  0
   -0.6333   -2.2042    0.0000 O    0  0  0  0  0  0  0  0  0  0  0  0
   -1.3458   -2.6167    0.0000 C    0  0  0  0  0  0  0  0  0  0  0  0
    1.6208   -1.3792    0.0000 C    0  0  0  0  0  0  0  0  0  0  0  0
    2.0333   -2.0958    0.0000 C    0  0  0  0  0  0  0  0  0  0  0  0
  2  1  2  0  0  0  0
  3  1  1  0  0  0  0
  4  2  1  0  0  0  0
  4 11  1  6  0  0  0
  5  1  1  0  0  0  0
  6  5  1  0  0  0  0
  6  8  2  0  0  0  0
  7  4  1  0  0  0  0
  7 10  1  1  0  0  0
  8  2  1  0  0  0  0
  9  3  1  0  0  0  0
  9  7  1  0  0  0  0
 12 10  1  0  0  0  0
 13 11  2  0  0  0  0
 14 33  1  0  0  0  0
 15 14  3  0  0  0  0
 16 13  1  0  0  0  0
 17 12  1  0  0  0  0
 18  9  2  0  0  0  0
 19 11  1  0  0  0  0
 20 22  1  0  0  0  0
 20 16  2  0  0  0  0
 21 12  2  0  0  0  0
 22 19  2  0  0  0  0
 23 17  1  0  0  0  0
 24 17  2  0  0  0  0
 25  5  1  0  0  0  0
 26 28  2  0  0  0  0
 26 29  1  0  0  0  0
 27  8  1  0  0  0  0
 28 24  1  0  0  0  0
 29 23  2  0  0  0  0
 30 16  1  0  0  0  0
 31 26  1  0  0  0  0
 32 20  1  0  0  0  0
 33 32  1  0  0  0  0
 34 30  1  0  0  0  0
 35 34  1  0  0  0  0
M  END
> <CdId>
3989

> <Mol Weight>
492.954

> <Formula>
C26H25ClN4O4

> <Click_ID>
CLK052E04 __ __ 

$$$$
