CLK002_E09
 OpenBabel03181413202D

 24 26  0  0  0  0  0  0  0  0999 V2000
    1.4439   -0.5760    0.0000 C    0  0  0  0  0  0  0  0  0  0  0  0
    0.8944    0.0417    0.0000 C    0  0  0  0  0  0  0  0  0  0  0  0
    1.0346   -1.2923    0.0000 N    0  0  0  0  0  0  0  0  0  0  0  0
    2.2548   -0.4093    0.0000 C    0  0  0  0  0  0  0  0  0  0  0  0
    0.1440   -0.2994    0.0000 C    0  0  0  0  0  0  0  0  0  0  0  0
    1.1482    0.8224    0.0000 C    0  0  0  0  0  0  0  0  0  0  0  0
    0.2274   -1.1142    0.0000 C    0  0  0  0  0  0  0  0  0  0  0  0
    1.3680   -2.0426    0.0000 C    0  0  0  0  0  0  0  0  0  0  0  0
    2.5088    0.3828    0.0000 C    0  0  0  0  0  0  0  0  0  0  0  0
   -0.5684    0.1136    0.0000 N    0  0  0  0  0  0  0  0  0  0  0  0
    1.9593    0.9891    0.0000 C    0  0  0  0  0  0  0  0  0  0  0  0
   -0.3904   -1.6637    0.0000 O    0  0  0  0  0  0  0  0  0  0  0  0
    2.1867   -2.1298    0.0000 C    0  0  0  0  0  0  0  0  0  0  0  0
   -0.5684    0.9399    0.0000 N    0  0  0  0  0  0  0  0  0  0  0  0
    2.2132    1.7773    0.0000 Br   0  0  0  0  0  0  0  0  0  0  0  0
    3.0014   -2.2132    0.0000 C    0  0  0  0  0  0  0  0  0  0  0  0
   -1.2847    1.3491    0.0000 C    0  0  0  0  0  0  0  0  0  0  0  0
   -1.9971    0.9399    0.0000 C    0  0  0  0  0  0  0  0  0  0  0  0
   -1.2847    2.1752    0.0000 O    0  0  0  0  0  0  0  0  0  0  0  0
   -1.9971    0.1099    0.0000 C    0  0  0  0  0  0  0  0  0  0  0  0
   -2.7172    1.3605    0.0000 C    0  0  0  0  0  0  0  0  0  0  0  0
   -2.7172   -0.3032    0.0000 C    0  0  0  0  0  0  0  0  0  0  0  0
   -3.4258    0.9399    0.0000 C    0  0  0  0  0  0  0  0  0  0  0  0
   -3.4258    0.1099    0.0000 N    0  0  0  0  0  0  0  0  0  0  0  0
  1  2  2  0  0  0  0
  1  3  1  0  0  0  0
  1  4  1  0  0  0  0
  2  5  1  0  0  0  0
  2  6  1  0  0  0  0
  3  7  1  0  0  0  0
  3  8  1  0  0  0  0
  4  9  2  0  0  0  0
  5 10  2  0  0  0  0
  5  7  1  0  0  0  0
  6 11  2  0  0  0  0
  7 12  2  0  0  0  0
  8 13  1  0  0  0  0
  9 11  1  0  0  0  0
 10 14  1  0  0  0  0
 11 15  1  0  0  0  0
 13 16  3  0  0  0  0
 14 17  1  0  0  0  0
 17 18  1  0  0  0  0
 17 19  2  0  0  0  0
 18 20  2  0  0  0  0
 18 21  1  0  0  0  0
 20 22  1  0  0  0  0
 21 23  2  0  0  0  0
 22 24  2  0  0  0  0
 23 24  1  0  0  0  0
M  END
> <CdId>
128

> <Mol Weight>
383.199

> <Formula>
C17H11BrN4O2

> <Click_ID>
CLK002_E09 __ __ 

$$$$
