CLK004_B09
 OpenBabel03181413202D

 31 33  0  0  0  0  0  0  0  0999 V2000
    0.3717    1.3230    0.0000 C    0  0  3  0  0  0  0  0  0  0  0  0
   -0.3317    0.9033    0.0000 C    0  0  0  0  0  0  0  0  0  0  0  0
    1.0871    0.9154    0.0000 C    0  0  0  0  0  0  0  0  0  0  0  0
    0.3637    2.1383    0.0000 N    0  0  0  0  0  0  0  0  0  0  0  0
   -0.3198    0.0800    0.0000 C    0  0  0  0  0  0  0  0  0  0  0  0
   -1.0472    1.3070    0.0000 C    0  0  0  0  0  0  0  0  0  0  0  0
    1.1111    0.0759    0.0000 C    0  0  0  0  0  0  0  0  0  0  0  0
    1.7986    1.3350    0.0000 C    0  0  0  0  0  0  0  0  0  0  0  0
    1.0711    2.5700    0.0000 C    0  0  0  0  0  0  0  0  0  0  0  0
   -1.0313   -0.3397    0.0000 C    0  0  0  0  0  0  0  0  0  0  0  0
   -1.7586    0.8873    0.0000 C    0  0  0  0  0  0  0  0  0  0  0  0
    1.8267   -0.3237    0.0000 N    0  0  0  0  0  0  0  0  0  0  0  0
    0.3917   -0.3397    0.0000 O    0  0  0  0  0  0  0  0  0  0  0  0
    1.7986    2.1543    0.0000 N    0  0  0  0  0  0  0  0  0  0  0  0
    2.5181    0.9312    0.0000 C    0  0  0  0  0  0  0  0  0  0  0  0
    1.0592    3.3934    0.0000 O    0  0  0  0  0  0  0  0  0  0  0  0
   -1.7547    0.0679    0.0000 C    0  0  0  0  0  0  0  0  0  0  0  0
   -1.0153   -1.1711    0.0000 O    0  0  0  0  0  0  0  0  0  0  0  0
   -2.4781    1.2950    0.0000 Cl   0  0  0  0  0  0  0  0  0  0  0  0
    1.8386   -1.1392    0.0000 C    0  0  0  0  0  0  0  0  0  0  0  0
   -2.4661   -0.3597    0.0000 O    0  0  0  0  0  0  0  0  0  0  0  0
   -0.2958   -1.5748    0.0000 C    0  0  0  0  0  0  0  0  0  0  0  0
    2.5620   -1.5468    0.0000 C    0  0  0  0  0  0  0  0  0  0  0  0
    1.1312   -1.5628    0.0000 C    0  0  0  0  0  0  0  0  0  0  0  0
   -3.1936    0.0599    0.0000 C    0  0  0  0  0  0  0  0  0  0  0  0
   -0.2878   -2.3982    0.0000 C    0  0  0  0  0  0  0  0  0  0  0  0
    2.5661   -2.3742    0.0000 C    0  0  0  0  0  0  0  0  0  0  0  0
    1.1392   -2.3862    0.0000 C    0  0  0  0  0  0  0  0  0  0  0  0
   -3.8971   -0.3597    0.0000 C    0  0  0  0  0  0  0  0  0  0  0  0
    1.8546   -2.7938    0.0000 C    0  0  0  0  0  0  0  0  0  0  0  0
   -4.6125   -0.7794    0.0000 C    0  0  0  0  0  0  0  0  0  0  0  0
  1  2  1  0  0  0  0
  1  3  1  0  0  0  0
  1  4  1  0  0  0  0
  2  5  2  0  0  0  0
  2  6  1  0  0  0  0
  3  7  1  0  0  0  0
  3  8  2  0  0  0  0
  4  9  1  0  0  0  0
  5 10  1  0  0  0  0
  6 11  2  0  0  0  0
  7 12  1  0  0  0  0
  7 13  2  0  0  0  0
  8 14  1  0  0  0  0
  8 15  1  0  0  0  0
  9 16  2  0  0  0  0
  9 14  1  0  0  0  0
 10 17  2  0  0  0  0
 10 18  1  0  0  0  0
 11 19  1  0  0  0  0
 11 17  1  0  0  0  0
 12 20  1  0  0  0  0
 17 21  1  0  0  0  0
 18 22  1  0  0  0  0
 20 23  1  0  0  0  0
 20 24  2  0  0  0  0
 21 25  1  0  0  0  0
 22 26  1  0  0  0  0
 23 27  2  0  0  0  0
 24 28  1  0  0  0  0
 25 29  1  0  0  0  0
 27 30  1  0  0  0  0
 28 30  2  0  0  0  0
 29 31  3  0  0  0  0
M  END
> <CdId>
258

> <Mol Weight>
439.891

> <Formula>
C23H22ClN3O4

> <Click_ID>
CLK004_B09 __ __ 

$$$$
