CLK040E08
 OpenBabel03181413202D

 17 17  0  0  0  0  0  0  0  0999 V2000
   -1.4292   -1.3583    0.0000 N   0  3  0  0  0  0  0  0  0  0  0  0
   -0.7167   -0.9458    0.0000 C   0  0  0  0  0  0  0  0  0  0  0  0
   -0.7167   -0.1208    0.0000 C   0  0  0  0  0  0  0  0  0  0  0  0
    0.0000    1.1167    0.0000 C   0  0  0  0  0  0  0  0  0  0  0  0
    0.0000    0.2917    0.0000 C   0  0  0  0  0  0  0  0  0  0  0  0
    1.4250    2.7667    0.0000 C   0  0  0  0  0  0  0  0  0  0  0  0
    0.0000   -1.3583    0.0000 C   0  0  0  0  0  0  0  0  0  0  0  0
    2.1417    3.1792    0.0000 C   0  0  0  0  0  0  0  0  0  0  0  0
   -2.1458   -0.9458    0.0000 O   0  5  0  0  0  0  0  0  0  0  0  0
   -1.4292   -2.1833    0.0000 O   0  0  0  0  0  0  0  0  0  0  0  0
   -0.7167    1.5292    0.0000 O   0  0  0  0  0  0  0  0  0  0  0  0
    0.7125   -0.1208    0.0000 C   0  0  0  0  0  0  0  0  0  0  0  0
    0.7125   -0.9458    0.0000 C   0  0  0  0  0  0  0  0  0  0  0  0
    0.7125    1.5292    0.0000 N   0  0  0  0  0  0  0  0  0  0  0  0
    0.0000   -2.1833    0.0000 S   0  0  0  0  0  0  0  0  0  0  0  0
    0.7125    2.3542    0.0000 C   0  0  0  0  0  0  0  0  0  0  0  0
    0.7125   -2.5958    0.0000 C   0  0  0  0  0  0  0  0  0  0  0  0
  2  1  1  0  0  0  0
  3  2  1  0  0  0  0
  4  5  1  0  0  0  0
  5  3  2  0  0  0  0
  5 12  1  0  0  0  0
  6 16  1  0  0  0  0
  7  2  2  0  0  0  0
  8  6  3  0  0  0  0
  9  1  1  0  0  0  0
 10  1  2  0  0  0  0
 11  4  2  0  0  0  0
 12 13  2  0  0  0  0
 13  7  1  0  0  0  0
 14  4  1  0  0  0  0
 15  7  1  0  0  0  0
 16 14  1  0  0  0  0
 17 15  1  0  0  0  0
M  END
> <CdId>
3061

> <Mol Weight>
250.274

> <Formula>
C11H10N2O3S

> <Click_ID>
CLK040E08 __ __ 

$$$$
