CLK020_C08
 OpenBabel03181413202D

 26 28  0  0  0  0  0  0  0  0999 V2000
    1.5646   -0.8156    0.0000 N    0  0  0  0  0  0  0  0  0  0  0  0
    4.5230    1.4064    0.0000 N    0  0  0  0  0  0  0  0  0  0  0  0
    1.8225   -1.6020    0.0000 C    0  0  0  0  0  0  0  0  0  0  0  0
    2.9002   -0.8156    0.0000 C    0  0  0  0  0  0  0  0  0  0  0  0
    2.2345   -0.3288    0.0000 C    0  0  0  0  0  0  0  0  0  0  0  0
    3.8490    0.2455    0.0000 C    0  0  0  0  0  0  0  0  0  0  0  0
    3.7116    1.5729    0.0000 C    0  0  0  0  0  0  0  0  0  0  0  0
    2.6464   -1.6020    0.0000 S    0  0  0  0  0  0  0  0  0  0  0  0
    4.6104    0.5825    0.0000 C    0  0  0  0  0  0  0  0  0  0  0  0
    3.6867   -0.5617    0.0000 C    0  0  0  0  0  0  0  0  0  0  0  0
    3.2997    0.8571    0.0000 C    0  0  0  0  0  0  0  0  0  0  0  0
    5.1430    1.9556    0.0000 C    0  0  0  0  0  0  0  0  0  0  0  0
    4.9682    2.7463    0.0000 C    0  0  0  0  0  0  0  0  0  0  0  0
    0.6117    0.2455    0.0000 C    0  0  0  0  0  0  0  0  0  0  0  0
    0.3912    1.0444    0.0000 C    0  0  0  0  0  0  0  0  0  0  0  0
    5.5841    3.2955    0.0000 C    0  0  0  0  0  0  0  0  0  0  0  0
    5.9211    1.6935    0.0000 C    0  0  0  0  0  0  0  0  0  0  0  0
    1.3357   -2.2636    0.0000 O    0  0  0  0  0  0  0  0  0  0  0  0
    2.2262    0.4951    0.0000 O    0  0  0  0  0  0  0  0  0  0  0  0
    0.7864   -0.5617    0.0000 C    0  0  0  0  0  0  0  0  0  0  0  0
    6.3705    3.0417    0.0000 C    0  0  0  0  0  0  0  0  0  0  0  0
    4.1860    3.0042    0.0000 F    0  0  0  0  0  0  0  0  0  0  0  0
    6.5328    2.2345    0.0000 C    0  0  0  0  0  0  0  0  0  0  0  0
    3.3829    2.3301    0.0000 C    0  0  0  0  0  0  0  0  0  0  0  0
    5.3219    0.1706    0.0000 C    0  0  0  0  0  0  0  0  0  0  0  0
    6.9822    3.5909    0.0000 Br   0  0  0  0  0  0  0  0  0  0  0  0
  2  9  1  0  0  0  0
  2  7  1  0  0  0  0
  3  1  1  0  0  0  0
  4  5  1  0  0  0  0
  4  8  1  0  0  0  0
  5  1  1  0  0  0  0
  6 10  1  0  0  0  0
  7 11  2  0  0  0  0
  8  3  1  0  0  0  0
  9  6  2  0  0  0  0
 10  4  2  0  0  0  0
 11  6  1  0  0  0  0
 12  2  1  0  0  0  0
 13 12  1  0  0  0  0
 14 20  1  0  0  0  0
 15 14  3  0  0  0  0
 16 13  2  0  0  0  0
 17 12  2  0  0  0  0
 18  3  2  0  0  0  0
 19  5  2  0  0  0  0
 20  1  1  0  0  0  0
 21 23  2  0  0  0  0
 21 16  1  0  0  0  0
 22 13  1  0  0  0  0
 23 17  1  0  0  0  0
 24  7  1  0  0  0  0
 25  9  1  0  0  0  0
 26 21  1  0  0  0  0
M  END
> <CdId>
1503

> <Mol Weight>
433.294

> <Formula>
C19H14BrFN2O2S

> <Click_ID>
CLK020_C08 __ __ 

$$$$
