CLK017_E08
 OpenBabel03181413202D

 24 26  0  0  0  0  0  0  0  0999 V2000
    2.0233   -0.4441    0.0000 C   0  0  3  0  0  0  0  0  0  0  0  0
    2.4079   -1.1719    0.0000 C   0  0  0  0  0  0  0  0  0  0  0  0
    1.8311   -1.7624    0.0000 N   0  0  0  0  0  0  0  0  0  0  0  0
    1.2131   -0.5905    0.0000 C   0  0  0  0  0  0  0  0  0  0  0  0
    1.0986   -1.4054    0.0000 C   0  0  0  0  0  0  0  0  0  0  0  0
    2.9526    0.1785    0.0000 C   0  0  0  0  0  0  0  0  0  0  0  0
    3.7399   -0.2335    0.0000 C   0  0  0  0  0  0  0  0  0  0  0  0
    1.3458   -3.1082    0.0000 C   0  0  0  0  0  0  0  0  0  0  0  0
    0.7141   -3.6301    0.0000 C   0  0  0  0  0  0  0  0  0  0  0  0
    3.2272   -1.2909    0.0000 O   0  0  0  0  0  0  0  0  0  0  0  0
    4.4403    0.2151    0.0000 C   0  0  0  0  0  0  0  0  0  0  0  0
    1.9775   -2.5727    0.0000 C   0  0  0  0  0  0  0  0  0  0  0  0
    1.7624    0.4898    0.0000 O   0  0  0  0  0  0  0  0  0  0  0  0
    3.7765   -0.9201    0.0000 O   0  0  0  0  0  0  0  0  0  0  0  0
    5.1682   -0.1694    0.0000 C   0  0  0  0  0  0  0  0  0  0  0  0
    4.3991    1.0391    0.0000 C   0  0  0  0  0  0  0  0  0  0  0  0
    5.8273    1.0986    0.0000 C   0  0  0  0  0  0  0  0  0  0  0  0
    0.5677   -0.0733    0.0000 C   0  0  0  0  0  0  0  0  0  0  0  0
    5.8639    0.2747    0.0000 C   0  0  0  0  0  0  0  0  0  0  0  0
    5.0949    1.4785    0.0000 C   0  0  0  0  0  0  0  0  0  0  0  0
    6.5140    1.5472    0.0000 I   0  0  0  0  0  0  0  0  0  0  0  0
    0.3342   -1.7075    0.0000 C   0  0  0  0  0  0  0  0  0  0  0  0
   -0.2014   -0.3845    0.0000 C   0  0  0  0  0  0  0  0  0  0  0  0
   -0.3159   -1.1994    0.0000 C   0  0  0  0  0  0  0  0  0  0  0  0
  2  1  1  0  0  0  0
  3  2  1  0  0  0  0
  4  1  1  0  0  0  0
  5  4  2  0  0  0  0
  5  3  1  0  0  0  0
  6  1  1  0  0  0  0
  7  6  1  0  0  0  0
  8 12  1  0  0  0  0
  9  8  3  0  0  0  0
 10  2  2  0  0  0  0
 11  7  1  0  0  0  0
 12  3  1  0  0  0  0
 13  1  1  0  0  0  0
 14  7  2  0  0  0  0
 15 11  1  0  0  0  0
 16 11  2  0  0  0  0
 17 20  2  0  0  0  0
 18  4  1  0  0  0  0
 19 15  2  0  0  0  0
 19 17  1  0  0  0  0
 20 16  1  0  0  0  0
 21 17  1  0  0  0  0
 22  5  1  0  0  0  0
 23 18  2  0  0  0  0
 24 23  1  0  0  0  0
 24 22  2  0  0  0  0
M  END
> <CdId>
1283

> <Mol Weight>
431.2238

> <Formula>
C19H14INO3

> <Click_ID>
CLK017_E08 __ __ 

$$$$
