CLK004_D07
 OpenBabel03181413202D

 31 33  0  0  0  0  0  0  0  0999 V2000
    0.6050    0.0725    0.0000 C   0  0  3  0  0  0  0  0  0  0  0  0
    0.4123    0.8764    0.0000 N   0  0  0  0  0  0  0  0  0  0  0  0
    1.3965   -0.1616    0.0000 C   0  0  0  0  0  0  0  0  0  0  0  0
    0.0062   -0.4931    0.0000 C   0  0  0  0  0  0  0  0  0  0  0  0
   -0.3791    1.1106    0.0000 C   0  0  0  0  0  0  0  0  0  0  0  0
    1.0090    1.4462    0.0000 C   0  0  0  0  0  0  0  0  0  0  0  0
    1.9932    0.4082    0.0000 C   0  0  0  0  0  0  0  0  0  0  0  0
    1.5871   -0.9593    0.0000 C   0  0  0  0  0  0  0  0  0  0  0  0
    0.1989   -1.2929    0.0000 N   0  0  0  0  0  0  0  0  0  0  0  0
   -0.7832   -0.2652    0.0000 O   0  0  0  0  0  0  0  0  0  0  0  0
   -0.9759    0.5387    0.0000 C   0  0  0  0  0  0  0  0  0  0  0  0
   -0.5718    1.9124    0.0000 C   0  0  0  0  0  0  0  0  0  0  0  0
    0.8163    2.2439    0.0000 C   0  0  0  0  0  0  0  0  0  0  0  0
    1.8005    1.2142    0.0000 O   0  0  0  0  0  0  0  0  0  0  0  0
    2.7847    0.1761    0.0000 C   0  0  0  0  0  0  0  0  0  0  0  0
    2.3827   -1.1934    0.0000 C   0  0  0  0  0  0  0  0  0  0  0  0
   -0.3937   -1.8565    0.0000 C   0  0  0  0  0  0  0  0  0  0  0  0
   -1.7694    0.7728    0.0000 C   0  0  0  0  0  0  0  0  0  0  0  0
   -1.3675    2.1403    0.0000 C   0  0  0  0  0  0  0  0  0  0  0  0
    0.6195    3.0478    0.0000 C   0  0  0  0  0  0  0  0  0  0  0  0
    2.9774   -0.6216    0.0000 C   0  0  0  0  0  0  0  0  0  0  0  0
   -0.2880   -2.6790    0.0000 C   0  0  0  0  0  0  0  0  0  0  0  0
   -1.2038   -1.7135    0.0000 C   0  0  0  0  0  0  0  0  0  0  0  0
   -1.9601    1.5705    0.0000 C   0  0  0  0  0  0  0  0  0  0  0  0
   -2.3641    0.2030    0.0000 C   0  0  0  0  0  0  0  0  0  0  0  0
    3.7709   -0.8557    0.0000 F   0  0  0  0  0  0  0  0  0  0  0  0
   -1.0297   -3.0374    0.0000 C   0  0  0  0  0  0  0  0  0  0  0  0
   -1.6016   -2.4386    0.0000 C   0  0  0  0  0  0  0  0  0  0  0  0
   -2.8551   -0.4600    0.0000 F   0  0  0  0  0  0  0  0  0  0  0  0
   -1.7445   -0.3398    0.0000 F   0  0  0  0  0  0  0  0  0  0  0  0
   -3.0727    0.6340    0.0000 F   0  0  0  0  0  0  0  0  0  0  0  0
  1  2  1  0  0  0  0
  1  3  1  0  0  0  0
  1  4  1  0  0  0  0
  2  5  1  0  0  0  0
  2  6  1  0  0  0  0
  3  7  2  0  0  0  0
  3  8  1  0  0  0  0
  4  9  1  0  0  0  0
  4 10  2  0  0  0  0
  5 11  1  0  0  0  0
  5 12  2  0  0  0  0
  6 13  1  0  0  0  0
  6 14  2  0  0  0  0
  7 15  1  0  0  0  0
  8 16  2  0  0  0  0
  9 17  1  0  0  0  0
 11 18  2  0  0  0  0
 12 19  1  0  0  0  0
 13 20  3  0  0  0  0
 15 21  2  0  0  0  0
 16 21  1  0  0  0  0
 17 22  1  0  0  0  0
 17 23  1  0  0  0  0
 18 24  1  0  0  0  0
 18 25  1  0  0  0  0
 19 24  2  0  0  0  0
 21 26  1  0  0  0  0
 22 27  1  0  0  0  0
 23 28  1  0  0  0  0
 25 29  1  0  0  0  0
 25 30  1  0  0  0  0
 25 31  1  0  0  0  0
 27 28  1  0  0  0  0
M  END
> <CdId>
276

> <Mol Weight>
432.4107

> <Formula>
C23H20F4N2O2

> <Click_ID>
CLK004_D07 __ __ 

$$$$
