CLK033_H04
 OpenBabel03181413202D

 23 25  0  0  0  0  0  0  0  0999 V2000
   -4.6053    2.5636    0.0000 C   0  0  0  0  0  0  0  0  0  0  0  0
   -3.8705    2.9895    0.0000 N   0  0  0  0  0  0  0  0  0  0  0  0
   -4.6972    1.7369    0.0000 N   0  0  0  0  0  0  0  0  0  0  0  0
   -5.3318    2.9060    0.0000 S   0  0  0  0  0  0  0  0  0  0  0  0
   -3.8788    3.8079    0.0000 C   0  0  0  0  0  0  0  0  0  0  0  0
   -5.5072    1.5866    0.0000 C   0  0  0  0  0  0  0  0  0  0  0  0
   -5.9080    2.3131    0.0000 C   0  0  0  0  0  0  0  0  0  0  0  0
   -4.2797    0.3590    0.0000 C   0  0  0  0  0  0  0  0  0  0  0  0
   -3.1648    4.2212    0.0000 C   0  0  0  0  0  0  0  0  0  0  0  0
   -4.4675   -0.4551    0.0000 C   0  0  0  0  0  0  0  0  0  0  0  0
   -4.5928    4.2212    0.0000 O   0  0  0  0  0  0  0  0  0  0  0  0
   -5.9373    0.8851    0.0000 C   0  0  0  0  0  0  0  0  0  0  0  0
   -2.4426    3.8162    0.0000 C   0  0  0  0  0  0  0  0  0  0  0  0
   -4.0918    1.1649    0.0000 C   0  0  0  0  0  0  0  0  0  0  0  0
   -1.7286    4.2212    0.0000 C   0  0  0  0  0  0  0  0  0  0  0  0
   -6.7264    2.3381    0.0000 C   0  0  0  0  0  0  0  0  0  0  0  0
   -1.0021    3.8162    0.0000 F   0  0  0  0  0  0  0  0  0  0  0  0
   -3.1565    5.0396    0.0000 C   0  0  0  0  0  0  0  0  0  0  0  0
   -7.1565    1.6284    0.0000 C   0  0  0  0  0  0  0  0  0  0  0  0
   -2.4426    5.4530    0.0000 C   0  0  0  0  0  0  0  0  0  0  0  0
   -6.7431    0.8977    0.0000 C   0  0  0  0  0  0  0  0  0  0  0  0
   -5.5448    0.1503    0.0000 C   0  0  0  0  0  0  0  0  0  0  0  0
   -1.7286    5.0396    0.0000 C   0  0  0  0  0  0  0  0  0  0  0  0
  2  1  2  0  0  0  0
  3  1  1  0  0  0  0
  4  1  1  0  0  0  0
  5  2  1  0  0  0  0
  6  3  1  0  0  0  0
  7  4  1  0  0  0  0
  7  6  2  0  0  0  0
  8 14  1  0  0  0  0
  9  5  1  0  0  0  0
 10  8  3  0  0  0  0
 11  5  2  0  0  0  0
 12  6  1  0  0  0  0
 13  9  2  0  0  0  0
 14  3  1  0  0  0  0
 15 13  1  0  0  0  0
 16  7  1  0  0  0  0
 17 15  1  0  0  0  0
 18  9  1  0  0  0  0
 19 16  2  0  0  0  0
 20 18  2  0  0  0  0
 21 12  2  0  0  0  0
 21 19  1  0  0  0  0
 22 12  1  0  0  0  0
 23 20  1  0  0  0  0
 23 15  2  0  0  0  0
M  END
> <CdId>
2558

> <Mol Weight>
324.372

> <Formula>
C18H13FN2OS

> <Click_ID>
CLK033_H04 __ __ 

$$$$
