CLK033_F09
 OpenBabel03181413202D

 29 31  0  0  0  0  0  0  0  0999 V2000
   -4.5930    2.5567    0.0000 C    0  0  0  0  0  0  0  0  0  0  0  0
   -0.9952    5.4466    0.0000 S    0  0  0  0  0  0  0  0  0  0  0  0
   -3.8600    2.9814    0.0000 N    0  0  0  0  0  0  0  0  0  0  0  0
   -4.6803    1.7322    0.0000 N    0  0  0  0  0  0  0  0  0  0  0  0
   -5.4841    1.5823    0.0000 C    0  0  0  0  0  0  0  0  0  0  0  0
   -5.3175    2.8940    0.0000 S    0  0  0  0  0  0  0  0  0  0  0  0
   -5.8921    2.2986    0.0000 C    0  0  0  0  0  0  0  0  0  0  0  0
   -3.8683    3.7976    0.0000 C    0  0  0  0  0  0  0  0  0  0  0  0
   -5.9170    0.8827    0.0000 C    0  0  0  0  0  0  0  0  0  0  0  0
   -1.7114    5.0260    0.0000 C    0  0  0  0  0  0  0  0  0  0  0  0
   -0.2707    5.8505    0.0000 N    0  0  0  0  0  0  0  0  0  0  0  0
   -4.2556    0.3581    0.0000 C    0  0  0  0  0  0  0  0  0  0  0  0
   -1.4074    6.1628    0.0000 O    0  0  0  0  0  0  0  0  0  0  0  0
   -0.5829    4.7262    0.0000 O    0  0  0  0  0  0  0  0  0  0  0  0
   -4.4430   -0.4540    0.0000 C    0  0  0  0  0  0  0  0  0  0  0  0
   -3.1563    4.2099    0.0000 C    0  0  0  0  0  0  0  0  0  0  0  0
   -6.7250    0.8869    0.0000 C    0  0  0  0  0  0  0  0  0  0  0  0
   -6.7000    2.3194    0.0000 C    0  0  0  0  0  0  0  0  0  0  0  0
   -4.5805    4.2141    0.0000 O    0  0  0  0  0  0  0  0  0  0  0  0
   -4.0682    1.1618    0.0000 C    0  0  0  0  0  0  0  0  0  0  0  0
   -1.7239    4.2016    0.0000 C    0  0  0  0  0  0  0  0  0  0  0  0
   -2.4360    5.4466    0.0000 C    0  0  0  0  0  0  0  0  0  0  0  0
   -7.1372    1.6197    0.0000 C    0  0  0  0  0  0  0  0  0  0  0  0
   -3.1480    5.0385    0.0000 C    0  0  0  0  0  0  0  0  0  0  0  0
   -2.4360    3.8059    0.0000 C    0  0  0  0  0  0  0  0  0  0  0  0
   -5.5174    0.1457    0.0000 Cl   0  0  0  0  0  0  0  0  0  0  0  0
   -7.1330    0.1707    0.0000 Cl   0  0  0  0  0  0  0  0  0  0  0  0
    0.4373    5.4508    0.0000 C    0  0  0  0  0  0  0  0  0  0  0  0
   -0.2749    6.6875    0.0000 C    0  0  0  0  0  0  0  0  0  0  0  0
  2 10  1  0  0  0  0
  3  1  2  0  0  0  0
  4  1  1  0  0  0  0
  5  4  1  0  0  0  0
  6  1  1  0  0  0  0
  7  6  1  0  0  0  0
  7  5  2  0  0  0  0
  8  3  1  0  0  0  0
  9  5  1  0  0  0  0
 10 21  2  0  0  0  0
 10 22  1  0  0  0  0
 11  2  1  0  0  0  0
 12 20  1  0  0  0  0
 13  2  2  0  0  0  0
 14  2  2  0  0  0  0
 15 12  3  0  0  0  0
 16  8  1  0  0  0  0
 17  9  2  0  0  0  0
 17 23  1  0  0  0  0
 18  7  1  0  0  0  0
 19  8  2  0  0  0  0
 20  4  1  0  0  0  0
 21 25  1  0  0  0  0
 22 24  2  0  0  0  0
 23 18  2  0  0  0  0
 24 16  1  0  0  0  0
 25 16  2  0  0  0  0
 26  9  1  0  0  0  0
 27 17  1  0  0  0  0
 28 11  1  0  0  0  0
 29 11  1  0  0  0  0
M  END
> <CdId>
2543

> <Mol Weight>
468.377

> <Formula>
C19H15Cl2N3O3S2

> <Click_ID>
CLK033_F09 __ __ 

$$$$
