CLK013_G11
 OpenBabel03181413202D

 27 29  0  0  0  0  0  0  0  0999 V2000
    1.5629   -0.8147    0.0000 N   0  0  0  0  0  0  0  0  0  0  0  0
    1.8205   -1.6003    0.0000 C   0  0  0  0  0  0  0  0  0  0  0  0
    2.8971   -0.8147    0.0000 C   0  0  0  0  0  0  0  0  0  0  0  0
    2.2320   -0.3284    0.0000 C   0  0  0  0  0  0  0  0  0  0  0  0
    4.5306    1.3924    0.0000 N   0  0  0  0  0  0  0  0  0  0  0  0
    3.8572    0.2452    0.0000 C   0  0  0  0  0  0  0  0  0  0  0  0
    2.6435   -1.6003    0.0000 S   0  0  0  0  0  0  0  0  0  0  0  0
    3.7325    1.5794    0.0000 C   0  0  0  0  0  0  0  0  0  0  0  0
    4.6179    0.5819    0.0000 C   0  0  0  0  0  0  0  0  0  0  0  0
    3.6827   -0.5611    0.0000 C   0  0  0  0  0  0  0  0  0  0  0  0
    3.3086    0.8562    0.0000 C   0  0  0  0  0  0  0  0  0  0  0  0
    5.1540    1.9410    0.0000 C   0  0  0  0  0  0  0  0  0  0  0  0
    0.6110    0.2452    0.0000 C   0  0  0  0  0  0  0  0  0  0  0  0
    0.3907    1.0432    0.0000 C   0  0  0  0  0  0  0  0  0  0  0  0
    1.3342   -2.2611    0.0000 O   0  0  0  0  0  0  0  0  0  0  0  0
    2.2237    0.4946    0.0000 O   0  0  0  0  0  0  0  0  0  0  0  0
    0.7856   -0.5611    0.0000 C   0  0  0  0  0  0  0  0  0  0  0  0
    6.3843    3.0383    0.0000 C   0  0  0  0  0  0  0  0  0  0  0  0
    6.9995    3.5870    0.0000 N   0  0  0  0  0  0  0  0  0  0  0  0
    5.9396    1.6792    0.0000 C   0  0  0  0  0  0  0  0  0  0  0  0
    4.9795    2.7640    0.0000 C   0  0  0  0  0  0  0  0  0  0  0  0
    6.5506    2.2278    0.0000 C   0  0  0  0  0  0  0  0  0  0  0  0
    5.5987    3.3044    0.0000 C   0  0  0  0  0  0  0  0  0  0  0  0
    3.4041    2.3276    0.0000 C   0  0  0  0  0  0  0  0  0  0  0  0
    5.3244    0.1579    0.0000 C   0  0  0  0  0  0  0  0  0  0  0  0
    7.7934    3.3251    0.0000 C   0  0  0  0  0  0  0  0  0  0  0  0
    6.8457    4.3934    0.0000 C   0  0  0  0  0  0  0  0  0  0  0  0
  2  1  1  0  0  0  0
  3  4  1  0  0  0  0
  3  7  1  0  0  0  0
  4  1  1  0  0  0  0
  5  9  1  0  0  0  0
  5  8  1  0  0  0  0
  6 10  1  0  0  0  0
  7  2  1  0  0  0  0
  8 11  2  0  0  0  0
  9  6  2  0  0  0  0
 10  3  2  0  0  0  0
 11  6  1  0  0  0  0
 12  5  1  0  0  0  0
 13 17  1  0  0  0  0
 14 13  3  0  0  0  0
 15  2  2  0  0  0  0
 16  4  2  0  0  0  0
 17  1  1  0  0  0  0
 18 23  1  0  0  0  0
 19 18  1  0  0  0  0
 20 12  2  0  0  0  0
 21 12  1  0  0  0  0
 22 20  1  0  0  0  0
 22 18  2  0  0  0  0
 23 21  2  0  0  0  0
 24  8  1  0  0  0  0
 25  9  1  0  0  0  0
 26 19  1  0  0  0  0
 27 19  1  0  0  0  0
M  END
> <CdId>
986

> <Mol Weight>
379.475

> <Formula>
C21H21N3O2S

> <Click_ID>
CLK013_G11 __ __ 

$$$$
