CLK023_A10
 OpenBabel03181413202D

 29 32  0  0  0  0  0  0  0  0999 V2000
    0.2167    0.6503    0.0000 N   0  0  0  0  0  0  0  0  0  0  0  0
   -1.9158   -2.1361    0.0000 N   0  0  0  0  0  0  0  0  0  0  0  0
    0.5804   -0.6293    0.0000 C   0  0  0  0  0  0  0  0  0  0  0  0
   -1.6641   -2.9227    0.0000 C   0  0  0  0  0  0  0  0  0  0  0  0
   -0.6398   -2.1676    0.0000 C   0  0  0  0  0  0  0  0  0  0  0  0
   -0.0665   -0.1223    0.0000 C   0  0  0  0  0  0  0  0  0  0  0  0
   -1.2551   -1.6536    0.0000 C   0  0  0  0  0  0  0  0  0  0  0  0
    0.4335   -1.6431    0.0000 C   0  0  0  0  0  0  0  0  0  0  0  0
   -0.8496   -2.9227    0.0000 S   0  0  0  0  0  0  0  0  0  0  0  0
    1.0383    0.6258    0.0000 C   0  0  0  0  0  0  0  0  0  0  0  0
    1.2656   -0.1678    0.0000 C   0  0  0  0  0  0  0  0  0  0  0  0
   -0.1958    1.3600    0.0000 C   0  0  0  0  0  0  0  0  0  0  0  0
    0.2062    2.0697    0.0000 C   0  0  0  0  0  0  0  0  0  0  0  0
   -2.6326   -0.9020    0.0000 C   0  0  0  0  0  0  0  0  0  0  0  0
   -2.6361   -0.0804    0.0000 C   0  0  0  0  0  0  0  0  0  0  0  0
   -2.2515   -3.4996    0.0000 O   0  0  0  0  0  0  0  0  0  0  0  0
   -1.1258   -0.8321    0.0000 O   0  0  0  0  0  0  0  0  0  0  0  0
   -2.6326   -1.7270    0.0000 C   0  0  0  0  0  0  0  0  0  0  0  0
   -0.1923    2.7934    0.0000 C   0  0  0  0  0  0  0  0  0  0  0  0
   -0.8636   -0.3356    0.0000 C   0  0  0  0  0  0  0  0  0  0  0  0
   -1.0138    2.7934    0.0000 F   0  0  0  0  0  0  0  0  0  0  0  0
    1.6117    1.2236    0.0000 C   0  0  0  0  0  0  0  0  0  0  0  0
    2.0627   -0.3671    0.0000 C   0  0  0  0  0  0  0  0  0  0  0  0
    1.0314    2.0557    0.0000 C   0  0  0  0  0  0  0  0  0  0  0  0
    0.2343    3.4996    0.0000 C   0  0  0  0  0  0  0  0  0  0  0  0
    2.4018    1.0243    0.0000 C   0  0  0  0  0  0  0  0  0  0  0  0
    2.6326    0.2272    0.0000 C   0  0  0  0  0  0  0  0  0  0  0  0
    1.4543    2.7689    0.0000 C   0  0  0  0  0  0  0  0  0  0  0  0
    1.0558    3.4856    0.0000 C   0  0  0  0  0  0  0  0  0  0  0  0
  2  7  1  0  0  0  0
  3  6  2  0  0  0  0
  4  9  1  0  0  0  0
  4  2  1  0  0  0  0
  5  8  2  0  0  0  0
  6  1  1  0  0  0  0
  7  5  1  0  0  0  0
  8  3  1  0  0  0  0
  9  5  1  0  0  0  0
 10  1  1  0  0  0  0
 11 10  1  0  0  0  0
 11  3  1  0  0  0  0
 12  1  1  0  0  0  0
 13 12  1  0  0  0  0
 14 18  1  0  0  0  0
 15 14  3  0  0  0  0
 16  4  2  0  0  0  0
 17  7  2  0  0  0  0
 18  2  1  0  0  0  0
 19 13  1  0  0  0  0
 20  6  1  0  0  0  0
 21 19  1  0  0  0  0
 22 10  2  0  0  0  0
 23 11  2  0  0  0  0
 24 13  2  0  0  0  0
 25 19  2  0  0  0  0
 25 29  1  0  0  0  0
 26 22  1  0  0  0  0
 27 26  2  0  0  0  0
 27 23  1  0  0  0  0
 28 24  1  0  0  0  0
 29 28  2  0  0  0  0
M  END
> <CdId>
1705

> <Mol Weight>
404.457

> <Formula>
C23H17FN2O2S

> <Click_ID>
CLK023_A10 __ __ 

$$$$
