CLK036_F02
 OpenBabel03181413202D

 29 32  0  0  0  0  0  0  0  0999 V2000
   -0.5489    2.2001    0.0000 C   0  0  0  0  0  0  0  0  0  0  0  0
    0.2431    2.4599    0.0000 N   0  0  0  0  0  0  0  0  0  0  0  0
   -0.8046    1.4081    0.0000 N   0  0  0  0  0  0  0  0  0  0  0  0
   -1.2195    2.6862    0.0000 S   0  0  0  0  0  0  0  0  0  0  0  0
   -1.6344    1.4081    0.0000 C   0  0  0  0  0  0  0  0  0  0  0  0
   -1.8858    2.1959    0.0000 C   0  0  0  0  0  0  0  0  0  0  0  0
    0.4191    3.2645    0.0000 C   0  0  0  0  0  0  0  0  0  0  0  0
    1.1986    3.5202    0.0000 C   0  0  3  0  0  0  0  0  0  0  0  0
    1.8146    2.9628    0.0000 O   0  0  0  0  0  0  0  0  0  0  0  0
   -2.1833    0.8004    0.0000 C   0  0  0  0  0  0  0  0  0  0  0  0
   -2.6988    2.3719    0.0000 C   0  0  0  0  0  0  0  0  0  0  0  0
    2.1666    4.5679    0.0000 O   0  0  0  0  0  0  0  0  0  0  0  0
   -2.9879    0.9680    0.0000 C   0  0  0  0  0  0  0  0  0  0  0  0
    2.5941    3.2142    0.0000 C   0  0  0  0  0  0  0  0  0  0  0  0
   -3.2519    1.7559    0.0000 C   0  0  0  0  0  0  0  0  0  0  0  0
    0.4945    0.8255    0.0000 C   0  0  0  0  0  0  0  0  0  0  0  0
    0.8423    1.5799    0.0000 C   0  0  0  0  0  0  0  0  0  0  0  0
    1.3746    4.3290    0.0000 C   0  0  0  0  0  0  0  0  0  0  0  0
    2.7826    4.0188    0.0000 C   0  0  0  0  0  0  0  0  0  0  0  0
   -0.1969    3.8219    0.0000 O   0  0  0  0  0  0  0  0  0  0  0  0
   -0.3226    0.7418    0.0000 C   0  0  0  0  0  0  0  0  0  0  0  0
   -3.5411    0.3478    0.0000 O   0  0  0  0  0  0  0  0  0  0  0  0
   -4.0565    1.9319    0.0000 O   0  0  0  0  0  0  0  0  0  0  0  0
    3.2059    2.6611    0.0000 C   0  0  0  0  0  0  0  0  0  0  0  0
    3.5621    4.2661    0.0000 C   0  0  0  0  0  0  0  0  0  0  0  0
   -3.2897   -0.4400    0.0000 C   0  0  0  0  0  0  0  0  0  0  0  0
   -4.6097    1.3158    0.0000 C   0  0  0  0  0  0  0  0  0  0  0  0
    3.9896    2.9125    0.0000 C   0  0  0  0  0  0  0  0  0  0  0  0
    4.1656    3.7171    0.0000 C   0  0  0  0  0  0  0  0  0  0  0  0
  2  1  2  0  0  0  0
  3  1  1  0  0  0  0
  4  1  1  0  0  0  0
  5  3  1  0  0  0  0
  6  4  1  0  0  0  0
  6  5  2  0  0  0  0
  7  2  1  0  0  0  0
  8  7  1  0  0  0  0
  9  8  1  0  0  0  0
 10  5  1  0  0  0  0
 11  6  1  0  0  0  0
 12 18  1  0  0  0  0
 13 10  2  0  0  0  0
 13 15  1  0  0  0  0
 14  9  1  0  0  0  0
 14 19  2  0  0  0  0
 15 11  2  0  0  0  0
 16 21  1  0  0  0  0
 17 16  3  0  0  0  0
 18  8  1  0  0  0  0
 19 12  1  0  0  0  0
 20  7  2  0  0  0  0
 21  3  1  0  0  0  0
 22 13  1  0  0  0  0
 23 15  1  0  0  0  0
 24 14  1  0  0  0  0
 25 19  1  0  0  0  0
 26 22  1  0  0  0  0
 27 23  1  0  0  0  0
 28 24  2  0  0  0  0
 29 25  2  0  0  0  0
 29 28  1  0  0  0  0
M  END
> <CdId>
2754

> <Mol Weight>
410.443

> <Formula>
C21H18N2O5S

> <Click_ID>
CLK036_F02 __ __ 

$$$$
