CLK014_C09
 OpenBabel03181413202D

 23 24  0  0  0  0  0  0  0  0999 V2000
    1.5639   -0.8152    0.0000 N    0  0  0  0  0  0  0  0  0  0  0  0
    1.8217   -1.6013    0.0000 C    0  0  0  0  0  0  0  0  0  0  0  0
    2.2335   -0.3286    0.0000 C    0  0  0  0  0  0  0  0  0  0  0  0
    2.8990   -0.8152    0.0000 C    0  0  0  0  0  0  0  0  0  0  0  0
    2.6453   -1.6013    0.0000 S    0  0  0  0  0  0  0  0  0  0  0  0
    3.6851   -0.5615    0.0000 C    0  0  0  0  0  0  0  0  0  0  0  0
    4.1967    1.8675    0.0000 C    0  0  0  0  0  0  0  0  0  0  0  0
    0.6114    0.2454    0.0000 C    0  0  0  0  0  0  0  0  0  0  0  0
    3.4189    1.6096    0.0000 C    0  0  0  0  0  0  0  0  0  0  0  0
    0.3910    1.0439    0.0000 C    0  0  0  0  0  0  0  0  0  0  0  0
    1.3351   -2.2627    0.0000 O    0  0  0  0  0  0  0  0  0  0  0  0
    2.2252    0.4949    0.0000 O    0  0  0  0  0  0  0  0  0  0  0  0
    3.8473    0.2454    0.0000 C    0  0  0  0  0  0  0  0  0  0  0  0
    4.3714    2.6702    0.0000 O    0  0  0  0  0  0  0  0  0  0  0  0
    0.7861   -0.5615    0.0000 C    0  0  0  0  0  0  0  0  0  0  0  0
    3.2359    0.7944    0.0000 C    0  0  0  0  0  0  0  0  0  0  0  0
    4.8164    1.3102    0.0000 C    0  0  0  0  0  0  0  0  0  0  0  0
    2.8075    2.1669    0.0000 Cl   0  0  0  0  0  0  0  0  0  0  0  0
    4.6459    0.5074    0.0000 C    0  0  0  0  0  0  0  0  0  0  0  0
    5.1575    2.9281    0.0000 C    0  0  3  0  0  0  0  0  0  0  0  0
    5.3280    3.7308    0.0000 C    0  0  0  0  0  0  0  0  0  0  0  0
    5.7689    2.3790    0.0000 C    0  0  0  0  0  0  0  0  0  0  0  0
    6.1183    3.9887    0.0000 C    0  0  0  0  0  0  0  0  0  0  0  0
  2  1  1  0  0  0  0
  3  1  1  0  0  0  0
  4  3  1  0  0  0  0
  4  5  1  0  0  0  0
  5  2  1  0  0  0  0
  6  4  2  0  0  0  0
  7 17  1  0  0  0  0
  7  9  2  0  0  0  0
  8 15  1  0  0  0  0
  9 16  1  0  0  0  0
 10  8  3  0  0  0  0
 11  2  2  0  0  0  0
 12  3  2  0  0  0  0
 13  6  1  0  0  0  0
 14  7  1  0  0  0  0
 15  1  1  0  0  0  0
 16 13  2  0  0  0  0
 17 19  2  0  0  0  0
 18  9  1  0  0  0  0
 19 13  1  0  0  0  0
 20 14  1  0  0  0  0
 21 20  1  0  0  0  0
 22 20  1  0  0  0  0
 23 21  1  0  0  0  0
M  END
> <CdId>
1024

> <Mol Weight>
349.832

> <Formula>
C17H16ClNO3S

> <Click_ID>
CLK014_C09 __ __ 

$$$$
