CLK009_F09
 OpenBabel03181413202D

 16 14  0  0  0  0  0  0  0  0999 V2000
   -0.6881    0.1603    0.0000 C    0  0  0  0  0  0  0  0  0  0  0  0
   -1.9236    0.8758    0.0000 N    0  0  0  0  0  0  0  0  0  0  0  0
   -1.5131    0.1603    0.0000 C    0  0  0  0  0  0  0  0  0  0  0  0
   -0.6881    1.5913    0.0000 C    0  0  0  0  0  0  0  0  0  0  0  0
    0.1564    1.5913    0.0000 C    0  0  0  0  0  0  0  0  0  0  0  0
   -2.7525    0.8758    0.0000 C    0  0  0  0  0  0  0  0  0  0  0  0
   -0.2776   -0.5513    0.0000 C    0  0  0  0  0  0  0  0  0  0  0  0
   -0.2776    0.8758    0.0000 O    0  0  0  0  0  0  0  0  0  0  0  0
   -1.5131    1.5913    0.0000 C    0  0  0  0  0  0  0  0  0  0  0  0
   -2.7525    0.0469    0.0000 C    0  0  0  0  0  0  0  0  0  0  0  0
   -2.7525    1.7008    0.0000 C    0  0  0  0  0  0  0  0  0  0  0  0
   -3.5775    0.8758    0.0000 C    0  0  0  0  0  0  0  0  0  0  0  0
    0.1408   -1.4075    0.0000 C    0  0  0  0  0  0  0  0  0  0  0  0
   -0.6764   -1.2668    0.0000 C    0  0  0  0  0  0  0  0  0  0  0  0
    0.5435   -0.5435    0.0000 C    0  0  0  0  0  0  0  0  0  0  0  0
    1.6695    0.5004    0.0000 Cl   0  0  0  0  0  0  0  0  0  0  0  0
  2  3  1  0  0  0  0
  3  1  1  0  0  0  0
  4  9  1  0  0  0  0
  5  4  3  0  0  0  0
  6  2  1  0  0  0  0
  7  1  1  0  0  0  0
  8  1  2  0  0  0  0
  9  2  1  0  0  0  0
 10  6  1  0  0  0  0
 11  6  1  0  0  0  0
 12  6  1  0  0  0  0
 13  7  1  0  0  0  0
 14  7  1  0  0  0  0
 15  7  1  0  0  0  0
M  END
> <CdId>
654

> <Mol Weight>
245.789

> <Formula>
C13H24ClNO

> <Click_ID>
CLK009_F09 __ __ 

$$$$
