CLK020_B05
 OpenBabel03181413202D

 28 31  0  0  0  0  0  0  0  0999 V2000
    1.6537    1.9880    0.0000 C    0  0  3  0  0  0  0  0  0  0  0  0
    1.9835    1.2368    0.0000 C    0  0  0  0  0  0  0  0  0  0  0  0
    2.2584    2.5377    0.0000 C    0  0  0  0  0  0  0  0  0  0  0  0
    2.8081    1.3193    0.0000 N    0  0  0  0  0  0  0  0  0  0  0  0
    2.9730    2.1254    0.0000 C    0  0  0  0  0  0  0  0  0  0  0  0
    1.1681    2.6614    0.0000 C    0  0  0  0  0  0  0  0  0  0  0  0
    0.3757    2.4278    0.0000 C    0  0  0  0  0  0  0  0  0  0  0  0
   -0.2199    3.0050    0.0000 C    0  0  0  0  0  0  0  0  0  0  0  0
   -1.0123    2.7713    0.0000 C    0  0  0  0  0  0  0  0  0  0  0  0
    4.1227    1.0169    0.0000 C    0  0  0  0  0  0  0  0  0  0  0  0
    3.6876    2.5377    0.0000 C    0  0  0  0  0  0  0  0  0  0  0  0
    4.8832    1.3284    0.0000 C    0  0  0  0  0  0  0  0  0  0  0  0
    2.2584    3.3623    0.0000 C    0  0  0  0  0  0  0  0  0  0  0  0
    1.5712    0.5222    0.0000 O    0  0  0  0  0  0  0  0  0  0  0  0
    0.2336    1.8690    0.0000 O    0  0  0  0  0  0  0  0  0  0  0  0
    3.3578    0.7100    0.0000 C    0  0  0  0  0  0  0  0  0  0  0  0
    0.9391    1.5758    0.0000 O    0  0  0  0  0  0  0  0  0  0  0  0
   -1.6032    3.3485    0.0000 C    0  0  0  0  0  0  0  0  0  0  0  0
    2.9730    3.7745    0.0000 C    0  0  0  0  0  0  0  0  0  0  0  0
    3.6876    3.3623    0.0000 C    0  0  0  0  0  0  0  0  0  0  0  0
    2.9730    4.5946    0.0000 Br   0  0  0  0  0  0  0  0  0  0  0  0
   -0.0229    3.8020    0.0000 C    0  0  0  0  0  0  0  0  0  0  0  0
   -1.2093    1.9743    0.0000 C    0  0  0  0  0  0  0  0  0  0  0  0
   -0.6138    4.3792    0.0000 C    0  0  0  0  0  0  0  0  0  0  0  0
   -1.4108    4.1456    0.0000 C    0  0  0  0  0  0  0  0  0  0  0  0
   -2.4003    3.1195    0.0000 C    0  0  0  0  0  0  0  0  0  0  0  0
   -2.0018    1.7453    0.0000 C    0  0  0  0  0  0  0  0  0  0  0  0
   -2.5973    2.3178    0.0000 C    0  0  0  0  0  0  0  0  0  0  0  0
  2  1  1  0  0  0  0
  3  1  1  0  0  0  0
  4  2  1  0  0  0  0
  5  3  2  0  0  0  0
  5  4  1  0  0  0  0
  6  1  1  0  0  0  0
  7  6  1  0  0  0  0
  8  7  1  0  0  0  0
  9  8  1  0  0  0  0
 10 16  1  0  0  0  0
 11  5  1  0  0  0  0
 12 10  3  0  0  0  0
 13  3  1  0  0  0  0
 14  2  2  0  0  0  0
 15  7  2  0  0  0  0
 16  4  1  0  0  0  0
 17  1  1  0  0  0  0
 18  9  1  0  0  0  0
 18 25  1  0  0  0  0
 19 13  2  0  0  0  0
 20 19  1  0  0  0  0
 20 11  2  0  0  0  0
 21 19  1  0  0  0  0
 22  8  2  0  0  0  0
 23  9  2  0  0  0  0
 24 22  1  0  0  0  0
 25 24  2  0  0  0  0
 26 18  2  0  0  0  0
 27 23  1  0  0  0  0
 28 27  2  0  0  0  0
 28 26  1  0  0  0  0
M  END
> <CdId>
1490

> <Mol Weight>
434.282

> <Formula>
C23H16BrNO3

> <Click_ID>
CLK020_B05 __ __ 

$$$$
