CLK042A05
 OpenBabel03181413202D

 23 24  0  0  0  0  0  0  0  0999 V2000
    0.2958    1.4500    0.0000 C   0  0  0  0  0  0  0  0  0  0  0  0
    0.2958   -0.2000    0.0000 C   0  0  0  0  0  0  0  0  0  0  0  0
    1.0083    0.2125    0.0000 N   0  0  0  0  0  0  0  0  0  0  0  0
    1.0083    1.0375    0.0000 C   0  0  0  0  0  0  0  0  0  0  0  0
   -0.4208    1.0375    0.0000 C   0  0  0  0  0  0  0  0  0  0  0  0
   -2.5625    1.4500    0.0000 C   0  0  0  0  0  0  0  0  0  0  0  0
   -3.2750    1.8625    0.0000 C   0  0  0  0  0  0  0  0  0  0  0  0
    0.2958   -1.0250    0.0000 C   0  0  0  0  0  0  0  0  0  0  0  0
   -0.4208    0.2125    0.0000 O   0  0  0  0  0  0  0  0  0  0  0  0
   -0.8333    0.3250    0.0000 O   0  0  0  0  0  0  0  0  0  0  0  0
   -1.1333    1.4500    0.0000 N   0  0  0  0  0  0  0  0  0  0  0  0
    1.0083   -1.4375    0.0000 C   0  0  0  0  0  0  0  0  0  0  0  0
   -0.4208   -1.4375    0.0000 C   0  0  0  0  0  0  0  0  0  0  0  0
    0.2958   -2.6750    0.0000 C   0  0  0  0  0  0  0  0  0  0  0  0
    1.0083   -2.2625    0.0000 C   0  0  0  0  0  0  0  0  0  0  0  0
   -0.4208   -2.2625    0.0000 C   0  0  0  0  0  0  0  0  0  0  0  0
   -1.8500    1.0375    0.0000 C   0  0  0  0  0  0  0  0  0  0  0  0
    0.2958    2.2750    0.0000 C   0  0  0  0  0  0  0  0  0  0  0  0
    0.2958   -3.5000    0.0000 O   0  0  0  0  0  0  0  0  0  0  0  0
    1.7250    1.4500    0.0000 C   0  0  0  0  0  0  0  0  0  0  0  0
    1.0083   -3.9125    0.0000 C   0  0  0  0  0  0  0  0  0  0  0  0
    1.0083    2.6875    0.0000 C   0  0  0  0  0  0  0  0  0  0  0  0
    1.7250    2.2750    0.0000 C   0  0  0  0  0  0  0  0  0  0  0  0
  2  3  1  0  0  0  0
  3  4  1  0  0  0  0
  4  1  2  0  0  0  0
  5  1  1  0  0  0  0
  6 17  1  0  0  0  0
  7  6  3  0  0  0  0
  8  2  1  0  0  0  0
  9  2  2  0  0  0  0
 10  5  2  0  0  0  0
 11  5  1  0  0  0  0
 12  8  1  0  0  0  0
 13  8  2  0  0  0  0
 14 16  2  0  0  0  0
 15 12  2  0  0  0  0
 15 14  1  0  0  0  0
 16 13  1  0  0  0  0
 17 11  1  0  0  0  0
 18  1  1  0  0  0  0
 19 14  1  0  0  0  0
 20  4  1  0  0  0  0
 21 19  1  0  0  0  0
 22 18  2  0  0  0  0
 22 23  1  0  0  0  0
 23 20  2  0  0  0  0
M  END
> <CdId>
3193

> <Mol Weight>
308.3312

> <Formula>
C18H16N2O3

> <Click_ID>
CLK042A05 __ __ 

$$$$
