CLK050H06
 OpenBabel03181413202D

 17 17  0  0  0  0  0  0  0  0999 V2000
    0.2917   -1.3333    0.0000 C   0  0  0  0  0  0  0  0  0  0  0  0
    0.2917   -0.5083    0.0000 N   0  0  0  0  0  0  0  0  0  0  0  0
    1.7208   -2.9833    0.0000 C   0  0  0  0  0  0  0  0  0  0  0  0
   -0.4208    0.7292    0.0000 C   0  0  0  0  0  0  0  0  0  0  0  0
   -1.1375    1.9667    0.0000 C   0  0  0  0  0  0  0  0  0  0  0  0
    2.4375   -3.3958    0.0000 C   0  0  0  0  0  0  0  0  0  0  0  0
   -1.1375    1.1417    0.0000 C   0  0  0  0  0  0  0  0  0  0  0  0
   -0.4208   -0.0958    0.0000 C   0  0  3  0  0  0  0  0  0  0  0  0
   -0.4208    2.3792    0.0000 C   0  0  0  0  0  0  0  0  0  0  0  0
   -0.4208   -1.7458    0.0000 O   0  0  0  0  0  0  0  0  0  0  0  0
    0.2917    1.1417    0.0000 C   0  0  0  0  0  0  0  0  0  0  0  0
    0.2917    1.9667    0.0000 C   0  0  0  0  0  0  0  0  0  0  0  0
    1.0083   -1.7458    0.0000 N   0  0  0  0  0  0  0  0  0  0  0  0
   -1.8500    2.3792    0.0000 F   0  0  0  0  0  0  0  0  0  0  0  0
   -0.4208    3.2042    0.0000 F   0  0  0  0  0  0  0  0  0  0  0  0
    1.0083   -2.5708    0.0000 C   0  0  0  0  0  0  0  0  0  0  0  0
   -1.1375   -0.5083    0.0000 C   0  0  0  0  0  0  0  0  0  0  0  0
  2  1  1  0  0  0  0
  3 16  1  0  0  0  0
  4  8  1  0  0  0  0
  5  7  1  0  0  0  0
  6  3  3  0  0  0  0
  7  4  2  0  0  0  0
  8  2  1  0  0  0  0
  9  5  2  0  0  0  0
  9 12  1  0  0  0  0
 10  1  2  0  0  0  0
 11  4  1  0  0  0  0
 12 11  2  0  0  0  0
 13  1  1  0  0  0  0
 14  5  1  0  0  0  0
 15  9  1  0  0  0  0
 16 13  1  0  0  0  0
 17  8  1  0  0  0  0
M  END
> <CdId>
3848

> <Mol Weight>
238.2333

> <Formula>
C12H12F2N2O

> <Click_ID>
CLK050H06 __ __ 

$$$$
