CLK041D05
 OpenBabel03181413202D

 24 25  0  0  0  0  0  0  0  0999 V2000
   -0.5375    2.6125    0.0000 S   0  0  0  0  0  0  0  0  0  0  0  0
   -0.5375   -0.6875    0.0000 C   0  0  0  0  0  0  0  0  0  0  0  0
   -0.5375    1.7875    0.0000 C   0  0  0  0  0  0  0  0  0  0  0  0
    0.1750    4.6708    0.0000 C   0  0  0  0  0  0  0  0  0  0  0  0
    0.1750    5.5000    0.0000 C   0  0  0  0  0  0  0  0  0  0  0  0
   -1.3625    2.6125    0.0000 O   0  0  0  0  0  0  0  0  0  0  0  0
    0.2875    2.6125    0.0000 O   0  0  0  0  0  0  0  0  0  0  0  0
   -0.5375    0.1375    0.0000 C   0  0  0  0  0  0  0  0  0  0  0  0
   -0.5375    3.4375    0.0000 N   0  0  0  0  0  0  0  0  0  0  0  0
    0.8917   -3.1625    0.0000 C   0  0  0  0  0  0  0  0  0  0  0  0
   -1.2542   -1.1000    0.0000 O   0  0  0  0  0  0  0  0  0  0  0  0
    0.1750    1.3750    0.0000 C   0  0  0  0  0  0  0  0  0  0  0  0
   -1.2542    1.3750    0.0000 C   0  0  0  0  0  0  0  0  0  0  0  0
    0.1750    0.5500    0.0000 C   0  0  0  0  0  0  0  0  0  0  0  0
   -1.2542    0.5500    0.0000 C   0  0  0  0  0  0  0  0  0  0  0  0
    0.1750   -1.1000    0.0000 N   0  0  0  0  0  0  0  0  0  0  0  0
    0.1750   -3.5750    0.0000 C   0  0  0  0  0  0  0  0  0  0  0  0
    0.1750    3.8542    0.0000 C   0  0  0  0  0  0  0  0  0  0  0  0
    0.1750   -1.9250    0.0000 C   0  0  0  0  0  0  0  0  0  0  0  0
    0.8917   -2.3375    0.0000 C   0  0  0  0  0  0  0  0  0  0  0  0
    1.6042   -3.5750    0.0000 C   0  0  0  0  0  0  0  0  0  0  0  0
    0.1750   -4.4000    0.0000 C   0  0  0  0  0  0  0  0  0  0  0  0
    1.6042   -4.4000    0.0000 C   0  0  0  0  0  0  0  0  0  0  0  0
    0.8917   -4.8125    0.0000 C   0  0  0  0  0  0  0  0  0  0  0  0
  2  8  1  0  0  0  0
  3  1  1  0  0  0  0
  4 18  1  0  0  0  0
  5  4  3  0  0  0  0
  6  1  2  0  0  0  0
  7  1  2  0  0  0  0
  8 15  2  0  0  0  0
  9  1  1  0  0  0  0
 10 20  1  0  0  0  0
 11  2  2  0  0  0  0
 12  3  1  0  0  0  0
 13  3  2  0  0  0  0
 14 12  2  0  0  0  0
 14  8  1  0  0  0  0
 15 13  1  0  0  0  0
 16  2  1  0  0  0  0
 17 10  2  0  0  0  0
 18  9  1  0  0  0  0
 19 16  1  0  0  0  0
 20 19  1  0  0  0  0
 21 10  1  0  0  0  0
 22 17  1  0  0  0  0
 23 21  1  0  0  0  0
 24 23  1  0  0  0  0
 24 22  1  0  0  0  0
M  END
> <CdId>
3116

> <Mol Weight>
346.444

> <Formula>
C18H22N2O3S

> <Click_ID>
CLK041D05 __ __ 

$$$$
