CLK026_D06
 OpenBabel03181413202D

 21 22  0  0  0  0  0  0  0  0999 V2000
   -2.6926   -0.3370    0.0000 N   0  0  0  0  0  0  0  0  0  0  0  0
   -3.1156   -1.0454    0.0000 C   0  0  0  0  0  0  0  0  0  0  0  0
   -1.8811   -0.5090    0.0000 C   0  0  0  0  0  0  0  0  0  0  0  0
   -1.8089   -1.3343    0.0000 C   0  0  0  0  0  0  0  0  0  0  0  0
   -2.5654   -1.6644    0.0000 S   0  0  0  0  0  0  0  0  0  0  0  0
   -1.0970   -1.7573    0.0000 C   0  0  0  0  0  0  0  0  0  0  0  0
   -2.5207    1.0867    0.0000 C   0  0  0  0  0  0  0  0  0  0  0  0
   -2.0668    1.7745    0.0000 C   0  0  0  0  0  0  0  0  0  0  0  0
   -3.9272   -1.1177    0.0000 O   0  0  0  0  0  0  0  0  0  0  0  0
   -1.2689    0.0413    0.0000 O   0  0  0  0  0  0  0  0  0  0  0  0
   -3.0159    0.4195    0.0000 C   0  0  0  0  0  0  0  0  0  0  0  0
   -0.3817   -1.3549    0.0000 C   0  0  0  0  0  0  0  0  0  0  0  0
    3.2256   -0.1857    0.0000 C   0  0  0  0  0  0  0  0  0  0  0  0
    3.9238   -0.6225    0.0000 C   0  0  0  0  0  0  0  0  0  0  0  0
    1.0661   -0.5571    0.0000 C   0  0  0  0  0  0  0  0  0  0  0  0
    0.3301   -1.7710    0.0000 C   0  0  0  0  0  0  0  0  0  0  0  0
   -0.3611   -0.5227    0.0000 C   0  0  0  0  0  0  0  0  0  0  0  0
    0.3679   -0.1238    0.0000 C   0  0  0  0  0  0  0  0  0  0  0  0
    1.0523   -1.3721    0.0000 C   0  0  0  0  0  0  0  0  0  0  0  0
    1.7882   -0.1616    0.0000 O   0  0  0  0  0  0  0  0  0  0  0  0
    2.4966   -0.5846    0.0000 C   0  0  0  0  0  0  0  0  0  0  0  0
  2  1  1  0  0  0  0
  3  1  1  0  0  0  0
  4  3  1  0  0  0  0
  5  2  1  0  0  0  0
  5  4  1  0  0  0  0
  6  4  2  0  0  0  0
  7 11  1  0  0  0  0
  8  7  3  0  0  0  0
  9  2  2  0  0  0  0
 10  3  2  0  0  0  0
 11  1  1  0  0  0  0
 12  6  1  0  0  0  0
 13 21  1  0  0  0  0
 14 13  2  0  0  0  0
 15 18  2  0  0  0  0
 15 19  1  0  0  0  0
 16 12  1  0  0  0  0
 17 12  2  0  0  0  0
 18 17  1  0  0  0  0
 19 16  2  0  0  0  0
 20 15  1  0  0  0  0
 21 20  1  0  0  0  0
M  END
> <CdId>
1971

> <Mol Weight>
299.344

> <Formula>
C16H13NO3S

> <Click_ID>
CLK026_D06 __ __ 

$$$$
