CLK021_G02
 OpenBabel03181413202D

 26 27  0  0  0  0  0  0  0  0999 V2000
    1.7636    3.2111    0.0000 C   0  0  0  0  0  0  0  0  0  0  0  0
    2.4782    3.6234    0.0000 C   0  0  3  0  0  0  0  0  0  0  0  0
    1.0490    3.6234    0.0000 C   0  0  0  0  0  0  0  0  0  0  0  0
    1.7636    4.8557    0.0000 C   0  0  0  0  0  0  0  0  0  0  0  0
    1.0490    4.4434    0.0000 N   0  0  0  0  0  0  0  0  0  0  0  0
    2.4782    4.4434    0.0000 N   0  0  0  0  0  0  0  0  0  0  0  0
    1.7636    2.3866    0.0000 C   0  0  0  0  0  0  0  0  0  0  0  0
    3.1928    3.2111    0.0000 C   0  0  0  0  0  0  0  0  0  0  0  0
    3.1928    2.3866    0.0000 C   0  0  0  0  0  0  0  0  0  0  0  0
    6.7659    1.9743    0.0000 C   0  0  0  0  0  0  0  0  0  0  0  0
    7.4805    1.5620    0.0000 C   0  0  0  0  0  0  0  0  0  0  0  0
    3.9074    1.9743    0.0000 C   0  0  0  0  0  0  0  0  0  0  0  0
    1.7636    5.6802    0.0000 O   0  0  0  0  0  0  0  0  0  0  0  0
    4.6221    2.3866    0.0000 C   0  0  0  0  0  0  0  0  0  0  0  0
    3.9074    3.6234    0.0000 C   0  0  0  0  0  0  0  0  0  0  0  0
    2.4782    1.9743    0.0000 O   0  0  0  0  0  0  0  0  0  0  0  0
    4.6221    3.2111    0.0000 C   0  0  0  0  0  0  0  0  0  0  0  0
    1.0490    1.9743    0.0000 O   0  0  0  0  0  0  0  0  0  0  0  0
    0.3344    3.2111    0.0000 C   0  0  0  0  0  0  0  0  0  0  0  0
    3.9074    1.1497    0.0000 O   0  0  0  0  0  0  0  0  0  0  0  0
    5.3367    1.9743    0.0000 O   0  0  0  0  0  0  0  0  0  0  0  0
    6.0513    2.3866    0.0000 C   0  0  0  0  0  0  0  0  0  0  0  0
    1.0490    1.1497    0.0000 C   0  0  0  0  0  0  0  0  0  0  0  0
    3.1928    0.7375    0.0000 C   0  0  0  0  0  0  0  0  0  0  0  0
    0.3344    0.7375    0.0000 C   0  0  0  0  0  0  0  0  0  0  0  0
    3.1928   -0.0871    0.0000 C   0  0  0  0  0  0  0  0  0  0  0  0
  2  1  1  0  0  0  0
  3  1  2  0  0  0  0
  4  5  1  0  0  0  0
  4  6  1  0  0  0  0
  5  3  1  0  0  0  0
  6  2  1  0  0  0  0
  7  1  1  0  0  0  0
  8  2  1  0  0  0  0
  9  8  2  0  0  0  0
 10 22  1  0  0  0  0
 11 10  3  0  0  0  0
 12  9  1  0  0  0  0
 12 14  2  0  0  0  0
 13  4  2  0  0  0  0
 14 17  1  0  0  0  0
 15  8  1  0  0  0  0
 16  7  2  0  0  0  0
 17 15  2  0  0  0  0
 18  7  1  0  0  0  0
 19  3  1  0  0  0  0
 20 12  1  0  0  0  0
 21 14  1  0  0  0  0
 22 21  1  0  0  0  0
 23 18  1  0  0  0  0
 24 20  1  0  0  0  0
 25 23  1  0  0  0  0
 26 24  1  0  0  0  0
M  END
> <CdId>
1617

> <Mol Weight>
358.3884

> <Formula>
C19H22N2O5

> <Click_ID>
CLK021_G02 __ __ 

$$$$
