CLK006_A07
 OpenBabel03181413202D

 27 29  0  0  0  0  0  0  0  0999 V2000
   -2.5152   -1.4800    0.0000 C   0  0  3  0  0  0  0  0  0  0  0  0
   -1.8168   -0.9770    0.0000 C   0  0  0  0  0  0  0  0  0  0  0  0
   -3.1804   -0.9936    0.0000 C   0  0  0  0  0  0  0  0  0  0  0  0
   -1.8002   -1.8958    0.0000 C   0  0  0  0  0  0  0  0  0  0  0  0
   -2.0995   -0.2037    0.0000 C   0  0  0  0  0  0  0  0  0  0  0  0
   -2.9268   -0.2078    0.0000 N   0  0  0  0  0  0  0  0  0  0  0  0
   -1.7918   -2.7232    0.0000 C   0  0  0  0  0  0  0  0  0  0  0  0
   -2.5111   -3.1347    0.0000 O   0  0  0  0  0  0  0  0  0  0  0  0
   -3.2303   -1.9041    0.0000 C   0  0  0  0  0  0  0  0  0  0  0  0
   -0.9936   -0.9770    0.0000 C   0  0  0  0  0  0  0  0  0  0  0  0
   -3.2261   -2.7314    0.0000 C   0  0  0  0  0  0  0  0  0  0  0  0
   -1.0851   -2.3116    0.0000 C   0  0  0  0  0  0  0  0  0  0  0  0
   -0.3742   -2.7232    0.0000 N   0  0  0  0  0  0  0  0  0  0  0  0
   -3.0724    1.2098    0.0000 C   0  0  0  0  0  0  0  0  0  0  0  0
   -2.7356    1.9623    0.0000 C   0  0  0  0  0  0  0  0  0  0  0  0
   -4.0119   -1.0020    0.0000 O   0  0  0  0  0  0  0  0  0  0  0  0
   -3.4091    0.4615    0.0000 C   0  0  0  0  0  0  0  0  0  0  0  0
   -1.0684   -3.1388    0.0000 N   0  0  0  0  0  0  0  0  0  0  0  0
   -0.5862   -1.6880    0.0000 O   0  0  0  0  0  0  0  0  0  0  0  0
   -1.6297    0.4698    0.0000 C   0  0  0  0  0  0  0  0  0  0  0  0
   -0.5862   -0.2619    0.0000 O   0  0  0  0  0  0  0  0  0  0  0  0
   -3.9454   -1.4884    0.0000 C   0  0  0  0  0  0  0  0  0  0  0  0
   -3.9330   -3.1472    0.0000 C   0  0  0  0  0  0  0  0  0  0  0  0
    0.2370   -0.2536    0.0000 C   0  0  0  0  0  0  0  0  0  0  0  0
   -4.6605   -1.9125    0.0000 C   0  0  0  0  0  0  0  0  0  0  0  0
   -4.6564   -2.7356    0.0000 C   0  0  0  0  0  0  0  0  0  0  0  0
    0.6444    0.4615    0.0000 C   0  0  0  0  0  0  0  0  0  0  0  0
  2  1  1  0  0  0  0
  3  1  1  0  0  0  0
  4  1  1  0  0  0  0
  5  2  2  0  0  0  0
  6  3  1  0  0  0  0
  6  5  1  0  0  0  0
  7  4  2  0  0  0  0
  8 11  1  0  0  0  0
  8  7  1  0  0  0  0
  9  1  1  0  0  0  0
 10  2  1  0  0  0  0
 11  9  1  0  0  0  0
 12  4  1  0  0  0  0
 13 12  3  0  0  0  0
 14 17  1  0  0  0  0
 15 14  3  0  0  0  0
 16  3  2  0  0  0  0
 17  6  1  0  0  0  0
 18  7  1  0  0  0  0
 19 10  2  0  0  0  0
 20  5  1  0  0  0  0
 21 10  1  0  0  0  0
 22  9  2  0  0  0  0
 23 11  2  0  0  0  0
 24 21  1  0  0  0  0
 25 22  1  0  0  0  0
 25 26  2  0  0  0  0
 26 23  1  0  0  0  0
 27 24  1  0  0  0  0
M  END
> <CdId>
406

> <Mol Weight>
363.3667

> <Formula>
C20H17N3O4

> <Click_ID>
CLK006_A07 __ __ 

$$$$
