CLK016_E10
 OpenBabel03181413202D

 21 22  0  0  0  0  0  0  0  0999 V2000
    1.5644   -0.8155    0.0000 N    0  0  0  0  0  0  0  0  0  0  0  0
    1.8223   -1.6018    0.0000 C    0  0  0  0  0  0  0  0  0  0  0  0
    2.2342   -0.3287    0.0000 C    0  0  0  0  0  0  0  0  0  0  0  0
    2.8999   -0.8155    0.0000 C    0  0  0  0  0  0  0  0  0  0  0  0
    2.6461   -1.6018    0.0000 S    0  0  0  0  0  0  0  0  0  0  0  0
    3.6862   -0.5617    0.0000 C    0  0  0  0  0  0  0  0  0  0  0  0
    0.6116    0.2454    0.0000 C    0  0  0  0  0  0  0  0  0  0  0  0
    0.3911    1.0442    0.0000 C    0  0  0  0  0  0  0  0  0  0  0  0
    4.8220    1.3064    0.0000 C    0  0  0  0  0  0  0  0  0  0  0  0
    1.3355   -2.2633    0.0000 O    0  0  0  0  0  0  0  0  0  0  0  0
    2.2259    0.4951    0.0000 O    0  0  0  0  0  0  0  0  0  0  0  0
    3.8567    0.2454    0.0000 C    0  0  0  0  0  0  0  0  0  0  0  0
    0.7863   -0.5617    0.0000 C    0  0  0  0  0  0  0  0  0  0  0  0
    4.6431    0.4951    0.0000 C    0  0  0  0  0  0  0  0  0  0  0  0
    4.2104    1.8597    0.0000 C    0  0  0  0  0  0  0  0  0  0  0  0
    3.4199    1.6059    0.0000 C    0  0  0  0  0  0  0  0  0  0  0  0
    5.6041    1.5477    0.0000 Br   0  0  0  0  0  0  0  0  0  0  0  0
    3.2494    0.8071    0.0000 C    0  0  0  0  0  0  0  0  0  0  0  0
    4.3976    2.6710    0.0000 O    0  0  0  0  0  0  0  0  0  0  0  0
    5.1840    2.9165    0.0000 C    0  0  0  0  0  0  0  0  0  0  0  0
    5.3670    3.7153    0.0000 C    0  0  0  0  0  0  0  0  0  0  0  0
  2  1  1  0  0  0  0
  3  1  1  0  0  0  0
  4  3  1  0  0  0  0
  4  5  1  0  0  0  0
  5  2  1  0  0  0  0
  6  4  2  0  0  0  0
  7 13  1  0  0  0  0
  8  7  3  0  0  0  0
  9 14  2  0  0  0  0
  9 15  1  0  0  0  0
 10  2  2  0  0  0  0
 11  3  2  0  0  0  0
 12  6  1  0  0  0  0
 13  1  1  0  0  0  0
 14 12  1  0  0  0  0
 15 16  2  0  0  0  0
 16 18  1  0  0  0  0
 17  9  1  0  0  0  0
 18 12  2  0  0  0  0
 19 15  1  0  0  0  0
 20 19  1  0  0  0  0
 21 20  1  0  0  0  0
M  END
> <CdId>
1205

> <Mol Weight>
366.23

> <Formula>
C15H12BrNO3S

> <Click_ID>
CLK016_E10 __ __ 

$$$$
