CLK014_E05
 OpenBabel03181413202D

 29 31  0  0  0  0  0  0  0  0999 V2000
    1.6949   -1.9973    0.0000 N   0  0  0  0  0  0  0  0  0  0  0  0
    0.2657   -1.9973    0.0000 C   0  0  0  0  0  0  0  0  0  0  0  0
    0.9803   -1.5850    0.0000 C   0  0  0  0  0  0  0  0  0  0  0  0
    1.6949   -2.8218    0.0000 C   0  0  0  0  0  0  0  0  0  0  0  0
    0.9803   -3.2341    0.0000 N   0  0  0  0  0  0  0  0  0  0  0  0
    0.2657   -2.8218    0.0000 C   0  0  0  0  0  0  0  0  0  0  0  0
    3.1241    0.4764    0.0000 N   0  3  0  0  0  0  0  0  0  0  0  0
    2.4095   -1.5850    0.0000 C   0  0  0  0  0  0  0  0  0  0  0  0
   -0.4489   -1.5850    0.0000 C   0  0  0  0  0  0  0  0  0  0  0  0
    2.4095   -0.7604    0.0000 C   0  0  0  0  0  0  0  0  0  0  0  0
    3.1241   -0.3482    0.0000 C   0  0  0  0  0  0  0  0  0  0  0  0
   -3.3073    0.8886    0.0000 C   0  0  0  0  0  0  0  0  0  0  0  0
    2.4095   -3.2341    0.0000 O   0  0  0  0  0  0  0  0  0  0  0  0
   -4.0219    0.4764    0.0000 C   0  0  0  0  0  0  0  0  0  0  0  0
    0.9803   -0.7604    0.0000 O   0  0  0  0  0  0  0  0  0  0  0  0
    3.8387    0.8886    0.0000 O   0  5  0  0  0  0  0  0  0  0  0  0
    2.4095    0.8886    0.0000 O   0  0  0  0  0  0  0  0  0  0  0  0
   -0.4489   -3.2341    0.0000 O   0  0  0  0  0  0  0  0  0  0  0  0
   -0.4489   -0.7604    0.0000 C   0  0  0  0  0  0  0  0  0  0  0  0
   -1.1635   -0.3482    0.0000 C   0  0  0  0  0  0  0  0  0  0  0  0
    3.1241   -1.9973    0.0000 C   0  0  0  0  0  0  0  0  0  0  0  0
   -1.1635    0.4764    0.0000 C   0  0  0  0  0  0  0  0  0  0  0  0
   -2.5927    0.4764    0.0000 C   0  0  0  0  0  0  0  0  0  0  0  0
   -1.8781    0.8886    0.0000 O   0  0  0  0  0  0  0  0  0  0  0  0
    3.8387   -0.7604    0.0000 C   0  0  0  0  0  0  0  0  0  0  0  0
    3.8387   -1.5850    0.0000 C   0  0  0  0  0  0  0  0  0  0  0  0
    0.2657    0.4764    0.0000 C   0  0  0  0  0  0  0  0  0  0  0  0
    0.2657   -0.3482    0.0000 C   0  0  0  0  0  0  0  0  0  0  0  0
   -0.4489    0.8886    0.0000 C   0  0  0  0  0  0  0  0  0  0  0  0
  2  3  1  0  0  0  0
  3  1  1  0  0  0  0
  4  1  1  0  0  0  0
  5  4  1  0  0  0  0
  6  5  1  0  0  0  0
  6  2  1  0  0  0  0
  7 11  1  0  0  0  0
  8  1  1  0  0  0  0
  9  2  2  0  0  0  0
 10  8  2  0  0  0  0
 11 10  1  0  0  0  0
 12 23  1  0  0  0  0
 13  4  2  0  0  0  0
 14 12  3  0  0  0  0
 15  3  2  0  0  0  0
 16  7  1  0  0  0  0
 17  7  2  0  0  0  0
 18  6  2  0  0  0  0
 19  9  1  0  0  0  0
 20 19  2  0  0  0  0
 21  8  1  0  0  0  0
 22 20  1  0  0  0  0
 23 24  1  0  0  0  0
 24 22  1  0  0  0  0
 25 26  1  0  0  0  0
 25 11  2  0  0  0  0
 26 21  2  0  0  0  0
 27 28  2  0  0  0  0
 28 19  1  0  0  0  0
 29 27  1  0  0  0  0
 29 22  2  0  0  0  0
M  END
> <CdId>
1040

> <Mol Weight>
391.3337

> <Formula>
C20H13N3O6

> <Click_ID>
CLK014_E05 __ __ 

$$$$
