CLK035_E11
 OpenBabel03181413202D

 31 33  0  0  0  0  0  0  0  0999 V2000
   -0.5471    2.1925    0.0000 C   0  0  0  0  0  0  0  0  0  0  0  0
    3.5624    4.2640    0.0000 S   0  0  0  0  0  0  0  0  0  0  0  0
    0.2423    2.4514    0.0000 N   0  0  0  0  0  0  0  0  0  0  0  0
   -0.8018    1.4032    0.0000 N   0  0  0  0  0  0  0  0  0  0  0  0
   -1.2153    2.6769    0.0000 S   0  0  0  0  0  0  0  0  0  0  0  0
   -1.6287    1.4032    0.0000 C   0  0  0  0  0  0  0  0  0  0  0  0
   -1.8793    2.1883    0.0000 C   0  0  0  0  0  0  0  0  0  0  0  0
    0.4177    3.2533    0.0000 C   0  0  0  0  0  0  0  0  0  0  0  0
   -2.1758    0.7976    0.0000 C   0  0  0  0  0  0  0  0  0  0  0  0
   -2.6895    2.3637    0.0000 C   0  0  0  0  0  0  0  0  0  0  0  0
    2.7731    4.0134    0.0000 C   0  0  0  0  0  0  0  0  0  0  0  0
    4.3517    4.5145    0.0000 N   0  0  0  0  0  0  0  0  0  0  0  0
   -2.9776    0.9647    0.0000 C   0  0  0  0  0  0  0  0  0  0  0  0
   -3.2407    1.7498    0.0000 C   0  0  0  0  0  0  0  0  0  0  0  0
    0.4928    0.8227    0.0000 C   0  0  0  0  0  0  0  0  0  0  0  0
    3.3118    5.0533    0.0000 O   0  0  0  0  0  0  0  0  0  0  0  0
    3.8129    3.4913    0.0000 O   0  0  0  0  0  0  0  0  0  0  0  0
    0.8394    1.5744    0.0000 C   0  0  0  0  0  0  0  0  0  0  0  0
    1.1944    3.5080    0.0000 C   0  0  0  0  0  0  0  0  0  0  0  0
   -0.1962    3.8087    0.0000 O   0  0  0  0  0  0  0  0  0  0  0  0
   -0.3215    0.7392    0.0000 C   0  0  0  0  0  0  0  0  0  0  0  0
    2.1549    4.5647    0.0000 C   0  0  0  0  0  0  0  0  0  0  0  0
    2.5977    3.2157    0.0000 C   0  0  0  0  0  0  0  0  0  0  0  0
    1.3698    4.3141    0.0000 C   0  0  0  0  0  0  0  0  0  0  0  0
    1.8083    2.9526    0.0000 C   0  0  0  0  0  0  0  0  0  0  0  0
   -3.5289    0.3466    0.0000 O   0  0  0  0  0  0  0  0  0  0  0  0
   -4.0426    1.9252    0.0000 O   0  0  0  0  0  0  0  0  0  0  0  0
    4.9656    3.9716    0.0000 C   0  0  0  0  0  0  0  0  0  0  0  0
    4.5271    5.3289    0.0000 C   0  0  0  0  0  0  0  0  0  0  0  0
   -3.2783   -0.4385    0.0000 C   0  0  0  0  0  0  0  0  0  0  0  0
   -4.5938    1.3113    0.0000 C   0  0  0  0  0  0  0  0  0  0  0  0
  2 11  1  0  0  0  0
  3  1  2  0  0  0  0
  4  1  1  0  0  0  0
  5  1  1  0  0  0  0
  6  4  1  0  0  0  0
  7  5  1  0  0  0  0
  7  6  2  0  0  0  0
  8  3  1  0  0  0  0
  9  6  1  0  0  0  0
 10  7  1  0  0  0  0
 11 23  2  0  0  0  0
 11 22  1  0  0  0  0
 12  2  1  0  0  0  0
 13  9  2  0  0  0  0
 13 14  1  0  0  0  0
 14 10  2  0  0  0  0
 15 21  1  0  0  0  0
 16  2  2  0  0  0  0
 17  2  2  0  0  0  0
 18 15  3  0  0  0  0
 19  8  1  0  0  0  0
 20  8  2  0  0  0  0
 21  4  1  0  0  0  0
 22 24  2  0  0  0  0
 23 25  1  0  0  0  0
 24 19  1  0  0  0  0
 25 19  2  0  0  0  0
 26 13  1  0  0  0  0
 27 14  1  0  0  0  0
 28 12  1  0  0  0  0
 29 12  1  0  0  0  0
 30 26  1  0  0  0  0
 31 27  1  0  0  0  0
M  END
> <CdId>
2695

> <Mol Weight>
459.539

> <Formula>
C21H21N3O5S2

> <Click_ID>
CLK035_E11 __ __ 

$$$$
