CLK017_D08
 OpenBabel03181413202D

 31 34  0  0  0  0  0  0  0  0999 V2000
    2.4917   -2.5375    0.0000 C   0  0  0  0  0  0  0  0  0  0  0  0
    3.2042   -2.1250    0.0000 C   0  0  0  0  0  0  0  0  0  0  0  0
    1.7667   -2.1250    0.0000 C   0  0  0  0  0  0  0  0  0  0  0  0
    2.4917   -5.4667    0.0000 C   0  0  0  0  0  0  0  0  0  0  0  0
    3.2042   -1.2917    0.0000 O   0  0  0  0  0  0  0  0  0  0  0  0
    1.7667   -1.2917    0.0000 O   0  0  0  0  0  0  0  0  0  0  0  0
    2.4917   -0.8792    0.0000 C   0  0  3  0  0  0  0  0  0  0  0  0
    3.2042   -5.8792    0.0000 C   0  0  0  0  0  0  0  0  0  0  0  0
    3.2042   -6.7042    0.0000 C   0  0  0  0  0  0  0  0  0  0  0  0
    3.6250   -3.5167    0.0000 C   0  0  0  0  0  0  0  0  0  0  0  0
    3.2125   -2.8042    0.0000 C   0  0  0  0  0  0  0  0  0  0  0  0
    2.4917   -0.0500    0.0000 C   0  0  0  0  0  0  0  0  0  0  0  0
    3.9250   -5.4667    0.0000 C   0  0  0  0  0  0  0  0  0  0  0  0
    1.0542   -2.5375    0.0000 O   0  0  0  0  0  0  0  0  0  0  0  0
    3.9250   -2.5375    0.0000 O   0  0  0  0  0  0  0  0  0  0  0  0
    3.9167   -7.1167    0.0000 C   0  0  0  0  0  0  0  0  0  0  0  0
    4.6417   -5.8792    0.0000 C   0  0  0  0  0  0  0  0  0  0  0  0
    4.6375   -6.7042    0.0000 C   0  0  0  0  0  0  0  0  0  0  0  0
    1.7750    0.3583    0.0000 C   0  0  0  0  0  0  0  0  0  0  0  0
    3.2125    0.3583    0.0000 C   0  0  0  0  0  0  0  0  0  0  0  0
    2.4917    1.6000    0.0000 C   0  0  0  0  0  0  0  0  0  0  0  0
    2.5000    2.4250    0.0000 S   0  0  0  0  0  0  0  0  0  0  0  0
    1.7750    1.1958    0.0000 C   0  0  0  0  0  0  0  0  0  0  0  0
    3.2125    1.1833    0.0000 C   0  0  0  0  0  0  0  0  0  0  0  0
    3.9292   -4.6500    0.0000 O   0  0  0  0  0  0  0  0  0  0  0  0
    3.2167   -4.2292    0.0000 C   0  0  0  0  0  0  0  0  0  0  0  0
    2.4917   -7.1167    0.0000 C   0  0  0  0  0  0  0  0  0  0  0  0
    3.9250   -7.9417    0.0000 C   0  0  0  0  0  0  0  0  0  0  0  0
    3.2167    2.8375    0.0000 C   0  0  0  0  0  0  0  0  0  0  0  0
    2.4875   -7.9417    0.0000 C   0  0  0  0  0  0  0  0  0  0  0  0
    3.2042   -8.3542    0.0000 C   0  0  0  0  0  0  0  0  0  0  0  0
  2  1  1  0  0  0  0
  3  1  1  0  0  0  0
  4  1  2  0  0  0  0
  5  2  1  0  0  0  0
  6  3  1  0  0  0  0
  7  6  1  0  0  0  0
  7  5  1  0  0  0  0
  8  4  1  0  0  0  0
  9  8  1  0  0  0  0
 10 26  1  0  0  0  0
 11 10  3  0  0  0  0
 12  7  1  0  0  0  0
 13  8  2  0  0  0  0
 14  3  2  0  0  0  0
 15  2  2  0  0  0  0
 16  9  1  0  0  0  0
 17 13  1  0  0  0  0
 18 17  2  0  0  0  0
 18 16  1  0  0  0  0
 19 12  1  0  0  0  0
 20 12  2  0  0  0  0
 21 24  2  0  0  0  0
 21 23  1  0  0  0  0
 22 21  1  0  0  0  0
 23 19  2  0  0  0  0
 24 20  1  0  0  0  0
 25 13  1  0  0  0  0
 26 25  1  0  0  0  0
 27  9  2  0  0  0  0
 28 16  2  0  0  0  0
 29 22  1  0  0  0  0
 30 27  1  0  0  0  0
 31 30  2  0  0  0  0
 31 28  1  0  0  0  0
M  END
> <CdId>
1273

> <Mol Weight>
430.472

> <Formula>
C25H18O5S

> <Click_ID>
CLK017_D08 __ __ 

$$$$
