CLK023_G03
 OpenBabel03181413202D

 26 28  0  0  0  0  0  0  0  0999 V2000
   -2.1088    1.1128    0.0000 N   0  0  0  0  0  0  0  0  0  0  0  0
   -2.4694    1.8375    0.0000 C   0  0  0  0  0  0  0  0  0  0  0  0
   -1.2948    1.2261    0.0000 C   0  0  0  0  0  0  0  0  0  0  0  0
   -1.1506    2.0367    0.0000 C   0  0  0  0  0  0  0  0  0  0  0  0
   -1.8821    2.4248    0.0000 N   0  0  0  0  0  0  0  0  0  0  0  0
   -0.3847    2.3252    0.0000 C   0  0  0  0  0  0  0  0  0  0  0  0
   -2.4935    0.3778    0.0000 C   0  0  0  0  0  0  0  0  0  0  0  0
    2.6446   -1.1231    0.0000 C   0  0  0  0  0  0  0  0  0  0  0  0
    3.2834   -1.6451    0.0000 C   0  0  0  0  0  0  0  0  0  0  0  0
   -3.2869    1.9612    0.0000 O   0  0  0  0  0  0  0  0  0  0  0  0
   -0.7247    0.6285    0.0000 O   0  0  0  0  0  0  0  0  0  0  0  0
    0.2541    1.7860    0.0000 C   0  0  0  0  0  0  0  0  0  0  0  0
   -2.0470   -0.3229    0.0000 C   0  0  0  0  0  0  0  0  0  0  0  0
   -1.1712   -1.7173    0.0000 C   0  0  0  0  0  0  0  0  0  0  0  0
    1.5147    0.7384    0.0000 C   0  0  0  0  0  0  0  0  0  0  0  0
   -0.7350   -2.4214    0.0000 F   0  0  0  0  0  0  0  0  0  0  0  0
    1.0269    2.0745    0.0000 C   0  0  0  0  0  0  0  0  0  0  0  0
    0.1133    0.9754    0.0000 C   0  0  0  0  0  0  0  0  0  0  0  0
   -2.4317   -1.0544    0.0000 C   0  0  0  0  0  0  0  0  0  0  0  0
   -1.2227   -0.2920    0.0000 C   0  0  0  0  0  0  0  0  0  0  0  0
   -0.7831   -0.9857    0.0000 C   0  0  0  0  0  0  0  0  0  0  0  0
   -1.9955   -1.7551    0.0000 C   0  0  0  0  0  0  0  0  0  0  0  0
    0.7384    0.4499    0.0000 C   0  0  0  0  0  0  0  0  0  0  0  0
    1.6589    1.5421    0.0000 C   0  0  0  0  0  0  0  0  0  0  0  0
    2.0127   -0.6045    0.0000 C   0  0  0  0  0  0  0  0  0  0  0  0
    2.1500    0.2026    0.0000 O   0  0  0  0  0  0  0  0  0  0  0  0
  2  1  1  0  0  0  0
  3  1  1  0  0  0  0
  4  3  1  0  0  0  0
  5  2  1  0  0  0  0
  5  4  1  0  0  0  0
  6  4  2  0  0  0  0
  7  1  1  0  0  0  0
  8 25  1  0  0  0  0
  9  8  3  0  0  0  0
 10  2  2  0  0  0  0
 11  3  2  0  0  0  0
 12  6  1  0  0  0  0
 13  7  1  0  0  0  0
 14 21  1  0  0  0  0
 14 22  2  0  0  0  0
 15 23  2  0  0  0  0
 15 24  1  0  0  0  0
 16 14  1  0  0  0  0
 17 12  1  0  0  0  0
 18 12  2  0  0  0  0
 19 13  2  0  0  0  0
 20 13  1  0  0  0  0
 21 20  2  0  0  0  0
 22 19  1  0  0  0  0
 23 18  1  0  0  0  0
 24 17  2  0  0  0  0
 25 26  1  0  0  0  0
 26 15  1  0  0  0  0
M  END
> <CdId>
1758

> <Mol Weight>
350.3431

> <Formula>
C20H15FN2O3

> <Click_ID>
CLK023_G03 __ __ 

$$$$
