CLK001_C08
 OpenBabel03181413202D

 33 36  0  0  0  0  0  0  0  0999 V2000
    0.2540    0.2806    0.0000 C    0  0  3  0  0  0  0  0  0  0  0  0
    0.9781   -0.1251    0.0000 C    0  0  0  0  0  0  0  0  0  0  0  0
    0.2502    1.0994    0.0000 C    0  0  0  0  0  0  0  0  0  0  0  0
   -0.4511   -0.1364    0.0000 C    0  0  0  0  0  0  0  0  0  0  0  0
    1.6832    0.3033    0.0000 C    0  0  0  0  0  0  0  0  0  0  0  0
    0.9819   -0.9326    0.0000 C    0  0  0  0  0  0  0  0  0  0  0  0
    0.9554    1.5164    0.0000 C    0  0  0  0  0  0  0  0  0  0  0  0
   -0.4738    1.5012    0.0000 C    0  0  0  0  0  0  0  0  0  0  0  0
   -1.1752    0.2615    0.0000 C    0  0  0  0  0  0  0  0  0  0  0  0
   -0.4360   -0.9629    0.0000 C    0  0  0  0  0  0  0  0  0  0  0  0
    1.6718    1.1183    0.0000 N    0  0  0  0  0  0  0  0  0  0  0  0
    2.3997   -0.0948    0.0000 C    0  0  0  0  0  0  0  0  0  0  0  0
    1.7059   -1.3458    0.0000 C    0  0  0  0  0  0  0  0  0  0  0  0
    0.2691   -1.3685    0.0000 O    0  0  0  0  0  0  0  0  0  0  0  0
    0.9439    2.3504    0.0000 C    0  0  0  0  0  0  0  0  0  0  0  0
   -0.4777    2.3239    0.0000 C    0  0  0  0  0  0  0  0  0  0  0  0
   -1.1866    1.0842    0.0000 O    0  0  0  0  0  0  0  0  0  0  0  0
   -1.8803   -0.1630    0.0000 C    0  0  0  0  0  0  0  0  0  0  0  0
   -1.1449   -1.3875    0.0000 C    0  0  0  0  0  0  0  0  0  0  0  0
    2.3807    1.5429    0.0000 C    0  0  0  0  0  0  0  0  0  0  0  0
    2.4111   -0.9288    0.0000 C    0  0  0  0  0  0  0  0  0  0  0  0
    0.2236    2.7447    0.0000 C    0  0  0  0  0  0  0  0  0  0  0  0
   -1.8652   -0.9894    0.0000 C    0  0  0  0  0  0  0  0  0  0  0  0
   -2.6044    0.2388    0.0000 O    0  0  0  0  0  0  0  0  0  0  0  0
   -1.1335   -2.2139    0.0000 Cl   0  0  0  0  0  0  0  0  0  0  0  0
    3.1010    1.1410    0.0000 C    0  0  0  0  0  0  0  0  0  0  0  0
   -2.5741   -1.4103    0.0000 O    0  0  0  0  0  0  0  0  0  0  0  0
   -2.6158    1.0615    0.0000 C    0  0  0  0  0  0  0  0  0  0  0  0
    3.8023    1.5656    0.0000 O    0  0  0  0  0  0  0  0  0  0  0  0
    3.1124    0.3146    0.0000 O    0  0  0  0  0  0  0  0  0  0  0  0
   -2.5627   -2.2404    0.0000 C    0  0  0  0  0  0  0  0  0  0  0  0
   -3.2754   -2.6613    0.0000 C    0  0  0  0  0  0  0  0  0  0  0  0
   -3.2641   -3.4915    0.0000 C    0  0  0  0  0  0  0  0  0  0  0  0
  1  2  1  0  0  0  0
  1  3  1  0  0  0  0
  1  4  1  0  0  0  0
  2  5  2  0  0  0  0
  2  6  1  0  0  0  0
  3  7  2  0  0  0  0
  3  8  1  0  0  0  0
  4  9  1  0  0  0  0
  4 10  2  0  0  0  0
  5 11  1  0  0  0  0
  5 12  1  0  0  0  0
  6 13  1  0  0  0  0
  6 14  2  0  0  0  0
  7 15  1  0  0  0  0
  7 11  1  0  0  0  0
  8 16  1  0  0  0  0
  8 17  2  0  0  0  0
  9 18  2  0  0  0  0
 10 19  1  0  0  0  0
 11 20  1  0  0  0  0
 12 21  1  0  0  0  0
 13 21  1  0  0  0  0
 15 22  1  0  0  0  0
 16 22  1  0  0  0  0
 18 23  1  0  0  0  0
 18 24  1  0  0  0  0
 19 25  1  0  0  0  0
 19 23  2  0  0  0  0
 20 26  1  0  0  0  0
 23 27  1  0  0  0  0
 24 28  1  0  0  0  0
 26 29  1  0  0  0  0
 26 30  2  0  0  0  0
 27 31  1  0  0  0  0
 31 32  1  0  0  0  0
 32 33  3  0  0  0  0
M  END
> <CdId>
27

> <Mol Weight>
469.914

> <Formula>
C25H24ClNO6

> <Click_ID>
CLK001_C08 __ __ 

$$$$
