CLK035_D11
 OpenBabel03181413202D

 33 36  0  0  0  0  0  0  0  0999 V2000
   -0.5476    2.1949    0.0000 C   0  0  0  0  0  0  0  0  0  0  0  0
    3.5620    4.2685    0.0000 S   0  0  0  0  0  0  0  0  0  0  0  0
    0.2425    2.4540    0.0000 N   0  0  0  0  0  0  0  0  0  0  0  0
   -0.8027    1.4047    0.0000 N   0  0  0  0  0  0  0  0  0  0  0  0
   -1.2166    2.6798    0.0000 S   0  0  0  0  0  0  0  0  0  0  0  0
   -1.6305    1.4047    0.0000 C   0  0  0  0  0  0  0  0  0  0  0  0
   -1.8813    2.1907    0.0000 C   0  0  0  0  0  0  0  0  0  0  0  0
    0.4181    3.2567    0.0000 C   0  0  0  0  0  0  0  0  0  0  0  0
    4.3563    4.5319    0.0000 N   0  0  0  0  0  0  0  0  0  0  0  0
   -2.1781    0.7985    0.0000 C   0  0  0  0  0  0  0  0  0  0  0  0
   -2.6923    2.3663    0.0000 C   0  0  0  0  0  0  0  0  0  0  0  0
    2.7760    4.0177    0.0000 C   0  0  0  0  0  0  0  0  0  0  0  0
   -2.9808    0.9657    0.0000 C   0  0  0  0  0  0  0  0  0  0  0  0
   -3.2442    1.7517    0.0000 C   0  0  0  0  0  0  0  0  0  0  0  0
    0.4934    0.8236    0.0000 C   0  0  0  0  0  0  0  0  0  0  0  0
    3.3028    5.0587    0.0000 O   0  0  0  0  0  0  0  0  0  0  0  0
    3.8170    3.4950    0.0000 O   0  0  0  0  0  0  0  0  0  0  0  0
    0.8403    1.5761    0.0000 C   0  0  0  0  0  0  0  0  0  0  0  0
    1.1957    3.5118    0.0000 C   0  0  0  0  0  0  0  0  0  0  0  0
   -0.1965    3.8128    0.0000 O   0  0  0  0  0  0  0  0  0  0  0  0
   -0.3219    0.7400    0.0000 C   0  0  0  0  0  0  0  0  0  0  0  0
    2.1615    4.5696    0.0000 C   0  0  0  0  0  0  0  0  0  0  0  0
    2.6004    3.2191    0.0000 C   0  0  0  0  0  0  0  0  0  0  0  0
    1.3713    4.3062    0.0000 C   0  0  0  0  0  0  0  0  0  0  0  0
    1.8186    2.9557    0.0000 C   0  0  0  0  0  0  0  0  0  0  0  0
   -3.5327    0.3470    0.0000 O   0  0  0  0  0  0  0  0  0  0  0  0
   -4.0469    1.9273    0.0000 O   0  0  0  0  0  0  0  0  0  0  0  0
    4.9667    3.9967    0.0000 C   0  0  0  0  0  0  0  0  0  0  0  0
    4.6824    5.2845    0.0000 C   0  0  0  0  0  0  0  0  0  0  0  0
   -3.2818   -0.4390    0.0000 C   0  0  0  0  0  0  0  0  0  0  0  0
   -4.5988    1.3127    0.0000 C   0  0  0  0  0  0  0  0  0  0  0  0
    5.5102    5.1967    0.0000 C   0  0  0  0  0  0  0  0  0  0  0  0
    5.6858    4.3940    0.0000 C   0  0  0  0  0  0  0  0  0  0  0  0
  2 12  1  0  0  0  0
  3  1  2  0  0  0  0
  4  1  1  0  0  0  0
  5  1  1  0  0  0  0
  6  4  1  0  0  0  0
  7  5  1  0  0  0  0
  7  6  2  0  0  0  0
  8  3  1  0  0  0  0
  9  2  1  0  0  0  0
 10  6  1  0  0  0  0
 11  7  1  0  0  0  0
 12 23  2  0  0  0  0
 12 22  1  0  0  0  0
 13 10  2  0  0  0  0
 13 14  1  0  0  0  0
 14 11  2  0  0  0  0
 15 21  1  0  0  0  0
 16  2  2  0  0  0  0
 17  2  2  0  0  0  0
 18 15  3  0  0  0  0
 19  8  1  0  0  0  0
 20  8  2  0  0  0  0
 21  4  1  0  0  0  0
 22 24  2  0  0  0  0
 23 25  1  0  0  0  0
 24 19  1  0  0  0  0
 25 19  2  0  0  0  0
 26 13  1  0  0  0  0
 27 14  1  0  0  0  0
 28  9  1  0  0  0  0
 29  9  1  0  0  0  0
 30 26  1  0  0  0  0
 31 27  1  0  0  0  0
 32 29  1  0  0  0  0
 33 28  1  0  0  0  0
 33 32  1  0  0  0  0
M  END
> <CdId>
2685

> <Mol Weight>
485.576

> <Formula>
C23H23N3O5S2

> <Click_ID>
CLK035_D11 __ __ 

$$$$
