CLK002_D07
 OpenBabel03181413202D

 27 29  0  0  0  0  0  0  0  0999 V2000
   -1.3142    0.9420    0.0000 N   0  0  0  0  0  0  0  0  0  0  0  0
   -1.9750    0.4443    0.0000 C   0  0  0  0  0  0  0  0  0  0  0  0
   -0.5203    0.6913    0.0000 C   0  0  0  0  0  0  0  0  0  0  0  0
   -1.3180    1.7661    0.0000 N   0  0  0  0  0  0  0  0  0  0  0  0
   -1.8762   -0.3760    0.0000 C   0  0  0  0  0  0  0  0  0  0  0  0
   -2.7309    0.7748    0.0000 C   0  0  0  0  0  0  0  0  0  0  0  0
   -0.0532    1.3711    0.0000 C   0  0  0  0  0  0  0  0  0  0  0  0
   -0.2544   -0.0873    0.0000 O   0  0  0  0  0  0  0  0  0  0  0  0
   -0.5470    2.0282    0.0000 C   0  0  0  0  0  0  0  0  0  0  0  0
   -2.5447   -0.8736    0.0000 C   0  0  0  0  0  0  0  0  0  0  0  0
   -3.3956    0.2811    0.0000 C   0  0  0  0  0  0  0  0  0  0  0  0
    0.7748    1.3863    0.0000 C   0  0  0  0  0  0  0  0  0  0  0  0
   -0.3076    2.8145    0.0000 O   0  0  0  0  0  0  0  0  0  0  0  0
   -3.3006   -0.5431    0.0000 C   0  0  0  0  0  0  0  0  0  0  0  0
    1.1927    0.6798    0.0000 C   0  0  0  0  0  0  0  0  0  0  0  0
   -3.9615   -1.0369    0.0000 F   0  0  0  0  0  0  0  0  0  0  0  0
    2.0168    0.6913    0.0000 C   0  0  0  0  0  0  0  0  0  0  0  0
    0.7938   -0.0456    0.0000 C   0  0  0  0  0  0  0  0  0  0  0  0
    2.4460   -0.0113    0.0000 C   0  0  0  0  0  0  0  0  0  0  0  0
    1.2192   -0.7521    0.0000 C   0  0  0  0  0  0  0  0  0  0  0  0
    2.0472   -0.7406    0.0000 C   0  0  0  0  0  0  0  0  0  0  0  0
    3.2702    0.0037    0.0000 O   0  0  0  0  0  0  0  0  0  0  0  0
    2.4726   -1.4432    0.0000 O   0  0  0  0  0  0  0  0  0  0  0  0
    3.6994   -0.7065    0.0000 C   0  0  0  0  0  0  0  0  0  0  0  0
    2.0738   -2.1688    0.0000 C   0  0  0  0  0  0  0  0  0  0  0  0
    1.2458   -2.1840    0.0000 C   0  0  0  0  0  0  0  0  0  0  0  0
    0.8470   -2.9018    0.0000 C   0  0  0  0  0  0  0  0  0  0  0  0
  1  2  1  0  0  0  0
  1  3  1  0  0  0  0
  1  4  1  0  0  0  0
  2  5  2  0  0  0  0
  2  6  1  0  0  0  0
  3  7  1  0  0  0  0
  3  8  2  0  0  0  0
  4  9  1  0  0  0  0
  5 10  1  0  0  0  0
  6 11  2  0  0  0  0
  7 12  2  0  0  0  0
  7  9  1  0  0  0  0
  9 13  2  0  0  0  0
 10 14  2  0  0  0  0
 11 14  1  0  0  0  0
 12 15  1  0  0  0  0
 14 16  1  0  0  0  0
 15 17  2  0  0  0  0
 15 18  1  0  0  0  0
 17 19  1  0  0  0  0
 18 20  2  0  0  0  0
 19 21  2  0  0  0  0
 19 22  1  0  0  0  0
 20 21  1  0  0  0  0
 21 23  1  0  0  0  0
 22 24  1  0  0  0  0
 23 25  1  0  0  0  0
 25 26  1  0  0  0  0
 26 27  3  0  0  0  0
M  END
> <CdId>
116

> <Mol Weight>
366.3425

> <Formula>
C20H15FN2O4

> <Click_ID>
CLK002_D07 __ __ 

$$$$
