CLK005_C11
 OpenBabel03181413202D

 23 24  0  0  0  0  0  0  0  0999 V2000
    3.5111   -1.9898    0.0000 S   0  0  0  0  0  0  0  0  0  0  0  0
    4.3444   -1.9939    0.0000 N   0  0  0  0  0  0  0  0  0  0  0  0
    6.8067   -3.4490    0.0000 C   0  0  0  0  0  0  0  0  0  0  0  0
    2.6904   -1.9815    0.0000 C   0  0  0  0  0  0  0  0  0  0  0  0
    4.7506   -2.7028    0.0000 C   0  0  0  0  0  0  0  0  0  0  0  0
    3.5111   -2.8147    0.0000 O   0  0  0  0  0  0  0  0  0  0  0  0
    3.5194   -1.1607    0.0000 O   0  0  0  0  0  0  0  0  0  0  0  0
    8.4441   -4.8874    0.0000 C   0  0  0  0  0  0  0  0  0  0  0  0
    8.8545   -5.6004    0.0000 C   0  0  0  0  0  0  0  0  0  0  0  0
    5.9817   -3.4365    0.0000 N   0  0  0  0  0  0  0  0  0  0  0  0
    7.2295   -2.7359    0.0000 O   0  0  0  0  0  0  0  0  0  0  0  0
    5.5631   -2.7152    0.0000 C   0  0  3  0  0  0  0  0  0  0  0  0
    7.2129   -4.1578    0.0000 N   0  0  0  0  0  0  0  0  0  0  0  0
    2.2675   -2.6986    0.0000 C   0  0  0  0  0  0  0  0  0  0  0  0
    2.2800   -1.2602    0.0000 C   0  0  0  0  0  0  0  0  0  0  0  0
    4.7672   -1.2851    0.0000 C   0  0  0  0  0  0  0  0  0  0  0  0
    1.4550   -1.2685    0.0000 C   0  0  0  0  0  0  0  0  0  0  0  0
    1.4426   -2.6862    0.0000 C   0  0  0  0  0  0  0  0  0  0  0  0
    1.0364   -1.9691    0.0000 C   0  0  0  0  0  0  0  0  0  0  0  0
    8.0379   -4.1703    0.0000 C   0  0  0  0  0  0  0  0  0  0  0  0
    5.5838   -1.2851    0.0000 C   0  0  0  0  0  0  0  0  0  0  0  0
    5.9859   -2.0064    0.0000 C   0  0  0  0  0  0  0  0  0  0  0  0
    0.2114   -1.9773    0.0000 C   0  0  0  0  0  0  0  0  0  0  0  0
  2  1  1  0  0  0  0
  3 10  1  0  0  0  0
  4  1  1  0  0  0  0
  5  2  1  0  0  0  0
  6  1  2  0  0  0  0
  7  1  2  0  0  0  0
  8 20  1  0  0  0  0
  9  8  3  0  0  0  0
 10 12  1  0  0  0  0
 11  3  2  0  0  0  0
 12  5  1  0  0  0  0
 13  3  1  0  0  0  0
 14  4  1  0  0  0  0
 15  4  2  0  0  0  0
 16  2  1  0  0  0  0
 17 15  1  0  0  0  0
 18 14  2  0  0  0  0
 19 17  2  0  0  0  0
 19 18  1  0  0  0  0
 20 13  1  0  0  0  0
 21 16  1  0  0  0  0
 22 21  1  0  0  0  0
 22 12  1  0  0  0  0
 23 19  1  0  0  0  0
M  END
> <CdId>
350

> <Mol Weight>
335.421

> <Formula>
C16H21N3O3S

> <Click_ID>
CLK005_C11 __ __ 

$$$$
