CLK035_E10
 OpenBabel03181413202D

 29 31  0  0  0  0  0  0  0  0999 V2000
    0.3908    2.5897    0.0000 C   0  0  0  0  0  0  0  0  0  0  0  0
   -0.2951    2.1907    0.0000 N   0  0  0  0  0  0  0  0  0  0  0  0
    1.1515    2.2655    0.0000 S   0  0  0  0  0  0  0  0  0  0  0  0
    1.7002    2.8890    0.0000 C   0  0  0  0  0  0  0  0  0  0  0  0
    0.4656    3.4253    0.0000 N   0  0  0  0  0  0  0  0  0  0  0  0
    1.2762    3.6123    0.0000 C   0  0  0  0  0  0  0  0  0  0  0  0
   -1.0101    2.6022    0.0000 C   0  0  0  0  0  0  0  0  0  0  0  0
   -1.7168    2.1824    0.0000 C   0  0  0  0  0  0  0  0  0  0  0  0
   -2.4318    2.5939    0.0000 C   0  0  0  0  0  0  0  0  0  0  0  0
   -0.0998    4.7930    0.0000 C   0  0  0  0  0  0  0  0  0  0  0  0
    2.5358    2.8932    0.0000 C   0  0  0  0  0  0  0  0  0  0  0  0
   -0.7939    5.2295    0.0000 C   0  0  0  0  0  0  0  0  0  0  0  0
    1.6836    4.3191    0.0000 C   0  0  0  0  0  0  0  0  0  0  0  0
   -1.0101    3.4253    0.0000 O   0  0  0  0  0  0  0  0  0  0  0  0
   -3.1426    2.1824    0.0000 C   0  0  0  0  0  0  0  0  0  0  0  0
   -0.1455    3.9740    0.0000 C   0  0  0  0  0  0  0  0  0  0  0  0
    2.9431    3.6248    0.0000 C   0  0  0  0  0  0  0  0  0  0  0  0
    2.4984    4.3316    0.0000 C   0  0  0  0  0  0  0  0  0  0  0  0
   -2.4401    3.4170    0.0000 O   0  0  0  0  0  0  0  0  0  0  0  0
   -1.7168    1.3551    0.0000 C   0  0  0  0  0  0  0  0  0  0  0  0
    2.9473    2.1782    0.0000 O   0  0  0  0  0  0  0  0  0  0  0  0
    1.2637    5.0175    0.0000 O   0  0  0  0  0  0  0  0  0  0  0  0
   -3.8618    2.5939    0.0000 O   0  0  0  0  0  0  0  0  0  0  0  0
   -2.4318    0.9436    0.0000 C   0  0  0  0  0  0  0  0  0  0  0  0
   -3.1426    1.3551    0.0000 C   0  0  0  0  0  0  0  0  0  0  0  0
   -3.1509    3.8243    0.0000 C   0  0  0  0  0  0  0  0  0  0  0  0
    1.6628    5.7158    0.0000 C   0  0  0  0  0  0  0  0  0  0  0  0
   -4.5726    2.1824    0.0000 C   0  0  0  0  0  0  0  0  0  0  0  0
    3.7662    2.1907    0.0000 C   0  0  0  0  0  0  0  0  0  0  0  0
  2  1  2  0  0  0  0
  3  1  1  0  0  0  0
  4  3  1  0  0  0  0
  4  6  2  0  0  0  0
  5  1  1  0  0  0  0
  6  5  1  0  0  0  0
  7  2  1  0  0  0  0
  8  7  1  0  0  0  0
  9  8  2  0  0  0  0
 10 16  1  0  0  0  0
 11  4  1  0  0  0  0
 12 10  3  0  0  0  0
 13  6  1  0  0  0  0
 14  7  2  0  0  0  0
 15  9  1  0  0  0  0
 16  5  1  0  0  0  0
 17 11  2  0  0  0  0
 18 13  2  0  0  0  0
 18 17  1  0  0  0  0
 19  9  1  0  0  0  0
 20  8  1  0  0  0  0
 21 11  1  0  0  0  0
 22 13  1  0  0  0  0
 23 15  1  0  0  0  0
 24 20  2  0  0  0  0
 25 24  1  0  0  0  0
 25 15  2  0  0  0  0
 26 19  1  0  0  0  0
 27 22  1  0  0  0  0
 28 23  1  0  0  0  0
 29 21  1  0  0  0  0
M  END
> <CdId>
2694

> <Mol Weight>
412.459

> <Formula>
C21H20N2O5S

> <Click_ID>
CLK035_E10 __ __ 

$$$$
