CLK034_A05
 OpenBabel03181413202D

 35 37  0  0  0  0  0  0  0  0999 V2000
   -4.5776    2.5468    0.0000 C   0  0  0  0  0  0  0  0  0  0  0  0
   -1.0071    5.4599    0.0000 S   0  0  0  0  0  0  0  0  0  0  0  0
   -3.8660    2.9671    0.0000 N   0  0  0  0  0  0  0  0  0  0  0  0
   -4.6692    1.7312    0.0000 N   0  0  0  0  0  0  0  0  0  0  0  0
   -5.3142    2.8922    0.0000 S   0  0  0  0  0  0  0  0  0  0  0  0
   -5.4765    1.5689    0.0000 C   0  0  0  0  0  0  0  0  0  0  0  0
   -5.8760    2.2930    0.0000 C   0  0  0  0  0  0  0  0  0  0  0  0
   -3.8660    3.7953    0.0000 C   0  0  0  0  0  0  0  0  0  0  0  0
   -6.6959    2.3054    0.0000 C   0  0  0  0  0  0  0  0  0  0  0  0
   -1.7229    5.0355    0.0000 C   0  0  0  0  0  0  0  0  0  0  0  0
   -0.2954    5.8719    0.0000 N   0  0  0  0  0  0  0  0  0  0  0  0
    2.5760    5.0687    0.0000 N   0  0  0  0  0  0  0  0  0  0  0  0
   -1.0237    8.7558    0.0000 N   0  0  0  0  0  0  0  0  0  0  0  0
   -4.2405    0.3496    0.0000 C   0  0  0  0  0  0  0  0  0  0  0  0
   -1.4315    6.1715    0.0000 O   0  0  0  0  0  0  0  0  0  0  0  0
   -0.5868    4.7358    0.0000 O   0  0  0  0  0  0  0  0  0  0  0  0
   -4.4153   -0.4536    0.0000 C   0  0  0  0  0  0  0  0  0  0  0  0
   -5.9010    0.8697    0.0000 C   0  0  0  0  0  0  0  0  0  0  0  0
   -1.0320    7.9319    0.0000 C   0  0  0  0  0  0  0  0  0  0  0  0
    1.8519    5.4724    0.0000 C   0  0  0  0  0  0  0  0  0  0  0  0
   -3.1544    4.2073    0.0000 C   0  0  0  0  0  0  0  0  0  0  0  0
   -7.1204    1.5980    0.0000 C   0  0  0  0  0  0  0  0  0  0  0  0
   -4.5901    4.2073    0.0000 O   0  0  0  0  0  0  0  0  0  0  0  0
   -6.7084    0.8822    0.0000 C   0  0  0  0  0  0  0  0  0  0  0  0
   -4.0533    1.1611    0.0000 C   0  0  0  0  0  0  0  0  0  0  0  0
   -2.4428    5.4350    0.0000 C   0  0  0  0  0  0  0  0  0  0  0  0
   -1.7187    4.2073    0.0000 C   0  0  0  0  0  0  0  0  0  0  0  0
   -2.4220    3.7953    0.0000 C   0  0  0  0  0  0  0  0  0  0  0  0
   -3.1461    5.0230    0.0000 C   0  0  0  0  0  0  0  0  0  0  0  0
   -1.0195    7.0954    0.0000 C   0  0  0  0  0  0  0  0  0  0  0  0
    1.1278    5.8844    0.0000 C   0  0  0  0  0  0  0  0  0  0  0  0
   -0.2996    6.6959    0.0000 C   0  0  0  0  0  0  0  0  0  0  0  0
    0.4162    5.4599    0.0000 C   0  0  0  0  0  0  0  0  0  0  0  0
   -7.0954    3.0295    0.0000 C   0  0  0  0  0  0  0  0  0  0  0  0
   -7.1079    0.1581    0.0000 C   0  0  0  0  0  0  0  0  0  0  0  0
  2 10  1  0  0  0  0
  3  1  2  0  0  0  0
  4  1  1  0  0  0  0
  5  1  1  0  0  0  0
  6  4  1  0  0  0  0
  7  5  1  0  0  0  0
  7  6  2  0  0  0  0
  8  3  1  0  0  0  0
  9  7  1  0  0  0  0
 10 26  1  0  0  0  0
 10 27  2  0  0  0  0
 11  2  1  0  0  0  0
 12 20  3  0  0  0  0
 13 19  3  0  0  0  0
 14 25  1  0  0  0  0
 15  2  2  0  0  0  0
 16  2  2  0  0  0  0
 17 14  3  0  0  0  0
 18  6  1  0  0  0  0
 19 30  1  0  0  0  0
 20 31  1  0  0  0  0
 21  8  1  0  0  0  0
 22  9  2  0  0  0  0
 23  8  2  0  0  0  0
 24 18  2  0  0  0  0
 24 22  1  0  0  0  0
 25  4  1  0  0  0  0
 26 29  2  0  0  0  0
 27 28  1  0  0  0  0
 28 21  2  0  0  0  0
 29 21  1  0  0  0  0
 30 32  1  0  0  0  0
 31 33  1  0  0  0  0
 32 11  1  0  0  0  0
 33 11  1  0  0  0  0
 34  9  1  0  0  0  0
 35 24  1  0  0  0  0
M  END
> <CdId>
2569

> <Mol Weight>
505.612

> <Formula>
C25H23N5O3S2

> <Click_ID>
CLK034_A05 __ __ 

$$$$
