CLK006_F08
 OpenBabel03181413202D

 24 27  0  0  0  0  0  0  0  0999 V2000
    5.3362   -6.2826    0.0000 C   0  0  0  0  0  0  0  0  0  0  0  0
    4.7984   -5.6573    0.0000 N   0  0  0  0  0  0  0  0  0  0  0  0
    4.9069   -6.9871    0.0000 N   0  0  0  0  0  0  0  0  0  0  0  0
    4.1064   -6.7912    0.0000 C   0  0  0  0  0  0  0  0  0  0  0  0
    4.0355   -5.9741    0.0000 C   0  0  0  0  0  0  0  0  0  0  0  0
    4.7026   -8.4046    0.0000 C   0  0  0  0  0  0  0  0  0  0  0  0
    4.1940   -9.0632    0.0000 C   0  0  0  0  0  0  0  0  0  0  0  0
    6.1534   -6.3076    0.0000 C   0  0  0  0  0  0  0  0  0  0  0  0
    7.7917   -7.7625    0.0000 C   0  0  0  0  0  0  0  0  0  0  0  0
    6.5494   -7.0288    0.0000 O   0  0  0  0  0  0  0  0  0  0  0  0
    7.3748   -7.0455    0.0000 C   0  0  0  0  0  0  0  0  0  0  0  0
    5.2153   -7.7542    0.0000 C   0  0  0  0  0  0  0  0  0  0  0  0
    8.6172   -7.7584    0.0000 C   0  0  0  0  0  0  0  0  0  0  0  0
    3.4311   -7.2665    0.0000 C   0  0  0  0  0  0  0  0  0  0  0  0
    3.2893   -5.6281    0.0000 C   0  0  0  0  0  0  0  0  0  0  0  0
    8.6130   -6.3326    0.0000 C   0  0  0  0  0  0  0  0  0  0  0  0
    7.7792   -6.3410    0.0000 C   0  0  0  0  0  0  0  0  0  0  0  0
    7.3832   -8.4796    0.0000 C   0  0  0  0  0  0  0  0  0  0  0  0
    9.0257   -7.0413    0.0000 C   0  0  0  0  0  0  0  0  0  0  0  0
    9.0341   -8.4754    0.0000 C   0  0  0  0  0  0  0  0  0  0  0  0
    2.6848   -6.9205    0.0000 C   0  0  0  0  0  0  0  0  0  0  0  0
    2.6181   -6.1075    0.0000 C   0  0  0  0  0  0  0  0  0  0  0  0
    7.7959   -9.1883    0.0000 C   0  0  0  0  0  0  0  0  0  0  0  0
    8.6297   -9.1800    0.0000 C   0  0  0  0  0  0  0  0  0  0  0  0
  2  1  2  0  0  0  0
  3  1  1  0  0  0  0
  4  3  1  0  0  0  0
  5  2  1  0  0  0  0
  5  4  1  0  0  0  0
  6 12  1  0  0  0  0
  7  6  3  0  0  0  0
  8  1  1  0  0  0  0
  9 11  2  0  0  0  0
 10  8  1  0  0  0  0
 11 10  1  0  0  0  0
 12  3  1  0  0  0  0
 13  9  1  0  0  0  0
 14  4  2  0  0  0  0
 15  5  2  0  0  0  0
 16 17  2  0  0  0  0
 17 11  1  0  0  0  0
 18  9  1  0  0  0  0
 19 16  1  0  0  0  0
 19 13  2  0  0  0  0
 20 13  1  0  0  0  0
 21 14  1  0  0  0  0
 22 15  1  0  0  0  0
 22 21  2  0  0  0  0
 23 18  2  0  0  0  0
 24 23  1  0  0  0  0
 24 20  2  0  0  0  0
M  END
> <CdId>
457

> <Mol Weight>
312.3645

> <Formula>
C21H16N2O

> <Click_ID>
CLK006_F08 __ __ 

$$$$
