CLK010_G10
 OpenBabel03181413202D

 30 32  0  0  0  0  0  0  0  0999 V2000
    2.4990   -0.6781    0.0000 N    0  0  0  0  0  0  0  0  0  0  0  0
    3.2065   -0.2554    0.0000 C    0  0  0  0  0  0  0  0  0  0  0  0
    2.4990   -1.5069    0.0000 C    0  0  0  0  0  0  0  0  0  0  0  0
    3.2065   -1.9130    0.0000 C    0  0  0  0  0  0  0  0  0  0  0  0
    3.9223   -0.6781    0.0000 N    0  0  0  0  0  0  0  0  0  0  0  0
    3.9223   -1.5069    0.0000 C    0  0  0  0  0  0  0  0  0  0  0  0
    1.7749   -0.2637    0.0000 C    0  0  0  0  0  0  0  0  0  0  0  0
    1.7749    0.5734    0.0000 C    0  0  0  0  0  0  0  0  0  0  0  0
    3.2065   -2.7418    0.0000 C    0  0  0  0  0  0  0  0  0  0  0  0
    3.2065    0.5734    0.0000 S    0  0  0  0  0  0  0  0  0  0  0  0
    6.7729   -5.6302    0.0000 C    0  0  0  0  0  0  0  0  0  0  0  0
    1.7749   -1.9214    0.0000 O    0  0  0  0  0  0  0  0  0  0  0  0
    7.4887   -6.0446    0.0000 C    0  0  0  0  0  0  0  0  0  0  0  0
    5.3539   -3.1520    0.0000 C    0  0  0  0  0  0  0  0  0  0  0  0
    4.6464   -1.9214    0.0000 O    0  0  0  0  0  0  0  0  0  0  0  0
    3.9223   -3.1520    0.0000 C    0  0  0  0  0  0  0  0  0  0  0  0
    1.0591    0.9795    0.0000 C    0  0  0  0  0  0  0  0  0  0  0  0
    4.6381   -2.7376    0.0000 C    0  0  0  0  0  0  0  0  0  0  0  0
    5.3539   -3.9683    0.0000 C    0  0  0  0  0  0  0  0  0  0  0  0
    2.4990    0.9879    0.0000 Cl   0  0  0  0  0  0  0  0  0  0  0  0
    4.6464   -4.3744    0.0000 C    0  0  0  0  0  0  0  0  0  0  0  0
    1.0591   -0.6781    0.0000 C    0  0  0  0  0  0  0  0  0  0  0  0
    3.9306   -3.9683    0.0000 C    0  0  0  0  0  0  0  0  0  0  0  0
    1.0591    1.8167    0.0000 Cl   0  0  0  0  0  0  0  0  0  0  0  0
    6.0697   -2.7418    0.0000 O    0  0  0  0  0  0  0  0  0  0  0  0
    6.0697   -4.3869    0.0000 O    0  0  0  0  0  0  0  0  0  0  0  0
    6.0655   -5.2115    0.0000 C    0  0  0  0  0  0  0  0  0  0  0  0
    0.3433   -0.2637    0.0000 C    0  0  0  0  0  0  0  0  0  0  0  0
    0.3433    0.5734    0.0000 C    0  0  0  0  0  0  0  0  0  0  0  0
    6.0697   -1.9256    0.0000 C    0  0  0  0  0  0  0  0  0  0  0  0
  2  1  1  0  0  0  0
  3  1  1  0  0  0  0
  4  3  1  0  0  0  0
  5  2  1  0  0  0  0
  6  4  1  0  0  0  0
  6  5  1  0  0  0  0
  7  1  1  0  0  0  0
  8  7  2  0  0  0  0
  9  4  2  0  0  0  0
 10  2  2  0  0  0  0
 11 27  1  0  0  0  0
 12  3  2  0  0  0  0
 13 11  3  0  0  0  0
 14 18  1  0  0  0  0
 15  6  2  0  0  0  0
 16  9  1  0  0  0  0
 17  8  1  0  0  0  0
 18 16  2  0  0  0  0
 19 21  1  0  0  0  0
 19 14  2  0  0  0  0
 20  8  1  0  0  0  0
 21 23  2  0  0  0  0
 22  7  1  0  0  0  0
 23 16  1  0  0  0  0
 24 17  1  0  0  0  0
 25 14  1  0  0  0  0
 26 19  1  0  0  0  0
 27 26  1  0  0  0  0
 28 22  2  0  0  0  0
 29 28  1  0  0  0  0
 29 17  2  0  0  0  0
 30 25  1  0  0  0  0
M  END
> <CdId>
745

> <Mol Weight>
461.318

> <Formula>
C21H14Cl2N2O4S

> <Click_ID>
CLK010_G10 __ __ 

$$$$
