CLK035_E03
 OpenBabel03181413202D

 25 27  0  0  0  0  0  0  0  0999 V2000
   -4.5935    2.5570    0.0000 C   0  0  0  0  0  0  0  0  0  0  0  0
   -3.8606    2.9818    0.0000 N   0  0  0  0  0  0  0  0  0  0  0  0
   -4.6810    1.7324    0.0000 N   0  0  0  0  0  0  0  0  0  0  0  0
   -5.3182    2.8944    0.0000 S   0  0  0  0  0  0  0  0  0  0  0  0
   -3.8689    3.7981    0.0000 C   0  0  0  0  0  0  0  0  0  0  0  0
   -5.4848    1.5825    0.0000 C   0  0  0  0  0  0  0  0  0  0  0  0
   -5.8929    2.2989    0.0000 C   0  0  0  0  0  0  0  0  0  0  0  0
   -3.1567    4.2104    0.0000 C   0  0  0  0  0  0  0  0  0  0  0  0
   -4.2562    0.3581    0.0000 C   0  0  0  0  0  0  0  0  0  0  0  0
   -4.4436   -0.4540    0.0000 C   0  0  0  0  0  0  0  0  0  0  0  0
   -5.9179    0.8829    0.0000 C   0  0  0  0  0  0  0  0  0  0  0  0
   -4.5810    4.2146    0.0000 O   0  0  0  0  0  0  0  0  0  0  0  0
   -3.1567    5.0225    0.0000 C   0  0  0  0  0  0  0  0  0  0  0  0
   -4.0688    1.1619    0.0000 C   0  0  0  0  0  0  0  0  0  0  0  0
   -6.7009    2.3197    0.0000 C   0  0  0  0  0  0  0  0  0  0  0  0
   -2.4363    3.7981    0.0000 C   0  0  0  0  0  0  0  0  0  0  0  0
   -3.8731    5.4390    0.0000 O   0  0  0  0  0  0  0  0  0  0  0  0
   -5.5181    0.1457    0.0000 O   0  0  0  0  0  0  0  0  0  0  0  0
   -7.1382    1.6200    0.0000 C   0  0  0  0  0  0  0  0  0  0  0  0
   -6.7259    0.8871    0.0000 C   0  0  0  0  0  0  0  0  0  0  0  0
   -2.4446    5.4390    0.0000 C   0  0  0  0  0  0  0  0  0  0  0  0
   -5.9554   -0.5539    0.0000 C   0  0  0  0  0  0  0  0  0  0  0  0
   -4.1563    6.2094    0.0000 C   0  0  0  0  0  0  0  0  0  0  0  0
   -1.7200    4.1979    0.0000 C   0  0  0  0  0  0  0  0  0  0  0  0
   -1.7242    5.0267    0.0000 C   0  0  0  0  0  0  0  0  0  0  0  0
  2  1  2  0  0  0  0
  3  1  1  0  0  0  0
  4  1  1  0  0  0  0
  5  2  1  0  0  0  0
  6  3  1  0  0  0  0
  7  4  1  0  0  0  0
  7  6  2  0  0  0  0
  8  5  1  0  0  0  0
  9 14  1  0  0  0  0
 10  9  3  0  0  0  0
 11  6  1  0  0  0  0
 12  5  2  0  0  0  0
 13  8  1  0  0  0  0
 14  3  1  0  0  0  0
 15  7  1  0  0  0  0
 16  8  2  0  0  0  0
 17 13  1  0  0  0  0
 18 11  1  0  0  0  0
 19 15  2  0  0  0  0
 20 11  2  0  0  0  0
 20 19  1  0  0  0  0
 21 13  2  0  0  0  0
 21 25  1  0  0  0  0
 22 18  1  0  0  0  0
 23 17  1  0  0  0  0
 24 16  1  0  0  0  0
 25 24  2  0  0  0  0
M  END
> <CdId>
2687

> <Mol Weight>
352.407

> <Formula>
C19H16N2O3S

> <Click_ID>
CLK035_E03 __ __ 

$$$$
