CLK044E04
 OpenBabel03181413202D

 21 22  0  0  0  0  0  0  0  0999 V2000
    0.2958   -0.1625    0.0000 S   0  0  0  0  0  0  0  0  0  0  0  0
    1.1208   -0.1625    0.0000 C   0  0  0  0  0  0  0  0  0  0  0  0
    1.6042   -0.8292    0.0000 C   0  0  0  0  0  0  0  0  0  0  0  0
   -0.5292   -0.1625    0.0000 N   0  0  0  0  0  0  0  0  0  0  0  0
    1.3500   -1.6125    0.0000 C   0  0  0  0  0  0  0  0  0  0  0  0
    2.3917   -0.5750    0.0000 S   0  0  0  0  0  0  0  0  0  0  0  0
    1.6042    0.5042    0.0000 C   0  0  0  0  0  0  0  0  0  0  0  0
    0.2958    0.6625    0.0000 O   0  0  0  0  0  0  0  0  0  0  0  0
    0.2958   -0.9875    0.0000 O   0  0  0  0  0  0  0  0  0  0  0  0
   -3.0042    1.2667    0.0000 C   0  0  0  0  0  0  0  0  0  0  0  0
    2.3917    0.2500    0.0000 C   0  0  0  0  0  0  0  0  0  0  0  0
   -3.8292    1.2667    0.0000 C   0  0  0  0  0  0  0  0  0  0  0  0
   -0.9417    0.5542    0.0000 C   0  0  0  0  0  0  0  0  0  0  0  0
    0.5417   -1.7833    0.0000 O   0  0  0  0  0  0  0  0  0  0  0  0
   -2.1792    1.2667    0.0000 C   0  0  0  0  0  0  0  0  0  0  0  0
   -1.7667    0.5542    0.0000 C   0  0  0  0  0  0  0  0  0  0  0  0
    1.9042   -2.2250    0.0000 O   0  0  0  0  0  0  0  0  0  0  0  0
   -0.9417    1.9833    0.0000 C   0  0  0  0  0  0  0  0  0  0  0  0
   -0.5292    1.2667    0.0000 C   0  0  0  0  0  0  0  0  0  0  0  0
   -1.7667    1.9833    0.0000 C   0  0  0  0  0  0  0  0  0  0  0  0
    1.6458   -3.0125    0.0000 C   0  0  0  0  0  0  0  0  0  0  0  0
  2  1  1  0  0  0  0
  3  2  2  0  0  0  0
  4  1  1  0  0  0  0
  5  3  1  0  0  0  0
  6  3  1  0  0  0  0
  7  2  1  0  0  0  0
  8  1  2  0  0  0  0
  9  1  2  0  0  0  0
 10 15  1  0  0  0  0
 11  7  2  0  0  0  0
 11  6  1  0  0  0  0
 12 10  3  0  0  0  0
 13  4  1  0  0  0  0
 14  5  2  0  0  0  0
 15 16  1  0  0  0  0
 16 13  2  0  0  0  0
 17  5  1  0  0  0  0
 18 19  2  0  0  0  0
 19 13  1  0  0  0  0
 20 15  2  0  0  0  0
 20 18  1  0  0  0  0
 21 17  1  0  0  0  0
M  END
> <CdId>
3349

> <Mol Weight>
321.371

> <Formula>
C14H11NO4S2

> <Click_ID>
CLK044E04 __ __ 

$$$$
