CLK036_C06
 OpenBabel03181413202D

 25 27  0  0  0  0  0  0  0  0999 V2000
   -1.3603    2.5158    0.0000 C    0  0  0  0  0  0  0  0  0  0  0  0
   -2.7535    2.5158    0.0000 C    0  0  0  0  0  0  0  0  0  0  0  0
   -2.0610    2.9338    0.0000 C    0  0  0  0  0  0  0  0  0  0  0  0
   -0.6638   -1.1350    0.0000 N    0  0  0  0  0  0  0  0  0  0  0  0
   -1.3603    1.7045    0.0000 C    0  0  0  0  0  0  0  0  0  0  0  0
   -2.7535    1.7045    0.0000 C    0  0  0  0  0  0  0  0  0  0  0  0
   -2.0610    1.3030    0.0000 O    0  0  0  0  0  0  0  0  0  0  0  0
   -0.6884   -2.0078    0.0000 C    0  0  0  0  0  0  0  0  0  0  0  0
   -0.6597    0.4630    0.0000 N    0  0  0  0  0  0  0  0  0  0  0  0
   -3.5648    3.9623    0.0000 C    0  0  0  0  0  0  0  0  0  0  0  0
   -3.1592    4.6999    0.0000 C    0  0  0  0  0  0  0  0  0  0  0  0
    0.0533   -2.4626    0.0000 C    0  0  0  0  0  0  0  0  0  0  0  0
   -0.6597    1.2989    0.0000 C    0  0  0  0  0  0  0  0  0  0  0  0
    0.0164   -0.7417    0.0000 C    0  0  0  0  0  0  0  0  0  0  0  0
   -1.3522   -0.7376    0.0000 C    0  0  0  0  0  0  0  0  0  0  0  0
   -2.0610    3.7369    0.0000 O    0  0  0  0  0  0  0  0  0  0  0  0
    0.0246    0.0573    0.0000 C    0  0  0  0  0  0  0  0  0  0  0  0
   -1.3480    0.0615    0.0000 C    0  0  0  0  0  0  0  0  0  0  0  0
    0.0287   -3.3354    0.0000 C    0  0  0  0  0  0  0  0  0  0  0  0
   -3.5648    2.5158    0.0000 O    0  0  0  0  0  0  0  0  0  0  0  0
    0.7786   -3.7984    0.0000 Cl   0  0  0  0  0  0  0  0  0  0  0  0
   -3.9909    3.2452    0.0000 C    0  0  0  0  0  0  0  0  0  0  0  0
   -1.4628   -2.4258    0.0000 C    0  0  0  0  0  0  0  0  0  0  0  0
   -1.4874   -3.2985    0.0000 C    0  0  0  0  0  0  0  0  0  0  0  0
   -0.7457   -3.7615    0.0000 C    0  0  0  0  0  0  0  0  0  0  0  0
  2  3  1  0  0  0  0
  3  1  1  0  0  0  0
  4 15  1  0  0  0  0
  4 14  1  0  0  0  0
  5  1  2  0  0  0  0
  6  7  1  0  0  0  0
  6  2  2  0  0  0  0
  7  5  1  0  0  0  0
  8  4  1  0  0  0  0
  9 13  1  0  0  0  0
 10 22  1  0  0  0  0
 11 10  3  0  0  0  0
 12  8  1  0  0  0  0
 13  5  1  0  0  0  0
 14 17  1  0  0  0  0
 15 18  1  0  0  0  0
 16  3  2  0  0  0  0
 17  9  1  0  0  0  0
 18  9  1  0  0  0  0
 19 12  2  0  0  0  0
 20  2  1  0  0  0  0
 21 19  1  0  0  0  0
 22 20  1  0  0  0  0
 23  8  2  0  0  0  0
 24 23  1  0  0  0  0
 25 24  2  0  0  0  0
 25 19  1  0  0  0  0
M  END
> <CdId>
2742

> <Mol Weight>
358.819

> <Formula>
C19H19ClN2O3

> <Click_ID>
CLK036_C06 __ __ 

$$$$
