CLK047C10
 OpenBabel03181413202D

 26 28  0  0  0  0  0  0  0  0999 V2000
    1.1625    0.8000    0.0000 C   0  0  0  0  0  0  0  0  0  0  0  0
   -0.9000    0.0833    0.0000 C   0  0  0  0  0  0  0  0  0  0  0  0
    2.4333    0.3875    0.0000 N   0  0  0  0  0  0  0  0  0  0  0  0
   -1.3125    0.8000    0.0000 C   0  0  0  0  0  0  0  0  0  0  0  0
    2.4333    1.2125    0.0000 O   0  0  0  0  0  0  0  0  0  0  0  0
    1.6458    1.4667    0.0000 C   0  0  0  0  0  0  0  0  0  0  0  0
    1.6458    0.1333    0.0000 C   0  0  0  0  0  0  0  0  0  0  0  0
    0.3375    0.8000    0.0000 C   0  0  0  0  0  0  0  0  0  0  0  0
   -1.3125   -0.6292    0.0000 N   0  0  0  0  0  0  0  0  0  0  0  0
    1.1625   -2.0583    0.0000 C   0  0  0  0  0  0  0  0  0  0  0  0
   -0.0750    1.5125    0.0000 S   0  0  0  0  0  0  0  0  0  0  0  0
    1.9875   -2.0583    0.0000 C   0  0  0  0  0  0  0  0  0  0  0  0
   -0.9000    1.5125    0.0000 C   0  0  0  0  0  0  0  0  0  0  0  0
   -0.0750    0.0833    0.0000 O   0  0  0  0  0  0  0  0  0  0  0  0
   -0.9000   -1.3458    0.0000 C   0  0  0  0  0  0  0  0  0  0  0  0
    0.3375   -2.0583    0.0000 C   0  0  0  0  0  0  0  0  0  0  0  0
   -0.0750   -1.3458    0.0000 C   0  0  0  0  0  0  0  0  0  0  0  0
   -2.1375    0.8000    0.0000 C   0  0  0  0  0  0  0  0  0  0  0  0
    1.3917    2.2500    0.0000 C   0  0  0  0  0  0  0  0  0  0  0  0
    1.3917   -0.6542    0.0000 C   0  0  0  0  0  0  0  0  0  0  0  0
   -0.9000   -2.7750    0.0000 C   0  0  0  0  0  0  0  0  0  0  0  0
   -1.3125   -2.0583    0.0000 C   0  0  0  0  0  0  0  0  0  0  0  0
   -1.3125    2.2292    0.0000 C   0  0  0  0  0  0  0  0  0  0  0  0
   -0.0750   -2.7750    0.0000 C   0  0  0  0  0  0  0  0  0  0  0  0
   -2.5500    1.5125    0.0000 C   0  0  0  0  0  0  0  0  0  0  0  0
   -2.1375    2.2292    0.0000 C   0  0  0  0  0  0  0  0  0  0  0  0
  2  4  1  0  0  0  0
  3  7  2  0  0  0  0
  4 13  2  0  0  0  0
  5  6  1  0  0  0  0
  5  3  1  0  0  0  0
  6  1  2  0  0  0  0
  7  1  1  0  0  0  0
  8  1  1  0  0  0  0
  9  2  1  0  0  0  0
 10 16  1  0  0  0  0
 11  8  1  0  0  0  0
 12 10  3  0  0  0  0
 13 11  1  0  0  0  0
 14  2  2  0  0  0  0
 15  9  1  0  0  0  0
 16 17  1  0  0  0  0
 17 15  2  0  0  0  0
 18  4  1  0  0  0  0
 19  6  1  0  0  0  0
 20  7  1  0  0  0  0
 21 22  2  0  0  0  0
 22 15  1  0  0  0  0
 23 13  1  0  0  0  0
 24 16  2  0  0  0  0
 24 21  1  0  0  0  0
 25 18  2  0  0  0  0
 25 26  1  0  0  0  0
 26 23  2  0  0  0  0
M  END
> <CdId>
3635

> <Mol Weight>
362.445

> <Formula>
C21H18N2O2S

> <Click_ID>
CLK047C10 __ __ 

$$$$
