CLK017_G06
 OpenBabel03181413202D

 21 22  0  0  0  0  0  0  0  0999 V2000
    6.3971   -0.3651    0.0000 N    0  0  0  0  0  0  0  0  0  0  0  0
    6.4760   -1.1823    0.0000 C    0  0  0  0  0  0  0  0  0  0  0  0
    5.1816   -0.8961    0.0000 C    0  0  0  0  0  0  0  0  0  0  0  0
    5.5923   -0.1867    0.0000 C    0  0  0  0  0  0  0  0  0  0  0  0
    5.7250   -1.5101    0.0000 S    0  0  0  0  0  0  0  0  0  0  0  0
    4.3602   -0.9749    0.0000 C    0  0  0  0  0  0  0  0  0  0  0  0
    4.0242   -1.7341    0.0000 C    0  0  0  0  0  0  0  0  0  0  0  0
    7.1854   -1.5931    0.0000 S    0  0  0  0  0  0  0  0  0  0  0  0
    1.4313   -0.5642    0.0000 C    0  0  0  0  0  0  0  0  0  0  0  0
    0.9459    0.0954    0.0000 C    0  0  0  0  0  0  0  0  0  0  0  0
    5.2645    0.5683    0.0000 O    0  0  0  0  0  0  0  0  0  0  0  0
    3.2027   -1.8088    0.0000 C    0  0  0  0  0  0  0  0  0  0  0  0
    4.5054   -2.3938    0.0000 C    0  0  0  0  0  0  0  0  0  0  0  0
    7.0111    0.1825    0.0000 C    0  0  0  0  0  0  0  0  0  0  0  0
    2.8625   -2.5638    0.0000 C    0  0  0  0  0  0  0  0  0  0  0  0
    4.1611   -3.1530    0.0000 C    0  0  0  0  0  0  0  0  0  0  0  0
    3.3396   -3.2401    0.0000 C    0  0  0  0  0  0  0  0  0  0  0  0
    4.6464   -3.8208    0.0000 Br   0  0  0  0  0  0  0  0  0  0  0  0
    2.7256   -1.1492    0.0000 O    0  0  0  0  0  0  0  0  0  0  0  0
    1.9084   -1.2321    0.0000 C    0  0  0  0  0  0  0  0  0  0  0  0
    6.8452    0.9915    0.0000 C    0  0  0  0  0  0  0  0  0  0  0  0
  2  1  1  0  0  0  0
  3  4  1  0  0  0  0
  4  1  1  0  0  0  0
  5  2  1  0  0  0  0
  5  3  1  0  0  0  0
  6  3  2  0  0  0  0
  7  6  1  0  0  0  0
  8  2  2  0  0  0  0
  9 20  1  0  0  0  0
 10  9  3  0  0  0  0
 11  4  2  0  0  0  0
 12  7  2  0  0  0  0
 13  7  1  0  0  0  0
 14  1  1  0  0  0  0
 15 12  1  0  0  0  0
 16 13  2  0  0  0  0
 17 16  1  0  0  0  0
 17 15  2  0  0  0  0
 18 16  1  0  0  0  0
 19 12  1  0  0  0  0
 20 19  1  0  0  0  0
 21 14  1  0  0  0  0
M  END
> <CdId>
1301

> <Mol Weight>
382.295

> <Formula>
C15H12BrNO2S2

> <Click_ID>
CLK017_G06 __ __ 

$$$$
