CLK045H08
 OpenBabel03181413202D

 22 23  0  0  0  0  0  0  0  0999 V2000
   -0.2958    3.7708    0.0000 C   0  0  0  0  0  0  0  0  0  0  0  0
   -1.0083    4.1792    0.0000 C   0  0  0  0  0  0  0  0  0  0  0  0
    0.4208    0.0583    0.0000 C   0  0  0  0  0  0  0  0  0  0  0  0
    1.1333    1.2958    0.0000 N   0  0  0  0  0  0  0  0  0  0  0  0
    1.1333   -0.3542    0.0000 O   0  0  0  0  0  0  0  0  0  0  0  0
   -0.2958   -0.3542    0.0000 N   0  0  0  0  0  0  0  0  0  0  0  0
    0.4208    3.3583    0.0000 C   0  0  0  0  0  0  0  0  0  0  0  0
    0.4208    0.8833    0.0000 C   0  0  0  0  0  0  0  0  0  0  0  0
    1.1333    2.1208    0.0000 C   0  0  0  0  0  0  0  0  0  0  0  0
   -1.0083   -4.0667    0.0000 C   0  0  0  0  0  0  0  0  0  0  0  0
    0.4208    2.5333    0.0000 C   0  0  0  0  0  0  0  0  0  0  0  0
   -1.0083   -2.4167    0.0000 C   0  0  0  0  0  0  0  0  0  0  0  0
   -1.0083   -4.8917    0.0000 F   0  0  0  0  0  0  0  0  0  0  0  0
   -0.2958   -3.6542    0.0000 C   0  0  0  0  0  0  0  0  0  0  0  0
   -1.7250   -3.6542    0.0000 C   0  0  0  0  0  0  0  0  0  0  0  0
   -1.7250   -2.8292    0.0000 C   0  0  0  0  0  0  0  0  0  0  0  0
   -0.2958   -2.8292    0.0000 C   0  0  0  0  0  0  0  0  0  0  0  0
   -0.2958   -1.1792    0.0000 C   0  0  0  0  0  0  0  0  0  0  0  0
    1.8500    3.3583    0.0000 C   0  0  0  0  0  0  0  0  0  0  0  0
   -1.0083   -1.5917    0.0000 C   0  0  0  0  0  0  0  0  0  0  0  0
    1.1333    3.7708    0.0000 C   0  0  0  0  0  0  0  0  0  0  0  0
    1.8500    2.5333    0.0000 C   0  0  0  0  0  0  0  0  0  0  0  0
  2  1  3  0  0  0  0
  3  8  1  0  0  0  0
  4  9  1  0  0  0  0
  5  3  2  0  0  0  0
  6  3  1  0  0  0  0
  7  1  1  0  0  0  0
  8  4  1  0  0  0  0
  9 11  2  0  0  0  0
 10 15  2  0  0  0  0
 11  7  1  0  0  0  0
 12 20  1  0  0  0  0
 13 10  1  0  0  0  0
 14 17  2  0  0  0  0
 14 10  1  0  0  0  0
 15 16  1  0  0  0  0
 16 12  2  0  0  0  0
 17 12  1  0  0  0  0
 18  6  1  0  0  0  0
 19 21  1  0  0  0  0
 19 22  2  0  0  0  0
 20 18  1  0  0  0  0
 21  7  2  0  0  0  0
 22  9  1  0  0  0  0
M  END
> <CdId>
3464

> <Mol Weight>
296.3388

> <Formula>
C18H17FN2O

> <Click_ID>
CLK045H08 __ __ 

$$$$
