CLK052B06
 OpenBabel03181413202D

 32 34  0  0  0  0  0  0  0  0999 V2000
    3.2333    0.6333    0.0000 S   0  0  0  0  0  0  0  0  0  0  0  0
    0.3792    2.2833    0.0000 C   0  0  0  0  0  0  0  0  0  0  0  0
   -0.3375    1.8708    0.0000 N   0  0  0  0  0  0  0  0  0  0  0  0
    2.5208    1.0458    0.0000 C   0  0  0  0  0  0  0  0  0  0  0  0
    4.6625   -1.0167    0.0000 C   0  0  0  0  0  0  0  0  0  0  0  0
   -1.7667    1.0458    0.0000 N   0  0  0  0  0  0  0  0  0  0  0  0
    5.3792   -1.4292    0.0000 C   0  0  0  0  0  0  0  0  0  0  0  0
    3.6458    1.3500    0.0000 O   0  0  0  0  0  0  0  0  0  0  0  0
    2.8208   -0.0792    0.0000 O   0  0  0  0  0  0  0  0  0  0  0  0
    1.0917    1.8708    0.0000 C   0  0  0  0  0  0  0  0  0  0  0  0
    3.9500    0.2208    0.0000 N   0  0  0  0  0  0  0  0  0  0  0  0
    0.3792    3.1083    0.0000 O   0  0  0  0  0  0  0  0  0  0  0  0
   -0.3375    1.0458    0.0000 C   0  0  0  0  0  0  0  0  0  0  0  0
   -1.0500    2.2833    0.0000 C   0  0  0  0  0  0  0  0  0  0  0  0
    1.8083    0.6333    0.0000 C   0  0  0  0  0  0  0  0  0  0  0  0
    2.5208    1.8708    0.0000 C   0  0  0  0  0  0  0  0  0  0  0  0
    1.0917    1.0458    0.0000 C   0  0  0  0  0  0  0  0  0  0  0  0
    1.8083    2.2833    0.0000 C   0  0  0  0  0  0  0  0  0  0  0  0
   -1.0500    0.6333    0.0000 C   0  0  0  0  0  0  0  0  0  0  0  0
   -1.7667    1.8708    0.0000 C   0  0  0  0  0  0  0  0  0  0  0  0
   -3.1958   -1.4292    0.0000 C   0  0  0  0  0  0  0  0  0  0  0  0
   -3.1958   -3.0792    0.0000 C   0  0  0  0  0  0  0  0  0  0  0  0
    3.9500   -0.6042    0.0000 C   0  0  0  0  0  0  0  0  0  0  0  0
   -2.4792   -2.6667    0.0000 C   0  0  0  0  0  0  0  0  0  0  0  0
   -2.4792   -1.8417    0.0000 C   0  0  0  0  0  0  0  0  0  0  0  0
   -3.9083   -1.8417    0.0000 C   0  0  0  0  0  0  0  0  0  0  0  0
   -3.9083   -2.6667    0.0000 C   0  0  0  0  0  0  0  0  0  0  0  0
   -3.1958   -0.6042    0.0000 O   0  0  0  0  0  0  0  0  0  0  0  0
   -2.4792    0.6333    0.0000 C   0  0  0  0  0  0  0  0  0  0  0  0
   -2.4792   -0.1917    0.0000 C   0  0  0  0  0  0  0  0  0  0  0  0
   -3.1958   -3.9042    0.0000 O   0  0  0  0  0  0  0  0  0  0  0  0
   -2.4792   -4.3167    0.0000 C   0  0  0  0  0  0  0  0  0  0  0  0
  2 10  1  0  0  0  0
  3  2  1  0  0  0  0
  4  1  1  0  0  0  0
  5 23  1  0  0  0  0
  6 20  1  0  0  0  0
  7  5  3  0  0  0  0
  8  1  2  0  0  0  0
  9  1  2  0  0  0  0
 10 18  2  0  0  0  0
 11  1  1  0  0  0  0
 12  2  2  0  0  0  0
 13  3  1  0  0  0  0
 14  3  1  0  0  0  0
 15  4  1  0  0  0  0
 16  4  2  0  0  0  0
 17 15  2  0  0  0  0
 17 10  1  0  0  0  0
 18 16  1  0  0  0  0
 19 13  1  0  0  0  0
 19  6  1  0  0  0  0
 20 14  1  0  0  0  0
 21 28  1  0  0  0  0
 22 27  2  0  0  0  0
 23 11  1  0  0  0  0
 24 25  2  0  0  0  0
 24 22  1  0  0  0  0
 25 21  1  0  0  0  0
 26 21  2  0  0  0  0
 27 26  1  0  0  0  0
 28 30  1  0  0  0  0
 29  6  1  0  0  0  0
 30 29  1  0  0  0  0
 31 22  1  0  0  0  0
 32 31  1  0  0  0  0
M  END
> <CdId>
4002

> <Mol Weight>
457.543

> <Formula>
C23H27N3O5S

> <Click_ID>
CLK052B06 __ __ 

$$$$
