CLK001_E06
 OpenBabel03181413202D

 23 25  0  0  0  0  0  0  0  0999 V2000
   -0.3071    0.0000    0.0000 N   0  0  0  0  0  0  0  0  0  0  0  0
   -0.3071    0.8316    0.0000 C   0  0  0  0  0  0  0  0  0  0  0  0
    0.4072   -0.4210    0.0000 C   0  0  0  0  0  0  0  0  0  0  0  0
   -1.0318   -0.4106    0.0000 C   0  0  0  0  0  0  0  0  0  0  0  0
   -1.0249    1.2526    0.0000 N   0  0  0  0  0  0  0  0  0  0  0  0
    0.4141    1.2388    0.0000 S   0  0  0  0  0  0  0  0  0  0  0  0
    0.4037   -1.2457    0.0000 C   0  0  0  0  0  0  0  0  0  0  0  0
    1.1180   -0.0069    0.0000 C   0  0  0  0  0  0  0  0  0  0  0  0
   -1.7461    0.0000    0.0000 C   0  0  0  0  0  0  0  0  0  0  0  0
   -1.0318   -1.2354    0.0000 O   0  0  0  0  0  0  0  0  0  0  0  0
   -1.7461    0.8316    0.0000 C   0  0  0  0  0  0  0  0  0  0  0  0
    1.1284    0.8282    0.0000 C   0  0  0  0  0  0  0  0  0  0  0  0
    1.1146   -1.6564    0.0000 C   0  0  0  0  0  0  0  0  0  0  0  0
    1.8323   -0.4210    0.0000 C   0  0  0  0  0  0  0  0  0  0  0  0
   -2.4570   -0.4106    0.0000 C   0  0  0  0  0  0  0  0  0  0  0  0
   -2.4570    1.2457    0.0000 C   0  0  0  0  0  0  0  0  0  0  0  0
    1.8393    1.2457    0.0000 C   0  0  0  0  0  0  0  0  0  0  0  0
    1.8323   -1.2492    0.0000 C   0  0  0  0  0  0  0  0  0  0  0  0
   -3.1713    0.0000    0.0000 C   0  0  0  0  0  0  0  0  0  0  0  0
   -3.1713    0.8316    0.0000 C   0  0  0  0  0  0  0  0  0  0  0  0
    2.5536    1.6667    0.0000 C   0  0  0  0  0  0  0  0  0  0  0  0
    2.5467   -1.6633    0.0000 O   0  0  0  0  0  0  0  0  0  0  0  0
    3.2576   -1.2492    0.0000 C   0  0  0  0  0  0  0  0  0  0  0  0
  1  2  1  0  0  0  0
  1  3  1  0  0  0  0
  1  4  1  0  0  0  0
  2  5  2  0  0  0  0
  2  6  1  0  0  0  0
  3  7  2  0  0  0  0
  3  8  1  0  0  0  0
  4  9  1  0  0  0  0
  4 10  2  0  0  0  0
  5 11  1  0  0  0  0
  6 12  1  0  0  0  0
  7 13  1  0  0  0  0
  8 14  2  0  0  0  0
  9 15  2  0  0  0  0
  9 11  1  0  0  0  0
 11 16  2  0  0  0  0
 12 17  1  0  0  0  0
 13 18  2  0  0  0  0
 14 18  1  0  0  0  0
 15 19  1  0  0  0  0
 16 20  1  0  0  0  0
 17 21  3  0  0  0  0
 18 22  1  0  0  0  0
 19 20  2  0  0  0  0
 22 23  1  0  0  0  0
M  END
> <CdId>
45

> <Mol Weight>
322.381

> <Formula>
C18H14N2O2S

> <Click_ID>
CLK001_E06 __ __ 

$$$$
