CLK038H04
 OpenBabel03181413202D

 19 19  0  0  0  0  0  0  0  0999 V2000
   -0.6792   -0.6500    0.0000 S   0  0  0  0  0  0  0  0  0  0  0  0
   -0.6792   -1.4750    0.0000 C   0  0  0  0  0  0  0  0  0  0  0  0
    1.4625    3.8875    0.0000 C   0  0  0  0  0  0  0  0  0  0  0  0
    1.4625    4.7083    0.0000 C   0  0  0  0  0  0  0  0  0  0  0  0
   -1.5042   -0.6500    0.0000 O   0  0  0  0  0  0  0  0  0  0  0  0
    0.1458   -0.6500    0.0000 O   0  0  0  0  0  0  0  0  0  0  0  0
    0.7500    1.8250    0.0000 C   0  0  0  0  0  0  0  0  0  0  0  0
   -0.6792    0.1750    0.0000 N   0  0  0  0  0  0  0  0  0  0  0  0
    0.0375    1.4125    0.0000 C   0  0  0  0  0  0  0  0  0  0  0  0
    1.4625    1.4125    0.0000 O   0  0  0  0  0  0  0  0  0  0  0  0
   -1.3917   -1.8875    0.0000 C   0  0  0  0  0  0  0  0  0  0  0  0
    0.0375   -1.8875    0.0000 C   0  0  0  0  0  0  0  0  0  0  0  0
    0.7500    2.6500    0.0000 N   0  0  0  0  0  0  0  0  0  0  0  0
    0.0375    0.5875    0.0000 C   0  0  0  0  0  0  0  0  0  0  0  0
   -0.6792   -3.1250    0.0000 C   0  0  0  0  0  0  0  0  0  0  0  0
   -1.3917   -2.7125    0.0000 C   0  0  0  0  0  0  0  0  0  0  0  0
    0.0375   -2.7125    0.0000 C   0  0  0  0  0  0  0  0  0  0  0  0
   -0.6792   -3.9500    0.0000 F   0  0  0  0  0  0  0  0  0  0  0  0
    1.4625    3.0625    0.0000 C   0  0  0  0  0  0  0  0  0  0  0  0
  2  1  1  0  0  0  0
  3 19  1  0  0  0  0
  4  3  3  0  0  0  0
  5  1  2  0  0  0  0
  6  1  2  0  0  0  0
  7  9  1  0  0  0  0
  8  1  1  0  0  0  0
  9 14  1  0  0  0  0
 10  7  2  0  0  0  0
 11  2  2  0  0  0  0
 12  2  1  0  0  0  0
 13  7  1  0  0  0  0
 14  8  1  0  0  0  0
 15 16  2  0  0  0  0
 16 11  1  0  0  0  0
 17 12  2  0  0  0  0
 17 15  1  0  0  0  0
 18 15  1  0  0  0  0
 19 13  1  0  0  0  0
M  END
> <CdId>
2872

> <Mol Weight>
284.307

> <Formula>
C12H13FN2O3S

> <Click_ID>
CLK038H04 __ __ 

$$$$
