CLK047D10
 OpenBabel03181413202D

 21 21  0  0  0  0  0  0  0  0999 V2000
   -1.0583    1.3583    0.0000 S   0  0  0  0  0  0  0  0  0  0  0  0
    0.3708   -1.1167    0.0000 C   0  0  0  0  0  0  0  0  0  0  0  0
   -0.3417    0.9458    0.0000 C   0  0  0  0  0  0  0  0  0  0  0  0
    0.3708   -0.2917    0.0000 C   0  0  0  0  0  0  0  0  0  0  0  0
   -0.3417    0.1208    0.0000 C   0  0  0  0  0  0  0  0  0  0  0  0
   -2.4875    3.0083    0.0000 C   0  0  0  0  0  0  0  0  0  0  0  0
   -3.2000    3.4208    0.0000 C   0  0  0  0  0  0  0  0  0  0  0  0
   -1.4708    0.6417    0.0000 O   0  0  0  0  0  0  0  0  0  0  0  0
   -0.6458    2.0708    0.0000 O   0  0  0  0  0  0  0  0  0  0  0  0
    1.0875   -1.5292    0.0000 N   0  0  0  0  0  0  0  0  0  0  0  0
   -1.7708    1.7708    0.0000 N   0  0  0  0  0  0  0  0  0  0  0  0
   -0.3417   -1.5292    0.0000 O   0  0  0  0  0  0  0  0  0  0  0  0
   -1.7708    2.5958    0.0000 C   0  0  0  0  0  0  0  0  0  0  0  0
    1.0875    0.1208    0.0000 C   0  0  0  0  0  0  0  0  0  0  0  0
    0.3708    1.3583    0.0000 C   0  0  0  0  0  0  0  0  0  0  0  0
    1.0875    0.9458    0.0000 C   0  0  0  0  0  0  0  0  0  0  0  0
    1.0875   -2.3542    0.0000 C   0  0  0  0  0  0  0  0  0  0  0  0
    1.8000   -1.1167    0.0000 C   0  0  0  0  0  0  0  0  0  0  0  0
    1.8000   -2.7667    0.0000 C   0  0  0  0  0  0  0  0  0  0  0  0
    1.8000   -3.5917    0.0000 C   0  0  0  0  0  0  0  0  0  0  0  0
    2.5167   -4.0042    0.0000 C   0  0  0  0  0  0  0  0  0  0  0  0
  2  4  1  0  0  0  0
  3  1  1  0  0  0  0
  4  5  2  0  0  0  0
  5  3  1  0  0  0  0
  6 13  1  0  0  0  0
  7  6  3  0  0  0  0
  8  1  2  0  0  0  0
  9  1  2  0  0  0  0
 10  2  1  0  0  0  0
 11  1  1  0  0  0  0
 12  2  2  0  0  0  0
 13 11  1  0  0  0  0
 14  4  1  0  0  0  0
 15  3  2  0  0  0  0
 16 15  1  0  0  0  0
 16 14  2  0  0  0  0
 17 10  1  0  0  0  0
 18 10  1  0  0  0  0
 19 17  1  0  0  0  0
 20 19  1  0  0  0  0
 21 20  1  0  0  0  0
M  END
> <CdId>
3636

> <Mol Weight>
308.396

> <Formula>
C15H20N2O3S

> <Click_ID>
CLK047D10 __ __ 

$$$$
