CLK050D08
 OpenBabel03181413202D

 18 18  0  0  0  0  0  0  0  0999 V2000
   -1.1125    1.9250    0.0000 C   0  0  0  0  0  0  0  0  0  0  0  0
   -2.5417    3.5792    0.0000 C   0  0  0  0  0  0  0  0  0  0  0  0
   -3.2583    3.9875    0.0000 C   0  0  0  0  0  0  0  0  0  0  0  0
   -0.4000    2.3375    0.0000 O   0  0  0  0  0  0  0  0  0  0  0  0
   -1.8292    2.3375    0.0000 N   0  0  0  0  0  0  0  0  0  0  0  0
   -1.1125    1.1000    0.0000 N   0  0  0  0  0  0  0  0  0  0  0  0
    1.0292   -2.6125    0.0000 C   0  0  0  0  0  0  0  0  0  0  0  0
    1.0292   -1.7875    0.0000 C   0  0  0  0  0  0  0  0  0  0  0  0
   -1.8292    3.1667    0.0000 C   0  0  0  0  0  0  0  0  0  0  0  0
    1.7458   -3.0250    0.0000 C   0  0  0  0  0  0  0  0  0  0  0  0
   -0.4000   -0.1375    0.0000 C   0  0  0  0  0  0  0  0  0  0  0  0
    0.3167   -1.3750    0.0000 O   0  0  0  0  0  0  0  0  0  0  0  0
    2.4583   -1.7875    0.0000 C   0  0  0  0  0  0  0  0  0  0  0  0
   -0.4000    0.6875    0.0000 C   0  0  0  0  0  0  0  0  0  0  0  0
    0.3167   -0.5500    0.0000 C   0  0  0  0  0  0  0  0  0  0  0  0
    1.7458   -1.3750    0.0000 C   0  0  0  0  0  0  0  0  0  0  0  0
    2.4583   -2.6125    0.0000 C   0  0  0  0  0  0  0  0  0  0  0  0
    1.7458   -3.8500    0.0000 C   0  0  0  0  0  0  0  0  0  0  0  0
  2  9  1  0  0  0  0
  3  2  3  0  0  0  0
  4  1  2  0  0  0  0
  5  1  1  0  0  0  0
  6  1  1  0  0  0  0
  7  8  1  0  0  0  0
  8 12  1  0  0  0  0
  9  5  1  0  0  0  0
 10  7  2  0  0  0  0
 11 14  1  0  0  0  0
 12 15  1  0  0  0  0
 13 16  1  0  0  0  0
 13 17  2  0  0  0  0
 14  6  1  0  0  0  0
 15 11  1  0  0  0  0
 16  8  2  0  0  0  0
 17 10  1  0  0  0  0
 18 10  1  0  0  0  0
M  END
> <CdId>
3860

> <Mol Weight>
246.3049

> <Formula>
C14H18N2O2

> <Click_ID>
CLK050D08 __ __ 

$$$$
