CLK043F03
 OpenBabel03181413202D

 29 32  0  0  0  0  0  0  0  0999 V2000
   -0.0542   -0.1583    0.0000 C   0  0  0  0  0  0  0  0  0  0  0  0
   -0.0542    0.6667    0.0000 C   0  0  0  0  0  0  0  0  0  0  0  0
    0.7292   -0.4125    0.0000 N   0  0  0  0  0  0  0  0  0  0  0  0
   -0.7708   -0.5708    0.0000 N   0  0  0  0  0  0  0  0  0  0  0  0
    1.2167    0.2542    0.0000 N   0  0  0  0  0  0  0  0  0  0  0  0
   -0.7708    1.0792    0.0000 C   0  0  0  0  0  0  0  0  0  0  0  0
    0.7292    0.9208    0.0000 C   0  0  0  0  0  0  0  0  0  0  0  0
   -1.4833   -0.1583    0.0000 C   0  0  0  0  0  0  0  0  0  0  0  0
   -1.4833    0.6667    0.0000 C   0  0  0  0  0  0  0  0  0  0  0  0
   -0.7708    1.9042    0.0000 C   0  0  0  0  0  0  0  0  0  0  0  0
    0.6583    3.5542    0.0000 C   0  0  0  0  0  0  0  0  0  0  0  0
    0.9833   -1.1958    0.0000 C   0  0  0  0  0  0  0  0  0  0  0  0
    1.3750    3.9667    0.0000 C   0  0  0  0  0  0  0  0  0  0  0  0
   -1.4833    2.3167    0.0000 O   0  0  0  0  0  0  0  0  0  0  0  0
   -2.2000   -0.5708    0.0000 C   0  0  0  0  0  0  0  0  0  0  0  0
    1.7917   -1.3667    0.0000 C   0  0  0  0  0  0  0  0  0  0  0  0
   -0.0542    2.3167    0.0000 N   0  0  0  0  0  0  0  0  0  0  0  0
    2.0458   -2.1542    0.0000 C   0  0  0  0  0  0  0  0  0  0  0  0
    2.8542   -2.3250    0.0000 C   0  0  0  0  0  0  0  0  0  0  0  0
    3.1083   -3.1083    0.0000 F   0  0  0  0  0  0  0  0  0  0  0  0
   -0.0542    3.1417    0.0000 C   0  0  0  0  0  0  0  0  0  0  0  0
    3.1500   -0.9250    0.0000 C   0  0  0  0  0  0  0  0  0  0  0  0
    2.3458   -0.7542    0.0000 C   0  0  0  0  0  0  0  0  0  0  0  0
   -2.2000   -1.3958    0.0000 C   0  0  0  0  0  0  0  0  0  0  0  0
   -2.9125   -0.1583    0.0000 C   0  0  0  0  0  0  0  0  0  0  0  0
    3.4042   -1.7125    0.0000 C   0  0  0  0  0  0  0  0  0  0  0  0
   -3.6292   -0.5708    0.0000 C   0  0  0  0  0  0  0  0  0  0  0  0
   -2.9125   -1.8083    0.0000 C   0  0  0  0  0  0  0  0  0  0  0  0
   -3.6292   -1.3958    0.0000 C   0  0  0  0  0  0  0  0  0  0  0  0
  2  1  2  0  0  0  0
  3  1  1  0  0  0  0
  4  1  1  0  0  0  0
  5  3  1  0  0  0  0
  6  2  1  0  0  0  0
  7  2  1  0  0  0  0
  7  5  2  0  0  0  0
  8  4  2  0  0  0  0
  8  9  1  0  0  0  0
  9  6  2  0  0  0  0
 10  6  1  0  0  0  0
 11 21  1  0  0  0  0
 12  3  1  0  0  0  0
 13 11  3  0  0  0  0
 14 10  2  0  0  0  0
 15  8  1  0  0  0  0
 16 12  1  0  0  0  0
 17 10  1  0  0  0  0
 18 16  1  0  0  0  0
 19 18  2  0  0  0  0
 20 19  1  0  0  0  0
 21 17  1  0  0  0  0
 22 23  1  0  0  0  0
 22 26  2  0  0  0  0
 23 16  2  0  0  0  0
 24 15  2  0  0  0  0
 25 15  1  0  0  0  0
 26 19  1  0  0  0  0
 27 25  2  0  0  0  0
 28 24  1  0  0  0  0
 29 28  2  0  0  0  0
 29 27  1  0  0  0  0
M  END
> <CdId>
3262

> <Mol Weight>
384.4057

> <Formula>
C23H17FN4O

> <Click_ID>
CLK043F03 __ __ 

$$$$
