CLK050D04
 OpenBabel03181413202D

 16 17  0  0  0  0  0  0  0  0999 V2000
    0.8792   -0.5833    0.0000 C   0  0  0  0  0  0  0  0  0  0  0  0
    0.0750   -0.4125    0.0000 N   0  0  0  0  0  0  0  0  0  0  0  0
   -0.1833    0.3708    0.0000 C   0  0  3  0  0  0  0  0  0  0  0  0
   -0.9667    0.6250    0.0000 C   0  0  0  0  0  0  0  0  0  0  0  0
    2.1958   -2.3250    0.0000 C   0  0  0  0  0  0  0  0  0  0  0  0
    2.4500   -3.1083    0.0000 C   0  0  0  0  0  0  0  0  0  0  0  0
   -0.9667    1.4500    0.0000 C   0  0  0  0  0  0  0  0  0  0  0  0
    1.4333    0.0292    0.0000 O   0  0  0  0  0  0  0  0  0  0  0  0
    0.3042    1.0375    0.0000 C   0  0  0  0  0  0  0  0  0  0  0  0
   -0.1833    1.7083    0.0000 C   0  0  0  0  0  0  0  0  0  0  0  0
    1.1333   -1.3708    0.0000 N   0  0  0  0  0  0  0  0  0  0  0  0
    1.9417   -1.5417    0.0000 C   0  0  0  0  0  0  0  0  0  0  0  0
   -1.6792    0.2125    0.0000 C   0  0  0  0  0  0  0  0  0  0  0  0
   -1.6792    1.8625    0.0000 C   0  0  0  0  0  0  0  0  0  0  0  0
   -2.3958    0.6250    0.0000 C   0  0  0  0  0  0  0  0  0  0  0  0
   -2.3958    1.4500    0.0000 C   0  0  0  0  0  0  0  0  0  0  0  0
  2  1  1  0  0  0  0
  3  2  1  0  0  0  0
  4  3  1  0  0  0  0
  5 12  1  0  0  0  0
  6  5  3  0  0  0  0
  7  4  2  0  0  0  0
  7 10  1  0  0  0  0
  8  1  2  0  0  0  0
  9  3  1  0  0  0  0
 10  9  1  0  0  0  0
 11  1  1  0  0  0  0
 12 11  1  0  0  0  0
 13  4  1  0  0  0  0
 14  7  1  0  0  0  0
 15 13  2  0  0  0  0
 15 16  1  0  0  0  0
 16 14  2  0  0  0  0
M  END
> <CdId>
3828

> <Mol Weight>
214.2631

> <Formula>
C13H14N2O

> <Click_ID>
CLK050D04 __ __ 

$$$$
