CLK004_E05
 OpenBabel03181413202D

 26 28  0  0  0  0  0  0  0  0999 V2000
    0.9949    0.2288    0.0000 C    0  0  3  0  0  0  0  0  0  0  0  0
    1.4003   -0.4887    0.0000 C    0  0  0  0  0  0  0  0  0  0  0  0
    0.1664    0.2288    0.0000 C    0  0  0  0  0  0  0  0  0  0  0  0
    1.4107    0.9358    0.0000 C    0  0  0  0  0  0  0  0  0  0  0  0
    2.2323   -0.4957    0.0000 C    0  0  0  0  0  0  0  0  0  0  0  0
    1.1473   -1.2790    0.0000 C    0  0  0  0  0  0  0  0  0  0  0  0
   -0.2496   -0.4749    0.0000 C    0  0  0  0  0  0  0  0  0  0  0  0
   -0.2427    0.9567    0.0000 C    0  0  0  0  0  0  0  0  0  0  0  0
    2.2323    0.9324    0.0000 C    0  0  0  0  0  0  0  0  0  0  0  0
    0.9983    1.6603    0.0000 C    0  0  0  0  0  0  0  0  0  0  0  0
    2.6447    0.2149    0.0000 O    0  0  0  0  0  0  0  0  0  0  0  0
    2.4818   -1.2895    0.0000 N    0  0  0  0  0  0  0  0  0  0  0  0
    1.8128   -1.7713    0.0000 N    0  0  0  0  0  0  0  0  0  0  0  0
    0.3535   -1.5320    0.0000 C    0  0  0  0  0  0  0  0  0  0  0  0
   -1.0746   -0.4749    0.0000 C    0  0  0  0  0  0  0  0  0  0  0  0
   -1.0641    0.9567    0.0000 C    0  0  0  0  0  0  0  0  0  0  0  0
    2.6551    1.6464    0.0000 N    0  0  0  0  0  0  0  0  0  0  0  0
    0.5962    2.3744    0.0000 N    0  0  0  0  0  0  0  0  0  0  0  0
   -1.4939    0.2391    0.0000 C    0  0  0  0  0  0  0  0  0  0  0  0
   -1.4870   -1.1785    0.0000 O    0  0  0  0  0  0  0  0  0  0  0  0
   -1.4766    1.6707    0.0000 Cl   0  0  0  0  0  0  0  0  0  0  0  0
   -2.3189    0.2391    0.0000 O    0  0  0  0  0  0  0  0  0  0  0  0
   -1.0780   -1.8960    0.0000 C    0  0  0  0  0  0  0  0  0  0  0  0
   -2.7244   -0.4645    0.0000 C    0  0  0  0  0  0  0  0  0  0  0  0
   -3.5494   -0.4714    0.0000 C    0  0  0  0  0  0  0  0  0  0  0  0
   -4.3709   -0.4645    0.0000 C    0  0  0  0  0  0  0  0  0  0  0  0
  1  2  1  0  0  0  0
  1  3  1  0  0  0  0
  1  4  1  0  0  0  0
  2  5  2  0  0  0  0
  2  6  1  0  0  0  0
  3  7  1  0  0  0  0
  3  8  2  0  0  0  0
  4  9  2  0  0  0  0
  4 10  1  0  0  0  0
  5 11  1  0  0  0  0
  5 12  1  0  0  0  0
  6 13  2  0  0  0  0
  6 14  1  0  0  0  0
  7 15  2  0  0  0  0
  8 16  1  0  0  0  0
  9 17  1  0  0  0  0
  9 11  1  0  0  0  0
 10 18  3  0  0  0  0
 12 13  1  0  0  0  0
 15 19  1  0  0  0  0
 15 20  1  0  0  0  0
 16 21  1  0  0  0  0
 16 19  2  0  0  0  0
 19 22  1  0  0  0  0
 20 23  1  0  0  0  0
 22 24  1  0  0  0  0
 24 25  1  0  0  0  0
 25 26  3  0  0  0  0
M  END
> <CdId>
284

> <Mol Weight>
370.79

> <Formula>
C18H15ClN4O3

> <Click_ID>
CLK004_E05 __ __ 

$$$$
