CLK023_C11
 OpenBabel03181413202D

 28 29  0  0  0  0  0  0  0  0999 V2000
   -0.3586    0.2069    0.0000 C    0  0  0  0  0  0  0  0  0  0  0  0
   -1.0827    0.6172    0.0000 C    0  0  0  0  0  0  0  0  0  0  0  0
    0.3552    0.6172    0.0000 C    0  0  0  0  0  0  0  0  0  0  0  0
   -0.3586   -0.6275    0.0000 C    0  0  0  0  0  0  0  0  0  0  0  0
   -1.7964    0.2069    0.0000 N    0  0  0  0  0  0  0  0  0  0  0  0
   -0.3689   -1.4413    0.0000 N    0  0  0  0  0  0  0  0  0  0  0  0
    3.9480   -2.2792    0.0000 C    0  0  0  0  0  0  0  0  0  0  0  0
   -3.2308    1.8654    0.0000 C    0  0  0  0  0  0  0  0  0  0  0  0
    4.6617   -2.6929    0.0000 C    0  0  0  0  0  0  0  0  0  0  0  0
   -2.5171    1.4550    0.0000 C    0  0  0  0  0  0  0  0  0  0  0  0
    2.5033    0.1965    0.0000 C    0  0  0  0  0  0  0  0  0  0  0  0
   -2.5171    0.6172    0.0000 C    0  0  0  0  0  0  0  0  0  0  0  0
    1.0654    0.2069    0.0000 C    0  0  0  0  0  0  0  0  0  0  0  0
   -1.0827    1.4447    0.0000 O    0  0  0  0  0  0  0  0  0  0  0  0
    1.7895    0.6172    0.0000 C    0  0  0  0  0  0  0  0  0  0  0  0
    2.5033   -0.6275    0.0000 C    0  0  0  0  0  0  0  0  0  0  0  0
   -3.9446    1.4550    0.0000 C    0  0  0  0  0  0  0  0  0  0  0  0
    1.7895   -1.0379    0.0000 C    0  0  0  0  0  0  0  0  0  0  0  0
   -3.9446    0.6172    0.0000 C    0  0  0  0  0  0  0  0  0  0  0  0
   -3.2308    2.6963    0.0000 Cl   0  0  0  0  0  0  0  0  0  0  0  0
   -3.2308    0.2104    0.0000 C    0  0  0  0  0  0  0  0  0  0  0  0
    1.0758   -0.6275    0.0000 C    0  0  0  0  0  0  0  0  0  0  0  0
    3.2273    0.6172    0.0000 O    0  0  0  0  0  0  0  0  0  0  0  0
    3.2239   -1.0379    0.0000 O    0  0  0  0  0  0  0  0  0  0  0  0
    3.2239   -1.8688    0.0000 C    0  0  0  0  0  0  0  0  0  0  0  0
   -4.6652    1.8585    0.0000 C    0  0  0  0  0  0  0  0  0  0  0  0
    3.9376    0.2069    0.0000 C    0  0  0  0  0  0  0  0  0  0  0  0
    4.6514    0.6172    0.0000 C    0  0  0  0  0  0  0  0  0  0  0  0
  2  1  1  0  0  0  0
  3  1  2  0  0  0  0
  4  1  1  0  0  0  0
  5  2  1  0  0  0  0
  6  4  3  0  0  0  0
  7 25  1  0  0  0  0
  8 10  1  0  0  0  0
  9  7  3  0  0  0  0
 10 12  2  0  0  0  0
 11 15  1  0  0  0  0
 12  5  1  0  0  0  0
 13  3  1  0  0  0  0
 14  2  2  0  0  0  0
 15 13  2  0  0  0  0
 16 18  1  0  0  0  0
 16 11  2  0  0  0  0
 17 19  1  0  0  0  0
 17  8  2  0  0  0  0
 18 22  2  0  0  0  0
 19 21  2  0  0  0  0
 20  8  1  0  0  0  0
 21 12  1  0  0  0  0
 22 13  1  0  0  0  0
 23 11  1  0  0  0  0
 24 16  1  0  0  0  0
 25 24  1  0  0  0  0
 26 17  1  0  0  0  0
 27 23  1  0  0  0  0
 28 27  1  0  0  0  0
M  END
> <CdId>
1726

> <Mol Weight>
394.851

> <Formula>
C22H19ClN2O3

> <Click_ID>
CLK023_C11 __ __ 

$$$$
