CLK036_C02
 OpenBabel03181413202D

 30 33  0  0  0  0  0  0  0  0999 V2000
   -0.5476    2.1949    0.0000 C   0  0  0  0  0  0  0  0  0  0  0  0
    1.1957    3.5118    0.0000 C   0  0  0  0  0  0  0  0  0  0  0  0
    0.2425    2.4540    0.0000 N   0  0  0  0  0  0  0  0  0  0  0  0
   -0.8027    1.4047    0.0000 N   0  0  0  0  0  0  0  0  0  0  0  0
    0.4181    3.2567    0.0000 C   0  0  0  0  0  0  0  0  0  0  0  0
   -1.2166    2.6798    0.0000 S   0  0  0  0  0  0  0  0  0  0  0  0
    1.3713    4.2936    0.0000 C   0  0  0  0  0  0  0  0  0  0  0  0
   -1.6305    1.4047    0.0000 C   0  0  0  0  0  0  0  0  0  0  0  0
   -1.8813    2.1907    0.0000 C   0  0  0  0  0  0  0  0  0  0  0  0
    1.8186    2.9557    0.0000 C   0  0  0  0  0  0  0  0  0  0  0  0
    2.1489    4.5570    0.0000 C   0  0  0  0  0  0  0  0  0  0  0  0
   -2.1781    0.7985    0.0000 C   0  0  0  0  0  0  0  0  0  0  0  0
    2.6004    3.2191    0.0000 O   0  0  0  0  0  0  0  0  0  0  0  0
   -2.6923    2.3663    0.0000 C   0  0  0  0  0  0  0  0  0  0  0  0
   -2.9808    0.9657    0.0000 C   0  0  0  0  0  0  0  0  0  0  0  0
   -3.2442    1.7517    0.0000 C   0  0  0  0  0  0  0  0  0  0  0  0
    0.4934    0.8236    0.0000 C   0  0  0  0  0  0  0  0  0  0  0  0
    2.7635    4.0260    0.0000 C   0  0  0  0  0  0  0  0  0  0  0  0
    0.8403    1.5761    0.0000 C   0  0  0  0  0  0  0  0  0  0  0  0
    0.7400    4.8580    0.0000 O   0  0  0  0  0  0  0  0  0  0  0  0
   -0.1965    3.8128    0.0000 O   0  0  0  0  0  0  0  0  0  0  0  0
   -0.3219    0.7400    0.0000 C   0  0  0  0  0  0  0  0  0  0  0  0
   -3.5327    0.3470    0.0000 O   0  0  0  0  0  0  0  0  0  0  0  0
   -4.0469    1.9273    0.0000 O   0  0  0  0  0  0  0  0  0  0  0  0
    2.3203    5.3723    0.0000 C   0  0  0  0  0  0  0  0  0  0  0  0
    3.5536    4.2894    0.0000 C   0  0  0  0  0  0  0  0  0  0  0  0
   -4.5988    1.3127    0.0000 C   0  0  0  0  0  0  0  0  0  0  0  0
   -3.2818   -0.4390    0.0000 C   0  0  0  0  0  0  0  0  0  0  0  0
    3.1021    5.6356    0.0000 C   0  0  0  0  0  0  0  0  0  0  0  0
    3.7250    5.0838    0.0000 C   0  0  0  0  0  0  0  0  0  0  0  0
  2  5  1  0  0  0  0
  3  1  2  0  0  0  0
  4  1  1  0  0  0  0
  5  3  1  0  0  0  0
  6  1  1  0  0  0  0
  7  2  1  0  0  0  0
  8  4  1  0  0  0  0
  9  6  1  0  0  0  0
  9  8  2  0  0  0  0
 10  2  2  0  0  0  0
 11  7  1  0  0  0  0
 12  8  1  0  0  0  0
 13 10  1  0  0  0  0
 14  9  1  0  0  0  0
 15 12  2  0  0  0  0
 15 16  1  0  0  0  0
 16 14  2  0  0  0  0
 17 22  1  0  0  0  0
 18 13  1  0  0  0  0
 18 11  2  0  0  0  0
 19 17  3  0  0  0  0
 20  7  2  0  0  0  0
 21  5  2  0  0  0  0
 22  4  1  0  0  0  0
 23 15  1  0  0  0  0
 24 16  1  0  0  0  0
 25 11  1  0  0  0  0
 26 18  1  0  0  0  0
 27 24  1  0  0  0  0
 28 23  1  0  0  0  0
 29 25  2  0  0  0  0
 30 26  2  0  0  0  0
 30 29  1  0  0  0  0
M  END
> <CdId>
2738

> <Mol Weight>
420.438

> <Formula>
C22H16N2O5S

> <Click_ID>
CLK036_C02 __ __ 

$$$$
