CLK041H04
 OpenBabel03181413202D

 25 26  0  0  0  0  0  0  0  0999 V2000
    0.3583   -3.3042    0.0000 N    0  0  0  0  0  0  0  0  0  0  0  0
    0.3583   -0.8292    0.0000 C    0  0  0  0  0  0  0  0  0  0  0  0
    0.3583   -0.0042    0.0000 C    0  0  0  0  0  0  0  0  0  0  0  0
    0.3583    1.6458    0.0000 C    0  0  0  0  0  0  0  0  0  0  0  0
    1.0708    0.4083    0.0000 N    0  0  0  0  0  0  0  0  0  0  0  0
   -0.3583   -1.2417    0.0000 C    0  0  0  0  0  0  0  0  0  0  0  0
    1.0708    1.2333    0.0000 C    0  0  0  0  0  0  0  0  0  0  0  0
    0.3583   -2.4792    0.0000 C    0  0  0  0  0  0  0  0  0  0  0  0
   -0.3583    1.2333    0.0000 C    0  0  0  0  0  0  0  0  0  0  0  0
   -0.3583   -2.0667    0.0000 C    0  0  0  0  0  0  0  0  0  0  0  0
    1.0708   -1.2417    0.0000 C    0  0  0  0  0  0  0  0  0  0  0  0
   -2.5000    1.6458    0.0000 C    0  0  0  0  0  0  0  0  0  0  0  0
   -3.2167    2.0583    0.0000 C    0  0  0  0  0  0  0  0  0  0  0  0
   -0.3583   -3.7167    0.0000 O    0  0  0  0  0  0  0  0  0  0  0  0
    1.0708   -3.7167    0.0000 O    0  0  0  0  0  0  0  0  0  0  0  0
   -0.3583    0.4083    0.0000 O    0  0  0  0  0  0  0  0  0  0  0  0
    1.0708   -2.0667    0.0000 C    0  0  0  0  0  0  0  0  0  0  0  0
   -0.7708    0.5208    0.0000 O    0  0  0  0  0  0  0  0  0  0  0  0
   -1.0708    1.6458    0.0000 N    0  0  0  0  0  0  0  0  0  0  0  0
   -1.0708   -0.8292    0.0000 Cl   0  0  0  0  0  0  0  0  0  0  0  0
   -1.7875    1.2333    0.0000 C    0  0  0  0  0  0  0  0  0  0  0  0
    0.3583    2.4708    0.0000 C    0  0  0  0  0  0  0  0  0  0  0  0
    1.7875    1.6458    0.0000 C    0  0  0  0  0  0  0  0  0  0  0  0
    1.0708    2.8833    0.0000 C    0  0  0  0  0  0  0  0  0  0  0  0
    1.7875    2.4708    0.0000 C    0  0  0  0  0  0  0  0  0  0  0  0
  2  6  2  0  0  0  0
  2 11  1  0  0  0  0
  3  2  1  0  0  0  0
  4  7  2  0  0  0  0
  5  3  1  0  0  0  0
  6 10  1  0  0  0  0
  7  5  1  0  0  0  0
  8  1  1  0  0  0  0
  9  4  1  0  0  0  0
 10  8  2  0  0  0  0
 11 17  2  0  0  0  0
 12 21  1  0  0  0  0
 13 12  3  0  0  0  0
 14  1  1  0  0  0  0
 15  1  2  0  0  0  0
 16  3  2  0  0  0  0
 17  8  1  0  0  0  0
 18  9  2  0  0  0  0
 19  9  1  0  0  0  0
 20  6  1  0  0  0  0
 21 19  1  0  0  0  0
 22  4  1  0  0  0  0
 23  7  1  0  0  0  0
 24 22  2  0  0  0  0
 24 25  1  0  0  0  0
 25 23  2  0  0  0  0
M  END
> <CdId>
3112

> <Mol Weight>
357.748

> <Formula>
C17H12ClN3O4

> <Click_ID>
CLK041H04 __ __ 

$$$$
