CLK020_A09
 OpenBabel03181413202D

 28 30  0  0  0  0  0  0  0  0999 V2000
   -1.3152   -0.2383    0.0000 C    0  0  0  0  0  0  0  0  0  0  0  0
   -2.5709   -0.6783    0.0000 N    0  0  0  0  0  0  0  0  0  0  0  0
   -1.7826   -0.9257    0.0000 C    0  0  0  0  0  0  0  0  0  0  0  0
   -2.5800    0.1466    0.0000 N    0  0  0  0  0  0  0  0  0  0  0  0
   -1.8101    0.4078    0.0000 C    0  0  0  0  0  0  0  0  0  0  0  0
   -3.2308   -1.1732    0.0000 C    0  0  0  0  0  0  0  0  0  0  0  0
   -0.4903   -0.2337    0.0000 C    0  0  0  0  0  0  0  0  0  0  0  0
   -3.1346   -1.9935    0.0000 C    0  0  0  0  0  0  0  0  0  0  0  0
   -3.9869   -0.8433    0.0000 C    0  0  0  0  0  0  0  0  0  0  0  0
    1.2373   -4.4865    0.0000 C    0  0  0  0  0  0  0  0  0  0  0  0
    1.6635   -5.1968    0.0000 C    0  0  0  0  0  0  0  0  0  0  0  0
   -1.5123   -1.7048    0.0000 O    0  0  0  0  0  0  0  0  0  0  0  0
    1.1870   -1.6269    0.0000 C    0  0  0  0  0  0  0  0  0  0  0  0
   -1.5627    1.1915    0.0000 O    0  0  0  0  0  0  0  0  0  0  0  0
   -0.0641   -0.9395    0.0000 C    0  0  0  0  0  0  0  0  0  0  0  0
   -4.6560   -1.3382    0.0000 C    0  0  0  0  0  0  0  0  0  0  0  0
   -3.8036   -2.4884    0.0000 C    0  0  0  0  0  0  0  0  0  0  0  0
    0.7608   -0.9257    0.0000 C    0  0  0  0  0  0  0  0  0  0  0  0
    0.7883   -2.3555    0.0000 C    0  0  0  0  0  0  0  0  0  0  0  0
   -4.5597   -2.1585    0.0000 C    0  0  0  0  0  0  0  0  0  0  0  0
   -0.0366   -2.3693    0.0000 C    0  0  0  0  0  0  0  0  0  0  0  0
   -0.4628   -1.6635    0.0000 C    0  0  0  0  0  0  0  0  0  0  0  0
   -5.4121   -1.0082    0.0000 Cl   0  0  0  0  0  0  0  0  0  0  0  0
   -3.7074   -3.3042    0.0000 Cl   0  0  0  0  0  0  0  0  0  0  0  0
    2.0118   -1.6131    0.0000 O    0  0  0  0  0  0  0  0  0  0  0  0
    1.2145   -3.0567    0.0000 O    0  0  0  0  0  0  0  0  0  0  0  0
    0.8158   -3.7807    0.0000 C    0  0  0  0  0  0  0  0  0  0  0  0
    2.4380   -2.3234    0.0000 C    0  0  0  0  0  0  0  0  0  0  0  0
  2  3  1  0  0  0  0
  2  4  1  0  0  0  0
  3  1  1  0  0  0  0
  4  5  1  0  0  0  0
  5  1  1  0  0  0  0
  6  2  1  0  0  0  0
  7  1  2  0  0  0  0
  8  6  2  0  0  0  0
  9  6  1  0  0  0  0
 10 27  1  0  0  0  0
 11 10  3  0  0  0  0
 12  3  2  0  0  0  0
 13 18  1  0  0  0  0
 13 19  2  0  0  0  0
 14  5  2  0  0  0  0
 15  7  1  0  0  0  0
 16  9  2  0  0  0  0
 17  8  1  0  0  0  0
 17 20  2  0  0  0  0
 18 15  2  0  0  0  0
 19 21  1  0  0  0  0
 20 16  1  0  0  0  0
 21 22  2  0  0  0  0
 22 15  1  0  0  0  0
 23 16  1  0  0  0  0
 24 17  1  0  0  0  0
 25 13  1  0  0  0  0
 26 19  1  0  0  0  0
 27 26  1  0  0  0  0
 28 25  1  0  0  0  0
M  END
> <CdId>
1484

> <Mol Weight>
417.242

> <Formula>
C20H14Cl2N2O4

> <Click_ID>
CLK020_A09 __ __ 

$$$$
