CLK050D06
 OpenBabel03181413202D

 23 24  0  0  0  0  0  0  0  0999 V2000
   -0.2792   -0.0208    0.0000 C   0  0  0  0  0  0  0  0  0  0  0  0
   -1.0667    0.2333    0.0000 C   0  0  0  0  0  0  0  0  0  0  0  0
   -1.5500   -0.4333    0.0000 N   0  0  0  0  0  0  0  0  0  0  0  0
   -0.2792   -0.8458    0.0000 C   0  0  0  0  0  0  0  0  0  0  0  0
   -1.0667   -1.1042    0.0000 C   0  0  0  0  0  0  0  0  0  0  0  0
    0.3875    0.4625    0.0000 C   0  0  0  0  0  0  0  0  0  0  0  0
    4.6500    0.9083    0.0000 C   0  0  0  0  0  0  0  0  0  0  0  0
    5.3167    1.3958    0.0000 C   0  0  0  0  0  0  0  0  0  0  0  0
   -2.3750   -0.4333    0.0000 C   0  0  0  0  0  0  0  0  0  0  0  0
    2.5625    0.2750    0.0000 C   0  0  0  0  0  0  0  0  0  0  0  0
    1.1417    0.1250    0.0000 O   0  0  0  0  0  0  0  0  0  0  0  0
    0.3000    1.2833    0.0000 O   0  0  0  0  0  0  0  0  0  0  0  0
   -3.6125   -1.1500    0.0000 N   0  0  0  0  0  0  0  0  0  0  0  0
    2.6500   -0.5458    0.0000 O   0  0  0  0  0  0  0  0  0  0  0  0
    1.8083    0.6125    0.0000 C   0  0  0  0  0  0  0  0  0  0  0  0
    3.2292    0.7625    0.0000 N   0  0  0  0  0  0  0  0  0  0  0  0
   -1.3208    1.0167    0.0000 C   0  0  0  0  0  0  0  0  0  0  0  0
   -1.3208   -1.8875    0.0000 C   0  0  0  0  0  0  0  0  0  0  0  0
    3.9833    0.4250    0.0000 C   0  0  0  0  0  0  0  0  0  0  0  0
   -2.7875   -1.1500    0.0000 C   0  0  0  0  0  0  0  0  0  0  0  0
   -4.0250   -0.4333    0.0000 C   0  0  0  0  0  0  0  0  0  0  0  0
   -2.7875    0.2792    0.0000 C   0  0  0  0  0  0  0  0  0  0  0  0
   -3.6125    0.2792    0.0000 C   0  0  0  0  0  0  0  0  0  0  0  0
  2  1  2  0  0  0  0
  3  2  1  0  0  0  0
  3  5  1  0  0  0  0
  4  1  1  0  0  0  0
  5  4  2  0  0  0  0
  6  1  1  0  0  0  0
  7 19  1  0  0  0  0
  8  7  3  0  0  0  0
  9  3  1  0  0  0  0
 10 15  1  0  0  0  0
 11  6  1  0  0  0  0
 12  6  2  0  0  0  0
 13 20  1  0  0  0  0
 14 10  2  0  0  0  0
 15 11  1  0  0  0  0
 16 10  1  0  0  0  0
 17  2  1  0  0  0  0
 18  5  1  0  0  0  0
 19 16  1  0  0  0  0
 20  9  2  0  0  0  0
 21 13  2  0  0  0  0
 21 23  1  0  0  0  0
 22  9  1  0  0  0  0
 23 22  2  0  0  0  0
M  END
> <CdId>
3844

> <Mol Weight>
311.3352

> <Formula>
C17H17N3O3

> <Click_ID>
CLK050D06 __ __ 

$$$$
