CLK015_E07
 OpenBabel03181413202D

 29 31  0  0  0  0  0  0  0  0999 V2000
    1.5584   -0.8124    0.0000 N   0  0  0  0  0  0  0  0  0  0  0  0
    1.8153   -1.5957    0.0000 C   0  0  0  0  0  0  0  0  0  0  0  0
    2.8888   -0.8124    0.0000 C   0  0  0  0  0  0  0  0  0  0  0  0
    2.2256   -0.3275    0.0000 C   0  0  0  0  0  0  0  0  0  0  0  0
    2.6360   -1.5957    0.0000 S   0  0  0  0  0  0  0  0  0  0  0  0
    3.6721   -0.5595    0.0000 C   0  0  0  0  0  0  0  0  0  0  0  0
    0.6093    0.2445    0.0000 C   0  0  0  0  0  0  0  0  0  0  0  0
    3.8462    0.2445    0.0000 C   0  0  0  0  0  0  0  0  0  0  0  0
    0.3896    1.0403    0.0000 C   0  0  0  0  0  0  0  0  0  0  0  0
    6.1962    1.0154    0.0000 C   0  0  0  0  0  0  0  0  0  0  0  0
    1.3304   -2.2547    0.0000 O   0  0  0  0  0  0  0  0  0  0  0  0
    2.2174    0.4932    0.0000 O   0  0  0  0  0  0  0  0  0  0  0  0
    6.9795    1.2641    0.0000 N   0  0  0  0  0  0  0  0  0  0  0  0
    0.7833   -0.5595    0.0000 C   0  0  0  0  0  0  0  0  0  0  0  0
    4.6295    0.5056    0.0000 C   0  0  0  0  0  0  0  0  0  0  0  0
    5.2388   -0.0497    0.0000 O   0  0  0  0  0  0  0  0  0  0  0  0
    5.5870    1.5625    0.0000 O   0  0  0  0  0  0  0  0  0  0  0  0
    6.0221    0.2072    0.0000 C   0  0  0  0  0  0  0  0  0  0  0  0
    7.1494    2.0723    0.0000 C   0  0  0  0  0  0  0  0  0  0  0  0
    7.4893    3.6887    0.0000 C   0  0  0  0  0  0  0  0  0  0  0  0
    6.5319    2.6194    0.0000 C   0  0  0  0  0  0  0  0  0  0  0  0
    7.9369    2.3334    0.0000 C   0  0  0  0  0  0  0  0  0  0  0  0
    6.7060    3.4275    0.0000 C   0  0  0  0  0  0  0  0  0  0  0  0
    8.1068    3.1333    0.0000 C   0  0  0  0  0  0  0  0  0  0  0  0
    3.2328    0.8040    0.0000 C   0  0  0  0  0  0  0  0  0  0  0  0
    4.8036    1.3138    0.0000 C   0  0  0  0  0  0  0  0  0  0  0  0
    7.6634    4.4803    0.0000 C   0  0  0  0  0  0  0  0  0  0  0  0
    3.4069    1.6040    0.0000 C   0  0  0  0  0  0  0  0  0  0  0  0
    4.1944    1.8609    0.0000 C   0  0  0  0  0  0  0  0  0  0  0  0
  2  1  1  0  0  0  0
  3  4  1  0  0  0  0
  3  5  1  0  0  0  0
  4  1  1  0  0  0  0
  5  2  1  0  0  0  0
  6  3  2  0  0  0  0
  7 14  1  0  0  0  0
  8  6  1  0  0  0  0
  9  7  3  0  0  0  0
 10 18  1  0  0  0  0
 11  2  2  0  0  0  0
 12  4  2  0  0  0  0
 13 10  1  0  0  0  0
 14  1  1  0  0  0  0
 15  8  1  0  0  0  0
 16 15  1  0  0  0  0
 17 10  2  0  0  0  0
 18 16  1  0  0  0  0
 19 13  1  0  0  0  0
 20 24  1  0  0  0  0
 21 19  2  0  0  0  0
 22 19  1  0  0  0  0
 23 21  1  0  0  0  0
 23 20  2  0  0  0  0
 24 22  2  0  0  0  0
 25  8  2  0  0  0  0
 26 15  2  0  0  0  0
 26 29  1  0  0  0  0
 27 20  1  0  0  0  0
 28 25  1  0  0  0  0
 29 28  2  0  0  0  0
M  END
> <CdId>
1122

> <Mol Weight>
406.454

> <Formula>
C22H18N2O4S

> <Click_ID>
CLK015_E07 __ __ 

$$$$
