CLK010_A10
 OpenBabel03181413202D

 25 27  0  0  0  0  0  0  0  0999 V2000
    1.7984   -1.5134    0.0000 C   0  0  0  0  0  0  0  0  0  0  0  0
    2.5153   -1.0984    0.0000 C   0  0  0  0  0  0  0  0  0  0  0  0
    1.0732   -1.0984    0.0000 C   0  0  0  0  0  0  0  0  0  0  0  0
    1.0732   -0.2683    0.0000 O   0  0  0  0  0  0  0  0  0  0  0  0
    2.5153   -0.2683    0.0000 O   0  0  0  0  0  0  0  0  0  0  0  0
    1.7984    0.1467    0.0000 C   0  0  3  0  0  0  0  0  0  0  0  0
    1.7984   -2.3435    0.0000 C   0  0  0  0  0  0  0  0  0  0  0  0
   -1.4966   -4.3766    0.0000 C   0  0  0  0  0  0  0  0  0  0  0  0
   -2.1589   -4.1502    0.0000 C   0  0  0  0  0  0  0  0  0  0  0  0
    3.2322   -1.5134    0.0000 O   0  0  0  0  0  0  0  0  0  0  0  0
    0.3564   -1.5134    0.0000 O   0  0  0  0  0  0  0  0  0  0  0  0
    1.7984    0.9767    0.0000 C   0  0  0  0  0  0  0  0  0  0  0  0
    1.2744   -2.7962    0.0000 C   0  0  0  0  0  0  0  0  0  0  0  0
    0.2264   -3.7017    0.0000 C   0  0  0  0  0  0  0  0  0  0  0  0
    0.6205   -2.5656    0.0000 C   0  0  0  0  0  0  0  0  0  0  0  0
    1.4002   -3.4711    0.0000 C   0  0  0  0  0  0  0  0  0  0  0  0
    0.0923   -3.0184    0.0000 C   0  0  0  0  0  0  0  0  0  0  0  0
    0.8804   -3.9239    0.0000 C   0  0  0  0  0  0  0  0  0  0  0  0
   -0.9642   -3.9239    0.0000 C   0  0  0  0  0  0  0  0  0  0  0  0
   -0.3018   -4.1545    0.0000 O   0  0  0  0  0  0  0  0  0  0  0  0
    1.0816    1.3834    0.0000 C   0  0  0  0  0  0  0  0  0  0  0  0
    2.5195    1.3834    0.0000 C   0  0  0  0  0  0  0  0  0  0  0  0
    1.0816    2.2218    0.0000 C   0  0  0  0  0  0  0  0  0  0  0  0
    2.5195    2.2092    0.0000 C   0  0  0  0  0  0  0  0  0  0  0  0
    1.8027    2.6285    0.0000 C   0  0  0  0  0  0  0  0  0  0  0  0
  2  1  1  0  0  0  0
  3  1  1  0  0  0  0
  4  3  1  0  0  0  0
  5  2  1  0  0  0  0
  5  6  1  0  0  0  0
  6  4  1  0  0  0  0
  7  1  2  0  0  0  0
  8 19  1  0  0  0  0
  9  8  3  0  0  0  0
 10  2  2  0  0  0  0
 11  3  2  0  0  0  0
 12  6  1  0  0  0  0
 13  7  1  0  0  0  0
 14 18  1  0  0  0  0
 15 13  2  0  0  0  0
 16 13  1  0  0  0  0
 17 15  1  0  0  0  0
 17 14  2  0  0  0  0
 18 16  2  0  0  0  0
 19 20  1  0  0  0  0
 20 14  1  0  0  0  0
 21 12  1  0  0  0  0
 22 12  2  0  0  0  0
 23 21  2  0  0  0  0
 23 25  1  0  0  0  0
 24 22  1  0  0  0  0
 25 24  2  0  0  0  0
M  END
> <CdId>
685

> <Mol Weight>
334.3222

> <Formula>
C20H14O5

> <Click_ID>
CLK010_A10 __ __ 

$$$$
