CLK038E11
 OpenBabel03181413202D

 23 24  0  0  0  0  0  0  0  0999 V2000
   -1.7708    0.4500    0.0000 S   0  0  0  0  0  0  0  0  0  0  0  0
    1.0833    0.4500    0.0000 C   0  0  0  0  0  0  0  0  0  0  0  0
    1.0833   -0.3750    0.0000 N   0  0  0  0  0  0  0  0  0  0  0  0
   -1.0583    0.8625    0.0000 C   0  0  0  0  0  0  0  0  0  0  0  0
    1.8000   -0.7875    0.0000 C   0  0  0  0  0  0  0  0  0  0  0  0
    0.3708    0.8625    0.0000 C   0  0  0  0  0  0  0  0  0  0  0  0
   -3.9167    0.0375    0.0000 C   0  0  0  0  0  0  0  0  0  0  0  0
   -0.3458    0.4500    0.0000 C   0  0  0  0  0  0  0  0  0  0  0  0
   -4.6292   -0.3750    0.0000 C   0  0  0  0  0  0  0  0  0  0  0  0
   -1.3583   -0.2625    0.0000 O   0  0  0  0  0  0  0  0  0  0  0  0
   -2.1833    1.1667    0.0000 O   0  0  0  0  0  0  0  0  0  0  0  0
    2.5125   -0.3750    0.0000 N   0  0  0  0  0  0  0  0  0  0  0  0
   -2.4875    0.0375    0.0000 N   0  0  0  0  0  0  0  0  0  0  0  0
    1.8000    0.8625    0.0000 O   0  0  0  0  0  0  0  0  0  0  0  0
    1.8000   -1.6125    0.0000 C   0  0  0  0  0  0  0  0  0  0  0  0
    3.2292   -0.7875    0.0000 C   0  0  0  0  0  0  0  0  0  0  0  0
   -3.2000    0.4500    0.0000 C   0  0  0  0  0  0  0  0  0  0  0  0
    2.5125   -2.0250    0.0000 C   0  0  0  0  0  0  0  0  0  0  0  0
   -1.0583    1.6875    0.0000 C   0  0  0  0  0  0  0  0  0  0  0  0
    0.3708    1.6875    0.0000 C   0  0  0  0  0  0  0  0  0  0  0  0
   -0.3458    2.1000    0.0000 C   0  0  0  0  0  0  0  0  0  0  0  0
    3.2292   -1.6125    0.0000 C   0  0  0  0  0  0  0  0  0  0  0  0
    2.5125   -2.8500    0.0000 C   0  0  0  0  0  0  0  0  0  0  0  0
  2  6  1  0  0  0  0
  3  2  1  0  0  0  0
  4  1  1  0  0  0  0
  5  3  1  0  0  0  0
  6  8  2  0  0  0  0
  7 17  1  0  0  0  0
  8  4  1  0  0  0  0
  9  7  3  0  0  0  0
 10  1  2  0  0  0  0
 11  1  2  0  0  0  0
 12  5  2  0  0  0  0
 13  1  1  0  0  0  0
 14  2  2  0  0  0  0
 15  5  1  0  0  0  0
 16 12  1  0  0  0  0
 16 22  2  0  0  0  0
 17 13  1  0  0  0  0
 18 15  2  0  0  0  0
 19  4  2  0  0  0  0
 20  6  1  0  0  0  0
 21 19  1  0  0  0  0
 21 20  2  0  0  0  0
 22 18  1  0  0  0  0
 23 18  1  0  0  0  0
M  END
> <CdId>
2925

> <Mol Weight>
329.374

> <Formula>
C16H15N3O3S

> <Click_ID>
CLK038E11 __ __ 

$$$$
