CLK020_D03
 OpenBabel03181413202D

 27 28  0  0  0  0  0  0  0  0999 V2000
    6.0546    5.3946    0.0000 N    0  0  0  0  0  0  0  0  0  0  0  0
    6.0546    2.5437    0.0000 C    0  0  0  0  0  0  0  0  0  0  0  0
    3.1671    1.8288    0.0000 C    0  0  0  0  0  0  0  0  0  0  0  0
    5.6421    1.8288    0.0000 C    0  0  0  0  0  0  0  0  0  0  0  0
    3.5796    1.1137    0.0000 C    0  0  0  0  0  0  0  0  0  0  0  0
    3.5796    2.5437    0.0000 C    0  0  0  0  0  0  0  0  0  0  0  0
    5.6421    4.6796    0.0000 C    0  0  0  0  0  0  0  0  0  0  0  0
    4.8171    1.8288    0.0000 C    0  0  0  0  0  0  0  0  0  0  0  0
    6.8796    2.5437    0.0000 C    0  0  0  0  0  0  0  0  0  0  0  0
    7.7046    2.5437    0.0000 N    0  0  0  0  0  0  0  0  0  0  0  0
    5.6421    3.2587    0.0000 C    0  0  0  0  0  0  0  0  0  0  0  0
    1.2375    2.6079    0.0000 C    0  0  0  0  0  0  0  0  0  0  0  0
    6.0546    3.9737    0.0000 C    0  0  0  0  0  0  0  0  0  0  0  0
    0.4125    2.6079    0.0000 C    0  0  0  0  0  0  0  0  0  0  0  0
    5.6421    6.1096    0.0000 O    0  0  0  0  0  0  0  0  0  0  0  0
    6.6321    5.3946    0.0000 O    0  0  0  0  0  0  0  0  0  0  0  0
    4.4046    1.1137    0.0000 C    0  0  0  0  0  0  0  0  0  0  0  0
    4.4046    2.5437    0.0000 C    0  0  0  0  0  0  0  0  0  0  0  0
    3.1671    0.3988    0.0000 Br   0  0  0  0  0  0  0  0  0  0  0  0
    2.3421    1.8288    0.0000 O    0  0  0  0  0  0  0  0  0  0  0  0
    3.1671    3.2587    0.0000 O    0  0  0  0  0  0  0  0  0  0  0  0
    2.0625    2.6079    0.0000 C    0  0  0  0  0  0  0  0  0  0  0  0
    4.8171    4.6796    0.0000 C    0  0  0  0  0  0  0  0  0  0  0  0
    4.8171    3.2587    0.0000 C    0  0  0  0  0  0  0  0  0  0  0  0
    4.4046    3.9737    0.0000 C    0  0  0  0  0  0  0  0  0  0  0  0
    3.6987    3.9004    0.0000 C    0  0  0  0  0  0  0  0  0  0  0  0
    3.4146    4.6521    0.0000 C    0  0  0  0  0  0  0  0  0  0  0  0
  2 11  1  0  0  0  0
  3  6  2  0  0  0  0
  4  2  2  0  0  0  0
  5 17  2  0  0  0  0
  5  3  1  0  0  0  0
  6 18  1  0  0  0  0
  7  1  1  0  0  0  0
  8  4  1  0  0  0  0
  9  2  1  0  0  0  0
 10  9  3  0  0  0  0
 11 13  2  0  0  0  0
 11 24  1  0  0  0  0
 12 22  1  0  0  0  0
 13  7  1  0  0  0  0
 14 12  3  0  0  0  0
 15  1  1  0  0  0  0
 16  1  2  0  0  0  0
 17  8  1  0  0  0  0
 18  8  2  0  0  0  0
 19  5  1  0  0  0  0
 20  3  1  0  0  0  0
 21  6  1  0  0  0  0
 22 20  1  0  0  0  0
 23  7  2  0  0  0  0
 24 25  2  0  0  0  0
 25 23  1  0  0  0  0
 26 21  1  0  0  0  0
 27 26  1  0  0  0  0
M  END
> <CdId>
1508

> <Mol Weight>
427.248

> <Formula>
C20H15BrN2O4

> <Click_ID>
CLK020_D03 __ __ 

$$$$
