CLK037E08
 OpenBabel03181413202D

 18 18  0  0  0  0  0  0  0  0999 V2000
   -1.3125   -0.4792    0.0000 C   0  0  0  0  0  0  0  0  0  0  0  0
   -1.3125    0.3458    0.0000 N   0  0  0  0  0  0  0  0  0  0  0  0
   -0.5958   -0.8917    0.0000 N   0  0  0  0  0  0  0  0  0  0  0  0
    0.1167    0.3458    0.0000 C   0  0  0  0  0  0  0  0  0  0  0  0
    0.1167   -0.4792    0.0000 C   0  0  0  0  0  0  0  0  0  0  0  0
   -0.5958    0.7583    0.0000 C   0  0  0  0  0  0  0  0  0  0  0  0
   -2.0250   -0.8917    0.0000 S   0  0  0  0  0  0  0  0  0  0  0  0
    0.8333    0.7583    0.0000 C   0  0  0  0  0  0  0  0  0  0  0  0
    2.9750    0.3458    0.0000 C   0  0  0  0  0  0  0  0  0  0  0  0
    3.6875   -0.0667    0.0000 C   0  0  0  0  0  0  0  0  0  0  0  0
   -0.5958    1.5833    0.0000 O   0  0  0  0  0  0  0  0  0  0  0  0
    0.8333   -0.8917    0.0000 O   0  0  0  0  0  0  0  0  0  0  0  0
   -0.5958   -1.7167    0.0000 C   0  0  0  0  0  0  0  0  0  0  0  0
   -2.0250    0.7583    0.0000 C   0  0  0  0  0  0  0  0  0  0  0  0
    1.5458    0.3458    0.0000 N   0  0  0  0  0  0  0  0  0  0  0  0
    2.2583    0.7583    0.0000 C   0  0  0  0  0  0  0  0  0  0  0  0
   -1.3125   -2.1292    0.0000 C   0  0  0  0  0  0  0  0  0  0  0  0
   -2.0250    1.5833    0.0000 C   0  0  0  0  0  0  0  0  0  0  0  0
  2  1  1  0  0  0  0
  3  1  1  0  0  0  0
  4  5  1  0  0  0  0
  5  3  1  0  0  0  0
  6  2  1  0  0  0  0
  6  4  1  0  0  0  0
  7  1  2  0  0  0  0
  8  4  2  0  0  0  0
  9 16  1  0  0  0  0
 10  9  3  0  0  0  0
 11  6  2  0  0  0  0
 12  5  2  0  0  0  0
 13  3  1  0  0  0  0
 14  2  1  0  0  0  0
 15  8  1  0  0  0  0
 16 15  1  0  0  0  0
 17 13  1  0  0  0  0
 18 14  1  0  0  0  0
M  END
> <CdId>
2821

> <Mol Weight>
265.331

> <Formula>
C12H15N3O2S

> <Click_ID>
CLK037E08 __ __ 

$$$$
