CLK045H07
 OpenBabel03181413202D

 29 29  0  0  0  0  0  0  0  0999 V2000
    2.5375    4.0792    0.0000 C   0  0  0  0  0  0  0  0  0  0  0  0
    3.2500    4.4917    0.0000 C   0  0  0  0  0  0  0  0  0  0  0  0
   -0.3208    0.7833    0.0000 C   0  0  0  0  0  0  0  0  0  0  0  0
    1.1083    2.4333    0.0000 C   0  0  0  0  0  0  0  0  0  0  0  0
   -0.3208   -0.0417    0.0000 C   0  0  0  0  0  0  0  0  0  0  0  0
   -1.7500   -2.5167    0.0000 C   0  0  0  0  0  0  0  0  0  0  0  0
    1.1083    3.2583    0.0000 N   0  0  0  0  0  0  0  0  0  0  0  0
   -1.0375   -0.4542    0.0000 C   0  0  0  0  0  0  0  0  0  0  0  0
    1.8208    3.6708    0.0000 C   0  0  0  0  0  0  0  0  0  0  0  0
   -1.0375   -2.9292    0.0000 C   0  0  0  0  0  0  0  0  0  0  0  0
   -1.7500   -1.6917    0.0000 C   0  0  0  0  0  0  0  0  0  0  0  0
   -1.0375    1.1958    0.0000 O   0  0  0  0  0  0  0  0  0  0  0  0
    1.8208    2.0208    0.0000 O   0  0  0  0  0  0  0  0  0  0  0  0
    0.3917    1.1958    0.0000 O   0  0  0  0  0  0  0  0  0  0  0  0
   -1.0375   -1.2792    0.0000 C   0  0  0  0  0  0  0  0  0  0  0  0
   -0.3208   -2.5167    0.0000 C   0  0  0  0  0  0  0  0  0  0  0  0
    0.3917    2.0208    0.0000 C   0  0  0  0  0  0  0  0  0  0  0  0
   -0.3208   -1.6917    0.0000 C   0  0  0  0  0  0  0  0  0  0  0  0
   -2.4667   -2.9292    0.0000 O   0  0  0  0  0  0  0  0  0  0  0  0
   -1.0375   -3.7542    0.0000 O   0  0  0  0  0  0  0  0  0  0  0  0
    2.2333    2.9583    0.0000 C   0  0  0  0  0  0  0  0  0  0  0  0
    1.4083    4.3833    0.0000 C   0  0  0  0  0  0  0  0  0  0  0  0
   -3.1792   -2.5167    0.0000 C   0  0  0  0  0  0  0  0  0  0  0  0
   -0.3208   -4.1667    0.0000 C   0  0  0  0  0  0  0  0  0  0  0  0
   -0.3208   -4.9917    0.0000 C   0  0  0  0  0  0  0  0  0  0  0  0
    1.8208    5.0958    0.0000 C   0  0  0  0  0  0  0  0  0  0  0  0
    1.8208    2.2417    0.0000 C   0  0  0  0  0  0  0  0  0  0  0  0
   -3.8958   -2.9292    0.0000 C   0  0  0  0  0  0  0  0  0  0  0  0
    0.3917   -5.4042    0.0000 C   0  0  0  0  0  0  0  0  0  0  0  0
  2  1  3  0  0  0  0
  3 14  1  0  0  0  0
  4  7  1  0  0  0  0
  5  3  1  0  0  0  0
  6 11  1  0  0  0  0
  7  9  1  0  0  0  0
  8  5  2  0  0  0  0
  9  1  1  0  0  0  0
 10  6  2  0  0  0  0
 11 15  2  0  0  0  0
 12  3  2  0  0  0  0
 13  4  2  0  0  0  0
 14 17  1  0  0  0  0
 15  8  1  0  0  0  0
 16 18  2  0  0  0  0
 16 10  1  0  0  0  0
 17  4  1  0  0  0  0
 18 15  1  0  0  0  0
 19  6  1  0  0  0  0
 20 10  1  0  0  0  0
 21  9  1  0  0  0  0
 22  9  1  0  0  0  0
 23 19  1  0  0  0  0
 24 20  1  0  0  0  0
 25 24  1  0  0  0  0
 26 22  1  0  0  0  0
 27 21  1  0  0  0  0
 28 23  1  0  0  0  0
 29 25  1  0  0  0  0
M  END
> <CdId>
3456

> <Mol Weight>
401.4959

> <Formula>
C23H31NO5

> <Click_ID>
CLK045H07 __ __ 

$$$$
