CLK002_G05
 OpenBabel03181413202D

 10 10  0  0  0  0  0  0  0  0999 V2000
    6.6569   -8.6757    0.0000 C   0  0  0  0  0  0  0  0  0  0  0  0
    7.4827   -8.6757    0.0000 C   0  0  0  0  0  0  0  0  0  0  0  0
    5.4098   -9.3889    0.0000 N   0  0  0  0  0  0  0  0  0  0  0  0
    5.8227   -8.6757    0.0000 C   0  0  0  0  0  0  0  0  0  0  0  0
    4.5839   -9.3889    0.0000 C   0  0  0  0  0  0  0  0  0  0  0  0
    4.1710   -8.6757    0.0000 C   0  0  0  0  0  0  0  0  0  0  0  0
    4.1710  -10.1021    0.0000 C   0  0  0  0  0  0  0  0  0  0  0  0
    3.3452  -10.1021    0.0000 C   0  0  0  0  0  0  0  0  0  0  0  0
    3.3452   -8.6757    0.0000 C   0  0  0  0  0  0  0  0  0  0  0  0
    2.9322   -9.3889    0.0000 C   0  0  0  0  0  0  0  0  0  0  0  0
  2  1  3  0  0  0  0
  3  4  1  0  0  0  0
  4  1  1  0  0  0  0
  5  3  1  0  0  0  0
  6  5  2  0  0  0  0
  7  5  1  0  0  0  0
  8  7  2  0  0  0  0
  9  6  1  0  0  0  0
 10  8  1  0  0  0  0
 10  9  2  0  0  0  0
M  END
> <CdId>
144

> <Mol Weight>
131.1745

> <Formula>
C9H9N

> <Click_ID>
CLK002_G05 __ __ 

$$$$
