CLK031_B06
 OpenBabel03181413202D

 39 42  0  0  0  0  0  0  0  0999 V2000
   -1.1625    2.3833    0.0000 C   0  0  0  0  0  0  0  0  0  0  0  0
    3.3792    3.0833    0.0000 S   0  0  0  0  0  0  0  0  0  0  0  0
   -0.3375    2.3750    0.0000 N   0  0  0  0  0  0  0  0  0  0  0  0
   -4.5833    3.2125    0.0000 S   0  0  0  0  0  0  0  0  0  0  0  0
   -1.6458    1.7208    0.0000 N   0  0  0  0  0  0  0  0  0  0  0  0
   -1.6458    3.0500    0.0000 S   0  0  0  0  0  0  0  0  0  0  0  0
    4.2125    3.0833    0.0000 N   0  0  0  0  0  0  0  0  0  0  0  0
   -2.4333    2.7958    0.0000 C   0  0  0  0  0  0  0  0  0  0  0  0
   -2.4333    1.9708    0.0000 C   0  0  0  0  0  0  0  0  0  0  0  0
    0.0750    3.0875    0.0000 C   0  0  0  0  0  0  0  0  0  0  0  0
    5.8667    3.0833    0.0000 N   0  0  0  0  0  0  0  0  0  0  0  0
    6.6917    3.0833    0.0000 C   0  0  0  0  0  0  0  0  0  0  0  0
   -3.8583    2.7958    0.0000 C   0  0  0  0  0  0  0  0  0  0  0  0
   -3.1458    3.2083    0.0000 C   0  0  0  0  0  0  0  0  0  0  0  0
    2.5542    3.0833    0.0000 C   0  0  0  0  0  0  0  0  0  0  0  0
   -1.9458    0.3208    0.0000 C   0  0  0  0  0  0  0  0  0  0  0  0
    3.3792    2.2583    0.0000 O   0  0  0  0  0  0  0  0  0  0  0  0
    3.3875    3.9083    0.0000 O   0  0  0  0  0  0  0  0  0  0  0  0
    4.6250    2.3625    0.0000 C   0  0  0  0  0  0  0  0  0  0  0  0
    4.6292    3.8000    0.0000 C   0  0  0  0  0  0  0  0  0  0  0  0
   -3.1458    1.5583    0.0000 C   0  0  0  0  0  0  0  0  0  0  0  0
   -2.4958   -0.2917    0.0000 C   0  0  0  0  0  0  0  0  0  0  0  0
   -5.0208    2.5083    0.0000 O   0  0  0  0  0  0  0  0  0  0  0  0
   -4.1458    3.9083    0.0000 O   0  0  0  0  0  0  0  0  0  0  0  0
    0.9000    3.0875    0.0000 C   0  0  0  0  0  0  0  0  0  0  0  0
    5.4542    3.7958    0.0000 C   0  0  0  0  0  0  0  0  0  0  0  0
    5.4542    2.3625    0.0000 C   0  0  0  0  0  0  0  0  0  0  0  0
   -5.2833    3.6458    0.0000 N   0  0  0  0  0  0  0  0  0  0  0  0
    7.1042    2.3625    0.0000 O   0  0  0  0  0  0  0  0  0  0  0  0
   -0.3375    3.8000    0.0000 O   0  0  0  0  0  0  0  0  0  0  0  0
   -3.8583    1.9708    0.0000 C   0  0  0  0  0  0  0  0  0  0  0  0
   -1.3958    0.9333    0.0000 C   0  0  0  0  0  0  0  0  0  0  0  0
    2.1417    3.8000    0.0000 C   0  0  0  0  0  0  0  0  0  0  0  0
    2.1417    2.3708    0.0000 C   0  0  0  0  0  0  0  0  0  0  0  0
    1.3167    2.3708    0.0000 C   0  0  0  0  0  0  0  0  0  0  0  0
    1.3167    3.8083    0.0000 C   0  0  0  0  0  0  0  0  0  0  0  0
    7.1125    3.7958    0.0000 O   0  0  0  0  0  0  0  0  0  0  0  0
    6.7000    4.5042    0.0000 C   0  0  0  0  0  0  0  0  0  0  0  0
    7.1125    5.2167    0.0000 C   0  0  0  0  0  0  0  0  0  0  0  0
  2 15  1  0  0  0  0
  3  1  2  0  0  0  0
  4 13  1  0  0  0  0
  5  1  1  0  0  0  0
  6  1  1  0  0  0  0
  7  2  1  0  0  0  0
  8  6  1  0  0  0  0
  8  9  2  0  0  0  0
  9  5  1  0  0  0  0
 10  3  1  0  0  0  0
 11 26  1  0  0  0  0
 12 11  1  0  0  0  0
 13 14  2  0  0  0  0
 13 31  1  0  0  0  0
 14  8  1  0  0  0  0
 15 33  1  0  0  0  0
 16 32  1  0  0  0  0
 17  2  2  0  0  0  0
 18  2  2  0  0  0  0
 19  7  1  0  0  0  0
 20  7  1  0  0  0  0
 21  9  1  0  0  0  0
 22 16  3  0  0  0  0
 23  4  2  0  0  0  0
 24  4  2  0  0  0  0
 25 10  1  0  0  0  0
 26 20  1  0  0  0  0
 27 19  1  0  0  0  0
 27 11  1  0  0  0  0
 28  4  1  0  0  0  0
 29 12  2  0  0  0  0
 30 10  2  0  0  0  0
 31 21  2  0  0  0  0
 32  5  1  0  0  0  0
 33 36  2  0  0  0  0
 34 35  1  0  0  0  0
 34 15  2  0  0  0  0
 35 25  2  0  0  0  0
 36 25  1  0  0  0  0
 37 12  1  0  0  0  0
 38 37  1  0  0  0  0
 39 38  1  0  0  0  0
M  END
> <CdId>
2340

> <Mol Weight>
591.68

> <Formula>
C24H25N5O7S3

> <Click_ID>
CLK031_B06 __ __ 

$$$$
