CLK012_D08
 OpenBabel03181413202D

 26 28  0  0  0  0  0  0  0  0999 V2000
    1.3367   -0.7325    0.0000 C   0  0  3  0  0  0  0  0  0  0  0  0
    1.7212   -1.4603    0.0000 C   0  0  0  0  0  0  0  0  0  0  0  0
    1.1444   -2.0508    0.0000 N   0  0  0  0  0  0  0  0  0  0  0  0
    0.5265   -0.8789    0.0000 C   0  0  0  0  0  0  0  0  0  0  0  0
    5.9097   -0.3891    0.0000 N   0  3  0  0  0  0  0  0  0  0  0  0
    0.4120   -1.6938    0.0000 C   0  0  0  0  0  0  0  0  0  0  0  0
    2.2659   -0.1007    0.0000 C   0  0  0  0  0  0  0  0  0  0  0  0
    3.0533   -0.5218    0.0000 C   0  0  0  0  0  0  0  0  0  0  0  0
    5.1773   -0.0137    0.0000 C   0  0  0  0  0  0  0  0  0  0  0  0
    0.6592   -3.3966    0.0000 C   0  0  0  0  0  0  0  0  0  0  0  0
    3.7537   -0.0733    0.0000 C   0  0  0  0  0  0  0  0  0  0  0  0
    4.4815   -0.4578    0.0000 C   0  0  0  0  0  0  0  0  0  0  0  0
    0.0275   -3.9185    0.0000 C   0  0  0  0  0  0  0  0  0  0  0  0
    5.9463   -1.2131    0.0000 O   0  5  0  0  0  0  0  0  0  0  0  0
    2.5406   -1.5793    0.0000 O   0  0  0  0  0  0  0  0  0  0  0  0
    6.6055    0.0503    0.0000 O   0  0  0  0  0  0  0  0  0  0  0  0
    1.2909   -2.8610    0.0000 C   0  0  0  0  0  0  0  0  0  0  0  0
    1.0758    0.2014    0.0000 O   0  0  0  0  0  0  0  0  0  0  0  0
    3.0899   -1.2085    0.0000 O   0  0  0  0  0  0  0  0  0  0  0  0
   -0.1190   -0.3617    0.0000 C   0  0  0  0  0  0  0  0  0  0  0  0
   -0.3524   -1.9959    0.0000 C   0  0  0  0  0  0  0  0  0  0  0  0
    5.1407    0.8102    0.0000 C   0  0  0  0  0  0  0  0  0  0  0  0
    3.7125    0.7507    0.0000 C   0  0  0  0  0  0  0  0  0  0  0  0
    4.4082    1.1901    0.0000 C   0  0  0  0  0  0  0  0  0  0  0  0
   -0.8880   -0.6729    0.0000 C   0  0  0  0  0  0  0  0  0  0  0  0
   -1.0025   -1.4878    0.0000 C   0  0  0  0  0  0  0  0  0  0  0  0
  2  1  1  0  0  0  0
  3  2  1  0  0  0  0
  4  1  1  0  0  0  0
  5  9  1  0  0  0  0
  6  4  2  0  0  0  0
  6  3  1  0  0  0  0
  7  1  1  0  0  0  0
  8  7  1  0  0  0  0
  9 12  2  0  0  0  0
  9 22  1  0  0  0  0
 10 17  1  0  0  0  0
 11  8  1  0  0  0  0
 12 11  1  0  0  0  0
 13 10  3  0  0  0  0
 14  5  1  0  0  0  0
 15  2  2  0  0  0  0
 16  5  2  0  0  0  0
 17  3  1  0  0  0  0
 18  1  1  0  0  0  0
 19  8  2  0  0  0  0
 20  4  1  0  0  0  0
 21  6  1  0  0  0  0
 22 24  2  0  0  0  0
 23 11  2  0  0  0  0
 24 23  1  0  0  0  0
 25 20  2  0  0  0  0
 26 25  1  0  0  0  0
 26 21  2  0  0  0  0
M  END
> <CdId>
873

> <Mol Weight>
350.3249

> <Formula>
C19H14N2O5

> <Click_ID>
CLK012_D08 __ __ 

$$$$
