CLK051D06
 OpenBabel03181413202D

 26 28  0  0  0  0  0  0  0  0999 V2000
   -1.0128   -1.9130    0.0000 C    0  0  0  0  0  0  0  0  0  0  0  0
   -1.5004   -1.2420    0.0000 S    0  0  0  0  0  0  0  0  0  0  0  0
   -1.2711   -2.6965    0.0000 C    0  0  0  0  0  0  0  0  0  0  0  0
   -1.0128   -0.5751    0.0000 C    0  0  0  0  0  0  0  0  0  0  0  0
   -0.2293   -1.6546    0.0000 C    0  0  0  0  0  0  0  0  0  0  0  0
   -0.7169    0.8210    0.0000 N    0  0  0  0  0  0  0  0  0  0  0  0
    0.3876    2.0463    0.0000 N    0  0  0  0  0  0  0  0  0  0  0  0
   -0.2293   -0.8294    0.0000 C    0  0  0  0  0  0  0  0  0  0  0  0
    3.6592    3.5467    0.0000 C    0  0  0  0  0  0  0  0  0  0  0  0
    4.2094    4.1553    0.0000 C    0  0  0  0  0  0  0  0  0  0  0  0
    1.7462    2.4881    0.0000 C    0  0  0  0  0  0  0  0  0  0  0  0
   -2.0755   -2.8674    0.0000 C    0  0  0  0  0  0  0  0  0  0  0  0
   -1.2711    0.2084    0.0000 C    0  0  0  0  0  0  0  0  0  0  0  0
    0.9377    2.6632    0.0000 C    0  0  0  0  0  0  0  0  0  0  0  0
    2.0005    1.7046    0.0000 O    0  0  0  0  0  0  0  0  0  0  0  0
    2.3006    3.1050    0.0000 N    0  0  0  0  0  0  0  0  0  0  0  0
    0.0917    0.6502    0.0000 C    0  0  0  0  0  0  0  0  0  0  0  0
   -0.4209    2.2214    0.0000 C    0  0  0  0  0  0  0  0  0  0  0  0
   -0.9710    1.6087    0.0000 C    0  0  0  0  0  0  0  0  0  0  0  0
    0.6419    1.2628    0.0000 C    0  0  0  0  0  0  0  0  0  0  0  0
   -2.6299   -2.2548    0.0000 Cl   0  0  0  0  0  0  0  0  0  0  0  0
    3.1050    2.9299    0.0000 C    0  0  0  0  0  0  0  0  0  0  0  0
   -0.7169   -3.3091    0.0000 C    0  0  0  0  0  0  0  0  0  0  0  0
   -2.3298   -3.6509    0.0000 C    0  0  0  0  0  0  0  0  0  0  0  0
   -0.9710   -4.0927    0.0000 C    0  0  0  0  0  0  0  0  0  0  0  0
   -1.7797   -4.2678    0.0000 C    0  0  0  0  0  0  0  0  0  0  0  0
  2  1  1  0  0  0  0
  3  1  1  0  0  0  0
  4  2  1  0  0  0  0
  4  8  2  0  0  0  0
  5  1  2  0  0  0  0
  6 13  1  0  0  0  0
  7 18  1  0  0  0  0
  7 20  1  0  0  0  0
  8  5  1  0  0  0  0
  9 22  1  0  0  0  0
 10  9  3  0  0  0  0
 11 14  1  0  0  0  0
 12  3  2  0  0  0  0
 13  4  1  0  0  0  0
 14  7  1  0  0  0  0
 15 11  2  0  0  0  0
 16 11  1  0  0  0  0
 17  6  1  0  0  0  0
 18 19  1  0  0  0  0
 19  6  1  0  0  0  0
 20 17  1  0  0  0  0
 21 12  1  0  0  0  0
 22 16  1  0  0  0  0
 23  3  1  0  0  0  0
 24 12  1  0  0  0  0
 25 23  2  0  0  0  0
 25 26  1  0  0  0  0
 26 24  2  0  0  0  0
M  END
> <CdId>
3924

> <Mol Weight>
387.926

> <Formula>
C20H22ClN3OS

> <Click_ID>
CLK051D06 __ __ 

$$$$
