CLK019_B10
 OpenBabel03181413202D

 24 25  0  0  0  0  0  0  0  0999 V2000
    1.4399   -2.1599    0.0000 N    0  0  0  0  0  0  0  0  0  0  0  0
   -1.0737   -0.8032    0.0000 C    0  0  0  0  0  0  0  0  0  0  0  0
   -1.6563   -1.3900    0.0000 C    0  0  0  0  0  0  0  0  0  0  0  0
   -0.2497   -0.7783    0.0000 C    0  0  0  0  0  0  0  0  0  0  0  0
    1.0030   -1.4524    0.0000 C    0  0  0  0  0  0  0  0  0  0  0  0
   -2.4595   -1.1736    0.0000 C    0  0  0  0  0  0  0  0  0  0  0  0
   -3.2585   -0.9530    0.0000 N    0  0  0  0  0  0  0  0  0  0  0  0
    0.1790   -1.4774    0.0000 C    0  0  0  0  0  0  0  0  0  0  0  0
   -0.3454    2.0808    0.0000 C    0  0  0  0  0  0  0  0  0  0  0  0
    0.0416    2.7966    0.0000 C    0  0  0  0  0  0  0  0  0  0  0  0
    1.0529   -2.8882    0.0000 O    0  0  0  0  0  0  0  0  0  0  0  0
   -1.4482   -2.1890    0.0000 C    0  0  0  0  0  0  0  0  0  0  0  0
    2.2639   -2.1391    0.0000 O    0  0  0  0  0  0  0  0  0  0  0  0
    0.1373   -0.0541    0.0000 C    0  0  0  0  0  0  0  0  0  0  0  0
    1.3983   -0.7283    0.0000 C    0  0  0  0  0  0  0  0  0  0  0  0
    0.9655   -0.0292    0.0000 C    0  0  0  0  0  0  0  0  0  0  0  0
   -2.0350   -2.7633    0.0000 C    0  0  0  0  0  0  0  0  0  0  0  0
   -0.6450   -2.4013    0.0000 C    0  0  0  0  0  0  0  0  0  0  0  0
   -1.0320   -3.7871    0.0000 C    0  0  0  0  0  0  0  0  0  0  0  0
   -1.8228   -3.5624    0.0000 C    0  0  0  0  0  0  0  0  0  0  0  0
   -0.4370   -3.2086    0.0000 C    0  0  0  0  0  0  0  0  0  0  0  0
   -0.8198   -4.5861    0.0000 Cl   0  0  0  0  0  0  0  0  0  0  0  0
   -0.2996    0.6450    0.0000 O    0  0  0  0  0  0  0  0  0  0  0  0
    0.0874    1.3733    0.0000 C    0  0  0  0  0  0  0  0  0  0  0  0
  2  4  1  0  0  0  0
  3  2  2  0  0  0  0
  4  8  1  0  0  0  0
  5  1  1  0  0  0  0
  6  3  1  0  0  0  0
  7  6  3  0  0  0  0
  8  5  2  0  0  0  0
  9 24  1  0  0  0  0
 10  9  3  0  0  0  0
 11  1  1  0  0  0  0
 12  3  1  0  0  0  0
 13  1  2  0  0  0  0
 14 16  1  0  0  0  0
 14  4  2  0  0  0  0
 15  5  1  0  0  0  0
 16 15  2  0  0  0  0
 17 12  2  0  0  0  0
 18 12  1  0  0  0  0
 19 21  1  0  0  0  0
 19 20  2  0  0  0  0
 20 17  1  0  0  0  0
 21 18  2  0  0  0  0
 22 19  1  0  0  0  0
 23 14  1  0  0  0  0
 24 23  1  0  0  0  0
M  END
> <CdId>
1415

> <Mol Weight>
338.745

> <Formula>
C18H11ClN2O3

> <Click_ID>
CLK019_B10 __ __ 

$$$$
