CLK050G09
 OpenBabel03181413202D

 16 17  0  0  0  0  0  0  0  0999 V2000
   -0.3500   -0.2125    0.0000 C   0  0  0  0  0  0  0  0  0  0  0  0
    0.1333   -0.8833    0.0000 N   0  0  0  0  0  0  0  0  0  0  0  0
    0.9208   -0.6250    0.0000 C   0  0  0  0  0  0  0  0  0  0  0  0
    0.9208    0.2000    0.0000 N   0  0  0  0  0  0  0  0  0  0  0  0
    0.1333    0.4542    0.0000 C   0  0  0  0  0  0  0  0  0  0  0  0
   -1.1750   -0.2125    0.0000 C   0  0  0  0  0  0  0  0  0  0  0  0
    1.6333   -1.0375    0.0000 C   0  0  0  0  0  0  0  0  0  0  0  0
    1.6333    0.6125    0.0000 C   0  0  0  0  0  0  0  0  0  0  0  0
   -2.8250    1.2167    0.0000 C   0  0  0  0  0  0  0  0  0  0  0  0
    2.3500   -0.6250    0.0000 C   0  0  0  0  0  0  0  0  0  0  0  0
   -3.2375    1.9292    0.0000 C   0  0  0  0  0  0  0  0  0  0  0  0
    2.3500    0.2000    0.0000 C   0  0  0  0  0  0  0  0  0  0  0  0
   -1.5875   -0.9292    0.0000 O   0  0  0  0  0  0  0  0  0  0  0  0
   -1.5875    0.5000    0.0000 N   0  0  0  0  0  0  0  0  0  0  0  0
   -2.4125    0.5000    0.0000 C   0  0  0  0  0  0  0  0  0  0  0  0
    3.0625   -1.0375    0.0000 C   0  0  0  0  0  0  0  0  0  0  0  0
  2  1  1  0  0  0  0
  3  2  2  0  0  0  0
  3  4  1  0  0  0  0
  4  5  1  0  0  0  0
  5  1  2  0  0  0  0
  6  1  1  0  0  0  0
  7  3  1  0  0  0  0
  8  4  1  0  0  0  0
  9 15  1  0  0  0  0
 10  7  2  0  0  0  0
 11  9  3  0  0  0  0
 12  8  2  0  0  0  0
 12 10  1  0  0  0  0
 13  6  2  0  0  0  0
 14  6  1  0  0  0  0
 15 14  1  0  0  0  0
 16 10  1  0  0  0  0
M  END
> <CdId>
3871

> <Mol Weight>
213.2352

> <Formula>
C12H11N3O

> <Click_ID>
CLK050G09 __ __ 

$$$$
