CLK043F11
 OpenBabel03181413202D

 27 29  0  0  0  0  0  0  0  0999 V2000
    2.5125    0.3208    0.0000 C    0  0  0  0  0  0  0  0  0  0  0  0
    2.5125   -0.5042    0.0000 C    0  0  0  0  0  0  0  0  0  0  0  0
    1.7958    0.7333    0.0000 C    0  0  0  0  0  0  0  0  0  0  0  0
   -0.3458   -0.5042    0.0000 C    0  0  0  0  0  0  0  0  0  0  0  0
   -3.2042   -0.5042    0.0000 C    0  0  0  0  0  0  0  0  0  0  0  0
   -1.7750   -0.5042    0.0000 C    0  0  0  0  0  0  0  0  0  0  0  0
   -1.0625   -0.9167    0.0000 C    0  0  0  0  0  0  0  0  0  0  0  0
    4.6542    0.7333    0.0000 C    0  0  0  0  0  0  0  0  0  0  0  0
   -2.4875   -0.9167    0.0000 C    0  0  0  0  0  0  0  0  0  0  0  0
    5.3708    1.1458    0.0000 C    0  0  0  0  0  0  0  0  0  0  0  0
    0.3667   -0.9167    0.0000 C    0  0  0  0  0  0  0  0  0  0  0  0
   -3.2042    0.3208    0.0000 C    0  0  0  0  0  0  0  0  0  0  0  0
    1.0833   -0.5042    0.0000 C    0  0  0  0  0  0  0  0  0  0  0  0
    1.7958   -0.9167    0.0000 C    0  0  0  0  0  0  0  0  0  0  0  0
    1.0833    0.3208    0.0000 C    0  0  0  0  0  0  0  0  0  0  0  0
   -3.9167   -0.9167    0.0000 O    0  0  0  0  0  0  0  0  0  0  0  0
   -3.9167    0.7333    0.0000 O    0  0  0  0  0  0  0  0  0  0  0  0
   -1.7750    0.3208    0.0000 C    0  0  0  0  0  0  0  0  0  0  0  0
   -1.0625   -1.7417    0.0000 O    0  0  0  0  0  0  0  0  0  0  0  0
   -2.4875    0.7333    0.0000 C    0  0  0  0  0  0  0  0  0  0  0  0
    3.2250   -0.9167    0.0000 Cl   0  0  0  0  0  0  0  0  0  0  0  0
    3.2250    0.7333    0.0000 O    0  0  0  0  0  0  0  0  0  0  0  0
    1.7958    1.5583    0.0000 O    0  0  0  0  0  0  0  0  0  0  0  0
    3.9417    0.3208    0.0000 C    0  0  0  0  0  0  0  0  0  0  0  0
   -4.6333   -0.5042    0.0000 C    0  0  0  0  0  0  0  0  0  0  0  0
   -4.6333    0.3208    0.0000 C    0  0  0  0  0  0  0  0  0  0  0  0
    1.0833    1.9708    0.0000 C    0  0  0  0  0  0  0  0  0  0  0  0
  2  1  1  0  0  0  0
  3  1  2  0  0  0  0
  4 11  2  0  0  0  0
  5  9  1  0  0  0  0
  6  7  1  0  0  0  0
  7  4  1  0  0  0  0
  8 24  1  0  0  0  0
  9  6  2  0  0  0  0
 10  8  3  0  0  0  0
 11 13  1  0  0  0  0
 12  5  2  0  0  0  0
 12 20  1  0  0  0  0
 13 15  2  0  0  0  0
 14  2  2  0  0  0  0
 14 13  1  0  0  0  0
 15  3  1  0  0  0  0
 16  5  1  0  0  0  0
 17 12  1  0  0  0  0
 18  6  1  0  0  0  0
 19  7  2  0  0  0  0
 20 18  2  0  0  0  0
 21  2  1  0  0  0  0
 22  1  1  0  0  0  0
 23  3  1  0  0  0  0
 24 22  1  0  0  0  0
 25 16  1  0  0  0  0
 25 26  1  0  0  0  0
 26 17  1  0  0  0  0
 27 23  1  0  0  0  0
M  END
> <CdId>
3326

> <Mol Weight>
384.81

> <Formula>
C21H17ClO5

> <Click_ID>
CLK043F11 __ __ 

$$$$
