CLK029_B03
 OpenBabel03181413202D

 28 30  0  0  0  0  0  0  0  0999 V2000
   -1.1750    0.9659    0.0000 C   0  0  0  0  0  0  0  0  0  0  0  0
   -1.6642    0.2969    0.0000 N   0  0  0  0  0  0  0  0  0  0  0  0
   -0.3470    0.9659    0.0000 N   0  0  0  0  0  0  0  0  0  0  0  0
   -1.6642    1.6391    0.0000 S   0  0  0  0  0  0  0  0  0  0  0  0
   -2.4545    1.3799    0.0000 C   0  0  0  0  0  0  0  0  0  0  0  0
   -2.4545    0.5520    0.0000 C   0  0  0  0  0  0  0  0  0  0  0  0
    2.6344    1.0538    0.0000 C   0  0  0  0  0  0  0  0  0  0  0  0
    3.4498    1.1875    0.0000 N   0  0  0  0  0  0  0  0  0  0  0  0
    2.5132    0.2383    0.0000 C   0  0  0  0  0  0  0  0  0  0  0  0
    2.0448    1.6266    0.0000 N   0  0  0  0  0  0  0  0  0  0  0  0
    3.8304    0.4599    0.0000 O   0  0  0  0  0  0  0  0  0  0  0  0
   -0.1338    1.7688    0.0000 C   0  0  0  0  0  0  0  0  0  0  0  0
    3.2533   -0.1380    0.0000 C   0  0  0  0  0  0  0  0  0  0  0  0
   -3.1696    1.8022    0.0000 C   0  0  0  0  0  0  0  0  0  0  0  0
   -0.6021   -0.6565    0.0000 C   0  0  0  0  0  0  0  0  0  0  0  0
   -0.0502   -0.0418    0.0000 C   0  0  0  0  0  0  0  0  0  0  0  0
    2.2580    2.4337    0.0000 C   0  0  0  0  0  0  0  0  0  0  0  0
   -3.1696    0.1463    0.0000 C   0  0  0  0  0  0  0  0  0  0  0  0
   -1.4050   -0.4809    0.0000 C   0  0  0  0  0  0  0  0  0  0  0  0
   -0.7234    2.3542    0.0000 O   0  0  0  0  0  0  0  0  0  0  0  0
    3.0609    2.6553    0.0000 O   0  0  0  0  0  0  0  0  0  0  0  0
   -3.8763    1.3799    0.0000 C   0  0  0  0  0  0  0  0  0  0  0  0
    0.8698    2.7933    0.0000 S   0  0  0  0  0  0  0  0  0  0  0  0
   -3.8763    0.5520    0.0000 C   0  0  0  0  0  0  0  0  0  0  0  0
   -4.5997    1.7897    0.0000 F   0  0  0  0  0  0  0  0  0  0  0  0
    0.6565    1.9904    0.0000 C   0  0  0  0  0  0  0  0  0  0  0  0
    1.6684    3.0107    0.0000 C   0  0  0  0  0  0  0  0  0  0  0  0
    3.3913   -0.9451    0.0000 C   0  0  0  0  0  0  0  0  0  0  0  0
  2  1  1  0  0  0  0
  3  1  2  0  0  0  0
  4  1  1  0  0  0  0
  5  4  1  0  0  0  0
  5  6  2  0  0  0  0
  6  2  1  0  0  0  0
  7 10  1  0  0  0  0
  8  7  2  0  0  0  0
  9  7  1  0  0  0  0
 10 17  1  0  0  0  0
 11  8  1  0  0  0  0
 12  3  1  0  0  0  0
 13  9  2  0  0  0  0
 13 11  1  0  0  0  0
 14  5  1  0  0  0  0
 15 19  1  0  0  0  0
 16 15  3  0  0  0  0
 17 27  1  0  0  0  0
 18  6  1  0  0  0  0
 19  2  1  0  0  0  0
 20 12  2  0  0  0  0
 21 17  2  0  0  0  0
 22 14  2  0  0  0  0
 22 24  1  0  0  0  0
 23 26  1  0  0  0  0
 24 18  2  0  0  0  0
 25 22  1  0  0  0  0
 26 12  1  0  0  0  0
 27 23  1  0  0  0  0
 28 13  1  0  0  0  0
M  END
> <CdId>
2177

> <Mol Weight>
418.465

> <Formula>
C18H15FN4O3S2

> <Click_ID>
CLK029_B03 __ __ 

$$$$
