CLK034_B04
 OpenBabel03181413202D

 25 27  0  0  0  0  0  0  0  0999 V2000
   -4.6053    2.5636    0.0000 C   0  0  0  0  0  0  0  0  0  0  0  0
   -3.8705    2.9895    0.0000 N   0  0  0  0  0  0  0  0  0  0  0  0
   -4.6930    1.7369    0.0000 N   0  0  0  0  0  0  0  0  0  0  0  0
   -1.8496    4.5010    0.0000 C   0  0  0  0  0  0  0  0  0  0  0  0
   -5.3318    2.9018    0.0000 S   0  0  0  0  0  0  0  0  0  0  0  0
   -1.0146    4.4259    0.0000 N   0  3  0  0  0  0  0  0  0  0  0  0
   -5.4989    1.5866    0.0000 C   0  0  0  0  0  0  0  0  0  0  0  0
   -3.8788    3.8079    0.0000 C   0  0  0  0  0  0  0  0  0  0  0  0
   -2.4008    3.8913    0.0000 O   0  0  0  0  0  0  0  0  0  0  0  0
   -3.1648    4.2212    0.0000 C   0  0  0  0  0  0  0  0  0  0  0  0
   -5.9080    2.3048    0.0000 C   0  0  0  0  0  0  0  0  0  0  0  0
   -2.2755    5.2025    0.0000 C   0  0  0  0  0  0  0  0  0  0  0  0
   -3.0772    5.0271    0.0000 C   0  0  0  0  0  0  0  0  0  0  0  0
   -4.2671    0.3590    0.0000 C   0  0  0  0  0  0  0  0  0  0  0  0
   -4.4550   -0.4551    0.0000 C   0  0  0  0  0  0  0  0  0  0  0  0
   -0.6639    3.6784    0.0000 O   0  5  0  0  0  0  0  0  0  0  0  0
   -0.5386    5.1023    0.0000 O   0  0  0  0  0  0  0  0  0  0  0  0
   -5.9331    0.8851    0.0000 C   0  0  0  0  0  0  0  0  0  0  0  0
   -4.5928    4.2254    0.0000 O   0  0  0  0  0  0  0  0  0  0  0  0
   -4.0792    1.1649    0.0000 C   0  0  0  0  0  0  0  0  0  0  0  0
   -6.7181    2.3256    0.0000 C   0  0  0  0  0  0  0  0  0  0  0  0
   -5.5322    0.1461    0.0000 O   0  0  0  0  0  0  0  0  0  0  0  0
   -7.1565    1.6242    0.0000 C   0  0  0  0  0  0  0  0  0  0  0  0
   -6.7431    0.8893    0.0000 C   0  0  0  0  0  0  0  0  0  0  0  0
   -5.9706   -0.5553    0.0000 C   0  0  0  0  0  0  0  0  0  0  0  0
  2  1  2  0  0  0  0
  3  1  1  0  0  0  0
  4  9  1  0  0  0  0
  4 12  2  0  0  0  0
  5  1  1  0  0  0  0
  6  4  1  0  0  0  0
  7  3  1  0  0  0  0
  8  2  1  0  0  0  0
  9 10  1  0  0  0  0
 10  8  1  0  0  0  0
 11  5  1  0  0  0  0
 11  7  2  0  0  0  0
 12 13  1  0  0  0  0
 13 10  2  0  0  0  0
 14 20  1  0  0  0  0
 15 14  3  0  0  0  0
 16  6  1  0  0  0  0
 17  6  2  0  0  0  0
 18  7  1  0  0  0  0
 19  8  2  0  0  0  0
 20  3  1  0  0  0  0
 21 11  1  0  0  0  0
 22 18  1  0  0  0  0
 23 21  2  0  0  0  0
 24 18  2  0  0  0  0
 24 23  1  0  0  0  0
 25 22  1  0  0  0  0
M  END
> <CdId>
2578

> <Mol Weight>
357.341

> <Formula>
C16H11N3O5S

> <Click_ID>
CLK034_B04 __ __ 

$$$$
