CLK040F10
 OpenBabel03181413202D

 26 28  0  0  0  0  0  0  0  0999 V2000
   -1.4024    1.4858    0.0000 S   0  0  0  0  0  0  0  0  0  0  0  0
    2.0159    0.6594    0.0000 C   0  0  0  0  0  0  0  0  0  0  0  0
    1.5318   -0.0125    0.0000 N   0  0  0  0  0  0  0  0  0  0  0  0
    1.5318    1.3272    0.0000 O   0  0  0  0  0  0  0  0  0  0  0  0
    0.7471    1.0726    0.0000 C   0  0  0  0  0  0  0  0  0  0  0  0
    0.7471    0.2462    0.0000 C   0  0  0  0  0  0  0  0  0  0  0  0
   -0.6845    1.0726    0.0000 C   0  0  0  0  0  0  0  0  0  0  0  0
   -2.1161    1.8990    0.0000 N   0  0  0  0  0  0  0  0  0  0  0  0
    0.0292    1.4858    0.0000 C   0  0  0  0  0  0  0  0  0  0  0  0
    1.7863   -0.7971    0.0000 C   0  0  0  0  0  0  0  0  0  0  0  0
    1.2354   -1.4107    0.0000 C   0  0  0  0  0  0  0  0  0  0  0  0
   -0.9892    2.1995    0.0000 O   0  0  0  0  0  0  0  0  0  0  0  0
   -1.8156    0.7680    0.0000 O   0  0  0  0  0  0  0  0  0  0  0  0
    0.6386   -4.2113    0.0000 C   0  0  0  0  0  0  0  0  0  0  0  0
    0.0292   -0.1670    0.0000 C   0  0  0  0  0  0  0  0  0  0  0  0
    1.4900   -2.1954    0.0000 C   0  0  0  0  0  0  0  0  0  0  0  0
    0.0876   -4.8248    0.0000 C   0  0  0  0  0  0  0  0  0  0  0  0
    2.8423    0.6594    0.0000 O   0  0  0  0  0  0  0  0  0  0  0  0
   -0.6845    0.2462    0.0000 C   0  0  0  0  0  0  0  0  0  0  0  0
    2.2997   -2.3707    0.0000 O   0  0  0  0  0  0  0  0  0  0  0  0
    0.9391   -2.8130    0.0000 N   0  0  0  0  0  0  0  0  0  0  0  0
    1.1937   -3.5978    0.0000 C   0  0  0  0  0  0  0  0  0  0  0  0
   -2.2037    2.7171    0.0000 C   0  0  0  0  0  0  0  0  0  0  0  0
   -2.8715    1.5609    0.0000 C   0  0  0  0  0  0  0  0  0  0  0  0
   -3.4225    2.1745    0.0000 C   0  0  0  0  0  0  0  0  0  0  0  0
   -3.0093    2.8924    0.0000 C   0  0  0  0  0  0  0  0  0  0  0  0
  2  4  1  0  0  0  0
  2  3  1  0  0  0  0
  3  6  1  0  0  0  0
  4  5  1  0  0  0  0
  5  9  1  0  0  0  0
  6 15  1  0  0  0  0
  6  5  2  0  0  0  0
  7  1  1  0  0  0  0
  8  1  1  0  0  0  0
  9  7  2  0  0  0  0
 10  3  1  0  0  0  0
 11 10  1  0  0  0  0
 12  1  2  0  0  0  0
 13  1  2  0  0  0  0
 14 22  1  0  0  0  0
 15 19  2  0  0  0  0
 16 11  1  0  0  0  0
 17 14  3  0  0  0  0
 18  2  2  0  0  0  0
 19  7  1  0  0  0  0
 20 16  2  0  0  0  0
 21 16  1  0  0  0  0
 22 21  1  0  0  0  0
 23  8  1  0  0  0  0
 24  8  1  0  0  0  0
 25 24  1  0  0  0  0
 25 26  1  0  0  0  0
 26 23  1  0  0  0  0
M  END
> <CdId>
3078

> <Mol Weight>
377.415

> <Formula>
C17H19N3O5S

> <Click_ID>
CLK040F10 __ __ 

$$$$
