CLK031_B05
 OpenBabel03181413202D

 31 34  0  0  0  0  0  0  0  0999 V2000
   -1.1625    2.3833    0.0000 C   0  0  0  0  0  0  0  0  0  0  0  0
   -0.3375    2.3750    0.0000 N   0  0  0  0  0  0  0  0  0  0  0  0
   -4.5833    3.2125    0.0000 S   0  0  0  0  0  0  0  0  0  0  0  0
   -1.6458    1.7208    0.0000 N   0  0  0  0  0  0  0  0  0  0  0  0
   -1.6458    3.0500    0.0000 S   0  0  0  0  0  0  0  0  0  0  0  0
    0.9000    3.0875    0.0000 C   0  0  0  0  0  0  0  0  0  0  0  0
    4.3167    3.9458    0.0000 N   0  3  0  0  0  0  0  0  0  0  0  0
   -2.4333    2.7958    0.0000 C   0  0  0  0  0  0  0  0  0  0  0  0
    0.0750    3.0875    0.0000 C   0  0  0  0  0  0  0  0  0  0  0  0
    1.3875    2.4333    0.0000 S   0  0  0  0  0  0  0  0  0  0  0  0
   -2.4333    1.9708    0.0000 C   0  0  0  0  0  0  0  0  0  0  0  0
    1.3917    3.7583    0.0000 C   0  0  0  0  0  0  0  0  0  0  0  0
    2.1667    3.5083    0.0000 C   0  0  0  0  0  0  0  0  0  0  0  0
   -3.8583    2.7958    0.0000 C   0  0  0  0  0  0  0  0  0  0  0  0
   -3.1458    3.2083    0.0000 C   0  0  0  0  0  0  0  0  0  0  0  0
    2.1792    2.6750    0.0000 C   0  0  0  0  0  0  0  0  0  0  0  0
    3.6042    3.5000    0.0000 C   0  0  0  0  0  0  0  0  0  0  0  0
    2.8917    3.9083    0.0000 C   0  0  0  0  0  0  0  0  0  0  0  0
   -1.9458    0.3208    0.0000 C   0  0  0  0  0  0  0  0  0  0  0  0
   -3.1458    1.5583    0.0000 C   0  0  0  0  0  0  0  0  0  0  0  0
   -2.4958   -0.2917    0.0000 C   0  0  0  0  0  0  0  0  0  0  0  0
   -4.1458    3.9083    0.0000 O   0  0  0  0  0  0  0  0  0  0  0  0
   -5.0208    2.5083    0.0000 O   0  0  0  0  0  0  0  0  0  0  0  0
    5.0417    3.5458    0.0000 O   0  5  0  0  0  0  0  0  0  0  0  0
    4.2792    4.7625    0.0000 O   0  0  0  0  0  0  0  0  0  0  0  0
   -5.2833    3.6458    0.0000 N   0  0  0  0  0  0  0  0  0  0  0  0
   -0.3375    3.8000    0.0000 O   0  0  0  0  0  0  0  0  0  0  0  0
   -3.8583    1.9708    0.0000 C   0  0  0  0  0  0  0  0  0  0  0  0
    2.8917    2.2583    0.0000 C   0  0  0  0  0  0  0  0  0  0  0  0
    3.6125    2.6708    0.0000 C   0  0  0  0  0  0  0  0  0  0  0  0
   -1.3958    0.9333    0.0000 C   0  0  0  0  0  0  0  0  0  0  0  0
  2  1  2  0  0  0  0
  3 14  1  0  0  0  0
  4  1  1  0  0  0  0
  5  1  1  0  0  0  0
  6  9  1  0  0  0  0
  7 17  1  0  0  0  0
  8  5  1  0  0  0  0
  8 11  2  0  0  0  0
  9  2  1  0  0  0  0
 10  6  1  0  0  0  0
 11  4  1  0  0  0  0
 12  6  2  0  0  0  0
 13 12  1  0  0  0  0
 14 15  2  0  0  0  0
 14 28  1  0  0  0  0
 15  8  1  0  0  0  0
 16 10  1  0  0  0  0
 16 13  2  0  0  0  0
 17 18  2  0  0  0  0
 18 13  1  0  0  0  0
 19 31  1  0  0  0  0
 20 11  1  0  0  0  0
 21 19  3  0  0  0  0
 22  3  2  0  0  0  0
 23  3  2  0  0  0  0
 24  7  1  0  0  0  0
 25  7  2  0  0  0  0
 26  3  1  0  0  0  0
 27  9  2  0  0  0  0
 28 20  2  0  0  0  0
 29 16  1  0  0  0  0
 30 29  2  0  0  0  0
 30 17  1  0  0  0  0
 31  4  1  0  0  0  0
M  END
> <CdId>
2339

> <Mol Weight>
472.517

> <Formula>
C19H12N4O5S3

> <Click_ID>
CLK031_B05 __ __ 

$$$$
