CLK006_C07
 OpenBabel03181413202D

 29 31  0  0  0  0  0  0  0  0999 V2000
   -0.9693   -1.6017    0.0000 C   0  0  0  0  0  0  0  0  0  0  0  0
   -1.6682   -2.1051    0.0000 C   0  0  3  0  0  0  0  0  0  0  0  0
   -2.3339   -1.6183    0.0000 C   0  0  0  0  0  0  0  0  0  0  0  0
   -0.9527   -2.5211    0.0000 C   0  0  0  0  0  0  0  0  0  0  0  0
   -1.2523   -0.8279    0.0000 C   0  0  0  0  0  0  0  0  0  0  0  0
   -2.0801   -0.8320    0.0000 N   0  0  0  0  0  0  0  0  0  0  0  0
   -0.1456   -1.6017    0.0000 C   0  0  0  0  0  0  0  0  0  0  0  0
   -0.9443   -3.3490    0.0000 C   0  0  0  0  0  0  0  0  0  0  0  0
   -1.6641   -3.7609    0.0000 O   0  0  0  0  0  0  0  0  0  0  0  0
   -2.3838   -2.5294    0.0000 C   0  0  0  0  0  0  0  0  0  0  0  0
   -2.3796   -3.3573    0.0000 C   0  0  0  0  0  0  0  0  0  0  0  0
   -0.2371   -2.9372    0.0000 C   0  0  0  0  0  0  0  0  0  0  0  0
    0.2621   -0.8861    0.0000 O   0  0  0  0  0  0  0  0  0  0  0  0
    0.4743   -3.3490    0.0000 N   0  0  0  0  0  0  0  0  0  0  0  0
   -2.2258    0.5866    0.0000 C   0  0  0  0  0  0  0  0  0  0  0  0
   -1.8888    1.3396    0.0000 C   0  0  0  0  0  0  0  0  0  0  0  0
   -3.1659   -1.6267    0.0000 O   0  0  0  0  0  0  0  0  0  0  0  0
    0.2621   -2.3131    0.0000 O   0  0  0  0  0  0  0  0  0  0  0  0
   -2.5628   -0.1623    0.0000 C   0  0  0  0  0  0  0  0  0  0  0  0
   -0.2205   -3.7650    0.0000 N   0  0  0  0  0  0  0  0  0  0  0  0
    1.0858   -0.8778    0.0000 C   0  0  0  0  0  0  0  0  0  0  0  0
   -0.7821   -0.1540    0.0000 C   0  0  0  0  0  0  0  0  0  0  0  0
   -3.0994   -2.1134    0.0000 C   0  0  0  0  0  0  0  0  0  0  0  0
   -3.0869   -3.7734    0.0000 C   0  0  0  0  0  0  0  0  0  0  0  0
    1.9013   -0.8778    0.0000 C   0  0  0  0  0  0  0  0  0  0  0  0
    1.0775   -0.0541    0.0000 C   0  0  0  0  0  0  0  0  0  0  0  0
    1.0775   -1.7016    0.0000 C   0  0  0  0  0  0  0  0  0  0  0  0
   -3.8149   -2.5378    0.0000 C   0  0  0  0  0  0  0  0  0  0  0  0
   -3.8108   -3.3615    0.0000 C   0  0  0  0  0  0  0  0  0  0  0  0
  2  1  1  0  0  0  0
  3  2  1  0  0  0  0
  3  6  1  0  0  0  0
  4  2  1  0  0  0  0
  5  1  2  0  0  0  0
  6  5  1  0  0  0  0
  7  1  1  0  0  0  0
  8  4  2  0  0  0  0
  9 11  1  0  0  0  0
  9  8  1  0  0  0  0
 10  2  1  0  0  0  0
 11 10  1  0  0  0  0
 12  4  1  0  0  0  0
 13  7  1  0  0  0  0
 14 12  3  0  0  0  0
 15 19  1  0  0  0  0
 16 15  3  0  0  0  0
 17  3  2  0  0  0  0
 18  7  2  0  0  0  0
 19  6  1  0  0  0  0
 20  8  1  0  0  0  0
 21 13  1  0  0  0  0
 22  5  1  0  0  0  0
 23 10  2  0  0  0  0
 24 11  2  0  0  0  0
 25 21  1  0  0  0  0
 26 21  1  0  0  0  0
 27 21  1  0  0  0  0
 28 23  1  0  0  0  0
 29 28  2  0  0  0  0
 29 24  1  0  0  0  0
M  END
> <CdId>
426

> <Mol Weight>
391.4198

> <Formula>
C22H21N3O4

> <Click_ID>
CLK006_C07 __ __ 

$$$$
