CLK001_C04
 OpenBabel03181413202D

 18 19  0  0  0  0  0  0  0  0999 V2000
   -0.6250    0.5076    0.0000 C   0  0  0  0  0  0  0  0  0  0  0  0
   -0.7349   -0.3144    0.0000 C   0  0  0  0  0  0  0  0  0  0  0  0
    0.1856    0.6439    0.0000 C   0  0  3  0  0  0  0  0  0  0  0  0
   -1.2690    1.0151    0.0000 C   0  0  0  0  0  0  0  0  0  0  0  0
    0.0037   -0.6743    0.0000 N   0  0  0  0  0  0  0  0  0  0  0  0
   -1.5039   -0.6175    0.0000 C   0  0  0  0  0  0  0  0  0  0  0  0
    0.5796   -0.0834    0.0000 C   0  0  0  0  0  0  0  0  0  0  0  0
    1.1212    1.2690    0.0000 C   0  0  0  0  0  0  0  0  0  0  0  0
   -0.0758    1.5795    0.0000 O   0  0  0  0  0  0  0  0  0  0  0  0
   -2.0304    0.7046    0.0000 C   0  0  0  0  0  0  0  0  0  0  0  0
    0.1439   -1.4848    0.0000 C   0  0  0  0  0  0  0  0  0  0  0  0
   -2.1478   -0.1099    0.0000 C   0  0  0  0  0  0  0  0  0  0  0  0
    1.3940   -0.2008    0.0000 O   0  0  0  0  0  0  0  0  0  0  0  0
    1.9129    0.8561    0.0000 C   0  0  0  0  0  0  0  0  0  0  0  0
   -0.4849   -2.0189    0.0000 C   0  0  0  0  0  0  0  0  0  0  0  0
    2.6932    1.2955    0.0000 C   0  0  0  0  0  0  0  0  0  0  0  0
    1.9433    0.1705    0.0000 O   0  0  0  0  0  0  0  0  0  0  0  0
   -1.1174   -2.5417    0.0000 C   0  0  0  0  0  0  0  0  0  0  0  0
  1  2  2  0  0  0  0
  1  3  1  0  0  0  0
  1  4  1  0  0  0  0
  2  5  1  0  0  0  0
  2  6  1  0  0  0  0
  3  7  1  0  0  0  0
  3  8  1  0  0  0  0
  3  9  1  0  0  0  0
  4 10  2  0  0  0  0
  5 11  1  0  0  0  0
  5  7  1  0  0  0  0
  6 12  2  0  0  0  0
  7 13  2  0  0  0  0
  8 14  1  0  0  0  0
 10 12  1  0  0  0  0
 11 15  1  0  0  0  0
 14 16  1  0  0  0  0
 14 17  2  0  0  0  0
 15 18  3  0  0  0  0
M  END
> <CdId>
23

> <Mol Weight>
243.2579

> <Formula>
C14H13NO3

> <Click_ID>
CLK001_C04 __ __ 

$$$$
