CLK023_A02
 OpenBabel03181413202D

 31 33  0  0  0  0  0  0  0  0999 V2000
   -0.1443   -1.9348    0.0000 N   0  0  0  0  0  0  0  0  0  0  0  0
    0.1066   -2.7252    0.0000 C   0  0  0  0  0  0  0  0  0  0  0  0
    0.5223   -1.4502    0.0000 C   0  0  0  0  0  0  0  0  0  0  0  0
    1.1891   -1.9348    0.0000 C   0  0  0  0  0  0  0  0  0  0  0  0
    0.9347   -2.7252    0.0000 N   0  0  0  0  0  0  0  0  0  0  0  0
    1.9795   -1.6736    0.0000 C   0  0  0  0  0  0  0  0  0  0  0  0
   -0.9313   -1.6736    0.0000 C   0  0  0  0  0  0  0  0  0  0  0  0
   -1.1066   -0.8729    0.0000 C   0  0  0  0  0  0  0  0  0  0  0  0
    3.6290    2.5946    0.0000 C   0  0  0  0  0  0  0  0  0  0  0  0
    3.8111    3.3919    0.0000 C   0  0  0  0  0  0  0  0  0  0  0  0
   -0.3780   -3.3919    0.0000 O   0  0  0  0  0  0  0  0  0  0  0  0
   -1.8867   -0.6186    0.0000 N   0  0  0  0  0  0  0  0  0  0  0  0
    1.7046    0.4880    0.0000 C   0  0  0  0  0  0  0  0  0  0  0  0
    0.5223   -0.6221    0.0000 O   0  0  0  0  0  0  0  0  0  0  0  0
    2.1513   -0.8729    0.0000 C   0  0  0  0  0  0  0  0  0  0  0  0
    1.5362   -0.3196    0.0000 C   0  0  0  0  0  0  0  0  0  0  0  0
    2.4881    0.7320    0.0000 C   0  0  0  0  0  0  0  0  0  0  0  0
   -0.4914   -0.3161    0.0000 O   0  0  0  0  0  0  0  0  0  0  0  0
   -2.0620    0.1924    0.0000 C   0  0  0  0  0  0  0  0  0  0  0  0
    3.0964    0.1856    0.0000 C   0  0  0  0  0  0  0  0  0  0  0  0
   -2.8490    0.4433    0.0000 C   0  0  0  0  0  0  0  0  0  0  0  0
    2.9211   -0.6221    0.0000 C   0  0  0  0  0  0  0  0  0  0  0  0
    1.1100    1.0344    0.0000 O   0  0  0  0  0  0  0  0  0  0  0  0
    2.6702    1.5396    0.0000 O   0  0  0  0  0  0  0  0  0  0  0  0
   -3.0242    1.2475    0.0000 C   0  0  0  0  0  0  0  0  0  0  0  0
    3.4469    1.7904    0.0000 C   0  0  0  0  0  0  0  0  0  0  0  0
   -1.6186    1.5602    0.0000 C   0  0  0  0  0  0  0  0  0  0  0  0
   -1.4434    0.7458    0.0000 C   0  0  0  0  0  0  0  0  0  0  0  0
   -2.4090    1.8111    0.0000 C   0  0  0  0  0  0  0  0  0  0  0  0
   -3.8146    1.4984    0.0000 C   0  0  0  0  0  0  0  0  0  0  0  0
    0.3231    0.7870    0.0000 C   0  0  0  0  0  0  0  0  0  0  0  0
  2  1  1  0  0  0  0
  3  1  1  0  0  0  0
  4  3  1  0  0  0  0
  5  2  1  0  0  0  0
  5  4  1  0  0  0  0
  6  4  2  0  0  0  0
  7  1  1  0  0  0  0
  8  7  1  0  0  0  0
  9 26  1  0  0  0  0
 10  9  3  0  0  0  0
 11  2  2  0  0  0  0
 12  8  1  0  0  0  0
 13 16  1  0  0  0  0
 13 17  2  0  0  0  0
 14  3  2  0  0  0  0
 15  6  1  0  0  0  0
 16 15  2  0  0  0  0
 17 20  1  0  0  0  0
 18  8  2  0  0  0  0
 19 12  1  0  0  0  0
 20 22  2  0  0  0  0
 21 19  1  0  0  0  0
 22 15  1  0  0  0  0
 23 13  1  0  0  0  0
 24 17  1  0  0  0  0
 25 21  2  0  0  0  0
 25 29  1  0  0  0  0
 26 24  1  0  0  0  0
 27 28  1  0  0  0  0
 28 19  2  0  0  0  0
 29 27  2  0  0  0  0
 30 25  1  0  0  0  0
 31 23  1  0  0  0  0
M  END
> <CdId>
1697

> <Mol Weight>
419.4299

> <Formula>
C23H21N3O5

> <Click_ID>
CLK023_A02 __ __ 

$$$$
