CLK028_G03
 OpenBabel03181413202D

 25 26  0  0  0  0  0  0  0  0999 V2000
    1.7875    1.0277    0.0000 C    0  0  0  0  0  0  0  0  0  0  0  0
    3.2139    1.0277    0.0000 N    0  0  0  0  0  0  0  0  0  0  0  0
    3.2139    0.2028    0.0000 C    0  0  0  0  0  0  0  0  0  0  0  0
    2.5024    1.4505    0.0000 C    0  0  0  0  0  0  0  0  0  0  0  0
    2.5024   -0.1994    0.0000 N    0  0  0  0  0  0  0  0  0  0  0  0
    1.7875    0.2028    0.0000 C    0  0  0  0  0  0  0  0  0  0  0  0
    1.0759    1.4437    0.0000 C    0  0  0  0  0  0  0  0  0  0  0  0
    0.3644    1.0244    0.0000 C    0  0  0  0  0  0  0  0  0  0  0  0
   -1.0759    1.0244    0.0000 C    0  0  0  0  0  0  0  0  0  0  0  0
   -0.3609    1.4369    0.0000 C    0  0  0  0  0  0  0  0  0  0  0  0
   -1.0656    0.1994    0.0000 C    0  0  0  0  0  0  0  0  0  0  0  0
    3.9289   -0.2097    0.0000 S    0  0  0  0  0  0  0  0  0  0  0  0
    0.3575    0.1994    0.0000 C    0  0  0  0  0  0  0  0  0  0  0  0
   -3.2139   -0.2200    0.0000 C    0  0  0  0  0  0  0  0  0  0  0  0
   -0.3541   -0.2131    0.0000 C    0  0  0  0  0  0  0  0  0  0  0  0
   -3.9324   -0.6256    0.0000 C    0  0  0  0  0  0  0  0  0  0  0  0
    2.5024    2.2755    0.0000 O    0  0  0  0  0  0  0  0  0  0  0  0
    1.0759   -0.2097    0.0000 O    0  0  0  0  0  0  0  0  0  0  0  0
    3.9289    1.4437    0.0000 C    0  0  0  0  0  0  0  0  0  0  0  0
   -0.3609    2.2652    0.0000 Br   0  0  0  0  0  0  0  0  0  0  0  0
   -1.7875   -0.2131    0.0000 O    0  0  0  0  0  0  0  0  0  0  0  0
   -0.3541   -1.0347    0.0000 O    0  0  0  0  0  0  0  0  0  0  0  0
   -2.5024    0.1925    0.0000 C    0  0  0  0  0  0  0  0  0  0  0  0
    0.3644   -1.4472    0.0000 C    0  0  0  0  0  0  0  0  0  0  0  0
    0.3644   -2.2721    0.0000 C    0  0  0  0  0  0  0  0  0  0  0  0
  2  4  1  0  0  0  0
  2  3  1  0  0  0  0
  3  5  1  0  0  0  0
  4  1  1  0  0  0  0
  5  6  1  0  0  0  0
  6  1  1  0  0  0  0
  7  1  2  0  0  0  0
  8  7  1  0  0  0  0
  9 10  2  0  0  0  0
  9 11  1  0  0  0  0
 10  8  1  0  0  0  0
 11 15  2  0  0  0  0
 12  3  2  0  0  0  0
 13  8  2  0  0  0  0
 14 23  1  0  0  0  0
 15 13  1  0  0  0  0
 16 14  3  0  0  0  0
 17  4  2  0  0  0  0
 18  6  2  0  0  0  0
 19  2  1  0  0  0  0
 20 10  1  0  0  0  0
 21 11  1  0  0  0  0
 22 15  1  0  0  0  0
 23 21  1  0  0  0  0
 24 22  1  0  0  0  0
 25 24  1  0  0  0  0
M  END
> <CdId>
2147

> <Mol Weight>
423.281

> <Formula>
C17H15BrN2O4S

> <Click_ID>
CLK028_G03 __ __ 

$$$$
