CLK001_C10
 OpenBabel03181413202D

 31 33  0  0  0  0  0  0  0  0999 V2000
   -2.9927    0.9976    0.0000 C   0  0  0  0  0  0  0  0  0  0  0  0
   -2.2022    0.7455    0.0000 C   0  0  0  0  0  0  0  0  0  0  0  0
   -2.9892    1.8259    0.0000 C   0  0  0  0  0  0  0  0  0  0  0  0
   -3.7140    0.5834    0.0000 C   0  0  0  0  0  0  0  0  0  0  0  0
   -1.7155    1.4117    0.0000 C   0  0  0  0  0  0  0  0  0  0  0  0
   -1.9502   -0.0448    0.0000 C   0  0  0  0  0  0  0  0  0  0  0  0
   -2.1988    2.0849    0.0000 N   0  0  0  0  0  0  0  0  0  0  0  0
   -3.7140    2.2470    0.0000 C   0  0  0  0  0  0  0  0  0  0  0  0
   -4.4251    0.9941    0.0000 C   0  0  0  0  0  0  0  0  0  0  0  0
   -1.1390   -0.2174    0.0000 C   0  0  0  0  0  0  0  0  0  0  0  0
   -4.4251    1.8259    0.0000 C   0  0  0  0  0  0  0  0  0  0  0  0
   -0.8871   -1.0044    0.0000 N   0  0  0  0  0  0  0  0  0  0  0  0
   -0.0863   -1.1771    0.0000 C   0  0  0  0  0  0  0  0  0  0  0  0
    0.1726   -1.9571    0.0000 C   0  0  0  0  0  0  0  0  0  0  0  0
    0.4729   -0.5661    0.0000 O   0  0  0  0  0  0  0  0  0  0  0  0
    0.9803   -2.1331    0.0000 C   0  0  0  0  0  0  0  0  0  0  0  0
   -0.3763   -2.5715    0.0000 C   0  0  0  0  0  0  0  0  0  0  0  0
    1.5291   -1.5187    0.0000 C   0  0  0  0  0  0  0  0  0  0  0  0
   -0.9665   -3.1583    0.0000 N   0  0  0  0  0  0  0  0  0  0  0  0
    1.2806   -0.7455    0.0000 C   0  0  0  0  0  0  0  0  0  0  0  0
    2.3264   -1.6914    0.0000 C   0  0  0  0  0  0  0  0  0  0  0  0
    1.8294   -0.1277    0.0000 C   0  0  0  0  0  0  0  0  0  0  0  0
    2.8752   -1.0770    0.0000 C   0  0  0  0  0  0  0  0  0  0  0  0
    2.6267   -0.3037    0.0000 C   0  0  0  0  0  0  0  0  0  0  0  0
    1.5809    0.6489    0.0000 O   0  0  0  0  0  0  0  0  0  0  0  0
    3.1824    0.3072    0.0000 O   0  0  0  0  0  0  0  0  0  0  0  0
    0.7801    0.8180    0.0000 C   0  0  0  0  0  0  0  0  0  0  0  0
    3.9832    0.1311    0.0000 C   0  0  0  0  0  0  0  0  0  0  0  0
    0.5281    1.5947    0.0000 C   0  0  0  0  0  0  0  0  0  0  0  0
    4.5390    0.7352    0.0000 C   0  0  0  0  0  0  0  0  0  0  0  0
    5.0947    1.3461    0.0000 C   0  0  0  0  0  0  0  0  0  0  0  0
  1  2  1  0  0  0  0
  1  3  2  0  0  0  0
  1  4  1  0  0  0  0
  2  5  2  0  0  0  0
  2  6  1  0  0  0  0
  3  7  1  0  0  0  0
  3  8  1  0  0  0  0
  4  9  2  0  0  0  0
  5  7  1  0  0  0  0
  6 10  1  0  0  0  0
  8 11  2  0  0  0  0
  9 11  1  0  0  0  0
 10 12  1  0  0  0  0
 12 13  1  0  0  0  0
 13 14  1  0  0  0  0
 13 15  2  0  0  0  0
 14 16  2  0  0  0  0
 14 17  1  0  0  0  0
 16 18  1  0  0  0  0
 17 19  3  0  0  0  0
 18 20  2  0  0  0  0
 18 21  1  0  0  0  0
 20 22  1  0  0  0  0
 21 23  2  0  0  0  0
 22 24  2  0  0  0  0
 22 25  1  0  0  0  0
 23 24  1  0  0  0  0
 24 26  1  0  0  0  0
 25 27  1  0  0  0  0
 26 28  1  0  0  0  0
 27 29  1  0  0  0  0
 28 30  1  0  0  0  0
 30 31  3  0  0  0  0
M  END
> <CdId>
29

> <Mol Weight>
413.4684

> <Formula>
C25H23N3O3

> <Click_ID>
CLK001_C10 __ __ 

$$$$
