CLK006_F03
 OpenBabel03181413202D

 23 25  0  0  0  0  0  0  0  0999 V2000
   -0.8585    0.3655    0.0000 N   0  0  0  0  0  0  0  0  0  0  0  0
   -1.6551    0.6171    0.0000 C   0  0  0  0  0  0  0  0  0  0  0  0
   -0.3793    1.0413    0.0000 C   0  0  0  0  0  0  0  0  0  0  0  0
   -0.4483   -0.3483    0.0000 C   0  0  0  0  0  0  0  0  0  0  0  0
   -1.6585    1.4447    0.0000 C   0  0  0  0  0  0  0  0  0  0  0  0
   -2.3757    0.2034    0.0000 C   0  0  0  0  0  0  0  0  0  0  0  0
   -0.8723    1.7102    0.0000 N   0  0  0  0  0  0  0  0  0  0  0  0
    0.4414    1.0413    0.0000 C   0  0  0  0  0  0  0  0  0  0  0  0
   -0.8585   -1.0585    0.0000 C   0  0  0  0  0  0  0  0  0  0  0  0
   -2.3757    1.8584    0.0000 C   0  0  0  0  0  0  0  0  0  0  0  0
   -3.0894    0.6171    0.0000 C   0  0  0  0  0  0  0  0  0  0  0  0
    0.8551    0.3276    0.0000 C   0  0  0  0  0  0  0  0  0  0  0  0
   -0.4483   -1.7722    0.0000 C   0  0  0  0  0  0  0  0  0  0  0  0
   -3.0894    1.4447    0.0000 C   0  0  0  0  0  0  0  0  0  0  0  0
    1.6758    0.3379    0.0000 C   0  0  0  0  0  0  0  0  0  0  0  0
    0.3759   -0.3414    0.0000 C   0  0  0  0  0  0  0  0  0  0  0  0
    2.0895   -0.3759    0.0000 C   0  0  0  0  0  0  0  0  0  0  0  0
    0.8551   -1.0965    0.0000 C   0  0  0  0  0  0  0  0  0  0  0  0
    1.6827   -1.0965    0.0000 C   0  0  0  0  0  0  0  0  0  0  0  0
    2.8860   -0.5828    0.0000 O   0  0  0  0  0  0  0  0  0  0  0  0
    2.0998   -1.8101    0.0000 O   0  0  0  0  0  0  0  0  0  0  0  0
    3.4652    0.0000    0.0000 C   0  0  0  0  0  0  0  0  0  0  0  0
    1.6861   -2.5239    0.0000 C   0  0  0  0  0  0  0  0  0  0  0  0
  1  2  1  0  0  0  0
  1  3  1  0  0  0  0
  1  4  1  0  0  0  0
  2  5  1  0  0  0  0
  2  6  2  0  0  0  0
  3  7  2  0  0  0  0
  3  8  1  0  0  0  0
  4  9  1  0  0  0  0
  5 10  2  0  0  0  0
  5  7  1  0  0  0  0
  6 11  1  0  0  0  0
  8 12  1  0  0  0  0
  9 13  3  0  0  0  0
 10 14  1  0  0  0  0
 11 14  2  0  0  0  0
 12 15  1  0  0  0  0
 12 16  2  0  0  0  0
 15 17  2  0  0  0  0
 16 18  1  0  0  0  0
 17 19  1  0  0  0  0
 17 20  1  0  0  0  0
 18 19  2  0  0  0  0
 19 21  1  0  0  0  0
 20 22  1  0  0  0  0
 21 23  1  0  0  0  0
M  END
> <CdId>
452

> <Mol Weight>
306.3584

> <Formula>
C19H18N2O2

> <Click_ID>
CLK006_F03 __ __ 

$$$$
