CLK035_H07
 OpenBabel03181413202D

 34 36  0  0  0  0  0  0  0  0999 V2000
   -4.5851    2.5523    0.0000 C   0  0  0  0  0  0  0  0  0  0  0  0
   -0.9935    5.4373    0.0000 S   0  0  0  0  0  0  0  0  0  0  0  0
   -3.8535    2.9763    0.0000 N   0  0  0  0  0  0  0  0  0  0  0  0
   -4.6766    1.7293    0.0000 N   0  0  0  0  0  0  0  0  0  0  0  0
   -5.3084    2.8932    0.0000 S   0  0  0  0  0  0  0  0  0  0  0  0
   -5.4830    1.5796    0.0000 C   0  0  0  0  0  0  0  0  0  0  0  0
   -5.8820    2.3029    0.0000 C   0  0  0  0  0  0  0  0  0  0  0  0
   -3.8618    3.7911    0.0000 C   0  0  0  0  0  0  0  0  0  0  0  0
   -0.2868    5.8405    0.0000 N   0  0  0  0  0  0  0  0  0  0  0  0
   -1.7085    5.0175    0.0000 C   0  0  0  0  0  0  0  0  0  0  0  0
   -4.2608    0.3575    0.0000 C   0  0  0  0  0  0  0  0  0  0  0  0
   -0.5819    4.7182    0.0000 O   0  0  0  0  0  0  0  0  0  0  0  0
   -1.4175    6.1606    0.0000 O   0  0  0  0  0  0  0  0  0  0  0  0
   -4.4479   -0.4531    0.0000 C   0  0  0  0  0  0  0  0  0  0  0  0
   -3.1509    4.2027    0.0000 C   0  0  0  0  0  0  0  0  0  0  0  0
   -4.5726    4.2027    0.0000 O   0  0  0  0  0  0  0  0  0  0  0  0
   -5.9112    0.8812    0.0000 C   0  0  0  0  0  0  0  0  0  0  0  0
   -4.0738    1.1598    0.0000 C   0  0  0  0  0  0  0  0  0  0  0  0
   -1.7168    4.1944    0.0000 C   0  0  0  0  0  0  0  0  0  0  0  0
   -2.4318    5.4373    0.0000 C   0  0  0  0  0  0  0  0  0  0  0  0
   -2.4318    3.7869    0.0000 C   0  0  0  0  0  0  0  0  0  0  0  0
   -3.1509    5.0175    0.0000 C   0  0  0  0  0  0  0  0  0  0  0  0
    0.4282    5.4415    0.0000 C   0  0  0  0  0  0  0  0  0  0  0  0
   -0.2826    6.6761    0.0000 C   0  0  0  0  0  0  0  0  0  0  0  0
   -6.6968    2.3279    0.0000 C   0  0  0  0  0  0  0  0  0  0  0  0
   -7.1250    1.6212    0.0000 C   0  0  0  0  0  0  0  0  0  0  0  0
   -0.9935    7.9107    0.0000 O   0  0  0  0  0  0  0  0  0  0  0  0
    1.8582    5.4415    0.0000 O   0  0  0  0  0  0  0  0  0  0  0  0
   -6.7135    0.8937    0.0000 C   0  0  0  0  0  0  0  0  0  0  0  0
    1.1515    5.8530    0.0000 C   0  0  0  0  0  0  0  0  0  0  0  0
   -0.9977    7.0876    0.0000 C   0  0  0  0  0  0  0  0  0  0  0  0
   -5.5204    0.1496    0.0000 C   0  0  0  0  0  0  0  0  0  0  0  0
   -1.6960    8.3180    0.0000 C   0  0  0  0  0  0  0  0  0  0  0  0
    2.5732    5.8530    0.0000 C   0  0  0  0  0  0  0  0  0  0  0  0
  2 10  1  0  0  0  0
  3  1  2  0  0  0  0
  4  1  1  0  0  0  0
  5  1  1  0  0  0  0
  6  4  1  0  0  0  0
  7  5  1  0  0  0  0
  7  6  2  0  0  0  0
  8  3  1  0  0  0  0
  9  2  1  0  0  0  0
 10 20  1  0  0  0  0
 10 19  2  0  0  0  0
 11 18  1  0  0  0  0
 12  2  2  0  0  0  0
 13  2  2  0  0  0  0
 14 11  3  0  0  0  0
 15  8  1  0  0  0  0
 16  8  2  0  0  0  0
 17  6  1  0  0  0  0
 18  4  1  0  0  0  0
 19 21  1  0  0  0  0
 20 22  2  0  0  0  0
 21 15  2  0  0  0  0
 22 15  1  0  0  0  0
 23  9  1  0  0  0  0
 24  9  1  0  0  0  0
 25  7  1  0  0  0  0
 26 25  2  0  0  0  0
 27 31  1  0  0  0  0
 28 30  1  0  0  0  0
 29 17  2  0  0  0  0
 29 26  1  0  0  0  0
 30 23  1  0  0  0  0
 31 24  1  0  0  0  0
 32 17  1  0  0  0  0
 33 27  1  0  0  0  0
 34 28  1  0  0  0  0
M  END
> <CdId>
2721

> <Mol Weight>
501.618

> <Formula>
C24H27N3O5S2

> <Click_ID>
CLK035_H07 __ __ 

$$$$
