CLK017_G04
 OpenBabel03181413202D

 31 34  0  0  0  0  0  0  0  0999 V2000
    2.4521   -2.5208    0.0000 C    0  0  0  0  0  0  0  0  0  0  0  0
    1.7233   -1.2971    0.0000 C    0  0  0  0  0  0  0  0  0  0  0  0
    1.7325   -2.1175    0.0000 C    0  0  3  0  0  0  0  0  0  0  0  0
    2.4246   -0.8800    0.0000 C    0  0  0  0  0  0  0  0  0  0  0  0
    3.1533   -2.0946    0.0000 C    0  0  0  0  0  0  0  0  0  0  0  0
    3.1396   -1.2787    0.0000 O    0  0  0  0  0  0  0  0  0  0  0  0
    0.4584   -2.8783    0.0000 C    0  0  0  0  0  0  0  0  0  0  0  0
    1.0037   -0.8937    0.0000 C    0  0  0  0  0  0  0  0  0  0  0  0
    2.4521   -3.3321    0.0000 C    0  0  0  0  0  0  0  0  0  0  0  0
    3.8774   -2.5025    0.0000 C    0  0  0  0  0  0  0  0  0  0  0  0
    2.4108   -0.0459    0.0000 C    0  0  0  0  0  0  0  0  0  0  0  0
    1.6958    0.3437    0.0000 C    0  0  0  0  0  0  0  0  0  0  0  0
    3.8821   -3.3274    0.0000 C    0  0  0  0  0  0  0  0  0  0  0  0
   -1.0129   -0.4171    0.0000 C    0  0  0  0  0  0  0  0  0  0  0  0
    0.9946   -0.0734    0.0000 C    0  0  0  0  0  0  0  0  0  0  0  0
    3.1808   -3.7446    0.0000 C    0  0  0  0  0  0  0  0  0  0  0  0
   -1.7325   -0.0184    0.0000 C    0  0  0  0  0  0  0  0  0  0  0  0
   -0.2704   -2.4750    0.0000 C    0  0  0  0  0  0  0  0  0  0  0  0
    0.4675   -3.7033    0.0000 C    0  0  0  0  0  0  0  0  0  0  0  0
    1.7371   -3.7674    0.0000 O    0  0  0  0  0  0  0  0  0  0  0  0
    0.2887   -1.3108    0.0000 O    0  0  0  0  0  0  0  0  0  0  0  0
   -0.9716   -2.8921    0.0000 C    0  0  0  0  0  0  0  0  0  0  0  0
   -0.2429   -4.1249    0.0000 C    0  0  0  0  0  0  0  0  0  0  0  0
   -0.9625   -3.7262    0.0000 C    0  0  0  0  0  0  0  0  0  0  0  0
   -0.2291   -4.9545    0.0000 Cl   0  0  0  0  0  0  0  0  0  0  0  0
   -0.2750   -1.6500    0.0000 O    0  0  0  0  0  0  0  0  0  0  0  0
   -0.9991   -1.2421    0.0000 C    0  0  0  0  0  0  0  0  0  0  0  0
    1.6821    1.1825    0.0000 C    0  0  0  0  0  0  0  0  0  0  0  0
    0.8662    0.3300    0.0000 C    0  0  0  0  0  0  0  0  0  0  0  0
    4.6108   -3.7308    0.0000 C    0  0  0  0  0  0  0  0  0  0  0  0
    3.4787   -4.0562    0.0000 C    0  0  0  0  0  0  0  0  0  0  0  0
  2  3  1  0  0  0  0
  2  4  2  0  0  0  0
  3  1  1  0  0  0  0
  4  6  1  0  0  0  0
  5  1  2  0  0  0  0
  6  5  1  0  0  0  0
  7  3  1  0  0  0  0
  8  2  1  0  0  0  0
  9  1  1  0  0  0  0
 10  5  1  0  0  0  0
 11  4  1  0  0  0  0
 12 11  1  0  0  0  0
 12 15  1  0  0  0  0
 13 16  1  0  0  0  0
 13 10  1  0  0  0  0
 14 27  1  0  0  0  0
 15  8  1  0  0  0  0
 16  9  1  0  0  0  0
 17 14  3  0  0  0  0
 18  7  1  0  0  0  0
 19  7  2  0  0  0  0
 20  9  2  0  0  0  0
 21  8  2  0  0  0  0
 22 18  2  0  0  0  0
 23 19  1  0  0  0  0
 24 23  2  0  0  0  0
 24 22  1  0  0  0  0
 25 23  1  0  0  0  0
 26 18  1  0  0  0  0
 27 26  1  0  0  0  0
 28 12  1  0  0  0  0
 29 12  1  0  0  0  0
 30 13  1  0  0  0  0
 31 13  1  0  0  0  0
M  END
> <CdId>
1299

> <Mol Weight>
438.943

> <Formula>
C26H27ClO4

> <Click_ID>
CLK017_G04 __ __ 

$$$$
