CLK026_F02
 OpenBabel03181413202D

 20 21  0  0  0  0  0  0  0  0999 V2000
    1.9374   -2.2835    0.0000 C    0  0  0  0  0  0  0  0  0  0  0  0
    2.6509   -2.6973    0.0000 C    0  0  0  0  0  0  0  0  0  0  0  0
    1.9303    0.1856    0.0000 C    0  0  0  0  0  0  0  0  0  0  0  0
    1.2166   -0.2212    0.0000 C    0  0  0  0  0  0  0  0  0  0  0  0
    1.9231    1.0097    0.0000 C    0  0  0  0  0  0  0  0  0  0  0  0
    0.4246    2.7009    0.0000 N    0  0  0  0  0  0  0  0  0  0  0  0
    0.5031    0.1856    0.0000 C    0  0  0  0  0  0  0  0  0  0  0  0
    1.2059    1.4200    0.0000 C    0  0  0  0  0  0  0  0  0  0  0  0
    2.6367   -0.2212    0.0000 Br   0  0  0  0  0  0  0  0  0  0  0  0
   -0.3603    2.2335    0.0000 C    0  0  0  0  0  0  0  0  0  0  0  0
    1.2059    2.2478    0.0000 C    0  0  0  0  0  0  0  0  0  0  0  0
   -1.1560    2.6866    0.0000 C    0  0  0  0  0  0  0  0  0  0  0  0
    0.4924    1.0097    0.0000 C    0  0  0  0  0  0  0  0  0  0  0  0
    1.2166   -1.0454    0.0000 O    0  0  0  0  0  0  0  0  0  0  0  0
   -1.9410    2.2335    0.0000 C    0  0  0  0  0  0  0  0  0  0  0  0
    1.9303   -1.4593    0.0000 C    0  0  0  0  0  0  0  0  0  0  0  0
   -1.1560    0.8706    0.0000 C    0  0  0  0  0  0  0  0  0  0  0  0
   -0.3603    1.3273    0.0000 C    0  0  0  0  0  0  0  0  0  0  0  0
   -1.9410    1.3273    0.0000 C    0  0  0  0  0  0  0  0  0  0  0  0
   -2.6545    2.6438    0.0000 C    0  0  0  0  0  0  0  0  0  0  0  0
  2  1  3  0  0  0  0
  3  4  2  0  0  0  0
  4 14  1  0  0  0  0
  5  3  1  0  0  0  0
  5  8  2  0  0  0  0
  6 11  1  0  0  0  0
  7  4  1  0  0  0  0
  8 13  1  0  0  0  0
  9  3  1  0  0  0  0
 10  6  1  0  0  0  0
 11  8  1  0  0  0  0
 12 10  2  0  0  0  0
 13  7  2  0  0  0  0
 14 16  1  0  0  0  0
 15 12  1  0  0  0  0
 16  1  1  0  0  0  0
 17 18  2  0  0  0  0
 18 10  1  0  0  0  0
 19 17  1  0  0  0  0
 19 15  2  0  0  0  0
 20 15  1  0  0  0  0
M  END
> <CdId>
1987

> <Mol Weight>
330.219

> <Formula>
C17H16BrNO

> <Click_ID>
CLK026_F02 __ __ 

$$$$
