CLK032_H07
 OpenBabel03181413202D

 28 31  0  0  0  0  0  0  0  0999 V2000
   -0.3875    1.4583    0.0000 C   0  0  0  0  0  0  0  0  0  0  0  0
    0.4417    1.4583    0.0000 N   0  0  0  0  0  0  0  0  0  0  0  0
   -0.8000    0.7458    0.0000 N   0  0  0  0  0  0  0  0  0  0  0  0
   -0.9458    2.0833    0.0000 S   0  0  0  0  0  0  0  0  0  0  0  0
   -1.6083    0.9208    0.0000 C   0  0  0  0  0  0  0  0  0  0  0  0
    1.6792    0.7458    0.0000 C   0  0  0  0  0  0  0  0  0  0  0  0
   -1.6875    1.7458    0.0000 C   0  0  0  0  0  0  0  0  0  0  0  0
    0.8542    0.7458    0.0000 C   0  0  0  0  0  0  0  0  0  0  0  0
    2.0917    1.4625    0.0000 C   0  0  0  0  0  0  0  0  0  0  0  0
    2.0917    0.0333    0.0000 O   0  0  0  0  0  0  0  0  0  0  0  0
    2.9167    1.4625    0.0000 C   0  0  0  0  0  0  0  0  0  0  0  0
   -2.2833    0.4458    0.0000 C   0  0  0  0  0  0  0  0  0  0  0  0
    3.3292    0.7458    0.0000 C   0  0  0  0  0  0  0  0  0  0  0  0
    2.9167    0.0333    0.0000 C   0  0  0  0  0  0  0  0  0  0  0  0
   -2.4375    2.0875    0.0000 C   0  0  0  0  0  0  0  0  0  0  0  0
   -3.0333    0.7875    0.0000 C   0  0  0  0  0  0  0  0  0  0  0  0
   -0.9583   -0.6875    0.0000 C   0  0  0  0  0  0  0  0  0  0  0  0
   -1.4458   -1.3542    0.0000 C   0  0  0  0  0  0  0  0  0  0  0  0
   -3.1083    1.6083    0.0000 C   0  0  0  0  0  0  0  0  0  0  0  0
    0.4417    0.0333    0.0000 O   0  0  0  0  0  0  0  0  0  0  0  0
    3.3417    2.1833    0.0000 O   0  0  0  0  0  0  0  0  0  0  0  0
   -0.4625   -0.0167    0.0000 C   0  0  0  0  0  0  0  0  0  0  0  0
   -2.2083   -0.3792    0.0000 F   0  0  0  0  0  0  0  0  0  0  0  0
   -3.8625    1.9583    0.0000 F   0  0  0  0  0  0  0  0  0  0  0  0
    4.1625    0.7458    0.0000 C   0  0  0  0  0  0  0  0  0  0  0  0
    3.3292   -0.6792    0.0000 C   0  0  0  0  0  0  0  0  0  0  0  0
    4.5750    0.0333    0.0000 C   0  0  0  0  0  0  0  0  0  0  0  0
    4.1625   -0.6792    0.0000 C   0  0  0  0  0  0  0  0  0  0  0  0
  2  1  2  0  0  0  0
  3  1  1  0  0  0  0
  4  1  1  0  0  0  0
  5  3  1  0  0  0  0
  5  7  2  0  0  0  0
  6  8  1  0  0  0  0
  7  4  1  0  0  0  0
  8  2  1  0  0  0  0
  9  6  2  0  0  0  0
 10  6  1  0  0  0  0
 11  9  1  0  0  0  0
 11 13  1  0  0  0  0
 12  5  1  0  0  0  0
 13 14  2  0  0  0  0
 14 10  1  0  0  0  0
 15  7  1  0  0  0  0
 16 12  2  0  0  0  0
 16 19  1  0  0  0  0
 17 22  1  0  0  0  0
 18 17  3  0  0  0  0
 19 15  2  0  0  0  0
 20  8  2  0  0  0  0
 21 11  2  0  0  0  0
 22  3  1  0  0  0  0
 23 12  1  0  0  0  0
 24 19  1  0  0  0  0
 25 13  1  0  0  0  0
 26 14  1  0  0  0  0
 27 28  1  0  0  0  0
 27 25  2  0  0  0  0
 28 26  2  0  0  0  0
M  END
> <CdId>
2481

> <Mol Weight>
396.367

> <Formula>
C20H10F2N2O3S

> <Click_ID>
CLK032_H07 __ __ 

$$$$
