CLK038H08
 OpenBabel03181413202D

 25 26  0  0  0  0  0  0  0  0999 V2000
    0.7249   -0.2125    0.0000 N   0  0  0  0  0  0  0  0  0  0  0  0
    1.5080    0.0417    0.0000 C   0  0  0  0  0  0  0  0  0  0  0  0
    0.2417    0.4541    0.0000 C   0  0  0  0  0  0  0  0  0  0  0  0
    1.5080    0.8665    0.0000 N   0  0  0  0  0  0  0  0  0  0  0  0
    0.7249    1.1206    0.0000 C   0  0  3  0  0  0  0  0  0  0  0  0
    0.4707   -0.9998    0.0000 C   0  0  0  0  0  0  0  0  0  0  0  0
   -0.3374   -1.1706    0.0000 C   0  0  0  0  0  0  0  0  0  0  0  0
   -2.2037   -2.2953    0.0000 C   0  0  0  0  0  0  0  0  0  0  0  0
   -3.0119   -2.4703    0.0000 C   0  0  0  0  0  0  0  0  0  0  0  0
   -0.5916   -1.9538    0.0000 N   0  0  0  0  0  0  0  0  0  0  0  0
    2.1746   -0.4416    0.0000 O   0  0  0  0  0  0  0  0  0  0  0  0
   -0.5832    0.4541    0.0000 O   0  0  0  0  0  0  0  0  0  0  0  0
   -1.3997   -2.1246    0.0000 C   0  0  0  0  0  0  0  0  0  0  0  0
    0.9581    1.9121    0.0000 C   0  0  0  0  0  0  0  0  0  0  0  0
   -0.8873   -0.5582    0.0000 O   0  0  0  0  0  0  0  0  0  0  0  0
    0.0708    1.6247    0.0000 C   0  0  0  0  0  0  0  0  0  0  0  0
   -1.5705   -1.3205    0.0000 C   0  0  0  0  0  0  0  0  0  0  0  0
   -1.2289   -2.9327    0.0000 C   0  0  0  0  0  0  0  0  0  0  0  0
    1.7579    2.1079    0.0000 C   0  0  0  0  0  0  0  0  0  0  0  0
    0.3874    2.5078    0.0000 C   0  0  0  0  0  0  0  0  0  0  0  0
   -0.9581   -0.7665    0.0000 C   0  0  0  0  0  0  0  0  0  0  0  0
   -1.8413   -3.4826    0.0000 C   0  0  0  0  0  0  0  0  0  0  0  0
    0.6207    3.2993    0.0000 C   0  0  0  0  0  0  0  0  0  0  0  0
    1.9913    2.8994    0.0000 C   0  0  0  0  0  0  0  0  0  0  0  0
    1.4205    3.4951    0.0000 C   0  0  0  0  0  0  0  0  0  0  0  0
  2  1  1  0  0  0  0
  3  1  1  0  0  0  0
  4  2  1  0  0  0  0
  5  3  1  0  0  0  0
  5  4  1  0  0  0  0
  6  1  1  0  0  0  0
  7  6  1  0  0  0  0
  8 13  1  0  0  0  0
  9  8  3  0  0  0  0
 10  7  1  0  0  0  0
 11  2  2  0  0  0  0
 12  3  2  0  0  0  0
 13 10  1  0  0  0  0
 14  5  1  0  0  0  0
 15  7  2  0  0  0  0
 16  5  1  0  0  0  0
 17 13  1  0  0  0  0
 18 13  1  0  0  0  0
 19 14  1  0  0  0  0
 20 14  2  0  0  0  0
 21 17  1  0  0  0  0
 22 18  1  0  0  0  0
 23 20  1  0  0  0  0
 24 19  2  0  0  0  0
 25 23  2  0  0  0  0
 25 24  1  0  0  0  0
M  END
> <CdId>
2904

> <Mol Weight>
341.4042

> <Formula>
C19H23N3O3

> <Click_ID>
CLK038H08 __ __ 

$$$$
