CLK023_D07
 OpenBabel03181413202D

 25 27  0  0  0  0  0  0  0  0999 V2000
    1.7009    1.1305    0.0000 N   0  0  0  0  0  0  0  0  0  0  0  0
    1.2886    0.4226    0.0000 C   0  0  0  0  0  0  0  0  0  0  0  0
    0.3917    1.4226    0.0000 C   0  0  0  0  0  0  0  0  0  0  0  0
    1.1511    1.7559    0.0000 C   0  0  0  0  0  0  0  0  0  0  0  0
   -1.9311    0.4364    0.0000 N   0  0  0  0  0  0  0  0  0  0  0  0
   -1.0343    1.4294    0.0000 C   0  0  0  0  0  0  0  0  0  0  0  0
    0.4777    0.5979    0.0000 S   0  0  0  0  0  0  0  0  0  0  0  0
   -2.3400    1.1545    0.0000 C   0  0  0  0  0  0  0  0  0  0  0  0
   -1.1202    0.6082    0.0000 C   0  0  0  0  0  0  0  0  0  0  0  0
   -0.3196    1.8417    0.0000 C   0  0  0  0  0  0  0  0  0  0  0  0
   -1.7834    1.7662    0.0000 C   0  0  0  0  0  0  0  0  0  0  0  0
   -2.2575   -0.3127    0.0000 C   0  0  0  0  0  0  0  0  0  0  0  0
    3.0066    0.5567    0.0000 C   0  0  0  0  0  0  0  0  0  0  0  0
    3.4121   -0.1684    0.0000 C   0  0  0  0  0  0  0  0  0  0  0  0
    1.6219   -0.3367    0.0000 O   0  0  0  0  0  0  0  0  0  0  0  0
    1.3263    2.5668    0.0000 O   0  0  0  0  0  0  0  0  0  0  0  0
    2.5256    1.2199    0.0000 C   0  0  0  0  0  0  0  0  0  0  0  0
   -3.0787   -0.3917    0.0000 C   0  0  0  0  0  0  0  0  0  0  0  0
   -1.7799   -0.9725    0.0000 C   0  0  0  0  0  0  0  0  0  0  0  0
   -3.1509    1.2439    0.0000 C   0  0  0  0  0  0  0  0  0  0  0  0
   -0.5120    0.0584    0.0000 C   0  0  0  0  0  0  0  0  0  0  0  0
   -3.4155   -1.1408    0.0000 C   0  0  0  0  0  0  0  0  0  0  0  0
   -2.1167   -1.7250    0.0000 C   0  0  0  0  0  0  0  0  0  0  0  0
   -2.9310   -1.8108    0.0000 C   0  0  0  0  0  0  0  0  0  0  0  0
   -3.2678   -2.5633    0.0000 C   0  0  0  0  0  0  0  0  0  0  0  0
  2  1  1  0  0  0  0
  3  4  1  0  0  0  0
  4  1  1  0  0  0  0
  5  9  1  0  0  0  0
  6 10  1  0  0  0  0
  7  2  1  0  0  0  0
  7  3  1  0  0  0  0
  8 11  2  0  0  0  0
  8  5  1  0  0  0  0
  9  6  2  0  0  0  0
 10  3  2  0  0  0  0
 11  6  1  0  0  0  0
 12  5  1  0  0  0  0
 13 17  1  0  0  0  0
 14 13  3  0  0  0  0
 15  2  2  0  0  0  0
 16  4  2  0  0  0  0
 17  1  1  0  0  0  0
 18 12  2  0  0  0  0
 19 12  1  0  0  0  0
 20  8  1  0  0  0  0
 21  9  1  0  0  0  0
 22 18  1  0  0  0  0
 23 19  2  0  0  0  0
 24 23  1  0  0  0  0
 24 22  2  0  0  0  0
 25 24  1  0  0  0  0
M  END
> <CdId>
1732

> <Mol Weight>
350.434

> <Formula>
C20H18N2O2S

> <Click_ID>
CLK023_D07 __ __ 

$$$$
