CLK048B07
 OpenBabel03181413202D

 16 16  0  0  0  0  0  0  0  0999 V2000
    1.2042    0.6458    0.0000 C   0  0  0  0  0  0  0  0  0  0  0  0
    3.3458    0.2333    0.0000 C   0  0  0  0  0  0  0  0  0  0  0  0
    4.0625   -0.1792    0.0000 C   0  0  0  0  0  0  0  0  0  0  0  0
   -1.6542   -1.0042    0.0000 C   0  0  0  0  0  0  0  0  0  0  0  0
    0.4875    0.2333    0.0000 N   0  0  0  0  0  0  0  0  0  0  0  0
   -2.3708   -0.5917    0.0000 C   0  0  0  0  0  0  0  0  0  0  0  0
    1.2042    1.4708    0.0000 O   0  0  0  0  0  0  0  0  0  0  0  0
   -0.9417   -0.5917    0.0000 C   0  0  0  0  0  0  0  0  0  0  0  0
    1.9167    0.2333    0.0000 N   0  0  0  0  0  0  0  0  0  0  0  0
   -2.3708    0.2333    0.0000 C   0  0  0  0  0  0  0  0  0  0  0  0
   -0.9417    0.2333    0.0000 C   0  0  0  0  0  0  0  0  0  0  0  0
   -0.2250    0.6458    0.0000 C   0  0  0  0  0  0  0  0  0  0  0  0
   -3.0833   -1.0042    0.0000 F   0  0  0  0  0  0  0  0  0  0  0  0
   -1.6542    0.6458    0.0000 C   0  0  0  0  0  0  0  0  0  0  0  0
    2.6333    0.6458    0.0000 C   0  0  0  0  0  0  0  0  0  0  0  0
   -1.6542   -1.8292    0.0000 C   0  0  0  0  0  0  0  0  0  0  0  0
  2 15  1  0  0  0  0
  3  2  3  0  0  0  0
  4  8  1  0  0  0  0
  5  1  1  0  0  0  0
  6 10  1  0  0  0  0
  6  4  2  0  0  0  0
  7  1  2  0  0  0  0
  8 11  2  0  0  0  0
  9  1  1  0  0  0  0
 10 14  2  0  0  0  0
 11 12  1  0  0  0  0
 12  5  1  0  0  0  0
 13  6  1  0  0  0  0
 14 11  1  0  0  0  0
 15  9  1  0  0  0  0
 16  4  1  0  0  0  0
M  END
> <CdId>
3690

> <Mol Weight>
220.2428

> <Formula>
C12H13FN2O

> <Click_ID>
CLK048B07 __ __ 

$$$$
