CLK010_F05
 OpenBabel03181413202D

 26 27  0  0  0  0  0  0  0  0999 V2000
    4.0480   -0.5497    0.0000 C    0  0  0  0  0  0  0  0  0  0  0  0
    3.3276   -0.9620    0.0000 C    0  0  0  0  0  0  0  0  0  0  0  0
    4.0522    0.8829    0.0000 C    0  0  0  0  0  0  0  0  0  0  0  0
    4.7644   -0.9662    0.0000 C    0  0  0  0  0  0  0  0  0  0  0  0
    2.6112   -0.5414    0.0000 N    0  0  0  0  0  0  0  0  0  0  0  0
    5.4765   -1.3785    0.0000 N    0  0  0  0  0  0  0  0  0  0  0  0
    0.4915    3.7731    0.0000 C    0  0  0  0  0  0  0  0  0  0  0  0
   -0.2207    4.1896    0.0000 C    0  0  0  0  0  0  0  0  0  0  0  0
    1.9033    1.2952    0.0000 C    0  0  0  0  0  0  0  0  0  0  0  0
    3.3359    1.2869    0.0000 C    0  0  0  0  0  0  0  0  0  0  0  0
    1.8908   -0.9537    0.0000 C    0  0  0  0  0  0  0  0  0  0  0  0
    3.3276   -1.7908    0.0000 O    0  0  0  0  0  0  0  0  0  0  0  0
    2.6154    0.8829    0.0000 C    0  0  0  0  0  0  0  0  0  0  0  0
    1.9116    2.1115    0.0000 C    0  0  0  0  0  0  0  0  0  0  0  0
    1.1744   -0.5414    0.0000 C    0  0  0  0  0  0  0  0  0  0  0  0
    2.6237    2.5196    0.0000 C    0  0  0  0  0  0  0  0  0  0  0  0
    0.4665   -0.9537    0.0000 C    0  0  0  0  0  0  0  0  0  0  0  0
    3.3359    2.1073    0.0000 C    0  0  0  0  0  0  0  0  0  0  0  0
    1.1911    0.8871    0.0000 O    0  0  0  0  0  0  0  0  0  0  0  0
   -0.2582   -0.5414    0.0000 Br   0  0  0  0  0  0  0  0  0  0  0  0
    1.1994    2.5321    0.0000 O    0  0  0  0  0  0  0  0  0  0  0  0
    1.2036    3.3566    0.0000 C    0  0  0  0  0  0  0  0  0  0  0  0
    1.1744   -2.1989    0.0000 C    0  0  0  0  0  0  0  0  0  0  0  0
    1.8908   -1.7866    0.0000 C    0  0  0  0  0  0  0  0  0  0  0  0
    0.4665   -1.7866    0.0000 C    0  0  0  0  0  0  0  0  0  0  0  0
    1.1911    0.0708    0.0000 C    0  0  0  0  0  0  0  0  0  0  0  0
  2  1  1  0  0  0  0
  3  1  2  0  0  0  0
  4  1  1  0  0  0  0
  5  2  1  0  0  0  0
  6  4  3  0  0  0  0
  7 22  1  0  0  0  0
  8  7  3  0  0  0  0
  9 13  1  0  0  0  0
 10  3  1  0  0  0  0
 11  5  1  0  0  0  0
 12  2  2  0  0  0  0
 13 10  2  0  0  0  0
 14 16  1  0  0  0  0
 14  9  2  0  0  0  0
 15 11  2  0  0  0  0
 16 18  2  0  0  0  0
 17 15  1  0  0  0  0
 18 10  1  0  0  0  0
 19  9  1  0  0  0  0
 20 17  1  0  0  0  0
 21 14  1  0  0  0  0
 22 21  1  0  0  0  0
 23 24  2  0  0  0  0
 24 11  1  0  0  0  0
 25 23  1  0  0  0  0
 25 17  2  0  0  0  0
 26 19  1  0  0  0  0
M  END
> <CdId>
730

> <Mol Weight>
411.249

> <Formula>
C20H15BrN2O3

> <Click_ID>
CLK010_F05 __ __ 

$$$$
