CLK027_D09
 OpenBabel03181413202D

 23 25  0  0  0  0  0  0  0  0999 V2000
   -1.9525   -0.4667    0.0000 N   0  0  0  0  0  0  0  0  0  0  0  0
   -1.7055   -1.2525    0.0000 C   0  0  0  0  0  0  0  0  0  0  0  0
   -0.6280   -0.4667    0.0000 C   0  0  0  0  0  0  0  0  0  0  0  0
   -1.2937    0.0206    0.0000 C   0  0  0  0  0  0  0  0  0  0  0  0
   -0.8819   -1.2525    0.0000 S   0  0  0  0  0  0  0  0  0  0  0  0
    0.1579   -0.2127    0.0000 C   0  0  0  0  0  0  0  0  0  0  0  0
    0.3329    0.5936    0.0000 C   0  0  0  0  0  0  0  0  0  0  0  0
    1.0809    0.9300    0.0000 N   0  0  0  0  0  0  0  0  0  0  0  0
   -3.3492   -0.7653    0.0000 C   0  0  0  0  0  0  0  0  0  0  0  0
    1.8016    0.5182    0.0000 C   0  0  0  0  0  0  0  0  0  0  0  0
   -3.9360   -1.3486    0.0000 C   0  0  0  0  0  0  0  0  0  0  0  0
    0.9951    1.7466    0.0000 C   0  0  0  0  0  0  0  0  0  0  0  0
   -2.1859   -1.9114    0.0000 O   0  0  0  0  0  0  0  0  0  0  0  0
   -0.2162    1.2045    0.0000 C   0  0  0  0  0  0  0  0  0  0  0  0
   -1.2937    0.8442    0.0000 O   0  0  0  0  0  0  0  0  0  0  0  0
    0.1956    1.9148    0.0000 C   0  0  0  0  0  0  0  0  0  0  0  0
   -2.7349   -0.2127    0.0000 C   0  0  0  0  0  0  0  0  0  0  0  0
    1.7913   -0.3123    0.0000 C   0  0  0  0  0  0  0  0  0  0  0  0
    2.5051    0.9300    0.0000 C   0  0  0  0  0  0  0  0  0  0  0  0
    3.2222   -0.3123    0.0000 C   0  0  0  0  0  0  0  0  0  0  0  0
    2.5051   -0.7241    0.0000 C   0  0  0  0  0  0  0  0  0  0  0  0
    3.2222    0.5113    0.0000 C   0  0  0  0  0  0  0  0  0  0  0  0
    3.9326   -0.7275    0.0000 O   0  0  0  0  0  0  0  0  0  0  0  0
  2  1  1  0  0  0  0
  3  4  1  0  0  0  0
  4  1  1  0  0  0  0
  5  2  1  0  0  0  0
  5  3  1  0  0  0  0
  6  3  2  0  0  0  0
  7  6  1  0  0  0  0
  8  7  1  0  0  0  0
  9 17  1  0  0  0  0
 10  8  1  0  0  0  0
 11  9  3  0  0  0  0
 12  8  1  0  0  0  0
 12 16  2  0  0  0  0
 13  2  2  0  0  0  0
 14  7  2  0  0  0  0
 15  4  2  0  0  0  0
 16 14  1  0  0  0  0
 17  1  1  0  0  0  0
 18 10  2  0  0  0  0
 19 10  1  0  0  0  0
 20 22  1  0  0  0  0
 21 18  1  0  0  0  0
 21 20  2  0  0  0  0
 22 19  2  0  0  0  0
 23 20  1  0  0  0  0
M  END
> <CdId>
2051

> <Mol Weight>
324.354

> <Formula>
C17H12N2O3S

> <Click_ID>
CLK027_D09 __ __ 

$$$$
