CLK047A11
 OpenBabel03181413202D

 25 27  0  0  0  0  0  0  0  0999 V2000
   -0.4042    0.9333    0.0000 C   0  0  0  0  0  0  0  0  0  0  0  0
    1.7417   -1.9542    0.0000 C   0  0  0  0  0  0  0  0  0  0  0  0
   -0.4042    1.7583    0.0000 N   0  0  0  0  0  0  0  0  0  0  0  0
    1.0250   -1.5417    0.0000 N   0  0  0  0  0  0  0  0  0  0  0  0
   -3.2583    1.7583    0.0000 C   0  0  0  0  0  0  0  0  0  0  0  0
    0.3125    0.5208    0.0000 C   0  0  0  0  0  0  0  0  0  0  0  0
   -3.9750    1.3458    0.0000 C   0  0  0  0  0  0  0  0  0  0  0  0
    1.7417   -2.7792    0.0000 C   0  0  3  0  0  0  0  0  0  0  0  0
    1.0250   -0.7167    0.0000 C   0  0  0  0  0  0  0  0  0  0  0  0
    0.3125   -0.3042    0.0000 C   0  0  0  0  0  0  0  0  0  0  0  0
   -1.1167    0.5208    0.0000 O   0  0  0  0  0  0  0  0  0  0  0  0
    2.4542   -1.5417    0.0000 O   0  0  0  0  0  0  0  0  0  0  0  0
   -1.1167    2.1708    0.0000 C   0  0  0  0  0  0  0  0  0  0  0  0
    2.4083   -3.2625    0.0000 O   0  0  0  0  0  0  0  0  0  0  0  0
   -2.5458    2.1708    0.0000 C   0  0  0  0  0  0  0  0  0  0  0  0
   -1.8292    1.7583    0.0000 C   0  0  0  0  0  0  0  0  0  0  0  0
    1.0250    0.9333    0.0000 C   0  0  0  0  0  0  0  0  0  0  0  0
    1.7417    0.5208    0.0000 C   0  0  0  0  0  0  0  0  0  0  0  0
   -1.8292    3.4083    0.0000 C   0  0  0  0  0  0  0  0  0  0  0  0
    1.7417   -0.3042    0.0000 C   0  0  0  0  0  0  0  0  0  0  0  0
   -1.1167    2.9958    0.0000 C   0  0  0  0  0  0  0  0  0  0  0  0
    2.1542   -4.0458    0.0000 C   0  0  0  0  0  0  0  0  0  0  0  0
   -2.5458    2.9958    0.0000 C   0  0  0  0  0  0  0  0  0  0  0  0
    1.0750   -3.2625    0.0000 C   0  0  0  0  0  0  0  0  0  0  0  0
    1.3292   -4.0458    0.0000 C   0  0  0  0  0  0  0  0  0  0  0  0
  2  4  1  0  0  0  0
  3  1  1  0  0  0  0
  4  9  1  0  0  0  0
  5 15  1  0  0  0  0
  6  1  1  0  0  0  0
  7  5  3  0  0  0  0
  8  2  1  0  0  0  0
  9 10  2  0  0  0  0
 10  6  1  0  0  0  0
 11  1  2  0  0  0  0
 12  2  2  0  0  0  0
 13  3  1  0  0  0  0
 14  8  1  0  0  0  0
 15 16  1  0  0  0  0
 16 13  2  0  0  0  0
 17  6  2  0  0  0  0
 18 17  1  0  0  0  0
 18 20  2  0  0  0  0
 19 21  2  0  0  0  0
 20  9  1  0  0  0  0
 21 13  1  0  0  0  0
 22 14  1  0  0  0  0
 22 25  1  0  0  0  0
 23 15  2  0  0  0  0
 23 19  1  0  0  0  0
 24  8  1  0  0  0  0
 25 24  1  0  0  0  0
M  END
> <CdId>
3641

> <Mol Weight>
334.3685

> <Formula>
C20H18N2O3

> <Click_ID>
CLK047A11 __ __ 

$$$$
