CLK018_G04
 OpenBabel03181413202D

 33 35  0  0  0  0  0  0  0  0999 V2000
    9.4349    2.1606    0.0000 C    0  0  0  0  0  0  0  0  0  0  0  0
    8.6099    2.1737    0.0000 N    0  0  0  0  0  0  0  0  0  0  0  0
    9.0027    0.8969    0.0000 C    0  0  0  0  0  0  0  0  0  0  0  0
    8.3479    1.3880    0.0000 C    0  0  0  0  0  0  0  0  0  0  0  0
    9.6902    1.3684    0.0000 S    0  0  0  0  0  0  0  0  0  0  0  0
   12.2241    1.1196    0.0000 C    0  0  0  0  0  0  0  0  0  0  0  0
    6.8421   -1.1851    0.0000 C    0  0  0  0  0  0  0  0  0  0  0  0
    8.9961    0.0720    0.0000 C    0  0  0  0  0  0  0  0  0  0  0  0
    9.9259    2.8219    0.0000 N    0  0  0  0  0  0  0  0  0  0  0  0
    6.8355   -0.3405    0.0000 C    0  0  0  0  0  0  0  0  0  0  0  0
    7.5623   -1.5976    0.0000 C    0  0  0  0  0  0  0  0  0  0  0  0
    8.2760   -0.3405    0.0000 C    0  0  0  0  0  0  0  0  0  0  0  0
    5.4082   -0.3405    0.0000 C    0  0  0  0  0  0  0  0  0  0  0  0
   11.9032    1.8791    0.0000 C    0  0  0  0  0  0  0  0  0  0  0  0
    4.6815    0.0720    0.0000 C    0  0  0  0  0  0  0  0  0  0  0  0
   11.7461    0.4518    0.0000 O    0  0  0  0  0  0  0  0  0  0  0  0
    7.5623    0.0720    0.0000 C    0  0  0  0  0  0  0  0  0  0  0  0
    8.2890   -1.1655    0.0000 C    0  0  0  0  0  0  0  0  0  0  0  0
    7.5623    1.1523    0.0000 O    0  0  0  0  0  0  0  0  0  0  0  0
   10.7509    2.7237    0.0000 C    0  0  0  0  0  0  0  0  0  0  0  0
   11.0848    1.9773    0.0000 C    0  0  0  0  0  0  0  0  0  0  0  0
   13.0490    1.0344    0.0000 O    0  0  0  0  0  0  0  0  0  0  0  0
    6.1153    0.0589    0.0000 Cl   0  0  0  0  0  0  0  0  0  0  0  0
    6.1284   -1.5976    0.0000 O    0  0  0  0  0  0  0  0  0  0  0  0
    7.5689   -2.4226    0.0000 O    0  0  0  0  0  0  0  0  0  0  0  0
    5.4082   -1.1851    0.0000 C    0  0  0  0  0  0  0  0  0  0  0  0
   10.9277    0.5434    0.0000 C    0  0  0  0  0  0  0  0  0  0  0  0
   12.3746    2.5469    0.0000 C    0  0  0  0  0  0  0  0  0  0  0  0
   12.0407    3.2933    0.0000 C    0  0  0  0  0  0  0  0  0  0  0  0
   11.2420    3.3915    0.0000 C    0  0  0  0  0  0  0  0  0  0  0  0
    8.2890   -2.8351    0.0000 C    0  0  0  0  0  0  0  0  0  0  0  0
   10.4366   -0.1179    0.0000 C    0  0  0  0  0  0  0  0  0  0  0  0
   10.5938    1.2964    0.0000 C    0  0  0  0  0  0  0  0  0  0  0  0
  2  1  1  0  0  0  0
  3  5  1  0  0  0  0
  3  4  1  0  0  0  0
  4  2  1  0  0  0  0
  5  1  1  0  0  0  0
  6 14  1  0  0  0  0
  7 11  2  0  0  0  0
  8  3  2  0  0  0  0
  9  1  2  0  0  0  0
 10 17  2  0  0  0  0
 10  7  1  0  0  0  0
 11 18  1  0  0  0  0
 12  8  1  0  0  0  0
 13 26  1  0  0  0  0
 14 21  1  0  0  0  0
 14 28  2  0  0  0  0
 15 13  3  0  0  0  0
 16  6  1  0  0  0  0
 17 12  1  0  0  0  0
 18 12  2  0  0  0  0
 19  4  2  0  0  0  0
 20  9  1  0  0  0  0
 21 20  2  0  0  0  0
 22  6  2  0  0  0  0
 23 10  1  0  0  0  0
 24  7  1  0  0  0  0
 25 11  1  0  0  0  0
 26 24  1  0  0  0  0
 27 16  1  0  0  0  0
 28 29  1  0  0  0  0
 29 30  2  0  0  0  0
 30 20  1  0  0  0  0
 31 25  1  0  0  0  0
 32 27  1  0  0  0  0
 33 27  1  0  0  0  0
M  END
> <CdId>
1379

> <Mol Weight>
484.952

> <Formula>
C24H21ClN2O5S

> <Click_ID>
CLK018_G04 __ __ 

$$$$
