CLK012_H03
 OpenBabel03181413202D

 24 27  0  0  0  0  0  0  0  0999 V2000
    0.6112    0.0748    0.0000 C   0  0  0  0  0  0  0  0  0  0  0  0
    1.5716    1.1433    0.0000 C   0  0  0  0  0  0  0  0  0  0  0  0
    1.3970    0.3326    0.0000 C   0  0  0  0  0  0  0  0  0  0  0  0
    0.3534   -0.7110    0.0000 C   0  0  0  0  0  0  0  0  0  0  0  0
   -0.0582    0.5571    0.0000 C   0  0  0  0  0  0  0  0  0  0  0  0
    1.4386    2.4780    0.0000 N   0  0  0  0  0  0  0  0  0  0  0  0
    1.0228    1.7587    0.0000 C   0  0  0  0  0  0  0  0  0  0  0  0
   -0.4698   -0.7110    0.0000 C   0  0  0  0  0  0  0  0  0  0  0  0
   -0.7234    0.0748    0.0000 C   0  0  0  0  0  0  0  0  0  0  0  0
    2.3325    1.4718    0.0000 C   0  0  0  0  0  0  0  0  0  0  0  0
    2.2494    2.2951    0.0000 C   0  0  0  0  0  0  0  0  0  0  0  0
    1.6008    3.8999    0.0000 C   0  0  0  0  0  0  0  0  0  0  0  0
    2.1246    4.5195    0.0000 C   0  0  0  0  0  0  0  0  0  0  0  0
    0.8399   -1.3762    0.0000 O   0  0  0  0  0  0  0  0  0  0  0  0
   -0.0582    1.3803    0.0000 O   0  0  0  0  0  0  0  0  0  0  0  0
    1.1101    3.2388    0.0000 C   0  0  0  0  0  0  0  0  0  0  0  0
   -1.5217    0.2453    0.0000 C   0  0  0  0  0  0  0  0  0  0  0  0
   -1.0186   -1.3222    0.0000 C   0  0  0  0  0  0  0  0  0  0  0  0
    2.9187    2.7773    0.0000 C   0  0  0  0  0  0  0  0  0  0  0  0
    3.0851    1.1309    0.0000 C   0  0  0  0  0  0  0  0  0  0  0  0
   -2.0788   -0.3659    0.0000 C   0  0  0  0  0  0  0  0  0  0  0  0
   -1.8211   -1.1475    0.0000 C   0  0  0  0  0  0  0  0  0  0  0  0
    3.7462    1.6173    0.0000 C   0  0  0  0  0  0  0  0  0  0  0  0
    3.6671    2.4406    0.0000 C   0  0  0  0  0  0  0  0  0  0  0  0
  2  3  1  0  0  0  0
  3  1  2  0  0  0  0
  4  1  1  0  0  0  0
  5  1  1  0  0  0  0
  6  7  1  0  0  0  0
  7  2  2  0  0  0  0
  8  4  1  0  0  0  0
  9  5  1  0  0  0  0
  9  8  2  0  0  0  0
 10  2  1  0  0  0  0
 11 10  1  0  0  0  0
 11  6  1  0  0  0  0
 12 16  1  0  0  0  0
 13 12  3  0  0  0  0
 14  4  2  0  0  0  0
 15  5  2  0  0  0  0
 16  6  1  0  0  0  0
 17  9  1  0  0  0  0
 18  8  1  0  0  0  0
 19 11  2  0  0  0  0
 20 10  2  0  0  0  0
 21 17  2  0  0  0  0
 22 18  2  0  0  0  0
 22 21  1  0  0  0  0
 23 20  1  0  0  0  0
 24 23  2  0  0  0  0
 24 19  1  0  0  0  0
M  END
> <CdId>
908

> <Mol Weight>
311.3334

> <Formula>
C21H13NO2

> <Click_ID>
CLK012_H03 __ __ 

$$$$
