CLK018_A10
 OpenBabel03181413202D

 25 26  0  0  0  0  0  0  0  0999 V2000
    1.5734   -0.8202    0.0000 N   0  0  0  0  0  0  0  0  0  0  0  0
    1.8328   -1.6111    0.0000 C   0  0  0  0  0  0  0  0  0  0  0  0
    2.2471   -0.3306    0.0000 C   0  0  0  0  0  0  0  0  0  0  0  0
    2.9166   -0.8202    0.0000 C   0  0  0  0  0  0  0  0  0  0  0  0
    2.6614   -1.6111    0.0000 S   0  0  0  0  0  0  0  0  0  0  0  0
    3.7075   -0.5649    0.0000 C   0  0  0  0  0  0  0  0  0  0  0  0
    0.6151    0.2469    0.0000 C   0  0  0  0  0  0  0  0  0  0  0  0
    0.3934    1.0503    0.0000 C   0  0  0  0  0  0  0  0  0  0  0  0
    1.3432   -2.2764    0.0000 O   0  0  0  0  0  0  0  0  0  0  0  0
    3.4313    1.5943    0.0000 C   0  0  0  0  0  0  0  0  0  0  0  0
    2.2388    0.4979    0.0000 O   0  0  0  0  0  0  0  0  0  0  0  0
    4.2097    1.8537    0.0000 C   0  0  0  0  0  0  0  0  0  0  0  0
    3.8707    0.2343    0.0000 C   0  0  0  0  0  0  0  0  0  0  0  0
    5.3520    3.7116    0.0000 C   0  0  0  0  0  0  0  0  0  0  0  0
    0.7909   -0.5649    0.0000 C   0  0  0  0  0  0  0  0  0  0  0  0
    3.2556    0.7992    0.0000 C   0  0  0  0  0  0  0  0  0  0  0  0
    4.3938    2.6571    0.0000 O   0  0  0  0  0  0  0  0  0  0  0  0
    4.7453    4.2599    0.0000 O   0  0  0  0  0  0  0  0  0  0  0  0
    4.8248    1.3056    0.0000 C   0  0  0  0  0  0  0  0  0  0  0  0
    5.1721    2.9082    0.0000 C   0  0  0  0  0  0  0  0  0  0  0  0
    4.6490    0.4979    0.0000 C   0  0  0  0  0  0  0  0  0  0  0  0
    2.8288    2.1550    0.0000 O   0  0  0  0  0  0  0  0  0  0  0  0
    6.1387    3.9627    0.0000 O   0  0  0  0  0  0  0  0  0  0  0  0
    2.0462    1.9039    0.0000 C   0  0  0  0  0  0  0  0  0  0  0  0
    6.7455    3.4104    0.0000 C   0  0  0  0  0  0  0  0  0  0  0  0
  2  1  1  0  0  0  0
  3  1  1  0  0  0  0
  4  3  1  0  0  0  0
  4  5  1  0  0  0  0
  5  2  1  0  0  0  0
  6  4  2  0  0  0  0
  7 15  1  0  0  0  0
  8  7  3  0  0  0  0
  9  2  2  0  0  0  0
 10 16  1  0  0  0  0
 10 12  2  0  0  0  0
 11  3  2  0  0  0  0
 12 19  1  0  0  0  0
 13  6  1  0  0  0  0
 14 20  1  0  0  0  0
 15  1  1  0  0  0  0
 16 13  2  0  0  0  0
 17 12  1  0  0  0  0
 18 14  2  0  0  0  0
 19 21  2  0  0  0  0
 20 17  1  0  0  0  0
 21 13  1  0  0  0  0
 22 10  1  0  0  0  0
 23 14  1  0  0  0  0
 24 22  1  0  0  0  0
 25 23  1  0  0  0  0
M  END
> <CdId>
1325

> <Mol Weight>
361.369

> <Formula>
C17H15NO6S

> <Click_ID>
CLK018_A10 __ __ 

$$$$
