CLK026_B11
 OpenBabel03181413202D

 19 20  0  0  0  0  0  0  0  0999 V2000
   -1.9735   -0.3851    0.0000 N   0  0  0  0  0  0  0  0  0  0  0  0
   -2.3723   -1.1140    0.0000 C   0  0  0  0  0  0  0  0  0  0  0  0
   -1.1552   -0.5329    0.0000 C   0  0  0  0  0  0  0  0  0  0  0  0
   -1.0556   -1.3581    0.0000 C   0  0  0  0  0  0  0  0  0  0  0  0
   -1.8050   -1.7122    0.0000 S   0  0  0  0  0  0  0  0  0  0  0  0
   -0.3301   -1.7535    0.0000 C   0  0  0  0  0  0  0  0  0  0  0  0
    3.1837    0.3748    0.0000 N   0  0  0  0  0  0  0  0  0  0  0  0
   -1.8532    1.0486    0.0000 C   0  0  0  0  0  0  0  0  0  0  0  0
   -1.4269    1.7569    0.0000 C   0  0  0  0  0  0  0  0  0  0  0  0
    2.4927   -0.0619    0.0000 C   0  0  0  0  0  0  0  0  0  0  0  0
   -3.1872   -1.2068    0.0000 O   0  0  0  0  0  0  0  0  0  0  0  0
   -0.5673    0.0378    0.0000 O   0  0  0  0  0  0  0  0  0  0  0  0
   -2.3242    0.3645    0.0000 C   0  0  0  0  0  0  0  0  0  0  0  0
    0.3748   -1.3306    0.0000 C   0  0  0  0  0  0  0  0  0  0  0  0
    1.7879   -0.4813    0.0000 C   0  0  0  0  0  0  0  0  0  0  0  0
    1.0865   -1.7294    0.0000 C   0  0  0  0  0  0  0  0  0  0  0  0
    0.3507   -0.5089    0.0000 C   0  0  0  0  0  0  0  0  0  0  0  0
    1.0659   -0.0825    0.0000 C   0  0  0  0  0  0  0  0  0  0  0  0
    1.7879   -1.3065    0.0000 C   0  0  0  0  0  0  0  0  0  0  0  0
  2  1  1  0  0  0  0
  3  1  1  0  0  0  0
  4  3  1  0  0  0  0
  5  2  1  0  0  0  0
  5  4  1  0  0  0  0
  6  4  2  0  0  0  0
  7 10  3  0  0  0  0
  8 13  1  0  0  0  0
  9  8  3  0  0  0  0
 10 15  1  0  0  0  0
 11  2  2  0  0  0  0
 12  3  2  0  0  0  0
 13  1  1  0  0  0  0
 14  6  1  0  0  0  0
 15 18  1  0  0  0  0
 16 14  2  0  0  0  0
 17 14  1  0  0  0  0
 18 17  2  0  0  0  0
 19 16  1  0  0  0  0
 19 15  2  0  0  0  0
M  END
> <CdId>
1956

> <Mol Weight>
268.291

> <Formula>
C14H8N2O2S

> <Click_ID>
CLK026_B11 __ __ 

$$$$
