CLK037E06
 OpenBabel03181413202D

 24 24  0  0  0  0  0  0  0  0999 V2000
    0.3875    0.4292    0.0000 C   0  0  0  0  0  0  0  0  0  0  0  0
    1.1458    0.1000    0.0000 C   0  0  0  0  0  0  0  0  0  0  0  0
    1.6917    0.7208    0.0000 C   0  0  0  0  0  0  0  0  0  0  0  0
    1.2708    1.4292    0.0000 C   0  0  0  0  0  0  0  0  0  0  0  0
    0.4667    1.2500    0.0000 S   0  0  0  0  0  0  0  0  0  0  0  0
   -0.3208    0.0083    0.0000 N   0  0  0  0  0  0  0  0  0  0  0  0
    1.3250   -0.7042    0.0000 C   0  0  0  0  0  0  0  0  0  0  0  0
    1.5958    2.1875    0.0000 C   0  0  0  0  0  0  0  0  0  0  0  0
   -3.9000    0.3833    0.0000 C   0  0  0  0  0  0  0  0  0  0  0  0
   -1.0417    0.4125    0.0000 C   0  0  0  0  0  0  0  0  0  0  0  0
   -4.6167    0.7875    0.0000 C   0  0  0  0  0  0  0  0  0  0  0  0
    2.1125   -0.9500    0.0000 O   0  0  0  0  0  0  0  0  0  0  0  0
    1.1042    2.8500    0.0000 O   0  0  0  0  0  0  0  0  0  0  0  0
   -1.0500    1.2375    0.0000 O   0  0  0  0  0  0  0  0  0  0  0  0
    2.4167    2.2833    0.0000 N   0  0  0  0  0  0  0  0  0  0  0  0
    2.5125    0.6417    0.0000 C   0  0  0  0  0  0  0  0  0  0  0  0
    0.7167   -1.2625    0.0000 O   0  0  0  0  0  0  0  0  0  0  0  0
   -2.4708    0.3958    0.0000 N   0  0  0  0  0  0  0  0  0  0  0  0
   -3.1792   -0.0250    0.0000 C   0  0  0  0  0  0  0  0  0  0  0  0
   -1.7500   -0.0083    0.0000 C   0  0  0  0  0  0  0  0  0  0  0  0
    0.4708   -3.4333    0.0000 O   0  0  0  0  0  0  0  0  0  0  0  0
    0.9000   -2.0667    0.0000 C   0  0  0  0  0  0  0  0  0  0  0  0
    0.2917   -2.6250    0.0000 C   0  0  0  0  0  0  0  0  0  0  0  0
   -0.1333   -3.9917    0.0000 C   0  0  0  0  0  0  0  0  0  0  0  0
  2  1  2  0  0  0  0
  3  2  1  0  0  0  0
  4  5  1  0  0  0  0
  4  3  2  0  0  0  0
  5  1  1  0  0  0  0
  6  1  1  0  0  0  0
  7  2  1  0  0  0  0
  8  4  1  0  0  0  0
  9 19  1  0  0  0  0
 10  6  1  0  0  0  0
 11  9  3  0  0  0  0
 12  7  2  0  0  0  0
 13  8  2  0  0  0  0
 14 10  2  0  0  0  0
 15  8  1  0  0  0  0
 16  3  1  0  0  0  0
 17  7  1  0  0  0  0
 18 20  1  0  0  0  0
 19 18  1  0  0  0  0
 20 10  1  0  0  0  0
 21 23  1  0  0  0  0
 22 17  1  0  0  0  0
 23 22  1  0  0  0  0
 24 21  1  0  0  0  0
M  END
> <CdId>
2805

> <Mol Weight>
353.393

> <Formula>
C15H19N3O5S

> <Click_ID>
CLK037E06 __ __ 

$$$$
