CLK023_E06
 OpenBabel03181413202D

 34 36  0  0  0  0  0  0  0  0999 V2000
   -0.3954   -1.5505    0.0000 N   0  0  0  0  0  0  0  0  0  0  0  0
   -0.1444   -2.3412    0.0000 C   0  0  0  0  0  0  0  0  0  0  0  0
    0.2647   -1.0658    0.0000 C   0  0  0  0  0  0  0  0  0  0  0  0
    0.9351   -1.5505    0.0000 C   0  0  0  0  0  0  0  0  0  0  0  0
    0.6772   -2.3412    0.0000 N   0  0  0  0  0  0  0  0  0  0  0  0
    1.7259   -1.2927    0.0000 C   0  0  0  0  0  0  0  0  0  0  0  0
   -1.1792   -1.2927    0.0000 C   0  0  0  0  0  0  0  0  0  0  0  0
   -1.8015   -1.8530    0.0000 C   0  0  0  0  0  0  0  0  0  0  0  0
    1.8977   -0.4813    0.0000 C   0  0  0  0  0  0  0  0  0  0  0  0
    1.4577    0.8801    0.0000 C   0  0  0  0  0  0  0  0  0  0  0  0
    2.2484    1.1242    0.0000 C   0  0  0  0  0  0  0  0  0  0  0  0
    2.8535    0.5638    0.0000 C   0  0  0  0  0  0  0  0  0  0  0  0
    3.3898    2.9842    0.0000 C   0  0  0  0  0  0  0  0  0  0  0  0
    3.5686    3.7955    0.0000 C   0  0  0  0  0  0  0  0  0  0  0  0
   -0.6326   -3.0013    0.0000 O   0  0  0  0  0  0  0  0  0  0  0  0
   -2.5888   -1.5918    0.0000 N   0  0  0  0  0  0  0  0  0  0  0  0
    0.2647   -0.2338    0.0000 O   0  0  0  0  0  0  0  0  0  0  0  0
    1.2892    0.0653    0.0000 C   0  0  0  0  0  0  0  0  0  0  0  0
    2.6851   -0.2338    0.0000 C   0  0  0  0  0  0  0  0  0  0  0  0
   -1.6296   -2.6507    0.0000 O   0  0  0  0  0  0  0  0  0  0  0  0
    4.2493    0.2819    0.0000 C   0  0  0  0  0  0  0  0  0  0  0  0
    5.0297    0.5398    0.0000 C   0  0  0  0  0  0  0  0  0  0  0  0
   -3.2008   -2.1418    0.0000 C   0  0  0  0  0  0  0  0  0  0  0  0
    0.8595    1.4302    0.0000 O   0  0  0  0  0  0  0  0  0  0  0  0
    2.4238    1.9355    0.0000 O   0  0  0  0  0  0  0  0  0  0  0  0
    3.6408    0.8389    0.0000 C   0  0  0  0  0  0  0  0  0  0  0  0
   -4.4212   -3.2454    0.0000 C   0  0  0  0  0  0  0  0  0  0  0  0
   -3.9846   -1.8874    0.0000 C   0  0  0  0  0  0  0  0  0  0  0  0
   -3.0254   -2.9463    0.0000 C   0  0  0  0  0  0  0  0  0  0  0  0
   -3.6339   -3.4964    0.0000 C   0  0  0  0  0  0  0  0  0  0  0  0
   -4.5965   -2.4409    0.0000 C   0  0  0  0  0  0  0  0  0  0  0  0
    3.2076    2.1865    0.0000 C   0  0  0  0  0  0  0  0  0  0  0  0
   -5.0297   -3.7955    0.0000 C   0  0  0  0  0  0  0  0  0  0  0  0
    0.0653    1.1792    0.0000 C   0  0  0  0  0  0  0  0  0  0  0  0
  2  1  1  0  0  0  0
  3  1  1  0  0  0  0
  4  3  1  0  0  0  0
  4  5  1  0  0  0  0
  5  2  1  0  0  0  0
  6  4  2  0  0  0  0
  7  1  1  0  0  0  0
  8  7  1  0  0  0  0
  9  6  1  0  0  0  0
 10 18  1  0  0  0  0
 11 12  1  0  0  0  0
 11 10  2  0  0  0  0
 12 19  2  0  0  0  0
 13 32  1  0  0  0  0
 14 13  3  0  0  0  0
 15  2  2  0  0  0  0
 16  8  1  0  0  0  0
 17  3  2  0  0  0  0
 18  9  2  0  0  0  0
 19  9  1  0  0  0  0
 20  8  2  0  0  0  0
 21 26  1  0  0  0  0
 22 21  2  0  0  0  0
 23 16  1  0  0  0  0
 24 10  1  0  0  0  0
 25 11  1  0  0  0  0
 26 12  1  0  0  0  0
 27 30  1  0  0  0  0
 27 31  2  0  0  0  0
 28 23  2  0  0  0  0
 29 23  1  0  0  0  0
 30 29  2  0  0  0  0
 31 28  1  0  0  0  0
 32 25  1  0  0  0  0
 33 27  1  0  0  0  0
 34 24  1  0  0  0  0
M  END
> <CdId>
1741

> <Mol Weight>
459.4938

> <Formula>
C26H25N3O5

> <Click_ID>
CLK023_E06 __ __ 

$$$$
