CLK046H06
 OpenBabel03181413202D

 25 26  0  0  0  0  0  0  0  0999 V2000
    0.6542   -1.7292    0.0000 S   0  0  0  0  0  0  0  0  0  0  0  0
    1.3708   -2.1417    0.0000 C   0  0  0  0  0  0  0  0  0  0  0  0
   -2.9167    3.6333    0.0000 C   0  0  0  0  0  0  0  0  0  0  0  0
   -0.7750    0.7458    0.0000 C   0  0  0  0  0  0  0  0  0  0  0  0
   -3.6333    4.0417    0.0000 C   0  0  0  0  0  0  0  0  0  0  0  0
    1.0667   -1.0167    0.0000 O   0  0  0  0  0  0  0  0  0  0  0  0
    0.2417   -2.4458    0.0000 O   0  0  0  0  0  0  0  0  0  0  0  0
   -0.0583   -1.3167    0.0000 N   0  0  0  0  0  0  0  0  0  0  0  0
   -1.4875    1.1583    0.0000 N   0  0  0  0  0  0  0  0  0  0  0  0
    2.0833   -1.7292    0.0000 C   0  0  0  0  0  0  0  0  0  0  0  0
    1.3708   -2.9667    0.0000 C   0  0  0  0  0  0  0  0  0  0  0  0
   -0.7750   -0.0792    0.0000 C   0  0  0  0  0  0  0  0  0  0  0  0
   -1.4875    1.9833    0.0000 C   0  0  0  0  0  0  0  0  0  0  0  0
   -0.0583    1.1583    0.0000 O   0  0  0  0  0  0  0  0  0  0  0  0
    2.8000   -2.1417    0.0000 C   0  0  0  0  0  0  0  0  0  0  0  0
   -2.2042    3.2208    0.0000 C   0  0  0  0  0  0  0  0  0  0  0  0
   -2.2042    2.3958    0.0000 C   0  0  0  0  0  0  0  0  0  0  0  0
   -0.0583   -0.4917    0.0000 C   0  0  0  0  0  0  0  0  0  0  0  0
    2.0833   -3.3792    0.0000 C   0  0  0  0  0  0  0  0  0  0  0  0
    2.8000   -2.9667    0.0000 C   0  0  0  0  0  0  0  0  0  0  0  0
   -0.7750    3.2208    0.0000 C   0  0  0  0  0  0  0  0  0  0  0  0
   -0.7750    2.3958    0.0000 C   0  0  0  0  0  0  0  0  0  0  0  0
    2.0833   -0.9042    0.0000 C   0  0  0  0  0  0  0  0  0  0  0  0
   -1.4875    3.6333    0.0000 C   0  0  0  0  0  0  0  0  0  0  0  0
    2.0833   -4.2042    0.0000 C   0  0  0  0  0  0  0  0  0  0  0  0
  2  1  1  0  0  0  0
  3 16  1  0  0  0  0
  4 12  1  0  0  0  0
  5  3  3  0  0  0  0
  6  1  2  0  0  0  0
  7  1  2  0  0  0  0
  8  1  1  0  0  0  0
  9  4  1  0  0  0  0
 10  2  2  0  0  0  0
 11  2  1  0  0  0  0
 12 18  1  0  0  0  0
 13  9  1  0  0  0  0
 14  4  2  0  0  0  0
 15 10  1  0  0  0  0
 15 20  2  0  0  0  0
 16 17  1  0  0  0  0
 17 13  2  0  0  0  0
 18  8  1  0  0  0  0
 19 11  2  0  0  0  0
 20 19  1  0  0  0  0
 21 22  2  0  0  0  0
 22 13  1  0  0  0  0
 23 10  1  0  0  0  0
 24 16  2  0  0  0  0
 24 21  1  0  0  0  0
 25 19  1  0  0  0  0
M  END
> <CdId>
3528

> <Mol Weight>
356.439

> <Formula>
C19H20N2O3S

> <Click_ID>
CLK046H06 __ __ 

$$$$
