CLK027_H09
 OpenBabel03181413202D

 21 22  0  0  0  0  0  0  0  0999 V2000
   -1.9017   -1.9326    0.0000 N    0  0  0  0  0  0  0  0  0  0  0  0
   -1.6442   -2.7256    0.0000 C    0  0  0  0  0  0  0  0  0  0  0  0
   -0.5629   -1.9326    0.0000 C    0  0  0  0  0  0  0  0  0  0  0  0
   -1.2323   -1.4486    0.0000 C    0  0  0  0  0  0  0  0  0  0  0  0
   -0.8204   -2.7256    0.0000 S    0  0  0  0  0  0  0  0  0  0  0  0
    0.7346    0.7415    0.0000 C    0  0  0  0  0  0  0  0  0  0  0  0
    0.2231   -1.6821    0.0000 C    0  0  0  0  0  0  0  0  0  0  0  0
    1.3353    0.1922    0.0000 C    0  0  0  0  0  0  0  0  0  0  0  0
   -0.0480    0.4909    0.0000 C    0  0  0  0  0  0  0  0  0  0  0  0
    0.3879   -0.8719    0.0000 C    0  0  0  0  0  0  0  0  0  0  0  0
    1.8880    2.5848    0.0000 C    0  0  0  0  0  0  0  0  0  0  0  0
    2.0631    3.3846    0.0000 C    0  0  0  0  0  0  0  0  0  0  0  0
   -2.1317   -3.3846    0.0000 N    0  0  0  0  0  0  0  0  0  0  0  0
    1.1705   -0.6247    0.0000 C    0  0  0  0  0  0  0  0  0  0  0  0
   -0.2266   -0.3158    0.0000 C    0  0  0  0  0  0  0  0  0  0  0  0
   -1.2426   -0.6247    0.0000 O    0  0  0  0  0  0  0  0  0  0  0  0
    2.1283    0.4394    0.0000 Br   0  0  0  0  0  0  0  0  0  0  0  0
    0.9131    1.5379    0.0000 O    0  0  0  0  0  0  0  0  0  0  0  0
   -0.6556    1.0436    0.0000 O    0  0  0  0  0  0  0  0  0  0  0  0
    1.7027    1.7850    0.0000 C    0  0  0  0  0  0  0  0  0  0  0  0
   -1.4280    0.7930    0.0000 C    0  0  0  0  0  0  0  0  0  0  0  0
  2  1  1  0  0  0  0
  3  4  1  0  0  0  0
  3  5  1  0  0  0  0
  4  1  1  0  0  0  0
  5  2  1  0  0  0  0
  6  9  2  0  0  0  0
  6  8  1  0  0  0  0
  7  3  2  0  0  0  0
  8 14  2  0  0  0  0
  9 15  1  0  0  0  0
 10  7  1  0  0  0  0
 11 20  1  0  0  0  0
 12 11  3  0  0  0  0
 13  2  2  0  0  0  0
 14 10  1  0  0  0  0
 15 10  2  0  0  0  0
 16  4  2  0  0  0  0
 17  8  1  0  0  0  0
 18  6  1  0  0  0  0
 19  9  1  0  0  0  0
 20 18  1  0  0  0  0
 21 19  1  0  0  0  0
M  END
> <CdId>
2085

> <Mol Weight>
367.218

> <Formula>
C14H11BrN2O3S

> <Click_ID>
CLK027_H09 __ __ 

$$$$
