CLK012_C08
 OpenBabel03181413202D

 31 34  0  0  0  0  0  0  0  0999 V2000
    3.9231    0.5455    0.0000 N   0  0  0  0  0  0  0  0  0  0  0  0
    3.6649   -0.2416    0.0000 C   0  0  0  0  0  0  0  0  0  0  0  0
    3.2526    1.0245    0.0000 C   0  0  0  0  0  0  0  0  0  0  0  0
    2.5904    0.5455    0.0000 C   0  0  0  0  0  0  0  0  0  0  0  0
    1.1911    0.2457    0.0000 C   0  0  0  0  0  0  0  0  0  0  0  0
    2.8403   -0.2416    0.0000 S   0  0  0  0  0  0  0  0  0  0  0  0
    0.5122   -0.9162    0.0000 N   0  0  0  0  0  0  0  0  0  0  0  0
    1.8033    0.7954    0.0000 C   0  0  0  0  0  0  0  0  0  0  0  0
    1.2661   -0.5789    0.0000 C   0  0  0  0  0  0  0  0  0  0  0  0
    0.3790    0.4206    0.0000 C   0  0  0  0  0  0  0  0  0  0  0  0
   -0.0375   -0.2916    0.0000 C   0  0  0  0  0  0  0  0  0  0  0  0
    4.7102    0.7954    0.0000 C   0  0  0  0  0  0  0  0  0  0  0  0
    5.3141    0.2457    0.0000 C   0  0  0  0  0  0  0  0  0  0  0  0
   -0.4456   -1.9657    0.0000 C   0  0  0  0  0  0  0  0  0  0  0  0
   -1.2494   -2.1739    0.0000 C   0  0  0  0  0  0  0  0  0  0  0  0
    4.1522   -0.9121    0.0000 O   0  0  0  0  0  0  0  0  0  0  0  0
    6.1012    0.4956    0.0000 N   0  0  0  0  0  0  0  0  0  0  0  0
    3.2526    1.8491    0.0000 O   0  0  0  0  0  0  0  0  0  0  0  0
    5.1475   -0.5664    0.0000 O   0  0  0  0  0  0  0  0  0  0  0  0
    0.3373   -1.7159    0.0000 C   0  0  0  0  0  0  0  0  0  0  0  0
    6.7134   -0.0542    0.0000 C   0  0  0  0  0  0  0  0  0  0  0  0
    7.9336   -1.1661    0.0000 C   0  0  0  0  0  0  0  0  0  0  0  0
    7.4963    0.1957    0.0000 C   0  0  0  0  0  0  0  0  0  0  0  0
    6.5385   -0.8663    0.0000 C   0  0  0  0  0  0  0  0  0  0  0  0
    8.1085   -0.3623    0.0000 C   0  0  0  0  0  0  0  0  0  0  0  0
    7.1465   -1.4160    0.0000 C   0  0  0  0  0  0  0  0  0  0  0  0
   -0.8621   -0.2916    0.0000 C   0  0  0  0  0  0  0  0  0  0  0  0
   -0.0250    1.1452    0.0000 C   0  0  0  0  0  0  0  0  0  0  0  0
    8.5458   -1.7242    0.0000 C   0  0  0  0  0  0  0  0  0  0  0  0
   -0.8579    1.1327    0.0000 C   0  0  0  0  0  0  0  0  0  0  0  0
   -1.2702    0.4206    0.0000 C   0  0  0  0  0  0  0  0  0  0  0  0
  2  1  1  0  0  0  0
  3  1  1  0  0  0  0
  4  3  1  0  0  0  0
  5  8  1  0  0  0  0
  6  2  1  0  0  0  0
  6  4  1  0  0  0  0
  7  9  1  0  0  0  0
  7 11  1  0  0  0  0
  8  4  2  0  0  0  0
  9  5  2  0  0  0  0
 10  5  1  0  0  0  0
 11 10  1  0  0  0  0
 12  1  1  0  0  0  0
 13 12  1  0  0  0  0
 14 20  1  0  0  0  0
 15 14  3  0  0  0  0
 16  2  2  0  0  0  0
 17 13  1  0  0  0  0
 18  3  2  0  0  0  0
 19 13  2  0  0  0  0
 20  7  1  0  0  0  0
 21 17  1  0  0  0  0
 22 26  2  0  0  0  0
 22 25  1  0  0  0  0
 23 21  1  0  0  0  0
 24 21  2  0  0  0  0
 25 23  2  0  0  0  0
 26 24  1  0  0  0  0
 27 11  2  0  0  0  0
 27 31  1  0  0  0  0
 28 10  2  0  0  0  0
 29 22  1  0  0  0  0
 30 28  1  0  0  0  0
 31 30  2  0  0  0  0
M  END
> <CdId>
863

> <Mol Weight>
429.491

> <Formula>
C24H19N3O3S

> <Click_ID>
CLK012_C08 __ __ 

$$$$
