CLK026_D08
 OpenBabel03181413202D

 22 23  0  0  0  0  0  0  0  0999 V2000
   -2.6981   -0.3343    0.0000 N   0  0  0  0  0  0  0  0  0  0  0  0
   -3.1220   -1.0476    0.0000 C   0  0  0  0  0  0  0  0  0  0  0  0
   -1.8883   -0.5134    0.0000 C   0  0  0  0  0  0  0  0  0  0  0  0
   -1.8160   -1.3404    0.0000 C   0  0  0  0  0  0  0  0  0  0  0  0
   -2.5741   -1.6644    0.0000 S   0  0  0  0  0  0  0  0  0  0  0  0
   -1.0993   -1.7609    0.0000 C   0  0  0  0  0  0  0  0  0  0  0  0
   -2.5362    1.0889    0.0000 C   0  0  0  0  0  0  0  0  0  0  0  0
   -2.0779    1.7816    0.0000 C   0  0  0  0  0  0  0  0  0  0  0  0
   -3.9352   -1.1130    0.0000 O   0  0  0  0  0  0  0  0  0  0  0  0
   -1.2715    0.0379    0.0000 O   0  0  0  0  0  0  0  0  0  0  0  0
   -3.0221    0.4238    0.0000 C   0  0  0  0  0  0  0  0  0  0  0  0
   -0.3825   -1.3611    0.0000 C   0  0  0  0  0  0  0  0  0  0  0  0
    1.7953   -0.1379    0.0000 O   0  0  0  0  0  0  0  0  0  0  0  0
    1.0648   -0.5376    0.0000 C   0  0  0  0  0  0  0  0  0  0  0  0
   -0.3618   -0.5204    0.0000 C   0  0  0  0  0  0  0  0  0  0  0  0
    0.3377   -1.7781    0.0000 C   0  0  0  0  0  0  0  0  0  0  0  0
    0.3550   -0.1206    0.0000 C   0  0  0  0  0  0  0  0  0  0  0  0
    1.0544   -1.3749    0.0000 C   0  0  0  0  0  0  0  0  0  0  0  0
    2.5017   -0.5582    0.0000 C   0  0  3  0  0  0  0  0  0  0  0  0
    3.2288   -0.1516    0.0000 C   0  0  0  0  0  0  0  0  0  0  0  0
    2.4949   -1.3749    0.0000 C   0  0  0  0  0  0  0  0  0  0  0  0
    3.9318   -0.5754    0.0000 C   0  0  0  0  0  0  0  0  0  0  0  0
  2  1  1  0  0  0  0
  3  1  1  0  0  0  0
  4  3  1  0  0  0  0
  5  2  1  0  0  0  0
  5  4  1  0  0  0  0
  6  4  2  0  0  0  0
  7 11  1  0  0  0  0
  8  7  3  0  0  0  0
  9  2  2  0  0  0  0
 10  3  2  0  0  0  0
 11  1  1  0  0  0  0
 12  6  1  0  0  0  0
 13 14  1  0  0  0  0
 14 18  1  0  0  0  0
 15 12  2  0  0  0  0
 16 12  1  0  0  0  0
 17 15  1  0  0  0  0
 17 14  2  0  0  0  0
 18 16  2  0  0  0  0
 19 13  1  0  0  0  0
 20 19  1  0  0  0  0
 21 19  1  0  0  0  0
 22 20  1  0  0  0  0
M  END
> <CdId>
1973

> <Mol Weight>
315.387

> <Formula>
C17H17NO3S

> <Click_ID>
CLK026_D08 __ __ 

$$$$
