CLK012_G03
 OpenBabel03181413202D

 29 31  0  0  0  0  0  0  0  0999 V2000
    0.2172    1.1400    0.0000 N    0  0  0  0  0  0  0  0  0  0  0  0
    0.4677    0.3508    0.0000 C    0  0  0  0  0  0  0  0  0  0  0  0
    0.8811    1.6243    0.0000 C    0  0  0  0  0  0  0  0  0  0  0  0
    1.5534    1.1400    0.0000 C    0  0  0  0  0  0  0  0  0  0  0  0
    1.2945    0.3508    0.0000 N    0  0  0  0  0  0  0  0  0  0  0  0
    2.3426    1.3989    0.0000 C    0  0  0  0  0  0  0  0  0  0  0  0
    2.8479    3.8166    0.0000 C    0  0  0  0  0  0  0  0  0  0  0  0
    3.4618    3.2654    0.0000 C    0  0  0  0  0  0  0  0  0  0  0  0
    2.0712    3.5703    0.0000 C    0  0  0  0  0  0  0  0  0  0  0  0
    2.5097    2.2131    0.0000 C    0  0  0  0  0  0  0  0  0  0  0  0
   -0.5763    1.3989    0.0000 C    0  0  0  0  0  0  0  0  0  0  0  0
    4.0088    5.6666    0.0000 C    0  0  0  0  0  0  0  0  0  0  0  0
    4.1883    6.4808    0.0000 C    0  0  0  0  0  0  0  0  0  0  0  0
   -0.0208   -0.3174    0.0000 O    0  0  0  0  0  0  0  0  0  0  0  0
    0.8811    2.4512    0.0000 O    0  0  0  0  0  0  0  0  0  0  0  0
    3.2864    2.4512    0.0000 C    0  0  0  0  0  0  0  0  0  0  0  0
    1.8958    2.7643    0.0000 C    0  0  0  0  0  0  0  0  0  0  0  0
    4.2510    3.5160    0.0000 Cl   0  0  0  0  0  0  0  0  0  0  0  0
   -1.1901    0.8477    0.0000 C    0  0  0  0  0  0  0  0  0  0  0  0
    3.0358    4.6143    0.0000 O    0  0  0  0  0  0  0  0  0  0  0  0
    1.4699    4.1132    0.0000 O    0  0  0  0  0  0  0  0  0  0  0  0
   -2.4261   -0.2548    0.0000 C    0  0  0  0  0  0  0  0  0  0  0  0
   -3.0399   -0.8060    0.0000 Br   0  0  0  0  0  0  0  0  0  0  0  0
   -1.0230    0.0334    0.0000 C    0  0  0  0  0  0  0  0  0  0  0  0
   -1.9793    1.0982    0.0000 C    0  0  0  0  0  0  0  0  0  0  0  0
   -1.6369   -0.5178    0.0000 C    0  0  0  0  0  0  0  0  0  0  0  0
   -2.5890    0.5512    0.0000 C    0  0  0  0  0  0  0  0  0  0  0  0
    3.8251    4.8648    0.0000 C    0  0  0  0  0  0  0  0  0  0  0  0
    0.6932    3.8710    0.0000 C    0  0  0  0  0  0  0  0  0  0  0  0
  2  1  1  0  0  0  0
  3  1  1  0  0  0  0
  4  3  1  0  0  0  0
  5  2  1  0  0  0  0
  5  4  1  0  0  0  0
  6  4  2  0  0  0  0
  7  9  2  0  0  0  0
  8 16  2  0  0  0  0
  8  7  1  0  0  0  0
  9 17  1  0  0  0  0
 10  6  1  0  0  0  0
 11  1  1  0  0  0  0
 12 28  1  0  0  0  0
 13 12  3  0  0  0  0
 14  2  2  0  0  0  0
 15  3  2  0  0  0  0
 16 10  1  0  0  0  0
 17 10  2  0  0  0  0
 18  8  1  0  0  0  0
 19 11  1  0  0  0  0
 20  7  1  0  0  0  0
 21  9  1  0  0  0  0
 22 27  2  0  0  0  0
 23 22  1  0  0  0  0
 24 19  1  0  0  0  0
 25 19  2  0  0  0  0
 26 24  2  0  0  0  0
 26 22  1  0  0  0  0
 27 25  1  0  0  0  0
 28 20  1  0  0  0  0
 29 21  1  0  0  0  0
M  END
> <CdId>
898

> <Mol Weight>
475.72

> <Formula>
C21H16BrClN2O4

> <Click_ID>
CLK012_G03 __ __ 

$$$$
