CLK044B04
 OpenBabel03181413202D

 23 24  0  0  0  0  0  0  0  0999 V2000
    0.4333   -1.7126    0.0000 C   0  0  0  0  0  0  0  0  0  0  0  0
    0.4333   -0.3750    0.0000 C   0  0  0  0  0  0  0  0  0  0  0  0
   -0.0542   -1.0418    0.0000 C   0  0  0  0  0  0  0  0  0  0  0  0
    1.2168   -0.6292    0.0000 N   0  0  0  0  0  0  0  0  0  0  0  0
    1.2168   -1.4543    0.0000 C   0  0  0  0  0  0  0  0  0  0  0  0
    0.1792    0.4083    0.0000 C   0  0  0  0  0  0  0  0  0  0  0  0
    0.1792   -2.4960    0.0000 C   0  0  0  0  0  0  0  0  0  0  0  0
    0.7293    1.0209    0.0000 N   0  0  0  0  0  0  0  0  0  0  0  0
   -1.3959    2.9335    0.0000 C   0  0  0  0  0  0  0  0  0  0  0  0
   -2.2002    3.1044    0.0000 C   0  0  0  0  0  0  0  0  0  0  0  0
   -0.6292    0.5792    0.0000 O   0  0  0  0  0  0  0  0  0  0  0  0
    0.4750    1.8084    0.0000 C   0  0  0  0  0  0  0  0  0  0  0  0
    0.7293   -3.1085    0.0000 O   0  0  0  0  0  0  0  0  0  0  0  0
   -0.5875    2.7627    0.0000 C   0  0  0  0  0  0  0  0  0  0  0  0
   -0.8793   -1.0418    0.0000 C   0  0  0  0  0  0  0  0  0  0  0  0
   -0.3333    1.9793    0.0000 C   0  0  0  0  0  0  0  0  0  0  0  0
   -0.6292   -2.6669    0.0000 O   0  0  0  0  0  0  0  0  0  0  0  0
    1.8834   -1.9418    0.0000 C   0  0  0  0  0  0  0  0  0  0  0  0
    0.7709    3.2044    0.0000 C   0  0  0  0  0  0  0  0  0  0  0  0
    1.0251    2.4210    0.0000 C   0  0  0  0  0  0  0  0  0  0  0  0
   -0.0333    3.3752    0.0000 C   0  0  0  0  0  0  0  0  0  0  0  0
   -0.8834   -3.4502    0.0000 C   0  0  0  0  0  0  0  0  0  0  0  0
   -1.6918   -3.6253    0.0000 C   0  0  0  0  0  0  0  0  0  0  0  0
  2  3  2  0  0  0  0
  2  4  1  0  0  0  0
  3  1  1  0  0  0  0
  4  5  1  0  0  0  0
  5  1  2  0  0  0  0
  6  2  1  0  0  0  0
  7  1  1  0  0  0  0
  8  6  1  0  0  0  0
  9 14  1  0  0  0  0
 10  9  3  0  0  0  0
 11  6  2  0  0  0  0
 12  8  1  0  0  0  0
 13  7  2  0  0  0  0
 14 16  1  0  0  0  0
 15  3  1  0  0  0  0
 16 12  2  0  0  0  0
 17  7  1  0  0  0  0
 18  5  1  0  0  0  0
 19 20  2  0  0  0  0
 20 12  1  0  0  0  0
 21 14  2  0  0  0  0
 21 19  1  0  0  0  0
 22 17  1  0  0  0  0
 23 22  1  0  0  0  0
M  END
> <CdId>
3346

> <Mol Weight>
310.3471

> <Formula>
C18H18N2O3

> <Click_ID>
CLK044B04 __ __ 

$$$$
