CLK033_D02
 OpenBabel03181413202D

 24 26  0  0  0  0  0  0  0  0999 V2000
   -4.5935    2.5570    0.0000 C    0  0  0  0  0  0  0  0  0  0  0  0
   -3.8606    2.9818    0.0000 N    0  0  0  0  0  0  0  0  0  0  0  0
   -4.6810    1.7324    0.0000 N    0  0  0  0  0  0  0  0  0  0  0  0
   -5.3182    2.8944    0.0000 S    0  0  0  0  0  0  0  0  0  0  0  0
   -5.4848    1.5825    0.0000 C    0  0  0  0  0  0  0  0  0  0  0  0
   -5.8929    2.2989    0.0000 C    0  0  0  0  0  0  0  0  0  0  0  0
   -3.8689    3.7981    0.0000 C    0  0  0  0  0  0  0  0  0  0  0  0
   -4.2562    0.3581    0.0000 C    0  0  0  0  0  0  0  0  0  0  0  0
   -4.4436   -0.4540    0.0000 C    0  0  0  0  0  0  0  0  0  0  0  0
   -3.1567    4.2104    0.0000 C    0  0  0  0  0  0  0  0  0  0  0  0
   -5.9179    0.8829    0.0000 C    0  0  0  0  0  0  0  0  0  0  0  0
   -4.5810    4.2146    0.0000 O    0  0  0  0  0  0  0  0  0  0  0  0
   -4.0688    1.1619    0.0000 C    0  0  0  0  0  0  0  0  0  0  0  0
   -2.4321    3.8064    0.0000 C    0  0  0  0  0  0  0  0  0  0  0  0
   -3.1485    5.0267    0.0000 C    0  0  0  0  0  0  0  0  0  0  0  0
   -1.7200    5.0392    0.0000 C    0  0  0  0  0  0  0  0  0  0  0  0
   -2.4321    5.4473    0.0000 C    0  0  0  0  0  0  0  0  0  0  0  0
   -1.7200    4.2104    0.0000 C    0  0  0  0  0  0  0  0  0  0  0  0
   -6.7009    2.3197    0.0000 C    0  0  0  0  0  0  0  0  0  0  0  0
   -0.9995    5.4515    0.0000 Cl   0  0  0  0  0  0  0  0  0  0  0  0
   -5.5181    0.1457    0.0000 O    0  0  0  0  0  0  0  0  0  0  0  0
   -7.1382    1.6200    0.0000 C    0  0  0  0  0  0  0  0  0  0  0  0
   -6.7259    0.8871    0.0000 C    0  0  0  0  0  0  0  0  0  0  0  0
   -5.9554   -0.5539    0.0000 C    0  0  0  0  0  0  0  0  0  0  0  0
  2  1  2  0  0  0  0
  3  1  1  0  0  0  0
  4  1  1  0  0  0  0
  5  3  1  0  0  0  0
  6  4  1  0  0  0  0
  6  5  2  0  0  0  0
  7  2  1  0  0  0  0
  8 13  1  0  0  0  0
  9  8  3  0  0  0  0
 10  7  1  0  0  0  0
 11  5  1  0  0  0  0
 12  7  2  0  0  0  0
 13  3  1  0  0  0  0
 14 10  2  0  0  0  0
 15 10  1  0  0  0  0
 16 17  1  0  0  0  0
 16 18  2  0  0  0  0
 17 15  2  0  0  0  0
 18 14  1  0  0  0  0
 19  6  1  0  0  0  0
 20 16  1  0  0  0  0
 21 11  1  0  0  0  0
 22 19  2  0  0  0  0
 23 11  2  0  0  0  0
 23 22  1  0  0  0  0
 24 21  1  0  0  0  0
M  END
> <CdId>
2516

> <Mol Weight>
356.826

> <Formula>
C18H13ClN2O2S

> <Click_ID>
CLK033_D02 __ __ 

$$$$
