CLK009_G02
 OpenBabel03181413202D

 12 12  0  0  0  0  0  0  0  0999 V2000
   -3.4003   -0.4091    0.0000 C   0  0  0  0  0  0  0  0  0  0  0  0
   -1.0030   -0.7786    0.0000 C   0  0  0  0  0  0  0  0  0  0  0  0
   -2.6877   -0.7962    0.0000 C   0  0  0  0  0  0  0  0  0  0  0  0
   -0.2243   -0.5587    0.0000 C   0  0  0  0  0  0  0  0  0  0  0  0
   -1.7903   -0.5323    0.0000 C   0  0  3  0  0  0  0  0  0  0  0  0
   -2.6349    0.1011    0.0000 O   0  0  0  0  0  0  0  0  0  0  0  0
   -4.1834    0.1011    0.0000 O   0  0  0  0  0  0  0  0  0  0  0  0
   -1.7903   -1.2141    0.0000 O   0  0  0  0  0  0  0  0  0  0  0  0
   -4.2185   -0.7962    0.0000 C   0  0  0  0  0  0  0  0  0  0  0  0
   -4.1834    0.8929    0.0000 C   0  0  0  0  0  0  0  0  0  0  0  0
   -2.6349    0.8929    0.0000 C   0  0  0  0  0  0  0  0  0  0  0  0
   -1.7903    0.1056    0.0000 C   0  0  0  0  0  0  0  0  0  0  0  0
  2  5  1  0  0  0  0
  3  1  1  0  0  0  0
  4  2  3  0  0  0  0
  5  3  1  0  0  0  0
  6  1  1  0  0  0  0
  7  1  1  0  0  0  0
  8  5  1  0  0  0  0
  9  1  1  0  0  0  0
 10  7  1  0  0  0  0
 10 11  1  0  0  0  0
 11  6  1  0  0  0  0
 12  5  1  0  0  0  0
M  END
> <CdId>
657

> <Mol Weight>
170.2057

> <Formula>
C9H14O3

> <Click_ID>
CLK009_G02 __ __ 

$$$$
