CLK024_B08
 OpenBabel03181413202D

 28 30  0  0  0  0  0  0  0  0999 V2000
   -2.4085   -2.4051    0.0000 N   0  0  0  0  0  0  0  0  0  0  0  0
   -2.3879   -3.2286    0.0000 C   0  0  0  0  0  0  0  0  0  0  0  0
   -1.6229   -2.1156    0.0000 C   0  0  0  0  0  0  0  0  0  0  0  0
   -1.1199   -2.7807    0.0000 C   0  0  0  0  0  0  0  0  0  0  0  0
   -1.5954   -3.4664    0.0000 S   0  0  0  0  0  0  0  0  0  0  0  0
   -0.2860   -2.7531    0.0000 C   0  0  0  0  0  0  0  0  0  0  0  0
    3.7385    3.0219    0.0000 C   0  0  0  0  0  0  0  0  0  0  0  0
   -3.8454   -2.2913    0.0000 C   0  0  0  0  0  0  0  0  0  0  0  0
   -4.5690   -2.6876    0.0000 C   0  0  0  0  0  0  0  0  0  0  0  0
   -3.0460   -3.7282    0.0000 O   0  0  0  0  0  0  0  0  0  0  0  0
   -1.3955   -1.3266    0.0000 O   0  0  0  0  0  0  0  0  0  0  0  0
    3.3285    2.3086    0.0000 C   0  0  0  0  0  0  0  0  0  0  0  0
   -3.0873   -1.9296    0.0000 C   0  0  0  0  0  0  0  0  0  0  0  0
    3.3251    3.7282    0.0000 O   0  0  0  0  0  0  0  0  0  0  0  0
    0.1034   -2.0261    0.0000 C   0  0  0  0  0  0  0  0  0  0  0  0
    3.7558    1.5954    0.0000 C   0  0  0  0  0  0  0  0  0  0  0  0
    2.5119    2.2948    0.0000 C   0  0  0  0  0  0  0  0  0  0  0  0
    1.3059    0.1447    0.0000 O   0  0  0  0  0  0  0  0  0  0  0  0
    0.9028   -0.5789    0.0000 C   0  0  0  0  0  0  0  0  0  0  0  0
    4.5655    3.0322    0.0000 O   0  0  0  0  0  0  0  0  0  0  0  0
    2.5291    0.8718    0.0000 C   0  0  0  0  0  0  0  0  0  0  0  0
    2.1260    0.1585    0.0000 C   0  0  0  0  0  0  0  0  0  0  0  0
    2.1053    1.5712    0.0000 C   0  0  0  0  0  0  0  0  0  0  0  0
    3.3492    0.8752    0.0000 C   0  0  0  0  0  0  0  0  0  0  0  0
   -0.3343   -1.3266    0.0000 C   0  0  0  0  0  0  0  0  0  0  0  0
    0.9269   -2.0157    0.0000 C   0  0  0  0  0  0  0  0  0  0  0  0
    1.3163   -1.2783    0.0000 C   0  0  0  0  0  0  0  0  0  0  0  0
    0.0792   -0.5927    0.0000 C   0  0  0  0  0  0  0  0  0  0  0  0
  2  1  1  0  0  0  0
  3  1  1  0  0  0  0
  4  3  1  0  0  0  0
  5  2  1  0  0  0  0
  5  4  1  0  0  0  0
  6  4  2  0  0  0  0
  7 12  1  0  0  0  0
  8 13  1  0  0  0  0
  9  8  3  0  0  0  0
 10  2  2  0  0  0  0
 11  3  2  0  0  0  0
 12 16  2  0  0  0  0
 13  1  1  0  0  0  0
 14  7  2  0  0  0  0
 15  6  1  0  0  0  0
 16 24  1  0  0  0  0
 17 23  2  0  0  0  0
 17 12  1  0  0  0  0
 18 19  1  0  0  0  0
 19 27  1  0  0  0  0
 20  7  1  0  0  0  0
 21 22  1  0  0  0  0
 22 18  1  0  0  0  0
 23 21  1  0  0  0  0
 24 21  2  0  0  0  0
 25 15  2  0  0  0  0
 26 15  1  0  0  0  0
 27 26  2  0  0  0  0
 28 25  1  0  0  0  0
 28 19  2  0  0  0  0
M  END
> <CdId>
1793

> <Mol Weight>
393.413

> <Formula>
C21H15NO5S

> <Click_ID>
CLK024_B08 __ __ 

$$$$
