CLK050B10
 OpenBabel03181413202D

 15 15  0  0  0  0  0  0  0  0999 V2000
   -0.6708    0.4417    0.0000 C   0  0  0  0  0  0  0  0  0  0  0  0
   -1.3833    2.5042    0.0000 C   0  0  0  0  0  0  0  0  0  0  0  0
    0.0458    0.0292    0.0000 C   0  0  0  0  0  0  0  0  0  0  0  0
   -1.3833    3.3292    0.0000 C   0  0  0  0  0  0  0  0  0  0  0  0
    0.0458   -0.7958    0.0000 C   0  0  0  0  0  0  0  0  0  0  0  0
    0.7583   -1.2083    0.0000 C   0  0  0  0  0  0  0  0  0  0  0  0
    0.7583   -2.0333    0.0000 N   0  0  0  0  0  0  0  0  0  0  0  0
   -1.3833    0.0292    0.0000 O   0  0  0  0  0  0  0  0  0  0  0  0
   -0.6708    1.2667    0.0000 N   0  0  0  0  0  0  0  0  0  0  0  0
   -1.3833    1.6792    0.0000 C   0  0  0  0  0  0  0  0  0  0  0  0
    0.7583    0.4417    0.0000 C   0  0  0  0  0  0  0  0  0  0  0  0
    1.4750   -0.7958    0.0000 C   0  0  0  0  0  0  0  0  0  0  0  0
    1.4750    0.0292    0.0000 C   0  0  0  0  0  0  0  0  0  0  0  0
    0.0458   -2.4458    0.0000 C   0  0  0  0  0  0  0  0  0  0  0  0
    1.4750   -2.4458    0.0000 C   0  0  0  0  0  0  0  0  0  0  0  0
  2 10  1  0  0  0  0
  3  1  1  0  0  0  0
  4  2  3  0  0  0  0
  5  3  1  0  0  0  0
  6  5  2  0  0  0  0
  7  6  1  0  0  0  0
  8  1  2  0  0  0  0
  9  1  1  0  0  0  0
 10  9  1  0  0  0  0
 11  3  2  0  0  0  0
 12  6  1  0  0  0  0
 13 11  1  0  0  0  0
 13 12  2  0  0  0  0
 14  7  1  0  0  0  0
 15  7  1  0  0  0  0
M  END
> <CdId>
3874

> <Mol Weight>
202.2524

> <Formula>
C12H14N2O

> <Click_ID>
CLK050B10 __ __ 

$$$$
