CLK026_E09
 OpenBabel03181413202D

 29 31  0  0  0  0  0  0  0  0999 V2000
   -2.9391    0.4675    0.0000 N   0  0  0  0  0  0  0  0  0  0  0  0
    0.7563    0.1925    0.0000 N   0  0  0  0  0  0  0  0  0  0  0  0
   -3.2553   -0.2922    0.0000 C   0  0  0  0  0  0  0  0  0  0  0  0
   -1.9284   -0.4160    0.0000 C   0  0  0  0  0  0  0  0  0  0  0  0
   -2.1141    0.3919    0.0000 C   0  0  0  0  0  0  0  0  0  0  0  0
   -0.5191   -0.2407    0.0000 C   0  0  0  0  0  0  0  0  0  0  0  0
    0.2510    0.8559    0.0000 C   0  0  0  0  0  0  0  0  0  0  0  0
   -2.6400   -0.8388    0.0000 S   0  0  0  0  0  0  0  0  0  0  0  0
    0.2819   -0.4812    0.0000 C   0  0  0  0  0  0  0  0  0  0  0  0
    1.5778    0.1959    0.0000 C   0  0  0  0  0  0  0  0  0  0  0  0
   -1.1722   -0.7390    0.0000 C   0  0  0  0  0  0  0  0  0  0  0  0
   -0.5294    0.5843    0.0000 C   0  0  0  0  0  0  0  0  0  0  0  0
    1.9903   -0.5053    0.0000 C   0  0  0  0  0  0  0  0  0  0  0  0
    2.8153   -0.5053    0.0000 C   0  0  0  0  0  0  0  0  0  0  0  0
    3.2347   -1.2066    0.0000 C   0  0  0  0  0  0  0  0  0  0  0  0
   -2.9562    1.8907    0.0000 C   0  0  0  0  0  0  0  0  0  0  0  0
   -2.5953    2.6400    0.0000 C   0  0  0  0  0  0  0  0  0  0  0  0
   -4.0631   -0.4675    0.0000 O   0  0  0  0  0  0  0  0  0  0  0  0
   -1.5778    1.0175    0.0000 O   0  0  0  0  0  0  0  0  0  0  0  0
   -3.3653    1.1653    0.0000 C   0  0  0  0  0  0  0  0  0  0  0  0
    4.0597   -1.1997    0.0000 O   0  0  0  0  0  0  0  0  0  0  0  0
    1.9662    0.9075    0.0000 C   0  0  0  0  0  0  0  0  0  0  0  0
    2.8291   -1.9284    0.0000 O   0  0  0  0  0  0  0  0  0  0  0  0
    0.5053    1.6397    0.0000 C   0  0  0  0  0  0  0  0  0  0  0  0
    0.5431   -1.2616    0.0000 C   0  0  0  0  0  0  0  0  0  0  0  0
    1.5916   -1.2307    0.0000 C   0  0  0  0  0  0  0  0  0  0  0  0
    3.2243    0.2097    0.0000 C   0  0  0  0  0  0  0  0  0  0  0  0
    2.7982    0.9178    0.0000 C   0  0  0  0  0  0  0  0  0  0  0  0
    3.2519   -2.6365    0.0000 C   0  0  0  0  0  0  0  0  0  0  0  0
  2  9  1  0  0  0  0
  3  1  1  0  0  0  0
  4  5  1  0  0  0  0
  5  1  1  0  0  0  0
  6 11  1  0  0  0  0
  7 12  2  0  0  0  0
  7  2  1  0  0  0  0
  8  3  1  0  0  0  0
  8  4  1  0  0  0  0
  9  6  2  0  0  0  0
 10  2  1  0  0  0  0
 11  4  2  0  0  0  0
 12  6  1  0  0  0  0
 13 10  2  0  0  0  0
 14 13  1  0  0  0  0
 15 14  1  0  0  0  0
 16 20  1  0  0  0  0
 17 16  3  0  0  0  0
 18  3  2  0  0  0  0
 19  5  2  0  0  0  0
 20  1  1  0  0  0  0
 21 15  2  0  0  0  0
 22 10  1  0  0  0  0
 23 15  1  0  0  0  0
 24  7  1  0  0  0  0
 25  9  1  0  0  0  0
 26 13  1  0  0  0  0
 27 28  1  0  0  0  0
 27 14  2  0  0  0  0
 28 22  2  0  0  0  0
 29 23  1  0  0  0  0
M  END
> <CdId>
1984

> <Mol Weight>
408.47

> <Formula>
C22H20N2O4S

> <Click_ID>
CLK026_E09 __ __ 

$$$$
