CLK013_H09
 OpenBabel03181413202D

 26 28  0  0  0  0  0  0  0  0999 V2000
    3.4650   -1.8241    0.0000 N   0  0  0  0  0  0  0  0  0  0  0  0
    4.2854   -1.7408    0.0000 C   0  0  0  0  0  0  0  0  0  0  0  0
    3.2901   -2.6279    0.0000 C   0  0  0  0  0  0  0  0  0  0  0  0
    4.0022   -3.0402    0.0000 C   0  0  0  0  0  0  0  0  0  0  0  0
    4.6144   -2.4905    0.0000 N   0  0  0  0  0  0  0  0  0  0  0  0
    4.0855   -3.8648    0.0000 C   0  0  0  0  0  0  0  0  0  0  0  0
    2.9153   -1.2036    0.0000 C   0  0  0  0  0  0  0  0  0  0  0  0
    4.7019   -1.0287    0.0000 S   0  0  0  0  0  0  0  0  0  0  0  0
    8.5375   -5.0892    0.0000 C   0  0  0  0  0  0  0  0  0  0  0  0
    9.2954   -5.4265    0.0000 C   0  0  0  0  0  0  0  0  0  0  0  0
    2.5363   -2.9610    0.0000 O   0  0  0  0  0  0  0  0  0  0  0  0
    4.8476   -4.2104    0.0000 C   0  0  0  0  0  0  0  0  0  0  0  0
    3.1776   -0.4290    0.0000 C   0  0  0  0  0  0  0  0  0  0  0  0
    2.1115   -1.3785    0.0000 C   0  0  0  0  0  0  0  0  0  0  0  0
    1.8241    0.0250    0.0000 C   0  0  0  0  0  0  0  0  0  0  0  0
    6.3636   -4.8976    0.0000 C   0  0  0  0  0  0  0  0  0  0  0  0
    1.5659   -0.7538    0.0000 C   0  0  0  0  0  0  0  0  0  0  0  0
    2.6279    0.1874    0.0000 C   0  0  0  0  0  0  0  0  0  0  0  0
    5.5140   -3.7274    0.0000 C   0  0  0  0  0  0  0  0  0  0  0  0
    4.9226   -5.0392    0.0000 C   0  0  0  0  0  0  0  0  0  0  0  0
    6.2636   -4.0647    0.0000 C   0  0  0  0  0  0  0  0  0  0  0  0
    5.6764   -5.3766    0.0000 C   0  0  0  0  0  0  0  0  0  0  0  0
    7.7879   -4.7519    0.0000 C   0  0  0  0  0  0  0  0  0  0  0  0
    7.1132   -5.2349    0.0000 O   0  0  0  0  0  0  0  0  0  0  0  0
    1.2786    0.6455    0.0000 O   0  0  0  0  0  0  0  0  0  0  0  0
    0.4748    0.4748    0.0000 C   0  0  0  0  0  0  0  0  0  0  0  0
  2  1  1  0  0  0  0
  3  1  1  0  0  0  0
  4  3  1  0  0  0  0
  5  2  1  0  0  0  0
  5  4  1  0  0  0  0
  6  4  2  0  0  0  0
  7  1  1  0  0  0  0
  8  2  2  0  0  0  0
  9 23  1  0  0  0  0
 10  9  3  0  0  0  0
 11  3  2  0  0  0  0
 12  6  1  0  0  0  0
 13  7  2  0  0  0  0
 14  7  1  0  0  0  0
 15 17  1  0  0  0  0
 15 18  2  0  0  0  0
 16 22  2  0  0  0  0
 16 21  1  0  0  0  0
 17 14  2  0  0  0  0
 18 13  1  0  0  0  0
 19 12  1  0  0  0  0
 20 12  2  0  0  0  0
 21 19  2  0  0  0  0
 22 20  1  0  0  0  0
 23 24  1  0  0  0  0
 24 16  1  0  0  0  0
 25 15  1  0  0  0  0
 26 25  1  0  0  0  0
M  END
> <CdId>
994

> <Mol Weight>
364.418

> <Formula>
C20H16N2O3S

> <Click_ID>
CLK013_H09 __ __ 

$$$$
