CLK044A11
 OpenBabel03181413202D

 19 19  0  0  0  0  0  0  0  0999 V2000
   -0.3792   -1.5167    0.0000 C   0  0  0  0  0  0  0  0  0  0  0  0
   -0.3792   -0.6917    0.0000 N   0  0  0  0  0  0  0  0  0  0  0  0
   -0.3792    1.7833    0.0000 C   0  0  0  0  0  0  0  0  0  0  0  0
    0.3375   -1.9292    0.0000 O   0  0  0  0  0  0  0  0  0  0  0  0
    1.0500    3.4333    0.0000 C   0  0  0  0  0  0  0  0  0  0  0  0
    1.7667    3.8458    0.0000 C   0  0  0  0  0  0  0  0  0  0  0  0
   -1.0917   -1.9292    0.0000 O   0  0  0  0  0  0  0  0  0  0  0  0
   -1.0917   -0.2792    0.0000 C   0  0  0  0  0  0  0  0  0  0  0  0
    0.3375   -0.2792    0.0000 C   0  0  0  0  0  0  0  0  0  0  0  0
   -0.3792    0.9583    0.0000 C   0  0  0  0  0  0  0  0  0  0  0  0
   -1.0917    2.1958    0.0000 O   0  0  0  0  0  0  0  0  0  0  0  0
    0.3375   -2.7542    0.0000 C   0  0  0  0  0  0  0  0  0  0  0  0
   -1.0917    0.5458    0.0000 C   0  0  0  0  0  0  0  0  0  0  0  0
    0.3375    0.5458    0.0000 C   0  0  0  0  0  0  0  0  0  0  0  0
    0.3375    2.1958    0.0000 N   0  0  0  0  0  0  0  0  0  0  0  0
    0.3375    3.0208    0.0000 C   0  0  0  0  0  0  0  0  0  0  0  0
    1.1625   -2.7542    0.0000 C   0  0  0  0  0  0  0  0  0  0  0  0
   -0.4875   -2.7542    0.0000 C   0  0  0  0  0  0  0  0  0  0  0  0
    0.3375   -3.5792    0.0000 C   0  0  0  0  0  0  0  0  0  0  0  0
  2  1  1  0  0  0  0
  3 10  1  0  0  0  0
  4  1  1  0  0  0  0
  5 16  1  0  0  0  0
  6  5  3  0  0  0  0
  7  1  2  0  0  0  0
  8  2  1  0  0  0  0
  9  2  1  0  0  0  0
 10 13  1  0  0  0  0
 10 14  1  0  0  0  0
 11  3  2  0  0  0  0
 12  4  1  0  0  0  0
 13  8  1  0  0  0  0
 14  9  1  0  0  0  0
 15  3  1  0  0  0  0
 16 15  1  0  0  0  0
 17 12  1  0  0  0  0
 18 12  1  0  0  0  0
 19 12  1  0  0  0  0
M  END
> <CdId>
3401

> <Mol Weight>
266.3361

> <Formula>
C14H22N2O3

> <Click_ID>
CLK044A11 __ __ 

$$$$
