CLK015_C05
 OpenBabel03181413202D

 23 24  0  0  0  0  0  0  0  0999 V2000
   -0.0249    0.3195    0.0000 N    0  0  0  0  0  0  0  0  0  0  0  0
    0.7967    0.3195    0.0000 C    0  0  0  0  0  0  0  0  0  0  0  0
    0.3776   -0.9461    0.0000 C    0  0  0  0  0  0  0  0  0  0  0  0
   -0.2821   -0.4648    0.0000 C    0  0  0  0  0  0  0  0  0  0  0  0
    1.0499   -0.4648    0.0000 N    0  0  0  0  0  0  0  0  0  0  0  0
    0.3776   -1.7677    0.0000 C    0  0  0  0  0  0  0  0  0  0  0  0
    2.5395   -3.0167    0.0000 C    0  0  0  0  0  0  0  0  0  0  0  0
    1.8092   -3.4275    0.0000 C    0  0  0  0  0  0  0  0  0  0  0  0
    2.5271   -2.1827    0.0000 C    0  0  0  0  0  0  0  0  0  0  0  0
    1.0997   -2.1827    0.0000 C    0  0  0  0  0  0  0  0  0  0  0  0
    1.2739    0.9793    0.0000 S    0  0  0  0  0  0  0  0  0  0  0  0
    4.6807   -3.4234    0.0000 C    0  0  0  0  0  0  0  0  0  0  0  0
    5.3944   -3.8383    0.0000 C    0  0  0  0  0  0  0  0  0  0  0  0
   -1.0664   -0.7138    0.0000 O    0  0  0  0  0  0  0  0  0  0  0  0
    1.0955   -3.0167    0.0000 C    0  0  0  0  0  0  0  0  0  0  0  0
    1.8175   -1.7719    0.0000 C    0  0  0  0  0  0  0  0  0  0  0  0
   -0.5104    0.9793    0.0000 C    0  0  0  0  0  0  0  0  0  0  0  0
    1.8092   -4.2491    0.0000 Cl   0  0  0  0  0  0  0  0  0  0  0  0
    1.8299   -0.7220    0.0000 C    0  0  0  0  0  0  0  0  0  0  0  0
    3.2533   -3.4275    0.0000 O    0  0  0  0  0  0  0  0  0  0  0  0
    3.2408   -1.7801    0.0000 O    0  0  0  0  0  0  0  0  0  0  0  0
    3.9628   -3.0167    0.0000 C    0  0  0  0  0  0  0  0  0  0  0  0
    3.2408   -0.9503    0.0000 C    0  0  0  0  0  0  0  0  0  0  0  0
  2  1  1  0  0  0  0
  3  4  1  0  0  0  0
  4  1  1  0  0  0  0
  5  2  1  0  0  0  0
  5  3  1  0  0  0  0
  6  3  2  0  0  0  0
  7  9  1  0  0  0  0
  7  8  2  0  0  0  0
  8 15  1  0  0  0  0
  9 16  2  0  0  0  0
 10  6  1  0  0  0  0
 11  2  2  0  0  0  0
 12 22  1  0  0  0  0
 13 12  3  0  0  0  0
 14  4  2  0  0  0  0
 15 10  2  0  0  0  0
 16 10  1  0  0  0  0
 17  1  1  0  0  0  0
 18  8  1  0  0  0  0
 19  5  1  0  0  0  0
 20  7  1  0  0  0  0
 21  9  1  0  0  0  0
 22 20  1  0  0  0  0
 23 21  1  0  0  0  0
M  END
> <CdId>
1100

> <Mol Weight>
350.82

> <Formula>
C16H15ClN2O3S

> <Click_ID>
CLK015_C05 __ __ 

$$$$
