CLK036_D04
 OpenBabel03181413202D

 29 31  0  0  0  0  0  0  0  0999 V2000
    3.6851   -1.0660    0.0000 C   0  0  0  0  0  0  0  0  0  0  0  0
    4.1598   -1.7530    0.0000 N   0  0  0  0  0  0  0  0  0  0  0  0
    2.8731   -1.0660    0.0000 N   0  0  0  0  0  0  0  0  0  0  0  0
    3.9474   -0.2790    0.0000 S   0  0  0  0  0  0  0  0  0  0  0  0
    4.9884   -1.6906    0.0000 C   0  0  0  0  0  0  0  0  0  0  0  0
    6.6373   -1.5657    0.0000 S   0  0  0  0  0  0  0  0  0  0  0  0
    2.3484    2.1861    0.0000 S   0  0  0  0  0  0  0  0  0  0  0  0
    5.4506   -2.3734    0.0000 C   0  0  0  0  0  0  0  0  0  0  0  0
    3.2770    0.2082    0.0000 C   0  0  0  0  0  0  0  0  0  0  0  0
    2.6150   -0.2790    0.0000 C   0  0  0  0  0  0  0  0  0  0  0  0
    6.2751   -2.3152    0.0000 C   0  0  0  0  0  0  0  0  0  0  0  0
    2.4401    1.3616    0.0000 C   0  0  0  0  0  0  0  0  0  0  0  0
    3.1896    1.0243    0.0000 C   0  0  0  0  0  0  0  0  0  0  0  0
    2.7357   -2.4983    0.0000 C   0  0  0  0  0  0  0  0  0  0  0  0
    1.8613    0.0583    0.0000 C   0  0  0  0  0  0  0  0  0  0  0  0
    3.0772   -3.2521    0.0000 C   0  0  0  0  0  0  0  0  0  0  0  0
    7.3868   -1.9362    0.0000 O   0  0  0  0  0  0  0  0  0  0  0  0
    5.8961   -1.2034    0.0000 O   0  0  0  0  0  0  0  0  0  0  0  0
    1.5240    2.0986    0.0000 O   0  0  0  0  0  0  0  0  0  0  0  0
    2.2527    3.0188    0.0000 O   0  0  0  0  0  0  0  0  0  0  0  0
    5.3465   -0.9494    0.0000 O   0  0  0  0  0  0  0  0  0  0  0  0
    1.7738    0.8827    0.0000 C   0  0  0  0  0  0  0  0  0  0  0  0
    2.3901   -1.7405    0.0000 C   0  0  0  0  0  0  0  0  0  0  0  0
    7.0079   -0.8245    0.0000 C   0  0  0  0  0  0  0  0  0  0  0  0
    3.1646    2.2735    0.0000 C   0  0  0  0  0  0  0  0  0  0  0  0
    5.0883   -3.1146    0.0000 C   0  0  0  0  0  0  0  0  0  0  0  0
    6.7372   -2.9980    0.0000 C   0  0  0  0  0  0  0  0  0  0  0  0
    5.5505   -3.7975    0.0000 C   0  0  0  0  0  0  0  0  0  0  0  0
    6.3750   -3.7392    0.0000 C   0  0  0  0  0  0  0  0  0  0  0  0
  2  1  2  0  0  0  0
  3  1  1  0  0  0  0
  4  1  1  0  0  0  0
  5  2  1  0  0  0  0
  6 11  1  0  0  0  0
  7 12  1  0  0  0  0
  8  5  1  0  0  0  0
  9  4  1  0  0  0  0
 10  3  1  0  0  0  0
 10  9  2  0  0  0  0
 11  8  1  0  0  0  0
 12 13  2  0  0  0  0
 13  9  1  0  0  0  0
 14 23  1  0  0  0  0
 15 10  1  0  0  0  0
 16 14  3  0  0  0  0
 17  6  2  0  0  0  0
 18  6  2  0  0  0  0
 19  7  2  0  0  0  0
 20  7  2  0  0  0  0
 21  5  2  0  0  0  0
 22 15  2  0  0  0  0
 22 12  1  0  0  0  0
 23  3  1  0  0  0  0
 24  6  1  0  0  0  0
 25  7  1  0  0  0  0
 26  8  2  0  0  0  0
 27 11  2  0  0  0  0
 27 29  1  0  0  0  0
 28 26  1  0  0  0  0
 29 28  2  0  0  0  0
M  END
> <CdId>
2746

> <Mol Weight>
448.536

> <Formula>
C19H16N2O5S3

> <Click_ID>
CLK036_D04 __ __ 

$$$$
