CLK026_B03
 OpenBabel03181413202D

 22 24  0  0  0  0  0  0  0  0999 V2000
   -1.5331   -1.4850    0.0000 N   0  0  0  0  0  0  0  0  0  0  0  0
   -1.2856   -2.2722    0.0000 C   0  0  0  0  0  0  0  0  0  0  0  0
   -0.2063   -1.4850    0.0000 C   0  0  0  0  0  0  0  0  0  0  0  0
   -0.8731   -1.0072    0.0000 C   0  0  0  0  0  0  0  0  0  0  0  0
    0.7563   -0.4331    0.0000 C   0  0  0  0  0  0  0  0  0  0  0  0
   -0.4606   -2.2722    0.0000 N   0  0  0  0  0  0  0  0  0  0  0  0
    0.6256    0.9040    0.0000 N   0  0  0  0  0  0  0  0  0  0  0  0
    0.5810   -1.2340    0.0000 C   0  0  0  0  0  0  0  0  0  0  0  0
    0.2063    0.1891    0.0000 C   0  0  0  0  0  0  0  0  0  0  0  0
    1.5194   -0.0928    0.0000 C   0  0  0  0  0  0  0  0  0  0  0  0
    1.4300    0.7253    0.0000 C   0  0  0  0  0  0  0  0  0  0  0  0
    0.7906    2.3203    0.0000 C   0  0  0  0  0  0  0  0  0  0  0  0
    1.3200    2.9459    0.0000 C   0  0  0  0  0  0  0  0  0  0  0  0
   -1.7669   -2.9425    0.0000 O   0  0  0  0  0  0  0  0  0  0  0  0
   -0.8731   -0.1822    0.0000 O   0  0  0  0  0  0  0  0  0  0  0  0
    0.2956    1.6638    0.0000 C   0  0  0  0  0  0  0  0  0  0  0  0
   -2.3168   -1.2340    0.0000 C   0  0  0  0  0  0  0  0  0  0  0  0
    2.1072    1.2066    0.0000 C   0  0  0  0  0  0  0  0  0  0  0  0
    2.2688   -0.4434    0.0000 C   0  0  0  0  0  0  0  0  0  0  0  0
   -2.9322   -1.7841    0.0000 C   0  0  0  0  0  0  0  0  0  0  0  0
    2.9288    0.0516    0.0000 C   0  0  0  0  0  0  0  0  0  0  0  0
    2.8566    0.8697    0.0000 C   0  0  0  0  0  0  0  0  0  0  0  0
  2  1  1  0  0  0  0
  3  4  1  0  0  0  0
  4  1  1  0  0  0  0
  5  8  1  0  0  0  0
  6  2  1  0  0  0  0
  6  3  1  0  0  0  0
  7  9  1  0  0  0  0
  8  3  2  0  0  0  0
  9  5  2  0  0  0  0
 10  5  1  0  0  0  0
 11 10  1  0  0  0  0
 11  7  1  0  0  0  0
 12 16  1  0  0  0  0
 13 12  3  0  0  0  0
 14  2  2  0  0  0  0
 15  4  2  0  0  0  0
 16  7  1  0  0  0  0
 17  1  1  0  0  0  0
 18 11  2  0  0  0  0
 19 10  2  0  0  0  0
 20 17  1  0  0  0  0
 21 19  1  0  0  0  0
 22 21  2  0  0  0  0
 22 18  1  0  0  0  0
M  END
> <CdId>
1948

> <Mol Weight>
293.3199

> <Formula>
C17H15N3O2

> <Click_ID>
CLK026_B03 __ __ 

$$$$
