CLK033_B02
 OpenBabel03181413202D

 24 26  0  0  0  0  0  0  0  0999 V2000
   -4.5958    2.5583    0.0000 C   0  0  0  0  0  0  0  0  0  0  0  0
   -3.8625    2.9833    0.0000 N   0  0  0  0  0  0  0  0  0  0  0  0
   -4.6833    1.7333    0.0000 N   0  0  0  0  0  0  0  0  0  0  0  0
   -5.3208    2.8958    0.0000 S   0  0  0  0  0  0  0  0  0  0  0  0
   -5.4875    1.5833    0.0000 C   0  0  0  0  0  0  0  0  0  0  0  0
   -5.8958    2.3000    0.0000 C   0  0  0  0  0  0  0  0  0  0  0  0
   -3.8708    3.8000    0.0000 C   0  0  0  0  0  0  0  0  0  0  0  0
   -4.2583    0.3583    0.0000 C   0  0  0  0  0  0  0  0  0  0  0  0
   -4.4458   -0.4542    0.0000 C   0  0  0  0  0  0  0  0  0  0  0  0
   -3.1583    4.2125    0.0000 C   0  0  0  0  0  0  0  0  0  0  0  0
   -5.9208    0.8833    0.0000 C   0  0  0  0  0  0  0  0  0  0  0  0
   -4.5833    4.2167    0.0000 O   0  0  0  0  0  0  0  0  0  0  0  0
   -4.0708    1.1625    0.0000 C   0  0  0  0  0  0  0  0  0  0  0  0
   -3.1583    5.0292    0.0000 C   0  0  0  0  0  0  0  0  0  0  0  0
   -2.4375    3.8083    0.0000 C   0  0  0  0  0  0  0  0  0  0  0  0
   -6.7042    2.3208    0.0000 C   0  0  0  0  0  0  0  0  0  0  0  0
   -1.7250    4.2042    0.0000 C   0  0  0  0  0  0  0  0  0  0  0  0
   -2.4375    5.4500    0.0000 C   0  0  0  0  0  0  0  0  0  0  0  0
   -1.7208    5.0292    0.0000 C   0  0  0  0  0  0  0  0  0  0  0  0
   -5.5208    0.1458    0.0000 O   0  0  0  0  0  0  0  0  0  0  0  0
   -7.1417    1.6208    0.0000 C   0  0  0  0  0  0  0  0  0  0  0  0
   -6.7292    0.8875    0.0000 C   0  0  0  0  0  0  0  0  0  0  0  0
   -1.0083    5.4375    0.0000 C   0  0  0  0  0  0  0  0  0  0  0  0
   -5.9583   -0.5542    0.0000 C   0  0  0  0  0  0  0  0  0  0  0  0
  2  1  2  0  0  0  0
  3  1  1  0  0  0  0
  4  1  1  0  0  0  0
  5  3  1  0  0  0  0
  6  4  1  0  0  0  0
  6  5  2  0  0  0  0
  7  2  1  0  0  0  0
  8 13  1  0  0  0  0
  9  8  3  0  0  0  0
 10  7  1  0  0  0  0
 11  5  1  0  0  0  0
 12  7  2  0  0  0  0
 13  3  1  0  0  0  0
 14 10  1  0  0  0  0
 15 10  2  0  0  0  0
 16  6  1  0  0  0  0
 17 15  1  0  0  0  0
 18 14  2  0  0  0  0
 19 17  2  0  0  0  0
 19 18  1  0  0  0  0
 20 11  1  0  0  0  0
 21 16  2  0  0  0  0
 22 11  2  0  0  0  0
 22 21  1  0  0  0  0
 23 19  1  0  0  0  0
 24 20  1  0  0  0  0
M  END
> <CdId>
2496

> <Mol Weight>
336.408

> <Formula>
C19H16N2O2S

> <Click_ID>
CLK033_B02 __ __ 

$$$$
