CLK026_F09
 OpenBabel03181413202D

 28 31  0  0  0  0  0  0  0  0999 V2000
   -1.9839    1.8158    0.0000 N   0  0  0  0  0  0  0  0  0  0  0  0
   -2.7871    1.6338    0.0000 C   0  0  0  0  0  0  0  0  0  0  0  0
   -2.1109    0.4805    0.0000 C   0  0  0  0  0  0  0  0  0  0  0  0
   -1.5652    1.1053    0.0000 C   0  0  0  0  0  0  0  0  0  0  0  0
    0.1853   -0.5766    0.0000 N   0  0  0  0  0  0  0  0  0  0  0  0
   -1.1601   -0.5732    0.0000 C   0  0  0  0  0  0  0  0  0  0  0  0
   -2.8695    0.8169    0.0000 S   0  0  0  0  0  0  0  0  0  0  0  0
   -0.4874   -0.0927    0.0000 C   0  0  0  0  0  0  0  0  0  0  0  0
   -1.9462   -0.3227    0.0000 C   0  0  0  0  0  0  0  0  0  0  0  0
   -0.0789   -1.3627    0.0000 C   0  0  0  0  0  0  0  0  0  0  0  0
   -0.9130   -1.3627    0.0000 C   0  0  0  0  0  0  0  0  0  0  0  0
   -0.8272    2.6498    0.0000 C   0  0  0  0  0  0  0  0  0  0  0  0
    0.9576   -0.3295    0.0000 C   0  0  0  0  0  0  0  0  0  0  0  0
   -0.0138    2.7871    0.0000 C   0  0  0  0  0  0  0  0  0  0  0  0
   -3.3912    2.1898    0.0000 O   0  0  0  0  0  0  0  0  0  0  0  0
   -0.7414    1.0229    0.0000 O   0  0  0  0  0  0  0  0  0  0  0  0
   -1.6476    2.5537    0.0000 C   0  0  0  0  0  0  0  0  0  0  0  0
    1.5686   -0.8787    0.0000 C   0  0  0  0  0  0  0  0  0  0  0  0
    2.7871   -1.9942    0.0000 C   0  0  0  0  0  0  0  0  0  0  0  0
    1.3936   -1.6887    0.0000 C   0  0  0  0  0  0  0  0  0  0  0  0
    2.3512   -0.6247    0.0000 C   0  0  0  0  0  0  0  0  0  0  0  0
    2.0045   -2.2448    0.0000 C   0  0  0  0  0  0  0  0  0  0  0  0
    2.9485   -1.1842    0.0000 C   0  0  0  0  0  0  0  0  0  0  0  0
    0.3295   -2.0835    0.0000 C   0  0  0  0  0  0  0  0  0  0  0  0
   -1.3215   -2.0732    0.0000 C   0  0  0  0  0  0  0  0  0  0  0  0
    3.3878   -2.5469    0.0000 C   0  0  0  0  0  0  0  0  0  0  0  0
   -0.0755   -2.7802    0.0000 C   0  0  0  0  0  0  0  0  0  0  0  0
   -0.9130   -2.7837    0.0000 C   0  0  0  0  0  0  0  0  0  0  0  0
  2  1  1  0  0  0  0
  3  4  1  0  0  0  0
  4  1  1  0  0  0  0
  5  8  1  0  0  0  0
  6  9  1  0  0  0  0
  7  2  1  0  0  0  0
  7  3  1  0  0  0  0
  8  6  2  0  0  0  0
  9  3  2  0  0  0  0
 10 11  1  0  0  0  0
 10  5  1  0  0  0  0
 11  6  1  0  0  0  0
 12 17  1  0  0  0  0
 13  5  1  0  0  0  0
 14 12  3  0  0  0  0
 15  2  2  0  0  0  0
 16  4  2  0  0  0  0
 17  1  1  0  0  0  0
 18 13  1  0  0  0  0
 19 23  1  0  0  0  0
 19 22  2  0  0  0  0
 20 18  2  0  0  0  0
 21 18  1  0  0  0  0
 22 20  1  0  0  0  0
 23 21  2  0  0  0  0
 24 10  2  0  0  0  0
 25 11  2  0  0  0  0
 26 19  1  0  0  0  0
 27 28  2  0  0  0  0
 27 24  1  0  0  0  0
 28 25  1  0  0  0  0
M  END
> <CdId>
1994

> <Mol Weight>
386.466

> <Formula>
C23H18N2O2S

> <Click_ID>
CLK026_F09 __ __ 

$$$$
