CLK033_A04
 OpenBabel03181413202D

 32 34  0  0  0  0  0  0  0  0999 V2000
   -4.5756    2.5457    0.0000 C   0  0  0  0  0  0  0  0  0  0  0  0
   -0.9983    5.4325    0.0000 S   0  0  0  0  0  0  0  0  0  0  0  0
   -3.8643    2.9658    0.0000 N   0  0  0  0  0  0  0  0  0  0  0  0
   -4.6754    1.7304    0.0000 N   0  0  0  0  0  0  0  0  0  0  0  0
   -5.3118    2.8909    0.0000 S   0  0  0  0  0  0  0  0  0  0  0  0
   -5.4782    1.5723    0.0000 C   0  0  0  0  0  0  0  0  0  0  0  0
   -5.8858    2.2919    0.0000 C   0  0  0  0  0  0  0  0  0  0  0  0
   -3.8643    3.7936    0.0000 C   0  0  0  0  0  0  0  0  0  0  0  0
   -1.7179    5.0207    0.0000 C   0  0  0  0  0  0  0  0  0  0  0  0
   -0.2828    5.8443    0.0000 N   0  0  0  0  0  0  0  0  0  0  0  0
   -4.2428    0.3494    0.0000 C   0  0  0  0  0  0  0  0  0  0  0  0
   -0.5865    4.7212    0.0000 O   0  0  0  0  0  0  0  0  0  0  0  0
   -1.4101    6.1563    0.0000 O   0  0  0  0  0  0  0  0  0  0  0  0
   -4.4258   -0.4617    0.0000 C   0  0  0  0  0  0  0  0  0  0  0  0
   -3.1530    4.2054    0.0000 C   0  0  0  0  0  0  0  0  0  0  0  0
   -5.9025    0.8693    0.0000 C   0  0  0  0  0  0  0  0  0  0  0  0
   -4.5880    4.1971    0.0000 O   0  0  0  0  0  0  0  0  0  0  0  0
   -4.0556    1.1563    0.0000 C   0  0  0  0  0  0  0  0  0  0  0  0
   -1.7221    4.1971    0.0000 C   0  0  0  0  0  0  0  0  0  0  0  0
   -2.4334    5.4408    0.0000 C   0  0  0  0  0  0  0  0  0  0  0  0
   -2.4334    3.8019    0.0000 C   0  0  0  0  0  0  0  0  0  0  0  0
   -3.1447    5.0332    0.0000 C   0  0  0  0  0  0  0  0  0  0  0  0
   -6.6929    2.3086    0.0000 C   0  0  0  0  0  0  0  0  0  0  0  0
   -5.5115    0.1373    0.0000 O   0  0  0  0  0  0  0  0  0  0  0  0
   -7.1296    1.6056    0.0000 C   0  0  0  0  0  0  0  0  0  0  0  0
   -0.2828    6.6804    0.0000 C   0  0  0  0  0  0  0  0  0  0  0  0
    0.4285    5.4408    0.0000 C   0  0  0  0  0  0  0  0  0  0  0  0
   -6.7178    0.8818    0.0000 C   0  0  0  0  0  0  0  0  0  0  0  0
   -5.9358   -0.5657    0.0000 C   0  0  0  0  0  0  0  0  0  0  0  0
    1.1481    5.8443    0.0000 C   0  0  0  0  0  0  0  0  0  0  0  0
   -0.9941    7.0922    0.0000 C   0  0  0  0  0  0  0  0  0  0  0  0
   -5.5531   -1.2770    0.0000 C   0  0  0  0  0  0  0  0  0  0  0  0
  2  9  1  0  0  0  0
  3  1  2  0  0  0  0
  4  1  1  0  0  0  0
  5  1  1  0  0  0  0
  6  4  1  0  0  0  0
  7  5  1  0  0  0  0
  7  6  2  0  0  0  0
  8  3  1  0  0  0  0
  9 20  1  0  0  0  0
  9 19  2  0  0  0  0
 10  2  1  0  0  0  0
 11 18  1  0  0  0  0
 12  2  2  0  0  0  0
 13  2  2  0  0  0  0
 14 11  3  0  0  0  0
 15  8  1  0  0  0  0
 16  6  1  0  0  0  0
 17  8  2  0  0  0  0
 18  4  1  0  0  0  0
 19 21  1  0  0  0  0
 20 22  2  0  0  0  0
 21 15  2  0  0  0  0
 22 15  1  0  0  0  0
 23  7  1  0  0  0  0
 24 16  1  0  0  0  0
 25 23  2  0  0  0  0
 26 10  1  0  0  0  0
 27 10  1  0  0  0  0
 28 16  2  0  0  0  0
 28 25  1  0  0  0  0
 29 24  1  0  0  0  0
 30 27  1  0  0  0  0
 31 26  1  0  0  0  0
 32 29  1  0  0  0  0
M  END
> <CdId>
2488

> <Mol Weight>
471.592

> <Formula>
C23H25N3O4S2

> <Click_ID>
CLK033_A04 __ __ 

$$$$
