CLK027_A06
 OpenBabel03181413202D

 40 46  0  0  0  0  0  0  0  0999 V2000
   -0.2956    0.2131    0.0000 N   0  0  0  0  0  0  0  0  0  0  0  0
   -0.2956    1.0381    0.0000 C   0  0  0  0  0  0  0  0  0  0  0  0
   -1.7290    1.0312    0.0000 C   0  0  0  0  0  0  0  0  0  0  0  0
   -1.7222    0.2062    0.0000 C   0  0  0  0  0  0  0  0  0  0  0  0
   -1.0175    1.4506    0.0000 N   0  0  0  0  0  0  0  0  0  0  0  0
   -1.0072   -0.1959    0.0000 C   0  0  3  0  0  0  0  0  0  0  0  0
    0.4915   -0.0344    0.0000 C   0  0  0  0  0  0  0  0  0  0  0  0
    0.9728    0.6394    0.0000 C   0  0  0  0  0  0  0  0  0  0  0  0
    0.4915    1.2994    0.0000 S   0  0  0  0  0  0  0  0  0  0  0  0
    1.8012    0.6565    0.0000 C   0  0  0  0  0  0  0  0  0  0  0  0
    2.2000    1.3784    0.0000 C   0  0  0  0  0  0  0  0  0  0  0  0
   -2.4406    1.4369    0.0000 C   0  0  0  0  0  0  0  0  0  0  0  0
   -2.4337   -0.2097    0.0000 C   0  0  0  0  0  0  0  0  0  0  0  0
    1.7772    2.0900    0.0000 C   0  0  0  0  0  0  0  0  0  0  0  0
    3.4581   -0.7563    0.0000 C   0  0  0  0  0  0  0  0  0  0  0  0
   -0.9968   -1.0278    0.0000 C   0  0  0  0  0  0  0  0  0  0  0  0
    3.8740   -1.4712    0.0000 C   0  0  0  0  0  0  0  0  0  0  0  0
    3.0250    1.3887    0.0000 C   0  0  0  0  0  0  0  0  0  0  0  0
    0.7528   -0.8181    0.0000 O   0  0  0  0  0  0  0  0  0  0  0  0
   -3.1521    1.0244    0.0000 C   0  0  0  0  0  0  0  0  0  0  0  0
   -3.1521    0.2028    0.0000 C   0  0  0  0  0  0  0  0  0  0  0  0
    2.1828    2.8084    0.0000 C   0  0  0  0  0  0  0  0  0  0  0  0
    3.4237    2.1106    0.0000 C   0  0  0  0  0  0  0  0  0  0  0  0
    3.0078    2.8084    0.0000 C   0  0  0  0  0  0  0  0  0  0  0  0
   -0.2819   -1.4334    0.0000 C   0  0  0  0  0  0  0  0  0  0  0  0
   -1.7084   -1.4437    0.0000 C   0  0  0  0  0  0  0  0  0  0  0  0
   -0.9935   -2.6812    0.0000 C   0  0  0  0  0  0  0  0  0  0  0  0
   -0.2750   -2.2550    0.0000 C   0  0  0  0  0  0  0  0  0  0  0  0
   -1.7050   -2.2687    0.0000 C   0  0  0  0  0  0  0  0  0  0  0  0
   -0.9865   -3.5165    0.0000 F   0  0  0  0  0  0  0  0  0  0  0  0
    3.4443    0.6772    0.0000 O   0  0  0  0  0  0  0  0  0  0  0  0
    3.0387   -0.0447    0.0000 C   0  0  0  0  0  0  0  0  0  0  0  0
   -2.4440    2.2619    0.0000 C   0  0  0  0  0  0  0  0  0  0  0  0
    0.9625    2.0866    0.0000 C   0  0  0  0  0  0  0  0  0  0  0  0
   -3.8672    1.4369    0.0000 C   0  0  0  0  0  0  0  0  0  0  0  0
    1.7737    3.5165    0.0000 C   0  0  0  0  0  0  0  0  0  0  0  0
   -3.1659    2.6744    0.0000 C   0  0  0  0  0  0  0  0  0  0  0  0
    0.5397    2.7981    0.0000 C   0  0  0  0  0  0  0  0  0  0  0  0
   -3.8775    2.2619    0.0000 C   0  0  0  0  0  0  0  0  0  0  0  0
    0.9487    3.5097    0.0000 C   0  0  0  0  0  0  0  0  0  0  0  0
  2  1  1  0  0  0  0
  3  4  2  0  0  0  0
  3  5  1  0  0  0  0
  4  6  1  0  0  0  0
  5  2  2  0  0  0  0
  6  1  1  0  0  0  0
  7  1  1  0  0  0  0
  8  7  1  0  0  0  0
  8  9  1  0  0  0  0
  9  2  1  0  0  0  0
 10  8  2  0  0  0  0
 11 10  1  0  0  0  0
 12  3  1  0  0  0  0
 12 20  2  0  0  0  0
 13  4  1  0  0  0  0
 14 11  1  0  0  0  0
 15 32  1  0  0  0  0
 16  6  1  0  0  0  0
 17 15  3  0  0  0  0
 18 11  2  0  0  0  0
 19  7  2  0  0  0  0
 20 21  1  0  0  0  0
 21 13  1  0  0  0  0
 22 14  1  0  0  0  0
 23 18  1  0  0  0  0
 24 23  2  0  0  0  0
 24 22  1  0  0  0  0
 25 16  1  0  0  0  0
 26 16  2  0  0  0  0
 27 29  2  0  0  0  0
 27 28  1  0  0  0  0
 28 25  2  0  0  0  0
 29 26  1  0  0  0  0
 30 27  1  0  0  0  0
 31 18  1  0  0  0  0
 32 31  1  0  0  0  0
 33 12  1  0  0  0  0
 34 14  2  0  0  0  0
 35 20  1  0  0  0  0
 36 22  2  0  0  0  0
 37 33  2  0  0  0  0
 37 39  1  0  0  0  0
 38 34  1  0  0  0  0
 39 35  2  0  0  0  0
 40 38  2  0  0  0  0
 40 36  1  0  0  0  0
M  END
> <CdId>
2021

> <Mol Weight>
542.622

> <Formula>
C34H23FN2O2S

> <Click_ID>
CLK027_A06 __ __ 

$$$$
