CLK004_B07
 OpenBabel03181413202D

 26 27  0  0  0  0  0  0  0  0999 V2000
    2.2092    0.1933    0.0000 C   0  0  0  0  0  0  0  0  0  0  0  0
    1.7886   -0.5230    0.0000 C   0  0  0  0  0  0  0  0  0  0  0  0
    3.0353    0.1933    0.0000 C   0  0  0  0  0  0  0  0  0  0  0  0
    1.7962    0.9095    0.0000 N   0  3  0  0  0  0  0  0  0  0  0  0
    0.9625   -0.5230    0.0000 C   0  0  0  0  0  0  0  0  0  0  0  0
    2.2092   -1.2353    0.0000 N   0  0  0  0  0  0  0  0  0  0  0  0
    3.4483   -0.5230    0.0000 N   0  0  0  0  0  0  0  0  0  0  0  0
    3.4370    0.9095    0.0000 O   0  0  0  0  0  0  0  0  0  0  0  0
    0.9739    0.9095    0.0000 O   0  0  0  0  0  0  0  0  0  0  0  0
    2.2092    1.6256    0.0000 O   0  5  0  0  0  0  0  0  0  0  0  0
    0.5532    0.1933    0.0000 C   0  0  0  0  0  0  0  0  0  0  0  0
    3.0353   -1.2353    0.0000 C   0  0  0  0  0  0  0  0  0  0  0  0
   -0.2729    0.1933    0.0000 C   0  0  0  0  0  0  0  0  0  0  0  0
    3.4370   -1.9516    0.0000 O   0  0  0  0  0  0  0  0  0  0  0  0
   -0.6858   -0.5230    0.0000 C   0  0  0  0  0  0  0  0  0  0  0  0
   -0.6858    0.9056    0.0000 C   0  0  0  0  0  0  0  0  0  0  0  0
   -1.5082   -0.5230    0.0000 C   0  0  0  0  0  0  0  0  0  0  0  0
   -1.5082    0.9056    0.0000 C   0  0  0  0  0  0  0  0  0  0  0  0
   -1.9213    0.1933    0.0000 C   0  0  0  0  0  0  0  0  0  0  0  0
   -1.9213   -1.2353    0.0000 O   0  0  0  0  0  0  0  0  0  0  0  0
   -2.7436    0.1933    0.0000 O   0  0  0  0  0  0  0  0  0  0  0  0
   -2.7436   -1.2353    0.0000 C   0  0  0  0  0  0  0  0  0  0  0  0
   -3.1566    0.9056    0.0000 C   0  0  0  0  0  0  0  0  0  0  0  0
   -3.1566   -0.5230    0.0000 C   0  0  0  0  0  0  0  0  0  0  0  0
   -3.9826    0.9056    0.0000 C   0  0  0  0  0  0  0  0  0  0  0  0
   -4.8049    0.9056    0.0000 C   0  0  0  0  0  0  0  0  0  0  0  0
  1  2  1  0  0  0  0
  1  3  2  0  0  0  0
  1  4  1  0  0  0  0
  2  5  1  0  0  0  0
  2  6  2  0  0  0  0
  3  7  1  0  0  0  0
  3  8  1  0  0  0  0
  4  9  2  0  0  0  0
  4 10  1  0  0  0  0
  5 11  2  0  0  0  0
  6 12  1  0  0  0  0
  7 12  2  0  0  0  0
 11 13  1  0  0  0  0
 12 14  1  0  0  0  0
 13 15  2  0  0  0  0
 13 16  1  0  0  0  0
 15 17  1  0  0  0  0
 16 18  2  0  0  0  0
 17 19  2  0  0  0  0
 17 20  1  0  0  0  0
 18 19  1  0  0  0  0
 19 21  1  0  0  0  0
 20 22  1  0  0  0  0
 21 23  1  0  0  0  0
 22 24  1  0  0  0  0
 23 25  1  0  0  0  0
 25 26  3  0  0  0  0
M  END
> <CdId>
256

> <Mol Weight>
357.3175

> <Formula>
C17H15N3O6

> <Click_ID>
CLK004_B07 __ __ 

$$$$
