CLK051G05
 OpenBabel03181413202D

 18 18  0  0  0  0  0  0  0  0999 V2000
    0.2750   -1.3958    0.0000 C   0  0  0  0  0  0  0  0  0  0  0  0
    0.2750   -0.5708    0.0000 N   0  0  0  0  0  0  0  0  0  0  0  0
    1.7042   -3.0458    0.0000 C   0  0  0  0  0  0  0  0  0  0  0  0
    2.4208   -3.4583    0.0000 C   0  0  0  0  0  0  0  0  0  0  0  0
   -0.4375   -0.1583    0.0000 C   0  0  3  0  0  0  0  0  0  0  0  0
   -0.4375    0.6667    0.0000 C   0  0  0  0  0  0  0  0  0  0  0  0
   -0.4375   -1.8083    0.0000 O   0  0  0  0  0  0  0  0  0  0  0  0
    0.9917   -1.8083    0.0000 N   0  0  0  0  0  0  0  0  0  0  0  0
    0.2750    1.0792    0.0000 C   0  0  0  0  0  0  0  0  0  0  0  0
   -1.1542    1.0792    0.0000 C   0  0  0  0  0  0  0  0  0  0  0  0
   -0.4375    2.3167    0.0000 C   0  0  0  0  0  0  0  0  0  0  0  0
   -1.1542    1.9042    0.0000 C   0  0  0  0  0  0  0  0  0  0  0  0
    0.2750    1.9042    0.0000 C   0  0  0  0  0  0  0  0  0  0  0  0
    0.9917   -2.6333    0.0000 C   0  0  0  0  0  0  0  0  0  0  0  0
   -0.4375    3.1417    0.0000 O   0  0  0  0  0  0  0  0  0  0  0  0
   -1.1542   -0.5708    0.0000 C   0  0  0  0  0  0  0  0  0  0  0  0
    0.2750    3.5542    0.0000 C   0  0  0  0  0  0  0  0  0  0  0  0
   -1.8667   -0.1583    0.0000 C   0  0  0  0  0  0  0  0  0  0  0  0
  2  1  1  0  0  0  0
  3 14  1  0  0  0  0
  4  3  3  0  0  0  0
  5  2  1  0  0  0  0
  6  5  1  0  0  0  0
  7  1  2  0  0  0  0
  8  1  1  0  0  0  0
  9  6  1  0  0  0  0
 10  6  2  0  0  0  0
 11 12  2  0  0  0  0
 11 13  1  0  0  0  0
 12 10  1  0  0  0  0
 13  9  2  0  0  0  0
 14  8  1  0  0  0  0
 15 11  1  0  0  0  0
 16  5  1  0  0  0  0
 17 15  1  0  0  0  0
 18 16  1  0  0  0  0
M  END
> <CdId>
3919

> <Mol Weight>
246.3049

> <Formula>
C14H18N2O2

> <Click_ID>
CLK051G05 __ __ 

$$$$
