CLK041E11
 OpenBabel03181413202D

 23 24  0  0  0  0  0  0  0  0999 V2000
    2.0083    0.8125    0.0000 C    0  0  0  0  0  0  0  0  0  0  0  0
    1.2958    0.4000    0.0000 C    0  0  0  0  0  0  0  0  0  0  0  0
    2.7625    0.4792    0.0000 N    0  0  0  0  0  0  0  0  0  0  0  0
    2.0958    1.6333    0.0000 S    0  0  0  0  0  0  0  0  0  0  0  0
    0.5792    0.8125    0.0000 C    0  0  0  0  0  0  0  0  0  0  0  0
   -1.5625   -0.4250    0.0000 C    0  0  0  0  0  0  0  0  0  0  0  0
    1.2958   -0.4250    0.0000 C    0  0  0  0  0  0  0  0  0  0  0  0
   -1.5625    0.4000    0.0000 C    0  0  0  0  0  0  0  0  0  0  0  0
   -0.8458   -0.8375    0.0000 C    0  0  0  0  0  0  0  0  0  0  0  0
   -0.1333    0.4000    0.0000 C    0  0  0  0  0  0  0  0  0  0  0  0
    3.3167    1.0917    0.0000 C    0  0  0  0  0  0  0  0  0  0  0  0
    1.2958   -1.2500    0.0000 N    0  0  0  0  0  0  0  0  0  0  0  0
    2.9042    1.8042    0.0000 C    0  0  0  0  0  0  0  0  0  0  0  0
   -3.7042   -0.8375    0.0000 C    0  0  0  0  0  0  0  0  0  0  0  0
   -4.4208   -1.2500    0.0000 C    0  0  0  0  0  0  0  0  0  0  0  0
   -0.8458    0.8125    0.0000 C    0  0  0  0  0  0  0  0  0  0  0  0
   -0.1333   -0.4250    0.0000 C    0  0  0  0  0  0  0  0  0  0  0  0
   -2.2750    0.8125    0.0000 Cl   0  0  0  0  0  0  0  0  0  0  0  0
   -2.2750   -0.8375    0.0000 O    0  0  0  0  0  0  0  0  0  0  0  0
   -0.8458   -1.6625    0.0000 O    0  0  0  0  0  0  0  0  0  0  0  0
   -2.9917   -0.4250    0.0000 C    0  0  0  0  0  0  0  0  0  0  0  0
    4.1375    1.0042    0.0000 C    0  0  0  0  0  0  0  0  0  0  0  0
   -0.1333   -2.0750    0.0000 C    0  0  0  0  0  0  0  0  0  0  0  0
  2  1  1  0  0  0  0
  3  1  2  0  0  0  0
  4  1  1  0  0  0  0
  5  2  2  0  0  0  0
  6  8  1  0  0  0  0
  6  9  2  0  0  0  0
  7  2  1  0  0  0  0
  8 16  2  0  0  0  0
  9 17  1  0  0  0  0
 10  5  1  0  0  0  0
 11  3  1  0  0  0  0
 12  7  3  0  0  0  0
 13  4  1  0  0  0  0
 13 11  2  0  0  0  0
 14 21  1  0  0  0  0
 15 14  3  0  0  0  0
 16 10  1  0  0  0  0
 17 10  2  0  0  0  0
 18  8  1  0  0  0  0
 19  6  1  0  0  0  0
 20  9  1  0  0  0  0
 21 19  1  0  0  0  0
 22 11  1  0  0  0  0
 23 20  1  0  0  0  0
M  END
> <CdId>
3165

> <Mol Weight>
344.815

> <Formula>
C17H13ClN2O2S

> <Click_ID>
CLK041E11 __ __ 

$$$$
