CLK001_C07
 OpenBabel03181413202D

 29 32  0  0  0  0  0  0  0  0999 V2000
    1.2616   -0.6004    0.0000 C   0  0  0  0  0  0  0  0  0  0  0  0
    1.2616   -1.3794    0.0000 C   0  0  0  0  0  0  0  0  0  0  0  0
    2.6107   -0.6004    0.0000 N   0  0  0  0  0  0  0  0  0  0  0  0
    0.7106   -0.0570    0.0000 N   0  0  0  0  0  0  0  0  0  0  0  0
    0.5434   -1.7898    0.0000 C   0  0  0  0  0  0  0  0  0  0  0  0
    1.9304   -1.7746    0.0000 N   0  0  0  0  0  0  0  0  0  0  0  0
    2.6107   -1.3794    0.0000 C   0  0  0  0  0  0  0  0  0  0  0  0
    3.2719   -0.2091    0.0000 C   0  0  0  0  0  0  0  0  0  0  0  0
   -0.0342   -0.2584    0.0000 C   0  0  0  0  0  0  0  0  0  0  0  0
   -0.2128   -1.4478    0.0000 C   0  0  0  0  0  0  0  0  0  0  0  0
    0.4560   -2.6145    0.0000 O   0  0  0  0  0  0  0  0  0  0  0  0
    3.2719   -1.7632    0.0000 C   0  0  0  0  0  0  0  0  0  0  0  0
    3.9445   -0.6004    0.0000 C   0  0  0  0  0  0  0  0  0  0  0  0
   -0.6195    0.3306    0.0000 C   0  0  0  0  0  0  0  0  0  0  0  0
   -0.7638   -2.0673    0.0000 C   0  0  0  0  0  0  0  0  0  0  0  0
   -0.3534   -2.7816    0.0000 C   0  0  0  0  0  0  0  0  0  0  0  0
    3.9445   -1.3794    0.0000 C   0  0  0  0  0  0  0  0  0  0  0  0
   -1.4250    0.1139    0.0000 C   0  0  0  0  0  0  0  0  0  0  0  0
   -0.4066    1.1286    0.0000 C   0  0  0  0  0  0  0  0  0  0  0  0
   -2.0102    0.7030    0.0000 C   0  0  0  0  0  0  0  0  0  0  0  0
   -0.9994    1.7215    0.0000 C   0  0  0  0  0  0  0  0  0  0  0  0
   -1.7898    1.5011    0.0000 C   0  0  0  0  0  0  0  0  0  0  0  0
   -2.8044    0.4940    0.0000 O   0  0  0  0  0  0  0  0  0  0  0  0
   -0.7790    2.5119    0.0000 I   0  0  0  0  0  0  0  0  0  0  0  0
   -2.3751    2.0939    0.0000 O   0  0  0  0  0  0  0  0  0  0  0  0
   -3.0249   -0.3041    0.0000 C   0  0  0  0  0  0  0  0  0  0  0  0
   -2.1547    2.8842    0.0000 C   0  0  0  0  0  0  0  0  0  0  0  0
   -2.7361    3.4695    0.0000 C   0  0  0  0  0  0  0  0  0  0  0  0
   -3.3174    4.0547    0.0000 C   0  0  0  0  0  0  0  0  0  0  0  0
  1  2  2  0  0  0  0
  1  3  1  0  0  0  0
  1  4  1  0  0  0  0
  2  5  1  0  0  0  0
  2  6  1  0  0  0  0
  3  7  1  0  0  0  0
  3  8  1  0  0  0  0
  4  9  2  0  0  0  0
  5 10  2  0  0  0  0
  5 11  1  0  0  0  0
  6  7  2  0  0  0  0
  7 12  1  0  0  0  0
  8 13  2  0  0  0  0
  9 14  1  0  0  0  0
 10 15  1  0  0  0  0
 11 16  1  0  0  0  0
 12 17  2  0  0  0  0
 13 17  1  0  0  0  0
 14 18  1  0  0  0  0
 14 19  2  0  0  0  0
 15 16  2  0  0  0  0
 18 20  2  0  0  0  0
 19 21  1  0  0  0  0
 20 22  1  0  0  0  0
 20 23  1  0  0  0  0
 21 24  1  0  0  0  0
 21 22  2  0  0  0  0
 22 25  1  0  0  0  0
 23 26  1  0  0  0  0
 25 27  1  0  0  0  0
 27 28  1  0  0  0  0
 28 29  3  0  0  0  0
M  END
> <CdId>
26

> <Mol Weight>
497.2852

> <Formula>
C22H16IN3O3

> <Click_ID>
CLK001_C07 __ __ 

$$$$
