CLK006_H11
 OpenBabel03181413202D

 35 39  0  0  0  0  0  0  0  0999 V2000
    0.0000    0.6340    0.0000 C   0  0  3  0  0  0  0  0  0  0  0  0
   -0.7098    0.2136    0.0000 C   0  0  0  0  0  0  0  0  0  0  0  0
    0.7925    0.8442    0.0000 C   0  0  0  0  0  0  0  0  0  0  0  0
    0.7133    0.2136    0.0000 C   0  0  0  0  0  0  0  0  0  0  0  0
   -0.4480    1.3197    0.0000 C   0  0  0  0  0  0  0  0  0  0  0  0
   -0.7202   -0.6133    0.0000 C   0  0  0  0  0  0  0  0  0  0  0  0
   -1.4230    0.6340    0.0000 C   0  0  0  0  0  0  0  0  0  0  0  0
    0.8373    1.6711    0.0000 C   0  0  0  0  0  0  0  0  0  0  0  0
    1.4886    0.3997    0.0000 C   0  0  0  0  0  0  0  0  0  0  0  0
    0.7133   -0.6133    0.0000 C   0  0  0  0  0  0  0  0  0  0  0  0
    1.4265   -0.1998    0.0000 C   0  0  0  0  0  0  0  0  0  0  0  0
    0.0655    1.9606    0.0000 N   0  0  0  0  0  0  0  0  0  0  0  0
   -1.0337    1.9055    0.0000 O   0  0  0  0  0  0  0  0  0  0  0  0
   -0.0069   -1.0233    0.0000 N   0  0  0  0  0  0  0  0  0  0  0  0
   -1.4230   -1.0164    0.0000 C   0  0  0  0  0  0  0  0  0  0  0  0
   -2.1329    0.2136    0.0000 C   0  0  0  0  0  0  0  0  0  0  0  0
   -2.0088    1.2198    0.0000 O   0  0  0  0  0  0  0  0  0  0  0  0
    1.5678    2.0501    0.0000 C   0  0  0  0  0  0  0  0  0  0  0  0
    2.2259    0.7753    0.0000 C   0  0  0  0  0  0  0  0  0  0  0  0
    1.4161   -1.0268    0.0000 N   0  0  0  0  0  0  0  0  0  0  0  0
    2.1363   -0.6133    0.0000 N   0  0  0  0  0  0  0  0  0  0  0  0
   -0.1482    2.7600    0.0000 C   0  0  0  0  0  0  0  0  0  0  0  0
   -0.0103   -1.8400    0.0000 C   0  0  0  0  0  0  0  0  0  0  0  0
   -2.1329   -0.6133    0.0000 C   0  0  0  0  0  0  0  0  0  0  0  0
    2.2638    1.5988    0.0000 C   0  0  0  0  0  0  0  0  0  0  0  0
    0.4307    3.3423    0.0000 C   0  0  0  0  0  0  0  0  0  0  0  0
    0.6995   -2.2604    0.0000 C   0  0  0  0  0  0  0  0  0  0  0  0
   -0.7304   -2.2466    0.0000 C   0  0  0  0  0  0  0  0  0  0  0  0
   -2.9323   -0.3928    0.0000 C   0  0  0  0  0  0  0  0  0  0  0  0
   -2.5464   -1.3231    0.0000 C   0  0  0  0  0  0  0  0  0  0  0  0
    0.2170    4.1417    0.0000 C   0  0  0  0  0  0  0  0  0  0  0  0
    0.6926   -3.0770    0.0000 C   0  0  0  0  0  0  0  0  0  0  0  0
    1.4920   -2.4740    0.0000 F   0  0  0  0  0  0  0  0  0  0  0  0
   -0.7339   -3.0736    0.0000 C   0  0  0  0  0  0  0  0  0  0  0  0
   -0.0241   -3.4905    0.0000 C   0  0  0  0  0  0  0  0  0  0  0  0
  1  2  1  0  0  0  0
  1  3  1  0  0  0  0
  1  4  1  0  0  0  0
  1  5  1  0  0  0  0
  2  6  2  0  0  0  0
  2  7  1  0  0  0  0
  3  8  2  0  0  0  0
  3  9  1  0  0  0  0
  4 10  2  0  0  0  0
  4 11  1  0  0  0  0
  5 12  1  0  0  0  0
  5 13  2  0  0  0  0
  6 14  1  0  0  0  0
  6 15  1  0  0  0  0
  7 16  1  0  0  0  0
  7 17  2  0  0  0  0
  8 18  1  0  0  0  0
  8 12  1  0  0  0  0
  9 19  2  0  0  0  0
 10 20  1  0  0  0  0
 10 14  1  0  0  0  0
 11 21  3  0  0  0  0
 12 22  1  0  0  0  0
 14 23  1  0  0  0  0
 15 24  1  0  0  0  0
 16 24  1  0  0  0  0
 18 25  2  0  0  0  0
 19 25  1  0  0  0  0
 22 26  1  0  0  0  0
 23 27  1  0  0  0  0
 23 28  2  0  0  0  0
 24 29  1  0  0  0  0
 24 30  1  0  0  0  0
 26 31  3  0  0  0  0
 27 32  2  0  0  0  0
 27 33  1  0  0  0  0
 28 34  1  0  0  0  0
 32 35  1  0  0  0  0
 34 35  2  0  0  0  0
M  END
> <CdId>
480

> <Mol Weight>
466.5062

> <Formula>
C28H23FN4O2

> <Click_ID>
CLK006_H11 __ __ 

$$$$
