CLK025_C08
 OpenBabel03181413202D

 24 25  0  0  0  0  0  0  0  0999 V2000
    2.5171    0.4551    0.0000 N   0  0  0  0  0  0  0  0  0  0  0  0
    2.1791   -0.2931    0.0000 C   0  0  0  0  0  0  0  0  0  0  0  0
    1.9068    1.0206    0.0000 C   0  0  0  0  0  0  0  0  0  0  0  0
    1.1896    0.6138    0.0000 C   0  0  0  0  0  0  0  0  0  0  0  0
    1.3551   -0.2000    0.0000 S   0  0  0  0  0  0  0  0  0  0  0  0
    2.5929   -1.0102    0.0000 N   0  0  0  0  0  0  0  0  0  0  0  0
    0.4758    1.0275    0.0000 C   0  0  0  0  0  0  0  0  0  0  0  0
    3.4204   -1.0206    0.0000 C   0  0  0  0  0  0  0  0  0  0  0  0
   -3.1239   -1.8688    0.0000 C   0  0  0  0  0  0  0  0  0  0  0  0
   -3.8342   -2.2757    0.0000 C   0  0  0  0  0  0  0  0  0  0  0  0
   -1.6757    0.6138    0.0000 C   0  0  0  0  0  0  0  0  0  0  0  0
   -0.2448    0.6138    0.0000 C   0  0  0  0  0  0  0  0  0  0  0  0
    1.9999    1.8447    0.0000 O   0  0  0  0  0  0  0  0  0  0  0  0
   -0.9620    1.0275    0.0000 C   0  0  0  0  0  0  0  0  0  0  0  0
   -1.6757   -0.2104    0.0000 C   0  0  0  0  0  0  0  0  0  0  0  0
    3.8308   -0.3000    0.0000 O   0  0  0  0  0  0  0  0  0  0  0  0
   -0.9620   -0.6241    0.0000 C   0  0  0  0  0  0  0  0  0  0  0  0
   -0.2448   -0.2104    0.0000 C   0  0  0  0  0  0  0  0  0  0  0  0
   -2.3963    1.0309    0.0000 O   0  0  0  0  0  0  0  0  0  0  0  0
   -2.3963   -0.6379    0.0000 O   0  0  0  0  0  0  0  0  0  0  0  0
   -2.3998   -1.4620    0.0000 C   0  0  0  0  0  0  0  0  0  0  0  0
    3.8308   -1.7343    0.0000 C   0  0  0  0  0  0  0  0  0  0  0  0
   -2.3963    1.8585    0.0000 C   0  0  0  0  0  0  0  0  0  0  0  0
   -3.1136    2.2792    0.0000 C   0  0  0  0  0  0  0  0  0  0  0  0
  2  1  2  0  0  0  0
  3  1  1  0  0  0  0
  4  3  1  0  0  0  0
  5  2  1  0  0  0  0
  5  4  1  0  0  0  0
  6  2  1  0  0  0  0
  7  4  2  0  0  0  0
  8  6  1  0  0  0  0
  9 21  1  0  0  0  0
 10  9  3  0  0  0  0
 11 14  2  0  0  0  0
 12  7  1  0  0  0  0
 13  3  2  0  0  0  0
 14 12  1  0  0  0  0
 15 17  2  0  0  0  0
 15 11  1  0  0  0  0
 16  8  2  0  0  0  0
 17 18  1  0  0  0  0
 18 12  2  0  0  0  0
 19 11  1  0  0  0  0
 20 15  1  0  0  0  0
 21 20  1  0  0  0  0
 22  8  1  0  0  0  0
 23 19  1  0  0  0  0
 24 23  1  0  0  0  0
M  END
> <CdId>
1883

> <Mol Weight>
344.385

> <Formula>
C17H16N2O4S

> <Click_ID>
CLK025_C08 __ __ 

$$$$
