CLK044C06
 OpenBabel03181413202D

 30 33  0  0  0  0  0  0  0  0999 V2000
    0.2751    1.0255    0.0000 N    0  0  0  0  0  0  0  0  0  0  0  0
   -0.9922    0.6128    0.0000 N    0  0  0  0  0  0  0  0  0  0  0  0
   -0.5085   -0.0542    0.0000 C    0  0  0  0  0  0  0  0  0  0  0  0
   -0.5085    1.2798    0.0000 C    0  0  0  0  0  0  0  0  0  0  0  0
    0.2751    0.2001    0.0000 N    0  0  0  0  0  0  0  0  0  0  0  0
   -0.7629   -0.8379    0.0000 C    0  0  0  0  0  0  0  0  0  0  0  0
    0.9422    1.5090    0.0000 C    0  0  0  0  0  0  0  0  0  0  0  0
   -1.5716   -1.0130    0.0000 C    0  0  0  0  0  0  0  0  0  0  0  0
    1.6966    1.1756    0.0000 N    0  0  0  0  0  0  0  0  0  0  0  0
   -0.7629    2.0677    0.0000 S    0  0  0  0  0  0  0  0  0  0  0  0
   -0.2126   -1.4549    0.0000 C    0  0  0  0  0  0  0  0  0  0  0  0
   -1.8176    0.6128    0.0000 C    0  0  0  0  0  0  0  0  0  0  0  0
    4.0477   -0.6545    0.0000 C    0  0  0  0  0  0  0  0  0  0  0  0
    3.2057    0.5044    0.0000 N    0  0  0  0  0  0  0  0  0  0  0  0
    4.1312   -1.4715    0.0000 C    0  0  0  0  0  0  0  0  0  0  0  0
   -1.8259   -1.7967    0.0000 C    0  0  0  0  0  0  0  0  0  0  0  0
   -1.2756   -2.4095    0.0000 C    0  0  0  0  0  0  0  0  0  0  0  0
   -2.1218   -0.3960    0.0000 Cl   0  0  0  0  0  0  0  0  0  0  0  0
    2.3678    1.6591    0.0000 C    0  0  0  0  0  0  0  0  0  0  0  0
    1.7842    0.3544    0.0000 C    0  0  0  0  0  0  0  0  0  0  0  0
    2.5387    0.0208    0.0000 C    0  0  0  0  0  0  0  0  0  0  0  0
    3.1182    1.3256    0.0000 C    0  0  0  0  0  0  0  0  0  0  0  0
    3.9602    0.1668    0.0000 C    0  0  0  0  0  0  0  0  0  0  0  0
   -0.4669   -2.2386    0.0000 C    0  0  0  0  0  0  0  0  0  0  0  0
   -1.5299   -3.1932    0.0000 Cl   0  0  0  0  0  0  0  0  0  0  0  0
   -2.2303   -0.1000    0.0000 C    0  0  0  0  0  0  0  0  0  0  0  0
   -2.2303    1.3298    0.0000 C    0  0  0  0  0  0  0  0  0  0  0  0
   -3.0557    1.3298    0.0000 C    0  0  0  0  0  0  0  0  0  0  0  0
   -3.0557   -0.1000    0.0000 C    0  0  0  0  0  0  0  0  0  0  0  0
   -3.4684    0.6128    0.0000 C    0  0  0  0  0  0  0  0  0  0  0  0
  2  4  1  0  0  0  0
  2  3  1  0  0  0  0
  3  5  2  0  0  0  0
  4  1  1  0  0  0  0
  5  1  1  0  0  0  0
  6  3  1  0  0  0  0
  7  1  1  0  0  0  0
  8  6  2  0  0  0  0
  9  7  1  0  0  0  0
 10  4  2  0  0  0  0
 11  6  1  0  0  0  0
 12  2  1  0  0  0  0
 13 23  1  0  0  0  0
 14 22  1  0  0  0  0
 14 21  1  0  0  0  0
 15 13  3  0  0  0  0
 16  8  1  0  0  0  0
 17 16  2  0  0  0  0
 18  8  1  0  0  0  0
 19  9  1  0  0  0  0
 20  9  1  0  0  0  0
 21 20  1  0  0  0  0
 22 19  1  0  0  0  0
 23 14  1  0  0  0  0
 24 11  2  0  0  0  0
 24 17  1  0  0  0  0
 25 17  1  0  0  0  0
 26 12  2  0  0  0  0
 27 12  1  0  0  0  0
 28 27  2  0  0  0  0
 29 26  1  0  0  0  0
 30 29  2  0  0  0  0
 30 28  1  0  0  0  0
M  END
> <CdId>
3363

> <Mol Weight>
458.407

> <Formula>
C22H21Cl2N5S

> <Click_ID>
CLK044C06 __ __ 

$$$$
