CLK020_A02
 OpenBabel03181413202D

 23 23  0  0  0  0  0  0  0  0999 V2000
    4.8236    5.4741    0.0000 Cl   0  0  0  0  0  0  0  0  0  0  0  0
    1.4155    4.6724    0.0000 C    0  0  0  0  0  0  0  0  0  0  0  0
    0.7009    5.0847    0.0000 C    0  0  0  0  0  0  0  0  0  0  0  0
    2.8447    2.2079    0.0000 C    0  0  0  0  0  0  0  0  0  0  0  0
    2.8447    3.0324    0.0000 C    0  0  0  0  0  0  0  0  0  0  0  0
    3.5593    1.7956    0.0000 C    0  0  0  0  0  0  0  0  0  0  0  0
    3.5593    3.4447    0.0000 C    0  0  0  0  0  0  0  0  0  0  0  0
    5.6940    2.2079    0.0000 N    0  0  0  0  0  0  0  0  0  0  0  0
    4.2739    2.2079    0.0000 C    0  0  0  0  0  0  0  0  0  0  0  0
    4.2739    3.0324    0.0000 C    0  0  0  0  0  0  0  0  0  0  0  0
    2.1301    1.7956    0.0000 O    0  0  0  0  0  0  0  0  0  0  0  0
    2.1301    3.4447    0.0000 O    0  0  0  0  0  0  0  0  0  0  0  0
    2.1301    4.2693    0.0000 C    0  0  0  0  0  0  0  0  0  0  0  0
    7.1232    2.2079    0.0000 C    0  0  0  0  0  0  0  0  0  0  0  0
    4.9885    1.7956    0.0000 C    0  0  0  0  0  0  0  0  0  0  0  0
    6.4086    1.7956    0.0000 C    0  0  0  0  0  0  0  0  0  0  0  0
    2.1301    0.9711    0.0000 C    0  0  0  0  0  0  0  0  0  0  0  0
    7.8378    1.7956    0.0000 C    0  0  0  0  0  0  0  0  0  0  0  0
    7.1232    3.0324    0.0000 C    0  0  0  0  0  0  0  0  0  0  0  0
    1.4155    0.5588    0.0000 C    0  0  0  0  0  0  0  0  0  0  0  0
    7.8378    3.4447    0.0000 C    0  0  0  0  0  0  0  0  0  0  0  0
    8.5524    2.2079    0.0000 C    0  0  0  0  0  0  0  0  0  0  0  0
    8.5524    3.0324    0.0000 C    0  0  0  0  0  0  0  0  0  0  0  0
  3  2  3  0  0  0  0
  4  5  2  0  0  0  0
  5 12  1  0  0  0  0
  6  4  1  0  0  0  0
  6  9  2  0  0  0  0
  7  5  1  0  0  0  0
  8 15  1  0  0  0  0
  9 10  1  0  0  0  0
 10  7  2  0  0  0  0
 11  4  1  0  0  0  0
 12 13  1  0  0  0  0
 13  2  1  0  0  0  0
 14 16  1  0  0  0  0
 15  9  1  0  0  0  0
 16  8  1  0  0  0  0
 17 11  1  0  0  0  0
 18 14  2  0  0  0  0
 19 14  1  0  0  0  0
 20 17  1  0  0  0  0
 21 19  2  0  0  0  0
 22 18  1  0  0  0  0
 23 22  2  0  0  0  0
 23 21  1  0  0  0  0
M  END
> <CdId>
1477

> <Mol Weight>
331.836

> <Formula>
C19H22ClNO2

> <Click_ID>
CLK020_A02 __ __ 

$$$$
