CLK010_D05
 OpenBabel03181413202D

 38 42  0  0  0  0  0  0  0  0999 V2000
   -0.6563   -0.6399    0.0000 N   0  0  0  0  0  0  0  0  0  0  0  0
   -1.1321    0.0437    0.0000 C   0  0  0  0  0  0  0  0  0  0  0  0
   -1.1321   -1.2853    0.0000 C   0  0  0  0  0  0  0  0  0  0  0  0
   -1.9197   -0.2024    0.0000 C   0  0  0  0  0  0  0  0  0  0  0  0
   -1.9197   -1.0337    0.0000 C   0  0  0  0  0  0  0  0  0  0  0  0
   -5.9888   -1.9908    0.0000 N   0  3  0  0  0  0  0  0  0  0  0  0
    0.1313   -0.8915    0.0000 C   0  0  0  0  0  0  0  0  0  0  0  0
    2.0729   -0.0055    0.0000 C   0  0  0  0  0  0  0  0  0  0  0  0
   -5.8520   -1.1376    0.0000 C   0  0  0  0  0  0  0  0  0  0  0  0
    2.8713   -0.2352    0.0000 N   0  0  0  0  0  0  0  0  0  0  0  0
    0.7219   -0.3282    0.0000 C   0  0  0  0  0  0  0  0  0  0  0  0
    1.4822   -0.5743    0.0000 C   0  0  0  0  0  0  0  0  0  0  0  0
    5.7591   -0.6618    0.0000 C   0  0  0  0  0  0  0  0  0  0  0  0
   -2.6197   -1.4439    0.0000 C   0  0  0  0  0  0  0  0  0  0  0  0
    6.3717   -1.1869    0.0000 C   0  0  0  0  0  0  0  0  0  0  0  0
   -5.0535   -0.8587    0.0000 C   0  0  0  0  0  0  0  0  0  0  0  0
   -0.8477    0.8149    0.0000 O   0  0  0  0  0  0  0  0  0  0  0  0
   -0.8477   -2.0565    0.0000 O   0  0  0  0  0  0  0  0  0  0  0  0
   -2.6197    0.1969    0.0000 C   0  0  0  0  0  0  0  0  0  0  0  0
   -5.3817   -2.5323    0.0000 O   0  5  0  0  0  0  0  0  0  0  0  0
   -6.8036   -2.2807    0.0000 O   0  0  0  0  0  0  0  0  0  0  0  0
    1.8432    0.7821    0.0000 O   0  0  0  0  0  0  0  0  0  0  0  0
   -3.3416   -0.2024    0.0000 C   0  0  0  0  0  0  0  0  0  0  0  0
   -4.8566   -0.0656    0.0000 C   0  0  0  0  0  0  0  0  0  0  0  0
    3.6480    0.0656    0.0000 C   0  0  0  0  0  0  0  0  0  0  0  0
   -4.0855    0.1969    0.0000 O   0  0  0  0  0  0  0  0  0  0  0  0
    5.1411   -0.1368    0.0000 C   0  0  0  0  0  0  0  0  0  0  0  0
   -3.3416   -1.0337    0.0000 C   0  0  0  0  0  0  0  0  0  0  0  0
    4.3535   -0.4321    0.0000 C   0  0  0  0  0  0  0  0  0  0  0  0
    0.2844   -1.6900    0.0000 C   0  0  0  0  0  0  0  0  0  0  0  0
   -6.4482   -0.5743    0.0000 C   0  0  0  0  0  0  0  0  0  0  0  0
    1.6627   -1.3782    0.0000 C   0  0  0  0  0  0  0  0  0  0  0  0
    1.0720   -1.9416    0.0000 C   0  0  0  0  0  0  0  0  0  0  0  0
   -6.2950    0.2133    0.0000 C   0  0  0  0  0  0  0  0  0  0  0  0
    4.5777    1.2470    0.0000 C   0  0  0  0  0  0  0  0  0  0  0  0
   -5.4910    0.4594    0.0000 C   0  0  0  0  0  0  0  0  0  0  0  0
    3.7902    0.9133    0.0000 C   0  0  0  0  0  0  0  0  0  0  0  0
    5.2559    0.7219    0.0000 C   0  0  0  0  0  0  0  0  0  0  0  0
  2  1  1  0  0  0  0
  3  1  1  0  0  0  0
  4  2  1  0  0  0  0
  4  5  2  0  0  0  0
  5  3  1  0  0  0  0
  6  9  1  0  0  0  0
  7  1  1  0  0  0  0
  8 12  1  0  0  0  0
  9 16  1  0  0  0  0
  9 31  2  0  0  0  0
 10  8  1  0  0  0  0
 11  7  1  0  0  0  0
 12 11  2  0  0  0  0
 13 27  1  0  0  0  0
 14  5  1  0  0  0  0
 15 13  3  0  0  0  0
 16 24  2  0  0  0  0
 17  2  2  0  0  0  0
 18  3  2  0  0  0  0
 19  4  1  0  0  0  0
 20  6  1  0  0  0  0
 21  6  2  0  0  0  0
 22  8  2  0  0  0  0
 23 19  2  0  0  0  0
 23 28  1  0  0  0  0
 24 26  1  0  0  0  0
 25 10  1  0  0  0  0
 26 23  1  0  0  0  0
 27 29  1  0  0  0  0
 27 38  2  0  0  0  0
 28 14  2  0  0  0  0
 29 25  2  0  0  0  0
 30  7  2  0  0  0  0
 31 34  1  0  0  0  0
 32 33  2  0  0  0  0
 32 12  1  0  0  0  0
 33 30  1  0  0  0  0
 34 36  2  0  0  0  0
 35 37  2  0  0  0  0
 36 24  1  0  0  0  0
 37 25  1  0  0  0  0
 38 35  1  0  0  0  0
M  END
> <CdId>
710

> <Mol Weight>
503.4618

> <Formula>
C29H17N3O6

> <Click_ID>
CLK010_D05 __ __ 

$$$$
