CLK004_F03
 OpenBabel03181413202D

 10 10  0  0  0  0  0  0  0  0999 V2000
    0.1517    0.3072    0.0000 C   0  0  0  0  0  0  0  0  0  0  0  0
    0.6485   -0.3527    0.0000 N   0  0  0  0  0  0  0  0  0  0  0  0
    0.6239    0.9804    0.0000 N   0  0  0  0  0  0  0  0  0  0  0  0
   -0.6731    0.2920    0.0000 S   0  0  0  0  0  0  0  0  0  0  0  0
    1.4279   -0.0816    0.0000 C   0  0  0  0  0  0  0  0  0  0  0  0
    1.4146    0.7414    0.0000 S   0  0  0  0  0  0  0  0  0  0  0  0
   -1.0752   -0.4285    0.0000 C   0  0  0  0  0  0  0  0  0  0  0  0
    2.1029   -0.5556    0.0000 N   0  0  0  0  0  0  0  0  0  0  0  0
   -1.9000   -0.4437    0.0000 C   0  0  0  0  0  0  0  0  0  0  0  0
   -2.7211   -0.4570    0.0000 C   0  0  0  0  0  0  0  0  0  0  0  0
  1  2  1  0  0  0  0
  1  3  2  0  0  0  0
  1  4  1  0  0  0  0
  2  5  2  0  0  0  0
  3  6  1  0  0  0  0
  4  7  1  0  0  0  0
  5  8  1  0  0  0  0
  5  6  1  0  0  0  0
  7  9  1  0  0  0  0
  9 10  3  0  0  0  0
M  END
> <CdId>
292

> <Mol Weight>
171.243

> <Formula>
C5H5N3S2

> <Click_ID>
CLK004_F03 __ __ 

$$$$
