CLK012_A10
 OpenBabel03181413202D

 27 29  0  0  0  0  0  0  0  0999 V2000
    4.6119   -1.8648    0.0000 N    0  0  0  0  0  0  0  0  0  0  0  0
    4.4829   -2.6764    0.0000 C    0  0  0  0  0  0  0  0  0  0  0  0
    3.8752   -1.4860    0.0000 C    0  0  0  0  0  0  0  0  0  0  0  0
    3.2883   -2.0646    0.0000 C    0  0  0  0  0  0  0  0  0  0  0  0
    3.6629   -2.8096    0.0000 S    0  0  0  0  0  0  0  0  0  0  0  0
    5.3487   -1.4902    0.0000 C    0  0  0  0  0  0  0  0  0  0  0  0
    2.4766   -1.9397    0.0000 C    0  0  0  0  0  0  0  0  0  0  0  0
    6.0355   -1.9397    0.0000 C    0  0  0  0  0  0  0  0  0  0  0  0
    0.1665   -5.9231    0.0000 C    0  0  0  0  0  0  0  0  0  0  0  0
   -0.3496   -6.5599    0.0000 C    0  0  0  0  0  0  0  0  0  0  0  0
    5.0615   -3.2633    0.0000 O    0  0  0  0  0  0  0  0  0  0  0  0
    0.6161   -3.0885    0.0000 C    0  0  0  0  0  0  0  0  0  0  0  0
    3.7503   -0.6743    0.0000 O    0  0  0  0  0  0  0  0  0  0  0  0
    1.9522   -2.5765    0.0000 C    0  0  0  0  0  0  0  0  0  0  0  0
    1.1363   -2.4517    0.0000 C    0  0  0  0  0  0  0  0  0  0  0  0
    0.9116   -3.8627    0.0000 C    0  0  0  0  0  0  0  0  0  0  0  0
    1.7274   -3.9959    0.0000 C    0  0  0  0  0  0  0  0  0  0  0  0
    6.7680   -1.5776    0.0000 C    0  0  0  0  0  0  0  0  0  0  0  0
    2.2477   -3.3507    0.0000 C    0  0  0  0  0  0  0  0  0  0  0  0
   -0.1998   -2.9636    0.0000 O    0  0  0  0  0  0  0  0  0  0  0  0
    5.3861   -0.6660    0.0000 C    0  0  0  0  0  0  0  0  0  0  0  0
    7.4548   -2.0354    0.0000 Cl   0  0  0  0  0  0  0  0  0  0  0  0
    0.3913   -4.4996    0.0000 O    0  0  0  0  0  0  0  0  0  0  0  0
    0.6868   -5.2738    0.0000 C    0  0  0  0  0  0  0  0  0  0  0  0
    6.1229   -0.2997    0.0000 C    0  0  0  0  0  0  0  0  0  0  0  0
    6.8180   -0.7534    0.0000 C    0  0  0  0  0  0  0  0  0  0  0  0
   -0.7201   -3.6005    0.0000 C    0  0  0  0  0  0  0  0  0  0  0  0
  2  1  1  0  0  0  0
  3  1  1  0  0  0  0
  4  3  1  0  0  0  0
  5  2  1  0  0  0  0
  5  4  1  0  0  0  0
  6  1  1  0  0  0  0
  7  4  2  0  0  0  0
  8  6  2  0  0  0  0
  9 24  1  0  0  0  0
 10  9  3  0  0  0  0
 11  2  2  0  0  0  0
 12 15  1  0  0  0  0
 12 16  2  0  0  0  0
 13  3  2  0  0  0  0
 14  7  1  0  0  0  0
 15 14  2  0  0  0  0
 16 17  1  0  0  0  0
 17 19  2  0  0  0  0
 18  8  1  0  0  0  0
 19 14  1  0  0  0  0
 20 12  1  0  0  0  0
 21  6  1  0  0  0  0
 22 18  1  0  0  0  0
 23 16  1  0  0  0  0
 24 23  1  0  0  0  0
 25 21  2  0  0  0  0
 26 25  1  0  0  0  0
 26 18  2  0  0  0  0
 27 20  1  0  0  0  0
M  END
> <CdId>
845

> <Mol Weight>
399.847

> <Formula>
C20H14ClNO4S

> <Click_ID>
CLK012_A10 __ __ 

$$$$
