CLK036_G03
 OpenBabel03181413202D

 27 29  0  0  0  0  0  0  0  0999 V2000
    3.6943   -0.3037    0.0000 C   0  0  0  0  0  0  0  0  0  0  0  0
    4.1853   -0.9735    0.0000 N   0  0  0  0  0  0  0  0  0  0  0  0
    2.8706   -0.3037    0.0000 N   0  0  0  0  0  0  0  0  0  0  0  0
    3.9439    0.4826    0.0000 S   0  0  0  0  0  0  0  0  0  0  0  0
    2.6127    0.4826    0.0000 C   0  0  0  0  0  0  0  0  0  0  0  0
    5.0090   -0.8778    0.0000 C   0  0  0  0  0  0  0  0  0  0  0  0
    3.2742    0.9693    0.0000 C   0  0  0  0  0  0  0  0  0  0  0  0
    6.6440   -0.6989    0.0000 S   0  0  0  0  0  0  0  0  0  0  0  0
    5.4915   -1.5476    0.0000 C   0  0  0  0  0  0  0  0  0  0  0  0
    6.3070   -1.4603    0.0000 C   0  0  0  0  0  0  0  0  0  0  0  0
    3.1868    1.7848    0.0000 C   0  0  0  0  0  0  0  0  0  0  0  0
    1.5601   -0.9028    0.0000 C   0  0  0  0  0  0  0  0  0  0  0  0
    0.7364   -0.8237    0.0000 C   0  0  0  0  0  0  0  0  0  0  0  0
    1.8596    0.8195    0.0000 C   0  0  0  0  0  0  0  0  0  0  0  0
    7.4053   -1.0276    0.0000 O   0  0  0  0  0  0  0  0  0  0  0  0
    5.8826   -0.3661    0.0000 O   0  0  0  0  0  0  0  0  0  0  0  0
    5.3460   -0.1290    0.0000 O   0  0  0  0  0  0  0  0  0  0  0  0
    2.4379    2.1217    0.0000 C   0  0  0  0  0  0  0  0  0  0  0  0
    1.7723    1.6433    0.0000 C   0  0  0  0  0  0  0  0  0  0  0  0
    2.3755   -0.9777    0.0000 C   0  0  0  0  0  0  0  0  0  0  0  0
    6.9768    0.0624    0.0000 C   0  0  0  0  0  0  0  0  0  0  0  0
    5.1546   -2.3007    0.0000 C   0  0  0  0  0  0  0  0  0  0  0  0
    6.7937   -2.1259    0.0000 C   0  0  0  0  0  0  0  0  0  0  0  0
    3.8608    2.2715    0.0000 C   0  0  0  0  0  0  0  0  0  0  0  0
    1.0109    1.9802    0.0000 C   0  0  0  0  0  0  0  0  0  0  0  0
    5.6413   -2.9704    0.0000 C   0  0  0  0  0  0  0  0  0  0  0  0
    6.4568   -2.8831    0.0000 C   0  0  0  0  0  0  0  0  0  0  0  0
  2  1  2  0  0  0  0
  3  1  1  0  0  0  0
  4  1  1  0  0  0  0
  5  3  1  0  0  0  0
  6  2  1  0  0  0  0
  7  4  1  0  0  0  0
  7  5  2  0  0  0  0
  8 10  1  0  0  0  0
  9  6  1  0  0  0  0
 10  9  1  0  0  0  0
 11  7  1  0  0  0  0
 12 20  1  0  0  0  0
 13 12  3  0  0  0  0
 14  5  1  0  0  0  0
 15  8  2  0  0  0  0
 16  8  2  0  0  0  0
 17  6  2  0  0  0  0
 18 11  2  0  0  0  0
 19 14  2  0  0  0  0
 19 18  1  0  0  0  0
 20  3  1  0  0  0  0
 21  8  1  0  0  0  0
 22  9  2  0  0  0  0
 23 10  2  0  0  0  0
 23 27  1  0  0  0  0
 24 11  1  0  0  0  0
 25 19  1  0  0  0  0
 26 22  1  0  0  0  0
 27 26  2  0  0  0  0
M  END
> <CdId>
2760

> <Mol Weight>
398.499

> <Formula>
C20H18N2O3S2

> <Click_ID>
CLK036_G03 __ __ 

$$$$
