CLK017_G08
 OpenBabel03181413202D

 27 29  0  0  0  0  0  0  0  0999 V2000
    3.7201   -0.6513    0.0000 N   0  0  0  0  0  0  0  0  0  0  0  0
    3.9706   -1.4404    0.0000 C   0  0  0  0  0  0  0  0  0  0  0  0
    5.0520   -0.6513    0.0000 C   0  0  0  0  0  0  0  0  0  0  0  0
    4.3839   -0.1670    0.0000 C   0  0  0  0  0  0  0  0  0  0  0  0
    4.7972   -1.4404    0.0000 S   0  0  0  0  0  0  0  0  0  0  0  0
    6.1292   -0.3048    0.0000 C   0  0  0  0  0  0  0  0  0  0  0  0
    6.3045    0.5093    0.0000 C   0  0  0  0  0  0  0  0  0  0  0  0
    2.9352   -0.3925    0.0000 C   0  0  0  0  0  0  0  0  0  0  0  0
    7.0811    0.7598    0.0000 C   0  0  0  0  0  0  0  0  0  0  0  0
    4.4633    2.1669    0.0000 C   0  0  0  0  0  0  0  0  0  0  0  0
    4.6386    2.9768    0.0000 C   0  0  0  0  0  0  0  0  0  0  0  0
    2.3172   -0.9519    0.0000 C   0  0  0  0  0  0  0  0  0  0  0  0
    3.4863   -2.1085    0.0000 O   0  0  0  0  0  0  0  0  0  0  0  0
    5.6908    1.0605    0.0000 C   0  0  0  0  0  0  0  0  0  0  0  0
    4.3839    0.6596    0.0000 O   0  0  0  0  0  0  0  0  0  0  0  0
    7.2564    1.5615    0.0000 C   0  0  0  0  0  0  0  0  0  0  0  0
    2.4926   -1.7578    0.0000 O   0  0  0  0  0  0  0  0  0  0  0  0
    5.8619    1.8663    0.0000 C   0  0  0  0  0  0  0  0  0  0  0  0
    6.6427    2.1251    0.0000 C   0  0  0  0  0  0  0  0  0  0  0  0
    1.5323   -0.6931    0.0000 O   0  0  0  0  0  0  0  0  0  0  0  0
    4.9017    0.8099    0.0000 O   0  0  0  0  0  0  0  0  0  0  0  0
    4.2879    1.3611    0.0000 C   0  0  0  0  0  0  0  0  0  0  0  0
    7.6948    0.2004    0.0000 C   0  0  0  0  0  0  0  0  0  0  0  0
    8.0330    1.8245    0.0000 C   0  0  0  0  0  0  0  0  0  0  0  0
    1.3570    0.1085    0.0000 C   0  0  0  0  0  0  0  0  0  0  0  0
    8.4797    0.4718    0.0000 C   0  0  0  0  0  0  0  0  0  0  0  0
    8.6468    1.2734    0.0000 C   0  0  0  0  0  0  0  0  0  0  0  0
  2  1  1  0  0  0  0
  3  4  1  0  0  0  0
  4  1  1  0  0  0  0
  5  2  1  0  0  0  0
  5  3  1  0  0  0  0
  6  3  2  0  0  0  0
  7  6  1  0  0  0  0
  8  1  1  0  0  0  0
  9  7  1  0  0  0  0
 10 22  1  0  0  0  0
 11 10  3  0  0  0  0
 12  8  1  0  0  0  0
 13  2  2  0  0  0  0
 14  7  2  0  0  0  0
 15  4  2  0  0  0  0
 16  9  1  0  0  0  0
 17 12  2  0  0  0  0
 18 14  1  0  0  0  0
 19 18  2  0  0  0  0
 19 16  1  0  0  0  0
 20 12  1  0  0  0  0
 21 14  1  0  0  0  0
 22 21  1  0  0  0  0
 23  9  2  0  0  0  0
 24 16  2  0  0  0  0
 25 20  1  0  0  0  0
 26 23  1  0  0  0  0
 27 26  2  0  0  0  0
 27 24  1  0  0  0  0
M  END
> <CdId>
1303

> <Mol Weight>
381.402

> <Formula>
C20H15NO5S

> <Click_ID>
CLK017_G08 __ __ 

$$$$
