CLK037B07
 OpenBabel03181413202D

 28 30  0  0  0  0  0  0  0  0999 V2000
    2.1417    1.3583    0.0000 N   0  0  0  0  0  0  0  0  0  0  0  0
   -5.0042   -1.1167    0.0000 C   0  0  0  0  0  0  0  0  0  0  0  0
   -5.7167   -1.5292    0.0000 C   0  0  0  0  0  0  0  0  0  0  0  0
    0.0000    0.1208    0.0000 N   0  0  0  0  0  0  0  0  0  0  0  0
   -2.1458   -1.1167    0.0000 C   0  0  0  0  0  0  0  0  0  0  0  0
   -2.8583   -0.7042    0.0000 C   0  0  0  0  0  0  0  0  0  0  0  0
   -0.7167    0.5333    0.0000 C   0  0  0  0  0  0  0  0  0  0  0  0
   -1.4292   -0.7042    0.0000 C   0  0  0  0  0  0  0  0  0  0  0  0
    0.7125    0.5333    0.0000 C   0  0  0  0  0  0  0  0  0  0  0  0
    2.8542    1.7708    0.0000 C   0  0  0  0  0  0  0  0  0  0  0  0
   -2.8583    0.1208    0.0000 C   0  0  0  0  0  0  0  0  0  0  0  0
    1.4250    0.1208    0.0000 C   0  0  0  0  0  0  0  0  0  0  0  0
    0.7125    1.3583    0.0000 C   0  0  0  0  0  0  0  0  0  0  0  0
   -1.4292    0.1208    0.0000 C   0  0  0  0  0  0  0  0  0  0  0  0
    1.4250    1.7708    0.0000 C   0  0  0  0  0  0  0  0  0  0  0  0
    2.1417    0.5333    0.0000 C   0  0  0  0  0  0  0  0  0  0  0  0
   -2.1458    0.5333    0.0000 C   0  0  0  0  0  0  0  0  0  0  0  0
   -2.1458   -1.9417    0.0000 O   0  0  0  0  0  0  0  0  0  0  0  0
   -3.5750   -1.1167    0.0000 O   0  0  0  0  0  0  0  0  0  0  0  0
    3.5708    1.3583    0.0000 C   0  0  0  0  0  0  0  0  0  0  0  0
   -4.2875   -0.7042    0.0000 C   0  0  0  0  0  0  0  0  0  0  0  0
   -1.4292   -2.3542    0.0000 C   0  0  0  0  0  0  0  0  0  0  0  0
    4.2833    1.7708    0.0000 C   0  0  0  0  0  0  0  0  0  0  0  0
    3.5708    0.5333    0.0000 C   0  0  0  0  0  0  0  0  0  0  0  0
   -1.4292   -3.1792    0.0000 C   0  0  0  0  0  0  0  0  0  0  0  0
    4.2833    0.1208    0.0000 C   0  0  0  0  0  0  0  0  0  0  0  0
    5.0000    1.3583    0.0000 C   0  0  0  0  0  0  0  0  0  0  0  0
    5.0000    0.5333    0.0000 C   0  0  0  0  0  0  0  0  0  0  0  0
  2 21  1  0  0  0  0
  3  2  3  0  0  0  0
  4  9  1  0  0  0  0
  5  8  1  0  0  0  0
  6 11  1  0  0  0  0
  6  5  2  0  0  0  0
  7  4  2  0  0  0  0
  8 14  2  0  0  0  0
  9 13  1  0  0  0  0
 10  1  1  0  0  0  0
 11 17  2  0  0  0  0
 12 16  1  0  0  0  0
 12  9  1  0  0  0  0
 13 15  1  0  0  0  0
 14  7  1  0  0  0  0
 15  1  1  0  0  0  0
 16  1  1  0  0  0  0
 17 14  1  0  0  0  0
 18  5  1  0  0  0  0
 19  6  1  0  0  0  0
 20 10  1  0  0  0  0
 21 19  1  0  0  0  0
 22 18  1  0  0  0  0
 23 20  2  0  0  0  0
 24 20  1  0  0  0  0
 25 22  1  0  0  0  0
 26 24  2  0  0  0  0
 27 23  1  0  0  0  0
 28 27  2  0  0  0  0
 28 26  1  0  0  0  0
M  END
> <CdId>
2810

> <Mol Weight>
376.4913

> <Formula>
C24H28N2O2

> <Click_ID>
CLK037B07 __ __ 

$$$$
