CLK032_A11
 OpenBabel03181413202D

 24 26  0  0  0  0  0  0  0  0999 V2000
   -1.8964    2.1589    0.0000 C   0  0  0  0  0  0  0  0  0  0  0  0
   -1.0711    2.1589    0.0000 N   0  0  0  0  0  0  0  0  0  0  0  0
   -2.3756    2.8215    0.0000 N   0  0  0  0  0  0  0  0  0  0  0  0
   -0.6585    1.4462    0.0000 C   0  0  0  0  0  0  0  0  0  0  0  0
   -2.3756    1.4837    0.0000 S   0  0  0  0  0  0  0  0  0  0  0  0
   -3.1634    2.5590    0.0000 C   0  0  0  0  0  0  0  0  0  0  0  0
    0.1667    1.4462    0.0000 C   0  0  0  0  0  0  0  0  0  0  0  0
   -3.1592    1.7337    0.0000 C   0  0  0  0  0  0  0  0  0  0  0  0
   -1.3211    3.7718    0.0000 C   0  0  0  0  0  0  0  0  0  0  0  0
   -0.5209    3.9468    0.0000 C   0  0  0  0  0  0  0  0  0  0  0  0
   -1.0628    0.7252    0.0000 O   0  0  0  0  0  0  0  0  0  0  0  0
   -3.8760    2.9841    0.0000 C   0  0  0  0  0  0  0  0  0  0  0  0
    0.5793    0.7335    0.0000 C   0  0  0  0  0  0  0  0  0  0  0  0
    0.5668    2.1589    0.0000 C   0  0  0  0  0  0  0  0  0  0  0  0
   -2.1256    3.6093    0.0000 C   0  0  0  0  0  0  0  0  0  0  0  0
    0.1667    0.0208    0.0000 F   0  0  0  0  0  0  0  0  0  0  0  0
    0.1542    2.8632    0.0000 F   0  0  0  0  0  0  0  0  0  0  0  0
   -3.8760    3.8010    0.0000 F   0  0  0  0  0  0  0  0  0  0  0  0
   -3.8760    1.3254    0.0000 C   0  0  0  0  0  0  0  0  0  0  0  0
   -4.5846    1.7337    0.0000 C   0  0  0  0  0  0  0  0  0  0  0  0
    1.8047    1.4462    0.0000 C   0  0  0  0  0  0  0  0  0  0  0  0
    1.3921    2.1631    0.0000 C   0  0  0  0  0  0  0  0  0  0  0  0
    1.4004    0.7335    0.0000 C   0  0  0  0  0  0  0  0  0  0  0  0
   -4.5846    2.5590    0.0000 C   0  0  0  0  0  0  0  0  0  0  0  0
  2  1  2  0  0  0  0
  3  1  1  0  0  0  0
  4  2  1  0  0  0  0
  5  1  1  0  0  0  0
  6  3  1  0  0  0  0
  7  4  1  0  0  0  0
  8  5  1  0  0  0  0
  8  6  2  0  0  0  0
  9 15  1  0  0  0  0
 10  9  3  0  0  0  0
 11  4  2  0  0  0  0
 12  6  1  0  0  0  0
 13  7  2  0  0  0  0
 14  7  1  0  0  0  0
 15  3  1  0  0  0  0
 16 13  1  0  0  0  0
 17 14  1  0  0  0  0
 18 12  1  0  0  0  0
 19  8  1  0  0  0  0
 20 19  2  0  0  0  0
 20 24  1  0  0  0  0
 21 22  1  0  0  0  0
 22 14  2  0  0  0  0
 23 13  1  0  0  0  0
 23 21  2  0  0  0  0
 24 12  2  0  0  0  0
M  END
> <CdId>
2415

> <Mol Weight>
346.326

> <Formula>
C17H9F3N2OS

> <Click_ID>
CLK032_A11 __ __ 

$$$$
