CLK021_D05
 OpenBabel03181413202D

 21 21  0  0  0  0  0  0  0  0999 V2000
    9.1621    0.6004    0.0000 Cl   0  0  0  0  0  0  0  0  0  0  0  0
    5.0050    2.7362    0.0000 C    0  0  0  0  0  0  0  0  0  0  0  0
    3.7675    3.4604    0.0000 C    0  0  0  0  0  0  0  0  0  0  0  0
    4.5925    3.4604    0.0000 C    0  0  0  0  0  0  0  0  0  0  0  0
    3.3550    2.7362    0.0000 C    0  0  0  0  0  0  0  0  0  0  0  0
    4.5925    2.0212    0.0000 C    0  0  0  0  0  0  0  0  0  0  0  0
    1.2925    3.4604    0.0000 C    0  0  0  0  0  0  0  0  0  0  0  0
    3.7675    2.0212    0.0000 C    0  0  0  0  0  0  0  0  0  0  0  0
    0.4675    3.4604    0.0000 C    0  0  0  0  0  0  0  0  0  0  0  0
    5.8300    2.7362    0.0000 C    0  0  0  0  0  0  0  0  0  0  0  0
    6.2425    2.0212    0.0000 N    0  0  0  0  0  0  0  0  0  0  0  0
    5.0050    4.1754    0.0000 Br   0  0  0  0  0  0  0  0  0  0  0  0
    2.5300    2.7362    0.0000 O    0  0  0  0  0  0  0  0  0  0  0  0
    3.3550    1.3154    0.0000 O    0  0  0  0  0  0  0  0  0  0  0  0
    7.0675    2.0212    0.0000 C    0  0  0  0  0  0  0  0  0  0  0  0
    2.1175    3.4604    0.0000 C    0  0  0  0  0  0  0  0  0  0  0  0
    3.7675    0.6004    0.0000 C    0  0  0  0  0  0  0  0  0  0  0  0
    7.5487    1.3566    0.0000 C    0  0  0  0  0  0  0  0  0  0  0  0
    7.5487    2.6904    0.0000 C    0  0  0  0  0  0  0  0  0  0  0  0
    8.3371    2.4337    0.0000 C    0  0  0  0  0  0  0  0  0  0  0  0
    8.3371    1.6087    0.0000 C    0  0  0  0  0  0  0  0  0  0  0  0
  3  4  2  0  0  0  0
  4  2  1  0  0  0  0
  5  8  2  0  0  0  0
  5  3  1  0  0  0  0
  6  2  2  0  0  0  0
  7 16  1  0  0  0  0
  8  6  1  0  0  0  0
  9  7  3  0  0  0  0
 10  2  1  0  0  0  0
 11 10  1  0  0  0  0
 12  4  1  0  0  0  0
 13  5  1  0  0  0  0
 14  8  1  0  0  0  0
 15 11  1  0  0  0  0
 16 13  1  0  0  0  0
 17 14  1  0  0  0  0
 18 15  1  0  0  0  0
 19 15  1  0  0  0  0
 20 19  1  0  0  0  0
 21 18  1  0  0  0  0
 21 20  1  0  0  0  0
M  END
> <CdId>
1590

> <Mol Weight>
374.7

> <Formula>
C16H21BrClNO2

> <Click_ID>
CLK021_D05 __ __ 

$$$$
