CLK033_A10
 OpenBabel03181413202D

 28 30  0  0  0  0  0  0  0  0999 V2000
   -4.5880    2.5540    0.0000 C   0  0  0  0  0  0  0  0  0  0  0  0
   -0.9941    5.4408    0.0000 S   0  0  0  0  0  0  0  0  0  0  0  0
   -3.8560    2.9783    0.0000 N   0  0  0  0  0  0  0  0  0  0  0  0
   -4.6796    1.7304    0.0000 N   0  0  0  0  0  0  0  0  0  0  0  0
   -5.3118    2.8951    0.0000 S   0  0  0  0  0  0  0  0  0  0  0  0
   -5.4865    1.5806    0.0000 C   0  0  0  0  0  0  0  0  0  0  0  0
   -5.8858    2.3044    0.0000 C   0  0  0  0  0  0  0  0  0  0  0  0
   -3.8643    3.7936    0.0000 C   0  0  0  0  0  0  0  0  0  0  0  0
   -1.7096    5.0207    0.0000 C   0  0  0  0  0  0  0  0  0  0  0  0
   -0.2703    5.8443    0.0000 N   0  0  0  0  0  0  0  0  0  0  0  0
   -4.2636    0.3577    0.0000 C   0  0  0  0  0  0  0  0  0  0  0  0
   -0.5823    4.7212    0.0000 O   0  0  0  0  0  0  0  0  0  0  0  0
   -1.4059    6.1563    0.0000 O   0  0  0  0  0  0  0  0  0  0  0  0
   -4.4508   -0.4534    0.0000 C   0  0  0  0  0  0  0  0  0  0  0  0
   -3.1530    4.2054    0.0000 C   0  0  0  0  0  0  0  0  0  0  0  0
   -4.5756    4.2054    0.0000 O   0  0  0  0  0  0  0  0  0  0  0  0
   -5.9150    0.8818    0.0000 C   0  0  0  0  0  0  0  0  0  0  0  0
   -4.0764    1.1605    0.0000 C   0  0  0  0  0  0  0  0  0  0  0  0
   -1.7221    4.1971    0.0000 C   0  0  0  0  0  0  0  0  0  0  0  0
   -2.4334    5.4408    0.0000 C   0  0  0  0  0  0  0  0  0  0  0  0
   -2.4334    3.8019    0.0000 C   0  0  0  0  0  0  0  0  0  0  0  0
   -3.1447    5.0332    0.0000 C   0  0  0  0  0  0  0  0  0  0  0  0
   -6.7012    2.3294    0.0000 C   0  0  0  0  0  0  0  0  0  0  0  0
   -7.1296    1.6223    0.0000 C   0  0  0  0  0  0  0  0  0  0  0  0
   -0.2745    6.6804    0.0000 C   0  0  0  0  0  0  0  0  0  0  0  0
    0.4368    5.4450    0.0000 C   0  0  0  0  0  0  0  0  0  0  0  0
   -6.7178    0.8943    0.0000 C   0  0  0  0  0  0  0  0  0  0  0  0
   -5.5240    0.1497    0.0000 C   0  0  0  0  0  0  0  0  0  0  0  0
  2  9  1  0  0  0  0
  3  1  2  0  0  0  0
  4  1  1  0  0  0  0
  5  1  1  0  0  0  0
  6  4  1  0  0  0  0
  7  5  1  0  0  0  0
  7  6  2  0  0  0  0
  8  3  1  0  0  0  0
  9 20  1  0  0  0  0
  9 19  2  0  0  0  0
 10  2  1  0  0  0  0
 11 18  1  0  0  0  0
 12  2  2  0  0  0  0
 13  2  2  0  0  0  0
 14 11  3  0  0  0  0
 15  8  1  0  0  0  0
 16  8  2  0  0  0  0
 17  6  1  0  0  0  0
 18  4  1  0  0  0  0
 19 21  1  0  0  0  0
 20 22  2  0  0  0  0
 21 15  2  0  0  0  0
 22 15  1  0  0  0  0
 23  7  1  0  0  0  0
 24 23  2  0  0  0  0
 25 10  1  0  0  0  0
 26 10  1  0  0  0  0
 27 17  2  0  0  0  0
 27 24  1  0  0  0  0
 28 17  1  0  0  0  0
M  END
> <CdId>
2494

> <Mol Weight>
413.513

> <Formula>
C20H19N3O3S2

> <Click_ID>
CLK033_A10 __ __ 

$$$$
