CLK002_C05
 OpenBabel03181413202D

 27 30  0  0  0  0  0  0  0  0999 V2000
   -0.6876    1.5767    0.0000 N   0  0  0  0  0  0  0  0  0  0  0  0
   -1.4741    1.8275    0.0000 C   0  0  0  0  0  0  0  0  0  0  0  0
   -0.1976    2.2378    0.0000 C   0  0  0  0  0  0  0  0  0  0  0  0
   -0.1976    0.9043    0.0000 C   0  0  0  0  0  0  0  0  0  0  0  0
   -1.4741    2.6444    0.0000 C   0  0  0  0  0  0  0  0  0  0  0  0
   -2.1808    1.4134    0.0000 C   0  0  0  0  0  0  0  0  0  0  0  0
   -0.6876    2.8989    0.0000 N   0  0  0  0  0  0  0  0  0  0  0  0
    0.5889    1.9833    0.0000 S   0  0  0  0  0  0  0  0  0  0  0  0
    0.5889    1.1550    0.0000 C   0  0  0  0  0  0  0  0  0  0  0  0
   -0.4559    0.1178    0.0000 O   0  0  0  0  0  0  0  0  0  0  0  0
   -2.1808    3.0662    0.0000 C   0  0  0  0  0  0  0  0  0  0  0  0
   -2.8913    1.8275    0.0000 C   0  0  0  0  0  0  0  0  0  0  0  0
    1.2538    0.6724    0.0000 C   0  0  0  0  0  0  0  0  0  0  0  0
   -2.8913    2.6444    0.0000 C   0  0  0  0  0  0  0  0  0  0  0  0
    1.1702   -0.1443    0.0000 C   0  0  0  0  0  0  0  0  0  0  0  0
    1.8466   -0.6345    0.0000 C   0  0  0  0  0  0  0  0  0  0  0  0
    0.4218   -0.4863    0.0000 C   0  0  0  0  0  0  0  0  0  0  0  0
    1.7629   -1.4589    0.0000 C   0  0  0  0  0  0  0  0  0  0  0  0
    0.3305   -1.3146    0.0000 C   0  0  0  0  0  0  0  0  0  0  0  0
    1.0068   -1.7971    0.0000 C   0  0  0  0  0  0  0  0  0  0  0  0
    2.4240   -1.9415    0.0000 O   0  0  0  0  0  0  0  0  0  0  0  0
   -0.4142   -1.6527    0.0000 I   0  0  0  0  0  0  0  0  0  0  0  0
    0.9232   -2.6178    0.0000 O   0  0  0  0  0  0  0  0  0  0  0  0
    3.1801   -1.6034    0.0000 C   0  0  0  0  0  0  0  0  0  0  0  0
    0.1634   -2.9521    0.0000 C   0  0  0  0  0  0  0  0  0  0  0  0
    0.0836   -3.7728    0.0000 C   0  0  0  0  0  0  0  0  0  0  0  0
   -0.0037   -4.5935    0.0000 C   0  0  0  0  0  0  0  0  0  0  0  0
  1  2  1  0  0  0  0
  1  3  1  0  0  0  0
  1  4  1  0  0  0  0
  2  5  2  0  0  0  0
  2  6  1  0  0  0  0
  3  7  2  0  0  0  0
  3  8  1  0  0  0  0
  4  9  1  0  0  0  0
  4 10  2  0  0  0  0
  5 11  1  0  0  0  0
  5  7  1  0  0  0  0
  6 12  2  0  0  0  0
  8  9  1  0  0  0  0
  9 13  2  0  0  0  0
 11 14  2  0  0  0  0
 12 14  1  0  0  0  0
 13 15  1  0  0  0  0
 15 16  1  0  0  0  0
 15 17  2  0  0  0  0
 16 18  2  0  0  0  0
 17 19  1  0  0  0  0
 18 20  1  0  0  0  0
 18 21  1  0  0  0  0
 19 22  1  0  0  0  0
 19 20  2  0  0  0  0
 20 23  1  0  0  0  0
 21 24  1  0  0  0  0
 23 25  1  0  0  0  0
 25 26  1  0  0  0  0
 26 27  3  0  0  0  0
M  END
> <CdId>
104

> <Mol Weight>
488.298

> <Formula>
C20H13IN2O3S

> <Click_ID>
CLK002_C05 __ __ 

$$$$
