CLK037E02
 OpenBabel03181413202D

 17 17  0  0  0  0  0  0  0  0999 V2000
    1.5542    2.9375    0.0000 C   0  0  0  0  0  0  0  0  0  0  0  0
    0.8375    2.5250    0.0000 C   0  0  0  0  0  0  0  0  0  0  0  0
    2.2667    3.3500    0.0000 C   0  0  0  0  0  0  0  0  0  0  0  0
    0.1250    0.4625    0.0000 C   0  0  0  0  0  0  0  0  0  0  0  0
   -0.5917    0.0500    0.0000 N   0  0  0  0  0  0  0  0  0  0  0  0
   -1.3042   -2.0125    0.0000 C   0  0  0  0  0  0  0  0  0  0  0  0
   -0.5917   -0.7750    0.0000 C   0  0  0  0  0  0  0  0  0  0  0  0
   -1.3042   -1.1875    0.0000 C   0  0  0  0  0  0  0  0  0  0  0  0
   -0.5917   -2.4250    0.0000 C   0  0  0  0  0  0  0  0  0  0  0  0
    0.1250    2.9375    0.0000 O   0  0  0  0  0  0  0  0  0  0  0  0
    0.8375    0.0500    0.0000 O   0  0  0  0  0  0  0  0  0  0  0  0
    0.8375    1.7000    0.0000 O   0  0  0  0  0  0  0  0  0  0  0  0
    0.1250   -2.0125    0.0000 C   0  0  0  0  0  0  0  0  0  0  0  0
    0.1250    1.2875    0.0000 C   0  0  0  0  0  0  0  0  0  0  0  0
    0.1250   -1.1875    0.0000 C   0  0  0  0  0  0  0  0  0  0  0  0
   -2.0208   -2.4250    0.0000 C   0  0  0  0  0  0  0  0  0  0  0  0
   -0.5917   -3.2500    0.0000 C   0  0  0  0  0  0  0  0  0  0  0  0
  2  1  1  0  0  0  0
  3  1  3  0  0  0  0
  4 14  1  0  0  0  0
  5  4  1  0  0  0  0
  6  8  1  0  0  0  0
  7  5  1  0  0  0  0
  8  7  2  0  0  0  0
  9  6  2  0  0  0  0
 10  2  2  0  0  0  0
 11  4  2  0  0  0  0
 12  2  1  0  0  0  0
 13 15  2  0  0  0  0
 13  9  1  0  0  0  0
 14 12  1  0  0  0  0
 15  7  1  0  0  0  0
 16  6  1  0  0  0  0
 17  9  1  0  0  0  0
M  END
> <CdId>
2773

> <Mol Weight>
231.2472

> <Formula>
C13H13NO3

> <Click_ID>
CLK037E02 __ __ 

$$$$
