CLK025_D09
 OpenBabel03181413202D

 27 30  0  0  0  0  0  0  0  0999 V2000
   -2.0924    1.2334    0.0000 C   0  0  3  0  0  0  0  0  0  0  0  0
   -2.1062    0.4158    0.0000 C   0  0  3  0  0  0  0  0  0  0  0  0
   -1.3812    0.8074    0.0000 C   0  0  3  0  0  0  0  0  0  0  0  0
    1.8759   -0.7077    0.0000 C   0  0  0  0  0  0  0  0  0  0  0  0
   -0.5566    0.7834    0.0000 C   0  0  0  0  0  0  0  0  0  0  0  0
    2.2882   -1.4259    0.0000 C   0  0  0  0  0  0  0  0  0  0  0  0
    1.8176    2.1336    0.0000 C   0  0  0  0  0  0  0  0  0  0  0  0
    1.4053    2.8586    0.0000 C   0  0  0  0  0  0  0  0  0  0  0  0
    0.6528    0.0378    0.0000 N   0  0  0  0  0  0  0  0  0  0  0  0
    2.2814    0.0000    0.0000 C   0  0  0  0  0  0  0  0  0  0  0  0
   -0.1684    0.0653    0.0000 N   0  0  0  0  0  0  0  0  0  0  0  0
    1.0479   -0.6871    0.0000 C   0  0  0  0  0  0  0  0  0  0  0  0
   -0.1237    1.4843    0.0000 O   0  0  0  0  0  0  0  0  0  0  0  0
    3.1163   -1.4259    0.0000 C   0  0  0  0  0  0  0  0  0  0  0  0
    3.1197    0.0068    0.0000 C   0  0  0  0  0  0  0  0  0  0  0  0
   -1.5667    1.8553    0.0000 C   0  0  0  0  0  0  0  0  0  0  0  0
   -2.7968    1.6560    0.0000 C   0  0  0  0  0  0  0  0  0  0  0  0
    3.5286   -0.7077    0.0000 C   0  0  0  0  0  0  0  0  0  0  0  0
   -2.8174    0.0068    0.0000 C   0  0  0  0  0  0  0  0  0  0  0  0
    1.8553    0.7044    0.0000 O   0  0  0  0  0  0  0  0  0  0  0  0
    2.2505    1.4293    0.0000 C   0  0  0  0  0  0  0  0  0  0  0  0
    1.8759   -2.1405    0.0000 C   0  0  0  0  0  0  0  0  0  0  0  0
    3.5286   -2.1405    0.0000 C   0  0  0  0  0  0  0  0  0  0  0  0
   -3.5114    1.2472    0.0000 C   0  0  0  0  0  0  0  0  0  0  0  0
   -3.5320    0.4294    0.0000 C   0  0  0  0  0  0  0  0  0  0  0  0
    2.2882   -2.8551    0.0000 C   0  0  0  0  0  0  0  0  0  0  0  0
    3.1197   -2.8414    0.0000 C   0  0  0  0  0  0  0  0  0  0  0  0
  2  1  1  0  0  0  0
  2  3  1  0  0  0  0
  3  1  1  0  0  0  0
  4 12  1  0  0  0  0
  5  3  1  0  0  0  0
  6  4  1  0  0  0  0
  7 21  1  0  0  0  0
  8  7  3  0  0  0  0
  9 11  1  0  0  0  0
 10  4  2  0  0  0  0
 11  5  1  0  0  0  0
 12  9  2  0  0  0  0
 13  5  2  0  0  0  0
 14  6  2  0  0  0  0
 14 18  1  0  0  0  0
 15 10  1  0  0  0  0
 16  1  1  0  0  0  0
 17  1  1  0  0  0  0
 18 15  2  0  0  0  0
 19  2  1  0  0  0  0
 20 10  1  0  0  0  0
 21 20  1  0  0  0  0
 22  6  1  0  0  0  0
 23 14  1  0  0  0  0
 23 27  2  0  0  0  0
 24 17  1  0  0  0  0
 25 24  1  0  0  0  0
 25 19  1  0  0  0  0
 26 22  2  0  0  0  0
 27 26  1  0  0  0  0
M  END
> <CdId>
1894

> <Mol Weight>
360.4489

> <Formula>
C23H24N2O2

> <Click_ID>
CLK025_D09 __ __ 

$$$$
