CLK004_D04
 OpenBabel03181413202D

 20 21  0  0  0  0  0  0  0  0999 V2000
   -1.2513   -0.3506    0.0000 C   0  0  0  0  0  0  0  0  0  0  0  0
   -0.5362    0.0584    0.0000 N   0  0  0  0  0  0  0  0  0  0  0  0
   -1.2513   -1.1825    0.0000 C   0  0  0  0  0  0  0  0  0  0  0  0
   -1.9697    0.0584    0.0000 N   0  0  0  0  0  0  0  0  0  0  0  0
   -0.5362    0.8834    0.0000 C   0  0  0  0  0  0  0  0  0  0  0  0
    0.1753   -0.3506    0.0000 C   0  0  0  0  0  0  0  0  0  0  0  0
   -1.9697   -1.5916    0.0000 N   0  0  0  0  0  0  0  0  0  0  0  0
   -0.5362   -1.5984    0.0000 C   0  0  0  0  0  0  0  0  0  0  0  0
   -2.6778   -0.3610    0.0000 C   0  0  0  0  0  0  0  0  0  0  0  0
    0.1753    1.2925    0.0000 C   0  0  0  0  0  0  0  0  0  0  0  0
    0.8869    0.0584    0.0000 C   0  0  0  0  0  0  0  0  0  0  0  0
   -2.6778   -1.1825    0.0000 C   0  0  0  0  0  0  0  0  0  0  0  0
   -3.3927    0.0722    0.0000 C   0  0  0  0  0  0  0  0  0  0  0  0
    0.8869    0.8834    0.0000 C   0  0  0  0  0  0  0  0  0  0  0  0
    1.6087    1.3062    0.0000 C   0  0  0  0  0  0  0  0  0  0  0  0
    2.3272    0.8938    0.0000 N   0  0  0  0  0  0  0  0  0  0  0  0
    1.6052    2.1278    0.0000 O   0  0  0  0  0  0  0  0  0  0  0  0
    2.3306    0.0722    0.0000 C   0  0  0  0  0  0  0  0  0  0  0  0
    3.0421   -0.3403    0.0000 C   0  0  0  0  0  0  0  0  0  0  0  0
    3.7605   -0.7597    0.0000 C   0  0  0  0  0  0  0  0  0  0  0  0
  1  2  1  0  0  0  0
  1  3  1  0  0  0  0
  1  4  2  0  0  0  0
  2  5  1  0  0  0  0
  2  6  1  0  0  0  0
  3  7  2  0  0  0  0
  3  8  1  0  0  0  0
  4  9  1  0  0  0  0
  5 10  1  0  0  0  0
  6 11  1  0  0  0  0
  7 12  1  0  0  0  0
  9 13  1  0  0  0  0
  9 12  2  0  0  0  0
 10 14  1  0  0  0  0
 11 14  1  0  0  0  0
 14 15  1  0  0  0  0
 15 16  1  0  0  0  0
 15 17  2  0  0  0  0
 16 18  1  0  0  0  0
 18 19  1  0  0  0  0
 19 20  3  0  0  0  0
M  END
> <CdId>
273

> <Mol Weight>
272.3455

> <Formula>
C15H20N4O

> <Click_ID>
CLK004_D04 __ __ 

$$$$
