CLK012_H04
 OpenBabel03181413202D

 30 32  0  0  0  0  0  0  0  0999 V2000
    1.5650   -0.8158    0.0000 N    0  0  0  0  0  0  0  0  0  0  0  0
    1.8230   -1.6024    0.0000 C    0  0  0  0  0  0  0  0  0  0  0  0
    2.2350   -0.3288    0.0000 C    0  0  0  0  0  0  0  0  0  0  0  0
    2.9010   -0.8158    0.0000 C    0  0  0  0  0  0  0  0  0  0  0  0
    2.6470   -1.6024    0.0000 S    0  0  0  0  0  0  0  0  0  0  0  0
    4.1995    1.8562    0.0000 C    0  0  0  0  0  0  0  0  0  0  0  0
    3.6876   -0.5619    0.0000 C    0  0  0  0  0  0  0  0  0  0  0  0
    4.8113    1.3068    0.0000 C    0  0  0  0  0  0  0  0  0  0  0  0
    3.4129    1.6065    0.0000 C    0  0  0  0  0  0  0  0  0  0  0  0
    4.3868    2.6595    0.0000 O    0  0  0  0  0  0  0  0  0  0  0  0
    3.8499    0.2455    0.0000 C    0  0  0  0  0  0  0  0  0  0  0  0
    0.6118    0.2455    0.0000 C    0  0  0  0  0  0  0  0  0  0  0  0
    0.3913    1.0446    0.0000 C    0  0  0  0  0  0  0  0  0  0  0  0
    1.3360   -2.2642    0.0000 O    0  0  0  0  0  0  0  0  0  0  0  0
    5.3482    3.7042    0.0000 C    0  0  0  0  0  0  0  0  0  0  0  0
    4.6365    0.4952    0.0000 C    0  0  0  0  0  0  0  0  0  0  0  0
    2.2267    0.4952    0.0000 O    0  0  0  0  0  0  0  0  0  0  0  0
    3.2464    0.7949    0.0000 C    0  0  0  0  0  0  0  0  0  0  0  0
    0.7866   -0.5619    0.0000 C    0  0  0  0  0  0  0  0  0  0  0  0
    5.1609    2.9051    0.0000 C    0  0  0  0  0  0  0  0  0  0  0  0
    6.1224    3.9539    0.0000 C    0  0  0  0  0  0  0  0  0  0  0  0
    5.5855    1.5483    0.0000 Br   0  0  0  0  0  0  0  0  0  0  0  0
    2.8136    2.1559    0.0000 O    0  0  0  0  0  0  0  0  0  0  0  0
    6.7342    3.3920    0.0000 F    0  0  0  0  0  0  0  0  0  0  0  0
    4.7364    4.2577    0.0000 C    0  0  0  0  0  0  0  0  0  0  0  0
    6.3097    4.7364    0.0000 C    0  0  0  0  0  0  0  0  0  0  0  0
    2.0352    1.8979    0.0000 C    0  0  0  0  0  0  0  0  0  0  0  0
    1.4276    2.4556    0.0000 C    0  0  0  0  0  0  0  0  0  0  0  0
    4.9112    5.0569    0.0000 C    0  0  0  0  0  0  0  0  0  0  0  0
    5.7061    5.3066    0.0000 C    0  0  0  0  0  0  0  0  0  0  0  0
  2  1  1  0  0  0  0
  3  1  1  0  0  0  0
  4  3  1  0  0  0  0
  4  5  1  0  0  0  0
  5  2  1  0  0  0  0
  6  9  2  0  0  0  0
  6  8  1  0  0  0  0
  7  4  2  0  0  0  0
  8 16  2  0  0  0  0
  9 18  1  0  0  0  0
 10  6  1  0  0  0  0
 11  7  1  0  0  0  0
 12 19  1  0  0  0  0
 13 12  3  0  0  0  0
 14  2  2  0  0  0  0
 15 20  1  0  0  0  0
 16 11  1  0  0  0  0
 17  3  2  0  0  0  0
 18 11  2  0  0  0  0
 19  1  1  0  0  0  0
 20 10  1  0  0  0  0
 21 15  2  0  0  0  0
 22  8  1  0  0  0  0
 23  9  1  0  0  0  0
 24 21  1  0  0  0  0
 25 15  1  0  0  0  0
 26 21  1  0  0  0  0
 26 30  2  0  0  0  0
 27 23  1  0  0  0  0
 28 27  1  0  0  0  0
 29 25  2  0  0  0  0
 30 29  1  0  0  0  0
M  END
> <CdId>
909

> <Mol Weight>
490.342

> <Formula>
C22H17BrFNO4S

> <Click_ID>
CLK012_H04 __ __ 

$$$$
