CLK004_C07
 OpenBabel03181413202D

 16 17  0  0  0  0  0  0  0  0999 V2000
    5.6589   -2.3458    0.0000 C   0  0  0  0  0  0  0  0  0  0  0  0
    6.1405   -3.0059    0.0000 N   0  0  0  0  0  0  0  0  0  0  0  0
    6.1447   -1.6815    0.0000 C   0  0  0  0  0  0  0  0  0  0  0  0
    6.9252   -2.7568    0.0000 C   0  0  0  0  0  0  0  0  0  0  0  0
    6.9293   -1.9348    0.0000 C   0  0  0  0  0  0  0  0  0  0  0  0
    4.8369   -2.3416    0.0000 C   0  0  0  0  0  0  0  0  0  0  0  0
    7.7098   -3.0184    0.0000 C   0  0  0  0  0  0  0  0  0  0  0  0
    7.7140   -1.6857    0.0000 O   0  0  0  0  0  0  0  0  0  0  0  0
    5.0735   -3.9608    0.0000 C   0  0  0  0  0  0  0  0  0  0  0  0
    4.2639   -4.1269    0.0000 C   0  0  0  0  0  0  0  0  0  0  0  0
    8.1998   -2.3541    0.0000 C   0  0  0  0  0  0  0  0  0  0  0  0
    5.8831   -3.7864    0.0000 C   0  0  0  0  0  0  0  0  0  0  0  0
    4.4134   -3.0433    0.0000 O   0  0  0  0  0  0  0  0  0  0  0  0
    4.4258   -1.6234    0.0000 O   0  0  0  0  0  0  0  0  0  0  0  0
    3.6038   -1.6192    0.0000 C   0  0  0  0  0  0  0  0  0  0  0  0
    3.1927   -0.9010    0.0000 C   0  0  0  0  0  0  0  0  0  0  0  0
  2  1  1  0  0  0  0
  3  1  2  0  0  0  0
  4  2  1  0  0  0  0
  4  5  2  0  0  0  0
  5  3  1  0  0  0  0
  6  1  1  0  0  0  0
  7  4  1  0  0  0  0
  7 11  2  0  0  0  0
  8  5  1  0  0  0  0
  9 12  1  0  0  0  0
 10  9  3  0  0  0  0
 11  8  1  0  0  0  0
 12  2  1  0  0  0  0
 13  6  2  0  0  0  0
 14  6  1  0  0  0  0
 15 14  1  0  0  0  0
 16 15  1  0  0  0  0
M  END
> <CdId>
266

> <Mol Weight>
217.2206

> <Formula>
C12H11NO3

> <Click_ID>
CLK004_C07 __ __ 

$$$$
