CLK013_D05
 OpenBabel03181413202D

 18 19  0  0  0  0  0  0  0  0999 V2000
    1.5577   -0.8120    0.0000 N   0  0  0  0  0  0  0  0  0  0  0  0
    1.8145   -1.5950    0.0000 C   0  0  0  0  0  0  0  0  0  0  0  0
    2.2246   -0.3273    0.0000 C   0  0  0  0  0  0  0  0  0  0  0  0
    2.8875   -0.8120    0.0000 C   0  0  0  0  0  0  0  0  0  0  0  0
    2.6348   -1.5950    0.0000 S   0  0  0  0  0  0  0  0  0  0  0  0
    3.6705   -0.5593    0.0000 C   0  0  0  0  0  0  0  0  0  0  0  0
    0.6090    0.2444    0.0000 C   0  0  0  0  0  0  0  0  0  0  0  0
    0.3894    1.0398    0.0000 C   0  0  0  0  0  0  0  0  0  0  0  0
    1.3298   -2.2537    0.0000 O   0  0  0  0  0  0  0  0  0  0  0  0
    2.2164    0.4929    0.0000 O   0  0  0  0  0  0  0  0  0  0  0  0
    0.7830   -0.5593    0.0000 C   0  0  0  0  0  0  0  0  0  0  0  0
    3.8403    0.2444    0.0000 C   0  0  0  0  0  0  0  0  0  0  0  0
    4.1676    1.8600    0.0000 C   0  0  0  0  0  0  0  0  0  0  0  0
    3.2189    0.7912    0.0000 C   0  0  0  0  0  0  0  0  0  0  0  0
    4.6233    0.5054    0.0000 C   0  0  0  0  0  0  0  0  0  0  0  0
    4.7890    1.3174    0.0000 C   0  0  0  0  0  0  0  0  0  0  0  0
    3.3846    1.5990    0.0000 C   0  0  0  0  0  0  0  0  0  0  0  0
    4.3374    2.6679    0.0000 C   0  0  0  0  0  0  0  0  0  0  0  0
  2  1  1  0  0  0  0
  3  1  1  0  0  0  0
  4  3  1  0  0  0  0
  4  5  1  0  0  0  0
  5  2  1  0  0  0  0
  6  4  2  0  0  0  0
  7 11  1  0  0  0  0
  8  7  3  0  0  0  0
  9  2  2  0  0  0  0
 10  3  2  0  0  0  0
 11  1  1  0  0  0  0
 12  6  1  0  0  0  0
 13 16  1  0  0  0  0
 14 12  2  0  0  0  0
 15 12  1  0  0  0  0
 16 15  2  0  0  0  0
 17 14  1  0  0  0  0
 17 13  2  0  0  0  0
 18 13  1  0  0  0  0
M  END
> <CdId>
950

> <Mol Weight>
257.308

> <Formula>
C14H11NO2S

> <Click_ID>
CLK013_D05 __ __ 

$$$$
