CLK040F08
 OpenBabel03181413202D

 21 21  0  0  0  0  0  0  0  0999 V2000
    1.9744   -0.0500    0.0000 C   0  0  0  0  0  0  0  0  0  0  0  0
    1.3204   -0.5498    0.0000 C   0  0  0  0  0  0  0  0  0  0  0  0
    0.6415   -0.0833    0.0000 C   0  0  0  0  0  0  0  0  0  0  0  0
    0.8747    0.7081    0.0000 N   0  0  0  0  0  0  0  0  0  0  0  0
    1.6995    0.7290    0.0000 C   0  0  0  0  0  0  0  0  0  0  0  0
   -0.1375   -0.3582    0.0000 C   0  0  0  0  0  0  0  0  0  0  0  0
    2.7658   -0.2832    0.0000 C   0  0  0  0  0  0  0  0  0  0  0  0
   -4.3486    0.4249    0.0000 C   0  0  0  0  0  0  0  0  0  0  0  0
   -5.1276    0.1500    0.0000 C   0  0  0  0  0  0  0  0  0  0  0  0
   -2.1660    0.4374    0.0000 C   0  0  0  0  0  0  0  0  0  0  0  0
   -0.7623    0.1749    0.0000 O   0  0  0  0  0  0  0  0  0  0  0  0
   -0.2874   -1.1704    0.0000 O   0  0  0  0  0  0  0  0  0  0  0  0
    3.3656    0.2832    0.0000 O   0  0  0  0  0  0  0  0  0  0  0  0
   -2.0161    1.2496    0.0000 O   0  0  0  0  0  0  0  0  0  0  0  0
   -1.5412   -0.0958    0.0000 C   0  0  0  0  0  0  0  0  0  0  0  0
   -2.9449    0.1624    0.0000 N   0  0  0  0  0  0  0  0  0  0  0  0
    1.3413   -1.3746    0.0000 C   0  0  0  0  0  0  0  0  0  0  0  0
    2.9574   -1.0872    0.0000 O   0  0  0  0  0  0  0  0  0  0  0  0
    2.1660    1.4078    0.0000 C   0  0  0  0  0  0  0  0  0  0  0  0
   -3.5739    0.6998    0.0000 C   0  0  0  0  0  0  0  0  0  0  0  0
    3.7488   -1.3204    0.0000 C   0  0  0  0  0  0  0  0  0  0  0  0
  2  1  1  0  0  0  0
  3  2  2  0  0  0  0
  3  4  1  0  0  0  0
  4  5  1  0  0  0  0
  5  1  2  0  0  0  0
  6  3  1  0  0  0  0
  7  1  1  0  0  0  0
  8 20  1  0  0  0  0
  9  8  3  0  0  0  0
 10 15  1  0  0  0  0
 11  6  1  0  0  0  0
 12  6  2  0  0  0  0
 13  7  2  0  0  0  0
 14 10  2  0  0  0  0
 15 11  1  0  0  0  0
 16 10  1  0  0  0  0
 17  2  1  0  0  0  0
 18  7  1  0  0  0  0
 19  5  1  0  0  0  0
 20 16  1  0  0  0  0
 21 18  1  0  0  0  0
M  END
> <CdId>
3062

> <Mol Weight>
292.2872

> <Formula>
C14H16N2O5

> <Click_ID>
CLK040F08 __ __ 

$$$$
