CLK040B04
 OpenBabel03181413202D

 15 15  0  0  0  0  0  0  0  0999 V2000
   -3.1458    0.0583    0.0000 C    0  0  0  0  0  0  0  0  0  0  0  0
   -3.8583    0.4708    0.0000 C    0  0  0  0  0  0  0  0  0  0  0  0
   -1.0042   -0.3542    0.0000 C    0  0  0  0  0  0  0  0  0  0  0  0
    0.4250   -0.3542    0.0000 O    0  0  0  0  0  0  0  0  0  0  0  0
    1.1417    0.0583    0.0000 C    0  0  0  0  0  0  0  0  0  0  0  0
   -1.0042   -1.1792    0.0000 O    0  0  0  0  0  0  0  0  0  0  0  0
    1.8542   -0.3542    0.0000 C    0  0  0  0  0  0  0  0  0  0  0  0
   -0.2875    0.0583    0.0000 C    0  0  0  0  0  0  0  0  0  0  0  0
   -1.7167    0.0583    0.0000 N    0  0  0  0  0  0  0  0  0  0  0  0
    1.8542   -1.1792    0.0000 Cl   0  0  0  0  0  0  0  0  0  0  0  0
   -2.4333   -0.3542    0.0000 C    0  0  0  0  0  0  0  0  0  0  0  0
    1.1417    0.8833    0.0000 C    0  0  0  0  0  0  0  0  0  0  0  0
    2.5708    0.0583    0.0000 C    0  0  0  0  0  0  0  0  0  0  0  0
    2.5708    0.8833    0.0000 C    0  0  0  0  0  0  0  0  0  0  0  0
    1.8542    1.2958    0.0000 C    0  0  0  0  0  0  0  0  0  0  0  0
  2  1  3  0  0  0  0
  3  9  1  0  0  0  0
  4  8  1  0  0  0  0
  5  4  1  0  0  0  0
  6  3  2  0  0  0  0
  7  5  2  0  0  0  0
  8  3  1  0  0  0  0
  9 11  1  0  0  0  0
 10  7  1  0  0  0  0
 11  1  1  0  0  0  0
 12  5  1  0  0  0  0
 13  7  1  0  0  0  0
 14 13  2  0  0  0  0
 15 12  2  0  0  0  0
 15 14  1  0  0  0  0
M  END
> <CdId>
3026

> <Mol Weight>
223.656

> <Formula>
C11H10ClNO2

> <Click_ID>
CLK040B04 __ __ 

$$$$
