CLK025_G11
 OpenBabel03181413202D

 41 45  0  0  0  0  0  0  0  0999 V2000
    0.9068   -0.0663    0.0000 N   0  0  0  0  0  0  0  0  0  0  0  0
    0.9068   -0.8894    0.0000 C   0  0  0  0  0  0  0  0  0  0  0  0
    2.3368   -0.0663    0.0000 C   0  0  0  0  0  0  0  0  0  0  0  0
    1.6114    0.3418    0.0000 C   0  0  3  0  0  0  0  0  0  0  0  0
    0.1256    0.1919    0.0000 C   0  0  0  0  0  0  0  0  0  0  0  0
    1.6183   -1.3044    0.0000 N   0  0  0  0  0  0  0  0  0  0  0  0
   -0.3627   -0.4848    0.0000 C   0  0  0  0  0  0  0  0  0  0  0  0
    2.3368   -0.8894    0.0000 C   0  0  0  0  0  0  0  0  0  0  0  0
    0.1256   -1.1440    0.0000 S   0  0  0  0  0  0  0  0  0  0  0  0
    3.0553    0.3453    0.0000 C   0  0  0  0  0  0  0  0  0  0  0  0
   -1.1859   -0.4848    0.0000 C   0  0  0  0  0  0  0  0  0  0  0  0
   -1.5974   -1.1963    0.0000 C   0  0  0  0  0  0  0  0  0  0  0  0
    1.6078    1.6881    0.0000 C   0  0  0  0  0  0  0  0  0  0  0  0
   -1.1859   -1.9148    0.0000 C   0  0  0  0  0  0  0  0  0  0  0  0
   -4.0702    0.2407    0.0000 C   0  0  0  0  0  0  0  0  0  0  0  0
   -4.4818    0.9557    0.0000 C   0  0  0  0  0  0  0  0  0  0  0  0
    3.7668   -0.0697    0.0000 N   0  0  0  0  0  0  0  0  0  0  0  0
   -2.4205   -1.1963    0.0000 C   0  0  0  0  0  0  0  0  0  0  0  0
   -0.1291    0.9766    0.0000 O   0  0  0  0  0  0  0  0  0  0  0  0
    3.0588    1.1684    0.0000 O   0  0  0  0  0  0  0  0  0  0  0  0
    0.8963    2.0996    0.0000 C   0  0  0  0  0  0  0  0  0  0  0  0
   -1.5974   -2.6193    0.0000 C   0  0  0  0  0  0  0  0  0  0  0  0
   -2.8320   -1.9078    0.0000 C   0  0  0  0  0  0  0  0  0  0  0  0
   -2.4205   -2.6298    0.0000 C   0  0  0  0  0  0  0  0  0  0  0  0
    3.0553   -1.3079    0.0000 C   0  0  0  0  0  0  0  0  0  0  0  0
   -2.8320   -0.4848    0.0000 O   0  0  0  0  0  0  0  0  0  0  0  0
    0.1744    1.6776    0.0000 O   0  0  0  0  0  0  0  0  0  0  0  0
    2.3229    2.0996    0.0000 C   0  0  0  0  0  0  0  0  0  0  0  0
   -3.6587   -0.4778    0.0000 C   0  0  0  0  0  0  0  0  0  0  0  0
   -0.3662   -1.9078    0.0000 C   0  0  0  0  0  0  0  0  0  0  0  0
    4.4783    0.3418    0.0000 C   0  0  0  0  0  0  0  0  0  0  0  0
    3.7599   -0.8963    0.0000 C   0  0  0  0  0  0  0  0  0  0  0  0
    0.8963    2.9297    0.0000 C   0  0  0  0  0  0  0  0  0  0  0  0
   -1.1859   -3.3378    0.0000 C   0  0  0  0  0  0  0  0  0  0  0  0
   -0.5476    2.0892    0.0000 C   0  0  0  0  0  0  0  0  0  0  0  0
    4.4783    1.1684    0.0000 C   0  0  0  0  0  0  0  0  0  0  0  0
    2.3229    2.9297    0.0000 C   0  0  0  0  0  0  0  0  0  0  0  0
    4.4714   -1.3079    0.0000 C   0  0  0  0  0  0  0  0  0  0  0  0
    0.0488   -2.6193    0.0000 C   0  0  0  0  0  0  0  0  0  0  0  0
    1.6078    3.3413    0.0000 C   0  0  0  0  0  0  0  0  0  0  0  0
   -0.3627   -3.3378    0.0000 C   0  0  0  0  0  0  0  0  0  0  0  0
  2  1  1  0  0  0  0
  3  4  1  0  0  0  0
  4  1  1  0  0  0  0
  5  1  1  0  0  0  0
  6  2  2  0  0  0  0
  7  5  1  0  0  0  0
  8  3  2  0  0  0  0
  8  6  1  0  0  0  0
  9  2  1  0  0  0  0
  9  7  1  0  0  0  0
 10  3  1  0  0  0  0
 11  7  2  0  0  0  0
 12 11  1  0  0  0  0
 13  4  1  0  0  0  0
 14 12  1  0  0  0  0
 15 29  1  0  0  0  0
 16 15  3  0  0  0  0
 17 10  1  0  0  0  0
 18 12  2  0  0  0  0
 19  5  2  0  0  0  0
 20 10  2  0  0  0  0
 21 13  1  0  0  0  0
 22 14  2  0  0  0  0
 22 24  1  0  0  0  0
 23 18  1  0  0  0  0
 24 23  2  0  0  0  0
 25  8  1  0  0  0  0
 26 18  1  0  0  0  0
 27 21  1  0  0  0  0
 28 13  2  0  0  0  0
 29 26  1  0  0  0  0
 30 14  1  0  0  0  0
 31 17  1  0  0  0  0
 32 17  1  0  0  0  0
 33 21  2  0  0  0  0
 33 40  1  0  0  0  0
 34 22  1  0  0  0  0
 34 41  2  0  0  0  0
 35 27  1  0  0  0  0
 36 31  1  0  0  0  0
 37 28  1  0  0  0  0
 38 32  1  0  0  0  0
 39 30  2  0  0  0  0
 40 37  2  0  0  0  0
 41 39  1  0  0  0  0
M  END
> <CdId>
1926

> <Mol Weight>
565.682

> <Formula>
C33H31N3O4S

> <Click_ID>
CLK025_G11 __ __ 

$$$$
