CLK025_A06
 OpenBabel03181413202D

 25 27  0  0  0  0  0  0  0  0999 V2000
   -1.0838    0.5998    0.0000 C    0  0  3  0  0  0  0  0  0  0  0  0
   -0.6945   -0.1263    0.0000 C    0  0  0  0  0  0  0  0  0  0  0  0
   -1.2696   -0.7190    0.0000 N    0  0  0  0  0  0  0  0  0  0  0  0
   -1.8940    0.4594    0.0000 C    0  0  0  0  0  0  0  0  0  0  0  0
   -0.1543    1.2275    0.0000 C    0  0  3  0  0  0  0  0  0  0  0  0
   -2.0097   -0.3577    0.0000 C    0  0  0  0  0  0  0  0  0  0  0  0
    0.6383    0.8172    0.0000 C    0  0  0  0  0  0  0  0  0  0  0  0
   -1.7607   -2.0588    0.0000 C    0  0  0  0  0  0  0  0  0  0  0  0
   -2.3920   -2.5920    0.0000 C    0  0  0  0  0  0  0  0  0  0  0  0
    0.1227   -0.2420    0.0000 O    0  0  0  0  0  0  0  0  0  0  0  0
    1.3363    1.2626    0.0000 C    0  0  0  0  0  0  0  0  0  0  0  0
    0.6699    0.1298    0.0000 O    0  0  0  0  0  0  0  0  0  0  0  0
   -1.1294   -1.5292    0.0000 C    0  0  0  0  0  0  0  0  0  0  0  0
   -1.3433    1.5398    0.0000 O    0  0  0  0  0  0  0  0  0  0  0  0
    1.2977    2.0869    0.0000 C    0  0  0  0  0  0  0  0  0  0  0  0
    2.0659    0.8803    0.0000 C    0  0  0  0  0  0  0  0  0  0  0  0
   -2.5393    0.9716    0.0000 C    0  0  0  0  0  0  0  0  0  0  0  0
    2.7252    2.1500    0.0000 C    0  0  0  0  0  0  0  0  0  0  0  0
   -0.2035    2.1360    0.0000 C    0  0  0  0  0  0  0  0  0  0  0  0
    2.7603    1.3258    0.0000 C    0  0  0  0  0  0  0  0  0  0  0  0
    1.9922    2.5288    0.0000 C    0  0  0  0  0  0  0  0  0  0  0  0
    3.4197    2.5954    0.0000 Cl   0  0  0  0  0  0  0  0  0  0  0  0
   -2.7743   -0.6629    0.0000 C    0  0  0  0  0  0  0  0  0  0  0  0
   -3.3039    0.6664    0.0000 C    0  0  0  0  0  0  0  0  0  0  0  0
   -3.4232   -0.1543    0.0000 C    0  0  0  0  0  0  0  0  0  0  0  0
  2  1  1  0  0  0  0
  3  2  1  0  0  0  0
  4  1  1  0  0  0  0
  5  1  1  0  0  0  0
  6  4  2  0  0  0  0
  6  3  1  0  0  0  0
  7  5  1  0  0  0  0
  8 13  1  0  0  0  0
  9  8  3  0  0  0  0
 10  2  2  0  0  0  0
 11  7  1  0  0  0  0
 12  7  2  0  0  0  0
 13  3  1  0  0  0  0
 14  1  1  0  0  0  0
 15 11  2  0  0  0  0
 16 11  1  0  0  0  0
 17  4  1  0  0  0  0
 18 21  2  0  0  0  0
 19  5  1  0  0  0  0
 20 16  2  0  0  0  0
 20 18  1  0  0  0  0
 21 15  1  0  0  0  0
 22 18  1  0  0  0  0
 23  6  1  0  0  0  0
 24 17  2  0  0  0  0
 25 24  1  0  0  0  0
 25 23  2  0  0  0  0
M  END
> <CdId>
1861

> <Mol Weight>
353.799

> <Formula>
C20H16ClNO3

> <Click_ID>
CLK025_A06 __ __ 

$$$$
