CLK041F02
 OpenBabel03181413202D

 18 19  0  0  0  0  0  0  0  0999 V2000
   -1.6708    0.5500    0.0000 S   0  0  0  0  0  0  0  0  0  0  0  0
   -0.9583    0.1375    0.0000 N   0  0  0  0  0  0  0  0  0  0  0  0
   -0.2458    0.5500    0.0000 C   0  0  0  0  0  0  0  0  0  0  0  0
    0.4708    0.1375    0.0000 C   0  0  0  0  0  0  0  0  0  0  0  0
   -0.2458    1.3750    0.0000 N   0  0  0  0  0  0  0  0  0  0  0  0
    0.4708   -0.6875    0.0000 C   0  0  0  0  0  0  0  0  0  0  0  0
   -1.6708    1.3750    0.0000 C   0  0  0  0  0  0  0  0  0  0  0  0
   -2.2333   -0.0542    0.0000 O   0  0  0  0  0  0  0  0  0  0  0  0
   -2.4792    0.3667    0.0000 O   0  0  0  0  0  0  0  0  0  0  0  0
    1.1833    0.5500    0.0000 C   0  0  0  0  0  0  0  0  0  0  0  0
    1.9000   -2.3375    0.0000 C   0  0  0  0  0  0  0  0  0  0  0  0
    2.6125   -2.7500    0.0000 C   0  0  0  0  0  0  0  0  0  0  0  0
   -0.9583    1.7875    0.0000 C   0  0  0  0  0  0  0  0  0  0  0  0
    0.4708    1.7875    0.0000 C   0  0  0  0  0  0  0  0  0  0  0  0
    1.1833    1.3750    0.0000 C   0  0  0  0  0  0  0  0  0  0  0  0
   -0.2458   -1.1000    0.0000 O   0  0  0  0  0  0  0  0  0  0  0  0
    1.1833   -1.1000    0.0000 N   0  0  0  0  0  0  0  0  0  0  0  0
    1.1833   -1.9250    0.0000 C   0  0  0  0  0  0  0  0  0  0  0  0
  2  1  1  0  0  0  0
  3  2  2  0  0  0  0
  4  3  1  0  0  0  0
  5  3  1  0  0  0  0
  6  4  1  0  0  0  0
  7  1  1  0  0  0  0
  8  1  2  0  0  0  0
  9  1  2  0  0  0  0
 10  4  2  0  0  0  0
 11 18  1  0  0  0  0
 12 11  3  0  0  0  0
 13  7  1  0  0  0  0
 13  5  1  0  0  0  0
 14  5  1  0  0  0  0
 14 15  2  0  0  0  0
 15 10  1  0  0  0  0
 16  6  2  0  0  0  0
 17  6  1  0  0  0  0
 18 17  1  0  0  0  0
M  END
> <CdId>
3094

> <Mol Weight>
265.288

> <Formula>
C11H11N3O3S

> <Click_ID>
CLK041F02 __ __ 

$$$$
