CLK020_B02
 OpenBabel03181413202D

 31 33  0  0  0  0  0  0  0  0999 V2000
    2.4370    3.4035    0.0000 C   0  0  0  0  0  0  0  0  0  0  0  0
    3.1516    3.8158    0.0000 C   0  0  0  0  0  0  0  0  0  0  0  0
    1.7224    3.8158    0.0000 C   0  0  3  0  0  0  0  0  0  0  0  0
    2.4370    5.0434    0.0000 C   0  0  0  0  0  0  0  0  0  0  0  0
    3.1516    4.6312    0.0000 N   0  0  0  0  0  0  0  0  0  0  0  0
    1.7224    4.6312    0.0000 N   0  0  0  0  0  0  0  0  0  0  0  0
    2.4370    2.5789    0.0000 C   0  0  0  0  0  0  0  0  0  0  0  0
    1.0078    3.4035    0.0000 C   0  0  0  0  0  0  0  0  0  0  0  0
    0.2932    3.8158    0.0000 C   0  0  0  0  0  0  0  0  0  0  0  0
   -1.8506    0.9299    0.0000 C   0  0  0  0  0  0  0  0  0  0  0  0
   -2.5652    0.5176    0.0000 C   0  0  0  0  0  0  0  0  0  0  0  0
   -0.4214    3.4035    0.0000 C   0  0  0  0  0  0  0  0  0  0  0  0
    2.4370    5.8680    0.0000 S   0  0  0  0  0  0  0  0  0  0  0  0
    3.8662    3.4035    0.0000 C   0  0  0  0  0  0  0  0  0  0  0  0
   -0.4214    2.5789    0.0000 C   0  0  0  0  0  0  0  0  0  0  0  0
    1.0078    2.5789    0.0000 C   0  0  0  0  0  0  0  0  0  0  0  0
    3.1516    2.1667    0.0000 O   0  0  0  0  0  0  0  0  0  0  0  0
    0.2932    2.1667    0.0000 C   0  0  0  0  0  0  0  0  0  0  0  0
    1.7224    2.1667    0.0000 O   0  0  0  0  0  0  0  0  0  0  0  0
   -1.1360    3.8158    0.0000 O   0  0  0  0  0  0  0  0  0  0  0  0
   -1.1360    2.1667    0.0000 O   0  0  0  0  0  0  0  0  0  0  0  0
   -1.1360    1.3421    0.0000 C   0  0  0  0  0  0  0  0  0  0  0  0
    3.8662    2.5789    0.0000 C   0  0  0  0  0  0  0  0  0  0  0  0
    4.5808    3.8158    0.0000 C   0  0  0  0  0  0  0  0  0  0  0  0
    1.7224    1.3421    0.0000 C   0  0  0  0  0  0  0  0  0  0  0  0
   -1.1360    4.6312    0.0000 C   0  0  0  0  0  0  0  0  0  0  0  0
   -1.8506    5.0434    0.0000 C   0  0  0  0  0  0  0  0  0  0  0  0
    1.0078    0.9299    0.0000 C   0  0  0  0  0  0  0  0  0  0  0  0
    5.2954    3.4035    0.0000 C   0  0  0  0  0  0  0  0  0  0  0  0
    4.5808    2.1667    0.0000 C   0  0  0  0  0  0  0  0  0  0  0  0
    5.2954    2.5789    0.0000 C   0  0  0  0  0  0  0  0  0  0  0  0
  2  1  2  0  0  0  0
  3  1  1  0  0  0  0
  4  6  1  0  0  0  0
  4  5  1  0  0  0  0
  5  2  1  0  0  0  0
  6  3  1  0  0  0  0
  7  1  1  0  0  0  0
  8  3  1  0  0  0  0
  9  8  2  0  0  0  0
 10 22  1  0  0  0  0
 11 10  3  0  0  0  0
 12  9  1  0  0  0  0
 13  4  2  0  0  0  0
 14  2  1  0  0  0  0
 15 18  1  0  0  0  0
 15 12  2  0  0  0  0
 16  8  1  0  0  0  0
 17  7  2  0  0  0  0
 18 16  2  0  0  0  0
 19  7  1  0  0  0  0
 20 12  1  0  0  0  0
 21 15  1  0  0  0  0
 22 21  1  0  0  0  0
 23 14  1  0  0  0  0
 24 14  2  0  0  0  0
 25 19  1  0  0  0  0
 26 20  1  0  0  0  0
 27 26  1  0  0  0  0
 28 25  1  0  0  0  0
 29 24  1  0  0  0  0
 30 23  2  0  0  0  0
 31 29  2  0  0  0  0
 31 30  1  0  0  0  0
M  END
> <CdId>
1487

> <Mol Weight>
436.523

> <Formula>
C24H24N2O4S

> <Click_ID>
CLK020_B02 __ __ 

$$$$
