CLK014_E03
 OpenBabel03181413202D

 28 31  0  0  0  0  0  0  0  0999 V2000
    1.5672   -0.8170    0.0000 N   0  0  0  0  0  0  0  0  0  0  0  0
    1.8256   -1.6047    0.0000 C   0  0  0  0  0  0  0  0  0  0  0  0
    4.5264    1.3879    0.0000 N   0  0  0  0  0  0  0  0  0  0  0  0
    2.9051   -0.8170    0.0000 C   0  0  0  0  0  0  0  0  0  0  0  0
    2.2382   -0.3293    0.0000 C   0  0  0  0  0  0  0  0  0  0  0  0
    3.8554    0.2459    0.0000 C   0  0  0  0  0  0  0  0  0  0  0  0
    2.6508   -1.6047    0.0000 S   0  0  0  0  0  0  0  0  0  0  0  0
    3.7179    1.5588    0.0000 C   0  0  0  0  0  0  0  0  0  0  0  0
    4.6140    0.5710    0.0000 C   0  0  0  0  0  0  0  0  0  0  0  0
    3.6929   -0.5627    0.0000 C   0  0  0  0  0  0  0  0  0  0  0  0
    3.3053    0.8503    0.0000 C   0  0  0  0  0  0  0  0  0  0  0  0
    5.1391    1.9464    0.0000 C   0  0  0  0  0  0  0  0  0  0  0  0
    5.9186    1.6838    0.0000 C   0  0  0  0  0  0  0  0  0  0  0  0
    0.6127    0.2459    0.0000 C   0  0  0  0  0  0  0  0  0  0  0  0
    0.3918    1.0461    0.0000 C   0  0  0  0  0  0  0  0  0  0  0  0
    1.3379   -2.2674    0.0000 O   0  0  0  0  0  0  0  0  0  0  0  0
    2.2299    0.4960    0.0000 O   0  0  0  0  0  0  0  0  0  0  0  0
    6.5188    2.2257    0.0000 C   0  0  0  0  0  0  0  0  0  0  0  0
    0.7878   -0.5627    0.0000 C   0  0  0  0  0  0  0  0  0  0  0  0
    4.9558    2.7467    0.0000 C   0  0  0  0  0  0  0  0  0  0  0  0
    5.5810    3.2969    0.0000 C   0  0  0  0  0  0  0  0  0  0  0  0
    6.3562    3.0468    0.0000 C   0  0  0  0  0  0  0  0  0  0  0  0
    3.3803    2.3132    0.0000 C   0  0  0  0  0  0  0  0  0  0  0  0
    5.3184    0.1584    0.0000 C   0  0  0  0  0  0  0  0  0  0  0  0
    7.3065    1.9714    0.0000 C   0  0  0  0  0  0  0  0  0  0  0  0
    6.9772    3.5844    0.0000 C   0  0  0  0  0  0  0  0  0  0  0  0
    7.9275    2.5091    0.0000 C   0  0  0  0  0  0  0  0  0  0  0  0
    7.7567    3.3219    0.0000 C   0  0  0  0  0  0  0  0  0  0  0  0
  2  1  1  0  0  0  0
  3  9  1  0  0  0  0
  3  8  1  0  0  0  0
  4  5  1  0  0  0  0
  4  7  1  0  0  0  0
  5  1  1  0  0  0  0
  6 10  1  0  0  0  0
  7  2  1  0  0  0  0
  8 11  2  0  0  0  0
  9  6  2  0  0  0  0
 10  4  2  0  0  0  0
 11  6  1  0  0  0  0
 12  3  1  0  0  0  0
 13 12  2  0  0  0  0
 14 19  1  0  0  0  0
 15 14  3  0  0  0  0
 16  2  2  0  0  0  0
 17  5  2  0  0  0  0
 18 13  1  0  0  0  0
 19  1  1  0  0  0  0
 20 12  1  0  0  0  0
 21 20  2  0  0  0  0
 22 21  1  0  0  0  0
 22 18  1  0  0  0  0
 23  8  1  0  0  0  0
 24  9  1  0  0  0  0
 25 18  2  0  0  0  0
 26 22  2  0  0  0  0
 27 25  1  0  0  0  0
 27 28  2  0  0  0  0
 28 26  1  0  0  0  0
M  END
> <CdId>
1038

> <Mol Weight>
386.466

> <Formula>
C23H18N2O2S

> <Click_ID>
CLK014_E03 __ __ 

$$$$
