CLK002_H09
 OpenBabel03181413202D

 26 29  0  0  0  0  0  0  0  0999 V2000
   -1.0117   -0.6768    0.0000 C   0  0  0  0  0  0  0  0  0  0  0  0
   -0.3038   -0.2659    0.0000 C   0  0  0  0  0  0  0  0  0  0  0  0
   -1.7265   -0.2659    0.0000 C   0  0  0  0  0  0  0  0  0  0  0  0
   -1.7265   -1.0912    0.0000 C   0  0  0  0  0  0  0  0  0  0  0  0
   -0.3004   -1.0912    0.0000 C   0  0  0  0  0  0  0  0  0  0  0  0
   -0.3004    0.5594    0.0000 C   0  0  0  0  0  0  0  0  0  0  0  0
    0.4075   -0.6803    0.0000 C   0  0  0  0  0  0  0  0  0  0  0  0
   -1.7265    0.5594    0.0000 C   0  0  0  0  0  0  0  0  0  0  0  0
   -1.7265   -1.9199    0.0000 C   0  0  0  0  0  0  0  0  0  0  0  0
   -0.3004   -1.9199    0.0000 C   0  0  0  0  0  0  0  0  0  0  0  0
   -1.0117    0.9773    0.0000 C   0  0  0  0  0  0  0  0  0  0  0  0
    0.4144    0.9738    0.0000 N   0  0  0  0  0  0  0  0  0  0  0  0
    1.1257   -0.2763    0.0000 N   0  0  0  0  0  0  0  0  0  0  0  0
    0.4006   -1.5055    0.0000 O   0  0  0  0  0  0  0  0  0  0  0  0
   -2.4413    0.9634    0.0000 C   0  0  0  0  0  0  0  0  0  0  0  0
   -1.0152   -2.3309    0.0000 C   0  0  0  0  0  0  0  0  0  0  0  0
   -1.0186    1.8025    0.0000 C   0  0  0  0  0  0  0  0  0  0  0  0
    1.1292    0.5525    0.0000 C   0  0  0  0  0  0  0  0  0  0  0  0
    1.8371   -0.6941    0.0000 C   0  0  0  0  0  0  0  0  0  0  0  0
   -2.4517    1.7853    0.0000 C   0  0  0  0  0  0  0  0  0  0  0  0
   -1.7403    2.2065    0.0000 C   0  0  0  0  0  0  0  0  0  0  0  0
    1.8440    0.9634    0.0000 S   0  0  0  0  0  0  0  0  0  0  0  0
    1.8302   -1.5193    0.0000 C   0  0  0  0  0  0  0  0  0  0  0  0
    2.5588    0.5456    0.0000 C   0  0  0  0  0  0  0  0  0  0  0  0
    3.2701    0.9634    0.0000 C   0  0  0  0  0  0  0  0  0  0  0  0
    3.9815    1.3812    0.0000 C   0  0  0  0  0  0  0  0  0  0  0  0
  1  2  1  0  0  0  0
  1  3  1  0  0  0  0
  1  4  1  0  0  0  0
  1  5  1  0  0  0  0
  2  6  2  0  0  0  0
  2  7  1  0  0  0  0
  3  8  1  0  0  0  0
  4  9  1  0  0  0  0
  5 10  1  0  0  0  0
  6 11  1  0  0  0  0
  6 12  1  0  0  0  0
  7 13  1  0  0  0  0
  7 14  2  0  0  0  0
  8 15  1  0  0  0  0
  8 11  2  0  0  0  0
  9 16  1  0  0  0  0
 10 16  1  0  0  0  0
 11 17  1  0  0  0  0
 12 18  2  0  0  0  0
 13 19  1  0  0  0  0
 13 18  1  0  0  0  0
 15 20  2  0  0  0  0
 17 21  2  0  0  0  0
 18 22  1  0  0  0  0
 19 23  1  0  0  0  0
 20 21  1  0  0  0  0
 22 24  1  0  0  0  0
 24 25  1  0  0  0  0
 25 26  3  0  0  0  0
M  END
> <CdId>
158

> <Mol Weight>
364.504

> <Formula>
C22H24N2OS

> <Click_ID>
CLK002_H09 __ __ 

$$$$
