CLK051H03
 OpenBabel03181413202D

 18 18  0  0  0  0  0  0  0  0999 V2000
   -0.5167   -2.7250    0.0000 C   0  0  0  0  0  0  0  0  0  0  0  0
    0.1958    1.8125    0.0000 C   0  0  0  0  0  0  0  0  0  0  0  0
    1.6250    3.4625    0.0000 C   0  0  0  0  0  0  0  0  0  0  0  0
    2.3417    3.8750    0.0000 C   0  0  0  0  0  0  0  0  0  0  0  0
   -0.5167   -1.9000    0.0000 C   0  0  0  0  0  0  0  0  0  0  0  0
    0.1958    0.9875    0.0000 N   0  0  0  0  0  0  0  0  0  0  0  0
   -0.5167    2.2250    0.0000 O   0  0  0  0  0  0  0  0  0  0  0  0
    0.3083   -2.7250    0.0000 F   0  0  0  0  0  0  0  0  0  0  0  0
   -1.3417   -2.7250    0.0000 F   0  0  0  0  0  0  0  0  0  0  0  0
   -0.5167   -3.5500    0.0000 F   0  0  0  0  0  0  0  0  0  0  0  0
    0.9125    2.2250    0.0000 N   0  0  0  0  0  0  0  0  0  0  0  0
    0.1958   -1.4875    0.0000 C   0  0  0  0  0  0  0  0  0  0  0  0
   -1.2333   -1.4875    0.0000 C   0  0  0  0  0  0  0  0  0  0  0  0
   -0.5167    0.5750    0.0000 C   0  0  0  0  0  0  0  0  0  0  0  0
   -0.5167   -0.2500    0.0000 C   0  0  0  0  0  0  0  0  0  0  0  0
   -1.2333   -0.6625    0.0000 C   0  0  0  0  0  0  0  0  0  0  0  0
    0.1958   -0.6625    0.0000 C   0  0  0  0  0  0  0  0  0  0  0  0
    0.9125    3.0500    0.0000 C   0  0  0  0  0  0  0  0  0  0  0  0
  2  6  1  0  0  0  0
  3 18  1  0  0  0  0
  4  3  3  0  0  0  0
  5  1  1  0  0  0  0
  6 14  1  0  0  0  0
  7  2  2  0  0  0  0
  8  1  1  0  0  0  0
  9  1  1  0  0  0  0
 10  1  1  0  0  0  0
 11  2  1  0  0  0  0
 12  5  1  0  0  0  0
 13  5  2  0  0  0  0
 14 15  1  0  0  0  0
 15 16  2  0  0  0  0
 15 17  1  0  0  0  0
 16 13  1  0  0  0  0
 17 12  2  0  0  0  0
 18 11  1  0  0  0  0
M  END
> <CdId>
3904

> <Mol Weight>
256.2237

> <Formula>
C12H11F3N2O

> <Click_ID>
CLK051H03 __ __ 

$$$$
