CLK022_E04
 OpenBabel03181413202D

 23 24  0  0  0  0  0  0  0  0999 V2000
    5.7796    1.5491    0.0000 C   0  0  0  0  0  0  0  0  0  0  0  0
    5.3671    0.8341    0.0000 N   0  0  0  0  0  0  0  0  0  0  0  0
   10.3171    2.2550    0.0000 C   0  0  0  0  0  0  0  0  0  0  0  0
   11.1421    2.2550    0.0000 C   0  0  0  0  0  0  0  0  0  0  0  0
    6.6046    1.5491    0.0000 C   0  0  0  0  0  0  0  0  0  0  0  0
    1.6546    0.1191    0.0000 C   0  0  0  0  0  0  0  0  0  0  0  0
    2.0671    0.8341    0.0000 N   0  0  0  0  0  0  0  0  0  0  0  0
    5.3671    2.2550    0.0000 O   0  0  0  0  0  0  0  0  0  0  0  0
    0.8296    0.1191    0.0000 O   0  0  0  0  0  0  0  0  0  0  0  0
    7.0171    0.8341    0.0000 C   0  0  0  0  0  0  0  0  0  0  0  0
    7.0171    2.2550    0.0000 C   0  0  0  0  0  0  0  0  0  0  0  0
    4.5421    0.8341    0.0000 C   0  0  0  0  0  0  0  0  0  0  0  0
    2.8921    0.8341    0.0000 C   0  0  0  0  0  0  0  0  0  0  0  0
    8.2546    1.5491    0.0000 C   0  0  0  0  0  0  0  0  0  0  0  0
    7.8421    0.8341    0.0000 C   0  0  0  0  0  0  0  0  0  0  0  0
    7.8421    2.2550    0.0000 C   0  0  0  0  0  0  0  0  0  0  0  0
    4.1296    0.1191    0.0000 C   0  0  0  0  0  0  0  0  0  0  0  0
    4.1296    1.5491    0.0000 C   0  0  0  0  0  0  0  0  0  0  0  0
    3.3046    1.5491    0.0000 C   0  0  0  0  0  0  0  0  0  0  0  0
    3.3046    0.1191    0.0000 C   0  0  0  0  0  0  0  0  0  0  0  0
    9.4921    2.2550    0.0000 C   0  0  0  0  0  0  0  0  0  0  0  0
    9.0796    1.5491    0.0000 O   0  0  0  0  0  0  0  0  0  0  0  0
    2.0671   -0.5959    0.0000 C   0  0  0  0  0  0  0  0  0  0  0  0
  2  1  1  0  0  0  0
  3 21  1  0  0  0  0
  4  3  3  0  0  0  0
  5  1  1  0  0  0  0
  6  7  1  0  0  0  0
  7 13  1  0  0  0  0
  8  1  2  0  0  0  0
  9  6  2  0  0  0  0
 10  5  1  0  0  0  0
 11  5  2  0  0  0  0
 12  2  1  0  0  0  0
 13 19  2  0  0  0  0
 13 20  1  0  0  0  0
 14 16  2  0  0  0  0
 14 15  1  0  0  0  0
 15 10  2  0  0  0  0
 16 11  1  0  0  0  0
 17 12  1  0  0  0  0
 18 12  2  0  0  0  0
 19 18  1  0  0  0  0
 20 17  2  0  0  0  0
 21 22  1  0  0  0  0
 22 14  1  0  0  0  0
 23  6  1  0  0  0  0
M  END
> <CdId>
1671

> <Mol Weight>
308.3312

> <Formula>
C18H16N2O3

> <Click_ID>
CLK022_E04 __ __ 

$$$$
