CLK037H03
 OpenBabel03181413202D

 27 30  0  0  0  0  0  0  0  0999 V2000
    0.1042   -0.8708    0.0000 C   0  0  0  0  0  0  0  0  0  0  0  0
    0.8875   -0.6167    0.0000 N   0  0  0  0  0  0  0  0  0  0  0  0
   -0.3833   -0.2042    0.0000 N   0  0  0  0  0  0  0  0  0  0  0  0
    0.8875    0.2083    0.0000 C   0  0  0  0  0  0  0  0  0  0  0  0
    0.1042    0.4625    0.0000 C   0  0  0  0  0  0  0  0  0  0  0  0
   -0.1500   -1.6583    0.0000 C   0  0  0  0  0  0  0  0  0  0  0  0
   -2.8708   -0.7750    0.0000 C   0  0  0  0  0  0  0  0  0  0  0  0
   -3.4208   -0.1583    0.0000 C   0  0  0  0  0  0  0  0  0  0  0  0
    1.5542    0.6917    0.0000 C   0  0  0  0  0  0  0  0  0  0  0  0
   -0.1500    1.2458    0.0000 C   0  0  0  0  0  0  0  0  0  0  0  0
   -0.9583   -1.8292    0.0000 C   0  0  0  0  0  0  0  0  0  0  0  0
    0.4000   -2.2708    0.0000 C   0  0  0  0  0  0  0  0  0  0  0  0
   -1.5125   -1.2167    0.0000 O   0  0  0  0  0  0  0  0  0  0  0  0
   -2.3167   -1.3875    0.0000 C   0  0  0  0  0  0  0  0  0  0  0  0
   -0.9583    1.4208    0.0000 C   0  0  0  0  0  0  0  0  0  0  0  0
    0.4000    1.8625    0.0000 C   0  0  0  0  0  0  0  0  0  0  0  0
    2.3083    0.3583    0.0000 C   0  0  0  0  0  0  0  0  0  0  0  0
    1.4708    1.5125    0.0000 C   0  0  0  0  0  0  0  0  0  0  0  0
   -1.2125   -2.6125    0.0000 C   0  0  0  0  0  0  0  0  0  0  0  0
    0.1458   -3.0542    0.0000 C   0  0  0  0  0  0  0  0  0  0  0  0
    0.1458    2.6458    0.0000 C   0  0  0  0  0  0  0  0  0  0  0  0
   -1.2125    2.2042    0.0000 C   0  0  0  0  0  0  0  0  0  0  0  0
    2.9750    0.8417    0.0000 C   0  0  0  0  0  0  0  0  0  0  0  0
    2.1375    2.0000    0.0000 C   0  0  0  0  0  0  0  0  0  0  0  0
   -0.6625   -3.2250    0.0000 C   0  0  0  0  0  0  0  0  0  0  0  0
   -0.6625    2.8167    0.0000 C   0  0  0  0  0  0  0  0  0  0  0  0
    2.8917    1.6625    0.0000 C   0  0  0  0  0  0  0  0  0  0  0  0
  2  1  2  0  0  0  0
  3  1  1  0  0  0  0
  4  2  1  0  0  0  0
  5  3  1  0  0  0  0
  5  4  2  0  0  0  0
  6  1  1  0  0  0  0
  7 14  1  0  0  0  0
  8  7  3  0  0  0  0
  9  4  1  0  0  0  0
 10  5  1  0  0  0  0
 11  6  2  0  0  0  0
 12  6  1  0  0  0  0
 13 11  1  0  0  0  0
 14 13  1  0  0  0  0
 15 10  2  0  0  0  0
 16 10  1  0  0  0  0
 17  9  1  0  0  0  0
 18  9  2  0  0  0  0
 19 11  1  0  0  0  0
 20 12  2  0  0  0  0
 20 25  1  0  0  0  0
 21 16  2  0  0  0  0
 22 15  1  0  0  0  0
 23 17  2  0  0  0  0
 24 18  1  0  0  0  0
 25 19  2  0  0  0  0
 26 22  2  0  0  0  0
 26 21  1  0  0  0  0
 27 24  2  0  0  0  0
 27 23  1  0  0  0  0
M  END
> <CdId>
2784

> <Mol Weight>
350.4125

> <Formula>
C24H18N2O

> <Click_ID>
CLK037H03 __ __ 

$$$$
