CLK021_E11
 OpenBabel03181413202D

 18 18  0  0  0  0  0  0  0  0999 V2000
    3.2478    2.1713    0.0000 C    0  0  0  0  0  0  0  0  0  0  0  0
    5.2817    2.6751    0.0000 C    0  0  0  0  0  0  0  0  0  0  0  0
    4.0724    2.1713    0.0000 N    0  0  0  0  0  0  0  0  0  0  0  0
    6.0787    2.4599    0.0000 C    0  0  0  0  0  0  0  0  0  0  0  0
    2.8355    1.4567    0.0000 N    0  0  0  0  0  0  0  0  0  0  0  0
    4.4846    2.8859    0.0000 C    0  0  0  0  0  0  0  0  0  0  0  0
    2.8355    2.8859    0.0000 O    0  0  0  0  0  0  0  0  0  0  0  0
    2.0110    1.4567    0.0000 C    0  0  0  0  0  0  0  0  0  0  0  0
    0.3619    1.4567    0.0000 C    0  0  0  0  0  0  0  0  0  0  0  0
   -0.4626    1.4567    0.0000 Cl   0  0  0  0  0  0  0  0  0  0  0  0
    1.5987    0.7421    0.0000 C    0  0  0  0  0  0  0  0  0  0  0  0
    1.5987    2.1713    0.0000 C    0  0  0  0  0  0  0  0  0  0  0  0
    0.7742    2.1713    0.0000 C    0  0  0  0  0  0  0  0  0  0  0  0
    0.7742    0.7421    0.0000 C    0  0  0  0  0  0  0  0  0  0  0  0
    4.7686    3.6646    0.0000 C    0  0  0  0  0  0  0  0  0  0  0  0
    3.7425    3.2386    0.0000 C    0  0  0  0  0  0  0  0  0  0  0  0
    4.2373    4.2967    0.0000 C    0  0  0  0  0  0  0  0  0  0  0  0
    3.6692    4.0540    0.0000 C    0  0  0  0  0  0  0  0  0  0  0  0
  2  6  1  0  0  0  0
  3  1  1  0  0  0  0
  4  2  3  0  0  0  0
  5  1  1  0  0  0  0
  6  3  1  0  0  0  0
  7  1  2  0  0  0  0
  8  5  1  0  0  0  0
  9 13  1  0  0  0  0
  9 14  2  0  0  0  0
 10  9  1  0  0  0  0
 11  8  2  0  0  0  0
 12  8  1  0  0  0  0
 13 12  2  0  0  0  0
 14 11  1  0  0  0  0
 15  6  1  0  0  0  0
 16  6  1  0  0  0  0
 17 15  1  0  0  0  0
 18 16  1  0  0  0  0
M  END
> <CdId>
1606

> <Mol Weight>
264.751

> <Formula>
C14H17ClN2O

> <Click_ID>
CLK021_E11 __ __ 

$$$$
