CLK044H04
 OpenBabel03181413202D

 18 18  0  0  0  0  0  0  0  0999 V2000
    3.5708    0.1833    0.0000 C   0  0  0  0  0  0  0  0  0  0  0  0
    4.2833   -0.2292    0.0000 C   0  0  0  0  0  0  0  0  0  0  0  0
    1.4250    0.5958    0.0000 C   0  0  0  0  0  0  0  0  0  0  0  0
   -2.1458   -0.6417    0.0000 C   0  0  0  0  0  0  0  0  0  0  0  0
   -2.1458    0.1833    0.0000 C   0  0  0  0  0  0  0  0  0  0  0  0
   -1.4292   -1.0542    0.0000 C   0  0  0  0  0  0  0  0  0  0  0  0
    1.4250    1.4208    0.0000 O   0  0  0  0  0  0  0  0  0  0  0  0
   -0.7167    0.1833    0.0000 C   0  0  0  0  0  0  0  0  0  0  0  0
    2.1417    0.1833    0.0000 N   0  0  0  0  0  0  0  0  0  0  0  0
   -0.7167   -0.6417    0.0000 C   0  0  0  0  0  0  0  0  0  0  0  0
   -1.4292    0.5958    0.0000 C   0  0  0  0  0  0  0  0  0  0  0  0
    0.7125    0.1833    0.0000 C   0  0  0  0  0  0  0  0  0  0  0  0
    0.0000    0.5958    0.0000 C   0  0  0  0  0  0  0  0  0  0  0  0
    2.8542    0.5958    0.0000 C   0  0  0  0  0  0  0  0  0  0  0  0
   -2.8583    0.5958    0.0000 O   0  0  0  0  0  0  0  0  0  0  0  0
   -1.4292   -1.8792    0.0000 O   0  0  0  0  0  0  0  0  0  0  0  0
   -2.8583    1.4208    0.0000 C   0  0  0  0  0  0  0  0  0  0  0  0
   -0.7167   -2.2917    0.0000 C   0  0  0  0  0  0  0  0  0  0  0  0
  2  1  3  0  0  0  0
  3  9  1  0  0  0  0
  4  5  1  0  0  0  0
  4  6  2  0  0  0  0
  5 11  2  0  0  0  0
  6 10  1  0  0  0  0
  7  3  2  0  0  0  0
  8 13  1  0  0  0  0
  9 14  1  0  0  0  0
 10  8  2  0  0  0  0
 11  8  1  0  0  0  0
 12  3  1  0  0  0  0
 13 12  1  0  0  0  0
 14  1  1  0  0  0  0
 15  5  1  0  0  0  0
 16  6  1  0  0  0  0
 17 15  1  0  0  0  0
 18 16  1  0  0  0  0
M  END
> <CdId>
3352

> <Mol Weight>
247.2897

> <Formula>
C14H17NO3

> <Click_ID>
CLK044H04 __ __ 

$$$$
