CLK007_D02
 OpenBabel03181413202D

 33 37  0  0  0  0  0  0  0  0999 V2000
    6.2559  -19.2033    0.0000 C   0  0  3  0  0  0  0  0  0  0  0  0
    5.8573  -19.9215    0.0000 C   0  0  0  0  0  0  0  0  0  0  0  0
    5.0270  -19.9256    0.0000 C   0  0  0  0  0  0  0  0  0  0  0  0
    5.8449  -18.4935    0.0000 C   0  0  0  0  0  0  0  0  0  0  0  0
    4.6078  -19.2075    0.0000 N   0  0  0  0  0  0  0  0  0  0  0  0
    6.9491  -18.7467    0.0000 C   0  0  0  0  0  0  0  0  0  0  0  0
    5.0146  -18.4893    0.0000 C   0  0  0  0  0  0  0  0  0  0  0  0
    7.5967  -19.2532    0.0000 N   0  0  0  0  0  0  0  0  0  0  0  0
    6.4800  -19.9962    0.0000 C   0  0  0  0  0  0  0  0  0  0  0  0
    7.3060  -20.0335    0.0000 C   0  0  0  0  0  0  0  0  0  0  0  0
    3.7776  -19.2116    0.0000 C   0  0  0  0  0  0  0  0  0  0  0  0
    5.5667  -20.6936    0.0000 C   0  0  0  0  0  0  0  0  0  0  0  0
    6.2475  -17.7754    0.0000 C   0  0  0  0  0  0  0  0  0  0  0  0
    5.2845  -21.4699    0.0000 N   0  0  0  0  0  0  0  0  0  0  0  0
    8.9790  -19.5977    0.0000 C   0  0  0  0  0  0  0  0  0  0  0  0
    9.4647  -20.2619    0.0000 C   0  0  0  0  0  0  0  0  0  0  0  0
    7.2189  -17.9622    0.0000 O   0  0  0  0  0  0  0  0  0  0  0  0
    4.4957  -20.5608    0.0000 N   0  0  0  0  0  0  0  0  0  0  0  0
    3.3749  -19.9256    0.0000 C   0  0  0  0  0  0  0  0  0  0  0  0
    8.3937  -19.0290    0.0000 C   0  0  0  0  0  0  0  0  0  0  0  0
    6.9283  -17.2938    0.0000 O   0  0  0  0  0  0  0  0  0  0  0  0
    4.5995  -17.7878    0.0000 C   0  0  0  0  0  0  0  0  0  0  0  0
    6.0441  -20.6936    0.0000 C   0  0  0  0  0  0  0  0  0  0  0  0
    2.5530  -19.9256    0.0000 C   0  0  0  0  0  0  0  0  0  0  0  0
    3.3749  -18.4893    0.0000 C   0  0  0  0  0  0  0  0  0  0  0  0
    7.6963  -20.7600    0.0000 C   0  0  0  0  0  0  0  0  0  0  0  0
    5.8324  -17.0655    0.0000 C   0  0  0  0  0  0  0  0  0  0  0  0
    5.0021  -17.0696    0.0000 C   0  0  0  0  0  0  0  0  0  0  0  0
    2.5488  -18.4935    0.0000 C   0  0  0  0  0  0  0  0  0  0  0  0
    2.1254  -19.2116    0.0000 C   0  0  0  0  0  0  0  0  0  0  0  0
    2.1378  -20.6397    0.0000 C   0  0  0  0  0  0  0  0  0  0  0  0
    6.4343  -21.4283    0.0000 C   0  0  0  0  0  0  0  0  0  0  0  0
    7.2562  -21.4616    0.0000 C   0  0  0  0  0  0  0  0  0  0  0  0
  2  1  1  0  0  0  0
  3  2  2  0  0  0  0
  4  1  1  0  0  0  0
  5  7  1  0  0  0  0
  5  3  1  0  0  0  0
  6  1  1  0  0  0  0
  7  4  2  0  0  0  0
  8  6  1  0  0  0  0
  8 10  1  0  0  0  0
  9  1  1  0  0  0  0
 10  9  2  0  0  0  0
 11  5  1  0  0  0  0
 12  2  1  0  0  0  0
 13  4  1  0  0  0  0
 14 12  3  0  0  0  0
 15 20  1  0  0  0  0
 16 15  3  0  0  0  0
 17  6  2  0  0  0  0
 18  3  1  0  0  0  0
 19 11  1  0  0  0  0
 20  8  1  0  0  0  0
 21 13  2  0  0  0  0
 22  7  1  0  0  0  0
 23  9  1  0  0  0  0
 24 19  2  0  0  0  0
 25 11  2  0  0  0  0
 26 10  1  0  0  0  0
 27 13  1  0  0  0  0
 28 27  1  0  0  0  0
 28 22  1  0  0  0  0
 29 25  1  0  0  0  0
 30 29  2  0  0  0  0
 30 24  1  0  0  0  0
 31 24  1  0  0  0  0
 32 23  2  0  0  0  0
 33 32  1  0  0  0  0
 33 26  2  0  0  0  0
M  END
> <CdId>
511

> <Mol Weight>
434.4892

> <Formula>
C27H22N4O2

> <Click_ID>
CLK007_D02 __ __ 

$$$$
