CLK038E10
 OpenBabel03181413202D

 19 20  0  0  0  0  0  0  0  0999 V2000
    0.7500   -0.7792    0.0000 C   0  0  0  0  0  0  0  0  0  0  0  0
    0.7500    0.0458    0.0000 C   0  0  0  0  0  0  0  0  0  0  0  0
    0.0375    0.4583    0.0000 C   0  0  0  0  0  0  0  0  0  0  0  0
    2.1792   -2.4292    0.0000 C   0  0  0  0  0  0  0  0  0  0  0  0
    2.8917   -2.8417    0.0000 C   0  0  0  0  0  0  0  0  0  0  0  0
   -0.6792    0.0458    0.0000 C   0  0  0  0  0  0  0  0  0  0  0  0
    0.0375   -1.1917    0.0000 O   0  0  0  0  0  0  0  0  0  0  0  0
    1.4625   -1.1917    0.0000 N   0  0  0  0  0  0  0  0  0  0  0  0
   -1.3917    0.4583    0.0000 C   0  0  0  0  0  0  0  0  0  0  0  0
    1.4625   -2.0167    0.0000 C   0  0  0  0  0  0  0  0  0  0  0  0
    0.0375    1.2833    0.0000 C   0  0  0  0  0  0  0  0  0  0  0  0
    1.4625    0.4583    0.0000 C   0  0  0  0  0  0  0  0  0  0  0  0
   -1.3917    1.2833    0.0000 C   0  0  0  0  0  0  0  0  0  0  0  0
   -2.1083    0.0458    0.0000 C   0  0  0  0  0  0  0  0  0  0  0  0
    0.7500    1.6958    0.0000 C   0  0  0  0  0  0  0  0  0  0  0  0
    1.4625    1.2833    0.0000 C   0  0  0  0  0  0  0  0  0  0  0  0
   -2.8208    0.4583    0.0000 C   0  0  0  0  0  0  0  0  0  0  0  0
   -2.1083    1.6958    0.0000 C   0  0  0  0  0  0  0  0  0  0  0  0
   -2.8208    1.2833    0.0000 C   0  0  0  0  0  0  0  0  0  0  0  0
  2  1  1  0  0  0  0
  3  2  2  0  0  0  0
  4 10  1  0  0  0  0
  5  4  3  0  0  0  0
  6  3  1  0  0  0  0
  7  1  2  0  0  0  0
  8  1  1  0  0  0  0
  9  6  1  0  0  0  0
 10  8  1  0  0  0  0
 11  3  1  0  0  0  0
 12  2  1  0  0  0  0
 13  9  1  0  0  0  0
 14  9  2  0  0  0  0
 15 11  2  0  0  0  0
 15 16  1  0  0  0  0
 16 12  2  0  0  0  0
 17 14  1  0  0  0  0
 18 13  2  0  0  0  0
 19 17  2  0  0  0  0
 19 18  1  0  0  0  0
M  END
> <CdId>
2917

> <Mol Weight>
249.3071

> <Formula>
C17H15NO

> <Click_ID>
CLK038E10 __ __ 

$$$$
