CLK052C03
 OpenBabel03181413202D

 19 19  0  0  0  0  0  0  0  0999 V2000
    1.8417    0.8500    0.0000 C   0  0  0  0  0  0  0  0  0  0  0  0
    1.8417   -0.8000    0.0000 N   0  0  0  0  0  0  0  0  0  0  0  0
    3.2708    1.6750    0.0000 N   0  0  0  0  0  0  0  0  0  0  0  0
    2.5542    1.2625    0.0000 C   0  0  0  0  0  0  0  0  0  0  0  0
    1.8417    0.0250    0.0000 C   0  0  0  0  0  0  0  0  0  0  0  0
   -3.1625   -0.3875    0.0000 C   0  0  0  0  0  0  0  0  0  0  0  0
    1.1250    1.2625    0.0000 C   0  0  0  0  0  0  0  0  0  0  0  0
   -3.8750   -0.8000    0.0000 C   0  0  0  0  0  0  0  0  0  0  0  0
   -0.3042   -0.3875    0.0000 C   0  0  0  0  0  0  0  0  0  0  0  0
    0.4125    0.8500    0.0000 C   0  0  0  0  0  0  0  0  0  0  0  0
    0.4125    0.0250    0.0000 C   0  0  0  0  0  0  0  0  0  0  0  0
   -1.0167    0.0250    0.0000 C   0  0  0  0  0  0  0  0  0  0  0  0
   -1.0167    0.8500    0.0000 C   0  0  0  0  0  0  0  0  0  0  0  0
   -0.3042    1.2625    0.0000 C   0  0  0  0  0  0  0  0  0  0  0  0
   -0.3042   -1.2125    0.0000 O   0  0  0  0  0  0  0  0  0  0  0  0
   -1.7333   -0.3875    0.0000 O   0  0  0  0  0  0  0  0  0  0  0  0
   -2.4458    0.0250    0.0000 C   0  0  0  0  0  0  0  0  0  0  0  0
    0.4125   -1.6250    0.0000 C   0  0  0  0  0  0  0  0  0  0  0  0
    0.4125   -2.4500    0.0000 C   0  0  0  0  0  0  0  0  0  0  0  0
  2  5  3  0  0  0  0
  3  4  3  0  0  0  0
  4  1  1  0  0  0  0
  5  1  1  0  0  0  0
  6 17  1  0  0  0  0
  7  1  2  0  0  0  0
  8  6  3  0  0  0  0
  9 11  1  0  0  0  0
 10  7  1  0  0  0  0
 11 10  2  0  0  0  0
 12 13  1  0  0  0  0
 12  9  2  0  0  0  0
 13 14  2  0  0  0  0
 14 10  1  0  0  0  0
 15  9  1  0  0  0  0
 16 12  1  0  0  0  0
 17 16  1  0  0  0  0
 18 15  1  0  0  0  0
 19 18  1  0  0  0  0
M  END
> <CdId>
3979

> <Mol Weight>
252.268

> <Formula>
C15H12N2O2

> <Click_ID>
CLK052C03 __ __ 

$$$$
