CLK051B11
 OpenBabel03181413202D

 21 22  0  0  0  0  0  0  0  0999 V2000
   -0.4458    0.9250    0.0000 C   0  0  0  0  0  0  0  0  0  0  0  0
    0.2708   -0.3125    0.0000 N   0  0  0  0  0  0  0  0  0  0  0  0
    0.2708    0.5125    0.0000 C   0  0  0  0  0  0  0  0  0  0  0  0
   -1.1583    0.5125    0.0000 C   0  0  0  0  0  0  0  0  0  0  0  0
    0.9833   -0.7250    0.0000 C   0  0  0  0  0  0  0  0  0  0  0  0
    0.9833   -1.5500    0.0000 C   0  0  0  0  0  0  0  0  0  0  0  0
   -3.3042    0.9250    0.0000 C   0  0  0  0  0  0  0  0  0  0  0  0
   -4.0167    1.3375    0.0000 C   0  0  0  0  0  0  0  0  0  0  0  0
   -1.1583   -0.3125    0.0000 O   0  0  0  0  0  0  0  0  0  0  0  0
    1.7000   -1.9625    0.0000 C   0  0  0  0  0  0  0  0  0  0  0  0
   -1.8750    0.9250    0.0000 N   0  0  0  0  0  0  0  0  0  0  0  0
   -2.5875    0.5125    0.0000 C   0  0  0  0  0  0  0  0  0  0  0  0
   -0.4458    1.7500    0.0000 C   0  0  0  0  0  0  0  0  0  0  0  0
    1.7000   -0.3125    0.0000 C   0  0  0  0  0  0  0  0  0  0  0  0
    0.9833    0.9250    0.0000 C   0  0  0  0  0  0  0  0  0  0  0  0
    2.4125   -0.7250    0.0000 C   0  0  0  0  0  0  0  0  0  0  0  0
    0.2708   -1.9625    0.0000 C   0  0  0  0  0  0  0  0  0  0  0  0
    2.4125   -1.5500    0.0000 C   0  0  0  0  0  0  0  0  0  0  0  0
    1.7000   -2.7875    0.0000 C   0  0  0  0  0  0  0  0  0  0  0  0
    0.2708    2.1625    0.0000 C   0  0  0  0  0  0  0  0  0  0  0  0
    0.9833    1.7500    0.0000 C   0  0  0  0  0  0  0  0  0  0  0  0
  2  3  1  0  0  0  0
  3  1  2  0  0  0  0
  4  1  1  0  0  0  0
  5  2  1  0  0  0  0
  6  5  1  0  0  0  0
  7 12  1  0  0  0  0
  8  7  3  0  0  0  0
  9  4  2  0  0  0  0
 10  6  2  0  0  0  0
 11  4  1  0  0  0  0
 12 11  1  0  0  0  0
 13  1  1  0  0  0  0
 14  5  2  0  0  0  0
 15  3  1  0  0  0  0
 16 14  1  0  0  0  0
 16 18  2  0  0  0  0
 17  6  1  0  0  0  0
 18 10  1  0  0  0  0
 19 10  1  0  0  0  0
 20 13  2  0  0  0  0
 20 21  1  0  0  0  0
 21 15  2  0  0  0  0
M  END
> <CdId>
3962

> <Mol Weight>
278.3483

> <Formula>
C18H18N2O

> <Click_ID>
CLK051B11 __ __ 

$$$$
