CLK011_G06
 OpenBabel03181413202D

 22 23  0  0  0  0  0  0  0  0999 V2000
   -0.4944   -0.2198    0.0000 C   0  0  0  0  0  0  0  0  0  0  0  0
   -0.9083    0.4835    0.0000 N   0  0  0  0  0  0  0  0  0  0  0  0
   -1.7323    0.4944    0.0000 C   0  0  0  0  0  0  0  0  0  0  0  0
    0.3333   -0.2198    0.0000 C   0  0  0  0  0  0  0  0  0  0  0  0
   -0.8973   -0.9266    0.0000 C   0  0  0  0  0  0  0  0  0  0  0  0
    1.9595    1.2049    0.0000 C   0  0  0  0  0  0  0  0  0  0  0  0
    2.3623    1.9081    0.0000 C   0  0  0  0  0  0  0  0  0  0  0  0
   -2.1499   -0.2198    0.0000 O   0  0  0  0  0  0  0  0  0  0  0  0
   -2.1279    1.2159    0.0000 C   0  0  0  0  0  0  0  0  0  0  0  0
    0.7508   -0.9376    0.0000 O   0  0  0  0  0  0  0  0  0  0  0  0
    0.7362    0.5017    0.0000 O   0  0  0  0  0  0  0  0  0  0  0  0
    1.5529    0.5017    0.0000 C   0  0  0  0  0  0  0  0  0  0  0  0
   -0.4835   -1.6518    0.0000 C   0  0  0  0  0  0  0  0  0  0  0  0
   -1.7141   -0.9266    0.0000 C   0  0  0  0  0  0  0  0  0  0  0  0
   -1.7104    1.9411    0.0000 C   0  0  0  0  0  0  0  0  0  0  0  0
   -2.9629    1.2269    0.0000 C   0  0  0  0  0  0  0  0  0  0  0  0
   -0.8973   -2.3733    0.0000 C   0  0  0  0  0  0  0  0  0  0  0  0
   -2.1279   -1.6591    0.0000 C   0  0  0  0  0  0  0  0  0  0  0  0
   -2.1206    2.6553    0.0000 C   0  0  0  0  0  0  0  0  0  0  0  0
   -3.3695    1.9448    0.0000 C   0  0  0  0  0  0  0  0  0  0  0  0
   -1.7323   -2.3770    0.0000 C   0  0  0  0  0  0  0  0  0  0  0  0
   -2.9447    2.6663    0.0000 C   0  0  0  0  0  0  0  0  0  0  0  0
  2  1  1  0  0  0  0
  3  2  1  0  0  0  0
  4  1  1  0  0  0  0
  5  1  2  0  0  0  0
  6 12  1  0  0  0  0
  7  6  3  0  0  0  0
  8  3  2  0  0  0  0
  9  3  1  0  0  0  0
 10  4  2  0  0  0  0
 11  4  1  0  0  0  0
 12 11  1  0  0  0  0
 13  5  1  0  0  0  0
 14  5  1  0  0  0  0
 15  9  2  0  0  0  0
 16  9  1  0  0  0  0
 17 13  1  0  0  0  0
 17 21  1  0  0  0  0
 18 14  1  0  0  0  0
 19 15  1  0  0  0  0
 19 22  2  0  0  0  0
 20 16  2  0  0  0  0
 21 18  1  0  0  0  0
 22 20  1  0  0  0  0
M  END
> <CdId>
821

> <Mol Weight>
297.3484

> <Formula>
C18H19NO3

> <Click_ID>
CLK011_G06 __ __ 

$$$$
