CLK023_G06
 OpenBabel03181413202D

 25 26  0  0  0  0  0  0  0  0999 V2000
    2.7608   -0.5405    0.0000 N   0  0  0  0  0  0  0  0  0  0  0  0
    2.0517   -0.9501    0.0000 C   0  0  0  0  0  0  0  0  0  0  0  0
    2.5990    0.2685    0.0000 C   0  0  0  0  0  0  0  0  0  0  0  0
    1.7798    0.3615    0.0000 C   0  0  0  0  0  0  0  0  0  0  0  0
    1.4423   -0.3890    0.0000 S   0  0  0  0  0  0  0  0  0  0  0  0
    1.3701    1.0775    0.0000 C   0  0  0  0  0  0  0  0  0  0  0  0
   -1.1325    1.0809    0.0000 C   0  0  0  0  0  0  0  0  0  0  0  0
   -0.6988    1.8107    0.0000 C   0  0  0  0  0  0  0  0  0  0  0  0
   -0.7091    0.3683    0.0000 C   0  0  0  0  0  0  0  0  0  0  0  0
    0.5335    1.0775    0.0000 C   0  0  0  0  0  0  0  0  0  0  0  0
    3.6042   -1.6971    0.0000 C   0  0  0  0  0  0  0  0  0  0  0  0
    3.5939   -2.5164    0.0000 C   0  0  0  0  0  0  0  0  0  0  0  0
    1.9622   -1.7694    0.0000 O   0  0  0  0  0  0  0  0  0  0  0  0
    0.1239    1.8038    0.0000 C   0  0  0  0  0  0  0  0  0  0  0  0
    3.1567    0.8778    0.0000 O   0  0  0  0  0  0  0  0  0  0  0  0
    0.1205    0.3683    0.0000 C   0  0  0  0  0  0  0  0  0  0  0  0
    3.5216   -0.8743    0.0000 C   0  0  0  0  0  0  0  0  0  0  0  0
   -3.1980    0.3683    0.0000 C   0  0  0  0  0  0  0  0  0  0  0  0
   -3.6077   -0.3408    0.0000 C   0  0  0  0  0  0  0  0  0  0  0  0
   -1.1119    2.5198    0.0000 I   0  0  0  0  0  0  0  0  0  0  0  0
   -1.9518    1.0912    0.0000 O   0  0  0  0  0  0  0  0  0  0  0  0
   -1.1188   -0.3408    0.0000 O   0  0  0  0  0  0  0  0  0  0  0  0
   -2.3684    0.3718    0.0000 C   0  0  0  0  0  0  0  0  0  0  0  0
   -0.7091   -1.0602    0.0000 C   0  0  0  0  0  0  0  0  0  0  0  0
   -1.1222   -1.7694    0.0000 C   0  0  0  0  0  0  0  0  0  0  0  0
  2  1  1  0  0  0  0
  3  1  1  0  0  0  0
  4  3  1  0  0  0  0
  5  2  1  0  0  0  0
  5  4  1  0  0  0  0
  6  4  2  0  0  0  0
  7  9  1  0  0  0  0
  8 14  1  0  0  0  0
  8  7  2  0  0  0  0
  9 16  2  0  0  0  0
 10  6  1  0  0  0  0
 11 17  1  0  0  0  0
 12 11  3  0  0  0  0
 13  2  2  0  0  0  0
 14 10  2  0  0  0  0
 15  3  2  0  0  0  0
 16 10  1  0  0  0  0
 17  1  1  0  0  0  0
 18 23  1  0  0  0  0
 19 18  2  0  0  0  0
 20  8  1  0  0  0  0
 21  7  1  0  0  0  0
 22  9  1  0  0  0  0
 23 21  1  0  0  0  0
 24 22  1  0  0  0  0
 25 24  1  0  0  0  0
M  END
> <CdId>
1761

> <Mol Weight>
469.293

> <Formula>
C18H16INO4S

> <Click_ID>
CLK023_G06 __ __ 

$$$$
