CLK052G05
 OpenBabel03181413202D

 19 21  0  0  0  0  0  0  0  0999 V2000
    0.1458    0.4042    0.0000 C    0  0  0  0  0  0  0  0  0  0  0  0
   -0.3375    1.0708    0.0000 N    0  0  0  0  0  0  0  0  0  0  0  0
   -0.3375   -0.2625    0.0000 N    0  0  0  0  0  0  0  0  0  0  0  0
   -1.1208   -0.0083    0.0000 C    0  0  0  0  0  0  0  0  0  0  0  0
   -1.1208    0.8167    0.0000 C    0  0  0  0  0  0  0  0  0  0  0  0
    0.9708    0.4042    0.0000 C    0  0  0  0  0  0  0  0  0  0  0  0
   -0.6333   -1.6625    0.0000 C    0  0  0  0  0  0  0  0  0  0  0  0
   -1.1875   -2.2750    0.0000 C    0  0  0  0  0  0  0  0  0  0  0  0
    1.3833   -0.3125    0.0000 C    0  0  0  0  0  0  0  0  0  0  0  0
   -0.0833   -1.0500    0.0000 C    0  0  0  0  0  0  0  0  0  0  0  0
    2.2083   -0.3125    0.0000 C    0  0  0  0  0  0  0  0  0  0  0  0
    2.6208   -1.0250    0.0000 Br   0  0  0  0  0  0  0  0  0  0  0  0
    1.3833    1.1167    0.0000 C    0  0  0  0  0  0  0  0  0  0  0  0
   -1.8375   -0.4208    0.0000 C    0  0  0  0  0  0  0  0  0  0  0  0
   -1.8375    1.2292    0.0000 C    0  0  0  0  0  0  0  0  0  0  0  0
    2.2083    1.1167    0.0000 C    0  0  0  0  0  0  0  0  0  0  0  0
    2.6208    0.4042    0.0000 C    0  0  0  0  0  0  0  0  0  0  0  0
   -2.5500   -0.0083    0.0000 C    0  0  0  0  0  0  0  0  0  0  0  0
   -2.5500    0.8167    0.0000 C    0  0  0  0  0  0  0  0  0  0  0  0
  2  1  2  0  0  0  0
  3  1  1  0  0  0  0
  4  3  1  0  0  0  0
  4  5  2  0  0  0  0
  5  2  1  0  0  0  0
  6  1  1  0  0  0  0
  7 10  1  0  0  0  0
  8  7  3  0  0  0  0
  9  6  1  0  0  0  0
 10  3  1  0  0  0  0
 11  9  2  0  0  0  0
 12 11  1  0  0  0  0
 13  6  2  0  0  0  0
 14  4  1  0  0  0  0
 15  5  1  0  0  0  0
 16 13  1  0  0  0  0
 16 17  2  0  0  0  0
 17 11  1  0  0  0  0
 18 14  2  0  0  0  0
 18 19  1  0  0  0  0
 19 15  2  0  0  0  0
M  END
> <CdId>
3999

> <Mol Weight>
311.176

> <Formula>
C16H11BrN2

> <Click_ID>
CLK052G05 __ __ 

$$$$
