CLK024_H07
 OpenBabel03181413202D

 27 28  0  0  0  0  0  0  0  0999 V2000
   -1.6276   -1.9434    0.0000 N   0  0  0  0  0  0  0  0  0  0  0  0
   -1.3803   -2.7263    0.0000 C   0  0  0  0  0  0  0  0  0  0  0  0
   -0.9718   -1.4593    0.0000 C   0  0  0  0  0  0  0  0  0  0  0  0
   -0.2987   -1.9434    0.0000 C   0  0  0  0  0  0  0  0  0  0  0  0
   -0.5528   -2.7263    0.0000 S   0  0  0  0  0  0  0  0  0  0  0  0
    0.4842   -1.6894    0.0000 C   0  0  0  0  0  0  0  0  0  0  0  0
    0.6558   -0.8824    0.0000 C   0  0  0  0  0  0  0  0  0  0  0  0
    0.2232    0.4842    0.0000 C   0  0  0  0  0  0  0  0  0  0  0  0
    1.0130    0.7279    0.0000 C   0  0  0  0  0  0  0  0  0  0  0  0
    1.6207    0.1683    0.0000 C   0  0  0  0  0  0  0  0  0  0  0  0
    2.1735    2.5924    0.0000 C   0  0  0  0  0  0  0  0  0  0  0  0
    2.3452    3.3959    0.0000 C   0  0  0  0  0  0  0  0  0  0  0  0
   -1.8645   -3.3959    0.0000 O   0  0  0  0  0  0  0  0  0  0  0  0
   -0.9718   -0.6352    0.0000 O   0  0  0  0  0  0  0  0  0  0  0  0
    0.0480   -0.3228    0.0000 C   0  0  0  0  0  0  0  0  0  0  0  0
    1.4387   -0.6387    0.0000 C   0  0  0  0  0  0  0  0  0  0  0  0
   -2.4104   -1.6894    0.0000 C   0  0  0  0  0  0  0  0  0  0  0  0
   -3.0217   -2.2422    0.0000 C   0  0  0  0  0  0  0  0  0  0  0  0
    3.0182   -0.1168    0.0000 C   0  0  0  0  0  0  0  0  0  0  0  0
   -3.8046   -1.9916    0.0000 C   0  0  0  0  0  0  0  0  0  0  0  0
    3.8011    0.1305    0.0000 C   0  0  0  0  0  0  0  0  0  0  0  0
   -0.3743    1.0404    0.0000 O   0  0  0  0  0  0  0  0  0  0  0  0
    1.1915    1.5349    0.0000 O   0  0  0  0  0  0  0  0  0  0  0  0
    2.4036    0.4292    0.0000 C   0  0  0  0  0  0  0  0  0  0  0  0
    1.9846    1.7855    0.0000 C   0  0  0  0  0  0  0  0  0  0  0  0
   -1.1572    0.7897    0.0000 C   0  0  0  0  0  0  0  0  0  0  0  0
   -1.7580    1.3494    0.0000 C   0  0  0  0  0  0  0  0  0  0  0  0
  2  1  1  0  0  0  0
  3  1  1  0  0  0  0
  4  3  1  0  0  0  0
  4  5  1  0  0  0  0
  5  2  1  0  0  0  0
  6  4  2  0  0  0  0
  7  6  1  0  0  0  0
  8 15  1  0  0  0  0
  9 10  1  0  0  0  0
  9  8  2  0  0  0  0
 10 16  2  0  0  0  0
 11 25  1  0  0  0  0
 12 11  3  0  0  0  0
 13  2  2  0  0  0  0
 14  3  2  0  0  0  0
 15  7  2  0  0  0  0
 16  7  1  0  0  0  0
 17  1  1  0  0  0  0
 18 17  1  0  0  0  0
 19 24  1  0  0  0  0
 20 18  2  0  0  0  0
 21 19  2  0  0  0  0
 22  8  1  0  0  0  0
 23  9  1  0  0  0  0
 24 10  1  0  0  0  0
 25 23  1  0  0  0  0
 26 22  1  0  0  0  0
 27 26  1  0  0  0  0
M  END
> <CdId>
1852

> <Mol Weight>
383.461

> <Formula>
C21H21NO4S

> <Click_ID>
CLK024_H07 __ __ 

$$$$
