CLK036_D06
 OpenBabel03181413202D

 15 16  0  0  0  0  0  0  0  0999 V2000
   -2.7729    0.6691    0.0000 C   0  0  0  0  0  0  0  0  0  0  0  0
   -3.4788    1.0816    0.0000 C   0  0  0  0  0  0  0  0  0  0  0  0
   -3.4788    1.9066    0.0000 C   0  0  0  0  0  0  0  0  0  0  0  0
   -3.4788    4.3816    0.0000 C   0  0  0  0  0  0  0  0  0  0  0  0
   -2.0579    1.0816    0.0000 N   0  0  0  0  0  0  0  0  0  0  0  0
   -3.4788    5.2021    0.0000 C   0  0  0  0  0  0  0  0  0  0  0  0
   -4.1891    2.3191    0.0000 C   0  0  0  0  0  0  0  0  0  0  0  0
   -2.7729   -0.1559    0.0000 O   0  0  0  0  0  0  0  0  0  0  0  0
   -2.0579    1.9066    0.0000 C   0  0  0  0  0  0  0  0  0  0  0  0
   -4.1891    3.1441    0.0000 O   0  0  0  0  0  0  0  0  0  0  0  0
   -2.7729    2.3191    0.0000 C   0  0  0  0  0  0  0  0  0  0  0  0
   -4.1891    0.6691    0.0000 C   0  0  0  0  0  0  0  0  0  0  0  0
   -3.4788    3.5566    0.0000 C   0  0  0  0  0  0  0  0  0  0  0  0
   -4.9041    1.0816    0.0000 C   0  0  0  0  0  0  0  0  0  0  0  0
   -4.9041    1.9066    0.0000 C   0  0  0  0  0  0  0  0  0  0  0  0
  2  1  1  0  0  0  0
  3  2  2  0  0  0  0
  3 11  1  0  0  0  0
  4 13  1  0  0  0  0
  5  1  1  0  0  0  0
  6  4  3  0  0  0  0
  7  3  1  0  0  0  0
  8  1  2  0  0  0  0
  9  5  1  0  0  0  0
 10  7  1  0  0  0  0
 11  9  1  0  0  0  0
 12  2  1  0  0  0  0
 13 10  1  0  0  0  0
 14 12  2  0  0  0  0
 15 14  1  0  0  0  0
 15  7  2  0  0  0  0
M  END
> <CdId>
2748

> <Mol Weight>
201.2212

> <Formula>
C12H11NO2

> <Click_ID>
CLK036_D06 __ __ 

$$$$
