CLK021_A03
 OpenBabel03181413202D

 21 22  0  0  0  0  0  0  0  0999 V2000
    1.6400    2.6477    0.0000 C    0  0  0  0  0  0  0  0  0  0  0  0
    1.6400    3.4722    0.0000 C    0  0  0  0  0  0  0  0  0  0  0  0
    0.9254    2.2354    0.0000 C    0  0  0  0  0  0  0  0  0  0  0  0
    0.2108    1.8231    0.0000 N    0  0  0  0  0  0  0  0  0  0  0  0
    5.9230    3.4722    0.0000 C    0  0  0  0  0  0  0  0  0  0  0  0
    6.6376    3.0599    0.0000 C    0  0  0  0  0  0  0  0  0  0  0  0
    2.3546    2.2354    0.0000 C    0  0  0  0  0  0  0  0  0  0  0  0
    2.3546    3.8845    0.0000 C    0  0  0  0  0  0  0  0  0  0  0  0
    2.3546    1.4108    0.0000 C    0  0  0  0  0  0  0  0  0  0  0  0
    3.0645    2.6477    0.0000 C    0  0  0  0  0  0  0  0  0  0  0  0
    3.0645    3.4722    0.0000 C    0  0  0  0  0  0  0  0  0  0  0  0
    3.7792    1.4108    0.0000 C    0  0  0  0  0  0  0  0  0  0  0  0
    3.7792    2.2354    0.0000 C    0  0  0  0  0  0  0  0  0  0  0  0
    3.0645    0.9986    0.0000 C    0  0  0  0  0  0  0  0  0  0  0  0
    3.7792    3.8845    0.0000 C    0  0  0  0  0  0  0  0  0  0  0  0
    4.4938    0.9986    0.0000 Br   0  0  0  0  0  0  0  0  0  0  0  0
    5.2084    3.8845    0.0000 C    0  0  0  0  0  0  0  0  0  0  0  0
    4.4938    3.4722    0.0000 O    0  0  0  0  0  0  0  0  0  0  0  0
    3.0645    5.1122    0.0000 C    0  0  0  0  0  0  0  0  0  0  0  0
    2.3546    4.6999    0.0000 C    0  0  0  0  0  0  0  0  0  0  0  0
    3.7792    4.6999    0.0000 C    0  0  0  0  0  0  0  0  0  0  0  0
  2  1  2  0  0  0  0
  3  1  1  0  0  0  0
  4  3  3  0  0  0  0
  5 17  1  0  0  0  0
  6  5  3  0  0  0  0
  7  1  1  0  0  0  0
  8  2  1  0  0  0  0
  9  7  2  0  0  0  0
 10  7  1  0  0  0  0
 11  8  1  0  0  0  0
 12 13  1  0  0  0  0
 12 14  2  0  0  0  0
 13 10  2  0  0  0  0
 14  9  1  0  0  0  0
 15 11  2  0  0  0  0
 16 12  1  0  0  0  0
 17 18  1  0  0  0  0
 18 15  1  0  0  0  0
 19 20  1  0  0  0  0
 20  8  2  0  0  0  0
 21 19  2  0  0  0  0
 21 15  1  0  0  0  0
M  END
> <CdId>
1558

> <Mol Weight>
338.198

> <Formula>
C18H12BrNO

> <Click_ID>
CLK021_A03 __ __ 

$$$$
