CLK011_C07
 OpenBabel03181413202D

 23 24  0  0  0  0  0  0  0  0999 V2000
    2.0522   -0.1970    0.0000 C   0  0  0  0  0  0  0  0  0  0  0  0
    3.4814   -0.1970    0.0000 N   0  0  0  0  0  0  0  0  0  0  0  0
    2.7668   -1.4338    0.0000 N   0  0  0  0  0  0  0  0  0  0  0  0
    2.7668    0.2153    0.0000 C   0  0  0  0  0  0  0  0  0  0  0  0
    2.0522   -1.0216    0.0000 C   0  0  0  0  0  0  0  0  0  0  0  0
    3.4814   -1.0216    0.0000 C   0  0  0  0  0  0  0  0  0  0  0  0
    1.3376    0.2153    0.0000 C   0  0  0  0  0  0  0  0  0  0  0  0
   -2.2354   -2.6706    0.0000 C   0  0  0  0  0  0  0  0  0  0  0  0
   -2.2354   -3.4952    0.0000 C   0  0  0  0  0  0  0  0  0  0  0  0
    4.1960   -1.4338    0.0000 S   0  0  0  0  0  0  0  0  0  0  0  0
   -0.8062   -0.1970    0.0000 C   0  0  0  0  0  0  0  0  0  0  0  0
    1.3376   -1.4338    0.0000 O   0  0  0  0  0  0  0  0  0  0  0  0
    2.7668    1.0398    0.0000 O   0  0  0  0  0  0  0  0  0  0  0  0
    0.6230   -0.1970    0.0000 C   0  0  0  0  0  0  0  0  0  0  0  0
   -0.0916    0.2153    0.0000 C   0  0  0  0  0  0  0  0  0  0  0  0
   -0.8062   -1.0216    0.0000 C   0  0  0  0  0  0  0  0  0  0  0  0
   -0.0916   -1.4338    0.0000 C   0  0  0  0  0  0  0  0  0  0  0  0
    0.6230   -1.0216    0.0000 C   0  0  0  0  0  0  0  0  0  0  0  0
   -1.5208    0.2153    0.0000 O   0  0  0  0  0  0  0  0  0  0  0  0
   -1.5208   -1.4338    0.0000 O   0  0  0  0  0  0  0  0  0  0  0  0
   -1.5208   -2.2584    0.0000 C   0  0  0  0  0  0  0  0  0  0  0  0
   -1.5208    1.0398    0.0000 C   0  0  0  0  0  0  0  0  0  0  0  0
   -2.2354    1.4521    0.0000 C   0  0  0  0  0  0  0  0  0  0  0  0
  2  4  1  0  0  0  0
  2  6  1  0  0  0  0
  3  5  1  0  0  0  0
  4  1  1  0  0  0  0
  5  1  1  0  0  0  0
  6  3  1  0  0  0  0
  7  1  2  0  0  0  0
  8 21  1  0  0  0  0
  9  8  3  0  0  0  0
 10  6  2  0  0  0  0
 11 15  2  0  0  0  0
 11 16  1  0  0  0  0
 12  5  2  0  0  0  0
 13  4  2  0  0  0  0
 14  7  1  0  0  0  0
 15 14  1  0  0  0  0
 16 17  2  0  0  0  0
 17 18  1  0  0  0  0
 18 14  2  0  0  0  0
 19 11  1  0  0  0  0
 20 16  1  0  0  0  0
 21 20  1  0  0  0  0
 22 19  1  0  0  0  0
 23 22  1  0  0  0  0
M  END
> <CdId>
782

> <Mol Weight>
330.358

> <Formula>
C16H14N2O4S

> <Click_ID>
CLK011_C07 __ __ 

$$$$
