CLK017_B02
 OpenBabel03181413202D

 27 29  0  0  0  0  0  0  0  0999 V2000
    3.3958   -0.6599    0.0000 C   0  0  0  0  0  0  0  0  0  0  0  0
    2.1356   -1.0907    0.0000 N   0  0  0  0  0  0  0  0  0  0  0  0
    2.9283   -1.3382    0.0000 C   0  0  0  0  0  0  0  0  0  0  0  0
    2.1310   -0.2658    0.0000 N   0  0  0  0  0  0  0  0  0  0  0  0
    2.9008   -0.0046    0.0000 C   0  0  0  0  0  0  0  0  0  0  0  0
    4.2207   -0.6462    0.0000 C   0  0  0  0  0  0  0  0  0  0  0  0
    5.9438   -4.8989    0.0000 C   0  0  0  0  0  0  0  0  0  0  0  0
    6.3700   -5.6092    0.0000 C   0  0  0  0  0  0  0  0  0  0  0  0
    1.4757   -1.5856    0.0000 C   0  0  0  0  0  0  0  0  0  0  0  0
    3.1942   -2.1172    0.0000 O   0  0  0  0  0  0  0  0  0  0  0  0
    5.8888   -2.0393    0.0000 C   0  0  0  0  0  0  0  0  0  0  0  0
    3.1392    0.7790    0.0000 O   0  0  0  0  0  0  0  0  0  0  0  0
    4.6377   -1.3519    0.0000 C   0  0  0  0  0  0  0  0  0  0  0  0
    5.4626   -1.3382    0.0000 C   0  0  0  0  0  0  0  0  0  0  0  0
    5.4901   -2.7680    0.0000 C   0  0  0  0  0  0  0  0  0  0  0  0
    4.6652   -2.7817    0.0000 C   0  0  0  0  0  0  0  0  0  0  0  0
    4.2390   -2.0760    0.0000 C   0  0  0  0  0  0  0  0  0  0  0  0
    6.7137   -2.0256    0.0000 O   0  0  0  0  0  0  0  0  0  0  0  0
    5.9163   -3.4691    0.0000 O   0  0  0  0  0  0  0  0  0  0  0  0
    5.5176   -4.1932    0.0000 C   0  0  0  0  0  0  0  0  0  0  0  0
    0.7195   -1.2557    0.0000 C   0  0  0  0  0  0  0  0  0  0  0  0
    1.5719   -2.4059    0.0000 C   0  0  0  0  0  0  0  0  0  0  0  0
    7.1399   -2.7359    0.0000 C   0  0  0  0  0  0  0  0  0  0  0  0
    7.9648   -2.7221    0.0000 C   0  0  0  0  0  0  0  0  0  0  0  0
    0.9074   -2.9008    0.0000 C   0  0  0  0  0  0  0  0  0  0  0  0
    0.0550   -1.7506    0.0000 C   0  0  0  0  0  0  0  0  0  0  0  0
    0.1512   -2.5709    0.0000 C   0  0  0  0  0  0  0  0  0  0  0  0
  2  3  1  0  0  0  0
  3  1  1  0  0  0  0
  4  5  1  0  0  0  0
  4  2  1  0  0  0  0
  5  1  1  0  0  0  0
  6  1  2  0  0  0  0
  7 20  1  0  0  0  0
  8  7  3  0  0  0  0
  9  2  1  0  0  0  0
 10  3  2  0  0  0  0
 11 14  1  0  0  0  0
 12  5  2  0  0  0  0
 13  6  1  0  0  0  0
 14 13  2  0  0  0  0
 15 16  1  0  0  0  0
 15 11  2  0  0  0  0
 16 17  2  0  0  0  0
 17 13  1  0  0  0  0
 18 11  1  0  0  0  0
 19 15  1  0  0  0  0
 20 19  1  0  0  0  0
 21  9  1  0  0  0  0
 22  9  2  0  0  0  0
 23 18  1  0  0  0  0
 24 23  1  0  0  0  0
 25 22  1  0  0  0  0
 26 21  2  0  0  0  0
 26 27  1  0  0  0  0
 27 25  2  0  0  0  0
M  END
> <CdId>
1247

> <Mol Weight>
362.3786

> <Formula>
C21H18N2O4

> <Click_ID>
CLK017_B02 __ __ 

$$$$
