CLK045C06
 OpenBabel03181413202D

 23 25  0  0  0  0  0  0  0  0999 V2000
   -1.7421    0.6584    0.0000 N   0  0  0  0  0  0  0  0  0  0  0  0
   -0.9585    0.4043    0.0000 C   0  0  0  0  0  0  0  0  0  0  0  0
   -0.4751    1.0710    0.0000 N   0  0  0  0  0  0  0  0  0  0  0  0
   -0.9585    1.7379    0.0000 N   0  0  0  0  0  0  0  0  0  0  0  0
   -1.7421    1.4836    0.0000 C   0  0  0  0  0  0  0  0  0  0  0  0
    1.7587    1.2878    0.0000 C   0  0  0  0  0  0  0  0  0  0  0  0
   -2.4588    0.2459    0.0000 C   0  0  0  0  0  0  0  0  0  0  0  0
    1.5045    2.0712    0.0000 C   0  0  0  0  0  0  0  0  0  0  0  0
    0.1042   -0.5543    0.0000 N   0  0  0  0  0  0  0  0  0  0  0  0
   -0.7044   -0.3793    0.0000 C   0  0  3  0  0  0  0  0  0  0  0  0
    1.1670   -1.5086    0.0000 C   0  0  0  0  0  0  0  0  0  0  0  0
   -2.4588    1.8962    0.0000 C   0  0  0  0  0  0  0  0  0  0  0  0
    0.3584   -1.3378    0.0000 C   0  0  0  0  0  0  0  0  0  0  0  0
   -3.1715    0.6584    0.0000 C   0  0  0  0  0  0  0  0  0  0  0  0
    1.7171   -0.8960    0.0000 C   0  0  0  0  0  0  0  0  0  0  0  0
   -3.1715    1.4836    0.0000 C   0  0  0  0  0  0  0  0  0  0  0  0
    1.4628   -0.1125    0.0000 O   0  0  0  0  0  0  0  0  0  0  0  0
    2.0171    0.5043    0.0000 C   0  0  0  0  0  0  0  0  0  0  0  0
    1.4211   -2.2922    0.0000 C   0  0  0  0  0  0  0  0  0  0  0  0
    2.5255   -1.0669    0.0000 C   0  0  0  0  0  0  0  0  0  0  0  0
   -1.2545   -0.9960    0.0000 C   0  0  0  0  0  0  0  0  0  0  0  0
    2.2297   -2.4672    0.0000 C   0  0  0  0  0  0  0  0  0  0  0  0
    2.7798   -1.8504    0.0000 C   0  0  0  0  0  0  0  0  0  0  0  0
  2  1  1  0  0  0  0
  3  2  2  0  0  0  0
  4  5  2  0  0  0  0
  4  3  1  0  0  0  0
  5  1  1  0  0  0  0
  6 18  1  0  0  0  0
  7  1  1  0  0  0  0
  8  6  3  0  0  0  0
  9 10  1  0  0  0  0
 10  2  1  0  0  0  0
 11 13  1  0  0  0  0
 12  5  1  0  0  0  0
 13  9  1  0  0  0  0
 14  7  2  0  0  0  0
 14 16  1  0  0  0  0
 15 11  2  0  0  0  0
 16 12  2  0  0  0  0
 17 15  1  0  0  0  0
 18 17  1  0  0  0  0
 19 11  1  0  0  0  0
 20 15  1  0  0  0  0
 21 10  1  0  0  0  0
 22 19  2  0  0  0  0
 23 20  2  0  0  0  0
 23 22  1  0  0  0  0
M  END
> <CdId>
3443

> <Mol Weight>
306.3617

> <Formula>
C18H18N4O

> <Click_ID>
CLK045C06 __ __ 

$$$$
