CLK018_A06
 OpenBabel03181413202D

 27 29  0  0  0  0  0  0  0  0999 V2000
    6.3875   -4.2042    0.0000 C    0  0  0  0  0  0  0  0  0  0  0  0
    5.7625   -3.1250    0.0000 N    0  0  0  0  0  0  0  0  0  0  0  0
    5.7667   -3.8417    0.0000 C    0  0  0  0  0  0  0  0  0  0  0  0
    7.0042   -3.1167    0.0000 N    0  0  0  0  0  0  0  0  0  0  0  0
    6.3917   -5.0292    0.0000 C    0  0  0  0  0  0  0  0  0  0  0  0
    7.0042   -3.8417    0.0000 C    0  0  0  0  0  0  0  0  0  0  0  0
    5.6792   -5.4417    0.0000 C    0  0  0  0  0  0  0  0  0  0  0  0
    5.1792   -2.5417    0.0000 C    0  0  0  0  0  0  0  0  0  0  0  0
    5.6792   -6.2750    0.0000 C    0  0  0  0  0  0  0  0  0  0  0  0
    7.1042   -7.9250    0.0000 C    0  0  0  0  0  0  0  0  0  0  0  0
    7.1042   -8.7500    0.0000 C    0  0  0  0  0  0  0  0  0  0  0  0
    5.0542   -4.2542    0.0000 O    0  0  0  0  0  0  0  0  0  0  0  0
    4.9625   -6.6875    0.0000 C    0  0  0  0  0  0  0  0  0  0  0  0
    5.3917   -1.7417    0.0000 C    0  0  0  0  0  0  0  0  0  0  0  0
    4.3792   -2.7625    0.0000 C    0  0  0  0  0  0  0  0  0  0  0  0
    4.0042   -1.3792    0.0000 C    0  0  0  0  0  0  0  0  0  0  0  0
    6.3917   -6.6875    0.0000 O    0  0  0  0  0  0  0  0  0  0  0  0
    4.8000   -1.1667    0.0000 C    0  0  0  0  0  0  0  0  0  0  0  0
    3.7917   -2.1792    0.0000 C    0  0  0  0  0  0  0  0  0  0  0  0
    3.4167   -0.8042    0.0000 Br   0  0  0  0  0  0  0  0  0  0  0  0
    7.7250   -4.2500    0.0000 C    0  0  0  0  0  0  0  0  0  0  0  0
    4.9542   -7.5167    0.0000 O    0  0  0  0  0  0  0  0  0  0  0  0
    6.3917   -7.5125    0.0000 C    0  0  0  0  0  0  0  0  0  0  0  0
    4.9625   -5.0292    0.0000 C    0  0  0  0  0  0  0  0  0  0  0  0
    4.2500   -5.4500    0.0000 C    0  0  0  0  0  0  0  0  0  0  0  0
    4.2500   -6.2750    0.0000 C    0  0  0  0  0  0  0  0  0  0  0  0
    4.2417   -7.9250    0.0000 C    0  0  0  0  0  0  0  0  0  0  0  0
  2  3  1  0  0  0  0
  3  1  1  0  0  0  0
  4  6  2  0  0  0  0
  4  2  1  0  0  0  0
  5  1  2  0  0  0  0
  6  1  1  0  0  0  0
  7  5  1  0  0  0  0
  8  2  1  0  0  0  0
  9  7  1  0  0  0  0
 10 23  1  0  0  0  0
 11 10  3  0  0  0  0
 12  3  2  0  0  0  0
 13  9  2  0  0  0  0
 13 26  1  0  0  0  0
 14  8  1  0  0  0  0
 15  8  2  0  0  0  0
 16 19  2  0  0  0  0
 16 18  1  0  0  0  0
 17  9  1  0  0  0  0
 18 14  2  0  0  0  0
 19 15  1  0  0  0  0
 20 16  1  0  0  0  0
 21  6  1  0  0  0  0
 22 13  1  0  0  0  0
 23 17  1  0  0  0  0
 24  7  2  0  0  0  0
 25 24  1  0  0  0  0
 26 25  2  0  0  0  0
 27 22  1  0  0  0  0
M  END
> <CdId>
1321

> <Mol Weight>
425.275

> <Formula>
C21H17BrN2O3

> <Click_ID>
CLK018_A06 __ __ 

$$$$
