CLK025_C10
 OpenBabel03181413202D

 28 30  0  0  0  0  0  0  0  0999 V2000
    0.1168    0.1649    0.0000 C   0  0  0  0  0  0  0  0  0  0  0  0
   -4.3824    1.4837    0.0000 N   0  0  0  0  0  0  0  0  0  0  0  0
   -0.6079    0.5598    0.0000 C   0  0  0  0  0  0  0  0  0  0  0  0
    0.8208    0.5976    0.0000 C   0  0  0  0  0  0  0  0  0  0  0  0
   -3.5684    1.3326    0.0000 C   0  0  0  0  0  0  0  0  0  0  0  0
    0.1305   -0.6559    0.0000 C   0  0  0  0  0  0  0  0  0  0  0  0
   -3.4687    0.5083    0.0000 C   0  0  0  0  0  0  0  0  0  0  0  0
    0.1030   -1.4802    0.0000 N   0  0  0  0  0  0  0  0  0  0  0  0
   -4.2140    0.1545    0.0000 C   0  0  0  0  0  0  0  0  0  0  0  0
    5.1413   -0.8689    0.0000 C   0  0  0  0  0  0  0  0  0  0  0  0
    5.8282   -1.2948    0.0000 C   0  0  0  0  0  0  0  0  0  0  0  0
   -4.7807    0.7590    0.0000 C   0  0  0  0  0  0  0  0  0  0  0  0
   -0.6217    1.3944    0.0000 O   0  0  0  0  0  0  0  0  0  0  0  0
   -1.3154    0.1408    0.0000 N   0  0  0  0  0  0  0  0  0  0  0  0
    1.5490    0.2232    0.0000 C   0  0  0  0  0  0  0  0  0  0  0  0
    3.0051   -0.5220    0.0000 C   0  0  0  0  0  0  0  0  0  0  0  0
    1.5867   -0.5838    0.0000 C   0  0  0  0  0  0  0  0  0  0  0  0
    2.2393    0.6732    0.0000 C   0  0  0  0  0  0  0  0  0  0  0  0
   -2.0366    0.5358    0.0000 C   0  0  0  0  0  0  0  0  0  0  0  0
    2.9639    0.2850    0.0000 C   0  0  0  0  0  0  0  0  0  0  0  0
    2.3079   -0.9720    0.0000 C   0  0  0  0  0  0  0  0  0  0  0  0
   -2.7475    0.1133    0.0000 C   0  0  0  0  0  0  0  0  0  0  0  0
    4.4098   -0.4740    0.0000 C   0  0  0  0  0  0  0  0  0  0  0  0
    3.7126   -0.9102    0.0000 O   0  0  0  0  0  0  0  0  0  0  0  0
   -4.4545   -0.6491    0.0000 C   0  0  0  0  0  0  0  0  0  0  0  0
   -5.5912    0.5735    0.0000 C   0  0  0  0  0  0  0  0  0  0  0  0
   -5.2581   -0.8311    0.0000 C   0  0  0  0  0  0  0  0  0  0  0  0
   -5.8282   -0.2232    0.0000 C   0  0  0  0  0  0  0  0  0  0  0  0
  2  5  1  0  0  0  0
  3  1  1  0  0  0  0
  4  1  2  0  0  0  0
  5  7  2  0  0  0  0
  6  1  1  0  0  0  0
  7 22  1  0  0  0  0
  8  6  3  0  0  0  0
  9  7  1  0  0  0  0
 10 23  1  0  0  0  0
 11 10  3  0  0  0  0
 12  9  2  0  0  0  0
 12  2  1  0  0  0  0
 13  3  2  0  0  0  0
 14  3  1  0  0  0  0
 15  4  1  0  0  0  0
 16 20  2  0  0  0  0
 16 21  1  0  0  0  0
 17 15  1  0  0  0  0
 18 15  2  0  0  0  0
 19 14  1  0  0  0  0
 20 18  1  0  0  0  0
 21 17  2  0  0  0  0
 22 19  1  0  0  0  0
 23 24  1  0  0  0  0
 24 16  1  0  0  0  0
 25  9  1  0  0  0  0
 26 12  1  0  0  0  0
 26 28  2  0  0  0  0
 27 25  2  0  0  0  0
 28 27  1  0  0  0  0
M  END
> <CdId>
1885

> <Mol Weight>
369.4159

> <Formula>
C23H19N3O2

> <Click_ID>
CLK025_C10 __ __ 

$$$$
