CLK051G06
 OpenBabel03181413202D

 23 24  0  0  0  0  0  0  0  0999 V2000
   -3.3583    1.4000    0.0000 C   0  0  0  0  0  0  0  0  0  0  0  0
   -0.5000    0.5750    0.0000 C   0  0  0  0  0  0  0  0  0  0  0  0
   -4.0708    0.9875    0.0000 C   0  0  0  0  0  0  0  0  0  0  0  0
    0.2167    0.1625    0.0000 C   0  0  0  0  0  0  0  0  0  0  0  0
    0.2167   -0.6625    0.0000 C   0  0  0  0  0  0  0  0  0  0  0  0
   -0.5000    1.4000    0.0000 N   0  0  0  0  0  0  0  0  0  0  0  0
    0.9292   -1.0750    0.0000 C   0  0  0  0  0  0  0  0  0  0  0  0
    2.3583   -1.9000    0.0000 C   0  0  0  0  0  0  0  0  0  0  0  0
    2.3583   -1.0750    0.0000 C   0  0  0  0  0  0  0  0  0  0  0  0
    1.6458   -2.3125    0.0000 C   0  0  0  0  0  0  0  0  0  0  0  0
   -1.2125    1.8125    0.0000 C   0  0  0  0  0  0  0  0  0  0  0  0
   -1.2125    0.1625    0.0000 O   0  0  0  0  0  0  0  0  0  0  0  0
   -2.6417    1.8125    0.0000 C   0  0  0  0  0  0  0  0  0  0  0  0
    1.6458   -0.6625    0.0000 C   0  0  0  0  0  0  0  0  0  0  0  0
    0.9292   -1.9000    0.0000 C   0  0  0  0  0  0  0  0  0  0  0  0
   -1.9292    1.4000    0.0000 C   0  0  0  0  0  0  0  0  0  0  0  0
    3.0750   -0.6625    0.0000 O   0  0  0  0  0  0  0  0  0  0  0  0
    1.6458   -3.1375    0.0000 O   0  0  0  0  0  0  0  0  0  0  0  0
   -1.9292    3.0500    0.0000 C   0  0  0  0  0  0  0  0  0  0  0  0
   -1.2125    2.6375    0.0000 C   0  0  0  0  0  0  0  0  0  0  0  0
   -2.6417    2.6375    0.0000 C   0  0  0  0  0  0  0  0  0  0  0  0
    2.3583   -3.5500    0.0000 C   0  0  0  0  0  0  0  0  0  0  0  0
    3.7875   -1.0750    0.0000 C   0  0  0  0  0  0  0  0  0  0  0  0
  2  6  1  0  0  0  0
  3  1  3  0  0  0  0
  4  2  1  0  0  0  0
  5  4  2  0  0  0  0
  6 11  1  0  0  0  0
  7  5  1  0  0  0  0
  8 10  1  0  0  0  0
  9 14  1  0  0  0  0
  9  8  2  0  0  0  0
 10 15  2  0  0  0  0
 11 16  2  0  0  0  0
 12  2  2  0  0  0  0
 13  1  1  0  0  0  0
 14  7  2  0  0  0  0
 15  7  1  0  0  0  0
 16 13  1  0  0  0  0
 17  9  1  0  0  0  0
 18 10  1  0  0  0  0
 19 21  1  0  0  0  0
 19 20  2  0  0  0  0
 20 11  1  0  0  0  0
 21 13  2  0  0  0  0
 22 18  1  0  0  0  0
 23 17  1  0  0  0  0
M  END
> <CdId>
3927

> <Mol Weight>
307.3432

> <Formula>
C19H17NO3

> <Click_ID>
CLK051G06 __ __ 

$$$$
