CLK011_F11
 OpenBabel03181413202D

 28 30  0  0  0  0  0  0  0  0999 V2000
    2.7421   -1.8448    0.0000 N    0  0  0  0  0  0  0  0  0  0  0  0
    3.5601   -1.7196    0.0000 C    0  0  0  0  0  0  0  0  0  0  0  0
    2.6086   -2.6586    0.0000 C    0  0  0  0  0  0  0  0  0  0  0  0
    3.3431   -3.0343    0.0000 C    0  0  0  0  0  0  0  0  0  0  0  0
    3.9316   -2.4541    0.0000 S    0  0  0  0  0  0  0  0  0  0  0  0
    3.4725   -3.8564    0.0000 C    0  0  0  0  0  0  0  0  0  0  0  0
    2.1578   -1.2563    0.0000 C    0  0  0  0  0  0  0  0  0  0  0  0
    7.9800   -4.8248    0.0000 C    0  0  0  0  0  0  0  0  0  0  0  0
    8.7438   -5.1253    0.0000 C    0  0  0  0  0  0  0  0  0  0  0  0
    3.9358   -0.9808    0.0000 O    0  0  0  0  0  0  0  0  0  0  0  0
    5.6595   -3.9358    0.0000 C    0  0  0  0  0  0  0  0  0  0  0  0
    1.8698   -3.0343    0.0000 O    0  0  0  0  0  0  0  0  0  0  0  0
    4.2446   -4.1486    0.0000 C    0  0  0  0  0  0  0  0  0  0  0  0
    4.8874   -3.6353    0.0000 C    0  0  0  0  0  0  0  0  0  0  0  0
    5.7889   -4.7496    0.0000 C    0  0  0  0  0  0  0  0  0  0  0  0
    2.3832   -0.4633    0.0000 C    0  0  0  0  0  0  0  0  0  0  0  0
    1.3648   -1.4692    0.0000 C    0  0  0  0  0  0  0  0  0  0  0  0
    5.1378   -5.2755    0.0000 C    0  0  0  0  0  0  0  0  0  0  0  0
    4.3740   -4.9750    0.0000 C    0  0  0  0  0  0  0  0  0  0  0  0
    1.0059   -0.0793    0.0000 C    0  0  0  0  0  0  0  0  0  0  0  0
    1.8030    0.1210    0.0000 C    0  0  0  0  0  0  0  0  0  0  0  0
    0.7805   -0.8807    0.0000 C    0  0  0  0  0  0  0  0  0  0  0  0
    6.2980   -3.4224    0.0000 O    0  0  0  0  0  0  0  0  0  0  0  0
    0.4257    0.5092    0.0000 Cl   0  0  0  0  0  0  0  0  0  0  0  0
    6.5652   -5.0459    0.0000 O    0  0  0  0  0  0  0  0  0  0  0  0
    7.2037   -4.5326    0.0000 C    0  0  0  0  0  0  0  0  0  0  0  0
    6.1728   -2.5960    0.0000 C    0  0  0  0  0  0  0  0  0  0  0  0
    6.8114   -2.0827    0.0000 C    0  0  0  0  0  0  0  0  0  0  0  0
  2  1  1  0  0  0  0
  3  1  1  0  0  0  0
  4  3  1  0  0  0  0
  5  2  1  0  0  0  0
  5  4  1  0  0  0  0
  6  4  2  0  0  0  0
  7  1  1  0  0  0  0
  8 26  1  0  0  0  0
  9  8  3  0  0  0  0
 10  2  2  0  0  0  0
 11 14  2  0  0  0  0
 12  3  2  0  0  0  0
 13  6  1  0  0  0  0
 14 13  1  0  0  0  0
 15 18  2  0  0  0  0
 15 11  1  0  0  0  0
 16  7  2  0  0  0  0
 17  7  1  0  0  0  0
 18 19  1  0  0  0  0
 19 13  2  0  0  0  0
 20 22  1  0  0  0  0
 20 21  2  0  0  0  0
 21 16  1  0  0  0  0
 22 17  2  0  0  0  0
 23 11  1  0  0  0  0
 24 20  1  0  0  0  0
 25 15  1  0  0  0  0
 26 25  1  0  0  0  0
 27 23  1  0  0  0  0
 28 27  1  0  0  0  0
M  END
> <CdId>
816

> <Mol Weight>
413.874

> <Formula>
C21H16ClNO4S

> <Click_ID>
CLK011_F11 __ __ 

$$$$
