CLK024_A07
 OpenBabel03181413202D

 27 29  0  0  0  0  0  0  0  0999 V2000
   -2.3273    1.0813    0.0000 N   0  0  0  0  0  0  0  0  0  0  0  0
   -3.1477    1.1534    0.0000 C   0  0  0  0  0  0  0  0  0  0  0  0
   -2.8422   -0.1442    0.0000 C   0  0  0  0  0  0  0  0  0  0  0  0
   -2.1282    0.2780    0.0000 C   0  0  0  0  0  0  0  0  0  0  0  0
   -3.4704    0.3982    0.0000 S   0  0  0  0  0  0  0  0  0  0  0  0
   -0.9612   -1.8262    0.0000 C   0  0  0  0  0  0  0  0  0  0  0  0
   -2.9108   -0.9680    0.0000 C   0  0  0  0  0  0  0  0  0  0  0  0
   -1.4588   -1.1740    0.0000 O   0  0  0  0  0  0  0  0  0  0  0  0
   -2.2312   -1.4417    0.0000 C   0  0  0  0  0  0  0  0  0  0  0  0
   -0.1442   -1.8124    0.0000 C   0  0  0  0  0  0  0  0  0  0  0  0
   -1.4349   -2.5092    0.0000 C   0  0  0  0  0  0  0  0  0  0  0  0
    0.2883   -2.5195    0.0000 C   0  0  0  0  0  0  0  0  0  0  0  0
    2.3170   -1.7747    0.0000 C   0  0  0  0  0  0  0  0  0  0  0  0
    1.4967   -1.7884    0.0000 C   0  0  0  0  0  0  0  0  0  0  0  0
   -2.0561    2.4818    0.0000 C   0  0  0  0  0  0  0  0  0  0  0  0
   -2.2209   -2.2724    0.0000 C   0  0  0  0  0  0  0  0  0  0  0  0
    1.0984   -2.5092    0.0000 C   0  0  0  0  0  0  0  0  0  0  0  0
   -2.3650    3.2438    0.0000 C   0  0  0  0  0  0  0  0  0  0  0  0
    0.2506   -1.1019    0.0000 C   0  0  0  0  0  0  0  0  0  0  0  0
   -3.5699    1.8536    0.0000 O   0  0  0  0  0  0  0  0  0  0  0  0
   -1.3731   -0.0377    0.0000 O   0  0  0  0  0  0  0  0  0  0  0  0
   -1.7815    1.6991    0.0000 C   0  0  0  0  0  0  0  0  0  0  0  0
    1.0881   -1.0813    0.0000 C   0  0  0  0  0  0  0  0  0  0  0  0
    2.7255   -1.0572    0.0000 O   0  0  0  0  0  0  0  0  0  0  0  0
    2.7461   -2.4852    0.0000 O   0  0  0  0  0  0  0  0  0  0  0  0
   -0.1167   -3.2404    0.0000 C   0  0  0  0  0  0  0  0  0  0  0  0
    3.5665   -2.4715    0.0000 C   0  0  0  0  0  0  0  0  0  0  0  0
  2  1  1  0  0  0  0
  3  4  1  0  0  0  0
  4  1  1  0  0  0  0
  5  2  1  0  0  0  0
  5  3  1  0  0  0  0
  6  8  1  0  0  0  0
  7  3  2  0  0  0  0
  8  9  1  0  0  0  0
  9  7  1  0  0  0  0
 10  6  1  0  0  0  0
 11 16  1  0  0  0  0
 11  6  2  0  0  0  0
 12 10  2  0  0  0  0
 13 14  1  0  0  0  0
 14 23  1  0  0  0  0
 14 17  2  0  0  0  0
 15 22  1  0  0  0  0
 16  9  2  0  0  0  0
 17 12  1  0  0  0  0
 18 15  3  0  0  0  0
 19 10  1  0  0  0  0
 20  2  2  0  0  0  0
 21  4  2  0  0  0  0
 22  1  1  0  0  0  0
 23 19  2  0  0  0  0
 24 13  2  0  0  0  0
 25 13  1  0  0  0  0
 26 12  1  0  0  0  0
 27 25  1  0  0  0  0
M  END
> <CdId>
1782

> <Mol Weight>
381.402

> <Formula>
C20H15NO5S

> <Click_ID>
CLK024_A07 __ __ 

$$$$
