CLK021_D10
 OpenBabel03181413202D

 20 21  0  0  0  0  0  0  0  0999 V2000
    5.2937    1.3154    0.0000 C   0  0  0  0  0  0  0  0  0  0  0  0
    4.4688    1.3154    0.0000 N   0  0  0  0  0  0  0  0  0  0  0  0
    5.7062    2.0304    0.0000 N   0  0  0  0  0  0  0  0  0  0  0  0
    0.7563    2.0304    0.0000 C   0  0  0  0  0  0  0  0  0  0  0  0
    2.8188    1.3154    0.0000 N   0  0  0  0  0  0  0  0  0  0  0  0
   -0.0687    2.0304    0.0000 C   0  0  0  0  0  0  0  0  0  0  0  0
    5.7062    0.6004    0.0000 O   0  0  0  0  0  0  0  0  0  0  0  0
    4.0562    0.6004    0.0000 C   0  0  0  0  0  0  0  0  0  0  0  0
    4.0562    2.0304    0.0000 C   0  0  0  0  0  0  0  0  0  0  0  0
    6.5313    2.0304    0.0000 C   0  0  0  0  0  0  0  0  0  0  0  0
    3.2312    0.6004    0.0000 C   0  0  0  0  0  0  0  0  0  0  0  0
    3.2312    2.0304    0.0000 C   0  0  0  0  0  0  0  0  0  0  0  0
    8.1813    2.0304    0.0000 C   0  0  0  0  0  0  0  0  0  0  0  0
    9.0062    2.0304    0.0000 F   0  0  0  0  0  0  0  0  0  0  0  0
    6.9437    2.7454    0.0000 C   0  0  0  0  0  0  0  0  0  0  0  0
    6.9437    1.3154    0.0000 C   0  0  0  0  0  0  0  0  0  0  0  0
    7.7687    2.7454    0.0000 C   0  0  0  0  0  0  0  0  0  0  0  0
    7.7687    1.3154    0.0000 C   0  0  0  0  0  0  0  0  0  0  0  0
    1.9938    1.3154    0.0000 C   0  0  0  0  0  0  0  0  0  0  0  0
    1.5813    2.0304    0.0000 C   0  0  0  0  0  0  0  0  0  0  0  0
  2  1  1  0  0  0  0
  3  1  1  0  0  0  0
  4 20  1  0  0  0  0
  5 12  1  0  0  0  0
  5 11  1  0  0  0  0
  6  4  3  0  0  0  0
  7  1  2  0  0  0  0
  8  2  1  0  0  0  0
  9  2  1  0  0  0  0
 10  3  1  0  0  0  0
 11  8  1  0  0  0  0
 12  9  1  0  0  0  0
 13 18  1  0  0  0  0
 13 17  2  0  0  0  0
 14 13  1  0  0  0  0
 15 10  2  0  0  0  0
 16 10  1  0  0  0  0
 17 15  1  0  0  0  0
 18 16  2  0  0  0  0
 19  5  1  0  0  0  0
 20 19  1  0  0  0  0
M  END
> <CdId>
1595

> <Mol Weight>
275.3213

> <Formula>
C15H18FN3O

> <Click_ID>
CLK021_D10 __ __ 

$$$$
