CLK001_F10
 OpenBabel03181413202D

 32 35  0  0  0  0  0  0  0  0999 V2000
    1.3243    0.4104    0.0000 C   0  0  3  0  0  0  0  0  0  0  0  0
    2.0958    0.6731    0.0000 C   0  0  3  0  0  0  0  0  0  0  0  0
    1.3243   -0.4241    0.0000 C   0  0  3  0  0  0  0  0  0  0  0  0
    0.6102    0.8235    0.0000 C   0  0  0  0  0  0  0  0  0  0  0  0
    1.3243    1.2340    0.0000 C   0  0  0  0  0  0  0  0  0  0  0  0
    2.5773    0.0055    0.0000 C   0  0  0  0  0  0  0  0  0  0  0  0
    1.6334    1.3543    0.0000 O   0  0  0  0  0  0  0  0  0  0  0  0
    2.8646    0.9330    0.0000 C   0  0  0  0  0  0  0  0  0  0  0  0
    0.6102   -0.8345    0.0000 C   0  0  3  0  0  0  0  0  0  0  0  0
    2.1013   -0.6758    0.0000 C   0  0  0  0  0  0  0  0  0  0  0  0
   -0.1039    0.4104    0.0000 C   0  0  3  0  0  0  0  0  0  0  0  0
    2.1177    1.9891    0.0000 C   0  0  0  0  0  0  0  0  0  0  0  0
    3.6417    1.1956    0.0000 C   0  0  0  0  0  0  0  0  0  0  0  0
   -0.1039   -0.4241    0.0000 C   0  0  3  0  0  0  0  0  0  0  0  0
    0.6102   -1.6608    0.0000 C   0  0  0  0  0  0  0  0  0  0  0  0
   -0.8263    0.8235    0.0000 O   0  0  0  0  0  0  0  0  0  0  0  0
    1.8167    2.7415    0.0000 C   0  0  0  0  0  0  0  0  0  0  0  0
    2.9276    1.8687    0.0000 O   0  0  0  0  0  0  0  0  0  0  0  0
   -0.8263   -0.8345    0.0000 C   0  0  0  0  0  0  0  0  0  0  0  0
   -0.1039   -2.0739    0.0000 C   0  0  0  0  0  0  0  0  0  0  0  0
   -0.8263    1.6471    0.0000 C   0  0  0  0  0  0  0  0  0  0  0  0
   -0.8263   -1.6608    0.0000 C   0  0  0  0  0  0  0  0  0  0  0  0
   -1.5404   -0.4241    0.0000 C   0  0  0  0  0  0  0  0  0  0  0  0
   -0.1204    2.0603    0.0000 C   0  0  0  0  0  0  0  0  0  0  0  0
   -1.5404    2.0603    0.0000 O   0  0  0  0  0  0  0  0  0  0  0  0
   -1.5404   -2.0739    0.0000 C   0  0  0  0  0  0  0  0  0  0  0  0
   -2.2545   -0.8345    0.0000 C   0  0  0  0  0  0  0  0  0  0  0  0
   -2.2545   -1.6608    0.0000 C   0  0  0  0  0  0  0  0  0  0  0  0
   -2.9686   -2.0739    0.0000 O   0  0  0  0  0  0  0  0  0  0  0  0
   -3.6827   -1.6608    0.0000 C   0  0  0  0  0  0  0  0  0  0  0  0
   -3.6827   -0.8345    0.0000 C   0  0  0  0  0  0  0  0  0  0  0  0
   -4.3968   -2.0739    0.0000 O   0  0  0  0  0  0  0  0  0  0  0  0
  1  2  1  0  0  0  0
  1  3  1  0  0  0  0
  1  4  1  0  0  0  0
  1  5  1  0  0  0  0
  2  6  1  0  0  0  0
  2  7  1  0  0  0  0
  2  8  1  0  0  0  0
  3  9  1  0  0  0  0
  3 10  1  0  0  0  0
  4 11  1  0  0  0  0
  6 10  1  0  0  0  0
  7 12  1  0  0  0  0
  8 13  3  0  0  0  0
  9 14  1  0  0  0  0
  9 15  1  0  0  0  0
 11 16  1  0  0  0  0
 11 14  1  0  0  0  0
 12 17  1  0  0  0  0
 12 18  2  0  0  0  0
 14 19  1  0  0  0  0
 15 20  1  0  0  0  0
 16 21  1  0  0  0  0
 19 22  2  0  0  0  0
 19 23  1  0  0  0  0
 20 22  1  0  0  0  0
 21 24  1  0  0  0  0
 21 25  2  0  0  0  0
 22 26  1  0  0  0  0
 23 27  2  0  0  0  0
 26 28  2  0  0  0  0
 27 28  1  0  0  0  0
 28 29  1  0  0  0  0
 29 30  1  0  0  0  0
 30 31  1  0  0  0  0
 30 32  2  0  0  0  0
M  END
> <CdId>
59

> <Mol Weight>
438.5128

> <Formula>
C26H30O6

> <Click_ID>
CLK001_F10 __ __ 

$$$$
