CLK013_B03
 OpenBabel03181413202D

 30 34  0  0  0  0  0  0  0  0999 V2000
    0.2953   -0.7702    0.0000 N   0  0  0  0  0  0  0  0  0  0  0  0
   -1.1690   -0.7702    0.0000 C   0  0  0  0  0  0  0  0  0  0  0  0
   -0.4262   -1.2177    0.0000 C   0  0  0  0  0  0  0  0  0  0  0  0
    0.2953    0.0457    0.0000 C   0  0  0  0  0  0  0  0  0  0  0  0
   -1.1690    0.0457    0.0000 C   0  0  0  0  0  0  0  0  0  0  0  0
   -0.4262    0.4901    0.0000 N   0  0  0  0  0  0  0  0  0  0  0  0
   -1.8874   -1.1598    0.0000 C   0  0  0  0  0  0  0  0  0  0  0  0
   -1.8874    0.4901    0.0000 C   0  0  0  0  0  0  0  0  0  0  0  0
    0.9863   -1.1964    0.0000 C   0  0  0  0  0  0  0  0  0  0  0  0
   -2.5937    0.0457    0.0000 C   0  0  0  0  0  0  0  0  0  0  0  0
   -2.5937   -0.7702    0.0000 C   0  0  0  0  0  0  0  0  0  0  0  0
    2.4597    0.4353    0.0000 C   0  0  0  0  0  0  0  0  0  0  0  0
   -0.4262   -2.0457    0.0000 O   0  0  0  0  0  0  0  0  0  0  0  0
    3.1690    0.0152    0.0000 C   0  0  0  0  0  0  0  0  0  0  0  0
    0.9985    0.4627    0.0000 S   0  0  0  0  0  0  0  0  0  0  0  0
    0.9863   -2.0214    0.0000 C   0  0  0  0  0  0  0  0  0  0  0  0
   -1.2572   -1.5982    0.0000 C   0  0  0  0  0  0  0  0  0  0  0  0
   -2.4993   -1.5982    0.0000 C   0  0  0  0  0  0  0  0  0  0  0  0
    1.7383    0.0243    0.0000 C   0  0  0  0  0  0  0  0  0  0  0  0
   -1.8874    1.3120    0.0000 C   0  0  0  0  0  0  0  0  0  0  0  0
    1.7017   -0.7702    0.0000 C   0  0  0  0  0  0  0  0  0  0  0  0
   -3.3121    0.4901    0.0000 C   0  0  0  0  0  0  0  0  0  0  0  0
    0.2588   -2.4141    0.0000 C   0  0  0  0  0  0  0  0  0  0  0  0
    1.7383   -2.4323    0.0000 C   0  0  0  0  0  0  0  0  0  0  0  0
   -2.4993   -2.2679    0.0000 C   0  0  0  0  0  0  0  0  0  0  0  0
   -1.2572   -2.2679    0.0000 C   0  0  0  0  0  0  0  0  0  0  0  0
   -2.5937    1.7321    0.0000 C   0  0  0  0  0  0  0  0  0  0  0  0
    2.4841   -1.1903    0.0000 C   0  0  0  0  0  0  0  0  0  0  0  0
   -3.3121    1.3303    0.0000 C   0  0  0  0  0  0  0  0  0  0  0  0
    2.4841   -2.0092    0.0000 C   0  0  0  0  0  0  0  0  0  0  0  0
  2  3  1  0  0  0  0
  2  5  2  0  0  0  0
  3  1  1  0  0  0  0
  4  1  1  0  0  0  0
  5  6  1  0  0  0  0
  6  4  2  0  0  0  0
  7  2  1  0  0  0  0
  8  5  1  0  0  0  0
  9  1  1  0  0  0  0
 10  8  1  0  0  0  0
 11  7  1  0  0  0  0
 11 10  1  0  0  0  0
 12 19  1  0  0  0  0
 13  3  2  0  0  0  0
 14 12  3  0  0  0  0
 15  4  1  0  0  0  0
 16  9  2  0  0  0  0
 17  7  1  0  0  0  0
 18  7  1  0  0  0  0
 19 15  1  0  0  0  0
 20  8  2  0  0  0  0
 21  9  1  0  0  0  0
 22 10  2  0  0  0  0
 23 16  1  0  0  0  0
 24 16  1  0  0  0  0
 24 30  2  0  0  0  0
 25 18  1  0  0  0  0
 26 17  1  0  0  0  0
 26 25  1  0  0  0  0
 27 20  1  0  0  0  0
 28 21  2  0  0  0  0
 29 27  2  0  0  0  0
 29 22  1  0  0  0  0
 30 28  1  0  0  0  0
M  END
> <CdId>
928

> <Mol Weight>
412.547

> <Formula>
C26H24N2OS

> <Click_ID>
CLK013_B03 __ __ 

$$$$
