CLK002_F02
 OpenBabel03181413202D

 21 22  0  0  0  0  0  0  0  0999 V2000
   -0.3935    0.2036    0.0000 C   0  0  0  0  0  0  0  0  0  0  0  0
   -1.2185    0.1968    0.0000 S   0  0  0  0  0  0  0  0  0  0  0  0
    0.0207   -0.5075    0.0000 C   0  0  0  0  0  0  0  0  0  0  0  0
    0.0172    0.9182    0.0000 C   0  0  0  0  0  0  0  0  0  0  0  0
   -2.0436    0.1968    0.0000 N   0  0  0  0  0  0  0  0  0  0  0  0
   -1.2220   -0.6283    0.0000 O   0  0  0  0  0  0  0  0  0  0  0  0
   -1.2185    1.0218    0.0000 O   0  0  0  0  0  0  0  0  0  0  0  0
    0.8457   -0.5075    0.0000 C   0  0  0  0  0  0  0  0  0  0  0  0
    0.8354    0.9217    0.0000 C   0  0  0  0  0  0  0  0  0  0  0  0
   -2.4579   -0.5178    0.0000 C   0  0  0  0  0  0  0  0  0  0  0  0
   -2.4579    0.9182    0.0000 C   0  0  0  0  0  0  0  0  0  0  0  0
    1.2600    0.2036    0.0000 C   0  0  0  0  0  0  0  0  0  0  0  0
   -3.2829   -0.5178    0.0000 C   0  0  0  0  0  0  0  0  0  0  0  0
   -3.2864    0.9182    0.0000 C   0  0  0  0  0  0  0  0  0  0  0  0
    2.0851    0.2036    0.0000 C   0  0  0  0  0  0  0  0  0  0  0  0
   -3.6971    0.2036    0.0000 O   0  0  0  0  0  0  0  0  0  0  0  0
    2.4993   -0.5075    0.0000 O   0  0  0  0  0  0  0  0  0  0  0  0
    2.4993    0.9217    0.0000 O   0  0  0  0  0  0  0  0  0  0  0  0
    3.3243   -0.5039    0.0000 C   0  0  0  0  0  0  0  0  0  0  0  0
    3.7455   -1.2185    0.0000 C   0  0  0  0  0  0  0  0  0  0  0  0
    4.1493   -1.9297    0.0000 C   0  0  0  0  0  0  0  0  0  0  0  0
  1  2  1  0  0  0  0
  1  3  2  0  0  0  0
  1  4  1  0  0  0  0
  2  5  1  0  0  0  0
  2  6  2  0  0  0  0
  2  7  2  0  0  0  0
  3  8  1  0  0  0  0
  4  9  2  0  0  0  0
  5 10  1  0  0  0  0
  5 11  1  0  0  0  0
  8 12  2  0  0  0  0
  9 12  1  0  0  0  0
 10 13  1  0  0  0  0
 11 14  1  0  0  0  0
 12 15  1  0  0  0  0
 13 16  1  0  0  0  0
 14 16  1  0  0  0  0
 15 17  1  0  0  0  0
 15 18  2  0  0  0  0
 17 19  1  0  0  0  0
 19 20  1  0  0  0  0
 20 21  3  0  0  0  0
M  END
> <CdId>
131

> <Mol Weight>
309.338

> <Formula>
C14H15NO5S

> <Click_ID>
CLK002_F02 __ __ 

$$$$
