CLK002_F08
 OpenBabel03181413202D

 32 33  0  0  0  0  0  0  0  0999 V2000
   -0.6171    0.9861    0.0000 C    0  0  0  0  0  0  0  0  0  0  0  0
    0.0966    0.5828    0.0000 N    0  0  0  0  0  0  0  0  0  0  0  0
   -0.6171    1.8136    0.0000 C    0  0  0  0  0  0  0  0  0  0  0  0
   -1.3309    0.5828    0.0000 C    0  0  0  0  0  0  0  0  0  0  0  0
    0.0897   -0.2414    0.0000 S    0  0  0  0  0  0  0  0  0  0  0  0
    0.8068    0.9965    0.0000 C    0  0  0  0  0  0  0  0  0  0  0  0
   -1.3309    2.2343    0.0000 C    0  0  0  0  0  0  0  0  0  0  0  0
    0.1034    2.2239    0.0000 O    0  0  0  0  0  0  0  0  0  0  0  0
   -2.0343    0.9861    0.0000 C    0  0  0  0  0  0  0  0  0  0  0  0
   -0.6171   -0.6516    0.0000 C    0  0  0  0  0  0  0  0  0  0  0  0
    0.9171   -0.2414    0.0000 O    0  0  0  0  0  0  0  0  0  0  0  0
    0.4966   -0.9551    0.0000 O    0  0  0  0  0  0  0  0  0  0  0  0
    1.5206    0.5759    0.0000 C    0  0  0  0  0  0  0  0  0  0  0  0
   -2.0343    1.8136    0.0000 C    0  0  0  0  0  0  0  0  0  0  0  0
    0.8171    1.8067    0.0000 C    0  0  0  0  0  0  0  0  0  0  0  0
   -2.7550    0.5759    0.0000 Cl   0  0  0  0  0  0  0  0  0  0  0  0
   -0.6206   -1.4654    0.0000 C    0  0  0  0  0  0  0  0  0  0  0  0
   -1.3309   -0.2276    0.0000 C    0  0  0  0  0  0  0  0  0  0  0  0
    2.2446    0.9827    0.0000 N    0  0  0  0  0  0  0  0  0  0  0  0
    1.5171   -0.2552    0.0000 O    0  0  0  0  0  0  0  0  0  0  0  0
   -1.3413   -1.8791    0.0000 C    0  0  0  0  0  0  0  0  0  0  0  0
   -2.0412   -0.6378    0.0000 C    0  0  0  0  0  0  0  0  0  0  0  0
    2.9583    0.5621    0.0000 C    0  0  0  0  0  0  0  0  0  0  0  0
   -2.0550   -1.4551    0.0000 C    0  0  0  0  0  0  0  0  0  0  0  0
   -1.3447   -2.7032    0.0000 N    0  0  0  0  0  0  0  0  0  0  0  0
    3.6687    0.9827    0.0000 C    0  0  0  0  0  0  0  0  0  0  0  0
    3.3687   -0.1517    0.0000 C    0  0  0  0  0  0  0  0  0  0  0  0
    2.5446   -0.1517    0.0000 C    0  0  0  0  0  0  0  0  0  0  0  0
   -2.7653   -1.8653    0.0000 C    0  0  0  0  0  0  0  0  0  0  0  0
   -0.6344   -3.1169    0.0000 O    0  0  0  0  0  0  0  0  0  0  0  0
   -2.0653   -3.1031    0.0000 O    0  0  0  0  0  0  0  0  0  0  0  0
    4.3824    1.3965    0.0000 C    0  0  0  0  0  0  0  0  0  0  0  0
  1  2  1  0  0  0  0
  1  3  1  0  0  0  0
  1  4  2  0  0  0  0
  2  5  1  0  0  0  0
  2  6  1  0  0  0  0
  3  7  2  0  0  0  0
  3  8  1  0  0  0  0
  4  9  1  0  0  0  0
  5 10  1  0  0  0  0
  5 11  2  0  0  0  0
  5 12  2  0  0  0  0
  6 13  1  0  0  0  0
  7 14  1  0  0  0  0
  8 15  1  0  0  0  0
  9 16  1  0  0  0  0
  9 14  2  0  0  0  0
 10 17  1  0  0  0  0
 10 18  2  0  0  0  0
 13 19  1  0  0  0  0
 13 20  2  0  0  0  0
 17 21  2  0  0  0  0
 18 22  1  0  0  0  0
 19 23  1  0  0  0  0
 21 24  1  0  0  0  0
 21 25  1  0  0  0  0
 22 24  2  0  0  0  0
 23 26  1  0  0  0  0
 23 27  1  0  0  0  0
 23 28  1  0  0  0  0
 24 29  1  0  0  0  0
 25 30  2  0  0  0  0
 25 31  1  0  0  0  0
 26 32  3  0  0  0  0
M  END
> <CdId>
137

> <Mol Weight>
479.934

> <Formula>
C21H22ClN3O6S

> <Click_ID>
CLK002_F08 __ __ 

$$$$
