CLK020_B11
 OpenBabel03181413202D

 17 18  0  0  0  0  0  0  0  0999 V2000
    0.4787   -0.6118    0.0000 O   0  0  0  0  0  0  0  0  0  0  0  0
   -0.2060   -0.1268    0.0000 C   0  0  0  0  0  0  0  0  0  0  0  0
    0.0507    0.6625    0.0000 N   0  0  0  0  0  0  0  0  0  0  0  0
    0.8749    0.6625    0.0000 N   0  0  0  0  0  0  0  0  0  0  0  0
    1.1317   -0.1141    0.0000 C   0  0  0  0  0  0  0  0  0  0  0  0
    3.3094   -0.0032    0.0000 C   0  0  0  0  0  0  0  0  0  0  0  0
    3.9022    0.5706    0.0000 C   0  0  0  0  0  0  0  0  0  0  0  0
   -1.0270   -0.1268    0.0000 C   0  0  0  0  0  0  0  0  0  0  0  0
    1.9400   -0.3551    0.0000 S   0  0  0  0  0  0  0  0  0  0  0  0
   -1.4423    0.5864    0.0000 C   0  0  0  0  0  0  0  0  0  0  0  0
   -1.4550   -0.8400    0.0000 C   0  0  0  0  0  0  0  0  0  0  0  0
   -2.6880   -0.1268    0.0000 C   0  0  0  0  0  0  0  0  0  0  0  0
   -2.2791    0.5864    0.0000 C   0  0  0  0  0  0  0  0  0  0  0  0
   -2.2918   -0.8400    0.0000 C   0  0  0  0  0  0  0  0  0  0  0  0
    2.5328    0.2250    0.0000 C   0  0  0  0  0  0  0  0  0  0  0  0
   -3.5091   -0.1268    0.0000 O   0  0  0  0  0  0  0  0  0  0  0  0
   -3.9243   -0.8400    0.0000 C   0  0  0  0  0  0  0  0  0  0  0  0
  2  1  1  0  0  0  0
  3  2  2  0  0  0  0
  4  5  2  0  0  0  0
  4  3  1  0  0  0  0
  5  1  1  0  0  0  0
  6 15  1  0  0  0  0
  7  6  3  0  0  0  0
  8  2  1  0  0  0  0
  9  5  1  0  0  0  0
 10  8  2  0  0  0  0
 11  8  1  0  0  0  0
 12 14  1  0  0  0  0
 12 13  2  0  0  0  0
 13 10  1  0  0  0  0
 14 11  2  0  0  0  0
 15  9  1  0  0  0  0
 16 12  1  0  0  0  0
 17 16  1  0  0  0  0
M  END
> <CdId>
1496

> <Mol Weight>
246.285

> <Formula>
C12H10N2O2S

> <Click_ID>
CLK020_B11 __ __ 

$$$$
