CLK043H08
 OpenBabel03181413202D

 27 29  0  0  0  0  0  0  0  0999 V2000
    1.3692   -2.8218    0.0000 S   0  0  0  0  0  0  0  0  0  0  0  0
   -1.3692    2.4878    0.0000 N   0  0  0  0  0  0  0  0  0  0  0  0
   -0.8849    3.1557    0.0000 C   0  0  0  0  0  0  0  0  0  0  0  0
   -0.8849    1.8200    0.0000 C   0  0  0  0  0  0  0  0  0  0  0  0
   -0.1002    2.9010    0.0000 O   0  0  0  0  0  0  0  0  0  0  0  0
   -1.1396    3.9446    0.0000 C   0  0  0  0  0  0  0  0  0  0  0  0
   -0.8432   -0.3674    0.0000 C   0  0  0  0  0  0  0  0  0  0  0  0
    0.8182   -2.2082    0.0000 C   0  0  0  0  0  0  0  0  0  0  0  0
   -0.1002    2.0745    0.0000 C   0  0  0  0  0  0  0  0  0  0  0  0
   -1.9243    4.1951    0.0000 S   0  0  0  0  0  0  0  0  0  0  0  0
    2.2207   -4.8379    0.0000 C   0  0  0  0  0  0  0  0  0  0  0  0
   -0.5886    0.4175    0.0000 N   0  0  0  0  0  0  0  0  0  0  0  0
    2.7758   -5.4515    0.0000 C   0  0  0  0  0  0  0  0  0  0  0  0
    1.9828   -2.2708    0.0000 O   0  0  0  0  0  0  0  0  0  0  0  0
    0.7556   -3.3769    0.0000 O   0  0  0  0  0  0  0  0  0  0  0  0
   -0.2880   -0.9810    0.0000 C   0  0  0  0  0  0  0  0  0  0  0  0
    1.9243   -3.4395    0.0000 N   0  0  0  0  0  0  0  0  0  0  0  0
   -0.6554    4.6083    0.0000 C   0  0  0  0  0  0  0  0  0  0  0  0
   -1.9243    5.0215    0.0000 C   0  0  0  0  0  0  0  0  0  0  0  0
   -1.6488   -0.5385    0.0000 O   0  0  0  0  0  0  0  0  0  0  0  0
   -1.1396    5.2762    0.0000 C   0  0  0  0  0  0  0  0  0  0  0  0
   -1.1396    1.0352    0.0000 C   0  0  0  0  0  0  0  0  0  0  0  0
    0.0083   -2.3793    0.0000 C   0  0  0  0  0  0  0  0  0  0  0  0
    1.0727   -1.4234    0.0000 C   0  0  0  0  0  0  0  0  0  0  0  0
   -0.5427   -1.7657    0.0000 C   0  0  0  0  0  0  0  0  0  0  0  0
    0.5176   -0.8098    0.0000 C   0  0  0  0  0  0  0  0  0  0  0  0
    1.6697   -4.2243    0.0000 C   0  0  0  0  0  0  0  0  0  0  0  0
  2  4  1  0  0  0  0
  3  2  2  0  0  0  0
  3  5  1  0  0  0  0
  4 22  1  0  0  0  0
  5  9  1  0  0  0  0
  6  3  1  0  0  0  0
  7 16  1  0  0  0  0
  8  1  1  0  0  0  0
  9  4  2  0  0  0  0
 10  6  1  0  0  0  0
 11 27  1  0  0  0  0
 12  7  1  0  0  0  0
 13 11  3  0  0  0  0
 14  1  2  0  0  0  0
 15  1  2  0  0  0  0
 16 26  2  0  0  0  0
 17  1  1  0  0  0  0
 18  6  2  0  0  0  0
 19 10  1  0  0  0  0
 19 21  2  0  0  0  0
 20  7  2  0  0  0  0
 21 18  1  0  0  0  0
 22 12  1  0  0  0  0
 23  8  1  0  0  0  0
 24  8  2  0  0  0  0
 25 23  2  0  0  0  0
 25 16  1  0  0  0  0
 26 24  1  0  0  0  0
 27 17  1  0  0  0  0
M  END
> <CdId>
3304

> <Mol Weight>
401.459

> <Formula>
C18H15N3O4S2

> <Click_ID>
CLK043H08 __ __ 

$$$$
