CLK013_G04
 OpenBabel03181413202D

 25 27  0  0  0  0  0  0  0  0999 V2000
    3.2500   -1.6875    0.0000 N    0  0  0  0  0  0  0  0  0  0  0  0
    4.0667   -1.5625    0.0000 C    0  0  0  0  0  0  0  0  0  0  0  0
    3.1167   -2.5042    0.0000 C    0  0  0  0  0  0  0  0  0  0  0  0
    3.8500   -2.8792    0.0000 C    0  0  0  0  0  0  0  0  0  0  0  0
    4.4375   -2.3000    0.0000 S    0  0  0  0  0  0  0  0  0  0  0  0
    3.9792   -3.6917    0.0000 C    0  0  0  0  0  0  0  0  0  0  0  0
    2.6667   -1.1042    0.0000 C    0  0  0  0  0  0  0  0  0  0  0  0
    8.4792   -4.6667    0.0000 C    0  0  0  0  0  0  0  0  0  0  0  0
    9.2417   -4.9625    0.0000 C    0  0  0  0  0  0  0  0  0  0  0  0
    4.4417   -0.8292    0.0000 O    0  0  0  0  0  0  0  0  0  0  0  0
    2.3792   -2.8750    0.0000 O    0  0  0  0  0  0  0  0  0  0  0  0
    4.7500   -3.9917    0.0000 C    0  0  0  0  0  0  0  0  0  0  0  0
    1.8750   -1.3167    0.0000 C    0  0  0  0  0  0  0  0  0  0  0  0
    2.8917   -0.3042    0.0000 C    0  0  0  0  0  0  0  0  0  0  0  0
    1.5167    0.0708    0.0000 C    0  0  0  0  0  0  0  0  0  0  0  0
    6.2917   -4.5917    0.0000 C    0  0  0  0  0  0  0  0  0  0  0  0
    2.3125    0.2750    0.0000 C    0  0  0  0  0  0  0  0  0  0  0  0
    1.2917   -0.7292    0.0000 C    0  0  0  0  0  0  0  0  0  0  0  0
    0.9375    0.6583    0.0000 Cl   0  0  0  0  0  0  0  0  0  0  0  0
    5.3917   -3.4792    0.0000 C    0  0  0  0  0  0  0  0  0  0  0  0
    4.8792   -4.8167    0.0000 C    0  0  0  0  0  0  0  0  0  0  0  0
    6.1625   -3.7792    0.0000 C    0  0  0  0  0  0  0  0  0  0  0  0
    5.6417   -5.1125    0.0000 C    0  0  0  0  0  0  0  0  0  0  0  0
    7.7042   -4.3667    0.0000 C    0  0  0  0  0  0  0  0  0  0  0  0
    7.0667   -4.8875    0.0000 O    0  0  0  0  0  0  0  0  0  0  0  0
  2  1  1  0  0  0  0
  3  1  1  0  0  0  0
  4  3  1  0  0  0  0
  5  2  1  0  0  0  0
  5  4  1  0  0  0  0
  6  4  2  0  0  0  0
  7  1  1  0  0  0  0
  8 24  1  0  0  0  0
  9  8  3  0  0  0  0
 10  2  2  0  0  0  0
 11  3  2  0  0  0  0
 12  6  1  0  0  0  0
 13  7  1  0  0  0  0
 14  7  2  0  0  0  0
 15 17  2  0  0  0  0
 15 18  1  0  0  0  0
 16 23  2  0  0  0  0
 16 22  1  0  0  0  0
 17 14  1  0  0  0  0
 18 13  2  0  0  0  0
 19 15  1  0  0  0  0
 20 12  1  0  0  0  0
 21 12  2  0  0  0  0
 22 20  2  0  0  0  0
 23 21  1  0  0  0  0
 24 25  1  0  0  0  0
 25 16  1  0  0  0  0
M  END
> <CdId>
979

> <Mol Weight>
369.821

> <Formula>
C19H12ClNO3S

> <Click_ID>
CLK013_G04 __ __ 

$$$$
