CLK004_F02
 OpenBabel03181413202D

 20 21  0  0  0  0  0  0  0  0999 V2000
   -0.5649   -0.1206    0.0000 N   0  0  0  0  0  0  0  0  0  0  0  0
   -1.3815    0.0233    0.0000 C   0  0  0  0  0  0  0  0  0  0  0  0
   -0.0381    0.5141    0.0000 C   0  0  0  0  0  0  0  0  0  0  0  0
   -0.2793   -0.8928    0.0000 C   0  0  0  0  0  0  0  0  0  0  0  0
   -1.9082   -0.6114    0.0000 N   0  0  0  0  0  0  0  0  0  0  0  0
   -1.6650    0.7913    0.0000 N   0  0  0  0  0  0  0  0  0  0  0  0
    0.7786    0.3744    0.0000 C   0  0  0  0  0  0  0  0  0  0  0  0
    0.5331   -1.0367    0.0000 C   0  0  0  0  0  0  0  0  0  0  0  0
   -2.7249   -0.4739    0.0000 C   0  0  0  0  0  0  0  0  0  0  0  0
   -2.4795    0.9351    0.0000 C   0  0  0  0  0  0  0  0  0  0  0  0
    1.0641   -0.3977    0.0000 C   0  0  0  0  0  0  0  0  0  0  0  0
   -3.0083    0.3047    0.0000 C   0  0  0  0  0  0  0  0  0  0  0  0
   -3.2516   -1.1064    0.0000 C   0  0  0  0  0  0  0  0  0  0  0  0
   -2.7671    1.7073    0.0000 C   0  0  0  0  0  0  0  0  0  0  0  0
    1.8765   -0.5416    0.0000 C   0  0  0  0  0  0  0  0  0  0  0  0
    2.4075    0.0931    0.0000 N   0  0  0  0  0  0  0  0  0  0  0  0
    2.1621   -1.3180    0.0000 O   0  0  0  0  0  0  0  0  0  0  0  0
    3.2199   -0.0466    0.0000 C   0  0  0  0  0  0  0  0  0  0  0  0
    3.7488    0.5860    0.0000 C   0  0  0  0  0  0  0  0  0  0  0  0
    4.2798    1.2186    0.0000 C   0  0  0  0  0  0  0  0  0  0  0  0
  1  2  1  0  0  0  0
  1  3  1  0  0  0  0
  1  4  1  0  0  0  0
  2  5  2  0  0  0  0
  2  6  1  0  0  0  0
  3  7  1  0  0  0  0
  4  8  1  0  0  0  0
  5  9  1  0  0  0  0
  6 10  2  0  0  0  0
  7 11  1  0  0  0  0
  8 11  1  0  0  0  0
  9 12  2  0  0  0  0
  9 13  1  0  0  0  0
 10 14  1  0  0  0  0
 10 12  1  0  0  0  0
 11 15  1  0  0  0  0
 15 16  1  0  0  0  0
 15 17  2  0  0  0  0
 16 18  1  0  0  0  0
 18 19  1  0  0  0  0
 19 20  3  0  0  0  0
M  END
> <CdId>
291

> <Mol Weight>
272.3455

> <Formula>
C15H20N4O

> <Click_ID>
CLK004_F02 __ __ 

$$$$
