CLK039F02
 OpenBabel03181413202D

 20 22  0  0  0  0  0  0  0  0999 V2000
   -0.6913    0.8661    0.0000 N   0  0  0  0  0  0  0  0  0  0  0  0
   -0.6913    1.6907    0.0000 C   0  0  0  0  0  0  0  0  0  0  0  0
   -1.4741    1.9446    0.0000 N   0  0  0  0  0  0  0  0  0  0  0  0
    0.0916    0.6122    0.0000 C   0  0  0  0  0  0  0  0  0  0  0  0
    0.5789    1.2784    0.0000 N   0  0  0  0  0  0  0  0  0  0  0  0
    0.0916    1.9446    0.0000 N   0  0  0  0  0  0  0  0  0  0  0  0
   -1.4741    0.6122    0.0000 C   0  0  0  0  0  0  0  0  0  0  0  0
   -1.9613    1.2784    0.0000 C   0  0  0  0  0  0  0  0  0  0  0  0
    0.3498   -0.1707    0.0000 S   0  0  0  0  0  0  0  0  0  0  0  0
    3.2772   -2.2570    0.0000 C   0  0  0  0  0  0  0  0  0  0  0  0
    4.0850   -2.4277    0.0000 C   0  0  0  0  0  0  0  0  0  0  0  0
    1.4116   -1.1285    0.0000 C   0  0  0  0  0  0  0  0  0  0  0  0
    0.8577   -1.7406    0.0000 O   0  0  0  0  0  0  0  0  0  0  0  0
    1.1535   -0.3456    0.0000 C   0  0  0  0  0  0  0  0  0  0  0  0
    2.2154   -1.2992    0.0000 N   0  0  0  0  0  0  0  0  0  0  0  0
    2.4693   -2.0821    0.0000 C   0  0  0  0  0  0  0  0  0  0  0  0
   -1.8114   -0.1416    0.0000 C   0  0  0  0  0  0  0  0  0  0  0  0
   -2.7775    1.1909    0.0000 C   0  0  0  0  0  0  0  0  0  0  0  0
   -2.6317   -0.2291    0.0000 C   0  0  0  0  0  0  0  0  0  0  0  0
   -3.1148    0.4373    0.0000 C   0  0  0  0  0  0  0  0  0  0  0  0
  2  1  1  0  0  0  0
  3  2  2  0  0  0  0
  4  1  1  0  0  0  0
  5  4  2  0  0  0  0
  6  2  1  0  0  0  0
  6  5  1  0  0  0  0
  7  1  1  0  0  0  0
  8  7  2  0  0  0  0
  8  3  1  0  0  0  0
  9  4  1  0  0  0  0
 10 16  1  0  0  0  0
 11 10  3  0  0  0  0
 12 14  1  0  0  0  0
 13 12  2  0  0  0  0
 14  9  1  0  0  0  0
 15 12  1  0  0  0  0
 16 15  1  0  0  0  0
 17  7  1  0  0  0  0
 18  8  1  0  0  0  0
 19 17  2  0  0  0  0
 19 20  1  0  0  0  0
 20 18  2  0  0  0  0
M  END
> <CdId>
2934

> <Mol Weight>
285.324

> <Formula>
C13H11N5OS

> <Click_ID>
CLK039F02 __ __ 

$$$$
