CLK039A07
 OpenBabel03181413202D

 20 21  0  0  0  0  0  0  0  0999 V2000
    0.4833    1.2458    0.0000 C   0  0  0  0  0  0  0  0  0  0  0  0
    0.4833    0.4208    0.0000 C   0  0  0  0  0  0  0  0  0  0  0  0
    1.2000    1.6583    0.0000 N   0  0  0  0  0  0  0  0  0  0  0  0
    1.9125    0.4208    0.0000 N   0  0  0  0  0  0  0  0  0  0  0  0
    1.9125    1.2458    0.0000 C   0  0  0  0  0  0  0  0  0  0  0  0
    1.2000    0.0083    0.0000 C   0  0  0  0  0  0  0  0  0  0  0  0
   -0.3000    1.5000    0.0000 N   0  0  0  0  0  0  0  0  0  0  0  0
   -0.3000    0.1625    0.0000 N   0  0  0  0  0  0  0  0  0  0  0  0
   -0.7875    0.8333    0.0000 C   0  0  0  0  0  0  0  0  0  0  0  0
   -0.5542   -0.6208    0.0000 C   0  0  0  0  0  0  0  0  0  0  0  0
   -2.6792   -2.5333    0.0000 C   0  0  0  0  0  0  0  0  0  0  0  0
    2.6250    1.6583    0.0000 O   0  0  0  0  0  0  0  0  0  0  0  0
    1.2000   -0.8167    0.0000 O   0  0  0  0  0  0  0  0  0  0  0  0
   -2.9333   -3.3167    0.0000 C   0  0  0  0  0  0  0  0  0  0  0  0
   -1.3625   -0.7917    0.0000 C   0  0  0  0  0  0  0  0  0  0  0  0
   -1.9167   -0.1792    0.0000 O   0  0  0  0  0  0  0  0  0  0  0  0
    1.2000    2.4833    0.0000 C   0  0  0  0  0  0  0  0  0  0  0  0
    2.6250    0.0083    0.0000 C   0  0  0  0  0  0  0  0  0  0  0  0
   -1.6167   -1.5750    0.0000 N   0  0  0  0  0  0  0  0  0  0  0  0
   -2.4250   -1.7500    0.0000 C   0  0  0  0  0  0  0  0  0  0  0  0
  2  1  2  0  0  0  0
  3  1  1  0  0  0  0
  4  6  1  0  0  0  0
  5  3  1  0  0  0  0
  5  4  1  0  0  0  0
  6  2  1  0  0  0  0
  7  1  1  0  0  0  0
  8  2  1  0  0  0  0
  8  9  1  0  0  0  0
  9  7  2  0  0  0  0
 10  8  1  0  0  0  0
 11 20  1  0  0  0  0
 12  5  2  0  0  0  0
 13  6  2  0  0  0  0
 14 11  3  0  0  0  0
 15 10  1  0  0  0  0
 16 15  2  0  0  0  0
 17  3  1  0  0  0  0
 18  4  1  0  0  0  0
 19 15  1  0  0  0  0
 20 19  1  0  0  0  0
M  END
> <CdId>
2969

> <Mol Weight>
275.2633

> <Formula>
C12H13N5O3

> <Click_ID>
CLK039A07 __ __ 

$$$$
