CLK010_E03
 OpenBabel03181413202D

 25 28  0  0  0  0  0  0  0  0999 V2000
   -0.5642    0.7324    0.0000 C    0  0  0  0  0  0  0  0  0  0  0  0
    0.6557   -0.0297    0.0000 N    0  0  0  0  0  0  0  0  0  0  0  0
    0.2672    0.7101    0.0000 C    0  0  0  0  0  0  0  0  0  0  0  0
    1.4500   -0.2301    0.0000 C    0  0  0  0  0  0  0  0  0  0  0  0
   -1.0392    0.0891    0.0000 S    0  0  0  0  0  0  0  0  0  0  0  0
   -1.0392    1.4227    0.0000 C    0  0  0  0  0  0  0  0  0  0  0  0
    1.5143   -1.0492    0.0000 N    0  0  0  0  0  0  0  0  0  0  0  0
   -1.8236    1.1704    0.0000 C    0  0  0  0  0  0  0  0  0  0  0  0
    0.2178   -0.7300    0.0000 C    0  0  0  0  0  0  0  0  0  0  0  0
   -1.8236    0.3390    0.0000 C    0  0  0  0  0  0  0  0  0  0  0  0
    0.7646   -1.3584    0.0000 C    0  0  0  0  0  0  0  0  0  0  0  0
    2.5932    1.6331    0.0000 C    0  0  0  0  0  0  0  0  0  0  0  0
    3.2365    2.1576    0.0000 C    0  0  0  0  0  0  0  0  0  0  0  0
    0.6928    1.4079    0.0000 O    0  0  0  0  0  0  0  0  0  0  0  0
    2.0958    0.3043    0.0000 S    0  0  0  0  0  0  0  0  0  0  0  0
   -0.7794    2.2047    0.0000 Cl   0  0  0  0  0  0  0  0  0  0  0  0
    1.9622    1.1258    0.0000 C    0  0  0  0  0  0  0  0  0  0  0  0
   -2.5362    1.5737    0.0000 C    0  0  0  0  0  0  0  0  0  0  0  0
   -0.5914   -0.8710    0.0000 C    0  0  0  0  0  0  0  0  0  0  0  0
   -2.5362   -0.0767    0.0000 C    0  0  0  0  0  0  0  0  0  0  0  0
    0.4924   -2.1304    0.0000 C    0  0  0  0  0  0  0  0  0  0  0  0
   -3.2488    1.1704    0.0000 C    0  0  0  0  0  0  0  0  0  0  0  0
   -0.8734   -1.6430    0.0000 C    0  0  0  0  0  0  0  0  0  0  0  0
   -0.3266   -2.2962    0.0000 C    0  0  0  0  0  0  0  0  0  0  0  0
   -3.2488    0.3390    0.0000 C    0  0  0  0  0  0  0  0  0  0  0  0
  2  3  1  0  0  0  0
  3  1  1  0  0  0  0
  4  2  1  0  0  0  0
  5  1  1  0  0  0  0
  6  1  2  0  0  0  0
  7  4  2  0  0  0  0
  8  6  1  0  0  0  0
  9  2  1  0  0  0  0
 10  5  1  0  0  0  0
 10  8  1  0  0  0  0
 11  9  1  0  0  0  0
 11  7  1  0  0  0  0
 12 17  1  0  0  0  0
 13 12  3  0  0  0  0
 14  3  2  0  0  0  0
 15  4  1  0  0  0  0
 16  6  1  0  0  0  0
 17 15  1  0  0  0  0
 18  8  2  0  0  0  0
 19  9  2  0  0  0  0
 20 10  2  0  0  0  0
 21 11  2  0  0  0  0
 22 18  1  0  0  0  0
 23 19  1  0  0  0  0
 24 23  2  0  0  0  0
 24 21  1  0  0  0  0
 25 20  1  0  0  0  0
 25 22  2  0  0  0  0
M  END
> <CdId>
718

> <Mol Weight>
382.886

> <Formula>
C19H11ClN2OS2

> <Click_ID>
CLK010_E03 __ __ 

$$$$
