CLK004_H06
 OpenBabel03181413202D

 22 24  0  0  0  0  0  0  0  0999 V2000
   -1.4120    0.1438    0.0000 C   0  0  0  0  0  0  0  0  0  0  0  0
   -0.6056    0.2877    0.0000 C   0  0  3  0  0  0  0  0  0  0  0  0
   -1.5293   -0.6662    0.0000 C   0  0  0  0  0  0  0  0  0  0  0  0
   -2.0593    0.6549    0.0000 C   0  0  0  0  0  0  0  0  0  0  0  0
   -0.2196   -0.4428    0.0000 C   0  0  0  0  0  0  0  0  0  0  0  0
    0.3256    0.9123    0.0000 C   0  0  0  0  0  0  0  0  0  0  0  0
   -0.8631    1.2264    0.0000 O   0  0  0  0  0  0  0  0  0  0  0  0
   -0.7949   -1.0296    0.0000 N   0  0  0  0  0  0  0  0  0  0  0  0
   -2.2902   -0.9767    0.0000 C   0  0  0  0  0  0  0  0  0  0  0  0
   -2.8278    0.3482    0.0000 C   0  0  0  0  0  0  0  0  0  0  0  0
    0.5981   -0.5565    0.0000 O   0  0  0  0  0  0  0  0  0  0  0  0
    1.1129    0.4997    0.0000 C   0  0  0  0  0  0  0  0  0  0  0  0
   -0.6511   -1.8398    0.0000 C   0  0  0  0  0  0  0  0  0  0  0  0
   -2.9413   -0.4694    0.0000 C   0  0  0  0  0  0  0  0  0  0  0  0
    1.8095    0.9464    0.0000 C   0  0  0  0  0  0  0  0  0  0  0  0
    1.1470   -0.1855    0.0000 O   0  0  0  0  0  0  0  0  0  0  0  0
    0.1249   -2.1198    0.0000 C   0  0  0  0  0  0  0  0  0  0  0  0
    1.8511    1.7677    0.0000 C   0  0  0  0  0  0  0  0  0  0  0  0
    2.5741    0.6435    0.0000 O   0  0  0  0  0  0  0  0  0  0  0  0
    0.8934   -2.4075    0.0000 C   0  0  0  0  0  0  0  0  0  0  0  0
    2.6574    1.9723    0.0000 C   0  0  0  0  0  0  0  0  0  0  0  0
    3.1002    1.2833    0.0000 C   0  0  0  0  0  0  0  0  0  0  0  0
  1  2  1  0  0  0  0
  1  3  2  0  0  0  0
  1  4  1  0  0  0  0
  2  5  1  0  0  0  0
  2  6  1  0  0  0  0
  2  7  1  0  0  0  0
  3  8  1  0  0  0  0
  3  9  1  0  0  0  0
  4 10  2  0  0  0  0
  5 11  2  0  0  0  0
  5  8  1  0  0  0  0
  6 12  1  0  0  0  0
  8 13  1  0  0  0  0
  9 14  2  0  0  0  0
 10 14  1  0  0  0  0
 12 15  1  0  0  0  0
 12 16  2  0  0  0  0
 13 17  1  0  0  0  0
 15 18  2  0  0  0  0
 15 19  1  0  0  0  0
 17 20  3  0  0  0  0
 18 21  1  0  0  0  0
 19 22  1  0  0  0  0
 21 22  2  0  0  0  0
M  END
> <CdId>
315

> <Mol Weight>
295.2894

> <Formula>
C17H13NO4

> <Click_ID>
CLK004_H06 __ __ 

$$$$
