CLK011_D10
 OpenBabel03181413202D

 15 15  0  0  0  0  0  0  0  0999 V2000
    1.5150    0.9073    0.0000 C    0  0  0  0  0  0  0  0  0  0  0  0
    2.2351    2.1435    0.0000 C    0  0  0  0  0  0  0  0  0  0  0  0
    2.2351    1.3111    0.0000 C    0  0  0  0  0  0  0  0  0  0  0  0
    1.5233    2.5555    0.0000 C    0  0  0  0  0  0  0  0  0  0  0  0
    0.8033    1.3236    0.0000 C    0  0  0  0  0  0  0  0  0  0  0  0
    2.2642    4.6117    0.0000 C    0  0  0  0  0  0  0  0  0  0  0  0
    0.8033    2.1559    0.0000 C    0  0  0  0  0  0  0  0  0  0  0  0
    2.2725    5.4441    0.0000 C    0  0  0  0  0  0  0  0  0  0  0  0
    1.5150    0.0749    0.0000 C    0  0  0  0  0  0  0  0  0  0  0  0
    0.8033   -0.3371    0.0000 O    0  0  0  0  0  0  0  0  0  0  0  0
    2.9468    0.8990    0.0000 Br   0  0  0  0  0  0  0  0  0  0  0  0
    1.5358    3.3921    0.0000 O    0  0  0  0  0  0  0  0  0  0  0  0
    0.1041    2.5680    0.0000 O    0  0  0  0  0  0  0  0  0  0  0  0
    2.2517    3.7917    0.0000 C    0  0  0  0  0  0  0  0  0  0  0  0
   -0.6076    2.1684    0.0000 C    0  0  0  0  0  0  0  0  0  0  0  0
  2  3  2  0  0  0  0
  2  4  1  0  0  0  0
  3  1  1  0  0  0  0
  4  7  2  0  0  0  0
  5  1  2  0  0  0  0
  6 14  1  0  0  0  0
  7  5  1  0  0  0  0
  8  6  3  0  0  0  0
  9  1  1  0  0  0  0
 10  9  2  0  0  0  0
 11  3  1  0  0  0  0
 12  4  1  0  0  0  0
 13  7  1  0  0  0  0
 14 12  1  0  0  0  0
 15 13  1  0  0  0  0
M  END
> <CdId>
795

> <Mol Weight>
269.091

> <Formula>
C11H9BrO3

> <Click_ID>
CLK011_D10 __ __ 

$$$$
