CLK036_B06
 OpenBabel03181413202D

 26 28  0  0  0  0  0  0  0  0999 V2000
   -0.4675    4.8859    0.0000 C   0  0  0  0  0  0  0  0  0  0  0  0
   -0.0550    4.1616    0.0000 N   0  0  0  0  0  0  0  0  0  0  0  0
   -1.2788    4.9684    0.0000 N   0  0  0  0  0  0  0  0  0  0  0  0
   -0.1329    5.6375    0.0000 S   0  0  0  0  0  0  0  0  0  0  0  0
   -1.4529    5.7796    0.0000 C   0  0  0  0  0  0  0  0  0  0  0  0
    2.4246    1.2879    0.0000 S   0  0  0  0  0  0  0  0  0  0  0  0
   -0.7425    6.1921    0.0000 C   0  0  0  0  0  0  0  0  0  0  0  0
    0.7746    4.1479    0.0000 C   0  0  0  0  0  0  0  0  0  0  0  0
    2.0121    2.0075    0.0000 C   0  0  0  0  0  0  0  0  0  0  0  0
   -1.5629    3.5750    0.0000 C   0  0  0  0  0  0  0  0  0  0  0  0
   -1.3016    2.7912    0.0000 C   0  0  0  0  0  0  0  0  0  0  0  0
    1.1871    3.4375    0.0000 C   0  0  0  0  0  0  0  0  0  0  0  0
    1.7050    0.8754    0.0000 O   0  0  0  0  0  0  0  0  0  0  0  0
    3.1534    1.7004    0.0000 O   0  0  0  0  0  0  0  0  0  0  0  0
   -2.1679    6.1921    0.0000 C   0  0  0  0  0  0  0  0  0  0  0  0
    1.1871    4.8584    0.0000 O   0  0  0  0  0  0  0  0  0  0  0  0
   -1.8241    4.3541    0.0000 C   0  0  0  0  0  0  0  0  0  0  0  0
    2.4246    2.7316    0.0000 C   0  0  0  0  0  0  0  0  0  0  0  0
    1.1871    2.0075    0.0000 C   0  0  0  0  0  0  0  0  0  0  0  0
    2.0121    3.4375    0.0000 C   0  0  0  0  0  0  0  0  0  0  0  0
    0.7746    2.7225    0.0000 C   0  0  0  0  0  0  0  0  0  0  0  0
    2.8371    0.5591    0.0000 C   0  0  0  0  0  0  0  0  0  0  0  0
   -2.8875    5.7750    0.0000 F   0  0  0  0  0  0  0  0  0  0  0  0
   -0.7425    7.0171    0.0000 C   0  0  0  0  0  0  0  0  0  0  0  0
   -1.4529    7.4296    0.0000 C   0  0  0  0  0  0  0  0  0  0  0  0
   -2.1679    7.0171    0.0000 C   0  0  0  0  0  0  0  0  0  0  0  0
  2  1  2  0  0  0  0
  3  1  1  0  0  0  0
  4  1  1  0  0  0  0
  5  3  1  0  0  0  0
  5  7  2  0  0  0  0
  6  9  1  0  0  0  0
  7  4  1  0  0  0  0
  8  2  1  0  0  0  0
  9 19  2  0  0  0  0
 10 17  1  0  0  0  0
 11 10  3  0  0  0  0
 12  8  1  0  0  0  0
 13  6  2  0  0  0  0
 14  6  2  0  0  0  0
 15  5  1  0  0  0  0
 16  8  2  0  0  0  0
 17  3  1  0  0  0  0
 18 20  2  0  0  0  0
 18  9  1  0  0  0  0
 19 21  1  0  0  0  0
 20 12  1  0  0  0  0
 21 12  2  0  0  0  0
 22  6  1  0  0  0  0
 23 15  1  0  0  0  0
 24  7  1  0  0  0  0
 25 24  2  0  0  0  0
 26 15  2  0  0  0  0
 26 25  1  0  0  0  0
M  END
> <CdId>
2736

> <Mol Weight>
388.436

> <Formula>
C18H13FN2O3S2

> <Click_ID>
CLK036_B06 __ __ 

$$$$
