CLK015_E08
 OpenBabel03181413202D

 33 35  0  0  0  0  0  0  0  0999 V2000
    5.8476   -3.5791    0.0000 N    0  0  0  0  0  0  0  0  0  0  0  0
    4.6194   -2.8505    0.0000 C    0  0  0  0  0  0  0  0  0  0  0  0
    5.4351   -2.8642    0.0000 C    0  0  0  0  0  0  0  0  0  0  0  0
    5.4214   -4.2894    0.0000 C    0  0  0  0  0  0  0  0  0  0  0  0
    4.5965   -4.2803    0.0000 N    0  0  0  0  0  0  0  0  0  0  0  0
    4.1978   -3.5608    0.0000 C    0  0  0  0  0  0  0  0  0  0  0  0
    4.2115   -2.1356    0.0000 C    0  0  0  0  0  0  0  0  0  0  0  0
    1.7460   -2.0943    0.0000 C    0  0  0  0  0  0  0  0  0  0  0  0
    2.1447   -2.8184    0.0000 C    0  0  0  0  0  0  0  0  0  0  0  0
    2.1631   -1.3886    0.0000 C    0  0  0  0  0  0  0  0  0  0  0  0
    6.6724   -3.5883    0.0000 C    0  0  0  0  0  0  0  0  0  0  0  0
    3.3866   -2.1218    0.0000 C    0  0  0  0  0  0  0  0  0  0  0  0
    9.1471   -3.6204    0.0000 C    0  0  0  0  0  0  0  0  0  0  0  0
   -0.3300   -2.7817    0.0000 C    0  0  0  0  0  0  0  0  0  0  0  0
    5.8292   -5.0089    0.0000 O    0  0  0  0  0  0  0  0  0  0  0  0
   -0.7515   -3.4829    0.0000 C    0  0  0  0  0  0  0  0  0  0  0  0
    5.8613   -2.1493    0.0000 O    0  0  0  0  0  0  0  0  0  0  0  0
    2.9696   -2.8321    0.0000 C    0  0  0  0  0  0  0  0  0  0  0  0
    2.9880   -1.4023    0.0000 C    0  0  0  0  0  0  0  0  0  0  0  0
    3.3729   -3.5516    0.0000 O    0  0  0  0  0  0  0  0  0  0  0  0
    8.3222   -3.6066    0.0000 C    0  0  0  0  0  0  0  0  0  0  0  0
    9.5458   -4.3353    0.0000 O    0  0  0  0  0  0  0  0  0  0  0  0
    7.0940   -2.8780    0.0000 C    0  0  0  0  0  0  0  0  0  0  0  0
    7.0711   -4.3078    0.0000 C    0  0  0  0  0  0  0  0  0  0  0  0
    7.9189   -2.8917    0.0000 C    0  0  0  0  0  0  0  0  0  0  0  0
    7.8960   -4.3169    0.0000 C    0  0  0  0  0  0  0  0  0  0  0  0
    1.7231   -3.5241    0.0000 Cl   0  0  0  0  0  0  0  0  0  0  0  0
    0.9211   -2.0806    0.0000 O    0  0  0  0  0  0  0  0  0  0  0  0
    9.5687   -2.9055    0.0000 O    0  0  0  0  0  0  0  0  0  0  0  0
    1.7644   -0.6645    0.0000 O    0  0  0  0  0  0  0  0  0  0  0  0
    0.4949   -2.7955    0.0000 C    0  0  0  0  0  0  0  0  0  0  0  0
    2.1859    0.0366    0.0000 C    0  0  0  0  0  0  0  0  0  0  0  0
    1.7873    0.7653    0.0000 C    0  0  0  0  0  0  0  0  0  0  0  0
  2  3  1  0  0  0  0
  3  1  1  0  0  0  0
  4  1  1  0  0  0  0
  5  4  1  0  0  0  0
  6  5  1  0  0  0  0
  6  2  1  0  0  0  0
  7  2  2  0  0  0  0
  8 10  1  0  0  0  0
  8  9  2  0  0  0  0
  9 18  1  0  0  0  0
 10 19  2  0  0  0  0
 11  1  1  0  0  0  0
 12  7  1  0  0  0  0
 13 21  1  0  0  0  0
 14 31  1  0  0  0  0
 15  4  2  0  0  0  0
 16 14  3  0  0  0  0
 17  3  2  0  0  0  0
 18 12  2  0  0  0  0
 19 12  1  0  0  0  0
 20  6  2  0  0  0  0
 21 26  1  0  0  0  0
 22 13  2  0  0  0  0
 23 11  2  0  0  0  0
 24 11  1  0  0  0  0
 25 23  1  0  0  0  0
 25 21  2  0  0  0  0
 26 24  2  0  0  0  0
 27  9  1  0  0  0  0
 28  8  1  0  0  0  0
 29 13  1  0  0  0  0
 30 10  1  0  0  0  0
 31 28  1  0  0  0  0
 32 30  1  0  0  0  0
 33 32  1  0  0  0  0
M  END
> <CdId>
1123

> <Mol Weight>
468.843

> <Formula>
C23H17ClN2O7

> <Click_ID>
CLK015_E08 __ __ 

$$$$
