CLK042F09
 OpenBabel03181413202D

 25 26  0  0  0  0  0  0  0  0999 V2000
    1.7963   -0.0917    0.0000 N   0  0  0  0  0  0  0  0  0  0  0  0
    1.1295   -0.5751    0.0000 C   0  0  0  0  0  0  0  0  0  0  0  0
    1.7963    0.7335    0.0000 C   0  0  0  0  0  0  0  0  0  0  0  0
    1.3837   -1.3628    0.0000 N   0  0  0  0  0  0  0  0  0  0  0  0
    2.2089   -1.3628    0.0000 N   0  0  0  0  0  0  0  0  0  0  0  0
    2.4631   -0.5751    0.0000 C   0  0  0  0  0  0  0  0  0  0  0  0
   -3.2383   -0.6627    0.0000 C   0  0  0  0  0  0  0  0  0  0  0  0
    0.3418   -0.3209    0.0000 S   0  0  0  0  0  0  0  0  0  0  0  0
   -4.0218   -0.4043    0.0000 C   0  0  0  0  0  0  0  0  0  0  0  0
   -1.0545   -0.6210    0.0000 C   0  0  0  0  0  0  0  0  0  0  0  0
   -1.6671   -1.1711    0.0000 N   0  0  0  0  0  0  0  0  0  0  0  0
    1.0795    1.1461    0.0000 C   0  0  0  0  0  0  0  0  0  0  0  0
   -2.4506   -0.9169    0.0000 C   0  0  0  0  0  0  0  0  0  0  0  0
    2.5089    1.1461    0.0000 C   0  0  0  0  0  0  0  0  0  0  0  0
   -1.2253    0.1875    0.0000 O   0  0  0  0  0  0  0  0  0  0  0  0
   -0.2709   -0.8752    0.0000 C   0  0  0  0  0  0  0  0  0  0  0  0
    1.0795    1.9713    0.0000 C   0  0  0  0  0  0  0  0  0  0  0  0
    2.5089    1.9713    0.0000 C   0  0  0  0  0  0  0  0  0  0  0  0
    1.7963    2.3839    0.0000 C   0  0  0  0  0  0  0  0  0  0  0  0
   -2.7090   -1.7004    0.0000 C   0  0  0  0  0  0  0  0  0  0  0  0
   -2.1964   -0.1333    0.0000 C   0  0  0  0  0  0  0  0  0  0  0  0
    0.3668    0.7335    0.0000 C   0  0  0  0  0  0  0  0  0  0  0  0
    3.2258    2.3839    0.0000 C   0  0  0  0  0  0  0  0  0  0  0  0
   -3.5134   -1.8713    0.0000 C   0  0  0  0  0  0  0  0  0  0  0  0
   -1.3921    0.0417    0.0000 C   0  0  0  0  0  0  0  0  0  0  0  0
  2  1  1  0  0  0  0
  3  1  1  0  0  0  0
  4  2  2  0  0  0  0
  5  6  2  0  0  0  0
  5  4  1  0  0  0  0
  6  1  1  0  0  0  0
  7 13  1  0  0  0  0
  8  2  1  0  0  0  0
  9  7  3  0  0  0  0
 10 16  1  0  0  0  0
 11 10  1  0  0  0  0
 12  3  2  0  0  0  0
 13 11  1  0  0  0  0
 14  3  1  0  0  0  0
 15 10  2  0  0  0  0
 16  8  1  0  0  0  0
 17 12  1  0  0  0  0
 18 14  2  0  0  0  0
 19 17  2  0  0  0  0
 19 18  1  0  0  0  0
 20 13  1  0  0  0  0
 21 13  1  0  0  0  0
 22 12  1  0  0  0  0
 23 18  1  0  0  0  0
 24 20  1  0  0  0  0
 25 21  1  0  0  0  0
M  END
> <CdId>
3230

> <Mol Weight>
356.485

> <Formula>
C19H24N4OS

> <Click_ID>
CLK042F09 __ __ 

$$$$
