CLK017_D06
 OpenBabel03181413202D

 33 35  0  0  0  0  0  0  0  0999 V2000
    4.5708   -1.6964    0.0000 C    0  0  0  0  0  0  0  0  0  0  0  0
    4.9067   -0.9457    0.0000 C    0  0  0  0  0  0  0  0  0  0  0  0
    3.5753   -0.8005    0.0000 C    0  0  0  0  0  0  0  0  0  0  0  0
    3.7495   -1.6051    0.0000 S    0  0  0  0  0  0  0  0  0  0  0  0
    4.2970   -0.3899    0.0000 C    0  0  0  0  0  0  0  0  0  0  0  0
    4.9772   -2.4057    0.0000 N    0  0  0  0  0  0  0  0  0  0  0  0
    4.5583   -3.1274    0.0000 C    0  0  0  0  0  0  0  0  0  0  0  0
    5.7155   -0.7756    0.0000 C    0  0  0  0  0  0  0  0  0  0  0  0
    2.8287   -0.4521    0.0000 C    0  0  0  0  0  0  0  0  0  0  0  0
   -0.4438   -3.6749    0.0000 C    0  0  0  0  0  0  0  0  0  0  0  0
   -1.1157   -4.1601    0.0000 C    0  0  0  0  0  0  0  0  0  0  0  0
    1.5678   -2.2315    0.0000 C    0  0  0  0  0  0  0  0  0  0  0  0
    4.9689   -3.8449    0.0000 C    0  0  0  0  0  0  0  0  0  0  0  0
    2.1568   -0.9374    0.0000 C    0  0  0  0  0  0  0  0  0  0  0  0
    4.3841    0.4313    0.0000 O    0  0  0  0  0  0  0  0  0  0  0  0
    2.2397   -1.7545    0.0000 C    0  0  0  0  0  0  0  0  0  0  0  0
    3.7371   -3.1149    0.0000 O    0  0  0  0  0  0  0  0  0  0  0  0
    0.8130   -1.9038    0.0000 C    0  0  0  0  0  0  0  0  0  0  0  0
    6.2630   -1.3936    0.0000 O    0  0  0  0  0  0  0  0  0  0  0  0
    5.7902   -3.8366    0.0000 C    0  0  0  0  0  0  0  0  0  0  0  0
    4.5459   -4.5459    0.0000 C    0  0  0  0  0  0  0  0  0  0  0  0
    0.7383   -1.0743    0.0000 C    0  0  0  0  0  0  0  0  0  0  0  0
    1.6425   -3.0527    0.0000 Cl   0  0  0  0  0  0  0  0  0  0  0  0
    5.9726    0.0083    0.0000 O    0  0  0  0  0  0  0  0  0  0  0  0
    1.4102   -0.5890    0.0000 C    0  0  0  0  0  0  0  0  0  0  0  0
    4.9565   -5.2676    0.0000 C    0  0  0  0  0  0  0  0  0  0  0  0
    6.2008   -4.5583    0.0000 C    0  0  0  0  0  0  0  0  0  0  0  0
    5.7860   -5.2758    0.0000 C    0  0  0  0  0  0  0  0  0  0  0  0
    0.1411   -2.3808    0.0000 O    0  0  0  0  0  0  0  0  0  0  0  0
    0.2282   -3.2020    0.0000 C    0  0  0  0  0  0  0  0  0  0  0  0
    6.7856    0.1742    0.0000 C    0  0  0  0  0  0  0  0  0  0  0  0
    6.1884   -5.9893    0.0000 C    0  0  0  0  0  0  0  0  0  0  0  0
    7.0427    0.9581    0.0000 C    0  0  0  0  0  0  0  0  0  0  0  0
  2  1  2  0  0  0  0
  3  4  1  0  0  0  0
  3  5  1  0  0  0  0
  4  1  1  0  0  0  0
  5  2  1  0  0  0  0
  6  1  1  0  0  0  0
  7  6  1  0  0  0  0
  8  2  1  0  0  0  0
  9  3  2  0  0  0  0
 10 30  1  0  0  0  0
 11 10  3  0  0  0  0
 12 16  2  0  0  0  0
 13  7  1  0  0  0  0
 14  9  1  0  0  0  0
 15  5  2  0  0  0  0
 16 14  1  0  0  0  0
 17  7  2  0  0  0  0
 18 22  2  0  0  0  0
 18 12  1  0  0  0  0
 19  8  2  0  0  0  0
 20 13  1  0  0  0  0
 21 13  2  0  0  0  0
 22 25  1  0  0  0  0
 23 12  1  0  0  0  0
 24  8  1  0  0  0  0
 25 14  2  0  0  0  0
 26 21  1  0  0  0  0
 27 20  2  0  0  0  0
 28 26  2  0  0  0  0
 28 27  1  0  0  0  0
 29 18  1  0  0  0  0
 30 29  1  0  0  0  0
 31 24  1  0  0  0  0
 32 28  1  0  0  0  0
 33 31  1  0  0  0  0
M  END
> <CdId>
1271

> <Mol Weight>
481.948

> <Formula>
C25H20ClNO5S

> <Click_ID>
CLK017_D06 __ __ 

$$$$
