CLK024_D05
 OpenBabel03181413202D

 23 25  0  0  0  0  0  0  0  0999 V2000
   -1.2733   -1.4728    0.0000 N   0  0  0  0  0  0  0  0  0  0  0  0
   -1.0909   -2.2816    0.0000 C   0  0  0  0  0  0  0  0  0  0  0  0
    0.0516   -1.5933    0.0000 C   0  0  0  0  0  0  0  0  0  0  0  0
   -0.5643   -1.0462    0.0000 C   0  0  0  0  0  0  0  0  0  0  0  0
    1.1012   -0.6229    0.0000 C   0  0  0  0  0  0  0  0  0  0  0  0
   -0.2753   -2.3538    0.0000 S   0  0  0  0  0  0  0  0  0  0  0  0
    1.0943    0.7261    0.0000 N   0  0  0  0  0  0  0  0  0  0  0  0
    0.8569   -1.4109    0.0000 C   0  0  0  0  0  0  0  0  0  0  0  0
    0.6126    0.0378    0.0000 C   0  0  0  0  0  0  0  0  0  0  0  0
    1.8961   -0.3579    0.0000 C   0  0  0  0  0  0  0  0  0  0  0  0
    1.8755    0.4646    0.0000 C   0  0  0  0  0  0  0  0  0  0  0  0
   -2.6911   -1.6483    0.0000 C   0  0  0  0  0  0  0  0  0  0  0  0
   -3.3277   -2.1715    0.0000 C   0  0  0  0  0  0  0  0  0  0  0  0
   -1.6346   -2.8975    0.0000 O   0  0  0  0  0  0  0  0  0  0  0  0
   -0.4990   -0.2237    0.0000 O   0  0  0  0  0  0  0  0  0  0  0  0
   -2.0269   -1.1459    0.0000 C   0  0  0  0  0  0  0  0  0  0  0  0
    1.3731    2.1164    0.0000 C   0  0  0  0  0  0  0  0  0  0  0  0
    0.8328    1.5004    0.0000 C   0  0  0  0  0  0  0  0  0  0  0  0
    1.1115    2.9010    0.0000 C   0  0  0  0  0  0  0  0  0  0  0  0
    2.5948    0.8879    0.0000 C   0  0  0  0  0  0  0  0  0  0  0  0
    2.6119   -0.7674    0.0000 C   0  0  0  0  0  0  0  0  0  0  0  0
    3.3105    0.4749    0.0000 C   0  0  0  0  0  0  0  0  0  0  0  0
    3.3243   -0.3442    0.0000 C   0  0  0  0  0  0  0  0  0  0  0  0
  2  1  1  0  0  0  0
  3  4  1  0  0  0  0
  4  1  1  0  0  0  0
  5  8  1  0  0  0  0
  6  2  1  0  0  0  0
  6  3  1  0  0  0  0
  7  9  1  0  0  0  0
  7 11  1  0  0  0  0
  8  3  2  0  0  0  0
  9  5  2  0  0  0  0
 10  5  1  0  0  0  0
 11 10  1  0  0  0  0
 12 16  1  0  0  0  0
 13 12  3  0  0  0  0
 14  2  2  0  0  0  0
 15  4  2  0  0  0  0
 16  1  1  0  0  0  0
 17 18  1  0  0  0  0
 18  7  1  0  0  0  0
 19 17  2  0  0  0  0
 20 11  2  0  0  0  0
 20 22  1  0  0  0  0
 21 10  2  0  0  0  0
 22 23  2  0  0  0  0
 23 21  1  0  0  0  0
M  END
> <CdId>
1810

> <Mol Weight>
322.381

> <Formula>
C18H14N2O2S

> <Click_ID>
CLK024_D05 __ __ 

$$$$
