CLK004_B05
 OpenBabel03181413202D

 30 31  0  0  0  0  0  0  0  0999 V2000
    0.3271    0.3822    0.0000 N   0  0  0  0  0  0  0  0  0  0  0  0
   -0.3925    0.7919    0.0000 C   0  0  0  0  0  0  0  0  0  0  0  0
    0.3202   -0.4441    0.0000 S   0  0  0  0  0  0  0  0  0  0  0  0
    1.0432    0.7919    0.0000 C   0  0  0  0  0  0  0  0  0  0  0  0
   -0.3925    1.6285    0.0000 C   0  0  0  0  0  0  0  0  0  0  0  0
   -1.1155    0.3822    0.0000 C   0  0  0  0  0  0  0  0  0  0  0  0
   -0.3960   -0.8642    0.0000 C   0  0  0  0  0  0  0  0  0  0  0  0
    0.9055   -1.0363    0.0000 O   0  0  0  0  0  0  0  0  0  0  0  0
    1.1190   -0.2306    0.0000 O   0  0  0  0  0  0  0  0  0  0  0  0
    1.7525    0.3822    0.0000 C   0  0  0  0  0  0  0  0  0  0  0  0
   -1.1155    2.0417    0.0000 C   0  0  0  0  0  0  0  0  0  0  0  0
   -1.8282    0.7919    0.0000 C   0  0  0  0  0  0  0  0  0  0  0  0
   -1.1155   -0.4303    0.0000 C   0  0  0  0  0  0  0  0  0  0  0  0
   -0.4063   -1.6767    0.0000 C   0  0  0  0  0  0  0  0  0  0  0  0
    2.4652    0.7919    0.0000 N   0  0  0  0  0  0  0  0  0  0  0  0
    1.7525   -0.4441    0.0000 O   0  0  0  0  0  0  0  0  0  0  0  0
   -1.8282    1.6285    0.0000 C   0  0  0  0  0  0  0  0  0  0  0  0
   -1.8282   -0.8435    0.0000 C   0  0  0  0  0  0  0  0  0  0  0  0
   -1.1155   -2.0899    0.0000 C   0  0  0  0  0  0  0  0  0  0  0  0
    3.1779    0.3822    0.0000 C   0  0  0  0  0  0  0  0  0  0  0  0
   -2.5409    2.0417    0.0000 C   0  0  0  0  0  0  0  0  0  0  0  0
   -1.8317   -1.6767    0.0000 C   0  0  0  0  0  0  0  0  0  0  0  0
   -2.5409   -0.4303    0.0000 O   0  0  0  0  0  0  0  0  0  0  0  0
    3.8974    0.7919    0.0000 C   0  0  0  0  0  0  0  0  0  0  0  0
    2.9644    1.1706    0.0000 C   0  0  0  0  0  0  0  0  0  0  0  0
    3.1779   -0.4441    0.0000 C   0  0  0  0  0  0  0  0  0  0  0  0
   -2.5444   -2.0865    0.0000 O   0  0  0  0  0  0  0  0  0  0  0  0
   -3.2536   -0.8435    0.0000 C   0  0  0  0  0  0  0  0  0  0  0  0
    4.5998    1.2050    0.0000 C   0  0  0  0  0  0  0  0  0  0  0  0
   -3.2536   -1.6733    0.0000 C   0  0  0  0  0  0  0  0  0  0  0  0
  1  2  1  0  0  0  0
  1  3  1  0  0  0  0
  1  4  1  0  0  0  0
  2  5  1  0  0  0  0
  2  6  2  0  0  0  0
  3  7  1  0  0  0  0
  3  8  2  0  0  0  0
  3  9  2  0  0  0  0
  4 10  1  0  0  0  0
  5 11  2  0  0  0  0
  6 12  1  0  0  0  0
  7 13  2  0  0  0  0
  7 14  1  0  0  0  0
 10 15  1  0  0  0  0
 10 16  2  0  0  0  0
 11 17  1  0  0  0  0
 12 17  2  0  0  0  0
 13 18  1  0  0  0  0
 14 19  2  0  0  0  0
 15 20  1  0  0  0  0
 17 21  1  0  0  0  0
 18 22  2  0  0  0  0
 18 23  1  0  0  0  0
 19 22  1  0  0  0  0
 20 24  1  0  0  0  0
 20 25  1  0  0  0  0
 20 26  1  0  0  0  0
 22 27  1  0  0  0  0
 23 28  1  0  0  0  0
 24 29  3  0  0  0  0
 27 30  1  0  0  0  0
M  END
> <CdId>
254

> <Mol Weight>
430.517

> <Formula>
C22H26N2O5S

> <Click_ID>
CLK004_B05 __ __ 

$$$$
