CLK016_C02
 OpenBabel03181413202D

 24 26  0  0  0  0  0  0  0  0999 V2000
    1.5641   -0.8153    0.0000 N    0  0  0  0  0  0  0  0  0  0  0  0
    1.8220   -1.6015    0.0000 C    0  0  0  0  0  0  0  0  0  0  0  0
    2.8994   -0.8153    0.0000 C    0  0  0  0  0  0  0  0  0  0  0  0
    2.2338   -0.3287    0.0000 C    0  0  0  0  0  0  0  0  0  0  0  0
    2.6456   -1.6015    0.0000 S    0  0  0  0  0  0  0  0  0  0  0  0
    3.7105    1.5682    0.0000 C    0  0  0  0  0  0  0  0  0  0  0  0
    3.6856   -0.5616    0.0000 C    0  0  0  0  0  0  0  0  0  0  0  0
    3.2987    0.8569    0.0000 O    0  0  0  0  0  0  0  0  0  0  0  0
    3.8478    0.2454    0.0000 C    0  0  0  0  0  0  0  0  0  0  0  0
    3.3861    2.3294    0.0000 C    0  0  0  0  0  0  0  0  0  0  0  0
    4.5217    1.4060    0.0000 C    0  0  0  0  0  0  0  0  0  0  0  0
    0.6115    0.2454    0.0000 C    0  0  0  0  0  0  0  0  0  0  0  0
    4.6090    0.5740    0.0000 C    0  0  0  0  0  0  0  0  0  0  0  0
    0.3910    1.0441    0.0000 C    0  0  0  0  0  0  0  0  0  0  0  0
    1.3353   -2.2629    0.0000 O    0  0  0  0  0  0  0  0  0  0  0  0
    2.2255    0.4950    0.0000 O    0  0  0  0  0  0  0  0  0  0  0  0
    0.7862   -0.5616    0.0000 C    0  0  0  0  0  0  0  0  0  0  0  0
    3.8728    2.9908    0.0000 C    0  0  0  0  0  0  0  0  0  0  0  0
    2.5707    2.4043    0.0000 C    0  0  0  0  0  0  0  0  0  0  0  0
    3.5358    3.7396    0.0000 C    0  0  0  0  0  0  0  0  0  0  0  0
    2.2380    3.1655    0.0000 C    0  0  0  0  0  0  0  0  0  0  0  0
    2.7205    3.8269    0.0000 C    0  0  0  0  0  0  0  0  0  0  0  0
    1.4226    3.2529    0.0000 Cl   0  0  0  0  0  0  0  0  0  0  0  0
    4.6922    2.8952    0.0000 C    0  0  0  0  0  0  0  0  0  0  0  0
  2  1  1  0  0  0  0
  3  4  1  0  0  0  0
  3  5  1  0  0  0  0
  4  1  1  0  0  0  0
  5  2  1  0  0  0  0
  6  8  1  0  0  0  0
  6 11  2  0  0  0  0
  7  3  2  0  0  0  0
  8  9  1  0  0  0  0
  9  7  1  0  0  0  0
 10  6  1  0  0  0  0
 11 13  1  0  0  0  0
 12 17  1  0  0  0  0
 13  9  2  0  0  0  0
 14 12  3  0  0  0  0
 15  2  2  0  0  0  0
 16  4  2  0  0  0  0
 17  1  1  0  0  0  0
 18 10  2  0  0  0  0
 19 10  1  0  0  0  0
 20 18  1  0  0  0  0
 20 22  2  0  0  0  0
 21 19  2  0  0  0  0
 22 21  1  0  0  0  0
 23 21  1  0  0  0  0
 24 18  1  0  0  0  0
M  END
> <CdId>
1177

> <Mol Weight>
357.811

> <Formula>
C18H12ClNO3S

> <Click_ID>
CLK016_C02 __ __ 

$$$$
