CLK025_E09
 OpenBabel03181413202D

 25 26  0  0  0  0  0  0  0  0999 V2000
    1.7847    0.8270    0.0000 N    0  0  0  0  0  0  0  0  0  0  0  0
    1.7847   -0.0070    0.0000 C    0  0  0  0  0  0  0  0  0  0  0  0
    1.0672    1.2404    0.0000 C    0  0  0  0  0  0  0  0  0  0  0  0
    0.3569    0.8270    0.0000 C    0  0  0  0  0  0  0  0  0  0  0  0
    0.3569    0.0000    0.0000 S    0  0  0  0  0  0  0  0  0  0  0  0
    2.4985   -0.4099    0.0000 N    0  0  0  0  0  0  0  0  0  0  0  0
   -2.5021    0.0000    0.0000 C    0  0  0  0  0  0  0  0  0  0  0  0
   -0.3569    1.2404    0.0000 C    0  0  0  0  0  0  0  0  0  0  0  0
   -1.7882   -0.4099    0.0000 C    0  0  0  0  0  0  0  0  0  0  0  0
   -2.5021    0.8270    0.0000 C    0  0  0  0  0  0  0  0  0  0  0  0
   -1.0708    0.8270    0.0000 C    0  0  0  0  0  0  0  0  0  0  0  0
    3.2124    0.0000    0.0000 C    0  0  0  0  0  0  0  0  0  0  0  0
   -3.9298   -1.6469    0.0000 C    0  0  0  0  0  0  0  0  0  0  0  0
   -3.9298   -2.4739    0.0000 C    0  0  0  0  0  0  0  0  0  0  0  0
   -1.0708    0.0000    0.0000 C    0  0  0  0  0  0  0  0  0  0  0  0
   -1.7882    1.2404    0.0000 C    0  0  0  0  0  0  0  0  0  0  0  0
    1.0672    2.0638    0.0000 O    0  0  0  0  0  0  0  0  0  0  0  0
    3.2054    0.8270    0.0000 O    0  0  0  0  0  0  0  0  0  0  0  0
   -1.7882   -1.2369    0.0000 Br   0  0  0  0  0  0  0  0  0  0  0  0
   -3.2160   -0.4099    0.0000 O    0  0  0  0  0  0  0  0  0  0  0  0
   -3.2160    1.2404    0.0000 O    0  0  0  0  0  0  0  0  0  0  0  0
   -3.2160   -1.2369    0.0000 C    0  0  0  0  0  0  0  0  0  0  0  0
    3.9263   -0.4064    0.0000 C    0  0  0  0  0  0  0  0  0  0  0  0
   -3.2160    2.0638    0.0000 C    0  0  0  0  0  0  0  0  0  0  0  0
   -3.9298    2.4773    0.0000 C    0  0  0  0  0  0  0  0  0  0  0  0
  2  1  2  0  0  0  0
  3  1  1  0  0  0  0
  4  3  1  0  0  0  0
  5  2  1  0  0  0  0
  5  4  1  0  0  0  0
  6  2  1  0  0  0  0
  7 10  1  0  0  0  0
  8  4  2  0  0  0  0
  9 15  1  0  0  0  0
  9  7  2  0  0  0  0
 10 16  2  0  0  0  0
 11  8  1  0  0  0  0
 12  6  1  0  0  0  0
 13 22  1  0  0  0  0
 14 13  3  0  0  0  0
 15 11  2  0  0  0  0
 16 11  1  0  0  0  0
 17  3  2  0  0  0  0
 18 12  2  0  0  0  0
 19  9  1  0  0  0  0
 20  7  1  0  0  0  0
 21 10  1  0  0  0  0
 22 20  1  0  0  0  0
 23 12  1  0  0  0  0
 24 21  1  0  0  0  0
 25 24  1  0  0  0  0
M  END
> <CdId>
1904

> <Mol Weight>
423.281

> <Formula>
C17H15BrN2O4S

> <Click_ID>
CLK025_E09 __ __ 

$$$$
