CLK040H03
 OpenBabel03181413202D

 22 23  0  0  0  0  0  0  0  0999 V2000
   -0.5958    2.0333    0.0000 S   0  0  0  0  0  0  0  0  0  0  0  0
   -0.5958   -1.2667    0.0000 C   0  0  0  0  0  0  0  0  0  0  0  0
   -0.5958    1.2083    0.0000 C   0  0  0  0  0  0  0  0  0  0  0  0
    0.1208    4.0917    0.0000 C   0  0  0  0  0  0  0  0  0  0  0  0
    0.1208    4.9167    0.0000 C   0  0  0  0  0  0  0  0  0  0  0  0
    0.1208   -1.6792    0.0000 N   0  0  0  0  0  0  0  0  0  0  0  0
   -1.4208    2.0333    0.0000 O   0  0  0  0  0  0  0  0  0  0  0  0
    0.2292    2.0333    0.0000 O   0  0  0  0  0  0  0  0  0  0  0  0
    0.8333   -2.9167    0.0000 C   0  0  0  0  0  0  0  0  0  0  0  0
   -0.5958   -0.4417    0.0000 C   0  0  0  0  0  0  0  0  0  0  0  0
   -0.5958    2.8583    0.0000 N   0  0  0  0  0  0  0  0  0  0  0  0
    1.5875   -2.5833    0.0000 O   0  0  0  0  0  0  0  0  0  0  0  0
   -1.3083   -1.6792    0.0000 O   0  0  0  0  0  0  0  0  0  0  0  0
    0.9208   -3.7375    0.0000 C   0  0  0  0  0  0  0  0  0  0  0  0
    2.1417   -3.1958    0.0000 C   0  0  0  0  0  0  0  0  0  0  0  0
    1.7292   -3.9083    0.0000 C   0  0  0  0  0  0  0  0  0  0  0  0
    0.1208    0.7958    0.0000 C   0  0  0  0  0  0  0  0  0  0  0  0
   -1.3083    0.7958    0.0000 C   0  0  0  0  0  0  0  0  0  0  0  0
    0.1208   -0.0292    0.0000 C   0  0  0  0  0  0  0  0  0  0  0  0
   -1.3083   -0.0292    0.0000 C   0  0  0  0  0  0  0  0  0  0  0  0
    0.1208   -2.5042    0.0000 C   0  0  0  0  0  0  0  0  0  0  0  0
    0.1208    3.2708    0.0000 C   0  0  0  0  0  0  0  0  0  0  0  0
  2 10  1  0  0  0  0
  3  1  1  0  0  0  0
  4 22  1  0  0  0  0
  5  4  3  0  0  0  0
  6  2  1  0  0  0  0
  7  1  2  0  0  0  0
  8  1  2  0  0  0  0
  9 21  1  0  0  0  0
 10 20  2  0  0  0  0
 11  1  1  0  0  0  0
 12  9  1  0  0  0  0
 13  2  2  0  0  0  0
 14  9  2  0  0  0  0
 15 12  1  0  0  0  0
 15 16  2  0  0  0  0
 16 14  1  0  0  0  0
 17  3  1  0  0  0  0
 18  3  2  0  0  0  0
 19 17  2  0  0  0  0
 19 10  1  0  0  0  0
 20 18  1  0  0  0  0
 21  6  1  0  0  0  0
 22 11  1  0  0  0  0
M  END
> <CdId>
3024

> <Mol Weight>
318.348

> <Formula>
C15H14N2O4S

> <Click_ID>
CLK040H03 __ __ 

$$$$
