CLK016_C05
 OpenBabel03181413202D

 29 31  0  0  0  0  0  0  0  0999 V2000
    1.5596   -0.8130    0.0000 N    0  0  0  0  0  0  0  0  0  0  0  0
    1.8167   -1.5969    0.0000 C    0  0  0  0  0  0  0  0  0  0  0  0
    2.2273   -0.3277    0.0000 C    0  0  0  0  0  0  0  0  0  0  0  0
    2.8910   -0.8130    0.0000 C    0  0  0  0  0  0  0  0  0  0  0  0
    2.6379   -1.5969    0.0000 S    0  0  0  0  0  0  0  0  0  0  0  0
    3.6749   -0.5599    0.0000 C    0  0  0  0  0  0  0  0  0  0  0  0
    0.6097    0.2447    0.0000 C    0  0  0  0  0  0  0  0  0  0  0  0
    0.3899    1.0410    0.0000 C    0  0  0  0  0  0  0  0  0  0  0  0
    3.4094    1.6051    0.0000 C    0  0  0  0  0  0  0  0  0  0  0  0
    5.3173    3.7287    0.0000 C    0  0  0  0  0  0  0  0  0  0  0  0
    1.3314   -2.2564    0.0000 O    0  0  0  0  0  0  0  0  0  0  0  0
    2.2190    0.4935    0.0000 O    0  0  0  0  0  0  0  0  0  0  0  0
    4.1975    1.8623    0.0000 C    0  0  0  0  0  0  0  0  0  0  0  0
    3.8491    0.2489    0.0000 C    0  0  0  0  0  0  0  0  0  0  0  0
    6.0971    3.9776    0.0000 N    0  0  0  0  0  0  0  0  0  0  0  0
    0.7839   -0.5599    0.0000 C    0  0  0  0  0  0  0  0  0  0  0  0
    3.2352    0.8046    0.0000 C    0  0  0  0  0  0  0  0  0  0  0  0
    4.3675    2.6711    0.0000 O    0  0  0  0  0  0  0  0  0  0  0  0
    4.7076    4.2721    0.0000 O    0  0  0  0  0  0  0  0  0  0  0  0
    4.8072    1.3148    0.0000 C    0  0  0  0  0  0  0  0  0  0  0  0
    5.1431    2.9199    0.0000 C    0  0  0  0  0  0  0  0  0  0  0  0
    2.8039    2.1609    0.0000 Br   0  0  0  0  0  0  0  0  0  0  0  0
    4.6330    0.5060    0.0000 C    0  0  0  0  0  0  0  0  0  0  0  0
    6.2713    4.7698    0.0000 C    0  0  0  0  0  0  0  0  0  0  0  0
    5.6533    5.3298    0.0000 C    0  0  0  0  0  0  0  0  0  0  0  0
    7.0594    5.0394    0.0000 C    0  0  0  0  0  0  0  0  0  0  0  0
    5.8275    6.1386    0.0000 C    0  0  0  0  0  0  0  0  0  0  0  0
    7.2294    5.8399    0.0000 C    0  0  0  0  0  0  0  0  0  0  0  0
    6.6114    6.3957    0.0000 C    0  0  0  0  0  0  0  0  0  0  0  0
  2  1  1  0  0  0  0
  3  1  1  0  0  0  0
  4  3  1  0  0  0  0
  4  5  1  0  0  0  0
  5  2  1  0  0  0  0
  6  4  2  0  0  0  0
  7 16  1  0  0  0  0
  8  7  3  0  0  0  0
  9 17  1  0  0  0  0
  9 13  2  0  0  0  0
 10 21  1  0  0  0  0
 11  2  2  0  0  0  0
 12  3  2  0  0  0  0
 13 20  1  0  0  0  0
 14  6  1  0  0  0  0
 15 10  1  0  0  0  0
 16  1  1  0  0  0  0
 17 14  2  0  0  0  0
 18 13  1  0  0  0  0
 19 10  2  0  0  0  0
 20 23  2  0  0  0  0
 21 18  1  0  0  0  0
 22  9  1  0  0  0  0
 23 14  1  0  0  0  0
 24 15  1  0  0  0  0
 25 24  2  0  0  0  0
 26 24  1  0  0  0  0
 27 25  1  0  0  0  0
 28 26  2  0  0  0  0
 29 28  1  0  0  0  0
 29 27  2  0  0  0  0
M  END
> <CdId>
1180

> <Mol Weight>
471.324

> <Formula>
C21H15BrN2O4S

> <Click_ID>
CLK016_C05 __ __ 

$$$$
