CLK020_E07
 OpenBabel03181413202D

 31 33  0  0  0  0  0  0  0  0999 V2000
    3.9461   -1.3404    0.0000 N    0  0  0  0  0  0  0  0  0  0  0  0
    4.1967   -2.1296    0.0000 C    0  0  0  0  0  0  0  0  0  0  0  0
    4.6101   -0.8561    0.0000 C    0  0  0  0  0  0  0  0  0  0  0  0
    5.2782   -1.3404    0.0000 C    0  0  0  0  0  0  0  0  0  0  0  0
    5.0235   -2.1296    0.0000 S    0  0  0  0  0  0  0  0  0  0  0  0
    6.0674   -1.0816    0.0000 C    0  0  0  0  0  0  0  0  0  0  0  0
    3.1486   -1.0816    0.0000 C    0  0  0  0  0  0  0  0  0  0  0  0
    2.5347   -1.6328    0.0000 C    0  0  0  0  0  0  0  0  0  0  0  0
    7.7168    3.1903    0.0000 C    0  0  0  0  0  0  0  0  0  0  0  0
    7.8964    3.9920    0.0000 C    0  0  0  0  0  0  0  0  0  0  0  0
    7.1824    0.7767    0.0000 C    0  0  0  0  0  0  0  0  0  0  0  0
    1.7538   -1.3822    0.0000 N    0  0  0  0  0  0  0  0  0  0  0  0
    3.7123   -2.7978    0.0000 O    0  0  0  0  0  0  0  0  0  0  0  0
    4.6101   -0.0293    0.0000 O    0  0  0  0  0  0  0  0  0  0  0  0
    0.6264    0.4969    0.0000 C    0  0  0  0  0  0  0  0  0  0  0  0
    6.2386   -0.2798    0.0000 C    0  0  0  0  0  0  0  0  0  0  0  0
    1.5827   -0.5679    0.0000 C    0  0  0  0  0  0  0  0  0  0  0  0
    7.0070   -0.0293    0.0000 C    0  0  0  0  0  0  0  0  0  0  0  0
    6.5685    1.3279    0.0000 C    0  0  0  0  0  0  0  0  0  0  0  0
    0.7934   -0.3174    0.0000 C    0  0  0  0  0  0  0  0  0  0  0  0
    1.2444    1.0481    0.0000 C    0  0  0  0  0  0  0  0  0  0  0  0
    2.7101   -2.4470    0.0000 O    0  0  0  0  0  0  0  0  0  0  0  0
    5.7918    1.0774    0.0000 C    0  0  0  0  0  0  0  0  0  0  0  0
    2.0294    0.7850    0.0000 C    0  0  0  0  0  0  0  0  0  0  0  0
    7.9591    1.0272    0.0000 Br   0  0  0  0  0  0  0  0  0  0  0  0
    5.6290    0.2714    0.0000 C    0  0  0  0  0  0  0  0  0  0  0  0
    2.1965   -0.0167    0.0000 C    0  0  0  0  0  0  0  0  0  0  0  0
    6.7565    2.1380    0.0000 O    0  0  0  0  0  0  0  0  0  0  0  0
    7.5331    2.3802    0.0000 C    0  0  0  0  0  0  0  0  0  0  0  0
   -0.1586    0.7516    0.0000 C    0  0  0  0  0  0  0  0  0  0  0  0
    1.0774    1.8540    0.0000 C    0  0  0  0  0  0  0  0  0  0  0  0
  2  1  1  0  0  0  0
  3  1  1  0  0  0  0
  4  3  1  0  0  0  0
  4  5  1  0  0  0  0
  5  2  1  0  0  0  0
  6  4  2  0  0  0  0
  7  1  1  0  0  0  0
  8  7  1  0  0  0  0
  9 29  1  0  0  0  0
 10  9  3  0  0  0  0
 11 18  2  0  0  0  0
 12  8  1  0  0  0  0
 13  2  2  0  0  0  0
 14  3  2  0  0  0  0
 15 20  2  0  0  0  0
 16  6  1  0  0  0  0
 17 12  1  0  0  0  0
 18 16  1  0  0  0  0
 19 23  2  0  0  0  0
 19 11  1  0  0  0  0
 20 17  1  0  0  0  0
 21 24  2  0  0  0  0
 21 15  1  0  0  0  0
 22  8  2  0  0  0  0
 23 26  1  0  0  0  0
 24 27  1  0  0  0  0
 25 11  1  0  0  0  0
 26 16  2  0  0  0  0
 27 17  2  0  0  0  0
 28 19  1  0  0  0  0
 29 28  1  0  0  0  0
 30 15  1  0  0  0  0
 31 21  1  0  0  0  0
M  END
> <CdId>
1522

> <Mol Weight>
499.377

> <Formula>
C23H19BrN2O4S

> <Click_ID>
CLK020_E07 __ __ 

$$$$
