CLK043F04
 OpenBabel03181413202D

 20 21  0  0  0  0  0  0  0  0999 V2000
   -0.1458   -0.0792    0.0000 C   0  0  0  0  0  0  0  0  0  0  0  0
   -2.2875    2.8083    0.0000 C   0  0  0  0  0  0  0  0  0  0  0  0
   -3.0042    3.2208    0.0000 C   0  0  0  0  0  0  0  0  0  0  0  0
   -0.8583    0.3333    0.0000 N   0  0  0  0  0  0  0  0  0  0  0  0
    0.5708    0.3333    0.0000 O   0  0  0  0  0  0  0  0  0  0  0  0
   -0.8583    1.1583    0.0000 C   0  0  0  0  0  0  0  0  0  0  0  0
   -0.1458   -0.9042    0.0000 C   0  0  0  0  0  0  0  0  0  0  0  0
    0.5708   -1.3167    0.0000 C   0  0  0  0  0  0  0  0  0  0  0  0
   -1.5750    2.3958    0.0000 C   0  0  0  0  0  0  0  0  0  0  0  0
   -1.5750    1.5708    0.0000 C   0  0  0  0  0  0  0  0  0  0  0  0
    0.5708   -2.1417    0.0000 C   0  0  0  0  0  0  0  0  0  0  0  0
    1.2833   -2.5542    0.0000 C   0  0  0  0  0  0  0  0  0  0  0  0
    1.2833   -3.3792    0.0000 O   0  0  0  0  0  0  0  0  0  0  0  0
   -0.1458    2.3958    0.0000 C   0  0  0  0  0  0  0  0  0  0  0  0
    2.0000   -1.3167    0.0000 C   0  0  0  0  0  0  0  0  0  0  0  0
   -0.1458    1.5708    0.0000 C   0  0  0  0  0  0  0  0  0  0  0  0
    1.2833   -0.9042    0.0000 C   0  0  0  0  0  0  0  0  0  0  0  0
   -0.8583    2.8083    0.0000 C   0  0  0  0  0  0  0  0  0  0  0  0
    2.0000   -2.1417    0.0000 C   0  0  0  0  0  0  0  0  0  0  0  0
    2.0000   -3.7917    0.0000 C   0  0  0  0  0  0  0  0  0  0  0  0
  2  9  1  0  0  0  0
  3  2  3  0  0  0  0
  4  1  1  0  0  0  0
  5  1  2  0  0  0  0
  6  4  1  0  0  0  0
  7  1  1  0  0  0  0
  8  7  1  0  0  0  0
  9 10  1  0  0  0  0
 10  6  2  0  0  0  0
 11  8  1  0  0  0  0
 12 11  2  0  0  0  0
 13 12  1  0  0  0  0
 14 16  2  0  0  0  0
 15 17  1  0  0  0  0
 15 19  2  0  0  0  0
 16  6  1  0  0  0  0
 17  8  2  0  0  0  0
 18  9  2  0  0  0  0
 18 14  1  0  0  0  0
 19 12  1  0  0  0  0
 20 13  1  0  0  0  0
M  END
> <CdId>
3270

> <Mol Weight>
265.3065

> <Formula>
C17H15NO2

> <Click_ID>
CLK043F04 __ __ 

$$$$
