CLK002_E02
 OpenBabel03181413202D

 19 19  0  0  0  0  0  0  0  0999 V2000
    1.6649    1.2072    0.0000 C   0  0  0  0  0  0  0  0  0  0  0  0
    0.8400    1.2121    0.0000 C   0  0  0  0  0  0  0  0  0  0  0  0
    2.0873    1.9213    0.0000 C   0  0  0  0  0  0  0  0  0  0  0  0
    2.0772    0.5029    0.0000 C   0  0  0  0  0  0  0  0  0  0  0  0
    0.4275    0.4980    0.0000 C   0  0  0  0  0  0  0  0  0  0  0  0
    2.9123    1.9213    0.0000 C   0  0  0  0  0  0  0  0  0  0  0  0
    2.9123    0.5029    0.0000 C   0  0  0  0  0  0  0  0  0  0  0  0
   -0.4074    0.5029    0.0000 C   0  0  0  0  0  0  0  0  0  0  0  0
    3.3247    1.2072    0.0000 C   0  0  0  0  0  0  0  0  0  0  0  0
   -0.8199   -0.2112    0.0000 N   0  3  0  0  0  0  0  0  0  0  0  0
   -1.5441    0.2112    0.0000 C   0  0  0  0  0  0  0  0  0  0  0  0
   -0.0955   -0.6287    0.0000 C   0  0  0  0  0  0  0  0  0  0  0  0
   -1.2374   -0.9405    0.0000 C   0  0  0  0  0  0  0  0  0  0  0  0
   -2.2584   -0.2112    0.0000 C   0  0  0  0  0  0  0  0  0  0  0  0
   -2.2584   -1.0412    0.0000 O   0  0  0  0  0  0  0  0  0  0  0  0
   -2.9776    0.2011    0.0000 O   0  0  0  0  0  0  0  0  0  0  0  0
   -1.5492   -1.4537    0.0000 C   0  0  0  0  0  0  0  0  0  0  0  0
   -1.5492   -2.2886    0.0000 C   0  0  0  0  0  0  0  0  0  0  0  0
   -1.5492   -3.1134    0.0000 C   0  0  0  0  0  0  0  0  0  0  0  0
  1  2  1  0  0  0  0
  1  3  2  0  0  0  0
  1  4  1  0  0  0  0
  2  5  2  0  0  0  0
  3  6  1  0  0  0  0
  4  7  2  0  0  0  0
  5  8  1  0  0  0  0
  6  9  2  0  0  0  0
  7  9  1  0  0  0  0
  8 10  1  0  0  0  0
 10 11  1  0  0  0  0
 10 12  1  0  0  0  0
 10 13  1  0  0  0  0
 11 14  1  0  0  0  0
 14 15  1  0  0  0  0
 14 16  2  0  0  0  0
 15 17  1  0  0  0  0
 17 18  1  0  0  0  0
 18 19  3  0  0  0  0
M  END
> <CdId>
121

> <Mol Weight>
258.3355

> <Formula>
C16H20NO2

> <Click_ID>
CLK002_E02 __ __ 

$$$$
