CLK037D02
 OpenBabel03181413202D

 34 36  0  0  0  0  0  0  0  0999 V2000
    1.1417    0.0792    0.0000 N    0  0  0  0  0  0  0  0  0  0  0  0
    0.3875   -0.2542    0.0000 C    0  0  0  0  0  0  0  0  0  0  0  0
    1.6958   -0.5333    0.0000 C    0  0  0  0  0  0  0  0  0  0  0  0
    0.4750   -1.0750    0.0000 S    0  0  0  0  0  0  0  0  0  0  0  0
    1.2833   -1.2500    0.0000 C    0  0  3  0  0  0  0  0  0  0  0  0
   -1.0417    3.8708    0.0000 C    0  0  0  0  0  0  0  0  0  0  0  0
    1.6167   -2.0000    0.0000 C    0  0  0  0  0  0  0  0  0  0  0  0
    1.1333   -2.6708    0.0000 C    0  0  0  0  0  0  0  0  0  0  0  0
   -0.3250    3.4583    0.0000 C    0  0  0  0  0  0  0  0  0  0  0  0
   -1.7542    3.4583    0.0000 C    0  0  0  0  0  0  0  0  0  0  0  0
   -0.3250    0.1583    0.0000 N    0  0  0  0  0  0  0  0  0  0  0  0
   -0.3250    5.9292    0.0000 C    0  0  0  0  0  0  0  0  0  0  0  0
   -0.3250    0.9833    0.0000 N    0  0  0  0  0  0  0  0  0  0  0  0
   -0.3250    6.7542    0.0000 C    0  0  0  0  0  0  0  0  0  0  0  0
    1.4667   -3.4250    0.0000 N    0  0  0  0  0  0  0  0  0  0  0  0
   -0.3250    2.6333    0.0000 C    0  0  0  0  0  0  0  0  0  0  0  0
   -1.7542    2.6333    0.0000 C    0  0  0  0  0  0  0  0  0  0  0  0
    2.5167   -0.4458    0.0000 O    0  0  0  0  0  0  0  0  0  0  0  0
   -1.0417    2.2208    0.0000 C    0  0  0  0  0  0  0  0  0  0  0  0
    0.3125   -2.5833    0.0000 O    0  0  0  0  0  0  0  0  0  0  0  0
   -1.0417    1.3958    0.0000 C    0  0  0  0  0  0  0  0  0  0  0  0
    0.3875    3.8708    0.0000 Cl   0  0  0  0  0  0  0  0  0  0  0  0
    0.9833   -4.0917    0.0000 C    0  0  0  0  0  0  0  0  0  0  0  0
   -1.0417    4.6917    0.0000 O    0  0  0  0  0  0  0  0  0  0  0  0
   -2.4667    3.8708    0.0000 O    0  0  0  0  0  0  0  0  0  0  0  0
    0.0125   -5.4250    0.0000 C    0  0  0  0  0  0  0  0  0  0  0  0
    1.3208   -4.8458    0.0000 C    0  0  0  0  0  0  0  0  0  0  0  0
    0.1625   -4.0042    0.0000 C    0  0  0  0  0  0  0  0  0  0  0  0
    0.8333   -5.5125    0.0000 C    0  0  0  0  0  0  0  0  0  0  0  0
   -0.3208   -4.6708    0.0000 C    0  0  0  0  0  0  0  0  0  0  0  0
   -0.3250    5.1042    0.0000 C    0  0  0  0  0  0  0  0  0  0  0  0
   -0.4708   -6.0917    0.0000 O    0  0  0  0  0  0  0  0  0  0  0  0
   -2.4667    4.6917    0.0000 C    0  0  0  0  0  0  0  0  0  0  0  0
   -0.1375   -6.8458    0.0000 C    0  0  0  0  0  0  0  0  0  0  0  0
  2  1  1  0  0  0  0
  3  1  1  0  0  0  0
  4  2  1  0  0  0  0
  4  5  1  0  0  0  0
  5  3  1  0  0  0  0
  6 10  2  0  0  0  0
  6  9  1  0  0  0  0
  7  5  1  0  0  0  0
  8  7  1  0  0  0  0
  9 16  2  0  0  0  0
 10 17  1  0  0  0  0
 11  2  2  0  0  0  0
 12 31  1  0  0  0  0
 13 11  1  0  0  0  0
 14 12  3  0  0  0  0
 15  8  1  0  0  0  0
 16 19  1  0  0  0  0
 17 19  2  0  0  0  0
 18  3  2  0  0  0  0
 19 21  1  0  0  0  0
 20  8  2  0  0  0  0
 21 13  2  0  0  0  0
 22  9  1  0  0  0  0
 23 15  1  0  0  0  0
 24  6  1  0  0  0  0
 25 10  1  0  0  0  0
 26 30  2  0  0  0  0
 27 23  1  0  0  0  0
 28 23  2  0  0  0  0
 29 27  2  0  0  0  0
 29 26  1  0  0  0  0
 30 28  1  0  0  0  0
 31 24  1  0  0  0  0
 32 26  1  0  0  0  0
 33 25  1  0  0  0  0
 34 32  1  0  0  0  0
M  END
> <CdId>
2772

> <Mol Weight>
500.955

> <Formula>
C23H21ClN4O5S

> <Click_ID>
CLK037D02 __ __ 

$$$$
