CLK033_E11
 OpenBabel03181413202D

 25 27  0  0  0  0  0  0  0  0999 V2000
   -4.5851    2.5523    0.0000 C   0  0  0  0  0  0  0  0  0  0  0  0
   -3.8535    2.9763    0.0000 N   0  0  0  0  0  0  0  0  0  0  0  0
   -4.6766    1.7293    0.0000 N   0  0  0  0  0  0  0  0  0  0  0  0
   -5.3084    2.8932    0.0000 S   0  0  0  0  0  0  0  0  0  0  0  0
   -5.4830    1.5796    0.0000 C   0  0  0  0  0  0  0  0  0  0  0  0
   -5.8820    2.3029    0.0000 C   0  0  0  0  0  0  0  0  0  0  0  0
   -3.8618    3.7911    0.0000 C   0  0  0  0  0  0  0  0  0  0  0  0
   -4.2608    0.3575    0.0000 C   0  0  0  0  0  0  0  0  0  0  0  0
   -4.4479   -0.4531    0.0000 C   0  0  0  0  0  0  0  0  0  0  0  0
   -3.1509    4.2027    0.0000 C   0  0  0  0  0  0  0  0  0  0  0  0
   -1.7085    5.0175    0.0000 C   0  0  0  0  0  0  0  0  0  0  0  0
   -0.9935    5.4373    0.0000 C   0  0  0  0  0  0  0  0  0  0  0  0
   -4.5726    4.2027    0.0000 O   0  0  0  0  0  0  0  0  0  0  0  0
   -5.9112    0.8812    0.0000 C   0  0  0  0  0  0  0  0  0  0  0  0
   -4.0738    1.1598    0.0000 C   0  0  0  0  0  0  0  0  0  0  0  0
   -0.2826    5.0299    0.0000 O   0  0  0  0  0  0  0  0  0  0  0  0
   -2.4318    3.7994    0.0000 C   0  0  0  0  0  0  0  0  0  0  0  0
   -3.1426    5.0299    0.0000 C   0  0  0  0  0  0  0  0  0  0  0  0
   -1.7168    4.2027    0.0000 C   0  0  0  0  0  0  0  0  0  0  0  0
   -2.4276    5.4415    0.0000 C   0  0  0  0  0  0  0  0  0  0  0  0
   -6.6968    2.3279    0.0000 C   0  0  0  0  0  0  0  0  0  0  0  0
   -7.1250    1.6212    0.0000 C   0  0  0  0  0  0  0  0  0  0  0  0
   -6.7135    0.8937    0.0000 C   0  0  0  0  0  0  0  0  0  0  0  0
   -0.9935    6.2645    0.0000 C   0  0  0  0  0  0  0  0  0  0  0  0
   -5.5204    0.1496    0.0000 C   0  0  0  0  0  0  0  0  0  0  0  0
  2  1  2  0  0  0  0
  3  1  1  0  0  0  0
  4  1  1  0  0  0  0
  5  3  1  0  0  0  0
  6  4  1  0  0  0  0
  6  5  2  0  0  0  0
  7  2  1  0  0  0  0
  8 15  1  0  0  0  0
  9  8  3  0  0  0  0
 10  7  1  0  0  0  0
 11 20  1  0  0  0  0
 11 19  2  0  0  0  0
 12 11  1  0  0  0  0
 13  7  2  0  0  0  0
 14  5  1  0  0  0  0
 15  3  1  0  0  0  0
 16 12  2  0  0  0  0
 17 10  2  0  0  0  0
 18 10  1  0  0  0  0
 19 17  1  0  0  0  0
 20 18  2  0  0  0  0
 21  6  1  0  0  0  0
 22 21  2  0  0  0  0
 23 14  2  0  0  0  0
 23 22  1  0  0  0  0
 24 12  1  0  0  0  0
 25 14  1  0  0  0  0
M  END
> <CdId>
2535

> <Mol Weight>
348.418

> <Formula>
C20H16N2O2S

> <Click_ID>
CLK033_E11 __ __ 

$$$$
