CLK039B05
 OpenBabel03181413202D

 16 16  0  0  0  0  0  0  0  0999 V2000
   -0.1375    0.8542    0.0000 S   0  0  0  0  0  0  0  0  0  0  0  0
   -0.1375    0.0292    0.0000 C   0  0  0  0  0  0  0  0  0  0  0  0
    0.5792    2.9167    0.0000 C   0  0  0  0  0  0  0  0  0  0  0  0
    0.5792    3.7417    0.0000 C   0  0  0  0  0  0  0  0  0  0  0  0
   -0.9625    0.8542    0.0000 O   0  0  0  0  0  0  0  0  0  0  0  0
    0.6875    0.8542    0.0000 O   0  0  0  0  0  0  0  0  0  0  0  0
   -0.1375    1.6792    0.0000 N   0  0  0  0  0  0  0  0  0  0  0  0
   -0.1375   -1.6208    0.0000 C   0  0  0  0  0  0  0  0  0  0  0  0
   -0.1375   -2.4458    0.0000 C   0  0  0  0  0  0  0  0  0  0  0  0
    0.5792   -0.3833    0.0000 C   0  0  0  0  0  0  0  0  0  0  0  0
   -0.8500   -0.3833    0.0000 C   0  0  0  0  0  0  0  0  0  0  0  0
    0.5792   -2.8583    0.0000 O   0  0  0  0  0  0  0  0  0  0  0  0
    0.5792   -1.2083    0.0000 C   0  0  0  0  0  0  0  0  0  0  0  0
   -0.8500   -1.2083    0.0000 C   0  0  0  0  0  0  0  0  0  0  0  0
    0.5792    2.0917    0.0000 C   0  0  0  0  0  0  0  0  0  0  0  0
   -0.8500   -2.8583    0.0000 C   0  0  0  0  0  0  0  0  0  0  0  0
  2  1  1  0  0  0  0
  3 15  1  0  0  0  0
  4  3  3  0  0  0  0
  5  1  2  0  0  0  0
  6  1  2  0  0  0  0
  7  1  1  0  0  0  0
  8 14  2  0  0  0  0
  9  8  1  0  0  0  0
 10  2  1  0  0  0  0
 11  2  2  0  0  0  0
 12  9  2  0  0  0  0
 13 10  2  0  0  0  0
 13  8  1  0  0  0  0
 14 11  1  0  0  0  0
 15  7  1  0  0  0  0
 16  9  1  0  0  0  0
M  END
> <CdId>
2954

> <Mol Weight>
237.275

> <Formula>
C11H11NO3S

> <Click_ID>
CLK039B05 __ __ 

$$$$
