CLK050A03
 OpenBabel03181413202D

 15 15  0  0  0  0  0  0  0  0999 V2000
   -0.9083    0.7458    0.0000 C   0  0  0  0  0  0  0  0  0  0  0  0
   -1.6208    2.8083    0.0000 C   0  0  0  0  0  0  0  0  0  0  0  0
   -1.6208    3.6333    0.0000 C   0  0  0  0  0  0  0  0  0  0  0  0
   -0.1917    0.3333    0.0000 N   0  0  0  0  0  0  0  0  0  0  0  0
   -1.6208    0.3333    0.0000 O   0  0  0  0  0  0  0  0  0  0  0  0
   -0.9083    1.5708    0.0000 N   0  0  0  0  0  0  0  0  0  0  0  0
   -0.1917   -0.4917    0.0000 C   0  0  0  0  0  0  0  0  0  0  0  0
    0.5208   -1.7292    0.0000 C   0  0  0  0  0  0  0  0  0  0  0  0
    0.5208   -0.9042    0.0000 C   0  0  0  0  0  0  0  0  0  0  0  0
   -1.6208    1.9833    0.0000 C   0  0  0  0  0  0  0  0  0  0  0  0
    1.2375   -2.1417    0.0000 C   0  0  0  0  0  0  0  0  0  0  0  0
    1.9500   -0.9042    0.0000 C   0  0  0  0  0  0  0  0  0  0  0  0
    1.2375   -0.4917    0.0000 C   0  0  0  0  0  0  0  0  0  0  0  0
    1.9500   -1.7292    0.0000 C   0  0  0  0  0  0  0  0  0  0  0  0
    1.2375   -2.9667    0.0000 C   0  0  0  0  0  0  0  0  0  0  0  0
  2 10  1  0  0  0  0
  3  2  3  0  0  0  0
  4  1  1  0  0  0  0
  5  1  2  0  0  0  0
  6  1  1  0  0  0  0
  7  4  1  0  0  0  0
  8  9  1  0  0  0  0
  9  7  1  0  0  0  0
 10  6  1  0  0  0  0
 11  8  2  0  0  0  0
 12 13  1  0  0  0  0
 12 14  2  0  0  0  0
 13  9  2  0  0  0  0
 14 11  1  0  0  0  0
 15 11  1  0  0  0  0
M  END
> <CdId>
3817

> <Mol Weight>
202.2524

> <Formula>
C12H14N2O

> <Click_ID>
CLK050A03 __ __ 

$$$$
