CLK037G08
 OpenBabel03181413202D

 14 14  0  0  0  0  0  0  0  0999 V2000
   -0.3583   -0.1458    0.0000 C   0  0  0  0  0  0  0  0  0  0  0  0
    0.3542   -1.3833    0.0000 N   0  0  0  0  0  0  0  0  0  0  0  0
   -1.0750   -1.3833    0.0000 N   0  0  0  0  0  0  0  0  0  0  0  0
   -1.0750   -0.5583    0.0000 C   0  0  0  0  0  0  0  0  0  0  0  0
    0.3542   -0.5583    0.0000 C   0  0  0  0  0  0  0  0  0  0  0  0
   -0.3583   -1.7958    0.0000 C   0  0  0  0  0  0  0  0  0  0  0  0
    1.0708    2.3292    0.0000 C   0  0  0  0  0  0  0  0  0  0  0  0
    1.7833    2.7417    0.0000 C   0  0  0  0  0  0  0  0  0  0  0  0
   -0.3583    0.6792    0.0000 C   0  0  0  0  0  0  0  0  0  0  0  0
   -1.7875   -0.1458    0.0000 O   0  0  0  0  0  0  0  0  0  0  0  0
    1.0708   -0.1458    0.0000 O   0  0  0  0  0  0  0  0  0  0  0  0
   -0.3583   -2.6208    0.0000 O   0  0  0  0  0  0  0  0  0  0  0  0
    0.3542    1.0917    0.0000 N   0  0  0  0  0  0  0  0  0  0  0  0
    0.3542    1.9167    0.0000 C   0  0  0  0  0  0  0  0  0  0  0  0
  2  5  1  0  0  0  0
  2  6  1  0  0  0  0
  3  4  1  0  0  0  0
  4  1  1  0  0  0  0
  5  1  1  0  0  0  0
  6  3  1  0  0  0  0
  7 14  1  0  0  0  0
  8  7  3  0  0  0  0
  9  1  2  0  0  0  0
 10  4  2  0  0  0  0
 11  5  2  0  0  0  0
 12  6  2  0  0  0  0
 13  9  1  0  0  0  0
 14 13  1  0  0  0  0
M  END
> <CdId>
2823

> <Mol Weight>
193.1595

> <Formula>
C8H7N3O3

> <Click_ID>
CLK037G08 __ __ 

$$$$
