CLK045E02
 OpenBabel03181413202D

 23 25  0  0  0  0  0  0  0  0999 V2000
    2.6875   -0.0292    0.0000 N   0  0  0  0  0  0  0  0  0  0  0  0
    3.1708    0.6375    0.0000 N   0  0  0  0  0  0  0  0  0  0  0  0
   -0.6125   -0.0292    0.0000 C   0  0  0  0  0  0  0  0  0  0  0  0
    3.1708   -0.6958    0.0000 C   0  0  0  0  0  0  0  0  0  0  0  0
   -1.0250    0.6875    0.0000 N   0  0  0  0  0  0  0  0  0  0  0  0
   -3.5000   -0.7417    0.0000 C   0  0  0  0  0  0  0  0  0  0  0  0
    1.8625   -0.0292    0.0000 C   0  0  0  0  0  0  0  0  0  0  0  0
   -3.9125   -1.4583    0.0000 C   0  0  0  0  0  0  0  0  0  0  0  0
    3.9583   -0.4417    0.0000 C   0  0  0  0  0  0  0  0  0  0  0  0
    0.2125   -0.0292    0.0000 C   0  0  0  0  0  0  0  0  0  0  0  0
    3.9583    0.3833    0.0000 C   0  0  0  0  0  0  0  0  0  0  0  0
   -1.0250   -0.7417    0.0000 O   0  0  0  0  0  0  0  0  0  0  0  0
   -1.8500    0.6875    0.0000 C   0  0  0  0  0  0  0  0  0  0  0  0
    1.4500    0.6875    0.0000 C   0  0  0  0  0  0  0  0  0  0  0  0
    1.4500   -0.7417    0.0000 C   0  0  0  0  0  0  0  0  0  0  0  0
    0.6250   -0.7417    0.0000 C   0  0  0  0  0  0  0  0  0  0  0  0
    0.6250    0.6875    0.0000 C   0  0  0  0  0  0  0  0  0  0  0  0
   -3.0875   -0.0292    0.0000 C   0  0  0  0  0  0  0  0  0  0  0  0
   -2.2625   -0.0292    0.0000 C   0  0  0  0  0  0  0  0  0  0  0  0
    2.9167   -1.4792    0.0000 C   0  0  0  0  0  0  0  0  0  0  0  0
   -3.0875    1.4000    0.0000 C   0  0  0  0  0  0  0  0  0  0  0  0
   -2.2625    1.4000    0.0000 C   0  0  0  0  0  0  0  0  0  0  0  0
   -3.5000    0.6875    0.0000 C   0  0  0  0  0  0  0  0  0  0  0  0
  2  1  1  0  0  0  0
  3 10  1  0  0  0  0
  4  1  1  0  0  0  0
  5  3  1  0  0  0  0
  6 18  1  0  0  0  0
  7  1  1  0  0  0  0
  8  6  3  0  0  0  0
  9  4  2  0  0  0  0
 10 16  2  0  0  0  0
 10 17  1  0  0  0  0
 11  2  2  0  0  0  0
 11  9  1  0  0  0  0
 12  3  2  0  0  0  0
 13  5  1  0  0  0  0
 14  7  1  0  0  0  0
 15  7  2  0  0  0  0
 16 15  1  0  0  0  0
 17 14  2  0  0  0  0
 18 19  1  0  0  0  0
 19 13  2  0  0  0  0
 20  4  1  0  0  0  0
 21 22  2  0  0  0  0
 22 13  1  0  0  0  0
 23 18  2  0  0  0  0
 23 21  1  0  0  0  0
M  END
> <CdId>
3413

> <Mol Weight>
301.3419

> <Formula>
C19H15N3O

> <Click_ID>
CLK045E02 __ __ 

$$$$
