CLK005_A10
 OpenBabel03181413202D

 27 29  0  0  0  0  0  0  0  0999 V2000
    1.4653    0.1216    0.0000 C   0  0  0  0  0  0  0  0  0  0  0  0
    2.2849    0.2462    0.0000 N   0  0  0  0  0  0  0  0  0  0  0  0
    1.1700   -0.6458    0.0000 C   0  0  0  0  0  0  0  0  0  0  0  0
    0.9498    0.7645    0.0000 C   0  0  0  0  0  0  0  0  0  0  0  0
    2.8004   -0.3909    0.0000 C   0  0  0  0  0  0  0  0  0  0  0  0
    2.5803    1.0194    0.0000 C   0  0  0  0  0  0  0  0  0  0  0  0
    0.3562   -0.7732    0.0000 C   0  0  0  0  0  0  0  0  0  0  0  0
    1.6854   -1.2887    0.0000 C   0  0  0  0  0  0  0  0  0  0  0  0
    0.1303    0.6371    0.0000 C   0  0  0  0  0  0  0  0  0  0  0  0
    3.6170   -0.2635    0.0000 C   0  0  0  0  0  0  0  0  0  0  0  0
    3.3969    1.1497    0.0000 C   0  0  0  0  0  0  0  0  0  0  0  0
   -0.1651   -0.1332    0.0000 C   0  0  0  0  0  0  0  0  0  0  0  0
    2.5050   -1.1613    0.0000 N   0  0  0  0  0  0  0  0  0  0  0  0
    1.3901   -2.0590    0.0000 O   0  0  0  0  0  0  0  0  0  0  0  0
    3.9153    0.5010    0.0000 C   0  0  0  0  0  0  0  0  0  0  0  0
   -0.9788   -0.2606    0.0000 N   0  0  0  0  0  0  0  0  0  0  0  0
    4.7320    0.6342    0.0000 C   0  0  0  0  0  0  0  0  0  0  0  0
   -1.5001    0.3823    0.0000 C   0  0  0  0  0  0  0  0  0  0  0  0
   -2.3139    0.2548    0.0000 C   0  0  0  0  0  0  0  0  0  0  0  0
   -1.2047    1.1497    0.0000 O   0  0  0  0  0  0  0  0  0  0  0  0
   -2.8351    0.8948    0.0000 C   0  0  0  0  0  0  0  0  0  0  0  0
   -2.6121   -0.5155    0.0000 C   0  0  0  0  0  0  0  0  0  0  0  0
   -3.6488    0.7674    0.0000 C   0  0  0  0  0  0  0  0  0  0  0  0
   -3.4288   -0.6371    0.0000 C   0  0  0  0  0  0  0  0  0  0  0  0
   -3.9472    0.0000    0.0000 C   0  0  0  0  0  0  0  0  0  0  0  0
   -4.7638   -0.1303    0.0000 C   0  0  0  0  0  0  0  0  0  0  0  0
   -5.5776   -0.2577    0.0000 C   0  0  0  0  0  0  0  0  0  0  0  0
  1  2  1  0  0  0  0
  1  3  2  0  0  0  0
  1  4  1  0  0  0  0
  2  5  1  0  0  0  0
  2  6  1  0  0  0  0
  3  7  1  0  0  0  0
  3  8  1  0  0  0  0
  4  9  2  0  0  0  0
  5 10  1  0  0  0  0
  6 11  1  0  0  0  0
  7 12  2  0  0  0  0
  8 13  1  0  0  0  0
  8 14  2  0  0  0  0
  9 12  1  0  0  0  0
 10 15  1  0  0  0  0
 11 15  1  0  0  0  0
 12 16  1  0  0  0  0
 15 17  1  0  0  0  0
 16 18  1  0  0  0  0
 18 19  1  0  0  0  0
 18 20  2  0  0  0  0
 19 21  1  0  0  0  0
 19 22  2  0  0  0  0
 21 23  2  0  0  0  0
 22 24  1  0  0  0  0
 23 25  1  0  0  0  0
 24 25  2  0  0  0  0
 25 26  1  0  0  0  0
 26 27  3  0  0  0  0
M  END
> <CdId>
329

> <Mol Weight>
361.4369

> <Formula>
C22H23N3O2

> <Click_ID>
CLK005_A10 __ __ 

$$$$
