CLK031_D11
 OpenBabel03181413202D

 32 35  0  0  0  0  0  0  0  0999 V2000
   -1.1625    2.3833    0.0000 C   0  0  0  0  0  0  0  0  0  0  0  0
   -0.3375    2.3750    0.0000 N   0  0  0  0  0  0  0  0  0  0  0  0
   -4.5833    3.2125    0.0000 S   0  0  0  0  0  0  0  0  0  0  0  0
   -1.6458    1.7208    0.0000 N   0  0  0  0  0  0  0  0  0  0  0  0
   -1.6458    3.0500    0.0000 S   0  0  0  0  0  0  0  0  0  0  0  0
    0.0750    3.0875    0.0000 C   0  0  0  0  0  0  0  0  0  0  0  0
   -2.4333    2.7958    0.0000 C   0  0  0  0  0  0  0  0  0  0  0  0
   -2.4333    1.9708    0.0000 C   0  0  0  0  0  0  0  0  0  0  0  0
    0.9000    3.0875    0.0000 C   0  0  0  0  0  0  0  0  0  0  0  0
   -3.8583    2.7958    0.0000 C   0  0  0  0  0  0  0  0  0  0  0  0
   -3.1458    3.2083    0.0000 C   0  0  0  0  0  0  0  0  0  0  0  0
    1.3167    2.3625    0.0000 C   0  0  0  0  0  0  0  0  0  0  0  0
   -1.9458    0.3208    0.0000 C   0  0  0  0  0  0  0  0  0  0  0  0
   -3.1458    1.5583    0.0000 C   0  0  0  0  0  0  0  0  0  0  0  0
   -2.4958   -0.2917    0.0000 C   0  0  0  0  0  0  0  0  0  0  0  0
   -4.1458    3.9083    0.0000 O   0  0  0  0  0  0  0  0  0  0  0  0
   -5.0208    2.5083    0.0000 O   0  0  0  0  0  0  0  0  0  0  0  0
    0.9042    1.6500    0.0000 O   0  0  0  0  0  0  0  0  0  0  0  0
   -0.3375    3.8000    0.0000 O   0  0  0  0  0  0  0  0  0  0  0  0
   -5.2833    3.6458    0.0000 N   0  0  0  0  0  0  0  0  0  0  0  0
   -3.8583    1.9708    0.0000 C   0  0  0  0  0  0  0  0  0  0  0  0
   -1.3958    0.9333    0.0000 C   0  0  0  0  0  0  0  0  0  0  0  0
    1.3250    0.9333    0.0000 C   0  0  0  0  0  0  0  0  0  0  0  0
    1.3167    3.8000    0.0000 C   0  0  0  0  0  0  0  0  0  0  0  0
    2.1417    2.3708    0.0000 C   0  0  0  0  0  0  0  0  0  0  0  0
    0.9125    0.2208    0.0000 C   0  0  0  0  0  0  0  0  0  0  0  0
    2.1500    0.9375    0.0000 C   0  0  0  0  0  0  0  0  0  0  0  0
    2.1417    3.8000    0.0000 C   0  0  0  0  0  0  0  0  0  0  0  0
    2.5542    3.0833    0.0000 C   0  0  0  0  0  0  0  0  0  0  0  0
    2.5667    0.2333    0.0000 C   0  0  0  0  0  0  0  0  0  0  0  0
    1.3292   -0.4917    0.0000 C   0  0  0  0  0  0  0  0  0  0  0  0
    2.1542   -0.4917    0.0000 C   0  0  0  0  0  0  0  0  0  0  0  0
  2  1  2  0  0  0  0
  3 10  1  0  0  0  0
  4  1  1  0  0  0  0
  5  1  1  0  0  0  0
  6  2  1  0  0  0  0
  7  5  1  0  0  0  0
  7  8  2  0  0  0  0
  8  4  1  0  0  0  0
  9  6  1  0  0  0  0
 10 11  2  0  0  0  0
 10 21  1  0  0  0  0
 11  7  1  0  0  0  0
 12  9  1  0  0  0  0
 13 22  1  0  0  0  0
 14  8  1  0  0  0  0
 15 13  3  0  0  0  0
 16  3  2  0  0  0  0
 17  3  2  0  0  0  0
 18 12  1  0  0  0  0
 19  6  2  0  0  0  0
 20  3  1  0  0  0  0
 21 14  2  0  0  0  0
 22  4  1  0  0  0  0
 23 18  1  0  0  0  0
 24  9  2  0  0  0  0
 25 12  2  0  0  0  0
 26 23  2  0  0  0  0
 27 23  1  0  0  0  0
 28 24  1  0  0  0  0
 29 28  2  0  0  0  0
 29 25  1  0  0  0  0
 30 27  2  0  0  0  0
 31 26  1  0  0  0  0
 32 30  1  0  0  0  0
 32 31  2  0  0  0  0
M  END
> <CdId>
2365

> <Mol Weight>
463.529

> <Formula>
C23H17N3O4S2

> <Click_ID>
CLK031_D11 __ __ 

$$$$
