CLK007_B10
 OpenBabel03181413202D

 24 26  0  0  0  0  0  0  0  0999 V2000
    0.7429   -0.0864    0.0000 C   0  0  3  0  0  0  0  0  0  0  0  0
    0.0311   -0.5010    0.0000 C   0  0  0  0  0  0  0  0  0  0  0  0
    0.7429    0.7394    0.0000 C   0  0  0  0  0  0  0  0  0  0  0  0
    1.4581   -0.4941    0.0000 C   0  0  0  0  0  0  0  0  0  0  0  0
    0.0311   -1.3198    0.0000 C   0  0  0  0  0  0  0  0  0  0  0  0
   -0.6842   -0.0795    0.0000 C   0  0  0  0  0  0  0  0  0  0  0  0
    1.4581    1.1506    0.0000 C   0  0  0  0  0  0  0  0  0  0  0  0
    0.0311    1.1471    0.0000 C   0  0  0  0  0  0  0  0  0  0  0  0
    1.4581   -1.3198    0.0000 C   0  0  0  0  0  0  0  0  0  0  0  0
   -0.6842   -1.7344    0.0000 N   0  0  0  0  0  0  0  0  0  0  0  0
    0.7429   -1.7344    0.0000 N   0  0  0  0  0  0  0  0  0  0  0  0
   -1.3889   -0.5010    0.0000 N   0  0  0  0  0  0  0  0  0  0  0  0
   -0.6842    0.7463    0.0000 O   0  0  0  0  0  0  0  0  0  0  0  0
    1.4546    1.9798    0.0000 C   0  0  0  0  0  0  0  0  0  0  0  0
    0.0172    1.9660    0.0000 C   0  0  0  0  0  0  0  0  0  0  0  0
    2.1733   -1.7344    0.0000 O   0  0  0  0  0  0  0  0  0  0  0  0
   -1.3889   -1.3267    0.0000 C   0  0  0  0  0  0  0  0  0  0  0  0
    0.7394    2.3875    0.0000 C   0  0  0  0  0  0  0  0  0  0  0  0
    2.1733    2.3909    0.0000 O   0  0  0  0  0  0  0  0  0  0  0  0
   -2.1111   -1.7413    0.0000 S   0  0  0  0  0  0  0  0  0  0  0  0
    2.8850    1.9798    0.0000 C   0  0  0  0  0  0  0  0  0  0  0  0
   -2.8263   -1.3267    0.0000 C   0  0  0  0  0  0  0  0  0  0  0  0
   -2.8263   -0.5010    0.0000 C   0  0  0  0  0  0  0  0  0  0  0  0
   -3.5380   -0.0864    0.0000 C   0  0  0  0  0  0  0  0  0  0  0  0
  1  2  1  0  0  0  0
  1  3  1  0  0  0  0
  1  4  1  0  0  0  0
  2  5  2  0  0  0  0
  2  6  1  0  0  0  0
  3  7  2  0  0  0  0
  3  8  1  0  0  0  0
  4  9  1  0  0  0  0
  5 10  1  0  0  0  0
  5 11  1  0  0  0  0
  6 12  1  0  0  0  0
  6 13  2  0  0  0  0
  7 14  1  0  0  0  0
  8 15  2  0  0  0  0
  9 16  2  0  0  0  0
  9 11  1  0  0  0  0
 10 17  2  0  0  0  0
 12 17  1  0  0  0  0
 14 18  2  0  0  0  0
 14 19  1  0  0  0  0
 15 18  1  0  0  0  0
 17 20  1  0  0  0  0
 19 21  1  0  0  0  0
 20 22  1  0  0  0  0
 22 23  1  0  0  0  0
 23 24  3  0  0  0  0
M  END
> <CdId>
499

> <Mol Weight>
341.384

> <Formula>
C17H15N3O3S

> <Click_ID>
CLK007_B10 __ __ 

$$$$
