CLK019_E10
 OpenBabel03181413202D

 26 27  0  0  0  0  0  0  0  0999 V2000
    6.7384    2.3591    0.0000 C    0  0  0  0  0  0  0  0  0  0  0  0
    6.7384    3.1836    0.0000 C    0  0  0  0  0  0  0  0  0  0  0  0
    6.0238    1.9377    0.0000 C    0  0  0  0  0  0  0  0  0  0  0  0
    6.0238    3.5959    0.0000 N    0  0  0  0  0  0  0  0  0  0  0  0
    7.4530    1.9377    0.0000 N    0  0  0  0  0  0  0  0  0  0  0  0
    5.3092    2.3591    0.0000 N    0  0  0  0  0  0  0  0  0  0  0  0
    5.3092    3.1836    0.0000 C    0  0  0  0  0  0  0  0  0  0  0  0
    3.8800    2.3591    0.0000 C    0  0  0  0  0  0  0  0  0  0  0  0
    3.1654    1.1131    0.0000 C    0  0  0  0  0  0  0  0  0  0  0  0
    3.8800    3.1836    0.0000 C    0  0  0  0  0  0  0  0  0  0  0  0
    3.1654    1.9377    0.0000 C    0  0  0  0  0  0  0  0  0  0  0  0
    4.5946    3.5959    0.0000 C    0  0  0  0  0  0  0  0  0  0  0  0
    3.8800    0.7009    0.0000 C    0  0  0  0  0  0  0  0  0  0  0  0
    1.0216    2.3591    0.0000 C    0  0  0  0  0  0  0  0  0  0  0  0
    0.3069    2.7713    0.0000 C    0  0  0  0  0  0  0  0  0  0  0  0
    7.4530    1.1131    0.0000 O    0  0  0  0  0  0  0  0  0  0  0  0
    6.0238    1.1131    0.0000 O    0  0  0  0  0  0  0  0  0  0  0  0
    8.1676    2.3591    0.0000 O    0  0  0  0  0  0  0  0  0  0  0  0
    4.5946    1.9377    0.0000 C    0  0  0  0  0  0  0  0  0  0  0  0
    4.5946    1.1131    0.0000 C    0  0  0  0  0  0  0  0  0  0  0  0
    7.4530    3.5959    0.0000 O    0  0  0  0  0  0  0  0  0  0  0  0
    2.4508    0.7009    0.0000 O    0  0  0  0  0  0  0  0  0  0  0  0
    2.4508    2.3591    0.0000 O    0  0  0  0  0  0  0  0  0  0  0  0
    5.3092    0.7009    0.0000 Br   0  0  0  0  0  0  0  0  0  0  0  0
    1.7362    1.9377    0.0000 C    0  0  0  0  0  0  0  0  0  0  0  0
    2.4508   -0.1237    0.0000 C    0  0  0  0  0  0  0  0  0  0  0  0
  2  1  2  0  0  0  0
  3  1  1  0  0  0  0
  4  2  1  0  0  0  0
  5  1  1  0  0  0  0
  6  3  1  0  0  0  0
  7  6  1  0  0  0  0
  7  4  2  0  0  0  0
  8 10  1  0  0  0  0
  9 11  1  0  0  0  0
 10 12  2  0  0  0  0
 11  8  2  0  0  0  0
 12  7  1  0  0  0  0
 13 20  1  0  0  0  0
 13  9  2  0  0  0  0
 14 25  1  0  0  0  0
 15 14  3  0  0  0  0
 16  5  1  0  0  0  0
 17  3  2  0  0  0  0
 18  5  2  0  0  0  0
 19  8  1  0  0  0  0
 20 19  2  0  0  0  0
 21  2  1  0  0  0  0
 22  9  1  0  0  0  0
 23 11  1  0  0  0  0
 24 20  1  0  0  0  0
 25 23  1  0  0  0  0
 26 22  1  0  0  0  0
M  END
> <CdId>
1445

> <Mol Weight>
422.187

> <Formula>
C16H12BrN3O6

> <Click_ID>
CLK019_E10 __ __ 

$$$$
