CLK004_H03
 OpenBabel03181413202D

 22 23  0  0  0  0  0  0  0  0999 V2000
    5.6170   -6.6989    0.0000 C   0  0  0  0  0  0  0  0  0  0  0  0
    5.9776   -5.9570    0.0000 C   0  0  0  0  0  0  0  0  0  0  0  0
    6.0440   -7.4037    0.0000 N   0  0  0  0  0  0  0  0  0  0  0  0
    6.8606   -7.4037    0.0000 C   0  0  0  0  0  0  0  0  0  0  0  0
    4.8004   -6.7114    0.0000 C   0  0  0  0  0  0  0  0  0  0  0  0
    5.5175   -5.2688    0.0000 C   0  0  0  0  0  0  0  0  0  0  0  0
    3.1297   -5.3103    0.0000 C   0  0  0  0  0  0  0  0  0  0  0  0
    4.7051   -5.1195    0.0000 N   0  0  0  0  0  0  0  0  0  0  0  0
    2.7111   -4.5931    0.0000 C   0  0  0  0  0  0  0  0  0  0  0  0
    7.2628   -6.6824    0.0000 O   0  0  0  0  0  0  0  0  0  0  0  0
    4.5972   -4.2988    0.0000 C   0  0  0  0  0  0  0  0  0  0  0  0
    7.2794   -8.1209    0.0000 C   0  0  0  0  0  0  0  0  0  0  0  0
    5.9072   -4.5475    0.0000 C   0  0  0  0  0  0  0  0  0  0  0  0
    4.3982   -7.4286    0.0000 O   0  0  0  0  0  0  0  0  0  0  0  0
    5.3393   -3.9505    0.0000 C   0  0  0  0  0  0  0  0  0  0  0  0
    4.3776   -6.0025    0.0000 N   0  0  0  0  0  0  0  0  0  0  0  0
    3.5526   -6.0109    0.0000 C   0  0  0  0  0  0  0  0  0  0  0  0
    6.8897   -8.8504    0.0000 C   0  0  0  0  0  0  0  0  0  0  0  0
    8.1002   -8.0877    0.0000 C   0  0  0  0  0  0  0  0  0  0  0  0
    8.5395   -8.7882    0.0000 C   0  0  0  0  0  0  0  0  0  0  0  0
    7.3167   -9.5344    0.0000 C   0  0  0  0  0  0  0  0  0  0  0  0
    8.1540   -9.5179    0.0000 C   0  0  0  0  0  0  0  0  0  0  0  0
  2  1  2  0  0  0  0
  3  1  1  0  0  0  0
  4  3  1  0  0  0  0
  5  1  1  0  0  0  0
  6  2  1  0  0  0  0
  7 17  1  0  0  0  0
  8  6  1  0  0  0  0
  9  7  3  0  0  0  0
 10  4  2  0  0  0  0
 11  8  1  0  0  0  0
 11 15  2  0  0  0  0
 12  4  1  0  0  0  0
 13  6  2  0  0  0  0
 14  5  2  0  0  0  0
 15 13  1  0  0  0  0
 16  5  1  0  0  0  0
 17 16  1  0  0  0  0
 18 12  2  0  0  0  0
 19 12  1  0  0  0  0
 20 19  2  0  0  0  0
 21 18  1  0  0  0  0
 21 22  2  0  0  0  0
 22 20  1  0  0  0  0
M  END
> <CdId>
312

> <Mol Weight>
293.3199

> <Formula>
C17H15N3O2

> <Click_ID>
CLK004_H03 __ __ 

$$$$
