CLK010_E09
 OpenBabel03181413202D

 21 22  0  0  0  0  0  0  0  0999 V2000
    2.7668   -4.6770    0.0000 C    0  0  0  0  0  0  0  0  0  0  0  0
    2.0522   -5.9138    0.0000 N    0  0  0  0  0  0  0  0  0  0  0  0
    3.4814   -5.9138    0.0000 N    0  0  0  0  0  0  0  0  0  0  0  0
    2.0522   -5.0893    0.0000 C    0  0  0  0  0  0  0  0  0  0  0  0
    3.4814   -5.0893    0.0000 C    0  0  0  0  0  0  0  0  0  0  0  0
    2.7668   -6.3261    0.0000 C    0  0  0  0  0  0  0  0  0  0  0  0
    2.7668   -3.8525    0.0000 C    0  0  0  0  0  0  0  0  0  0  0  0
    2.0522   -3.4402    0.0000 C    0  0  0  0  0  0  0  0  0  0  0  0
    3.4814   -0.9666    0.0000 C    0  0  0  0  0  0  0  0  0  0  0  0
    3.4814   -0.1420    0.0000 C    0  0  0  0  0  0  0  0  0  0  0  0
    1.3376   -4.6770    0.0000 O    0  0  0  0  0  0  0  0  0  0  0  0
    4.1960   -4.6770    0.0000 O    0  0  0  0  0  0  0  0  0  0  0  0
    2.7668   -7.1506    0.0000 O    0  0  0  0  0  0  0  0  0  0  0  0
    2.0522   -2.6157    0.0000 C    0  0  0  0  0  0  0  0  0  0  0  0
    1.3376   -3.8525    0.0000 C    0  0  0  0  0  0  0  0  0  0  0  0
    1.3376   -2.2034    0.0000 C    0  0  0  0  0  0  0  0  0  0  0  0
    0.6230   -3.4402    0.0000 C    0  0  0  0  0  0  0  0  0  0  0  0
    0.6230   -2.6157    0.0000 C    0  0  0  0  0  0  0  0  0  0  0  0
   -0.0916   -3.8525    0.0000 Cl   0  0  0  0  0  0  0  0  0  0  0  0
    2.7668   -2.2034    0.0000 O    0  0  0  0  0  0  0  0  0  0  0  0
    2.7668   -1.3789    0.0000 C    0  0  0  0  0  0  0  0  0  0  0  0
  2  4  1  0  0  0  0
  3  5  1  0  0  0  0
  4  1  1  0  0  0  0
  5  1  1  0  0  0  0
  6  3  1  0  0  0  0
  6  2  1  0  0  0  0
  7  1  2  0  0  0  0
  8  7  1  0  0  0  0
  9 21  1  0  0  0  0
 10  9  3  0  0  0  0
 11  4  2  0  0  0  0
 12  5  2  0  0  0  0
 13  6  2  0  0  0  0
 14  8  1  0  0  0  0
 15  8  2  0  0  0  0
 16 14  2  0  0  0  0
 17 15  1  0  0  0  0
 18 17  2  0  0  0  0
 18 16  1  0  0  0  0
 19 17  1  0  0  0  0
 20 14  1  0  0  0  0
 21 20  1  0  0  0  0
M  END
> <CdId>
724

> <Mol Weight>
304.685

> <Formula>
C14H9ClN2O4

> <Click_ID>
CLK010_E09 __ __ 

$$$$
