CLK002_E07
 OpenBabel03181413202D

 15 16  0  0  0  0  0  0  0  0999 V2000
   -0.2764    0.0037    0.0000 N   0  0  0  0  0  0  0  0  0  0  0  0
   -0.2726   -0.8217    0.0000 C   0  0  0  0  0  0  0  0  0  0  0  0
    0.5074    0.2612    0.0000 C   0  0  0  0  0  0  0  0  0  0  0  0
   -0.9958    0.4165    0.0000 C   0  0  0  0  0  0  0  0  0  0  0  0
   -0.9996   -1.2382    0.0000 N   0  0  0  0  0  0  0  0  0  0  0  0
    0.5111   -1.0640    0.0000 N   0  0  0  0  0  0  0  0  0  0  0  0
    0.9920   -0.4013    0.0000 N   0  0  0  0  0  0  0  0  0  0  0  0
    0.7573    1.0489    0.0000 S   0  0  0  0  0  0  0  0  0  0  0  0
   -1.7038    0.0037    0.0000 C   0  0  0  0  0  0  0  0  0  0  0  0
   -0.9958    1.2419    0.0000 C   0  0  0  0  0  0  0  0  0  0  0  0
   -1.7038   -0.8254    0.0000 C   0  0  0  0  0  0  0  0  0  0  0  0
    1.5637    1.2230    0.0000 C   0  0  0  0  0  0  0  0  0  0  0  0
   -2.4157   -1.2382    0.0000 C   0  0  0  0  0  0  0  0  0  0  0  0
    2.1128    0.6096    0.0000 C   0  0  0  0  0  0  0  0  0  0  0  0
    2.9193    0.7838    0.0000 C   0  0  0  0  0  0  0  0  0  0  0  0
  1  2  1  0  0  0  0
  1  3  1  0  0  0  0
  1  4  1  0  0  0  0
  2  5  1  0  0  0  0
  2  6  2  0  0  0  0
  3  7  2  0  0  0  0
  3  8  1  0  0  0  0
  4  9  2  0  0  0  0
  4 10  1  0  0  0  0
  5 11  2  0  0  0  0
  6  7  1  0  0  0  0
  8 12  1  0  0  0  0
  9 11  1  0  0  0  0
 11 13  1  0  0  0  0
 12 14  1  0  0  0  0
 14 15  3  0  0  0  0
M  END
> <CdId>
126

> <Mol Weight>
218.278

> <Formula>
C10H10N4S

> <Click_ID>
CLK002_E07 __ __ 

$$$$
