CLK018_B11
 OpenBabel03181413202D

 21 22  0  0  0  0  0  0  0  0999 V2000
    1.5690   -0.8179    0.0000 N   0  0  0  0  0  0  0  0  0  0  0  0
    1.8277   -1.6066    0.0000 C   0  0  0  0  0  0  0  0  0  0  0  0
    2.2408   -0.3297    0.0000 C   0  0  0  0  0  0  0  0  0  0  0  0
    2.9085   -0.8179    0.0000 C   0  0  0  0  0  0  0  0  0  0  0  0
    2.6540   -1.6066    0.0000 S   0  0  0  0  0  0  0  0  0  0  0  0
    3.6972   -0.5633    0.0000 C   0  0  0  0  0  0  0  0  0  0  0  0
    4.4191    2.6372    0.0000 C   0  0  0  0  0  0  0  0  0  0  0  0
    0.6134    0.2462    0.0000 C   0  0  0  0  0  0  0  0  0  0  0  0
    0.3923    1.0474    0.0000 C   0  0  0  0  0  0  0  0  0  0  0  0
    1.3395   -2.2701    0.0000 O   0  0  0  0  0  0  0  0  0  0  0  0
    2.2325    0.4965    0.0000 O   0  0  0  0  0  0  0  0  0  0  0  0
    4.2355    1.8277    0.0000 C   0  0  0  0  0  0  0  0  0  0  0  0
    0.7887   -0.5633    0.0000 C   0  0  0  0  0  0  0  0  0  0  0  0
    3.8182    3.1881    0.0000 O   0  0  0  0  0  0  0  0  0  0  0  0
    3.8725    0.2379    0.0000 C   0  0  0  0  0  0  0  0  0  0  0  0
    3.4469    1.5774    0.0000 C   0  0  0  0  0  0  0  0  0  0  0  0
    4.8322    1.2727    0.0000 C   0  0  0  0  0  0  0  0  0  0  0  0
    5.1995    2.8751    0.0000 O   0  0  0  0  0  0  0  0  0  0  0  0
    3.2716    0.7845    0.0000 C   0  0  0  0  0  0  0  0  0  0  0  0
    4.6486    0.4757    0.0000 C   0  0  0  0  0  0  0  0  0  0  0  0
    5.7962    2.3160    0.0000 C   0  0  0  0  0  0  0  0  0  0  0  0
  2  1  1  0  0  0  0
  3  1  1  0  0  0  0
  4  3  1  0  0  0  0
  4  5  1  0  0  0  0
  5  2  1  0  0  0  0
  6  4  2  0  0  0  0
  7 12  1  0  0  0  0
  8 13  1  0  0  0  0
  9  8  3  0  0  0  0
 10  2  2  0  0  0  0
 11  3  2  0  0  0  0
 12 17  2  0  0  0  0
 12 16  1  0  0  0  0
 13  1  1  0  0  0  0
 14  7  2  0  0  0  0
 15  6  1  0  0  0  0
 16 19  2  0  0  0  0
 17 20  1  0  0  0  0
 18  7  1  0  0  0  0
 19 15  1  0  0  0  0
 20 15  2  0  0  0  0
 21 18  1  0  0  0  0
M  END
> <CdId>
1336

> <Mol Weight>
301.317

> <Formula>
C15H11NO4S

> <Click_ID>
CLK018_B11 __ __ 

$$$$
