CLK018_D03
 OpenBabel03181413202D

 32 34  0  0  0  0  0  0  0  0999 V2000
    6.2625   -2.8042    0.0000 C    0  0  0  0  0  0  0  0  0  0  0  0
    6.9792   -2.3917    0.0000 N    0  0  0  0  0  0  0  0  0  0  0  0
    6.8042   -1.5792    0.0000 C    0  0  0  0  0  0  0  0  0  0  0  0
    5.9792   -1.5000    0.0000 C    0  0  0  0  0  0  0  0  0  0  0  0
    5.6500   -2.2542    0.0000 S    0  0  0  0  0  0  0  0  0  0  0  0
    6.0417   -3.5917    0.0000 N    0  0  0  0  0  0  0  0  0  0  0  0
    5.5667   -0.7875    0.0000 C    0  0  0  0  0  0  0  0  0  0  0  0
    3.0917   -0.7875    0.0000 C    0  0  0  0  0  0  0  0  0  0  0  0
    3.5042   -1.5042    0.0000 C    0  0  0  0  0  0  0  0  0  0  0  0
    3.5042   -0.0792    0.0000 C    0  0  0  0  0  0  0  0  0  0  0  0
    4.7417   -0.7875    0.0000 C    0  0  0  0  0  0  0  0  0  0  0  0
    6.7417   -6.3625    0.0000 C    0  0  0  0  0  0  0  0  0  0  0  0
    1.0250   -1.4917    0.0000 C    0  0  0  0  0  0  0  0  0  0  0  0
    0.2000   -1.4917    0.0000 C    0  0  0  0  0  0  0  0  0  0  0  0
    6.9667   -5.5667    0.0000 C    0  0  0  0  0  0  0  0  0  0  0  0
    4.3292   -1.5042    0.0000 C    0  0  0  0  0  0  0  0  0  0  0  0
    7.3542   -0.9667    0.0000 O    0  0  0  0  0  0  0  0  0  0  0  0
    4.3292   -0.0792    0.0000 C    0  0  0  0  0  0  0  0  0  0  0  0
    6.6167   -4.1875    0.0000 C    0  0  0  0  0  0  0  0  0  0  0  0
    6.3917   -4.9792    0.0000 C    0  0  0  0  0  0  0  0  0  0  0  0
    7.3167   -6.9500    0.0000 O    0  0  0  0  0  0  0  0  0  0  0  0
    7.7292   -2.7250    0.0000 C    0  0  0  0  0  0  0  0  0  0  0  0
    3.0792   -2.2167    0.0000 Cl   0  0  0  0  0  0  0  0  0  0  0  0
    2.2667   -0.7792    0.0000 O    0  0  0  0  0  0  0  0  0  0  0  0
    5.9417   -6.5667    0.0000 O    0  0  0  0  0  0  0  0  0  0  0  0
    3.0917    0.6375    0.0000 O    0  0  0  0  0  0  0  0  0  0  0  0
    1.8500   -1.5000    0.0000 C    0  0  0  0  0  0  0  0  0  0  0  0
    7.7667   -5.3625    0.0000 C    0  0  0  0  0  0  0  0  0  0  0  0
    7.9917   -4.5667    0.0000 C    0  0  0  0  0  0  0  0  0  0  0  0
    7.4167   -3.9750    0.0000 C    0  0  0  0  0  0  0  0  0  0  0  0
    2.2667    0.6375    0.0000 C    0  0  0  0  0  0  0  0  0  0  0  0
    8.3917   -2.2375    0.0000 C    0  0  0  0  0  0  0  0  0  0  0  0
  2  1  1  0  0  0  0
  3  2  1  0  0  0  0
  4  5  1  0  0  0  0
  4  3  1  0  0  0  0
  5  1  1  0  0  0  0
  6  1  2  0  0  0  0
  7  4  2  0  0  0  0
  8 10  1  0  0  0  0
  8  9  2  0  0  0  0
  9 16  1  0  0  0  0
 10 18  2  0  0  0  0
 11  7  1  0  0  0  0
 12 15  1  0  0  0  0
 13 27  1  0  0  0  0
 14 13  3  0  0  0  0
 15 20  1  0  0  0  0
 15 28  2  0  0  0  0
 16 11  2  0  0  0  0
 17  3  2  0  0  0  0
 18 11  1  0  0  0  0
 19  6  1  0  0  0  0
 20 19  2  0  0  0  0
 21 12  2  0  0  0  0
 22  2  1  0  0  0  0
 23  9  1  0  0  0  0
 24  8  1  0  0  0  0
 25 12  1  0  0  0  0
 26 10  1  0  0  0  0
 27 24  1  0  0  0  0
 28 29  1  0  0  0  0
 29 30  2  0  0  0  0
 30 19  1  0  0  0  0
 31 26  1  0  0  0  0
 32 22  1  0  0  0  0
M  END
> <CdId>
1348

> <Mol Weight>
470.925

> <Formula>
C23H19ClN2O5S

> <Click_ID>
CLK018_D03 __ __ 

$$$$
