CLK043H02
 OpenBabel03181413202D

 20 21  0  0  0  0  0  0  0  0999 V2000
   -0.3506    2.2539    0.0000 N   0  0  0  0  0  0  0  0  0  0  0  0
    0.1377    1.5861    0.0000 C   0  0  0  0  0  0  0  0  0  0  0  0
    0.9224    1.8407    0.0000 N   0  0  0  0  0  0  0  0  0  0  0  0
    0.9224    2.6671    0.0000 N   0  0  0  0  0  0  0  0  0  0  0  0
    0.1377    2.9218    0.0000 N   0  0  0  0  0  0  0  0  0  0  0  0
   -1.1770    2.2539    0.0000 C   0  0  0  0  0  0  0  0  0  0  0  0
   -0.1210    0.7971    0.0000 S   0  0  0  0  0  0  0  0  0  0  0  0
   -1.8908    2.6671    0.0000 C   0  0  0  0  0  0  0  0  0  0  0  0
   -1.8908    1.8407    0.0000 C   0  0  0  0  0  0  0  0  0  0  0  0
    0.2212   -2.7881    0.0000 C   0  0  0  0  0  0  0  0  0  0  0  0
   -0.0334   -3.5728    0.0000 C   0  0  0  0  0  0  0  0  0  0  0  0
    0.1795   -0.6011    0.0000 C   0  0  0  0  0  0  0  0  0  0  0  0
    0.7304   -1.2146    0.0000 N   0  0  0  0  0  0  0  0  0  0  0  0
    0.4759   -2.0034    0.0000 C   0  0  0  0  0  0  0  0  0  0  0  0
   -0.6303   -0.7721    0.0000 O   0  0  0  0  0  0  0  0  0  0  0  0
    0.4341    0.1836    0.0000 C   0  0  0  0  0  0  0  0  0  0  0  0
   -0.3089   -1.7447    0.0000 C   0  0  0  0  0  0  0  0  0  0  0  0
    1.2605   -2.2581    0.0000 C   0  0  0  0  0  0  0  0  0  0  0  0
   -0.4842   -0.9391    0.0000 C   0  0  0  0  0  0  0  0  0  0  0  0
    1.4317   -3.0678    0.0000 C   0  0  0  0  0  0  0  0  0  0  0  0
  2  1  1  0  0  0  0
  3  2  2  0  0  0  0
  4  5  2  0  0  0  0
  4  3  1  0  0  0  0
  5  1  1  0  0  0  0
  6  1  1  0  0  0  0
  7  2  1  0  0  0  0
  8  6  1  0  0  0  0
  9  6  1  0  0  0  0
  9  8  1  0  0  0  0
 10 14  1  0  0  0  0
 11 10  3  0  0  0  0
 12 16  1  0  0  0  0
 13 12  1  0  0  0  0
 14 13  1  0  0  0  0
 15 12  2  0  0  0  0
 16  7  1  0  0  0  0
 17 14  1  0  0  0  0
 18 14  1  0  0  0  0
 19 17  1  0  0  0  0
 20 18  1  0  0  0  0
M  END
> <CdId>
3256

> <Mol Weight>
293.388

> <Formula>
C13H19N5OS

> <Click_ID>
CLK043H02 __ __ 

$$$$
