CLK001_E10
 OpenBabel03181413202D

 29 32  0  0  0  0  0  0  0  0999 V2000
    1.2415    0.6112    0.0000 C   0  0  3  0  0  0  0  0  0  0  0  0
    2.0116    0.8716    0.0000 C   0  0  3  0  0  0  0  0  0  0  0  0
    1.2415   -0.2248    0.0000 C   0  0  3  0  0  0  0  0  0  0  0  0
    0.5262    1.0222    0.0000 C   0  0  0  0  0  0  0  0  0  0  0  0
    1.2415    1.4361    0.0000 C   0  0  0  0  0  0  0  0  0  0  0  0
    2.4967    0.2055    0.0000 C   0  0  0  0  0  0  0  0  0  0  0  0
    1.5512    1.5567    0.0000 O   0  0  0  0  0  0  0  0  0  0  0  0
    2.7844    1.1346    0.0000 C   0  0  0  0  0  0  0  0  0  0  0  0
    0.5262   -0.6385    0.0000 C   0  0  3  0  0  0  0  0  0  0  0  0
    2.0199   -0.4796    0.0000 C   0  0  0  0  0  0  0  0  0  0  0  0
   -0.1891    0.6112    0.0000 C   0  0  3  0  0  0  0  0  0  0  0  0
    2.0363    2.1925    0.0000 C   0  0  0  0  0  0  0  0  0  0  0  0
    3.5628    1.3977    0.0000 C   0  0  0  0  0  0  0  0  0  0  0  0
   -0.1891   -0.2248    0.0000 C   0  0  3  0  0  0  0  0  0  0  0  0
    0.5262   -1.4635    0.0000 C   0  0  0  0  0  0  0  0  0  0  0  0
   -0.9126    1.0222    0.0000 O   0  0  0  0  0  0  0  0  0  0  0  0
    1.7348    2.9462    0.0000 C   0  0  0  0  0  0  0  0  0  0  0  0
    2.8475    2.0719    0.0000 O   0  0  0  0  0  0  0  0  0  0  0  0
   -0.9126   -0.6385    0.0000 C   0  0  0  0  0  0  0  0  0  0  0  0
   -0.1891   -1.8773    0.0000 C   0  0  0  0  0  0  0  0  0  0  0  0
   -0.9126   -1.4635    0.0000 C   0  0  0  0  0  0  0  0  0  0  0  0
   -1.6279   -0.2248    0.0000 C   0  0  0  0  0  0  0  0  0  0  0  0
   -1.6279   -1.8773    0.0000 C   0  0  0  0  0  0  0  0  0  0  0  0
   -2.3432   -0.6385    0.0000 C   0  0  0  0  0  0  0  0  0  0  0  0
   -2.3432   -1.4635    0.0000 C   0  0  0  0  0  0  0  0  0  0  0  0
   -3.0585   -1.8773    0.0000 O   0  0  0  0  0  0  0  0  0  0  0  0
   -3.7738   -1.4635    0.0000 C   0  0  0  0  0  0  0  0  0  0  0  0
   -3.7738   -0.6385    0.0000 C   0  0  0  0  0  0  0  0  0  0  0  0
   -4.4891   -1.8773    0.0000 O   0  0  0  0  0  0  0  0  0  0  0  0
  1  2  1  0  0  0  0
  1  3  1  0  0  0  0
  1  4  1  0  0  0  0
  1  5  1  0  0  0  0
  2  6  1  0  0  0  0
  2  7  1  0  0  0  0
  2  8  1  0  0  0  0
  3  9  1  0  0  0  0
  3 10  1  0  0  0  0
  4 11  1  0  0  0  0
  6 10  1  0  0  0  0
  7 12  1  0  0  0  0
  8 13  3  0  0  0  0
  9 14  1  0  0  0  0
  9 15  1  0  0  0  0
 11 16  1  0  0  0  0
 11 14  1  0  0  0  0
 12 17  1  0  0  0  0
 12 18  2  0  0  0  0
 14 19  1  0  0  0  0
 15 20  1  0  0  0  0
 19 21  2  0  0  0  0
 19 22  1  0  0  0  0
 20 21  1  0  0  0  0
 21 23  1  0  0  0  0
 22 24  2  0  0  0  0
 23 25  2  0  0  0  0
 24 25  1  0  0  0  0
 25 26  1  0  0  0  0
 26 27  1  0  0  0  0
 27 28  1  0  0  0  0
 27 29  2  0  0  0  0
M  END
> <CdId>
49

> <Mol Weight>
396.4761

> <Formula>
C24H28O5

> <Click_ID>
CLK001_E10 __ __ 

$$$$
