CLK012_B11
 OpenBabel03181413202D

 23 25  0  0  0  0  0  0  0  0999 V2000
    1.5629   -0.8147    0.0000 N    0  0  0  0  0  0  0  0  0  0  0  0
    1.8205   -1.6003    0.0000 C    0  0  0  0  0  0  0  0  0  0  0  0
    2.8971   -0.8147    0.0000 C    0  0  0  0  0  0  0  0  0  0  0  0
    2.2320   -0.3284    0.0000 C    0  0  0  0  0  0  0  0  0  0  0  0
    2.6435   -1.6003    0.0000 S    0  0  0  0  0  0  0  0  0  0  0  0
    3.6827   -0.5611    0.0000 C    0  0  0  0  0  0  0  0  0  0  0  0
    3.8448    0.2452    0.0000 C    0  0  0  0  0  0  0  0  0  0  0  0
    4.6012    0.5861    0.0000 N    0  0  0  0  0  0  0  0  0  0  0  0
    0.6110    0.2452    0.0000 C    0  0  0  0  0  0  0  0  0  0  0  0
    5.3161    0.1829    0.0000 C    0  0  0  0  0  0  0  0  0  0  0  0
    0.3907    1.0432    0.0000 C    0  0  0  0  0  0  0  0  0  0  0  0
    4.5139    1.4048    0.0000 C    0  0  0  0  0  0  0  0  0  0  0  0
    1.3342   -2.2611    0.0000 O    0  0  0  0  0  0  0  0  0  0  0  0
    3.2919    0.8604    0.0000 C    0  0  0  0  0  0  0  0  0  0  0  0
    2.2237    0.4946    0.0000 O    0  0  0  0  0  0  0  0  0  0  0  0
    3.7034    1.5794    0.0000 C    0  0  0  0  0  0  0  0  0  0  0  0
    0.7856   -0.5611    0.0000 C    0  0  0  0  0  0  0  0  0  0  0  0
    6.0269    0.5943    0.0000 C    0  0  0  0  0  0  0  0  0  0  0  0
    5.3161   -0.6484    0.0000 C    0  0  0  0  0  0  0  0  0  0  0  0
    6.7501   -0.6401    0.0000 C    0  0  0  0  0  0  0  0  0  0  0  0
    6.7376    0.1829    0.0000 C    0  0  0  0  0  0  0  0  0  0  0  0
    6.0269   -1.0516    0.0000 C    0  0  0  0  0  0  0  0  0  0  0  0
    7.4691   -1.0516    0.0000 Br   0  0  0  0  0  0  0  0  0  0  0  0
  2  1  1  0  0  0  0
  3  4  1  0  0  0  0
  4  1  1  0  0  0  0
  5  2  1  0  0  0  0
  5  3  1  0  0  0  0
  6  3  2  0  0  0  0
  7  6  1  0  0  0  0
  8  7  1  0  0  0  0
  9 17  1  0  0  0  0
 10  8  1  0  0  0  0
 11  9  3  0  0  0  0
 12  8  1  0  0  0  0
 13  2  2  0  0  0  0
 14  7  2  0  0  0  0
 15  4  2  0  0  0  0
 16 14  1  0  0  0  0
 16 12  2  0  0  0  0
 17  1  1  0  0  0  0
 18 10  1  0  0  0  0
 19 10  2  0  0  0  0
 20 22  2  0  0  0  0
 20 21  1  0  0  0  0
 21 18  2  0  0  0  0
 22 19  1  0  0  0  0
 23 20  1  0  0  0  0
M  END
> <CdId>
856

> <Mol Weight>
387.25

> <Formula>
C17H11BrN2O2S

> <Click_ID>
CLK012_B11 __ __ 

$$$$
