CLK008_H02
 OpenBabel03181413202D

 27 29  0  0  0  0  0  0  0  0999 V2000
    0.1958    2.2597    0.0000 C    0  0  0  0  0  0  0  0  0  0  0  0
   -0.6250    2.2150    0.0000 C    0  0  0  0  0  0  0  0  0  0  0  0
    0.6525    1.5626    0.0000 C    0  0  0  0  0  0  0  0  0  0  0  0
    0.5701    2.9946    0.0000 O    0  0  0  0  0  0  0  0  0  0  0  0
   -0.9993    1.4801    0.0000 C    0  0  0  0  0  0  0  0  0  0  0  0
   -1.0715    2.8950    0.0000 O    0  0  0  0  0  0  0  0  0  0  0  0
    0.2713    0.8311    0.0000 C    0  0  0  0  0  0  0  0  0  0  0  0
    1.4732    1.6003    0.0000 Cl   0  0  0  0  0  0  0  0  0  0  0  0
    0.1236    3.6779    0.0000 C    0  0  0  0  0  0  0  0  0  0  0  0
   -0.5426    0.7830    0.0000 C    0  0  0  0  0  0  0  0  0  0  0  0
   -1.8956    2.8537    0.0000 C    0  0  0  0  0  0  0  0  0  0  0  0
    0.4946    4.4059    0.0000 C    0  0  0  0  0  0  0  0  0  0  0  0
   -0.9238    0.0481    0.0000 C    0  0  0  0  0  0  0  0  0  0  0  0
    1.3187    4.4472    0.0000 C    0  0  0  0  0  0  0  0  0  0  0  0
   -0.4671   -0.6490    0.0000 C    0  0  0  0  0  0  0  0  0  0  0  0
   -0.7624   -1.4217    0.0000 N    0  0  0  0  0  0  0  0  0  0  0  0
    0.3434   -0.6869    0.0000 C    0  0  0  0  0  0  0  0  0  0  0  0
   -0.1271   -1.9231    0.0000 C    0  0  0  0  0  0  0  0  0  0  0  0
    0.5563   -1.4767    0.0000 O    0  0  0  0  0  0  0  0  0  0  0  0
    0.8517   -0.0309    0.0000 O    0  0  0  0  0  0  0  0  0  0  0  0
   -0.1202   -2.7541    0.0000 C    0  0  0  0  0  0  0  0  0  0  0  0
    0.5907   -3.1629    0.0000 C    0  0  0  0  0  0  0  0  0  0  0  0
   -0.8379   -3.1629    0.0000 C    0  0  0  0  0  0  0  0  0  0  0  0
    0.5838   -3.9904    0.0000 C    0  0  0  0  0  0  0  0  0  0  0  0
   -0.8379   -3.9904    0.0000 C    0  0  0  0  0  0  0  0  0  0  0  0
   -0.1271   -4.3991    0.0000 C    0  0  0  0  0  0  0  0  0  0  0  0
    1.3015   -4.3991    0.0000 C    0  0  0  0  0  0  0  0  0  0  0  0
  1  2  1  0  0  0  0
  1  3  2  0  0  0  0
  1  4  1  0  0  0  0
  2  5  2  0  0  0  0
  2  6  1  0  0  0  0
  3  7  1  0  0  0  0
  3  8  1  0  0  0  0
  4  9  1  0  0  0  0
  5 10  1  0  0  0  0
  6 11  1  0  0  0  0
  7 10  2  0  0  0  0
  9 12  1  0  0  0  0
 10 13  1  0  0  0  0
 12 14  3  0  0  0  0
 13 15  2  0  0  0  0
 15 16  1  0  0  0  0
 15 17  1  0  0  0  0
 16 18  2  0  0  0  0
 17 19  1  0  0  0  0
 17 20  2  0  0  0  0
 18 21  1  0  0  0  0
 18 19  1  0  0  0  0
 21 22  1  0  0  0  0
 21 23  2  0  0  0  0
 22 24  2  0  0  0  0
 23 25  1  0  0  0  0
 24 26  1  0  0  0  0
 24 27  1  0  0  0  0
 25 26  2  0  0  0  0
M  END
> <CdId>
593

> <Mol Weight>
381.809

> <Formula>
C21H16ClNO4

> <Click_ID>
CLK008_H02 __ __ 

$$$$
