CLK004_B08
 OpenBabel03181413202D

 27 29  0  0  0  0  0  0  0  0999 V2000
   -0.0551    0.6664    0.0000 C    0  0  3  0  0  0  0  0  0  0  0  0
    0.7462    0.4766    0.0000 N    0  0  0  0  0  0  0  0  0  0  0  0
   -0.2924    1.4525    0.0000 C    0  0  0  0  0  0  0  0  0  0  0  0
   -0.6228    0.0627    0.0000 C    0  0  0  0  0  0  0  0  0  0  0  0
    0.9873   -0.3152    0.0000 C    0  0  0  0  0  0  0  0  0  0  0  0
    1.3159    1.0785    0.0000 C    0  0  0  0  0  0  0  0  0  0  0  0
    0.2070    2.1133    0.0000 C    0  0  0  0  0  0  0  0  0  0  0  0
   -1.0728    1.7278    0.0000 O    0  0  0  0  0  0  0  0  0  0  0  0
   -1.4241    0.2525    0.0000 N    0  0  0  0  0  0  0  0  0  0  0  0
   -0.3816   -0.7291    0.0000 O    0  0  0  0  0  0  0  0  0  0  0  0
    0.4234   -0.9114    0.0000 C    0  0  0  0  0  0  0  0  0  0  0  0
    1.7924   -0.5032    0.0000 C    0  0  0  0  0  0  0  0  0  0  0  0
    2.1152    0.8886    0.0000 C    0  0  0  0  0  0  0  0  0  0  0  0
    1.0766    1.8665    0.0000 O    0  0  0  0  0  0  0  0  0  0  0  0
   -0.2658    2.7893    0.0000 C    0  0  0  0  0  0  0  0  0  0  0  0
   -1.0576    2.5538    0.0000 C    0  0  0  0  0  0  0  0  0  0  0  0
   -1.9937   -0.3494    0.0000 C    0  0  0  0  0  0  0  0  0  0  0  0
    0.6608   -1.7032    0.0000 C    0  0  0  0  0  0  0  0  0  0  0  0
    2.0317   -1.2911    0.0000 C    0  0  0  0  0  0  0  0  0  0  0  0
    2.9222    0.7006    0.0000 C    0  0  0  0  0  0  0  0  0  0  0  0
   -1.8342   -1.1582    0.0000 C    0  0  0  0  0  0  0  0  0  0  0  0
   -2.8121   -0.2469    0.0000 C    0  0  0  0  0  0  0  0  0  0  0  0
    1.4621   -1.8950    0.0000 C    0  0  0  0  0  0  0  0  0  0  0  0
    0.0931   -2.3070    0.0000 Cl   0  0  0  0  0  0  0  0  0  0  0  0
   -2.5595   -1.5513    0.0000 C    0  0  0  0  0  0  0  0  0  0  0  0
   -3.1633   -0.9873    0.0000 C    0  0  0  0  0  0  0  0  0  0  0  0
    1.7032   -2.6849    0.0000 Cl   0  0  0  0  0  0  0  0  0  0  0  0
  1  2  1  0  0  0  0
  1  3  1  0  0  0  0
  1  4  1  0  0  0  0
  2  5  1  0  0  0  0
  2  6  1  0  0  0  0
  3  7  2  0  0  0  0
  3  8  1  0  0  0  0
  4  9  1  0  0  0  0
  4 10  2  0  0  0  0
  5 11  1  0  0  0  0
  5 12  2  0  0  0  0
  6 13  1  0  0  0  0
  6 14  2  0  0  0  0
  7 15  1  0  0  0  0
  8 16  1  0  0  0  0
  9 17  1  0  0  0  0
 11 18  2  0  0  0  0
 12 19  1  0  0  0  0
 13 20  3  0  0  0  0
 15 16  2  0  0  0  0
 17 21  1  0  0  0  0
 17 22  1  0  0  0  0
 18 23  1  0  0  0  0
 18 24  1  0  0  0  0
 19 23  2  0  0  0  0
 21 25  1  0  0  0  0
 22 26  1  0  0  0  0
 23 27  1  0  0  0  0
 25 26  1  0  0  0  0
M  END
> <CdId>
257

> <Mol Weight>
405.275

> <Formula>
C20H18Cl2N2O3

> <Click_ID>
CLK004_B08 __ __ 

$$$$
