CLK019_D04
 OpenBabel03181413202D

 18 19  0  0  0  0  0  0  0  0999 V2000
   -0.1856   -1.6306    0.0000 S   0  0  0  0  0  0  0  0  0  0  0  0
   -0.9943   -1.8527    0.0000 C   0  0  0  0  0  0  0  0  0  0  0  0
   -1.2031   -2.6481    0.0000 C   0  0  0  0  0  0  0  0  0  0  0  0
   -0.7556   -3.3441    0.0000 N   0  0  0  0  0  0  0  0  0  0  0  0
   -1.2992   -3.9804    0.0000 S   0  0  0  0  0  0  0  0  0  0  0  0
   -2.0150   -2.8536    0.0000 C   0  0  0  0  0  0  0  0  0  0  0  0
   -2.0647   -3.6821    0.0000 N   0  0  0  0  0  0  0  0  0  0  0  0
    0.6397   -1.4053    0.0000 N   0  0  0  0  0  0  0  0  0  0  0  0
    1.8195   -1.4053    0.0000 C   0  0  0  0  0  0  0  0  0  0  0  0
   -0.4077   -0.8186    0.0000 O   0  0  0  0  0  0  0  0  0  0  0  0
    0.0398   -2.4393    0.0000 O   0  0  0  0  0  0  0  0  0  0  0  0
   -1.5875   -1.2627    0.0000 C   0  0  0  0  0  0  0  0  0  0  0  0
    2.3896   -0.8186    0.0000 C   0  0  0  0  0  0  0  0  0  0  0  0
    1.2329   -1.9919    0.0000 C   0  0  0  0  0  0  0  0  0  0  0  0
   -2.3630   -1.4715    0.0000 C   0  0  0  0  0  0  0  0  0  0  0  0
   -2.5851   -2.2669    0.0000 C   0  0  0  0  0  0  0  0  0  0  0  0
    1.8195   -2.5686    0.0000 C   0  0  0  0  0  0  0  0  0  0  0  0
    0.6596   -2.5851    0.0000 C   0  0  0  0  0  0  0  0  0  0  0  0
  2  1  1  0  0  0  0
  3  2  1  0  0  0  0
  4  3  2  0  0  0  0
  5  4  1  0  0  0  0
  5  7  1  0  0  0  0
  6  3  1  0  0  0  0
  7  6  2  0  0  0  0
  8  1  1  0  0  0  0
  9 14  1  0  0  0  0
 10  1  2  0  0  0  0
 11  1  2  0  0  0  0
 12  2  2  0  0  0  0
 13  9  3  0  0  0  0
 14  8  1  0  0  0  0
 15 12  1  0  0  0  0
 16 15  2  0  0  0  0
 16  6  1  0  0  0  0
 17 14  1  0  0  0  0
 18 14  1  0  0  0  0
M  END
> <CdId>
1429

> <Mol Weight>
281.354

> <Formula>
C11H11N3O2S2

> <Click_ID>
CLK019_D04 __ __ 

$$$$
