CLK012_F10
 OpenBabel03181413202D

 18 19  0  0  0  0  0  0  0  0999 V2000
    1.5717   -0.8193    0.0000 N    0  0  0  0  0  0  0  0  0  0  0  0
    1.8308   -1.6093    0.0000 C    0  0  0  0  0  0  0  0  0  0  0  0
    2.2446   -0.3302    0.0000 C    0  0  0  0  0  0  0  0  0  0  0  0
    2.9134   -0.8193    0.0000 C    0  0  0  0  0  0  0  0  0  0  0  0
    2.6584   -1.6093    0.0000 S    0  0  0  0  0  0  0  0  0  0  0  0
    3.7035   -0.5643    0.0000 C    0  0  0  0  0  0  0  0  0  0  0  0
    0.6145    0.2466    0.0000 C    0  0  0  0  0  0  0  0  0  0  0  0
    0.3929    1.0491    0.0000 C    0  0  0  0  0  0  0  0  0  0  0  0
    1.3418   -2.2739    0.0000 O    0  0  0  0  0  0  0  0  0  0  0  0
    2.2363    0.4974    0.0000 O    0  0  0  0  0  0  0  0  0  0  0  0
    0.7900   -0.5643    0.0000 C    0  0  0  0  0  0  0  0  0  0  0  0
    3.8748    0.2340    0.0000 C    0  0  0  0  0  0  0  0  0  0  0  0
    4.6648    0.4723    0.0000 C    0  0  0  0  0  0  0  0  0  0  0  0
    4.8278    1.2791    0.0000 C    0  0  0  0  0  0  0  0  0  0  0  0
    5.6095    1.5424    0.0000 Br   0  0  0  0  0  0  0  0  0  0  0  0
    3.4484    1.5758    0.0000 C    0  0  0  0  0  0  0  0  0  0  0  0
    3.2729    0.7775    0.0000 C    0  0  0  0  0  0  0  0  0  0  0  0
    4.2259    1.8308    0.0000 C    0  0  0  0  0  0  0  0  0  0  0  0
  2  1  1  0  0  0  0
  3  1  1  0  0  0  0
  4  3  1  0  0  0  0
  4  5  1  0  0  0  0
  5  2  1  0  0  0  0
  6  4  2  0  0  0  0
  7 11  1  0  0  0  0
  8  7  3  0  0  0  0
  9  2  2  0  0  0  0
 10  3  2  0  0  0  0
 11  1  1  0  0  0  0
 12  6  1  0  0  0  0
 13 12  2  0  0  0  0
 14 13  1  0  0  0  0
 14 18  2  0  0  0  0
 15 14  1  0  0  0  0
 16 17  2  0  0  0  0
 17 12  1  0  0  0  0
 18 16  1  0  0  0  0
M  END
> <CdId>
895

> <Mol Weight>
322.177

> <Formula>
C13H8BrNO2S

> <Click_ID>
CLK012_F10 __ __ 

$$$$
