CLK043F05
 OpenBabel03181413202D

 25 26  0  0  0  0  0  0  0  0999 V2000
   -0.7750    2.3958    0.0000 S    0  0  0  0  0  0  0  0  0  0  0  0
   -0.7750   -0.9042    0.0000 C    0  0  0  0  0  0  0  0  0  0  0  0
   -0.0583   -1.3167    0.0000 N    0  0  0  0  0  0  0  0  0  0  0  0
   -0.7750    1.5708    0.0000 C    0  0  0  0  0  0  0  0  0  0  0  0
   -0.0583    4.4542    0.0000 C    0  0  0  0  0  0  0  0  0  0  0  0
   -0.0583    5.2792    0.0000 C    0  0  0  0  0  0  0  0  0  0  0  0
   -1.6000    2.3958    0.0000 O    0  0  0  0  0  0  0  0  0  0  0  0
    0.0500    2.3958    0.0000 O    0  0  0  0  0  0  0  0  0  0  0  0
   -0.7750   -0.0792    0.0000 C    0  0  0  0  0  0  0  0  0  0  0  0
    0.6542   -2.5542    0.0000 C    0  0  0  0  0  0  0  0  0  0  0  0
   -0.0583   -2.1417    0.0000 C    0  0  3  0  0  0  0  0  0  0  0  0
   -0.7750    3.2208    0.0000 N    0  0  0  0  0  0  0  0  0  0  0  0
   -1.4875   -1.3167    0.0000 O    0  0  0  0  0  0  0  0  0  0  0  0
    1.3708   -2.1417    0.0000 C    0  0  0  0  0  0  0  0  0  0  0  0
   -0.0583    1.1583    0.0000 C    0  0  0  0  0  0  0  0  0  0  0  0
   -1.4875    1.1583    0.0000 C    0  0  0  0  0  0  0  0  0  0  0  0
   -0.0583    0.3333    0.0000 C    0  0  0  0  0  0  0  0  0  0  0  0
   -1.4875    0.3333    0.0000 C    0  0  0  0  0  0  0  0  0  0  0  0
    2.0833   -2.5542    0.0000 C    0  0  0  0  0  0  0  0  0  0  0  0
   -0.0583    3.6333    0.0000 C    0  0  0  0  0  0  0  0  0  0  0  0
    2.8000   -2.1417    0.0000 Cl   0  0  0  0  0  0  0  0  0  0  0  0
    0.6542   -3.3792    0.0000 C    0  0  0  0  0  0  0  0  0  0  0  0
    1.3708   -3.7917    0.0000 C    0  0  0  0  0  0  0  0  0  0  0  0
   -0.7750   -2.5542    0.0000 C    0  0  0  0  0  0  0  0  0  0  0  0
    2.0833   -3.3792    0.0000 C    0  0  0  0  0  0  0  0  0  0  0  0
  2  9  1  0  0  0  0
  3  2  1  0  0  0  0
  4  1  1  0  0  0  0
  5 20  1  0  0  0  0
  6  5  3  0  0  0  0
  7  1  2  0  0  0  0
  8  1  2  0  0  0  0
  9 18  2  0  0  0  0
 10 11  1  0  0  0  0
 11  3  1  0  0  0  0
 12  1  1  0  0  0  0
 13  2  2  0  0  0  0
 14 10  2  0  0  0  0
 15  4  1  0  0  0  0
 16  4  2  0  0  0  0
 17 15  2  0  0  0  0
 17  9  1  0  0  0  0
 18 16  1  0  0  0  0
 19 14  1  0  0  0  0
 20 12  1  0  0  0  0
 21 19  1  0  0  0  0
 22 10  1  0  0  0  0
 23 22  2  0  0  0  0
 24 11  1  0  0  0  0
 25 19  2  0  0  0  0
 25 23  1  0  0  0  0
M  END
> <CdId>
3278

> <Mol Weight>
376.857

> <Formula>
C18H17ClN2O3S

> <Click_ID>
CLK043F05 __ __ 

$$$$
