CLK010_A03
 OpenBabel03181413202D

 26 29  0  0  0  0  0  0  0  0999 V2000
    4.8401   -1.6347    0.0000 C   0  0  0  0  0  0  0  0  0  0  0  0
    4.9225   -2.4498    0.0000 C   0  0  0  0  0  0  0  0  0  0  0  0
    5.7284   -2.6284    0.0000 N   0  0  0  0  0  0  0  0  0  0  0  0
    5.5910   -1.2959    0.0000 C   0  0  0  0  0  0  0  0  0  0  0  0
    6.1405   -1.9141    0.0000 C   0  0  0  0  0  0  0  0  0  0  0  0
    4.1258   -1.2226    0.0000 N   0  0  0  0  0  0  0  0  0  0  0  0
    3.4114    0.0137    0.0000 C   0  0  0  0  0  0  0  0  0  0  0  0
    4.1258   -0.3984    0.0000 N   0  0  0  0  0  0  0  0  0  0  0  0
    2.6971   -0.3984    0.0000 C   0  0  0  0  0  0  0  0  0  0  0  0
    1.2684   -0.3984    0.0000 C   0  0  0  0  0  0  0  0  0  0  0  0
    5.5773   -4.0433    0.0000 C   0  0  0  0  0  0  0  0  0  0  0  0
    1.9782    0.0229    0.0000 C   0  0  0  0  0  0  0  0  0  0  0  0
    5.0965   -4.7119    0.0000 C   0  0  0  0  0  0  0  0  0  0  0  0
    4.3044   -2.9993    0.0000 O   0  0  0  0  0  0  0  0  0  0  0  0
    1.2684   -1.2272    0.0000 C   0  0  0  0  0  0  0  0  0  0  0  0
    0.4717   -0.1420    0.0000 O   0  0  0  0  0  0  0  0  0  0  0  0
    0.4717   -1.4745    0.0000 O   0  0  0  0  0  0  0  0  0  0  0  0
   -0.0091   -0.8105    0.0000 C   0  0  0  0  0  0  0  0  0  0  0  0
    6.0627   -3.3793    0.0000 C   0  0  0  0  0  0  0  0  0  0  0  0
    3.4114    0.8380    0.0000 O   0  0  0  0  0  0  0  0  0  0  0  0
    2.6971   -1.2272    0.0000 C   0  0  0  0  0  0  0  0  0  0  0  0
    1.9782   -1.6393    0.0000 C   0  0  0  0  0  0  0  0  0  0  0  0
    5.8429   -0.5129    0.0000 C   0  0  0  0  0  0  0  0  0  0  0  0
    6.9510   -1.7446    0.0000 C   0  0  0  0  0  0  0  0  0  0  0  0
    6.6534   -0.3480    0.0000 C   0  0  0  0  0  0  0  0  0  0  0  0
    7.2029   -0.9525    0.0000 C   0  0  0  0  0  0  0  0  0  0  0  0
  2  1  1  0  0  0  0
  3  2  1  0  0  0  0
  4  1  1  0  0  0  0
  5  4  2  0  0  0  0
  5  3  1  0  0  0  0
  6  1  2  0  0  0  0
  7  8  1  0  0  0  0
  8  6  1  0  0  0  0
  9  7  1  0  0  0  0
 10 12  2  0  0  0  0
 11 19  1  0  0  0  0
 12  9  1  0  0  0  0
 13 11  3  0  0  0  0
 14  2  2  0  0  0  0
 15 22  2  0  0  0  0
 15 10  1  0  0  0  0
 16 10  1  0  0  0  0
 17 15  1  0  0  0  0
 17 18  1  0  0  0  0
 18 16  1  0  0  0  0
 19  3  1  0  0  0  0
 20  7  2  0  0  0  0
 21  9  2  0  0  0  0
 22 21  1  0  0  0  0
 23  4  1  0  0  0  0
 24  5  1  0  0  0  0
 25 23  2  0  0  0  0
 26 25  1  0  0  0  0
 26 24  2  0  0  0  0
M  END
> <CdId>
678

> <Mol Weight>
347.3242

> <Formula>
C19H13N3O4

> <Click_ID>
CLK010_A03 __ __ 

$$$$
