CLK044H08
 OpenBabel03181413202D

 21 22  0  0  0  0  0  0  0  0999 V2000
   -1.2958   -2.3958    0.0000 N   0  3  0  0  0  0  0  0  0  0  0  0
   -0.5792   -1.9833    0.0000 C   0  0  0  0  0  0  0  0  0  0  0  0
    0.1333    0.0792    0.0000 C   0  0  0  0  0  0  0  0  0  0  0  0
   -0.5792   -1.1583    0.0000 C   0  0  0  0  0  0  0  0  0  0  0  0
    0.1333   -0.7458    0.0000 C   0  0  0  0  0  0  0  0  0  0  0  0
    0.8500    0.4917    0.0000 N   0  0  0  0  0  0  0  0  0  0  0  0
   -0.5792    2.9667    0.0000 C   0  0  0  0  0  0  0  0  0  0  0  0
    0.1333   -2.3958    0.0000 C   0  0  0  0  0  0  0  0  0  0  0  0
   -1.2958    3.3792    0.0000 C   0  0  0  0  0  0  0  0  0  0  0  0
   -2.0083   -1.9833    0.0000 O   0  5  0  0  0  0  0  0  0  0  0  0
   -1.2958   -3.2208    0.0000 O   0  0  0  0  0  0  0  0  0  0  0  0
   -0.5792    0.4917    0.0000 O   0  0  0  0  0  0  0  0  0  0  0  0
    0.8500    1.3167    0.0000 C   0  0  0  0  0  0  0  0  0  0  0  0
    0.8500   -1.1583    0.0000 C   0  0  0  0  0  0  0  0  0  0  0  0
    0.8500   -1.9833    0.0000 C   0  0  0  0  0  0  0  0  0  0  0  0
    0.1333    2.5542    0.0000 C   0  0  0  0  0  0  0  0  0  0  0  0
    0.1333    1.7292    0.0000 C   0  0  0  0  0  0  0  0  0  0  0  0
    0.1333   -3.2208    0.0000 N   0  0  0  0  0  0  0  0  0  0  0  0
    1.5625    2.5542    0.0000 C   0  0  0  0  0  0  0  0  0  0  0  0
    1.5625    1.7292    0.0000 C   0  0  0  0  0  0  0  0  0  0  0  0
    0.8500    2.9667    0.0000 C   0  0  0  0  0  0  0  0  0  0  0  0
  2  1  1  0  0  0  0
  3  5  1  0  0  0  0
  4  2  1  0  0  0  0
  5  4  2  0  0  0  0
  5 14  1  0  0  0  0
  6  3  1  0  0  0  0
  7 16  1  0  0  0  0
  8  2  2  0  0  0  0
  9  7  3  0  0  0  0
 10  1  1  0  0  0  0
 11  1  2  0  0  0  0
 12  3  2  0  0  0  0
 13  6  1  0  0  0  0
 14 15  2  0  0  0  0
 15  8  1  0  0  0  0
 16 17  1  0  0  0  0
 17 13  2  0  0  0  0
 18  8  1  0  0  0  0
 19 20  2  0  0  0  0
 20 13  1  0  0  0  0
 21 16  2  0  0  0  0
 21 19  1  0  0  0  0
M  END
> <CdId>
3384

> <Mol Weight>
281.2661

> <Formula>
C15H11N3O3

> <Click_ID>
CLK044H08 __ __ 

$$$$
