CLK021_A11
 OpenBabel03181413202D

 21 21  0  0  0  0  0  0  0  0999 V2000
    3.9487    3.2386    0.0000 C   0  0  0  0  0  0  0  0  0  0  0  0
    4.3609    2.5240    0.0000 N   0  0  0  0  0  0  0  0  0  0  0  0
    1.9148    3.7379    0.0000 C   0  0  0  0  0  0  0  0  0  0  0  0
    5.1855    2.5240    0.0000 C   0  0  0  0  0  0  0  0  0  0  0  0
    5.5978    1.8094    0.0000 C   0  0  0  0  0  0  0  0  0  0  0  0
    3.1241    3.2386    0.0000 N   0  0  0  0  0  0  0  0  0  0  0  0
    1.1177    3.5272    0.0000 C   0  0  0  0  0  0  0  0  0  0  0  0
    6.4223    1.8094    0.0000 C   0  0  0  0  0  0  0  0  0  0  0  0
    2.7119    3.9532    0.0000 C   0  0  0  0  0  0  0  0  0  0  0  0
    4.3609    3.9532    0.0000 O   0  0  0  0  0  0  0  0  0  0  0  0
    5.5978    3.2386    0.0000 C   0  0  0  0  0  0  0  0  0  0  0  0
    6.8346    2.5240    0.0000 C   0  0  0  0  0  0  0  0  0  0  0  0
    6.4223    3.2386    0.0000 C   0  0  0  0  0  0  0  0  0  0  0  0
    5.1855    1.0948    0.0000 O   0  0  0  0  0  0  0  0  0  0  0  0
    7.6591    2.5240    0.0000 O   0  0  0  0  0  0  0  0  0  0  0  0
    3.4631    4.3105    0.0000 C   0  0  0  0  0  0  0  0  0  0  0  0
    2.4324    4.7182    0.0000 C   0  0  0  0  0  0  0  0  0  0  0  0
    5.5978    0.3802    0.0000 C   0  0  0  0  0  0  0  0  0  0  0  0
    8.0714    3.2386    0.0000 C   0  0  0  0  0  0  0  0  0  0  0  0
    2.9592    5.3504    0.0000 C   0  0  0  0  0  0  0  0  0  0  0  0
    3.5318    5.1168    0.0000 C   0  0  0  0  0  0  0  0  0  0  0  0
  2  1  1  0  0  0  0
  3  9  1  0  0  0  0
  4  2  1  0  0  0  0
  5  4  2  0  0  0  0
  6  1  1  0  0  0  0
  7  3  3  0  0  0  0
  8  5  1  0  0  0  0
  9  6  1  0  0  0  0
 10  1  2  0  0  0  0
 11  4  1  0  0  0  0
 12 13  1  0  0  0  0
 12  8  2  0  0  0  0
 13 11  2  0  0  0  0
 14  5  1  0  0  0  0
 15 12  1  0  0  0  0
 16  9  1  0  0  0  0
 17  9  1  0  0  0  0
 18 14  1  0  0  0  0
 19 15  1  0  0  0  0
 20 17  1  0  0  0  0
 21 16  1  0  0  0  0
M  END
> <CdId>
1566

> <Mol Weight>
290.3575

> <Formula>
C16H22N2O3

> <Click_ID>
CLK021_A11 __ __ 

$$$$
