CLK050E07
 OpenBabel03181413202D

 16 16  0  0  0  0  0  0  0  0999 V2000
   -0.7625    1.2667    0.0000 C    0  0  0  0  0  0  0  0  0  0  0  0
   -2.1917    2.9167    0.0000 C    0  0  0  0  0  0  0  0  0  0  0  0
   -2.9042    3.3292    0.0000 C    0  0  0  0  0  0  0  0  0  0  0  0
   -0.0458    1.6792    0.0000 O    0  0  0  0  0  0  0  0  0  0  0  0
   -0.7625    0.4417    0.0000 N    0  0  0  0  0  0  0  0  0  0  0  0
   -1.4750    1.6792    0.0000 N    0  0  0  0  0  0  0  0  0  0  0  0
    0.6667   -2.0333    0.0000 C    0  0  0  0  0  0  0  0  0  0  0  0
    1.3833   -2.4458    0.0000 C    0  0  0  0  0  0  0  0  0  0  0  0
    1.3833   -3.2708    0.0000 Cl   0  0  0  0  0  0  0  0  0  0  0  0
   -1.4750    2.5042    0.0000 C    0  0  0  0  0  0  0  0  0  0  0  0
    0.6667   -1.2083    0.0000 C    0  0  0  0  0  0  0  0  0  0  0  0
   -0.0458    0.0292    0.0000 C    0  0  0  0  0  0  0  0  0  0  0  0
    2.0958   -1.2083    0.0000 C    0  0  0  0  0  0  0  0  0  0  0  0
   -0.0458   -0.7958    0.0000 C    0  0  0  0  0  0  0  0  0  0  0  0
    2.0958   -2.0333    0.0000 C    0  0  0  0  0  0  0  0  0  0  0  0
    1.3833   -0.7958    0.0000 C    0  0  0  0  0  0  0  0  0  0  0  0
  2 10  1  0  0  0  0
  3  2  3  0  0  0  0
  4  1  2  0  0  0  0
  5  1  1  0  0  0  0
  6  1  1  0  0  0  0
  7 11  1  0  0  0  0
  8  7  2  0  0  0  0
  9  8  1  0  0  0  0
 10  6  1  0  0  0  0
 11 14  1  0  0  0  0
 12  5  1  0  0  0  0
 13 16  1  0  0  0  0
 13 15  2  0  0  0  0
 14 12  1  0  0  0  0
 15  8  1  0  0  0  0
 16 11  2  0  0  0  0
M  END
> <CdId>
3853

> <Mol Weight>
236.697

> <Formula>
C12H13ClN2O

> <Click_ID>
CLK050E07 __ __ 

$$$$
