CLK024_C08
 OpenBabel03181413202D

 23 24  0  0  0  0  0  0  0  0999 V2000
   -1.8208   -1.2918    0.0000 N    0  0  0  0  0  0  0  0  0  0  0  0
   -1.8208   -2.1163    0.0000 C    0  0  0  0  0  0  0  0  0  0  0  0
   -1.0444   -1.0203    0.0000 C    0  0  0  0  0  0  0  0  0  0  0  0
   -0.5566   -1.6937    0.0000 C    0  0  0  0  0  0  0  0  0  0  0  0
   -1.0341   -2.3670    0.0000 S    0  0  0  0  0  0  0  0  0  0  0  0
    0.2680   -1.6834    0.0000 C    0  0  0  0  0  0  0  0  0  0  0  0
   -3.2500   -1.1578    0.0000 C    0  0  0  0  0  0  0  0  0  0  0  0
   -3.9852   -1.5322    0.0000 C    0  0  0  0  0  0  0  0  0  0  0  0
    1.9170   -0.2439    0.0000 C    0  0  0  0  0  0  0  0  0  0  0  0
   -2.4839   -2.6041    0.0000 O    0  0  0  0  0  0  0  0  0  0  0  0
   -0.7971   -0.2439    0.0000 O    0  0  0  0  0  0  0  0  0  0  0  0
    3.1538    1.8929    0.0000 C    0  0  0  0  0  0  0  0  0  0  0  0
    1.5048    0.4706    0.0000 C    0  0  0  0  0  0  0  0  0  0  0  0
    0.6802   -0.9688    0.0000 C    0  0  0  0  0  0  0  0  0  0  0  0
   -2.4942   -0.8074    0.0000 C    0  0  0  0  0  0  0  0  0  0  0  0
    1.4910   -0.9585    0.0000 C    0  0  0  0  0  0  0  0  0  0  0  0
    1.9170    1.1784    0.0000 O    0  0  0  0  0  0  0  0  0  0  0  0
    2.7518    2.6076    0.0000 O    0  0  0  0  0  0  0  0  0  0  0  0
    0.6768    0.4673    0.0000 C    0  0  0  0  0  0  0  0  0  0  0  0
    2.7415    1.1921    0.0000 C    0  0  0  0  0  0  0  0  0  0  0  0
    2.7415   -0.2302    0.0000 Br   0  0  0  0  0  0  0  0  0  0  0  0
    0.2680   -0.2474    0.0000 C    0  0  0  0  0  0  0  0  0  0  0  0
    3.9818    1.8929    0.0000 O    0  0  0  0  0  0  0  0  0  0  0  0
  2  1  1  0  0  0  0
  3  1  1  0  0  0  0
  4  3  1  0  0  0  0
  5  2  1  0  0  0  0
  5  4  1  0  0  0  0
  6  4  2  0  0  0  0
  7 15  1  0  0  0  0
  8  7  3  0  0  0  0
  9 16  2  0  0  0  0
 10  2  2  0  0  0  0
 11  3  2  0  0  0  0
 12 20  1  0  0  0  0
 13 19  2  0  0  0  0
 13  9  1  0  0  0  0
 14  6  1  0  0  0  0
 15  1  1  0  0  0  0
 16 14  1  0  0  0  0
 17 13  1  0  0  0  0
 18 12  2  0  0  0  0
 19 22  1  0  0  0  0
 20 17  1  0  0  0  0
 21  9  1  0  0  0  0
 22 14  2  0  0  0  0
 23 12  1  0  0  0  0
M  END
> <CdId>
1803

> <Mol Weight>
396.213

> <Formula>
C15H10BrNO5S

> <Click_ID>
CLK024_C08 __ __ 

$$$$
