CLK024_F07
 OpenBabel03181413202D

 35 38  0  0  0  0  0  0  0  0999 V2000
   -1.7206    2.2378    0.0000 N   0  0  0  0  0  0  0  0  0  0  0  0
   -1.9722    3.0170    0.0000 C   0  0  0  0  0  0  0  0  0  0  0  0
   -0.8861    2.2378    0.0000 C   0  0  0  0  0  0  0  0  0  0  0  0
   -0.6310    3.0170    0.0000 C   0  0  0  0  0  0  0  0  0  0  0  0
   -1.2999    3.4963    0.0000 S   0  0  0  0  0  0  0  0  0  0  0  0
   -2.1344    1.5137    0.0000 C   0  0  0  0  0  0  0  0  0  0  0  0
   -1.7206    0.8000    0.0000 C   0  0  0  0  0  0  0  0  0  0  0  0
   -2.1481    0.0828    0.0000 N   0  0  0  0  0  0  0  0  0  0  0  0
   -2.9722   -1.3516    0.0000 N   0  0  0  0  0  0  0  0  0  0  0  0
    0.1552    3.2756    0.0000 C   0  0  0  0  0  0  0  0  0  0  0  0
    4.0066    0.7827    0.0000 C   0  0  0  0  0  0  0  0  0  0  0  0
    4.6273    0.2344    0.0000 C   0  0  0  0  0  0  0  0  0  0  0  0
   -2.7584    3.2756    0.0000 O   0  0  0  0  0  0  0  0  0  0  0  0
    2.1584    2.4170    0.0000 C   0  0  0  0  0  0  0  0  0  0  0  0
   -0.3931    1.5585    0.0000 O   0  0  0  0  0  0  0  0  0  0  0  0
    0.7655    2.7170    0.0000 C   0  0  0  0  0  0  0  0  0  0  0  0
   -2.9722    0.0828    0.0000 C   0  0  0  0  0  0  0  0  0  0  0  0
   -1.7343   -0.6310    0.0000 C   0  0  0  0  0  0  0  0  0  0  0  0
   -2.1481   -1.3516    0.0000 C   0  0  0  0  0  0  0  0  0  0  0  0
   -3.3860   -0.6310    0.0000 C   0  0  0  0  0  0  0  0  0  0  0  0
   -0.8827    0.7965    0.0000 O   0  0  0  0  0  0  0  0  0  0  0  0
    1.5551    2.9756    0.0000 C   0  0  0  0  0  0  0  0  0  0  0  0
    1.9861    1.6137    0.0000 C   0  0  0  0  0  0  0  0  0  0  0  0
   -3.3860   -2.0688    0.0000 C   0  0  0  0  0  0  0  0  0  0  0  0
    1.2034    1.3585    0.0000 C   0  0  0  0  0  0  0  0  0  0  0  0
    0.5827    1.9137    0.0000 C   0  0  0  0  0  0  0  0  0  0  0  0
    2.9481    2.6756    0.0000 O   0  0  0  0  0  0  0  0  0  0  0  0
    2.6102    1.0654    0.0000 O   0  0  0  0  0  0  0  0  0  0  0  0
    3.3860    1.3275    0.0000 C   0  0  0  0  0  0  0  0  0  0  0  0
   -2.9722   -2.7826    0.0000 C   0  0  0  0  0  0  0  0  0  0  0  0
   -4.2169   -2.0688    0.0000 C   0  0  0  0  0  0  0  0  0  0  0  0
    3.5584    2.1102    0.0000 C   0  0  0  0  0  0  0  0  0  0  0  0
   -3.3860   -3.4963    0.0000 C   0  0  0  0  0  0  0  0  0  0  0  0
   -4.6307   -2.7826    0.0000 C   0  0  0  0  0  0  0  0  0  0  0  0
   -4.2169   -3.4963    0.0000 C   0  0  0  0  0  0  0  0  0  0  0  0
  2  1  1  0  0  0  0
  3  1  1  0  0  0  0
  4  3  1  0  0  0  0
  4  5  1  0  0  0  0
  5  2  1  0  0  0  0
  6  1  1  0  0  0  0
  7  6  1  0  0  0  0
  8  7  1  0  0  0  0
  9 19  1  0  0  0  0
 10  4  2  0  0  0  0
 11 29  1  0  0  0  0
 12 11  3  0  0  0  0
 13  2  2  0  0  0  0
 14 22  2  0  0  0  0
 14 23  1  0  0  0  0
 15  3  2  0  0  0  0
 16 10  1  0  0  0  0
 17  8  1  0  0  0  0
 18  8  1  0  0  0  0
 19 18  1  0  0  0  0
 20 17  1  0  0  0  0
 20  9  1  0  0  0  0
 21  7  2  0  0  0  0
 22 16  1  0  0  0  0
 23 25  2  0  0  0  0
 24  9  1  0  0  0  0
 25 26  1  0  0  0  0
 26 16  2  0  0  0  0
 27 14  1  0  0  0  0
 28 23  1  0  0  0  0
 29 28  1  0  0  0  0
 30 24  1  0  0  0  0
 31 24  2  0  0  0  0
 32 27  1  0  0  0  0
 33 30  2  0  0  0  0
 33 35  1  0  0  0  0
 34 31  1  0  0  0  0
 35 34  2  0  0  0  0
M  END
> <CdId>
1832

> <Mol Weight>
491.559

> <Formula>
C26H25N3O5S

> <Click_ID>
CLK024_F07 __ __ 

$$$$
