CLK007_F06
 OpenBabel03181413202D

 24 26  0  0  0  0  0  0  0  0999 V2000
    0.8625   -0.1898    0.0000 C   0  0  3  0  0  0  0  0  0  0  0  0
    0.1484   -0.6037    0.0000 C   0  0  0  0  0  0  0  0  0  0  0  0
    0.8625    0.6348    0.0000 C   0  0  0  0  0  0  0  0  0  0  0  0
    1.5766   -0.5934    0.0000 C   0  0  0  0  0  0  0  0  0  0  0  0
    0.1484   -1.4214    0.0000 C   0  0  0  0  0  0  0  0  0  0  0  0
   -0.5624   -0.1829    0.0000 C   0  0  0  0  0  0  0  0  0  0  0  0
    1.5766    1.0419    0.0000 C   0  0  0  0  0  0  0  0  0  0  0  0
    0.1484    1.0419    0.0000 C   0  0  0  0  0  0  0  0  0  0  0  0
    1.5766   -1.4214    0.0000 C   0  0  0  0  0  0  0  0  0  0  0  0
   -0.5624   -1.8319    0.0000 N   0  0  0  0  0  0  0  0  0  0  0  0
    0.8625   -1.8319    0.0000 N   0  0  0  0  0  0  0  0  0  0  0  0
   -1.2661   -0.6037    0.0000 N   0  0  0  0  0  0  0  0  0  0  0  0
   -0.5624    0.6417    0.0000 O   0  0  0  0  0  0  0  0  0  0  0  0
    1.5766    1.8699    0.0000 C   0  0  0  0  0  0  0  0  0  0  0  0
    0.1380    1.8595    0.0000 C   0  0  0  0  0  0  0  0  0  0  0  0
    2.2873   -1.8319    0.0000 O   0  0  0  0  0  0  0  0  0  0  0  0
   -1.2661   -1.4283    0.0000 C   0  0  0  0  0  0  0  0  0  0  0  0
    0.8590    2.2804    0.0000 C   0  0  0  0  0  0  0  0  0  0  0  0
   -1.9906   -1.8423    0.0000 S   0  0  0  0  0  0  0  0  0  0  0  0
    0.8487    3.1084    0.0000 C   0  0  0  0  0  0  0  0  0  0  0  0
   -2.7013   -1.4283    0.0000 C   0  0  0  0  0  0  0  0  0  0  0  0
    1.5628    3.5224    0.0000 C   0  0  0  0  0  0  0  0  0  0  0  0
   -2.7013   -0.6037    0.0000 C   0  0  0  0  0  0  0  0  0  0  0  0
   -3.4154   -0.1898    0.0000 C   0  0  0  0  0  0  0  0  0  0  0  0
  1  2  1  0  0  0  0
  1  3  1  0  0  0  0
  1  4  1  0  0  0  0
  2  5  2  0  0  0  0
  2  6  1  0  0  0  0
  3  7  2  0  0  0  0
  3  8  1  0  0  0  0
  4  9  1  0  0  0  0
  5 10  1  0  0  0  0
  5 11  1  0  0  0  0
  6 12  1  0  0  0  0
  6 13  2  0  0  0  0
  7 14  1  0  0  0  0
  8 15  2  0  0  0  0
  9 16  2  0  0  0  0
  9 11  1  0  0  0  0
 10 17  2  0  0  0  0
 12 17  1  0  0  0  0
 14 18  2  0  0  0  0
 15 18  1  0  0  0  0
 17 19  1  0  0  0  0
 18 20  1  0  0  0  0
 19 21  1  0  0  0  0
 20 22  1  0  0  0  0
 21 23  1  0  0  0  0
 23 24  3  0  0  0  0
M  END
> <CdId>
535

> <Mol Weight>
339.411

> <Formula>
C18H17N3O2S

> <Click_ID>
CLK007_F06 __ __ 

$$$$
