CLK024_D03
 OpenBabel03181413202D

 29 32  0  0  0  0  0  0  0  0999 V2000
    1.4369    0.4537    0.0000 N    0  0  0  0  0  0  0  0  0  0  0  0
   -2.5677   -0.2303    0.0000 N    0  0  0  0  0  0  0  0  0  0  0  0
    0.0997    0.4640    0.0000 C    0  0  0  0  0  0  0  0  0  0  0  0
   -2.0899   -0.8937    0.0000 C    0  0  0  0  0  0  0  0  0  0  0  0
   -1.3028    0.1753    0.0000 C    0  0  0  0  0  0  0  0  0  0  0  0
    0.7699    0.9384    0.0000 C    0  0  0  0  0  0  0  0  0  0  0  0
   -2.0796    0.4296    0.0000 C    0  0  0  0  0  0  0  0  0  0  0  0
   -0.6806    0.7287    0.0000 C    0  0  0  0  0  0  0  0  0  0  0  0
   -1.3028   -0.6497    0.0000 S    0  0  0  0  0  0  0  0  0  0  0  0
    1.1756   -0.3368    0.0000 C    0  0  0  0  0  0  0  0  0  0  0  0
    0.3471   -0.3231    0.0000 C    0  0  0  0  0  0  0  0  0  0  0  0
    2.2240    0.6944    0.0000 C    0  0  0  0  0  0  0  0  0  0  0  0
    2.8255    0.1306    0.0000 C    0  0  0  0  0  0  0  0  0  0  0  0
   -3.8052   -0.9487    0.0000 C    0  0  0  0  0  0  0  0  0  0  0  0
   -4.2177   -1.6706    0.0000 C    0  0  0  0  0  0  0  0  0  0  0  0
   -2.3546   -1.6740    0.0000 O    0  0  0  0  0  0  0  0  0  0  0  0
   -2.3340    1.2271    0.0000 O    0  0  0  0  0  0  0  0  0  0  0  0
   -3.3927   -0.2372    0.0000 C    0  0  0  0  0  0  0  0  0  0  0  0
    3.6127    0.3781    0.0000 C    0  0  0  0  0  0  0  0  0  0  0  0
    0.7734    1.7668    0.0000 C    0  0  0  0  0  0  0  0  0  0  0  0
    3.8086    1.1824    0.0000 Cl   0  0  0  0  0  0  0  0  0  0  0  0
    1.5743   -1.0484    0.0000 C    0  0  0  0  0  0  0  0  0  0  0  0
   -0.0756   -1.0381    0.0000 C    0  0  0  0  0  0  0  0  0  0  0  0
    2.6364   -0.6703    0.0000 C    0  0  0  0  0  0  0  0  0  0  0  0
    4.2142   -0.1856    0.0000 C    0  0  0  0  0  0  0  0  0  0  0  0
    0.3335   -1.7565    0.0000 C    0  0  0  0  0  0  0  0  0  0  0  0
    1.1584   -1.7634    0.0000 C    0  0  0  0  0  0  0  0  0  0  0  0
    3.2449   -1.2340    0.0000 C    0  0  0  0  0  0  0  0  0  0  0  0
    4.0252   -0.9831    0.0000 C    0  0  0  0  0  0  0  0  0  0  0  0
  2  7  1  0  0  0  0
  2  4  1  0  0  0  0
  3  6  2  0  0  0  0
  4  9  1  0  0  0  0
  5  8  2  0  0  0  0
  6  1  1  0  0  0  0
  7  5  1  0  0  0  0
  8  3  1  0  0  0  0
  9  5  1  0  0  0  0
 10  1  1  0  0  0  0
 11 10  1  0  0  0  0
 11  3  1  0  0  0  0
 12  1  1  0  0  0  0
 13 12  1  0  0  0  0
 14 18  1  0  0  0  0
 15 14  3  0  0  0  0
 16  4  2  0  0  0  0
 17  7  2  0  0  0  0
 18  2  1  0  0  0  0
 19 13  1  0  0  0  0
 20  6  1  0  0  0  0
 21 19  1  0  0  0  0
 22 10  2  0  0  0  0
 23 11  2  0  0  0  0
 24 13  2  0  0  0  0
 25 19  2  0  0  0  0
 26 27  2  0  0  0  0
 26 23  1  0  0  0  0
 27 22  1  0  0  0  0
 28 24  1  0  0  0  0
 29 28  2  0  0  0  0
 29 25  1  0  0  0  0
M  END
> <CdId>
1808

> <Mol Weight>
420.911

> <Formula>
C23H17ClN2O2S

> <Click_ID>
CLK024_D03 __ __ 

$$$$
