CLK037G03
 OpenBabel03181413202D

 30 33  0  0  0  0  0  0  0  0999 V2000
    0.7250   -0.3500    0.0000 N    0  0  0  0  0  0  0  0  0  0  0  0
   -0.0292   -0.0125    0.0000 C    0  0  0  0  0  0  0  0  0  0  0  0
    1.2750    0.2625    0.0000 C    0  0  0  0  0  0  0  0  0  0  0  0
    0.0583    0.8083    0.0000 N    0  0  0  0  0  0  0  0  0  0  0  0
    0.8625    0.9792    0.0000 C    0  0  0  0  0  0  0  0  0  0  0  0
   -0.7417   -0.4250    0.0000 C    0  0  0  0  0  0  0  0  0  0  0  0
   -2.1708   -1.2500    0.0000 C    0  0  0  0  0  0  0  0  0  0  0  0
   -2.1708   -0.4250    0.0000 C    0  0  0  0  0  0  0  0  0  0  0  0
   -1.4583   -1.6625    0.0000 C    0  0  0  0  0  0  0  0  0  0  0  0
   -1.4583   -0.0125    0.0000 C    0  0  0  0  0  0  0  0  0  0  0  0
   -0.7417   -1.2500    0.0000 C    0  0  0  0  0  0  0  0  0  0  0  0
   -4.3167   -1.6625    0.0000 C    0  0  0  0  0  0  0  0  0  0  0  0
   -5.0292   -2.0750    0.0000 C    0  0  0  0  0  0  0  0  0  0  0  0
    2.0958    0.1792    0.0000 C    0  0  0  0  0  0  0  0  0  0  0  0
    1.2000    1.7333    0.0000 C    0  0  0  0  0  0  0  0  0  0  0  0
   -2.8875   -0.0125    0.0000 Cl   0  0  0  0  0  0  0  0  0  0  0  0
   -2.8875   -1.6625    0.0000 O    0  0  0  0  0  0  0  0  0  0  0  0
   -1.4583   -2.4875    0.0000 O    0  0  0  0  0  0  0  0  0  0  0  0
   -3.6000   -1.2500    0.0000 C    0  0  0  0  0  0  0  0  0  0  0  0
    0.7167    2.4000    0.0000 C    0  0  0  0  0  0  0  0  0  0  0  0
    2.0208    1.8167    0.0000 C    0  0  0  0  0  0  0  0  0  0  0  0
    2.4333   -0.5750    0.0000 C    0  0  0  0  0  0  0  0  0  0  0  0
    2.5833    0.8458    0.0000 C    0  0  0  0  0  0  0  0  0  0  0  0
   -0.7417   -2.9000    0.0000 C    0  0  0  0  0  0  0  0  0  0  0  0
    2.3542    2.5708    0.0000 C    0  0  0  0  0  0  0  0  0  0  0  0
    3.2542   -0.6625    0.0000 C    0  0  0  0  0  0  0  0  0  0  0  0
    3.4042    0.7583    0.0000 C    0  0  0  0  0  0  0  0  0  0  0  0
    1.0500    3.1542    0.0000 C    0  0  0  0  0  0  0  0  0  0  0  0
    1.8708    3.2375    0.0000 C    0  0  0  0  0  0  0  0  0  0  0  0
    3.7375    0.0042    0.0000 C    0  0  0  0  0  0  0  0  0  0  0  0
  2  1  2  0  0  0  0
  3  1  1  0  0  0  0
  4  2  1  0  0  0  0
  4  5  1  0  0  0  0
  5  3  2  0  0  0  0
  6  2  1  0  0  0  0
  7  8  1  0  0  0  0
  7  9  2  0  0  0  0
  8 10  2  0  0  0  0
  9 11  1  0  0  0  0
 10  6  1  0  0  0  0
 11  6  2  0  0  0  0
 12 19  1  0  0  0  0
 13 12  3  0  0  0  0
 14  3  1  0  0  0  0
 15  5  1  0  0  0  0
 16  8  1  0  0  0  0
 17  7  1  0  0  0  0
 18  9  1  0  0  0  0
 19 17  1  0  0  0  0
 20 15  2  0  0  0  0
 21 15  1  0  0  0  0
 22 14  1  0  0  0  0
 23 14  2  0  0  0  0
 24 18  1  0  0  0  0
 25 21  2  0  0  0  0
 26 22  2  0  0  0  0
 27 23  1  0  0  0  0
 28 20  1  0  0  0  0
 29 28  2  0  0  0  0
 29 25  1  0  0  0  0
 30 27  2  0  0  0  0
 30 26  1  0  0  0  0
M  END
> <CdId>
2783

> <Mol Weight>
414.884

> <Formula>
C25H19ClN2O2

> <Click_ID>
CLK037G03 __ __ 

$$$$
