CLK016_G08
 OpenBabel03181413202D

 28 30  0  0  0  0  0  0  0  0999 V2000
    5.9231   -1.2154    0.0000 N   0  0  0  0  0  0  0  0  0  0  0  0
    5.7982   -2.0354    0.0000 C   0  0  0  0  0  0  0  0  0  0  0  0
    5.1863   -0.8408    0.0000 C   0  0  0  0  0  0  0  0  0  0  0  0
    4.5995   -1.4277    0.0000 C   0  0  0  0  0  0  0  0  0  0  0  0
    4.9741   -2.1645    0.0000 S   0  0  0  0  0  0  0  0  0  0  0  0
    3.7878   -1.2904    0.0000 C   0  0  0  0  0  0  0  0  0  0  0  0
    6.6598   -0.8491    0.0000 C   0  0  0  0  0  0  0  0  0  0  0  0
    6.3726   -2.6223    0.0000 S   0  0  0  0  0  0  0  0  0  0  0  0
    1.4860   -5.2820    0.0000 C   0  0  0  0  0  0  0  0  0  0  0  0
    0.9657   -5.9106    0.0000 C   0  0  0  0  0  0  0  0  0  0  0  0
    1.9272   -2.4475    0.0000 C   0  0  0  0  0  0  0  0  0  0  0  0
    5.0615   -0.0292    0.0000 O   0  0  0  0  0  0  0  0  0  0  0  0
    3.2716   -1.9355    0.0000 C   0  0  0  0  0  0  0  0  0  0  0  0
    2.4517   -1.8023    0.0000 C   0  0  0  0  0  0  0  0  0  0  0  0
    2.2269   -3.2217    0.0000 C   0  0  0  0  0  0  0  0  0  0  0  0
    3.0386   -3.3507    0.0000 C   0  0  0  0  0  0  0  0  0  0  0  0
    6.7098   -0.0250    0.0000 C   0  0  0  0  0  0  0  0  0  0  0  0
    3.5630   -2.7097    0.0000 C   0  0  0  0  0  0  0  0  0  0  0  0
    1.1155   -2.3143    0.0000 O   0  0  0  0  0  0  0  0  0  0  0  0
    1.7024   -3.8627    0.0000 O   0  0  0  0  0  0  0  0  0  0  0  0
    7.4465    0.3454    0.0000 C   0  0  0  0  0  0  0  0  0  0  0  0
    2.0021   -4.6327    0.0000 C   0  0  0  0  0  0  0  0  0  0  0  0
    0.5911   -2.9594    0.0000 C   0  0  0  0  0  0  0  0  0  0  0  0
    7.4840    1.1696    0.0000 C   0  0  0  0  0  0  0  0  0  0  0  0
    8.1291   -0.1041    0.0000 C   0  0  0  0  0  0  0  0  0  0  0  0
    8.2207    1.5359    0.0000 C   0  0  0  0  0  0  0  0  0  0  0  0
    8.8576    0.2622    0.0000 C   0  0  0  0  0  0  0  0  0  0  0  0
    8.9075    1.0822    0.0000 C   0  0  0  0  0  0  0  0  0  0  0  0
  2  1  1  0  0  0  0
  3  1  1  0  0  0  0
  4  3  1  0  0  0  0
  5  2  1  0  0  0  0
  5  4  1  0  0  0  0
  6  4  2  0  0  0  0
  7  1  1  0  0  0  0
  8  2  2  0  0  0  0
  9 22  1  0  0  0  0
 10  9  3  0  0  0  0
 11 14  1  0  0  0  0
 11 15  2  0  0  0  0
 12  3  2  0  0  0  0
 13  6  1  0  0  0  0
 14 13  2  0  0  0  0
 15 16  1  0  0  0  0
 16 18  2  0  0  0  0
 17  7  1  0  0  0  0
 18 13  1  0  0  0  0
 19 11  1  0  0  0  0
 20 15  1  0  0  0  0
 21 17  1  0  0  0  0
 22 20  1  0  0  0  0
 23 19  1  0  0  0  0
 24 21  1  0  0  0  0
 25 21  2  0  0  0  0
 26 24  2  0  0  0  0
 27 25  1  0  0  0  0
 28 27  2  0  0  0  0
 28 26  1  0  0  0  0
M  END
> <CdId>
1223

> <Mol Weight>
409.521

> <Formula>
C22H19NO3S2

> <Click_ID>
CLK016_G08 __ __ 

$$$$
