CLK037E10
 OpenBabel03181413202D

 30 32  0  0  0  0  0  0  0  0999 V2000
    1.2833    0.8833    0.0000 S   0  0  0  0  0  0  0  0  0  0  0  0
   -1.5750    0.8833    0.0000 C   0  0  0  0  0  0  0  0  0  0  0  0
   -0.8583    1.2958    0.0000 C   0  0  0  0  0  0  0  0  0  0  0  0
   -1.5750    2.5333    0.0000 N   0  0  0  0  0  0  0  0  0  0  0  0
   -2.2875    2.1208    0.0000 C   0  0  0  0  0  0  0  0  0  0  0  0
   -0.8583    2.1208    0.0000 C   0  0  0  0  0  0  0  0  0  0  0  0
    0.5708    1.2958    0.0000 C   0  0  0  0  0  0  0  0  0  0  0  0
   -2.2875    1.2958    0.0000 C   0  0  0  0  0  0  0  0  0  0  0  0
   -0.1458    0.8833    0.0000 C   0  0  0  0  0  0  0  0  0  0  0  0
   -1.5750    0.0583    0.0000 C   0  0  0  0  0  0  0  0  0  0  0  0
    2.0000    0.4708    0.0000 N   0  0  0  0  0  0  0  0  0  0  0  0
   -3.0042   -1.5917    0.0000 C   0  0  0  0  0  0  0  0  0  0  0  0
    1.6958    1.5958    0.0000 O   0  0  0  0  0  0  0  0  0  0  0  0
    0.8708    0.1667    0.0000 O   0  0  0  0  0  0  0  0  0  0  0  0
   -3.7167   -2.0042    0.0000 C   0  0  0  0  0  0  0  0  0  0  0  0
   -3.0042    2.5333    0.0000 O   0  0  0  0  0  0  0  0  0  0  0  0
   -0.1458    2.5333    0.0000 C   0  0  0  0  0  0  0  0  0  0  0  0
   -0.8583   -0.3542    0.0000 O   0  0  0  0  0  0  0  0  0  0  0  0
    0.5708    2.1208    0.0000 C   0  0  0  0  0  0  0  0  0  0  0  0
   -2.2875   -0.3542    0.0000 N   0  0  0  0  0  0  0  0  0  0  0  0
    2.0000   -0.3542    0.0000 C   0  0  0  0  0  0  0  0  0  0  0  0
    2.0000   -2.0042    0.0000 C   0  0  0  0  0  0  0  0  0  0  0  0
   -2.2875   -1.1792    0.0000 C   0  0  0  0  0  0  0  0  0  0  0  0
    2.7125   -0.7667    0.0000 C   0  0  0  0  0  0  0  0  0  0  0  0
    1.2833   -0.7667    0.0000 C   0  0  0  0  0  0  0  0  0  0  0  0
    2.7125   -1.5917    0.0000 C   0  0  0  0  0  0  0  0  0  0  0  0
    1.2833   -1.5917    0.0000 C   0  0  0  0  0  0  0  0  0  0  0  0
    2.0000   -2.8292    0.0000 O   0  0  0  0  0  0  0  0  0  0  0  0
    2.7125   -3.2417    0.0000 C   0  0  0  0  0  0  0  0  0  0  0  0
    2.7125   -4.0667    0.0000 C   0  0  0  0  0  0  0  0  0  0  0  0
  2  3  1  0  0  0  0
  3  9  1  0  0  0  0
  4  6  1  0  0  0  0
  5  4  1  0  0  0  0
  6  3  2  0  0  0  0
  6 17  1  0  0  0  0
  7  1  1  0  0  0  0
  8  2  2  0  0  0  0
  8  5  1  0  0  0  0
  9  7  2  0  0  0  0
 10  2  1  0  0  0  0
 11  1  1  0  0  0  0
 12 23  1  0  0  0  0
 13  1  2  0  0  0  0
 14  1  2  0  0  0  0
 15 12  3  0  0  0  0
 16  5  2  0  0  0  0
 17 19  2  0  0  0  0
 18 10  2  0  0  0  0
 19  7  1  0  0  0  0
 20 10  1  0  0  0  0
 21 11  1  0  0  0  0
 22 27  2  0  0  0  0
 23 20  1  0  0  0  0
 24 21  1  0  0  0  0
 25 21  2  0  0  0  0
 26 24  2  0  0  0  0
 26 22  1  0  0  0  0
 27 25  1  0  0  0  0
 28 22  1  0  0  0  0
 29 28  1  0  0  0  0
 30 29  1  0  0  0  0
M  END
> <CdId>
2837

> <Mol Weight>
425.458

> <Formula>
C21H19N3O5S

> <Click_ID>
CLK037E10 __ __ 

$$$$
