CLK037H09
 OpenBabel03181413202D

 27 28  0  0  0  0  0  0  0  0999 V2000
   -0.7046    1.7759    0.0000 C   0  0  0  0  0  0  0  0  0  0  0  0
   -1.4883    2.0303    0.0000 N   0  0  0  0  0  0  0  0  0  0  0  0
   -1.4883    0.6962    0.0000 C   0  0  0  0  0  0  0  0  0  0  0  0
   -0.0375    2.2595    0.0000 C   0  0  0  0  0  0  0  0  0  0  0  0
   -1.9760    1.3632    0.0000 C   0  0  0  0  0  0  0  0  0  0  0  0
   -0.7046    0.9505    0.0000 S   0  0  0  0  0  0  0  0  0  0  0  0
    0.7171    1.9260    0.0000 C   0  0  0  0  0  0  0  0  0  0  0  0
   -1.7426   -0.0917    0.0000 C   0  0  0  0  0  0  0  0  0  0  0  0
    0.7629   -3.9438    0.0000 C   0  0  0  0  0  0  0  0  0  0  0  0
    1.3132   -4.5566    0.0000 C   0  0  0  0  0  0  0  0  0  0  0  0
    0.1668   -1.1464    0.0000 C   0  0  0  0  0  0  0  0  0  0  0  0
    1.3840    2.4096    0.0000 C   0  0  0  0  0  0  0  0  0  0  0  0
   -1.1923   -0.7046    0.0000 C   0  0  0  0  0  0  0  0  0  0  0  0
   -2.8015    1.3632    0.0000 O   0  0  0  0  0  0  0  0  0  0  0  0
   -0.3835   -0.5336    0.0000 C   0  0  0  0  0  0  0  0  0  0  0  0
   -0.0875   -1.9302    0.0000 C   0  0  0  0  0  0  0  0  0  0  0  0
    0.8046    1.1048    0.0000 O   0  0  0  0  0  0  0  0  0  0  0  0
   -0.8963   -2.1011    0.0000 C   0  0  0  0  0  0  0  0  0  0  0  0
   -1.4466   -1.4883    0.0000 C   0  0  0  0  0  0  0  0  0  0  0  0
    0.9755   -0.9755    0.0000 O   0  0  0  0  0  0  0  0  0  0  0  0
    0.4669   -2.5430    0.0000 O   0  0  0  0  0  0  0  0  0  0  0  0
    0.2084   -3.3268    0.0000 C   0  0  0  0  0  0  0  0  0  0  0  0
    1.8718    1.7426    0.0000 C   0  0  0  0  0  0  0  0  0  0  0  0
    2.0553    2.8973    0.0000 C   0  0  0  0  0  0  0  0  0  0  0  0
    0.9005    3.0766    0.0000 C   0  0  0  0  0  0  0  0  0  0  0  0
    1.2298   -0.1876    0.0000 C   0  0  0  0  0  0  0  0  0  0  0  0
    2.0386   -0.0167    0.0000 C   0  0  0  0  0  0  0  0  0  0  0  0
  2  1  1  0  0  0  0
  3  6  1  0  0  0  0
  4  1  2  0  0  0  0
  5  2  1  0  0  0  0
  5  3  1  0  0  0  0
  6  1  1  0  0  0  0
  7  4  1  0  0  0  0
  8  3  2  0  0  0  0
  9 22  1  0  0  0  0
 10  9  3  0  0  0  0
 11 15  1  0  0  0  0
 12  7  1  0  0  0  0
 13  8  1  0  0  0  0
 14  5  2  0  0  0  0
 15 13  2  0  0  0  0
 16 18  1  0  0  0  0
 16 11  2  0  0  0  0
 17  7  2  0  0  0  0
 18 19  2  0  0  0  0
 19 13  1  0  0  0  0
 20 11  1  0  0  0  0
 21 16  1  0  0  0  0
 22 21  1  0  0  0  0
 23 12  1  0  0  0  0
 24 12  1  0  0  0  0
 25 12  1  0  0  0  0
 26 20  1  0  0  0  0
 27 26  1  0  0  0  0
M  END
> <CdId>
2832

> <Mol Weight>
385.477

> <Formula>
C21H23NO4S

> <Click_ID>
CLK037H09 __ __ 

$$$$
