CLK029_E04
 OpenBabel03181413202D

 29 31  0  0  0  0  0  0  0  0999 V2000
   -1.1734    0.9646    0.0000 C   0  0  0  0  0  0  0  0  0  0  0  0
   -1.6619    0.2964    0.0000 N   0  0  0  0  0  0  0  0  0  0  0  0
   -0.3466    0.9646    0.0000 N   0  0  0  0  0  0  0  0  0  0  0  0
   -1.6619    1.6369    0.0000 S   0  0  0  0  0  0  0  0  0  0  0  0
    3.0358    2.6516    0.0000 N   0  0  0  0  0  0  0  0  0  0  0  0
   -2.4512    0.5512    0.0000 C   0  0  0  0  0  0  0  0  0  0  0  0
   -2.4512    1.3780    0.0000 C   0  0  0  0  0  0  0  0  0  0  0  0
    2.2549    2.4303    0.0000 C   0  0  0  0  0  0  0  0  0  0  0  0
   -0.1336    1.7664    0.0000 C   0  0  0  0  0  0  0  0  0  0  0  0
   -0.6013   -0.6556    0.0000 C   0  0  0  0  0  0  0  0  0  0  0  0
   -0.0501   -0.0418    0.0000 C   0  0  0  0  0  0  0  0  0  0  0  0
    3.6246    2.0879    0.0000 C   0  0  0  0  0  0  0  0  0  0  0  0
    3.2446    3.4533    0.0000 C   0  0  0  0  0  0  0  0  0  0  0  0
    2.0336    1.6243    0.0000 O   0  0  0  0  0  0  0  0  0  0  0  0
   -1.4031   -0.4802    0.0000 C   0  0  0  0  0  0  0  0  0  0  0  0
   -0.7224    2.3509    0.0000 O   0  0  0  0  0  0  0  0  0  0  0  0
    4.0338    3.6788    0.0000 C   0  0  3  0  0  0  0  0  0  0  0  0
    4.4264    2.3008    0.0000 C   0  0  3  0  0  0  0  0  0  0  0  0
    0.8686    2.7894    0.0000 S   0  0  0  0  0  0  0  0  0  0  0  0
    4.6268    3.1026    0.0000 C   0  0  0  0  0  0  0  0  0  0  0  0
    1.6661    3.0066    0.0000 C   0  0  0  0  0  0  0  0  0  0  0  0
    0.6556    1.9876    0.0000 C   0  0  0  0  0  0  0  0  0  0  0  0
   -3.1652    0.1461    0.0000 C   0  0  0  0  0  0  0  0  0  0  0  0
   -3.1652    1.7997    0.0000 C   0  0  0  0  0  0  0  0  0  0  0  0
    4.2342    4.4723    0.0000 C   0  0  0  0  0  0  0  0  0  0  0  0
    5.0109    1.7246    0.0000 C   0  0  0  0  0  0  0  0  0  0  0  0
   -3.8710    0.5512    0.0000 C   0  0  0  0  0  0  0  0  0  0  0  0
   -3.8710    1.3780    0.0000 C   0  0  0  0  0  0  0  0  0  0  0  0
   -4.5933    1.7872    0.0000 H   0  0  0  0  0  0  0  0  0  0  0  0
  2  1  1  0  0  0  0
  3  1  2  0  0  0  0
  4  1  1  0  0  0  0
  5  8  1  0  0  0  0
  6  2  1  0  0  0  0
  7  4  1  0  0  0  0
  7  6  2  0  0  0  0
  8 21  1  0  0  0  0
  9  3  1  0  0  0  0
 10 15  1  0  0  0  0
 11 10  3  0  0  0  0
 12  5  1  0  0  0  0
 13  5  1  0  0  0  0
 14  8  2  0  0  0  0
 15  2  1  0  0  0  0
 16  9  2  0  0  0  0
 17 13  1  0  0  0  0
 18 12  1  0  0  0  0
 18 20  1  0  0  0  0
 19 22  1  0  0  0  0
 20 17  1  0  0  0  0
 21 19  1  0  0  0  0
 22  9  1  0  0  0  0
 23  6  1  0  0  0  0
 24  7  1  0  0  0  0
 25 17  1  0  0  0  0
 26 18  1  0  0  0  0
 27 23  2  0  0  0  0
 28 24  2  0  0  0  0
 28 27  1  0  0  0  0
 29 28  1  0  0  0  0
M  END
> <CdId>
2208

> <Mol Weight>
415.572

> <Formula>
C21H25N3O2S2

> <Click_ID>
CLK029_E04 __ __ 

$$$$
