CLK040G11
 OpenBabel03181413202D

 15 15  0  0  0  0  0  0  0  0999 V2000
    1.8256   -0.2293    0.0000 N   0  0  0  0  0  0  0  0  0  0  0  0
    1.0671    0.0958    0.0000 C   0  0  0  0  0  0  0  0  0  0  0  0
    1.1462    0.9211    0.0000 N   0  0  0  0  0  0  0  0  0  0  0  0
    1.9507    1.1004    0.0000 N   0  0  0  0  0  0  0  0  0  0  0  0
    2.3716    0.3918    0.0000 C   0  0  0  0  0  0  0  0  0  0  0  0
    0.3584   -0.3209    0.0000 S   0  0  0  0  0  0  0  0  0  0  0  0
   -3.2219    0.0500    0.0000 C   0  0  0  0  0  0  0  0  0  0  0  0
   -3.9389    0.4544    0.0000 C   0  0  0  0  0  0  0  0  0  0  0  0
   -1.0712   -0.3376    0.0000 C   0  0  0  0  0  0  0  0  0  0  0  0
   -1.0629   -1.1629    0.0000 O   0  0  0  0  0  0  0  0  0  0  0  0
   -0.3626    0.0833    0.0000 C   0  0  0  0  0  0  0  0  0  0  0  0
   -1.7923    0.0667    0.0000 N   0  0  0  0  0  0  0  0  0  0  0  0
    2.0049   -1.0337    0.0000 C   0  0  0  0  0  0  0  0  0  0  0  0
   -2.5009   -0.3543    0.0000 C   0  0  0  0  0  0  0  0  0  0  0  0
    3.1928    0.3126    0.0000 C   0  0  0  0  0  0  0  0  0  0  0  0
  2  1  1  0  0  0  0
  3  2  2  0  0  0  0
  3  4  1  0  0  0  0
  4  5  2  0  0  0  0
  5  1  1  0  0  0  0
  6  2  1  0  0  0  0
  7 14  1  0  0  0  0
  8  7  3  0  0  0  0
  9 11  1  0  0  0  0
 10  9  2  0  0  0  0
 11  6  1  0  0  0  0
 12  9  1  0  0  0  0
 13  1  1  0  0  0  0
 14 12  1  0  0  0  0
 15  5  1  0  0  0  0
M  END
> <CdId>
3087

> <Mol Weight>
224.283

> <Formula>
C9H12N4OS

> <Click_ID>
CLK040G11 __ __ 

$$$$
