CLK035_C03
 OpenBabel03181413202D

 25 27  0  0  0  0  0  0  0  0999 V2000
   -4.5833    2.5500    0.0000 C   0  0  0  0  0  0  0  0  0  0  0  0
   -3.8708    2.9708    0.0000 N   0  0  0  0  0  0  0  0  0  0  0  0
   -4.6833    1.7333    0.0000 N   0  0  0  0  0  0  0  0  0  0  0  0
   -5.3208    2.8958    0.0000 S   0  0  0  0  0  0  0  0  0  0  0  0
   -3.8708    3.8000    0.0000 C   0  0  0  0  0  0  0  0  0  0  0  0
   -5.4875    1.5750    0.0000 C   0  0  0  0  0  0  0  0  0  0  0  0
   -5.8958    2.2958    0.0000 C   0  0  0  0  0  0  0  0  0  0  0  0
   -3.1583    4.2125    0.0000 C   0  0  0  0  0  0  0  0  0  0  0  0
   -4.2500    0.3500    0.0000 C   0  0  0  0  0  0  0  0  0  0  0  0
   -4.4333   -0.4625    0.0000 C   0  0  0  0  0  0  0  0  0  0  0  0
   -3.1500    5.0167    0.0000 C   0  0  0  0  0  0  0  0  0  0  0  0
   -5.9125    0.8708    0.0000 C   0  0  0  0  0  0  0  0  0  0  0  0
   -4.5958    4.2042    0.0000 O   0  0  0  0  0  0  0  0  0  0  0  0
   -4.0625    1.1583    0.0000 C   0  0  0  0  0  0  0  0  0  0  0  0
   -3.8750    5.4417    0.0000 F   0  0  0  0  0  0  0  0  0  0  0  0
   -6.7042    2.3125    0.0000 C   0  0  0  0  0  0  0  0  0  0  0  0
   -2.4333    3.8000    0.0000 C   0  0  0  0  0  0  0  0  0  0  0  0
   -5.5208    0.1375    0.0000 O   0  0  0  0  0  0  0  0  0  0  0  0
   -7.1417    1.6083    0.0000 C   0  0  0  0  0  0  0  0  0  0  0  0
   -6.7292    0.8833    0.0000 C   0  0  0  0  0  0  0  0  0  0  0  0
   -2.4375    5.4417    0.0000 C   0  0  0  0  0  0  0  0  0  0  0  0
   -5.9458   -0.5667    0.0000 C   0  0  0  0  0  0  0  0  0  0  0  0
   -1.7208    4.2042    0.0000 C   0  0  0  0  0  0  0  0  0  0  0  0
   -5.5625   -1.2792    0.0000 C   0  0  0  0  0  0  0  0  0  0  0  0
   -1.7250    5.0292    0.0000 C   0  0  0  0  0  0  0  0  0  0  0  0
  2  1  2  0  0  0  0
  3  1  1  0  0  0  0
  4  1  1  0  0  0  0
  5  2  1  0  0  0  0
  6  3  1  0  0  0  0
  7  4  1  0  0  0  0
  7  6  2  0  0  0  0
  8  5  1  0  0  0  0
  9 14  1  0  0  0  0
 10  9  3  0  0  0  0
 11  8  1  0  0  0  0
 12  6  1  0  0  0  0
 13  5  2  0  0  0  0
 14  3  1  0  0  0  0
 15 11  1  0  0  0  0
 16  7  1  0  0  0  0
 17  8  2  0  0  0  0
 18 12  1  0  0  0  0
 19 16  2  0  0  0  0
 20 12  2  0  0  0  0
 20 19  1  0  0  0  0
 21 11  2  0  0  0  0
 22 18  1  0  0  0  0
 23 17  1  0  0  0  0
 24 22  1  0  0  0  0
 25 23  2  0  0  0  0
 25 21  1  0  0  0  0
M  END
> <CdId>
2667

> <Mol Weight>
354.398

> <Formula>
C19H15FN2O2S

> <Click_ID>
CLK035_C03 __ __ 

$$$$
