CLK001_A05
 OpenBabel03181413202D

 18 20  0  0  0  0  0  0  0  0999 V2000
    0.3093    0.2225    0.0000 C   0  0  0  0  0  0  0  0  0  0  0  0
   -0.1810   -0.4375    0.0000 N   0  0  0  0  0  0  0  0  0  0  0  0
    1.1276    0.2225    0.0000 C   0  0  0  0  0  0  0  0  0  0  0  0
   -0.1810    0.8901    0.0000 N   0  0  0  0  0  0  0  0  0  0  0  0
   -0.9617   -0.1924    0.0000 C   0  0  0  0  0  0  0  0  0  0  0  0
    0.0755   -1.2257    0.0000 C   0  0  0  0  0  0  0  0  0  0  0  0
    2.0026    1.0974    0.0000 C   0  0  0  0  0  0  0  0  0  0  0  0
    1.5689   -0.2451    0.0000 N   0  0  0  0  0  0  0  0  0  0  0  0
   -0.9617    0.6336    0.0000 C   0  0  0  0  0  0  0  0  0  0  0  0
   -1.6820   -0.6034    0.0000 C   0  0  0  0  0  0  0  0  0  0  0  0
   -0.4714   -1.8330    0.0000 C   0  0  0  0  0  0  0  0  0  0  0  0
    2.5080    0.5921    0.0000 N   0  0  0  0  0  0  0  0  0  0  0  0
    2.0026    1.9197    0.0000 N   0  0  0  0  0  0  0  0  0  0  0  0
    2.3232   -0.0943    0.0000 O   0  0  0  0  0  0  0  0  0  0  0  0
   -1.6820    1.0523    0.0000 C   0  0  0  0  0  0  0  0  0  0  0  0
   -2.3835   -0.1924    0.0000 C   0  0  0  0  0  0  0  0  0  0  0  0
   -1.0258   -2.4439    0.0000 C   0  0  0  0  0  0  0  0  0  0  0  0
   -2.3835    0.6336    0.0000 C   0  0  0  0  0  0  0  0  0  0  0  0
  1  2  1  0  0  0  0
  1  3  1  0  0  0  0
  1  4  2  0  0  0  0
  2  5  1  0  0  0  0
  2  6  1  0  0  0  0
  3  7  1  0  0  0  0
  3  8  2  0  0  0  0
  4  9  1  0  0  0  0
  5 10  1  0  0  0  0
  5  9  2  0  0  0  0
  6 11  1  0  0  0  0
  7 12  2  0  0  0  0
  7 13  1  0  0  0  0
  8 14  1  0  0  0  0
  9 15  1  0  0  0  0
 10 16  2  0  0  0  0
 11 17  3  0  0  0  0
 12 14  1  0  0  0  0
 15 18  2  0  0  0  0
 16 18  1  0  0  0  0
M  END
> <CdId>
4

> <Mol Weight>
239.2328

> <Formula>
C12H9N5O

> <Click_ID>
CLK001_A05 __ __ 

$$$$
