CLK049F06
 OpenBabel03181413202D

 17 18  0  0  0  0  0  0  0  0999 V2000
    0.4583   -0.9917    0.0000 N   0  0  0  0  0  0  0  0  0  0  0  0
    0.4583   -0.1667    0.0000 C   0  0  0  0  0  0  0  0  0  0  0  0
   -0.2542   -1.4042    0.0000 C   0  0  0  0  0  0  0  0  0  0  0  0
   -0.2542    0.2458    0.0000 C   0  0  0  0  0  0  0  0  0  0  0  0
    1.1750    0.2458    0.0000 C   0  0  0  0  0  0  0  0  0  0  0  0
   -0.9667   -0.1667    0.0000 C   0  0  0  0  0  0  0  0  0  0  0  0
   -0.9667   -0.9917    0.0000 C   0  0  0  0  0  0  0  0  0  0  0  0
    1.8875    2.3083    0.0000 C   0  0  0  0  0  0  0  0  0  0  0  0
    1.8875    3.1333    0.0000 C   0  0  0  0  0  0  0  0  0  0  0  0
   -0.2542   -2.2292    0.0000 O   0  0  0  0  0  0  0  0  0  0  0  0
    1.8875   -0.1667    0.0000 O   0  0  0  0  0  0  0  0  0  0  0  0
    1.1750    1.0708    0.0000 N   0  0  0  0  0  0  0  0  0  0  0  0
    1.8875    1.4833    0.0000 C   0  0  0  0  0  0  0  0  0  0  0  0
   -1.6833    0.2458    0.0000 C   0  0  0  0  0  0  0  0  0  0  0  0
   -1.6833   -1.4042    0.0000 C   0  0  0  0  0  0  0  0  0  0  0  0
   -2.3958   -0.1667    0.0000 C   0  0  0  0  0  0  0  0  0  0  0  0
   -2.3958   -0.9917    0.0000 C   0  0  0  0  0  0  0  0  0  0  0  0
  2  1  1  0  0  0  0
  3  1  1  0  0  0  0
  4  2  2  0  0  0  0
  5  2  1  0  0  0  0
  6  4  1  0  0  0  0
  7  3  1  0  0  0  0
  7  6  2  0  0  0  0
  8 13  1  0  0  0  0
  9  8  3  0  0  0  0
 10  3  2  0  0  0  0
 11  5  2  0  0  0  0
 12  5  1  0  0  0  0
 13 12  1  0  0  0  0
 14  6  1  0  0  0  0
 15  7  1  0  0  0  0
 16 14  2  0  0  0  0
 17 15  2  0  0  0  0
 17 16  1  0  0  0  0
M  END
> <CdId>
3766

> <Mol Weight>
226.2307

> <Formula>
C13H10N2O2

> <Click_ID>
CLK049F06 __ __ 

$$$$
