CLK016_D06
 OpenBabel03181413202D

 29 31  0  0  0  0  0  0  0  0999 V2000
    6.0492   -3.1896    0.0000 N   0  0  0  0  0  0  0  0  0  0  0  0
    4.8165   -2.4655    0.0000 C   0  0  0  0  0  0  0  0  0  0  0  0
    5.6413   -2.4747    0.0000 C   0  0  0  0  0  0  0  0  0  0  0  0
    5.6230   -3.9045    0.0000 C   0  0  0  0  0  0  0  0  0  0  0  0
    4.7981   -3.8907    0.0000 N   0  0  0  0  0  0  0  0  0  0  0  0
    4.3994   -3.1667    0.0000 C   0  0  0  0  0  0  0  0  0  0  0  0
    9.3487   -3.2308    0.0000 N   0  3  0  0  0  0  0  0  0  0  0  0
    4.4178   -1.7460    0.0000 C   0  0  0  0  0  0  0  0  0  0  0  0
    6.8740   -3.1942    0.0000 C   0  0  0  0  0  0  0  0  0  0  0  0
    8.5238   -3.2217    0.0000 C   0  0  0  0  0  0  0  0  0  0  0  0
   -0.1329   -2.3922    0.0000 C   0  0  0  0  0  0  0  0  0  0  0  0
    6.0263   -4.6240    0.0000 O   0  0  0  0  0  0  0  0  0  0  0  0
   -0.5499   -3.0979    0.0000 C   0  0  0  0  0  0  0  0  0  0  0  0
    6.0629   -1.7644    0.0000 O   0  0  0  0  0  0  0  0  0  0  0  0
    9.7520   -3.9503    0.0000 O   0  5  0  0  0  0  0  0  0  0  0  0
    9.7658   -2.5205    0.0000 O   0  0  0  0  0  0  0  0  0  0  0  0
    3.5745   -3.1621    0.0000 O   0  0  0  0  0  0  0  0  0  0  0  0
    7.2774   -3.9182    0.0000 C   0  0  0  0  0  0  0  0  0  0  0  0
    7.2911   -2.4930    0.0000 C   0  0  0  0  0  0  0  0  0  0  0  0
    8.1022   -3.9320    0.0000 C   0  0  0  0  0  0  0  0  0  0  0  0
    8.1160   -2.5022    0.0000 C   0  0  0  0  0  0  0  0  0  0  0  0
    3.5929   -1.7323    0.0000 C   0  0  0  0  0  0  0  0  0  0  0  0
    1.9431   -1.7094    0.0000 C   0  0  0  0  0  0  0  0  0  0  0  0
    3.1942   -1.0082    0.0000 C   0  0  0  0  0  0  0  0  0  0  0  0
    3.1667   -2.4380    0.0000 C   0  0  0  0  0  0  0  0  0  0  0  0
    2.3693   -0.9945    0.0000 C   0  0  0  0  0  0  0  0  0  0  0  0
    2.3418   -2.4243    0.0000 C   0  0  0  0  0  0  0  0  0  0  0  0
    0.6920   -2.4059    0.0000 C   0  0  0  0  0  0  0  0  0  0  0  0
    1.1182   -1.6956    0.0000 O   0  0  0  0  0  0  0  0  0  0  0  0
  2  3  1  0  0  0  0
  3  1  1  0  0  0  0
  4  1  1  0  0  0  0
  5  4  1  0  0  0  0
  6  5  1  0  0  0  0
  6  2  1  0  0  0  0
  7 10  1  0  0  0  0
  8  2  2  0  0  0  0
  9  1  1  0  0  0  0
 10 21  2  0  0  0  0
 10 20  1  0  0  0  0
 11 28  1  0  0  0  0
 12  4  2  0  0  0  0
 13 11  3  0  0  0  0
 14  3  2  0  0  0  0
 15  7  1  0  0  0  0
 16  7  2  0  0  0  0
 17  6  2  0  0  0  0
 18  9  1  0  0  0  0
 19  9  2  0  0  0  0
 20 18  2  0  0  0  0
 21 19  1  0  0  0  0
 22  8  1  0  0  0  0
 23 27  2  0  0  0  0
 23 26  1  0  0  0  0
 24 22  1  0  0  0  0
 25 22  2  0  0  0  0
 26 24  2  0  0  0  0
 27 25  1  0  0  0  0
 28 29  1  0  0  0  0
 29 23  1  0  0  0  0
M  END
> <CdId>
1191

> <Mol Weight>
391.3337

> <Formula>
C20H13N3O6

> <Click_ID>
CLK016_D06 __ __ 

$$$$
