CLK031_F03
 OpenBabel03181413202D

 27 29  0  0  0  0  0  0  0  0999 V2000
   -1.1649    2.3882    0.0000 C    0  0  0  0  0  0  0  0  0  0  0  0
   -0.3382    2.3799    0.0000 N    0  0  0  0  0  0  0  0  0  0  0  0
   -4.5928    3.2192    0.0000 S    0  0  0  0  0  0  0  0  0  0  0  0
   -1.6492    1.7244    0.0000 N    0  0  0  0  0  0  0  0  0  0  0  0
   -1.6492    3.0563    0.0000 S    0  0  0  0  0  0  0  0  0  0  0  0
    0.0752    3.0939    0.0000 C    0  0  0  0  0  0  0  0  0  0  0  0
    0.9019    3.0939    0.0000 C    0  0  0  0  0  0  0  0  0  0  0  0
   -2.4383    2.8016    0.0000 C    0  0  0  0  0  0  0  0  0  0  0  0
   -2.4383    1.9749    0.0000 C    0  0  0  0  0  0  0  0  0  0  0  0
   -3.8663    2.8016    0.0000 C    0  0  0  0  0  0  0  0  0  0  0  0
   -3.1523    3.2149    0.0000 C    0  0  0  0  0  0  0  0  0  0  0  0
   -1.9498    0.3215    0.0000 C    0  0  0  0  0  0  0  0  0  0  0  0
   -3.1523    1.5615    0.0000 C    0  0  0  0  0  0  0  0  0  0  0  0
   -2.5010   -0.2923    0.0000 C    0  0  0  0  0  0  0  0  0  0  0  0
    1.3152    2.3757    0.0000 C    0  0  0  0  0  0  0  0  0  0  0  0
   -4.1544    3.9164    0.0000 O    0  0  0  0  0  0  0  0  0  0  0  0
   -5.0312    2.5135    0.0000 O    0  0  0  0  0  0  0  0  0  0  0  0
    1.3152    3.8079    0.0000 C    0  0  0  0  0  0  0  0  0  0  0  0
   -0.3382    3.8079    0.0000 O    0  0  0  0  0  0  0  0  0  0  0  0
   -5.2942    3.6534    0.0000 N    0  0  0  0  0  0  0  0  0  0  0  0
   -3.8663    1.9749    0.0000 C    0  0  0  0  0  0  0  0  0  0  0  0
   -1.3987    0.9352    0.0000 C    0  0  0  0  0  0  0  0  0  0  0  0
    2.1336    2.3757    0.0000 C    0  0  0  0  0  0  0  0  0  0  0  0
    2.1336    3.8079    0.0000 C    0  0  0  0  0  0  0  0  0  0  0  0
    0.8893    1.6617    0.0000 Cl   0  0  0  0  0  0  0  0  0  0  0  0
    2.5553    3.0939    0.0000 C    0  0  0  0  0  0  0  0  0  0  0  0
    2.5553    4.5219    0.0000 Cl   0  0  0  0  0  0  0  0  0  0  0  0
  2  1  2  0  0  0  0
  3 10  1  0  0  0  0
  4  1  1  0  0  0  0
  5  1  1  0  0  0  0
  6  2  1  0  0  0  0
  7  6  1  0  0  0  0
  8  5  1  0  0  0  0
  8  9  2  0  0  0  0
  9  4  1  0  0  0  0
 10 11  2  0  0  0  0
 10 21  1  0  0  0  0
 11  8  1  0  0  0  0
 12 22  1  0  0  0  0
 13  9  1  0  0  0  0
 14 12  3  0  0  0  0
 15  7  2  0  0  0  0
 16  3  2  0  0  0  0
 17  3  2  0  0  0  0
 18  7  1  0  0  0  0
 19  6  2  0  0  0  0
 20  3  1  0  0  0  0
 21 13  2  0  0  0  0
 22  4  1  0  0  0  0
 23 15  1  0  0  0  0
 24 18  2  0  0  0  0
 25 15  1  0  0  0  0
 26 24  1  0  0  0  0
 26 23  2  0  0  0  0
 27 24  1  0  0  0  0
M  END
> <CdId>
2377

> <Mol Weight>
440.324

> <Formula>
C17H11Cl2N3O3S2

> <Click_ID>
CLK031_F03 __ __ 

$$$$
