CLK040G06
 OpenBabel03181413202D

 23 24  0  0  0  0  0  0  0  0999 V2000
   -0.9667    2.5292    0.0000 C   0  0  0  0  0  0  0  0  0  0  0  0
   -0.9667    1.7042    0.0000 N   0  0  0  0  0  0  0  0  0  0  0  0
   -0.2500   -1.1833    0.0000 C   0  0  0  0  0  0  0  0  0  0  0  0
   -0.9667    0.0542    0.0000 N   0  0  0  0  0  0  0  0  0  0  0  0
    0.4625    4.1750    0.0000 C   0  0  0  0  0  0  0  0  0  0  0  0
    1.1792    4.5875    0.0000 C   0  0  0  0  0  0  0  0  0  0  0  0
   -0.2500   -2.0083    0.0000 N   0  0  0  0  0  0  0  0  0  0  0  0
   -1.6792    2.9417    0.0000 O   0  0  0  0  0  0  0  0  0  0  0  0
   -0.2500    1.2917    0.0000 C   0  0  0  0  0  0  0  0  0  0  0  0
   -1.6792    1.2917    0.0000 C   0  0  0  0  0  0  0  0  0  0  0  0
   -0.9667   -0.7708    0.0000 C   0  0  0  0  0  0  0  0  0  0  0  0
    0.4625   -2.4208    0.0000 C   0  0  0  0  0  0  0  0  0  0  0  0
    0.4625   -0.7708    0.0000 O   0  0  0  0  0  0  0  0  0  0  0  0
    0.4625   -3.2458    0.0000 C   0  0  0  0  0  0  0  0  0  0  0  0
   -0.2500    2.9417    0.0000 N   0  0  0  0  0  0  0  0  0  0  0  0
   -0.2500    0.4667    0.0000 C   0  0  0  0  0  0  0  0  0  0  0  0
   -1.6792    0.4667    0.0000 C   0  0  0  0  0  0  0  0  0  0  0  0
    1.1792   -3.6583    0.0000 C   0  0  0  0  0  0  0  0  0  0  0  0
    1.1792   -4.4833    0.0000 F   0  0  0  0  0  0  0  0  0  0  0  0
   -0.2500    3.7667    0.0000 C   0  0  0  0  0  0  0  0  0  0  0  0
    1.8917   -2.4208    0.0000 C   0  0  0  0  0  0  0  0  0  0  0  0
    1.1792   -2.0083    0.0000 C   0  0  0  0  0  0  0  0  0  0  0  0
    1.8917   -3.2458    0.0000 C   0  0  0  0  0  0  0  0  0  0  0  0
  2  1  1  0  0  0  0
  3 11  1  0  0  0  0
  4 17  1  0  0  0  0
  5 20  1  0  0  0  0
  6  5  3  0  0  0  0
  7  3  1  0  0  0  0
  8  1  2  0  0  0  0
  9  2  1  0  0  0  0
 10  2  1  0  0  0  0
 11  4  1  0  0  0  0
 12  7  1  0  0  0  0
 13  3  2  0  0  0  0
 14 12  1  0  0  0  0
 15  1  1  0  0  0  0
 16  9  1  0  0  0  0
 16  4  1  0  0  0  0
 17 10  1  0  0  0  0
 18 14  2  0  0  0  0
 19 18  1  0  0  0  0
 20 15  1  0  0  0  0
 21 22  1  0  0  0  0
 21 23  2  0  0  0  0
 22 12  2  0  0  0  0
 23 18  1  0  0  0  0
M  END
> <CdId>
3047

> <Mol Weight>
318.3461

> <Formula>
C16H19FN4O2

> <Click_ID>
CLK040G06 __ __ 

$$$$
