CLK040B10
 OpenBabel03181413202D

 22 22  0  0  0  0  0  0  0  0999 V2000
   -1.1375    1.8208    0.0000 S   0  0  0  0  0  0  0  0  0  0  0  0
   -0.4250    1.4083    0.0000 C   0  0  0  0  0  0  0  0  0  0  0  0
    0.2917   -0.6542    0.0000 C   0  0  0  0  0  0  0  0  0  0  0  0
    1.0042   -1.0667    0.0000 N   0  0  0  0  0  0  0  0  0  0  0  0
   -1.8542    2.2333    0.0000 N   0  0  0  0  0  0  0  0  0  0  0  0
    1.0042   -2.7167    0.0000 C   0  0  0  0  0  0  0  0  0  0  0  0
    0.2917    0.1708    0.0000 C   0  0  0  0  0  0  0  0  0  0  0  0
   -0.4250    0.5833    0.0000 C   0  0  0  0  0  0  0  0  0  0  0  0
   -1.5500    1.1083    0.0000 O   0  0  0  0  0  0  0  0  0  0  0  0
   -0.7250    2.5333    0.0000 O   0  0  0  0  0  0  0  0  0  0  0  0
    1.0042   -3.5417    0.0000 C   0  0  0  0  0  0  0  0  0  0  0  0
    1.0042   -1.8917    0.0000 C   0  0  0  0  0  0  0  0  0  0  0  0
   -0.4250   -1.0667    0.0000 O   0  0  0  0  0  0  0  0  0  0  0  0
    0.2917    1.8208    0.0000 C   0  0  0  0  0  0  0  0  0  0  0  0
    1.0042    0.5833    0.0000 C   0  0  0  0  0  0  0  0  0  0  0  0
    1.0042    1.4083    0.0000 C   0  0  0  0  0  0  0  0  0  0  0  0
   -2.5667    1.8208    0.0000 C   0  0  0  0  0  0  0  0  0  0  0  0
   -1.8542    3.0583    0.0000 C   0  0  0  0  0  0  0  0  0  0  0  0
    0.1792   -1.8917    0.0000 C   0  0  0  0  0  0  0  0  0  0  0  0
    1.8292   -1.8917    0.0000 C   0  0  0  0  0  0  0  0  0  0  0  0
   -0.2333   -1.1792    0.0000 C   0  0  0  0  0  0  0  0  0  0  0  0
    2.2417   -2.6042    0.0000 C   0  0  0  0  0  0  0  0  0  0  0  0
  2  1  1  0  0  0  0
  3  7  1  0  0  0  0
  4  3  1  0  0  0  0
  5  1  1  0  0  0  0
  6 12  1  0  0  0  0
  7  8  2  0  0  0  0
  8  2  1  0  0  0  0
  9  1  2  0  0  0  0
 10  1  2  0  0  0  0
 11  6  3  0  0  0  0
 12  4  1  0  0  0  0
 13  3  2  0  0  0  0
 14  2  2  0  0  0  0
 15  7  1  0  0  0  0
 16 14  1  0  0  0  0
 16 15  2  0  0  0  0
 17  5  1  0  0  0  0
 18  5  1  0  0  0  0
 19 12  1  0  0  0  0
 20 12  1  0  0  0  0
 21 19  1  0  0  0  0
 22 20  1  0  0  0  0
M  END
> <CdId>
3074

> <Mol Weight>
322.422

> <Formula>
C16H22N2O3S

> <Click_ID>
CLK040B10 __ __ 

$$$$
