CLK041D08
 OpenBabel03181413202D

 25 26  0  0  0  0  0  0  0  0999 V2000
    0.0500    1.8000    0.0000 N   0  0  0  0  0  0  0  0  0  0  0  0
    0.5333    1.1292    0.0000 C   0  0  0  0  0  0  0  0  0  0  0  0
    1.3208    1.3875    0.0000 N   0  0  0  0  0  0  0  0  0  0  0  0
    1.3208    2.2125    0.0000 N   0  0  0  0  0  0  0  0  0  0  0  0
    0.5333    2.4667    0.0000 C   0  0  0  0  0  0  0  0  0  0  0  0
   -0.7750    1.8000    0.0000 C   0  0  0  0  0  0  0  0  0  0  0  0
    0.6208   -3.2333    0.0000 C   0  0  0  0  0  0  0  0  0  0  0  0
    0.2792    0.3458    0.0000 S   0  0  0  0  0  0  0  0  0  0  0  0
    0.3625   -4.0167    0.0000 C   0  0  0  0  0  0  0  0  0  0  0  0
    0.5750   -1.0500    0.0000 C   0  0  0  0  0  0  0  0  0  0  0  0
    1.1292   -1.6625    0.0000 N   0  0  0  0  0  0  0  0  0  0  0  0
    0.8750   -2.4500    0.0000 C   0  0  0  0  0  0  0  0  0  0  0  0
   -1.1875    1.0833    0.0000 C   0  0  0  0  0  0  0  0  0  0  0  0
   -0.2292   -1.2208    0.0000 O   0  0  0  0  0  0  0  0  0  0  0  0
    0.8333   -0.2667    0.0000 C   0  0  0  0  0  0  0  0  0  0  0  0
   -2.0125    1.0833    0.0000 C   0  0  0  0  0  0  0  0  0  0  0  0
   -1.1875    2.5125    0.0000 C   0  0  0  0  0  0  0  0  0  0  0  0
    0.2792    3.2500    0.0000 C   0  0  0  0  0  0  0  0  0  0  0  0
   -2.0125    2.5125    0.0000 C   0  0  0  0  0  0  0  0  0  0  0  0
    1.6583   -2.7042    0.0000 C   0  0  0  0  0  0  0  0  0  0  0  0
    0.0875   -2.1958    0.0000 C   0  0  0  0  0  0  0  0  0  0  0  0
   -2.4250    1.8000    0.0000 C   0  0  0  0  0  0  0  0  0  0  0  0
   -2.4250    0.3708    0.0000 C   0  0  0  0  0  0  0  0  0  0  0  0
    1.8292   -3.5125    0.0000 C   0  0  0  0  0  0  0  0  0  0  0  0
   -0.0833   -1.3875    0.0000 C   0  0  0  0  0  0  0  0  0  0  0  0
  2  1  1  0  0  0  0
  3  2  2  0  0  0  0
  4  5  2  0  0  0  0
  4  3  1  0  0  0  0
  5  1  1  0  0  0  0
  6  1  1  0  0  0  0
  7 12  1  0  0  0  0
  8  2  1  0  0  0  0
  9  7  3  0  0  0  0
 10 15  1  0  0  0  0
 11 10  1  0  0  0  0
 12 11  1  0  0  0  0
 13  6  2  0  0  0  0
 14 10  2  0  0  0  0
 15  8  1  0  0  0  0
 16 13  1  0  0  0  0
 17  6  1  0  0  0  0
 18  5  1  0  0  0  0
 19 17  2  0  0  0  0
 20 12  1  0  0  0  0
 21 12  1  0  0  0  0
 22 16  2  0  0  0  0
 22 19  1  0  0  0  0
 23 16  1  0  0  0  0
 24 20  1  0  0  0  0
 25 21  1  0  0  0  0
M  END
> <CdId>
3140

> <Mol Weight>
356.485

> <Formula>
C19H24N4OS

> <Click_ID>
CLK041D08 __ __ 

$$$$
