CLK033_H08
 OpenBabel03181413202D

 34 38  0  0  0  0  0  0  0  0999 V2000
   -4.5821    2.5494    0.0000 C   0  0  0  0  0  0  0  0  0  0  0  0
   -0.9997    5.4486    0.0000 S   0  0  0  0  0  0  0  0  0  0  0  0
   -3.8698    2.9825    0.0000 N   0  0  0  0  0  0  0  0  0  0  0  0
   -5.3486    2.8701    0.0000 S   0  0  0  0  0  0  0  0  0  0  0  0
   -4.6571    1.7371    0.0000 N   0  0  0  0  0  0  0  0  0  0  0  0
   -5.8818    2.2452    0.0000 C   0  0  0  0  0  0  0  0  0  0  0  0
   -5.4569    1.5454    0.0000 C   0  0  0  0  0  0  0  0  0  0  0  0
   -0.2832    5.8527    0.0000 N   0  0  0  0  0  0  0  0  0  0  0  0
   -3.8698    3.7990    0.0000 C   0  0  0  0  0  0  0  0  0  0  0  0
   -6.7025    2.2327    0.0000 C   0  0  0  0  0  0  0  0  0  0  0  0
   -1.7204    5.0279    0.0000 C   0  0  0  0  0  0  0  0  0  0  0  0
   -5.8443    0.8206    0.0000 C   0  0  0  0  0  0  0  0  0  0  0  0
   -3.2367    1.4621    0.0000 C   0  0  0  0  0  0  0  0  0  0  0  0
   -0.5874    4.7280    0.0000 O   0  0  0  0  0  0  0  0  0  0  0  0
   -1.4121    6.1651    0.0000 O   0  0  0  0  0  0  0  0  0  0  0  0
   -2.4619    1.7454    0.0000 C   0  0  0  0  0  0  0  0  0  0  0  0
   -3.1575    4.2114    0.0000 C   0  0  0  0  0  0  0  0  0  0  0  0
   -4.5821    4.2031    0.0000 O   0  0  0  0  0  0  0  0  0  0  0  0
   -4.0198    1.1955    0.0000 C   0  0  0  0  0  0  0  0  0  0  0  0
   -7.1024    1.5079    0.0000 C   0  0  0  0  0  0  0  0  0  0  0  0
   -6.6650    0.7956    0.0000 C   0  0  0  0  0  0  0  0  0  0  0  0
   -2.4369    5.4486    0.0000 C   0  0  0  0  0  0  0  0  0  0  0  0
   -1.7246    4.2031    0.0000 C   0  0  0  0  0  0  0  0  0  0  0  0
   -3.1575    5.0279    0.0000 C   0  0  0  0  0  0  0  0  0  0  0  0
   -2.4369    3.8073    0.0000 C   0  0  0  0  0  0  0  0  0  0  0  0
    1.1539    6.6900    0.0000 O   0  0  0  0  0  0  0  0  0  0  0  0
    0.4291    5.4528    0.0000 C   0  0  0  0  0  0  0  0  0  0  0  0
   -0.2832    6.6900    0.0000 C   0  0  0  0  0  0  0  0  0  0  0  0
   -7.1399    2.9326    0.0000 C   0  0  0  0  0  0  0  0  0  0  0  0
    1.1497    5.8652    0.0000 C   0  0  0  0  0  0  0  0  0  0  0  0
    0.4374    7.1024    0.0000 C   0  0  0  0  0  0  0  0  0  0  0  0
   -7.9147    1.4829    0.0000 C   0  0  0  0  0  0  0  0  0  0  0  0
   -7.9647    2.9118    0.0000 C   0  0  0  0  0  0  0  0  0  0  0  0
   -8.3521    2.1869    0.0000 C   0  0  0  0  0  0  0  0  0  0  0  0
  2 11  1  0  0  0  0
  3  1  2  0  0  0  0
  4  1  1  0  0  0  0
  5  1  1  0  0  0  0
  6  4  1  0  0  0  0
  6  7  2  0  0  0  0
  7  5  1  0  0  0  0
  8  2  1  0  0  0  0
  9  3  1  0  0  0  0
 10  6  1  0  0  0  0
 11 23  2  0  0  0  0
 11 22  1  0  0  0  0
 12  7  1  0  0  0  0
 13 19  1  0  0  0  0
 14  2  2  0  0  0  0
 15  2  2  0  0  0  0
 16 13  3  0  0  0  0
 17  9  1  0  0  0  0
 18  9  2  0  0  0  0
 19  5  1  0  0  0  0
 20 10  1  0  0  0  0
 21 12  2  0  0  0  0
 21 20  1  0  0  0  0
 22 24  2  0  0  0  0
 23 25  1  0  0  0  0
 24 17  1  0  0  0  0
 25 17  2  0  0  0  0
 26 31  1  0  0  0  0
 26 30  1  0  0  0  0
 27  8  1  0  0  0  0
 28  8  1  0  0  0  0
 29 10  2  0  0  0  0
 30 27  1  0  0  0  0
 31 28  1  0  0  0  0
 32 20  2  0  0  0  0
 32 34  1  0  0  0  0
 33 29  1  0  0  0  0
 34 33  2  0  0  0  0
M  END
> <CdId>
2562

> <Mol Weight>
491.582

> <Formula>
C25H21N3O4S2

> <Click_ID>
CLK033_H08 __ __ 

$$$$
