CLK028_H03
 OpenBabel03181413202D

 23 24  0  0  0  0  0  0  0  0999 V2000
    1.7793    0.6136    0.0000 C   0  0  0  0  0  0  0  0  0  0  0  0
    3.2020    0.6136    0.0000 N   0  0  0  0  0  0  0  0  0  0  0  0
    3.2020   -0.2125    0.0000 C   0  0  0  0  0  0  0  0  0  0  0  0
    2.4889    1.0285    0.0000 C   0  0  0  0  0  0  0  0  0  0  0  0
    2.4889   -0.6239    0.0000 N   0  0  0  0  0  0  0  0  0  0  0  0
    1.7793   -0.2125    0.0000 C   0  0  0  0  0  0  0  0  0  0  0  0
    1.0593    1.0285    0.0000 C   0  0  0  0  0  0  0  0  0  0  0  0
    3.9185   -0.6239    0.0000 S   0  0  0  0  0  0  0  0  0  0  0  0
   -3.2089   -0.6239    0.0000 C   0  0  0  0  0  0  0  0  0  0  0  0
   -3.9220   -1.0388    0.0000 C   0  0  0  0  0  0  0  0  0  0  0  0
    2.4889    1.8547    0.0000 O   0  0  0  0  0  0  0  0  0  0  0  0
   -0.3634   -0.6342    0.0000 C   0  0  0  0  0  0  0  0  0  0  0  0
    1.0593   -0.6239    0.0000 O   0  0  0  0  0  0  0  0  0  0  0  0
    0.3462    0.6068    0.0000 C   0  0  0  0  0  0  0  0  0  0  0  0
    0.3497   -0.2125    0.0000 C   0  0  0  0  0  0  0  0  0  0  0  0
   -1.0696   -0.2194    0.0000 C   0  0  0  0  0  0  0  0  0  0  0  0
    3.9185    1.0285    0.0000 C   0  0  0  0  0  0  0  0  0  0  0  0
   -1.0765    0.6033    0.0000 C   0  0  0  0  0  0  0  0  0  0  0  0
   -0.3531    1.0079    0.0000 C   0  0  0  0  0  0  0  0  0  0  0  0
   -0.3634   -1.4364    0.0000 O   0  0  0  0  0  0  0  0  0  0  0  0
   -1.7896   -0.6239    0.0000 O   0  0  0  0  0  0  0  0  0  0  0  0
   -2.4924   -0.2194    0.0000 C   0  0  0  0  0  0  0  0  0  0  0  0
    0.3462   -1.8513    0.0000 C   0  0  0  0  0  0  0  0  0  0  0  0
  2  4  1  0  0  0  0
  2  3  1  0  0  0  0
  3  5  1  0  0  0  0
  4  1  1  0  0  0  0
  5  6  1  0  0  0  0
  6  1  1  0  0  0  0
  7  1  2  0  0  0  0
  8  3  2  0  0  0  0
  9 22  1  0  0  0  0
 10  9  3  0  0  0  0
 11  4  2  0  0  0  0
 12 15  1  0  0  0  0
 12 16  2  0  0  0  0
 13  6  2  0  0  0  0
 14  7  1  0  0  0  0
 15 14  2  0  0  0  0
 16 18  1  0  0  0  0
 17  2  1  0  0  0  0
 18 19  2  0  0  0  0
 19 14  1  0  0  0  0
 20 12  1  0  0  0  0
 21 16  1  0  0  0  0
 22 21  1  0  0  0  0
 23 20  1  0  0  0  0
M  END
> <CdId>
2157

> <Mol Weight>
330.358

> <Formula>
C16H14N2O4S

> <Click_ID>
CLK028_H03 __ __ 

$$$$
