CLK002_B09
 OpenBabel03181413202D

 18 20  0  0  0  0  0  0  0  0999 V2000
   -0.4324    0.3704    0.0000 C   0  0  0  0  0  0  0  0  0  0  0  0
   -1.2574    0.3704    0.0000 C   0  0  0  0  0  0  0  0  0  0  0  0
   -0.1841   -0.4081    0.0000 C   0  0  0  0  0  0  0  0  0  0  0  0
    0.1176    0.9891    0.0000 C   0  0  0  0  0  0  0  0  0  0  0  0
   -1.5257   -0.3903    0.0000 C   0  0  0  0  0  0  0  0  0  0  0  0
   -1.8118    1.0002    0.0000 C   0  0  0  0  0  0  0  0  0  0  0  0
   -0.8582   -0.8760    0.0000 S   0  0  0  0  0  0  0  0  0  0  0  0
    0.6298   -0.5943    0.0000 N   0  0  0  0  0  0  0  0  0  0  0  0
    0.9092    0.8139    0.0000 N   0  0  0  0  0  0  0  0  0  0  0  0
   -0.1197    1.7963    0.0000 O   0  0  0  0  0  0  0  0  0  0  0  0
   -2.3352   -0.5522    0.0000 C   0  0  0  0  0  0  0  0  0  0  0  0
   -2.6169    0.8449    0.0000 C   0  0  0  0  0  0  0  0  0  0  0  0
    1.1776    0.0244    0.0000 C   0  0  0  0  0  0  0  0  0  0  0  0
   -2.8874    0.0687    0.0000 C   0  0  0  0  0  0  0  0  0  0  0  0
    2.0026   -0.1508    0.0000 S   0  0  0  0  0  0  0  0  0  0  0  0
    2.2554   -0.9292    0.0000 C   0  0  0  0  0  0  0  0  0  0  0  0
    3.0648   -1.0999    0.0000 C   0  0  0  0  0  0  0  0  0  0  0  0
    3.8676   -1.2774    0.0000 C   0  0  0  0  0  0  0  0  0  0  0  0
  1  2  1  0  0  0  0
  1  3  2  0  0  0  0
  1  4  1  0  0  0  0
  2  5  2  0  0  0  0
  2  6  1  0  0  0  0
  3  7  1  0  0  0  0
  3  8  1  0  0  0  0
  4  9  1  0  0  0  0
  4 10  2  0  0  0  0
  5 11  1  0  0  0  0
  5  7  1  0  0  0  0
  6 12  1  0  0  0  0
  8 13  2  0  0  0  0
  9 13  1  0  0  0  0
 11 14  1  0  0  0  0
 12 14  1  0  0  0  0
 13 15  1  0  0  0  0
 15 16  1  0  0  0  0
 16 17  1  0  0  0  0
 17 18  3  0  0  0  0
M  END
> <CdId>
98

> <Mol Weight>
276.377

> <Formula>
C13H12N2OS2

> <Click_ID>
CLK002_B09 __ __ 

$$$$
