CLK036_C05
 OpenBabel03181413202D

 29 31  0  0  0  0  0  0  0  0999 V2000
    4.1603   -1.1275    0.0000 C   0  0  0  0  0  0  0  0  0  0  0  0
    4.4973   -1.8846    0.0000 N   0  0  0  0  0  0  0  0  0  0  0  0
    3.3573   -0.9610    0.0000 N   0  0  0  0  0  0  0  0  0  0  0  0
    4.5722   -0.4161    0.0000 S   0  0  0  0  0  0  0  0  0  0  0  0
    3.5113    2.3297    0.0000 S   0  0  0  0  0  0  0  0  0  0  0  0
    7.6299   -3.6486    0.0000 S   0  0  0  0  0  0  0  0  0  0  0  0
    4.0188    0.1955    0.0000 C   0  0  0  0  0  0  0  0  0  0  0  0
    3.2700   -0.1373    0.0000 C   0  0  0  0  0  0  0  0  0  0  0  0
    5.3168   -1.9720    0.0000 C   0  0  0  0  0  0  0  0  0  0  0  0
    3.4364    1.5060    0.0000 C   0  0  0  0  0  0  0  0  0  0  0  0
    4.1062    1.0192    0.0000 C   0  0  0  0  0  0  0  0  0  0  0  0
    6.8062   -3.5612    0.0000 C   0  0  0  0  0  0  0  0  0  0  0  0
    5.6538   -2.7250    0.0000 C   0  0  0  0  0  0  0  0  0  0  0  0
    2.9330   -2.3089    0.0000 C   0  0  0  0  0  0  0  0  0  0  0  0
    2.6002    0.3495    0.0000 C   0  0  0  0  0  0  0  0  0  0  0  0
    6.4692   -2.8124    0.0000 C   0  0  0  0  0  0  0  0  0  0  0  0
    3.1119   -3.1119    0.0000 C   0  0  0  0  0  0  0  0  0  0  0  0
    7.5509   -4.4723    0.0000 O   0  0  0  0  0  0  0  0  0  0  0  0
    3.5862    3.1534    0.0000 O   0  0  0  0  0  0  0  0  0  0  0  0
    2.6876    2.4046    0.0000 O   0  0  0  0  0  0  0  0  0  0  0  0
    7.7173   -2.8248    0.0000 O   0  0  0  0  0  0  0  0  0  0  0  0
    5.8036   -1.3022    0.0000 O   0  0  0  0  0  0  0  0  0  0  0  0
    2.6876    1.1690    0.0000 C   0  0  0  0  0  0  0  0  0  0  0  0
    2.7500   -1.5144    0.0000 C   0  0  0  0  0  0  0  0  0  0  0  0
    4.3350    2.2548    0.0000 C   0  0  0  0  0  0  0  0  0  0  0  0
    8.4537   -3.7318    0.0000 C   0  0  0  0  0  0  0  0  0  0  0  0
    6.3195   -4.2352    0.0000 C   0  0  0  0  0  0  0  0  0  0  0  0
    5.1670   -3.3948    0.0000 C   0  0  0  0  0  0  0  0  0  0  0  0
    5.5040   -4.1478    0.0000 C   0  0  0  0  0  0  0  0  0  0  0  0
  2  1  2  0  0  0  0
  3  1  1  0  0  0  0
  4  1  1  0  0  0  0
  5 10  1  0  0  0  0
  6 12  1  0  0  0  0
  7  4  1  0  0  0  0
  8  3  1  0  0  0  0
  8  7  2  0  0  0  0
  9  2  1  0  0  0  0
 10 11  2  0  0  0  0
 11  7  1  0  0  0  0
 12 16  2  0  0  0  0
 12 27  1  0  0  0  0
 13  9  1  0  0  0  0
 14 24  1  0  0  0  0
 15  8  1  0  0  0  0
 16 13  1  0  0  0  0
 17 14  3  0  0  0  0
 18  6  2  0  0  0  0
 19  5  2  0  0  0  0
 20  5  2  0  0  0  0
 21  6  2  0  0  0  0
 22  9  2  0  0  0  0
 23 15  2  0  0  0  0
 23 10  1  0  0  0  0
 24  3  1  0  0  0  0
 25  5  1  0  0  0  0
 26  6  1  0  0  0  0
 27 29  2  0  0  0  0
 28 13  2  0  0  0  0
 29 28  1  0  0  0  0
M  END
> <CdId>
2741

> <Mol Weight>
448.536

> <Formula>
C19H16N2O5S3

> <Click_ID>
CLK036_C05 __ __ 

$$$$
