CLK041G03
 OpenBabel03181413202D

 22 23  0  0  0  0  0  0  0  0999 V2000
    0.2208    0.6000    0.0000 C    0  0  0  0  0  0  0  0  0  0  0  0
   -1.2083   -0.2208    0.0000 C    0  0  0  0  0  0  0  0  0  0  0  0
    0.9333    1.0125    0.0000 C    0  0  0  0  0  0  0  0  0  0  0  0
   -0.4958    1.0125    0.0000 N    0  0  0  0  0  0  0  0  0  0  0  0
   -1.2083    0.6000    0.0000 C    0  0  0  0  0  0  0  0  0  0  0  0
   -0.4958   -0.6375    0.0000 C    0  0  0  0  0  0  0  0  0  0  0  0
    0.2208   -2.7000    0.0000 C    0  0  0  0  0  0  0  0  0  0  0  0
    0.2208   -3.5250    0.0000 C    0  0  0  0  0  0  0  0  0  0  0  0
    1.6500    0.6000    0.0000 C    0  0  0  0  0  0  0  0  0  0  0  0
    0.2208   -0.2208    0.0000 O    0  0  0  0  0  0  0  0  0  0  0  0
    0.3292   -0.6375    0.0000 O    0  0  0  0  0  0  0  0  0  0  0  0
   -0.4958   -1.4625    0.0000 N    0  0  0  0  0  0  0  0  0  0  0  0
    1.6500   -0.2208    0.0000 Br   0  0  0  0  0  0  0  0  0  0  0  0
    0.2208   -1.8750    0.0000 C    0  0  0  0  0  0  0  0  0  0  0  0
   -1.9250   -0.6375    0.0000 C    0  0  0  0  0  0  0  0  0  0  0  0
    0.9333    1.8375    0.0000 C    0  0  0  0  0  0  0  0  0  0  0  0
   -1.9250    1.0125    0.0000 C    0  0  0  0  0  0  0  0  0  0  0  0
    2.3625    1.0125    0.0000 C    0  0  0  0  0  0  0  0  0  0  0  0
    1.6500    2.2500    0.0000 C    0  0  0  0  0  0  0  0  0  0  0  0
   -2.6375   -0.2208    0.0000 C    0  0  0  0  0  0  0  0  0  0  0  0
   -2.6375    0.6000    0.0000 C    0  0  0  0  0  0  0  0  0  0  0  0
    2.3625    1.8375    0.0000 C    0  0  0  0  0  0  0  0  0  0  0  0
  2  5  2  0  0  0  0
  3  1  1  0  0  0  0
  4  1  1  0  0  0  0
  5  4  1  0  0  0  0
  6  2  1  0  0  0  0
  7 14  1  0  0  0  0
  8  7  3  0  0  0  0
  9  3  2  0  0  0  0
 10  1  2  0  0  0  0
 11  6  2  0  0  0  0
 12  6  1  0  0  0  0
 13  9  1  0  0  0  0
 14 12  1  0  0  0  0
 15  2  1  0  0  0  0
 16  3  1  0  0  0  0
 17  5  1  0  0  0  0
 18  9  1  0  0  0  0
 19 16  2  0  0  0  0
 19 22  1  0  0  0  0
 20 15  2  0  0  0  0
 20 21  1  0  0  0  0
 21 17  2  0  0  0  0
 22 18  2  0  0  0  0
M  END
> <CdId>
3103

> <Mol Weight>
357.201

> <Formula>
C17H13BrN2O2

> <Click_ID>
CLK041G03 __ __ 

$$$$
