CLK046C08
 OpenBabel03181413202D

 19 20  0  0  0  0  0  0  0  0999 V2000
    0.1500   -0.2167    0.0000 C   0  0  0  0  0  0  0  0  0  0  0  0
    0.8625   -0.6292    0.0000 C   0  0  0  0  0  0  0  0  0  0  0  0
    0.1500    0.6083    0.0000 N   0  0  0  0  0  0  0  0  0  0  0  0
   -2.7083    0.6083    0.0000 C   0  0  0  0  0  0  0  0  0  0  0  0
   -3.4250    0.1958    0.0000 C   0  0  0  0  0  0  0  0  0  0  0  0
    1.5792   -0.2167    0.0000 C   0  0  0  0  0  0  0  0  0  0  0  0
    0.8625   -1.4542    0.0000 C   0  0  0  0  0  0  0  0  0  0  0  0
   -0.5667   -0.6292    0.0000 O   0  0  0  0  0  0  0  0  0  0  0  0
   -0.5667    1.0208    0.0000 C   0  0  0  0  0  0  0  0  0  0  0  0
    2.2917   -0.6292    0.0000 C   0  0  0  0  0  0  0  0  0  0  0  0
    1.5792   -1.8667    0.0000 C   0  0  0  0  0  0  0  0  0  0  0  0
   -1.9958    1.0208    0.0000 C   0  0  0  0  0  0  0  0  0  0  0  0
    2.2917   -1.4542    0.0000 C   0  0  0  0  0  0  0  0  0  0  0  0
   -1.2792    0.6083    0.0000 C   0  0  0  0  0  0  0  0  0  0  0  0
   -1.2792    2.2583    0.0000 C   0  0  0  0  0  0  0  0  0  0  0  0
   -0.5667    1.8458    0.0000 C   0  0  0  0  0  0  0  0  0  0  0  0
   -1.9958    1.8458    0.0000 C   0  0  0  0  0  0  0  0  0  0  0  0
    1.5792   -2.6917    0.0000 C   0  0  0  0  0  0  0  0  0  0  0  0
    3.0042   -0.2167    0.0000 C   0  0  0  0  0  0  0  0  0  0  0  0
  2  1  1  0  0  0  0
  3  1  1  0  0  0  0
  4 12  1  0  0  0  0
  5  4  3  0  0  0  0
  6  2  2  0  0  0  0
  7  2  1  0  0  0  0
  8  1  2  0  0  0  0
  9  3  1  0  0  0  0
 10  6  1  0  0  0  0
 10 13  2  0  0  0  0
 11  7  2  0  0  0  0
 12 14  1  0  0  0  0
 13 11  1  0  0  0  0
 14  9  2  0  0  0  0
 15 16  2  0  0  0  0
 16  9  1  0  0  0  0
 17 12  2  0  0  0  0
 17 15  1  0  0  0  0
 18 11  1  0  0  0  0
 19 10  1  0  0  0  0
M  END
> <CdId>
3539

> <Mol Weight>
249.3071

> <Formula>
C17H15NO

> <Click_ID>
CLK046C08 __ __ 

$$$$
