CLK005_F05
 OpenBabel03181413202D

 27 29  0  0  0  0  0  0  0  0999 V2000
   -0.3830   -0.1587    0.0000 C   0  0  0  0  0  0  0  0  0  0  0  0
    0.4485   -0.1518    0.0000 C   0  0  0  0  0  0  0  0  0  0  0  0
   -0.7970    0.5555    0.0000 C   0  0  0  0  0  0  0  0  0  0  0  0
   -0.7970   -0.8694    0.0000 C   0  0  0  0  0  0  0  0  0  0  0  0
    1.0281    0.4312    0.0000 C   0  0  0  0  0  0  0  0  0  0  0  0
    0.6624   -0.9453    0.0000 C   0  0  0  0  0  0  0  0  0  0  0  0
   -0.5382    1.3421    0.0000 C   0  0  0  0  0  0  0  0  0  0  0  0
   -1.6215    0.5589    0.0000 C   0  0  0  0  0  0  0  0  0  0  0  0
   -0.5486   -1.6525    0.0000 C   0  0  0  0  0  0  0  0  0  0  0  0
   -1.6215   -0.8659    0.0000 C   0  0  0  0  0  0  0  0  0  0  0  0
    1.8285    0.2173    0.0000 C   0  0  0  0  0  0  0  0  0  0  0  0
    0.8176    1.2316    0.0000 O   0  0  0  0  0  0  0  0  0  0  0  0
    1.4524   -1.1661    0.0000 C   0  0  0  0  0  0  0  0  0  0  0  0
   -1.2109    1.8216    0.0000 N   0  0  0  0  0  0  0  0  0  0  0  0
    0.2484    1.5974    0.0000 C   0  0  0  0  0  0  0  0  0  0  0  0
   -1.8733    1.3421    0.0000 N   0  0  0  0  0  0  0  0  0  0  0  0
   -2.3391    0.1553    0.0000 O   0  0  0  0  0  0  0  0  0  0  0  0
   -1.2144   -2.1321    0.0000 N   0  0  0  0  0  0  0  0  0  0  0  0
    0.2415   -1.9182    0.0000 C   0  0  0  0  0  0  0  0  0  0  0  0
   -1.8733   -1.6456    0.0000 N   0  0  0  0  0  0  0  0  0  0  0  0
   -2.4219   -0.6451    0.0000 O   0  0  0  0  0  0  0  0  0  0  0  0
    2.0424   -0.5831    0.0000 C   0  0  0  0  0  0  0  0  0  0  0  0
    1.3904    1.8181    0.0000 C   0  0  0  0  0  0  0  0  0  0  0  0
    1.6663   -1.9596    0.0000 O   0  0  0  0  0  0  0  0  0  0  0  0
    1.1799    2.6116    0.0000 C   0  0  0  0  0  0  0  0  0  0  0  0
    2.4667   -2.1804    0.0000 C   0  0  0  0  0  0  0  0  0  0  0  0
    1.7664    3.1947    0.0000 C   0  0  0  0  0  0  0  0  0  0  0  0
  1  2  1  0  0  0  0
  1  3  1  0  0  0  0
  1  4  1  0  0  0  0
  2  5  2  0  0  0  0
  2  6  1  0  0  0  0
  3  7  1  0  0  0  0
  3  8  2  0  0  0  0
  4  9  1  0  0  0  0
  4 10  2  0  0  0  0
  5 11  1  0  0  0  0
  5 12  1  0  0  0  0
  6 13  2  0  0  0  0
  7 14  2  0  0  0  0
  7 15  1  0  0  0  0
  8 16  1  0  0  0  0
  8 17  1  0  0  0  0
  9 18  2  0  0  0  0
  9 19  1  0  0  0  0
 10 20  1  0  0  0  0
 10 21  1  0  0  0  0
 11 22  2  0  0  0  0
 12 23  1  0  0  0  0
 13 24  1  0  0  0  0
 13 22  1  0  0  0  0
 14 16  1  0  0  0  0
 18 20  1  0  0  0  0
 23 25  1  0  0  0  0
 24 26  1  0  0  0  0
 25 27  3  0  0  0  0
M  END
> <CdId>
374

> <Mol Weight>
368.3865

> <Formula>
C19H20N4O4

> <Click_ID>
CLK005_F05 __ __ 

$$$$
