CLK026_C06
 OpenBabel03181413202D

 20 21  0  0  0  0  0  0  0  0999 V2000
    1.5185   -0.2096    0.0000 N    0  0  0  0  0  0  0  0  0  0  0  0
    1.1646    0.5256    0.0000 C    0  0  0  0  0  0  0  0  0  0  0  0
    0.9310   -0.7833    0.0000 C    0  0  0  0  0  0  0  0  0  0  0  0
    0.2027   -0.3951    0.0000 C    0  0  0  0  0  0  0  0  0  0  0  0
    0.3436    0.4123    0.0000 S    0  0  0  0  0  0  0  0  0  0  0  0
   -0.4982   -0.8314    0.0000 C    0  0  0  0  0  0  0  0  0  0  0  0
    2.8652    0.2886    0.0000 C    0  0  0  0  0  0  0  0  0  0  0  0
    3.3908    0.9276    0.0000 C    0  0  0  0  0  0  0  0  0  0  0  0
   -1.9582    0.7868    0.0000 C    0  0  0  0  0  0  0  0  0  0  0  0
    1.5528    1.2506    0.0000 O    0  0  0  0  0  0  0  0  0  0  0  0
    1.0444   -1.6078    0.0000 O    0  0  0  0  0  0  0  0  0  0  0  0
   -1.2299   -0.4363    0.0000 C    0  0  0  0  0  0  0  0  0  0  0  0
    2.3361   -0.3470    0.0000 C    0  0  0  0  0  0  0  0  0  0  0  0
   -1.2436    0.3813    0.0000 C    0  0  0  0  0  0  0  0  0  0  0  0
   -2.6659    0.3642    0.0000 C    0  0  0  0  0  0  0  0  0  0  0  0
   -2.6591   -0.4603    0.0000 C    0  0  0  0  0  0  0  0  0  0  0  0
   -1.9720    1.6113    0.0000 Br   0  0  0  0  0  0  0  0  0  0  0  0
   -1.9411   -0.8589    0.0000 C    0  0  0  0  0  0  0  0  0  0  0  0
   -3.3805    0.7627    0.0000 O    0  0  0  0  0  0  0  0  0  0  0  0
   -3.3943    1.5872    0.0000 C    0  0  0  0  0  0  0  0  0  0  0  0
  2  1  1  0  0  0  0
  3  1  1  0  0  0  0
  4  3  1  0  0  0  0
  5  2  1  0  0  0  0
  5  4  1  0  0  0  0
  6  4  2  0  0  0  0
  7 13  1  0  0  0  0
  8  7  3  0  0  0  0
  9 14  2  0  0  0  0
 10  2  2  0  0  0  0
 11  3  2  0  0  0  0
 12  6  1  0  0  0  0
 13  1  1  0  0  0  0
 14 12  1  0  0  0  0
 15 16  2  0  0  0  0
 15  9  1  0  0  0  0
 16 18  1  0  0  0  0
 17  9  1  0  0  0  0
 18 12  2  0  0  0  0
 19 15  1  0  0  0  0
 20 19  1  0  0  0  0
M  END
> <CdId>
1961

> <Mol Weight>
352.203

> <Formula>
C14H10BrNO3S

> <Click_ID>
CLK026_C06 __ __ 

$$$$
