CLK006_C02
 OpenBabel03181413202D

 26 28  0  0  0  0  0  0  0  0999 V2000
   -2.0833   -0.2917    0.0000 N   0  3  0  0  0  0  0  0  0  0  0  0
   -2.7958   -0.7042    0.0000 C   0  0  0  0  0  0  0  0  0  0  0  0
   -1.3708   -0.7042    0.0000 C   0  0  0  0  0  0  0  0  0  0  0  0
   -0.6583   -0.2792    0.0000 C   0  0  0  0  0  0  0  0  0  0  0  0
    4.3292    0.9833    0.0000 C   0  0  0  0  0  0  0  0  0  0  0  0
    5.0417    1.3958    0.0000 C   0  0  0  0  0  0  0  0  0  0  0  0
    1.4667    0.9583    0.0000 C   0  0  0  0  0  0  0  0  0  0  0  0
    0.0542   -0.6917    0.0000 C   0  0  0  0  0  0  0  0  0  0  0  0
    2.1917    0.5583    0.0000 C   0  0  0  0  0  0  0  0  0  0  0  0
    0.7667    0.5458    0.0000 C   0  0  0  0  0  0  0  0  0  0  0  0
   -2.7958   -1.5292    0.0000 C   0  0  0  0  0  0  0  0  0  0  0  0
   -1.3708   -1.5292    0.0000 C   0  0  0  0  0  0  0  0  0  0  0  0
    0.7667   -0.2792    0.0000 C   0  0  0  0  0  0  0  0  0  0  0  0
   -2.0833   -1.9417    0.0000 C   0  0  0  0  0  0  0  0  0  0  0  0
    2.1917   -0.2667    0.0000 C   0  0  0  0  0  0  0  0  0  0  0  0
   -2.0958    0.5333    0.0000 C   0  0  0  0  0  0  0  0  0  0  0  0
    1.4792   -0.6917    0.0000 C   0  0  0  0  0  0  0  0  0  0  0  0
    1.4667    1.7833    0.0000 O   0  0  0  0  0  0  0  0  0  0  0  0
    2.9042    0.9708    0.0000 O   0  0  0  0  0  0  0  0  0  0  0  0
    3.6167    0.5708    0.0000 C   0  0  0  0  0  0  0  0  0  0  0  0
   -3.5083   -0.2917    0.0000 C   0  0  0  0  0  0  0  0  0  0  0  0
   -3.5083   -1.9542    0.0000 C   0  0  0  0  0  0  0  0  0  0  0  0
    2.1667    2.2083    0.0000 C   0  0  0  0  0  0  0  0  0  0  0  0
   -4.2208   -0.7167    0.0000 C   0  0  0  0  0  0  0  0  0  0  0  0
    2.1667    3.0333    0.0000 C   0  0  0  0  0  0  0  0  0  0  0  0
   -4.2208   -1.5417    0.0000 C   0  0  0  0  0  0  0  0  0  0  0  0
  2  1  1  0  0  0  0
  3  1  2  0  0  0  0
  4  3  1  0  0  0  0
  5 20  1  0  0  0  0
  6  5  3  0  0  0  0
  7 10  2  0  0  0  0
  8  4  2  0  0  0  0
  9 15  2  0  0  0  0
  9  7  1  0  0  0  0
 10 13  1  0  0  0  0
 11  2  1  0  0  0  0
 12  3  1  0  0  0  0
 13  8  1  0  0  0  0
 14 12  2  0  0  0  0
 14 11  1  0  0  0  0
 15 17  1  0  0  0  0
 16  1  1  0  0  0  0
 17 13  2  0  0  0  0
 18  7  1  0  0  0  0
 19  9  1  0  0  0  0
 20 19  1  0  0  0  0
 21  2  2  0  0  0  0
 22 11  2  0  0  0  0
 23 18  1  0  0  0  0
 24 21  1  0  0  0  0
 25 23  1  0  0  0  0
 26 24  2  0  0  0  0
 26 22  1  0  0  0  0
M  END
> <CdId>
421

> <Mol Weight>
344.4263

> <Formula>
C23H22NO2

> <Click_ID>
CLK006_C02 __ __ 

$$$$
