CLK033_A11
 OpenBabel03181413202D

 27 30  0  0  0  0  0  0  0  0999 V2000
   -4.5821    2.5493    0.0000 C   0  0  0  0  0  0  0  0  0  0  0  0
   -3.8698    2.9825    0.0000 N   0  0  0  0  0  0  0  0  0  0  0  0
   -5.3486    2.8701    0.0000 S   0  0  0  0  0  0  0  0  0  0  0  0
   -4.6570    1.7371    0.0000 N   0  0  0  0  0  0  0  0  0  0  0  0
   -5.8818    2.2452    0.0000 C   0  0  0  0  0  0  0  0  0  0  0  0
   -5.4569    1.5454    0.0000 C   0  0  0  0  0  0  0  0  0  0  0  0
   -3.8698    3.7990    0.0000 C   0  0  0  0  0  0  0  0  0  0  0  0
   -6.7024    2.2327    0.0000 C   0  0  0  0  0  0  0  0  0  0  0  0
   -0.2707    5.8402    0.0000 N   0  0  0  0  0  0  0  0  0  0  0  0
   -5.8443    0.8205    0.0000 C   0  0  0  0  0  0  0  0  0  0  0  0
   -3.2367    1.4621    0.0000 C   0  0  0  0  0  0  0  0  0  0  0  0
   -2.4618    1.7454    0.0000 C   0  0  0  0  0  0  0  0  0  0  0  0
   -0.9872    5.4361    0.0000 C   0  0  0  0  0  0  0  0  0  0  0  0
   -3.1575    4.2114    0.0000 C   0  0  0  0  0  0  0  0  0  0  0  0
   -4.5821    4.2031    0.0000 O   0  0  0  0  0  0  0  0  0  0  0  0
   -4.0197    1.1955    0.0000 C   0  0  0  0  0  0  0  0  0  0  0  0
   -7.1023    1.5079    0.0000 C   0  0  0  0  0  0  0  0  0  0  0  0
   -6.6649    0.7955    0.0000 C   0  0  0  0  0  0  0  0  0  0  0  0
   -2.4326    3.8073    0.0000 C   0  0  0  0  0  0  0  0  0  0  0  0
   -3.1450    5.0278    0.0000 C   0  0  0  0  0  0  0  0  0  0  0  0
   -1.7079    5.0278    0.0000 C   0  0  0  0  0  0  0  0  0  0  0  0
   -2.4243    5.4403    0.0000 C   0  0  0  0  0  0  0  0  0  0  0  0
   -1.7204    4.2031    0.0000 C   0  0  0  0  0  0  0  0  0  0  0  0
   -7.1398    2.9325    0.0000 C   0  0  0  0  0  0  0  0  0  0  0  0
   -7.9146    1.4829    0.0000 C   0  0  0  0  0  0  0  0  0  0  0  0
   -7.9646    2.9117    0.0000 C   0  0  0  0  0  0  0  0  0  0  0  0
   -8.3520    2.1869    0.0000 C   0  0  0  0  0  0  0  0  0  0  0  0
  2  1  2  0  0  0  0
  3  1  1  0  0  0  0
  4  1  1  0  0  0  0
  5  3  1  0  0  0  0
  5  6  2  0  0  0  0
  6  4  1  0  0  0  0
  7  2  1  0  0  0  0
  8  5  1  0  0  0  0
  9 13  3  0  0  0  0
 10  6  1  0  0  0  0
 11 16  1  0  0  0  0
 12 11  3  0  0  0  0
 13 21  1  0  0  0  0
 14  7  1  0  0  0  0
 15  7  2  0  0  0  0
 16  4  1  0  0  0  0
 17  8  1  0  0  0  0
 18 10  2  0  0  0  0
 18 17  1  0  0  0  0
 19 14  2  0  0  0  0
 20 14  1  0  0  0  0
 21 22  1  0  0  0  0
 21 23  2  0  0  0  0
 22 20  2  0  0  0  0
 23 19  1  0  0  0  0
 24  8  2  0  0  0  0
 25 17  2  0  0  0  0
 25 27  1  0  0  0  0
 26 24  1  0  0  0  0
 27 26  2  0  0  0  0
M  END
> <CdId>
2495

> <Mol Weight>
367.423

> <Formula>
C22H13N3OS

> <Click_ID>
CLK033_A11 __ __ 

$$$$
