CLK010_F03
 OpenBabel03181413202D

 24 25  0  0  0  0  0  0  0  0999 V2000
   -0.7130    0.4203    0.0000 S    0  0  0  0  0  0  0  0  0  0  0  0
    0.0000    0.0000    0.0000 N    0  0  0  0  0  0  0  0  0  0  0  0
    2.2590    0.0544    0.0000 C    0  0  0  0  0  0  0  0  0  0  0  0
   -1.4335    0.8537    0.0000 C    0  0  0  0  0  0  0  0  0  0  0  0
    0.8237    0.0000    0.0000 N    0  0  0  0  0  0  0  0  0  0  0  0
    2.2290    2.5161    0.0000 C    0  0  0  0  0  0  0  0  0  0  0  0
    2.9289    2.9570    0.0000 C    0  0  0  0  0  0  0  0  0  0  0  0
   -0.2908    1.1351    0.0000 O    0  0  0  0  0  0  0  0  0  0  0  0
   -1.1351   -0.2946    0.0000 O    0  0  0  0  0  0  0  0  0  0  0  0
    2.2590    0.8818    0.0000 C    0  0  0  0  0  0  0  0  0  0  0  0
    2.9908   -0.3565    0.0000 C    0  0  0  0  0  0  0  0  0  0  0  0
    1.5423   -0.3790    0.0000 C    0  0  0  0  0  0  0  0  0  0  0  0
   -2.1483    0.4334    0.0000 C    0  0  0  0  0  0  0  0  0  0  0  0
   -1.4335    1.6755    0.0000 C    0  0  0  0  0  0  0  0  0  0  0  0
    2.9908    1.2890    0.0000 C    0  0  0  0  0  0  0  0  0  0  0  0
    3.6925    0.0544    0.0000 C    0  0  0  0  0  0  0  0  0  0  0  0
   -2.8538    1.6755    0.0000 C    0  0  0  0  0  0  0  0  0  0  0  0
    3.6925    0.8818    0.0000 C    0  0  0  0  0  0  0  0  0  0  0  0
   -2.1483    2.0789    0.0000 C    0  0  0  0  0  0  0  0  0  0  0  0
   -2.8538    0.8537    0.0000 C    0  0  0  0  0  0  0  0  0  0  0  0
    4.4017   -0.3659    0.0000 Br   0  0  0  0  0  0  0  0  0  0  0  0
   -3.5649    2.0939    0.0000 Cl   0  0  0  0  0  0  0  0  0  0  0  0
    1.5273    1.2890    0.0000 O    0  0  0  0  0  0  0  0  0  0  0  0
    1.5104    2.1108    0.0000 C    0  0  0  0  0  0  0  0  0  0  0  0
  2  1  1  0  0  0  0
  3 12  1  0  0  0  0
  4  1  1  0  0  0  0
  5  2  1  0  0  0  0
  6 24  1  0  0  0  0
  7  6  3  0  0  0  0
  8  1  2  0  0  0  0
  9  1  2  0  0  0  0
 10  3  1  0  0  0  0
 11  3  2  0  0  0  0
 12  5  2  0  0  0  0
 13  4  1  0  0  0  0
 14  4  2  0  0  0  0
 15 10  2  0  0  0  0
 16 11  1  0  0  0  0
 17 19  2  0  0  0  0
 18 16  2  0  0  0  0
 18 15  1  0  0  0  0
 19 14  1  0  0  0  0
 20 13  2  0  0  0  0
 20 17  1  0  0  0  0
 21 16  1  0  0  0  0
 22 17  1  0  0  0  0
 23 10  1  0  0  0  0
 24 23  1  0  0  0  0
M  END
> <CdId>
728

> <Mol Weight>
427.7

> <Formula>
C16H12BrClN2O3S

> <Click_ID>
CLK010_F03 __ __ 

$$$$
