CLK014_D05
 OpenBabel03181413202D

 23 24  0  0  0  0  0  0  0  0999 V2000
    1.5709   -0.8189    0.0000 N   0  0  0  0  0  0  0  0  0  0  0  0
    1.8299   -1.6085    0.0000 C   0  0  0  0  0  0  0  0  0  0  0  0
    2.2435   -0.3301    0.0000 C   0  0  0  0  0  0  0  0  0  0  0  0
    2.9120   -0.8189    0.0000 C   0  0  0  0  0  0  0  0  0  0  0  0
    2.6572   -1.6085    0.0000 S   0  0  0  0  0  0  0  0  0  0  0  0
    3.7017   -0.5640    0.0000 C   0  0  0  0  0  0  0  0  0  0  0  0
    4.2156    1.8425    0.0000 C   0  0  0  0  0  0  0  0  0  0  0  0
    4.8172    1.2910    0.0000 C   0  0  0  0  0  0  0  0  0  0  0  0
    3.4385    1.6001    0.0000 C   0  0  0  0  0  0  0  0  0  0  0  0
    3.8646    0.2465    0.0000 C   0  0  0  0  0  0  0  0  0  0  0  0
    0.6142    0.2465    0.0000 C   0  0  0  0  0  0  0  0  0  0  0  0
    0.3928    1.0486    0.0000 C   0  0  0  0  0  0  0  0  0  0  0  0
    1.3411   -2.2728    0.0000 O   0  0  0  0  0  0  0  0  0  0  0  0
    4.6417    0.4846    0.0000 C   0  0  0  0  0  0  0  0  0  0  0  0
    2.2352    0.4971    0.0000 O   0  0  0  0  0  0  0  0  0  0  0  0
    3.2588    0.7979    0.0000 C   0  0  0  0  0  0  0  0  0  0  0  0
    0.7896   -0.5640    0.0000 C   0  0  0  0  0  0  0  0  0  0  0  0
    5.5943    1.5417    0.0000 I   0  0  0  0  0  0  0  0  0  0  0  0
    4.3910    2.6529    0.0000 O   0  0  0  0  0  0  0  0  0  0  0  0
    2.8368    2.1391    0.0000 O   0  0  0  0  0  0  0  0  0  0  0  0
    2.0597    1.9009    0.0000 C   0  0  0  0  0  0  0  0  0  0  0  0
    5.1764    2.8911    0.0000 C   0  0  0  0  0  0  0  0  0  0  0  0
    1.4539    2.4441    0.0000 C   0  0  0  0  0  0  0  0  0  0  0  0
  2  1  1  0  0  0  0
  3  1  1  0  0  0  0
  4  3  1  0  0  0  0
  4  5  1  0  0  0  0
  5  2  1  0  0  0  0
  6  4  2  0  0  0  0
  7  9  2  0  0  0  0
  7  8  1  0  0  0  0
  8 14  2  0  0  0  0
  9 16  1  0  0  0  0
 10  6  1  0  0  0  0
 11 17  1  0  0  0  0
 12 11  3  0  0  0  0
 13  2  2  0  0  0  0
 14 10  1  0  0  0  0
 15  3  2  0  0  0  0
 16 10  2  0  0  0  0
 17  1  1  0  0  0  0
 18  8  1  0  0  0  0
 19  7  1  0  0  0  0
 20  9  1  0  0  0  0
 21 20  1  0  0  0  0
 22 19  1  0  0  0  0
 23 21  1  0  0  0  0
M  END
> <CdId>
1030

> <Mol Weight>
443.256

> <Formula>
C16H14INO4S

> <Click_ID>
CLK014_D05 __ __ 

$$$$
