CLK029_F04
 OpenBabel03181413202D

 25 28  0  0  0  0  0  0  0  0999 V2000
   -1.4259    2.1284    0.0000 C   0  0  0  0  0  0  0  0  0  0  0  0
   -1.2753    2.9438    0.0000 N   0  0  0  0  0  0  0  0  0  0  0  0
   -2.1660    1.7646    0.0000 C   0  0  0  0  0  0  0  0  0  0  0  0
   -0.6900    1.7395    0.0000 N   0  0  0  0  0  0  0  0  0  0  0  0
   -0.4599    3.0567    0.0000 C   0  0  0  0  0  0  0  0  0  0  0  0
   -0.0961    2.3082    0.0000 N   0  0  0  0  0  0  0  0  0  0  0  0
   -1.8943    0.9743    0.0000 C   0  0  0  0  0  0  0  0  0  0  0  0
   -2.9856    1.7437    0.0000 C   0  0  0  0  0  0  0  0  0  0  0  0
   -2.5549    0.4850    0.0000 N   0  0  0  0  0  0  0  0  0  0  0  0
   -1.8524    3.5334    0.0000 C   0  0  0  0  0  0  0  0  0  0  0  0
    1.1917    3.1194    0.0000 C   0  0  0  0  0  0  0  0  0  0  0  0
   -3.2323    0.9534    0.0000 C   0  0  0  0  0  0  0  0  0  0  0  0
    1.6225    2.4086    0.0000 C   0  0  0  0  0  0  0  0  0  0  0  0
   -0.0711    3.7843    0.0000 S   0  0  0  0  0  0  0  0  0  0  0  0
   -1.6141    4.3196    0.0000 C   0  0  0  0  0  0  0  0  0  0  0  0
   -2.6427    3.3327    0.0000 C   0  0  0  0  0  0  0  0  0  0  0  0
   -2.9856    4.7085    0.0000 C   0  0  0  0  0  0  0  0  0  0  0  0
   -3.2198    3.9223    0.0000 C   0  0  0  0  0  0  0  0  0  0  0  0
   -2.1828    4.9092    0.0000 C   0  0  0  0  0  0  0  0  0  0  0  0
   -3.5585    5.3106    0.0000 F   0  0  0  0  0  0  0  0  0  0  0  0
    0.7569    3.8136    0.0000 C   0  0  0  0  0  0  0  0  0  0  0  0
   -3.5459    2.3542    0.0000 C   0  0  0  0  0  0  0  0  0  0  0  0
   -4.0352    0.7736    0.0000 C   0  0  0  0  0  0  0  0  0  0  0  0
   -4.3613    2.1702    0.0000 C   0  0  0  0  0  0  0  0  0  0  0  0
   -4.5997    1.3757    0.0000 C   0  0  0  0  0  0  0  0  0  0  0  0
  2  1  1  0  0  0  0
  3  1  1  0  0  0  0
  4  1  2  0  0  0  0
  5  2  1  0  0  0  0
  5  6  2  0  0  0  0
  6  4  1  0  0  0  0
  7  3  2  0  0  0  0
  8  3  1  0  0  0  0
  9  7  1  0  0  0  0
  9 12  1  0  0  0  0
 10  2  1  0  0  0  0
 11 21  1  0  0  0  0
 12  8  2  0  0  0  0
 13 11  3  0  0  0  0
 14  5  1  0  0  0  0
 15 10  2  0  0  0  0
 16 10  1  0  0  0  0
 17 18  1  0  0  0  0
 17 19  2  0  0  0  0
 18 16  2  0  0  0  0
 19 15  1  0  0  0  0
 20 17  1  0  0  0  0
 21 14  1  0  0  0  0
 22  8  1  0  0  0  0
 23 12  1  0  0  0  0
 23 25  2  0  0  0  0
 24 22  2  0  0  0  0
 25 24  1  0  0  0  0
M  END
> <CdId>
2218

> <Mol Weight>
348.397

> <Formula>
C19H13FN4S

> <Click_ID>
CLK029_F04 __ __ 

$$$$
