CLK031_D04
 OpenBabel03181413202D

 35 39  0  0  0  0  0  0  0  0999 V2000
   -1.1625    2.3833    0.0000 C   0  0  0  0  0  0  0  0  0  0  0  0
   -0.3375    2.3750    0.0000 N   0  0  0  0  0  0  0  0  0  0  0  0
   -4.5833    3.2125    0.0000 S   0  0  0  0  0  0  0  0  0  0  0  0
   -1.6458    1.7208    0.0000 N   0  0  0  0  0  0  0  0  0  0  0  0
   -1.6458    3.0500    0.0000 S   0  0  0  0  0  0  0  0  0  0  0  0
    0.0750    3.0875    0.0000 C   0  0  0  0  0  0  0  0  0  0  0  0
   -2.4333    2.7958    0.0000 C   0  0  0  0  0  0  0  0  0  0  0  0
    0.9000    3.0875    0.0000 C   0  0  0  0  0  0  0  0  0  0  0  0
   -2.4333    1.9708    0.0000 C   0  0  0  0  0  0  0  0  0  0  0  0
    2.5542    3.0833    0.0000 N   0  0  0  0  0  0  0  0  0  0  0  0
    2.1292    2.3708    0.0000 C   0  0  0  0  0  0  0  0  0  0  0  0
   -3.8583    2.7958    0.0000 C   0  0  0  0  0  0  0  0  0  0  0  0
    1.3125    2.3708    0.0000 C   0  0  0  0  0  0  0  0  0  0  0  0
   -3.1458    3.2083    0.0000 C   0  0  0  0  0  0  0  0  0  0  0  0
    1.3167    3.8000    0.0000 C   0  0  0  0  0  0  0  0  0  0  0  0
    2.1417    3.8000    0.0000 C   0  0  0  0  0  0  0  0  0  0  0  0
   -1.9458    0.3208    0.0000 C   0  0  0  0  0  0  0  0  0  0  0  0
   -3.1458    1.5583    0.0000 C   0  0  0  0  0  0  0  0  0  0  0  0
   -2.4958   -0.2917    0.0000 C   0  0  0  0  0  0  0  0  0  0  0  0
   -4.1458    3.9083    0.0000 O   0  0  0  0  0  0  0  0  0  0  0  0
   -5.0208    2.5083    0.0000 O   0  0  0  0  0  0  0  0  0  0  0  0
   -0.3375    3.8000    0.0000 O   0  0  0  0  0  0  0  0  0  0  0  0
   -5.2833    3.6458    0.0000 N   0  0  0  0  0  0  0  0  0  0  0  0
   -3.8583    1.9708    0.0000 C   0  0  0  0  0  0  0  0  0  0  0  0
    2.5500    1.6583    0.0000 C   0  0  0  0  0  0  0  0  0  0  0  0
   -1.3958    0.9333    0.0000 C   0  0  0  0  0  0  0  0  0  0  0  0
    0.9042    4.5042    0.0000 C   0  0  0  0  0  0  0  0  0  0  0  0
    2.5542    4.5000    0.0000 C   0  0  0  0  0  0  0  0  0  0  0  0
    3.3875    1.6500    0.0000 C   0  0  0  0  0  0  0  0  0  0  0  0
    2.1292    0.9375    0.0000 C   0  0  0  0  0  0  0  0  0  0  0  0
    1.3167    5.2292    0.0000 C   0  0  0  0  0  0  0  0  0  0  0  0
    2.1417    5.2292    0.0000 C   0  0  0  0  0  0  0  0  0  0  0  0
    3.7875    0.9458    0.0000 C   0  0  0  0  0  0  0  0  0  0  0  0
    2.5500    0.2208    0.0000 C   0  0  0  0  0  0  0  0  0  0  0  0
    3.3792    0.2208    0.0000 C   0  0  0  0  0  0  0  0  0  0  0  0
  2  1  2  0  0  0  0
  3 12  1  0  0  0  0
  4  1  1  0  0  0  0
  5  1  1  0  0  0  0
  6  2  1  0  0  0  0
  7  5  1  0  0  0  0
  7  9  2  0  0  0  0
  8  6  1  0  0  0  0
  9  4  1  0  0  0  0
 10 16  1  0  0  0  0
 10 11  2  0  0  0  0
 11 13  1  0  0  0  0
 12 14  2  0  0  0  0
 12 24  1  0  0  0  0
 13  8  2  0  0  0  0
 14  7  1  0  0  0  0
 15  8  1  0  0  0  0
 16 15  2  0  0  0  0
 17 26  1  0  0  0  0
 18  9  1  0  0  0  0
 19 17  3  0  0  0  0
 20  3  2  0  0  0  0
 21  3  2  0  0  0  0
 22  6  2  0  0  0  0
 23  3  1  0  0  0  0
 24 18  2  0  0  0  0
 25 11  1  0  0  0  0
 26  4  1  0  0  0  0
 27 15  1  0  0  0  0
 28 16  1  0  0  0  0
 28 32  2  0  0  0  0
 29 25  1  0  0  0  0
 30 25  2  0  0  0  0
 31 27  2  0  0  0  0
 32 31  1  0  0  0  0
 33 29  2  0  0  0  0
 33 35  1  0  0  0  0
 34 30  1  0  0  0  0
 35 34  2  0  0  0  0
M  END
> <CdId>
2358

> <Mol Weight>
498.576

> <Formula>
C26H18N4O3S2

> <Click_ID>
CLK031_D04 __ __ 

$$$$
