CLK024_B09
 OpenBabel03181413202D

 28 30  0  0  0  0  0  0  0  0999 V2000
   -2.9621   -0.7148    0.0000 N    0  0  0  0  0  0  0  0  0  0  0  0
   -2.6906   -1.4948    0.0000 C    0  0  0  0  0  0  0  0  0  0  0  0
   -1.6356   -0.6907    0.0000 C    0  0  0  0  0  0  0  0  0  0  0  0
   -2.3229   -0.2165    0.0000 C    0  0  0  0  0  0  0  0  0  0  0  0
   -1.8659   -1.4776    0.0000 S    0  0  0  0  0  0  0  0  0  0  0  0
   -0.9209   -0.2680    0.0000 C    0  0  0  0  0  0  0  0  0  0  0  0
   -0.9278    0.5567    0.0000 C    0  0  0  0  0  0  0  0  0  0  0  0
    2.6287    0.9828    0.0000 C    0  0  0  0  0  0  0  0  0  0  0  0
   -3.8727    0.5051    0.0000 C    0  0  0  0  0  0  0  0  0  0  0  0
    1.9277    0.5670    0.0000 C    0  0  0  0  0  0  0  0  0  0  0  0
   -4.0651    1.3058    0.0000 C    0  0  0  0  0  0  0  0  0  0  0  0
    3.3401    0.5738    0.0000 C    0  0  0  0  0  0  0  0  0  0  0  0
   -3.1098   -2.2061    0.0000 O    0  0  0  0  0  0  0  0  0  0  0  0
   -0.2096    0.9690    0.0000 C    0  0  0  0  0  0  0  0  0  0  0  0
   -2.3229    0.6117    0.0000 O    0  0  0  0  0  0  0  0  0  0  0  0
    0.5017    0.5601    0.0000 O    0  0  0  0  0  0  0  0  0  0  0  0
   -3.6768   -0.3024    0.0000 C    0  0  0  0  0  0  0  0  0  0  0  0
   -1.6391    0.9690    0.0000 C    0  0  0  0  0  0  0  0  0  0  0  0
    1.2164    0.9725    0.0000 C    0  0  0  0  0  0  0  0  0  0  0  0
    1.9243   -0.2577    0.0000 C    0  0  0  0  0  0  0  0  0  0  0  0
   -0.2096    1.7972    0.0000 C    0  0  0  0  0  0  0  0  0  0  0  0
    3.3504   -0.2543    0.0000 C    0  0  0  0  0  0  0  0  0  0  0  0
   -1.6391    1.7972    0.0000 C    0  0  0  0  0  0  0  0  0  0  0  0
    2.6287    1.8075    0.0000 Cl   0  0  0  0  0  0  0  0  0  0  0  0
    2.6356   -0.6666    0.0000 C    0  0  0  0  0  0  0  0  0  0  0  0
   -0.9278    2.2096    0.0000 C    0  0  0  0  0  0  0  0  0  0  0  0
    4.0617   -0.6666    0.0000 Cl   0  0  0  0  0  0  0  0  0  0  0  0
   -2.3607    2.2096    0.0000 Br   0  0  0  0  0  0  0  0  0  0  0  0
  2  1  1  0  0  0  0
  3  4  1  0  0  0  0
  3  5  1  0  0  0  0
  4  1  1  0  0  0  0
  5  2  1  0  0  0  0
  6  3  2  0  0  0  0
  7  6  1  0  0  0  0
  8 10  1  0  0  0  0
  9 17  1  0  0  0  0
 10 19  1  0  0  0  0
 11  9  3  0  0  0  0
 12  8  2  0  0  0  0
 13  2  2  0  0  0  0
 14  7  2  0  0  0  0
 15  4  2  0  0  0  0
 16 14  1  0  0  0  0
 17  1  1  0  0  0  0
 18  7  1  0  0  0  0
 19 16  1  0  0  0  0
 20 10  2  0  0  0  0
 21 14  1  0  0  0  0
 22 25  2  0  0  0  0
 22 12  1  0  0  0  0
 23 18  2  0  0  0  0
 24  8  1  0  0  0  0
 25 20  1  0  0  0  0
 26 23  1  0  0  0  0
 26 21  2  0  0  0  0
 27 22  1  0  0  0  0
 28 23  1  0  0  0  0
M  END
> <CdId>
1794

> <Mol Weight>
497.189

> <Formula>
C20H12BrCl2NO3S

> <Click_ID>
CLK024_B09 __ __ 

$$$$
