CLK038A08
 OpenBabel03181413202D

 17 18  0  0  0  0  0  0  0  0999 V2000
    0.3378   -0.1168    0.0000 C   0  0  0  0  0  0  0  0  0  0  0  0
   -0.1459   -0.7840    0.0000 C   0  0  0  0  0  0  0  0  0  0  0  0
   -0.1459    0.5505    0.0000 O   0  0  0  0  0  0  0  0  0  0  0  0
   -0.9300   -0.5296    0.0000 C   0  0  0  0  0  0  0  0  0  0  0  0
   -0.9300    0.2960    0.0000 C   0  0  0  0  0  0  0  0  0  0  0  0
    1.1635   -0.1168    0.0000 C   0  0  0  0  0  0  0  0  0  0  0  0
    2.8149    1.3136    0.0000 C   0  0  0  0  0  0  0  0  0  0  0  0
    3.2277    2.0309    0.0000 C   0  0  0  0  0  0  0  0  0  0  0  0
   -1.6472   -0.9425    0.0000 C   0  0  0  0  0  0  0  0  0  0  0  0
    1.5763   -0.8299    0.0000 O   0  0  0  0  0  0  0  0  0  0  0  0
   -1.6472    0.7089    0.0000 C   0  0  0  0  0  0  0  0  0  0  0  0
    1.5763    0.6005    0.0000 N   0  0  0  0  0  0  0  0  0  0  0  0
   -2.3603   -0.5296    0.0000 C   0  0  0  0  0  0  0  0  0  0  0  0
    0.1084   -1.5680    0.0000 C   0  0  0  0  0  0  0  0  0  0  0  0
   -2.3603    0.2960    0.0000 C   0  0  0  0  0  0  0  0  0  0  0  0
   -3.0776   -0.9425    0.0000 F   0  0  0  0  0  0  0  0  0  0  0  0
    2.4020    0.6005    0.0000 C   0  0  0  0  0  0  0  0  0  0  0  0
  2  1  2  0  0  0  0
  3  1  1  0  0  0  0
  4  2  1  0  0  0  0
  4  5  2  0  0  0  0
  5  3  1  0  0  0  0
  6  1  1  0  0  0  0
  7 17  1  0  0  0  0
  8  7  3  0  0  0  0
  9  4  1  0  0  0  0
 10  6  2  0  0  0  0
 11  5  1  0  0  0  0
 12  6  1  0  0  0  0
 13  9  2  0  0  0  0
 13 15  1  0  0  0  0
 14  2  1  0  0  0  0
 15 11  2  0  0  0  0
 16 13  1  0  0  0  0
 17 12  1  0  0  0  0
M  END
> <CdId>
2897

> <Mol Weight>
231.2224

> <Formula>
C13H10FNO2

> <Click_ID>
CLK038A08 __ __ 

$$$$
