CLK023_H10
 OpenBabel03181413202D

 29 31  0  0  0  0  0  0  0  0999 V2000
   -0.3678   -0.6256    0.0000 C    0  0  0  0  0  0  0  0  0  0  0  0
   -1.0862   -1.0381    0.0000 C    0  0  0  0  0  0  0  0  0  0  0  0
   -1.7978   -0.6256    0.0000 N    0  0  0  0  0  0  0  0  0  0  0  0
    0.3471   -1.0450    0.0000 C    0  0  0  0  0  0  0  0  0  0  0  0
   -3.2139    0.2028    0.0000 N    0  0  0  0  0  0  0  0  0  0  0  0
   -0.3609    0.1994    0.0000 C    0  0  0  0  0  0  0  0  0  0  0  0
   -0.3678    1.0244    0.0000 N    0  0  0  0  0  0  0  0  0  0  0  0
    4.6336    0.5913    0.0000 C    0  0  0  0  0  0  0  0  0  0  0  0
    5.3485    1.0106    0.0000 C    0  0  0  0  0  0  0  0  0  0  0  0
    1.7840    0.5981    0.0000 C    0  0  0  0  0  0  0  0  0  0  0  0
    1.0622   -0.6325    0.0000 C    0  0  0  0  0  0  0  0  0  0  0  0
   -1.0862   -1.8630    0.0000 O    0  0  0  0  0  0  0  0  0  0  0  0
   -2.5093   -1.0381    0.0000 C    0  0  0  0  0  0  0  0  0  0  0  0
   -1.7908    0.1994    0.0000 C    0  0  0  0  0  0  0  0  0  0  0  0
   -3.2242   -0.6256    0.0000 C    0  0  0  0  0  0  0  0  0  0  0  0
   -2.4990    0.6119    0.0000 C    0  0  0  0  0  0  0  0  0  0  0  0
    1.0622    0.1856    0.0000 C    0  0  0  0  0  0  0  0  0  0  0  0
    2.4955    0.1856    0.0000 C    0  0  0  0  0  0  0  0  0  0  0  0
   -3.9255    0.6256    0.0000 C    0  0  0  0  0  0  0  0  0  0  0  0
    2.4955   -0.6359    0.0000 C    0  0  0  0  0  0  0  0  0  0  0  0
    1.7875    1.4265    0.0000 Br   0  0  0  0  0  0  0  0  0  0  0  0
    1.7737   -1.0450    0.0000 C    0  0  0  0  0  0  0  0  0  0  0  0
    3.2105    0.5981    0.0000 O    0  0  0  0  0  0  0  0  0  0  0  0
    3.9221    0.1788    0.0000 C    0  0  0  0  0  0  0  0  0  0  0  0
   -3.9221    1.4505    0.0000 C    0  0  0  0  0  0  0  0  0  0  0  0
   -4.6370    0.2131    0.0000 C    0  0  0  0  0  0  0  0  0  0  0  0
   -4.6233    1.8665    0.0000 C    0  0  0  0  0  0  0  0  0  0  0  0
   -5.3485    0.6359    0.0000 C    0  0  0  0  0  0  0  0  0  0  0  0
   -5.3417    1.4609    0.0000 C    0  0  0  0  0  0  0  0  0  0  0  0
  2  1  1  0  0  0  0
  3  2  1  0  0  0  0
  4  1  2  0  0  0  0
  5 16  1  0  0  0  0
  6  1  1  0  0  0  0
  7  6  3  0  0  0  0
  8 24  1  0  0  0  0
  9  8  3  0  0  0  0
 10 17  1  0  0  0  0
 11  4  1  0  0  0  0
 12  2  2  0  0  0  0
 13  3  1  0  0  0  0
 14  3  1  0  0  0  0
 15 13  1  0  0  0  0
 15  5  1  0  0  0  0
 16 14  1  0  0  0  0
 17 11  2  0  0  0  0
 18 20  1  0  0  0  0
 18 10  2  0  0  0  0
 19  5  1  0  0  0  0
 20 22  2  0  0  0  0
 21 10  1  0  0  0  0
 22 11  1  0  0  0  0
 23 18  1  0  0  0  0
 24 23  1  0  0  0  0
 25 19  2  0  0  0  0
 26 19  1  0  0  0  0
 27 25  1  0  0  0  0
 28 26  2  0  0  0  0
 29 28  1  0  0  0  0
 29 27  2  0  0  0  0
M  END
> <CdId>
1775

> <Mol Weight>
450.328

> <Formula>
C23H20BrN3O2

> <Click_ID>
CLK023_H10 __ __ 

$$$$
