CLK006_E09
 OpenBabel03181413202D

 26 28  0  0  0  0  0  0  0  0999 V2000
   -0.1623   -0.5075    0.0000 C   0  0  0  0  0  0  0  0  0  0  0  0
    0.5523   -0.0932    0.0000 C   0  0  3  0  0  0  0  0  0  0  0  0
   -0.1623   -1.3255    0.0000 C   0  0  0  0  0  0  0  0  0  0  0  0
   -0.8769   -0.0863    0.0000 C   0  0  0  0  0  0  0  0  0  0  0  0
    0.5523    0.7318    0.0000 C   0  0  0  0  0  0  0  0  0  0  0  0
    1.2635   -0.4971    0.0000 C   0  0  0  0  0  0  0  0  0  0  0  0
   -0.8769   -1.7364    0.0000 N   0  0  0  0  0  0  0  0  0  0  0  0
    0.5523   -1.7364    0.0000 N   0  0  0  0  0  0  0  0  0  0  0  0
   -1.5810   -0.5075    0.0000 N   0  0  0  0  0  0  0  0  0  0  0  0
   -0.8769    0.7422    0.0000 O   0  0  0  0  0  0  0  0  0  0  0  0
    1.2635    1.1461    0.0000 C   0  0  0  0  0  0  0  0  0  0  0  0
   -0.1623    1.1426    0.0000 C   0  0  0  0  0  0  0  0  0  0  0  0
    1.2635   -1.3255    0.0000 C   0  0  0  0  0  0  0  0  0  0  0  0
   -1.5810   -1.3325    0.0000 C   0  0  0  0  0  0  0  0  0  0  0  0
    1.2600    1.9712    0.0000 C   0  0  0  0  0  0  0  0  0  0  0  0
    2.0608    0.9320    0.0000 O   0  0  0  0  0  0  0  0  0  0  0  0
   -0.1761    1.9573    0.0000 C   0  0  0  0  0  0  0  0  0  0  0  0
    1.9781   -1.7364    0.0000 O   0  0  0  0  0  0  0  0  0  0  0  0
   -2.3025   -1.7467    0.0000 S   0  0  0  0  0  0  0  0  0  0  0  0
    0.5489    2.3785    0.0000 C   0  0  0  0  0  0  0  0  0  0  0  0
    1.9781    1.5569    0.0000 O   0  0  0  0  0  0  0  0  0  0  0  0
    2.4648    0.2209    0.0000 C   0  0  0  0  0  0  0  0  0  0  0  0
   -3.0136   -1.3325    0.0000 C   0  0  0  0  0  0  0  0  0  0  0  0
    2.7651    1.7778    0.0000 C   0  0  0  0  0  0  0  0  0  0  0  0
   -3.0136   -0.5075    0.0000 C   0  0  0  0  0  0  0  0  0  0  0  0
   -3.7282   -0.0932    0.0000 C   0  0  0  0  0  0  0  0  0  0  0  0
  1  2  1  0  0  0  0
  1  3  2  0  0  0  0
  1  4  1  0  0  0  0
  2  5  1  0  0  0  0
  2  6  1  0  0  0  0
  3  7  1  0  0  0  0
  3  8  1  0  0  0  0
  4  9  1  0  0  0  0
  4 10  2  0  0  0  0
  5 11  2  0  0  0  0
  5 12  1  0  0  0  0
  6 13  1  0  0  0  0
  7 14  2  0  0  0  0
  8 13  1  0  0  0  0
  9 14  1  0  0  0  0
 11 15  1  0  0  0  0
 11 16  1  0  0  0  0
 12 17  2  0  0  0  0
 13 18  2  0  0  0  0
 14 19  1  0  0  0  0
 15 20  2  0  0  0  0
 15 21  1  0  0  0  0
 16 22  1  0  0  0  0
 17 20  1  0  0  0  0
 19 23  1  0  0  0  0
 21 24  1  0  0  0  0
 23 25  1  0  0  0  0
 25 26  3  0  0  0  0
M  END
> <CdId>
448

> <Mol Weight>
371.41

> <Formula>
C18H17N3O4S

> <Click_ID>
CLK006_E09 __ __ 

$$$$
