CLK014_B07
 OpenBabel03181413202D

 21 22  0  0  0  0  0  0  0  0999 V2000
    1.5667   -0.8167    0.0000 N    0  0  0  0  0  0  0  0  0  0  0  0
    1.8250   -1.6042    0.0000 C    0  0  0  0  0  0  0  0  0  0  0  0
    2.2375   -0.3292    0.0000 C    0  0  0  0  0  0  0  0  0  0  0  0
    2.9042   -0.8167    0.0000 C    0  0  0  0  0  0  0  0  0  0  0  0
    2.6500   -1.6042    0.0000 S    0  0  0  0  0  0  0  0  0  0  0  0
    3.6917   -0.5625    0.0000 C    0  0  0  0  0  0  0  0  0  0  0  0
    4.1667    1.6958    0.0000 C    0  0  0  0  0  0  0  0  0  0  0  0
    4.8042    1.1875    0.0000 C    0  0  0  0  0  0  0  0  0  0  0  0
    0.6125    0.2458    0.0000 C    0  0  0  0  0  0  0  0  0  0  0  0
    0.3917    1.0458    0.0000 C    0  0  0  0  0  0  0  0  0  0  0  0
    1.3375   -2.2667    0.0000 O    0  0  0  0  0  0  0  0  0  0  0  0
    3.4000    1.4833    0.0000 C    0  0  0  0  0  0  0  0  0  0  0  0
    2.2292    0.4958    0.0000 O    0  0  0  0  0  0  0  0  0  0  0  0
    3.8625    0.2458    0.0000 C    0  0  0  0  0  0  0  0  0  0  0  0
    4.3500    2.5000    0.0000 N    0  0  0  0  0  0  0  0  0  0  0  0
    4.6417    0.4625    0.0000 C    0  0  0  0  0  0  0  0  0  0  0  0
    0.7875   -0.5625    0.0000 C    0  0  0  0  0  0  0  0  0  0  0  0
    5.5875    1.4583    0.0000 Br   0  0  0  0  0  0  0  0  0  0  0  0
    3.2417    0.7625    0.0000 C    0  0  0  0  0  0  0  0  0  0  0  0
    3.7292    3.0625    0.0000 C    0  0  0  0  0  0  0  0  0  0  0  0
    5.1417    2.7583    0.0000 C    0  0  0  0  0  0  0  0  0  0  0  0
  2  1  1  0  0  0  0
  3  1  1  0  0  0  0
  4  3  1  0  0  0  0
  4  5  1  0  0  0  0
  5  2  1  0  0  0  0
  6  4  2  0  0  0  0
  7 12  2  0  0  0  0
  7  8  1  0  0  0  0
  8 16  2  0  0  0  0
  9 17  1  0  0  0  0
 10  9  3  0  0  0  0
 11  2  2  0  0  0  0
 12 19  1  0  0  0  0
 13  3  2  0  0  0  0
 14  6  1  0  0  0  0
 15  7  1  0  0  0  0
 16 14  1  0  0  0  0
 17  1  1  0  0  0  0
 18  8  1  0  0  0  0
 19 14  2  0  0  0  0
 20 15  1  0  0  0  0
 21 15  1  0  0  0  0
M  END
> <CdId>
1012

> <Mol Weight>
365.245

> <Formula>
C15H13BrN2O2S

> <Click_ID>
CLK014_B07 __ __ 

$$$$
