CLK001_D03
 OpenBabel03181413202D

 30 33  0  0  0  0  0  0  0  0999 V2000
    0.8836   -0.5729    0.0000 C    0  0  0  0  0  0  0  0  0  0  0  0
    0.4659    0.1415    0.0000 C    0  0  3  0  0  0  0  0  0  0  0  0
    1.7085   -0.5729    0.0000 C    0  0  0  0  0  0  0  0  0  0  0  0
    0.6316   -1.3598    0.0000 C    0  0  0  0  0  0  0  0  0  0  0  0
    0.8836    0.8525    0.0000 C    0  0  0  0  0  0  0  0  0  0  0  0
   -0.3589    0.1415    0.0000 C    0  0  0  0  0  0  0  0  0  0  0  0
    1.9708   -1.3564    0.0000 C    0  0  0  0  0  0  0  0  0  0  0  0
    2.1191    0.1415    0.0000 N    0  0  0  0  0  0  0  0  0  0  0  0
    1.2978   -1.8465    0.0000 C    0  0  0  0  0  0  0  0  0  0  0  0
   -0.1553   -1.6222    0.0000 O    0  0  0  0  0  0  0  0  0  0  0  0
    1.7085    0.8525    0.0000 C    0  0  0  0  0  0  0  0  0  0  0  0
    0.4694    1.5669    0.0000 C    0  0  0  0  0  0  0  0  0  0  0  0
   -0.7697    0.8525    0.0000 C    0  0  0  0  0  0  0  0  0  0  0  0
   -0.7800   -0.5729    0.0000 C    0  0  0  0  0  0  0  0  0  0  0  0
    2.7232   -1.6877    0.0000 C    0  0  0  0  0  0  0  0  0  0  0  0
    1.3841   -2.6610    0.0000 C    0  0  0  0  0  0  0  0  0  0  0  0
    2.1226    1.5669    0.0000 C    0  0  0  0  0  0  0  0  0  0  0  0
    0.8836    2.2849    0.0000 O    0  0  0  0  0  0  0  0  0  0  0  0
   -0.3555    1.5704    0.0000 O    0  0  0  0  0  0  0  0  0  0  0  0
   -1.5946    0.8560    0.0000 C    0  0  0  0  0  0  0  0  0  0  0  0
   -1.6049   -0.5729    0.0000 C    0  0  0  0  0  0  0  0  0  0  0  0
    2.8095   -2.5126    0.0000 C    0  0  0  0  0  0  0  0  0  0  0  0
    2.1434   -2.9993    0.0000 C    0  0  0  0  0  0  0  0  0  0  0  0
    0.4797    2.9958    0.0000 C    0  0  0  0  0  0  0  0  0  0  0  0
   -2.0121    0.1449    0.0000 C    0  0  0  0  0  0  0  0  0  0  0  0
   -1.9984    1.5704    0.0000 Cl   0  0  0  0  0  0  0  0  0  0  0  0
   -2.8371    0.1518    0.0000 O    0  0  0  0  0  0  0  0  0  0  0  0
   -3.2444    0.8801    0.0000 C    0  0  0  0  0  0  0  0  0  0  0  0
   -4.0727    0.8801    0.0000 C    0  0  0  0  0  0  0  0  0  0  0  0
   -4.8976    0.8905    0.0000 C    0  0  0  0  0  0  0  0  0  0  0  0
  1  2  1  0  0  0  0
  1  3  2  0  0  0  0
  1  4  1  0  0  0  0
  2  5  1  0  0  0  0
  2  6  1  0  0  0  0
  3  7  1  0  0  0  0
  3  8  1  0  0  0  0
  4  9  1  0  0  0  0
  4 10  2  0  0  0  0
  5 11  2  0  0  0  0
  5 12  1  0  0  0  0
  6 13  1  0  0  0  0
  6 14  2  0  0  0  0
  7 15  1  0  0  0  0
  7  9  2  0  0  0  0
  8 11  1  0  0  0  0
  9 16  1  0  0  0  0
 11 17  1  0  0  0  0
 12 18  1  0  0  0  0
 12 19  2  0  0  0  0
 13 20  2  0  0  0  0
 14 21  1  0  0  0  0
 15 22  2  0  0  0  0
 16 23  2  0  0  0  0
 18 24  1  0  0  0  0
 20 25  1  0  0  0  0
 20 26  1  0  0  0  0
 21 25  2  0  0  0  0
 22 23  1  0  0  0  0
 25 27  1  0  0  0  0
 27 28  1  0  0  0  0
 28 29  1  0  0  0  0
 29 30  3  0  0  0  0
M  END
> <CdId>
32

> <Mol Weight>
419.857

> <Formula>
C24H18ClNO4

> <Click_ID>
CLK001_D03 __ __ 

$$$$
