CLK042G09
 OpenBabel03181413202D

 25 26  0  0  0  0  0  0  0  0999 V2000
    0.3130    0.7763    0.0000 C   0  0  0  0  0  0  0  0  0  0  0  0
   -0.1711    1.4441    0.0000 N   0  0  0  0  0  0  0  0  0  0  0  0
    1.0976    1.0309    0.0000 N   0  0  0  0  0  0  0  0  0  0  0  0
    0.3130    2.1119    0.0000 C   0  0  0  0  0  0  0  0  0  0  0  0
    1.0976    1.8573    0.0000 C   0  0  0  0  0  0  0  0  0  0  0  0
    0.0584   -0.0125    0.0000 S   0  0  0  0  0  0  0  0  0  0  0  0
    0.3965   -3.5978    0.0000 C   0  0  0  0  0  0  0  0  0  0  0  0
   -0.9975    1.4441    0.0000 C   0  0  0  0  0  0  0  0  0  0  0  0
    0.1419   -4.3824    0.0000 C   0  0  0  0  0  0  0  0  0  0  0  0
    0.3548   -1.4107    0.0000 C   0  0  0  0  0  0  0  0  0  0  0  0
    0.9098   -2.0242    0.0000 N   0  0  0  0  0  0  0  0  0  0  0  0
    0.6511   -2.8130    0.0000 C   0  0  0  0  0  0  0  0  0  0  0  0
   -0.4508   -1.5819    0.0000 O   0  0  0  0  0  0  0  0  0  0  0  0
   -2.2330    2.2455    0.0000 O   0  0  0  0  0  0  0  0  0  0  0  0
    0.6093   -0.6261    0.0000 C   0  0  0  0  0  0  0  0  0  0  0  0
   -1.4107    2.1578    0.0000 C   0  0  3  0  0  0  0  0  0  0  0  0
    0.0584    2.8966    0.0000 C   0  0  0  0  0  0  0  0  0  0  0  0
    1.7697    2.3414    0.0000 C   0  0  0  0  0  0  0  0  0  0  0  0
   -0.1335   -2.5543    0.0000 C   0  0  0  0  0  0  0  0  0  0  0  0
    1.4399   -3.0677    0.0000 C   0  0  0  0  0  0  0  0  0  0  0  0
   -2.4041    3.0551    0.0000 C   0  0  0  0  0  0  0  0  0  0  0  0
   -1.0768    2.9132    0.0000 C   0  0  0  0  0  0  0  0  0  0  0  0
   -0.3047   -1.7487    0.0000 C   0  0  0  0  0  0  0  0  0  0  0  0
    1.6110   -3.8732    0.0000 C   0  0  0  0  0  0  0  0  0  0  0  0
   -1.6903    3.4683    0.0000 C   0  0  0  0  0  0  0  0  0  0  0  0
  2  1  1  0  0  0  0
  3  1  2  0  0  0  0
  4  2  1  0  0  0  0
  4  5  2  0  0  0  0
  5  3  1  0  0  0  0
  6  1  1  0  0  0  0
  7 12  1  0  0  0  0
  8  2  1  0  0  0  0
  9  7  3  0  0  0  0
 10 15  1  0  0  0  0
 11 10  1  0  0  0  0
 12 11  1  0  0  0  0
 13 10  2  0  0  0  0
 14 16  1  0  0  0  0
 15  6  1  0  0  0  0
 16  8  1  0  0  0  0
 17  4  1  0  0  0  0
 18  5  1  0  0  0  0
 19 12  1  0  0  0  0
 20 12  1  0  0  0  0
 21 14  1  0  0  0  0
 21 25  1  0  0  0  0
 22 16  1  0  0  0  0
 23 19  1  0  0  0  0
 24 20  1  0  0  0  0
 25 22  1  0  0  0  0
M  END
> <CdId>
3231

> <Mol Weight>
363.517

> <Formula>
C19H29N3O2S

> <Click_ID>
CLK042G09 __ __ 

$$$$
