CLK021_B10
 OpenBabel03181413202D

 17 18  0  0  0  0  0  0  0  0999 V2000
    3.2569    1.9880    0.0000 N   0  0  0  0  0  0  0  0  0  0  0  0
    2.5470    1.5758    0.0000 C   0  0  0  0  0  0  0  0  0  0  0  0
    2.5470    0.7512    0.0000 C   0  0  0  0  0  0  0  0  0  0  0  0
    3.9715    1.5758    0.0000 C   0  0  0  0  0  0  0  0  0  0  0  0
    4.6861    1.9880    0.0000 C   0  0  0  0  0  0  0  0  0  0  0  0
    1.8324    0.3389    0.0000 C   0  0  0  0  0  0  0  0  0  0  0  0
    1.1177   -0.0733    0.0000 N   0  0  0  0  0  0  0  0  0  0  0  0
    5.4420    1.6445    0.0000 S   0  0  0  0  0  0  0  0  0  0  0  0
    1.1177    3.2248    0.0000 C   0  0  0  0  0  0  0  0  0  0  0  0
    0.4031    3.6371    0.0000 C   0  0  0  0  0  0  0  0  0  0  0  0
    4.7732    2.8034    0.0000 C   0  0  0  0  0  0  0  0  0  0  0  0
    3.2569    0.3389    0.0000 C   0  0  0  0  0  0  0  0  0  0  0  0
    5.9917    2.2629    0.0000 C   0  0  0  0  0  0  0  0  0  0  0  0
    3.9715    0.7512    0.0000 C   0  0  0  0  0  0  0  0  0  0  0  0
    5.5794    2.9775    0.0000 C   0  0  0  0  0  0  0  0  0  0  0  0
    1.8324    1.9880    0.0000 S   0  0  0  0  0  0  0  0  0  0  0  0
    1.8324    2.8126    0.0000 C   0  0  0  0  0  0  0  0  0  0  0  0
  2  1  1  0  0  0  0
  3  2  2  0  0  0  0
  4  1  2  0  0  0  0
  5  4  1  0  0  0  0
  6  3  1  0  0  0  0
  7  6  3  0  0  0  0
  8  5  1  0  0  0  0
  9 17  1  0  0  0  0
 10  9  3  0  0  0  0
 11  5  2  0  0  0  0
 12 14  2  0  0  0  0
 12  3  1  0  0  0  0
 13  8  1  0  0  0  0
 13 15  2  0  0  0  0
 14  4  1  0  0  0  0
 15 11  1  0  0  0  0
 16  2  1  0  0  0  0
 17 16  1  0  0  0  0
M  END
> <CdId>
1575

> <Mol Weight>
256.346

> <Formula>
C13H8N2S2

> <Click_ID>
CLK021_B10 __ __ 

$$$$
