CLK032_C11
 OpenBabel03181413202D

 26 29  0  0  0  0  0  0  0  0999 V2000
   -1.8997    2.1628    0.0000 C   0  0  0  0  0  0  0  0  0  0  0  0
   -1.0730    2.1628    0.0000 N   0  0  0  0  0  0  0  0  0  0  0  0
   -2.3799    2.8266    0.0000 N   0  0  0  0  0  0  0  0  0  0  0  0
   -2.3799    1.4864    0.0000 S   0  0  0  0  0  0  0  0  0  0  0  0
   -3.1691    2.5636    0.0000 C   0  0  0  0  0  0  0  0  0  0  0  0
   -0.6597    1.4488    0.0000 C   0  0  0  0  0  0  0  0  0  0  0  0
   -3.1648    1.7369    0.0000 C   0  0  0  0  0  0  0  0  0  0  0  0
    0.1670    1.4488    0.0000 C   0  0  3  0  0  0  0  0  0  0  0  0
    0.5804    0.7348    0.0000 O   0  0  0  0  0  0  0  0  0  0  0  0
    1.4029    2.1628    0.0000 O   0  0  0  0  0  0  0  0  0  0  0  0
    1.4029    0.7348    0.0000 C   0  0  0  0  0  0  0  0  0  0  0  0
   -1.3235    3.7786    0.0000 C   0  0  0  0  0  0  0  0  0  0  0  0
   -0.5219    3.9540    0.0000 C   0  0  0  0  0  0  0  0  0  0  0  0
    0.5762    2.1670    0.0000 C   0  0  0  0  0  0  0  0  0  0  0  0
    1.8163    1.4488    0.0000 C   0  0  0  0  0  0  0  0  0  0  0  0
   -3.8830    2.9895    0.0000 C   0  0  0  0  0  0  0  0  0  0  0  0
   -1.0647    0.7265    0.0000 O   0  0  0  0  0  0  0  0  0  0  0  0
   -2.1294    3.6158    0.0000 C   0  0  0  0  0  0  0  0  0  0  0  0
   -3.8830    3.8079    0.0000 F   0  0  0  0  0  0  0  0  0  0  0  0
   -3.8830    1.3277    0.0000 C   0  0  0  0  0  0  0  0  0  0  0  0
   -4.5928    1.7369    0.0000 C   0  0  0  0  0  0  0  0  0  0  0  0
    1.8079    0.0208    0.0000 C   0  0  0  0  0  0  0  0  0  0  0  0
   -4.5928    2.5636    0.0000 C   0  0  0  0  0  0  0  0  0  0  0  0
    2.6346    1.4488    0.0000 C   0  0  0  0  0  0  0  0  0  0  0  0
    2.6304    0.0208    0.0000 C   0  0  0  0  0  0  0  0  0  0  0  0
    3.0438    0.7348    0.0000 C   0  0  0  0  0  0  0  0  0  0  0  0
  2  1  2  0  0  0  0
  3  1  1  0  0  0  0
  4  1  1  0  0  0  0
  5  3  1  0  0  0  0
  6  2  1  0  0  0  0
  7  4  1  0  0  0  0
  7  5  2  0  0  0  0
  8  6  1  0  0  0  0
  9  8  1  0  0  0  0
 10 14  1  0  0  0  0
 11  9  1  0  0  0  0
 12 18  1  0  0  0  0
 13 12  3  0  0  0  0
 14  8  1  0  0  0  0
 15 10  1  0  0  0  0
 15 11  2  0  0  0  0
 16  5  1  0  0  0  0
 17  6  2  0  0  0  0
 18  3  1  0  0  0  0
 19 16  1  0  0  0  0
 20  7  1  0  0  0  0
 21 20  2  0  0  0  0
 21 23  1  0  0  0  0
 22 11  1  0  0  0  0
 23 16  2  0  0  0  0
 24 15  1  0  0  0  0
 25 22  2  0  0  0  0
 25 26  1  0  0  0  0
 26 24  2  0  0  0  0
M  END
> <CdId>
2435

> <Mol Weight>
368.382

> <Formula>
C19H13FN2O3S

> <Click_ID>
CLK032_C11 __ __ 

$$$$
