CLK005_E05
 OpenBabel03181413202D

 21 23  0  0  0  0  0  0  0  0999 V2000
   -0.9458    0.2555    0.0000 C   0  0  0  0  0  0  0  0  0  0  0  0
   -0.1208    0.2555    0.0000 C   0  0  0  0  0  0  0  0  0  0  0  0
   -1.4360    0.9285    0.0000 N   0  0  0  0  0  0  0  0  0  0  0  0
   -1.4360   -0.4107    0.0000 S   0  0  0  0  0  0  0  0  0  0  0  0
    0.2969   -0.4453    0.0000 C   0  0  0  0  0  0  0  0  0  0  0  0
    0.2934    0.9700    0.0000 C   0  0  0  0  0  0  0  0  0  0  0  0
   -2.2194    0.6662    0.0000 C   0  0  0  0  0  0  0  0  0  0  0  0
   -2.2194   -0.1588    0.0000 C   0  0  0  0  0  0  0  0  0  0  0  0
    1.1218   -0.4557    0.0000 C   0  0  0  0  0  0  0  0  0  0  0  0
    1.1218    0.9665    0.0000 C   0  0  0  0  0  0  0  0  0  0  0  0
   -2.9375    1.0804    0.0000 C   0  0  0  0  0  0  0  0  0  0  0  0
   -2.9375   -0.5730    0.0000 C   0  0  0  0  0  0  0  0  0  0  0  0
    1.5361    0.2450    0.0000 C   0  0  0  0  0  0  0  0  0  0  0  0
    1.5361   -1.1667    0.0000 O   0  0  0  0  0  0  0  0  0  0  0  0
   -3.6485    0.6662    0.0000 C   0  0  0  0  0  0  0  0  0  0  0  0
   -3.6485   -0.1588    0.0000 C   0  0  0  0  0  0  0  0  0  0  0  0
    2.3472    0.2450    0.0000 O   0  0  0  0  0  0  0  0  0  0  0  0
    1.1080   -1.8743    0.0000 C   0  0  0  0  0  0  0  0  0  0  0  0
    3.3827    0.2416    0.0000 C   0  0  0  0  0  0  0  0  0  0  0  0
    3.8867   -0.6351    0.0000 C   0  0  0  0  0  0  0  0  0  0  0  0
    4.9222   -0.6455    0.0000 C   0  0  0  0  0  0  0  0  0  0  0  0
  1  2  1  0  0  0  0
  1  3  2  0  0  0  0
  1  4  1  0  0  0  0
  2  5  1  0  0  0  0
  2  6  2  0  0  0  0
  3  7  1  0  0  0  0
  4  8  1  0  0  0  0
  5  9  2  0  0  0  0
  6 10  1  0  0  0  0
  7 11  2  0  0  0  0
  7  8  1  0  0  0  0
  8 12  2  0  0  0  0
  9 13  1  0  0  0  0
  9 14  1  0  0  0  0
 10 13  2  0  0  0  0
 11 15  1  0  0  0  0
 12 16  1  0  0  0  0
 13 17  1  0  0  0  0
 14 18  1  0  0  0  0
 15 16  2  0  0  0  0
 17 19  1  0  0  0  0
 19 20  1  0  0  0  0
 20 21  3  0  0  0  0
M  END
> <CdId>
364

> <Mol Weight>
295.356

> <Formula>
C17H13NO2S

> <Click_ID>
CLK005_E05 __ __ 

$$$$
