CLK004_E08
 OpenBabel03181413202D

 24 26  0  0  0  0  0  0  0  0999 V2000
    0.1437   -0.1478    0.0000 C   0  0  0  0  0  0  0  0  0  0  0  0
    0.6852    0.4769    0.0000 C   0  0  0  0  0  0  0  0  0  0  0  0
   -0.6185    0.1729    0.0000 N   0  0  0  0  0  0  0  0  0  0  0  0
    0.4124   -0.9268    0.0000 N   0  0  0  0  0  0  0  0  0  0  0  0
    1.4912    0.3207    0.0000 C   0  0  0  0  0  0  0  0  0  0  0  0
    0.2583    1.1850    0.0000 N   0  0  0  0  0  0  0  0  0  0  0  0
   -1.3225   -0.2561    0.0000 C   0  0  0  0  0  0  0  0  0  0  0  0
   -0.5456    0.9934    0.0000 N   0  0  0  0  0  0  0  0  0  0  0  0
    1.2225   -1.0829    0.0000 C   0  0  0  0  0  0  0  0  0  0  0  0
    1.7640   -0.4644    0.0000 N   0  0  0  0  0  0  0  0  0  0  0  0
    2.0347    0.9434    0.0000 N   0  0  0  0  0  0  0  0  0  0  0  0
   -2.0451    0.1458    0.0000 C   0  0  0  0  0  0  0  0  0  0  0  0
    1.4912   -1.8577    0.0000 C   0  0  0  0  0  0  0  0  0  0  0  0
    2.8427    0.7872    0.0000 C   0  0  0  0  0  0  0  0  0  0  0  0
   -2.7511   -0.2791    0.0000 C   0  0  0  0  0  0  0  0  0  0  0  0
   -2.0638    0.9663    0.0000 C   0  0  0  0  0  0  0  0  0  0  0  0
    0.9538   -2.4824    0.0000 C   0  0  0  0  0  0  0  0  0  0  0  0
    3.3821    1.4120    0.0000 C   0  0  0  0  0  0  0  0  0  0  0  0
   -3.4759    0.1187    0.0000 C   0  0  0  0  0  0  0  0  0  0  0  0
   -2.7365   -1.1100    0.0000 F   0  0  0  0  0  0  0  0  0  0  0  0
   -2.7844    1.3704    0.0000 C   0  0  0  0  0  0  0  0  0  0  0  0
    1.2225   -3.2634    0.0000 C   0  0  0  0  0  0  0  0  0  0  0  0
    3.9257    2.0326    0.0000 C   0  0  0  0  0  0  0  0  0  0  0  0
   -3.4884    0.9434    0.0000 C   0  0  0  0  0  0  0  0  0  0  0  0
  1  2  1  0  0  0  0
  1  3  1  0  0  0  0
  1  4  2  0  0  0  0
  2  5  2  0  0  0  0
  2  6  1  0  0  0  0
  3  7  1  0  0  0  0
  3  8  1  0  0  0  0
  4  9  1  0  0  0  0
  5 10  1  0  0  0  0
  5 11  1  0  0  0  0
  6  8  2  0  0  0  0
  7 12  1  0  0  0  0
  9 13  1  0  0  0  0
  9 10  2  0  0  0  0
 11 14  1  0  0  0  0
 12 15  2  0  0  0  0
 12 16  1  0  0  0  0
 13 17  1  0  0  0  0
 14 18  1  0  0  0  0
 15 19  1  0  0  0  0
 15 20  1  0  0  0  0
 16 21  2  0  0  0  0
 17 22  1  0  0  0  0
 18 23  3  0  0  0  0
 19 24  2  0  0  0  0
 21 24  1  0  0  0  0
M  END
> <CdId>
287

> <Mol Weight>
324.3555

> <Formula>
C17H17FN6

> <Click_ID>
CLK004_E08 __ __ 

$$$$
