CLK039A09
 OpenBabel03181413202D

 18 19  0  0  0  0  0  0  0  0999 V2000
   -0.4994    0.4245    0.0000 N   0  0  0  0  0  0  0  0  0  0  0  0
   -0.0167    1.0905    0.0000 C   0  0  0  0  0  0  0  0  0  0  0  0
    0.7699    0.8365    0.0000 S   0  0  0  0  0  0  0  0  0  0  0  0
   -0.0167   -0.2455    0.0000 C   0  0  0  0  0  0  0  0  0  0  0  0
   -0.2705   -1.0280    0.0000 C   0  0  0  0  0  0  0  0  0  0  0  0
    0.7699    0.0125    0.0000 C   0  0  0  0  0  0  0  0  0  0  0  0
    0.3246   -3.8206    0.0000 C   0  0  0  0  0  0  0  0  0  0  0  0
    0.2830   -1.6398    0.0000 C   0  0  0  0  0  0  0  0  0  0  0  0
    0.0707   -4.6030    0.0000 C   0  0  0  0  0  0  0  0  0  0  0  0
   -0.2705    1.8729    0.0000 C   0  0  0  0  0  0  0  0  0  0  0  0
    1.0863   -1.4691    0.0000 O   0  0  0  0  0  0  0  0  0  0  0  0
    0.0292   -2.4222    0.0000 N   0  0  0  0  0  0  0  0  0  0  0  0
    0.5785   -3.0340    0.0000 C   0  0  0  0  0  0  0  0  0  0  0  0
    0.2830    2.4847    0.0000 C   0  0  0  0  0  0  0  0  0  0  0  0
   -1.0738    2.0435    0.0000 C   0  0  0  0  0  0  0  0  0  0  0  0
   -1.3318    2.8301    0.0000 C   0  0  0  0  0  0  0  0  0  0  0  0
    0.0292    3.2713    0.0000 C   0  0  0  0  0  0  0  0  0  0  0  0
   -0.7783    3.4419    0.0000 C   0  0  0  0  0  0  0  0  0  0  0  0
  2  1  2  0  0  0  0
  3  2  1  0  0  0  0
  3  6  1  0  0  0  0
  4  1  1  0  0  0  0
  5  4  1  0  0  0  0
  6  4  2  0  0  0  0
  7 13  1  0  0  0  0
  8  5  1  0  0  0  0
  9  7  3  0  0  0  0
 10  2  1  0  0  0  0
 11  8  2  0  0  0  0
 12  8  1  0  0  0  0
 13 12  1  0  0  0  0
 14 10  1  0  0  0  0
 15 10  2  0  0  0  0
 16 15  1  0  0  0  0
 17 14  2  0  0  0  0
 18 16  2  0  0  0  0
 18 17  1  0  0  0  0
M  END
> <CdId>
2985

> <Mol Weight>
256.323

> <Formula>
C14H12N2OS

> <Click_ID>
CLK039A09 __ __ 

$$$$
