CLK004_A05
 OpenBabel03181413202D

 16 17  0  0  0  0  0  0  0  0999 V2000
    1.2383   -0.1896    0.0000 C   0  0  0  0  0  0  0  0  0  0  0  0
    0.4684   -0.4760    0.0000 N   0  0  0  0  0  0  0  0  0  0  0  0
    1.2080    0.6315    0.0000 C   0  0  0  0  0  0  0  0  0  0  0  0
    2.0367   -0.4134    0.0000 C   0  0  0  0  0  0  0  0  0  0  0  0
   -0.0417    0.1650    0.0000 C   0  0  0  0  0  0  0  0  0  0  0  0
    0.2427   -1.2687    0.0000 C   0  0  0  0  0  0  0  0  0  0  0  0
    0.4134    0.8534    0.0000 C   0  0  0  0  0  0  0  0  0  0  0  0
    1.9817    0.9159    0.0000 S   0  0  0  0  0  0  0  0  0  0  0  0
    2.4937    0.2693    0.0000 C   0  0  0  0  0  0  0  0  0  0  0  0
   -0.8667    0.1328    0.0000 C   0  0  0  0  0  0  0  0  0  0  0  0
   -0.5556   -1.4754    0.0000 C   0  0  0  0  0  0  0  0  0  0  0  0
   -1.3066    0.8325    0.0000 O   0  0  0  0  0  0  0  0  0  0  0  0
   -1.2516   -0.5936    0.0000 O   0  0  0  0  0  0  0  0  0  0  0  0
   -1.3559   -1.6783    0.0000 C   0  0  0  0  0  0  0  0  0  0  0  0
   -2.1315    0.7984    0.0000 C   0  0  0  0  0  0  0  0  0  0  0  0
   -2.5715    1.4962    0.0000 C   0  0  0  0  0  0  0  0  0  0  0  0
  1  2  1  0  0  0  0
  1  3  2  0  0  0  0
  1  4  1  0  0  0  0
  2  5  1  0  0  0  0
  2  6  1  0  0  0  0
  3  7  1  0  0  0  0
  3  8  1  0  0  0  0
  4  9  2  0  0  0  0
  5 10  1  0  0  0  0
  5  7  2  0  0  0  0
  6 11  1  0  0  0  0
  8  9  1  0  0  0  0
 10 12  1  0  0  0  0
 10 13  2  0  0  0  0
 11 14  3  0  0  0  0
 12 15  1  0  0  0  0
 15 16  1  0  0  0  0
M  END
> <CdId>
244

> <Mol Weight>
233.286

> <Formula>
C12H11NO2S

> <Click_ID>
CLK004_A05 __ __ 

$$$$
