CLK040A11
 OpenBabel03181413202D

 26 28  0  0  0  0  0  0  0  0999 V2000
    0.5830   -0.8997    0.0000 N   0  0  0  0  0  0  0  0  0  0  0  0
    0.1000   -0.2291    0.0000 C   0  0  0  0  0  0  0  0  0  0  0  0
    1.3662   -0.6414    0.0000 C   0  0  0  0  0  0  0  0  0  0  0  0
    0.5830    0.4373    0.0000 C   0  0  0  0  0  0  0  0  0  0  0  0
    1.3662    0.1832    0.0000 N   0  0  0  0  0  0  0  0  0  0  0  0
    0.3291   -1.6827    0.0000 C   0  0  0  0  0  0  0  0  0  0  0  0
   -1.7951   -3.5944    0.0000 C   0  0  0  0  0  0  0  0  0  0  0  0
   -2.0492   -4.3776    0.0000 C   0  0  0  0  0  0  0  0  0  0  0  0
   -0.7247   -0.2291    0.0000 O   0  0  0  0  0  0  0  0  0  0  0  0
   -0.4790   -1.8535    0.0000 C   0  0  0  0  0  0  0  0  0  0  0  0
    2.0325   -1.1288    0.0000 O   0  0  0  0  0  0  0  0  0  0  0  0
   -0.0708    0.9414    0.0000 C   0  0  0  0  0  0  0  0  0  0  0  0
    0.8164    1.2288    0.0000 C   0  0  0  0  0  0  0  0  0  0  0  0
   -1.0289   -1.2413    0.0000 O   0  0  0  0  0  0  0  0  0  0  0  0
   -0.7330   -2.6366    0.0000 N   0  0  0  0  0  0  0  0  0  0  0  0
   -1.5411   -2.8115    0.0000 C   0  0  0  0  0  0  0  0  0  0  0  0
   -0.8330    0.6247    0.0000 C   0  0  0  0  0  0  0  0  0  0  0  0
    0.0375    1.7576    0.0000 C   0  0  0  0  0  0  0  0  0  0  0  0
    1.6161    1.4203    0.0000 C   0  0  0  0  0  0  0  0  0  0  0  0
    0.2457    1.8243    0.0000 C   0  0  0  0  0  0  0  0  0  0  0  0
   -0.6164    2.2616    0.0000 C   0  0  0  0  0  0  0  0  0  0  0  0
    1.8493    2.2116    0.0000 C   0  0  0  0  0  0  0  0  0  0  0  0
    0.4790    2.6158    0.0000 C   0  0  0  0  0  0  0  0  0  0  0  0
   -1.4870    1.1288    0.0000 C   0  0  0  0  0  0  0  0  0  0  0  0
   -1.3787    1.9451    0.0000 C   0  0  0  0  0  0  0  0  0  0  0  0
    1.2787    2.8115    0.0000 C   0  0  0  0  0  0  0  0  0  0  0  0
  2  1  1  0  0  0  0
  3  1  1  0  0  0  0
  4  2  1  0  0  0  0
  4  5  1  0  0  0  0
  5  3  1  0  0  0  0
  6  1  1  0  0  0  0
  7 16  1  0  0  0  0
  8  7  3  0  0  0  0
  9  2  2  0  0  0  0
 10  6  1  0  0  0  0
 11  3  2  0  0  0  0
 12  4  1  0  0  0  0
 13  4  1  0  0  0  0
 14 10  2  0  0  0  0
 15 10  1  0  0  0  0
 16 15  1  0  0  0  0
 17 12  2  0  0  0  0
 18 12  1  0  0  0  0
 19 13  1  0  0  0  0
 20 13  2  0  0  0  0
 21 18  2  0  0  0  0
 22 19  2  0  0  0  0
 23 20  1  0  0  0  0
 24 17  1  0  0  0  0
 25 24  2  0  0  0  0
 25 21  1  0  0  0  0
 26 23  2  0  0  0  0
 26 22  1  0  0  0  0
M  END
> <CdId>
3081

> <Mol Weight>
347.3673

> <Formula>
C20H17N3O3

> <Click_ID>
CLK040A11 __ __ 

$$$$
