CLK041A04
 OpenBabel03181413202D

 22 24  0  0  0  0  0  0  0  0999 V2000
   -0.6164   -0.5289    0.0000 C   0  0  0  0  0  0  0  0  0  0  0  0
   -0.1332   -1.1951    0.0000 C   0  0  0  0  0  0  0  0  0  0  0  0
   -0.2790    0.2249    0.0000 C   0  0  0  0  0  0  0  0  0  0  0  0
    0.5414    0.3123    0.0000 N   0  0  0  0  0  0  0  0  0  0  0  0
   -1.3992   -0.7829    0.0000 C   0  0  0  0  0  0  0  0  0  0  0  0
    0.6871   -1.1077    0.0000 N   0  0  0  0  0  0  0  0  0  0  0  0
   -1.3992   -1.6074    0.0000 C   0  0  0  0  0  0  0  0  0  0  0  0
   -0.6164   -1.8615    0.0000 S   0  0  0  0  0  0  0  0  0  0  0  0
    1.0244   -0.3540    0.0000 C   0  0  0  0  0  0  0  0  0  0  0  0
    0.8745    1.0661    0.0000 C   0  0  0  0  0  0  0  0  0  0  0  0
   -2.1155   -0.3706    0.0000 C   0  0  0  0  0  0  0  0  0  0  0  0
    3.1858    2.7443    0.0000 C   0  0  0  0  0  0  0  0  0  0  0  0
    3.5231    3.4981    0.0000 C   0  0  0  0  0  0  0  0  0  0  0  0
    1.6949    1.1536    0.0000 C   0  0  0  0  0  0  0  0  0  0  0  0
   -2.1155   -2.0197    0.0000 C   0  0  0  0  0  0  0  0  0  0  0  0
   -0.7663    0.8953    0.0000 O   0  0  0  0  0  0  0  0  0  0  0  0
    2.1780    0.4830    0.0000 O   0  0  0  0  0  0  0  0  0  0  0  0
    2.0322    1.9032    0.0000 N   0  0  0  0  0  0  0  0  0  0  0  0
   -2.8277   -0.7829    0.0000 C   0  0  0  0  0  0  0  0  0  0  0  0
   -2.8277   -1.6074    0.0000 C   0  0  3  0  0  0  0  0  0  0  0  0
    2.8484    1.9906    0.0000 C   0  0  0  0  0  0  0  0  0  0  0  0
   -3.5439   -2.0197    0.0000 C   0  0  0  0  0  0  0  0  0  0  0  0
  2  1  2  0  0  0  0
  3  1  1  0  0  0  0
  4  3  1  0  0  0  0
  4  9  1  0  0  0  0
  5  1  1  0  0  0  0
  6  2  1  0  0  0  0
  7  5  2  0  0  0  0
  8  2  1  0  0  0  0
  8  7  1  0  0  0  0
  9  6  2  0  0  0  0
 10  4  1  0  0  0  0
 11  5  1  0  0  0  0
 12 21  1  0  0  0  0
 13 12  3  0  0  0  0
 14 10  1  0  0  0  0
 15  7  1  0  0  0  0
 16  3  2  0  0  0  0
 17 14  2  0  0  0  0
 18 14  1  0  0  0  0
 19 11  1  0  0  0  0
 19 20  1  0  0  0  0
 20 15  1  0  0  0  0
 21 18  1  0  0  0  0
 22 20  1  0  0  0  0
M  END
> <CdId>
3105

> <Mol Weight>
315.39

> <Formula>
C16H17N3O2S

> <Click_ID>
CLK041A04 __ __ 

$$$$
