CLK004_E06
 OpenBabel03181413202D

 24 26  0  0  0  0  0  0  0  0999 V2000
   -1.4754    0.1137    0.0000 C   0  0  0  0  0  0  0  0  0  0  0  0
   -0.6637    0.2579    0.0000 C   0  0  3  0  0  0  0  0  0  0  0  0
   -1.5892   -0.7016    0.0000 C   0  0  0  0  0  0  0  0  0  0  0  0
   -2.1202    0.6296    0.0000 C   0  0  0  0  0  0  0  0  0  0  0  0
   -0.2768   -0.4703    0.0000 C   0  0  0  0  0  0  0  0  0  0  0  0
    0.2655    0.8913    0.0000 C   0  0  0  0  0  0  0  0  0  0  0  0
   -0.9255    1.1947    0.0000 O   0  0  0  0  0  0  0  0  0  0  0  0
   -0.8572   -1.0620    0.0000 N   0  0  0  0  0  0  0  0  0  0  0  0
   -2.3554   -1.0051    0.0000 C   0  0  0  0  0  0  0  0  0  0  0  0
   -2.8901    0.3186    0.0000 C   0  0  0  0  0  0  0  0  0  0  0  0
    0.5424   -0.5879    0.0000 O   0  0  0  0  0  0  0  0  0  0  0  0
    1.0544    0.4703    0.0000 C   0  0  0  0  0  0  0  0  0  0  0  0
   -0.7092   -1.8736    0.0000 C   0  0  0  0  0  0  0  0  0  0  0  0
   -3.0039   -0.4968    0.0000 C   0  0  0  0  0  0  0  0  0  0  0  0
    1.7561    0.9179    0.0000 C   0  0  0  0  0  0  0  0  0  0  0  0
    1.0923   -0.2162    0.0000 O   0  0  0  0  0  0  0  0  0  0  0  0
   -1.3427   -2.4085    0.0000 C   0  0  0  0  0  0  0  0  0  0  0  0
    2.4843    0.5348    0.0000 C   0  0  0  0  0  0  0  0  0  0  0  0
    1.7143    1.7447    0.0000 C   0  0  0  0  0  0  0  0  0  0  0  0
   -1.9723   -2.9318    0.0000 C   0  0  0  0  0  0  0  0  0  0  0  0
    3.1822    0.9786    0.0000 C   0  0  0  0  0  0  0  0  0  0  0  0
    2.5222   -0.2920    0.0000 O   0  0  0  0  0  0  0  0  0  0  0  0
    2.4122    2.1846    0.0000 C   0  0  0  0  0  0  0  0  0  0  0  0
    3.1442    1.8054    0.0000 C   0  0  0  0  0  0  0  0  0  0  0  0
  1  2  1  0  0  0  0
  1  3  2  0  0  0  0
  1  4  1  0  0  0  0
  2  5  1  0  0  0  0
  2  6  1  0  0  0  0
  2  7  1  0  0  0  0
  3  8  1  0  0  0  0
  3  9  1  0  0  0  0
  4 10  2  0  0  0  0
  5 11  2  0  0  0  0
  5  8  1  0  0  0  0
  6 12  1  0  0  0  0
  8 13  1  0  0  0  0
  9 14  2  0  0  0  0
 10 14  1  0  0  0  0
 12 15  1  0  0  0  0
 12 16  2  0  0  0  0
 13 17  1  0  0  0  0
 15 18  1  0  0  0  0
 15 19  2  0  0  0  0
 17 20  3  0  0  0  0
 18 21  2  0  0  0  0
 18 22  1  0  0  0  0
 19 23  1  0  0  0  0
 21 24  1  0  0  0  0
 23 24  2  0  0  0  0
M  END
> <CdId>
285

> <Mol Weight>
321.3267

> <Formula>
C19H15NO4

> <Click_ID>
CLK004_E06 __ __ 

$$$$
