CLK044G09
 OpenBabel03181413202D

 18 19  0  0  0  0  0  0  0  0999 V2000
   -0.7866    1.5566    0.0000 N   0  0  0  0  0  0  0  0  0  0  0  0
   -1.2736    2.2225    0.0000 C   0  0  0  0  0  0  0  0  0  0  0  0
   -0.4912    0.1581    0.0000 C   0  0  0  0  0  0  0  0  0  0  0  0
   -1.0446    0.7699    0.0000 C   0  0  0  0  0  0  0  0  0  0  0  0
    1.9686   -1.5066    0.0000 C   0  0  0  0  0  0  0  0  0  0  0  0
   -0.0042    2.6346    0.0000 S   0  0  0  0  0  0  0  0  0  0  0  0
    2.7761   -1.3360    0.0000 C   0  0  0  0  0  0  0  0  0  0  0  0
   -0.7450   -0.6243    0.0000 N   0  0  0  0  0  0  0  0  0  0  0  0
   -0.0042    1.8105    0.0000 C   0  0  0  0  0  0  0  0  0  0  0  0
   -2.0977    2.2225    0.0000 O   0  0  0  0  0  0  0  0  0  0  0  0
    0.3163    0.3329    0.0000 O   0  0  0  0  0  0  0  0  0  0  0  0
   -0.1956   -1.2361    0.0000 C   0  0  0  0  0  0  0  0  0  0  0  0
    1.1612   -1.6773    0.0000 C   0  0  0  0  0  0  0  0  0  0  0  0
   -0.7866    2.8885    0.0000 C   0  0  0  0  0  0  0  0  0  0  0  0
    0.6118   -1.0655    0.0000 C   0  0  0  0  0  0  0  0  0  0  0  0
    0.1041   -2.6346    0.0000 C   0  0  0  0  0  0  0  0  0  0  0  0
   -0.4495   -2.0185    0.0000 C   0  0  0  0  0  0  0  0  0  0  0  0
    0.9073   -2.4598    0.0000 C   0  0  0  0  0  0  0  0  0  0  0  0
  2  1  1  0  0  0  0
  3  4  1  0  0  0  0
  4  1  1  0  0  0  0
  5 13  1  0  0  0  0
  6  9  1  0  0  0  0
  7  5  3  0  0  0  0
  8  3  1  0  0  0  0
  9  1  1  0  0  0  0
 10  2  2  0  0  0  0
 11  3  2  0  0  0  0
 12  8  1  0  0  0  0
 13 15  1  0  0  0  0
 14  2  1  0  0  0  0
 14  6  1  0  0  0  0
 15 12  2  0  0  0  0
 16 17  2  0  0  0  0
 17 12  1  0  0  0  0
 18 13  2  0  0  0  0
 18 16  1  0  0  0  0
M  END
> <CdId>
3391

> <Mol Weight>
260.312

> <Formula>
C13H12N2O2S

> <Click_ID>
CLK044G09 __ __ 

$$$$
