CLK025_H06
 OpenBabel03181413202D

 25 27  0  0  0  0  0  0  0  0999 V2000
   -0.3353   -0.2760    0.0000 C    0  0  3  0  0  0  0  0  0  0  0  0
    0.1293   -0.9081    0.0000 C    0  0  0  0  0  0  0  0  0  0  0  0
   -0.3353   -1.6102    0.0000 N    0  0  0  0  0  0  0  0  0  0  0  0
   -1.1177   -0.5275    0.0000 C    0  0  0  0  0  0  0  0  0  0  0  0
   -1.1177   -1.3587    0.0000 C    0  0  0  0  0  0  0  0  0  0  0  0
    0.5099    0.5030    0.0000 C    0  0  0  0  0  0  0  0  0  0  0  0
   -0.5868   -3.0109    0.0000 C    0  0  0  0  0  0  0  0  0  0  0  0
    2.1621    2.3961    0.0000 C    0  0  0  0  0  0  0  0  0  0  0  0
   -1.8373   -1.7709    0.0000 C    0  0  0  0  0  0  0  0  0  0  0  0
   -1.1212   -3.6431    0.0000 C    0  0  0  0  0  0  0  0  0  0  0  0
   -1.8373   -0.1153    0.0000 C    0  0  0  0  0  0  0  0  0  0  0  0
    1.6556    1.7395    0.0000 C    0  0  0  0  0  0  0  0  0  0  0  0
    0.9221   -0.9745    0.0000 O    0  0  0  0  0  0  0  0  0  0  0  0
    1.9700    0.9815    0.0000 C    0  0  0  0  0  0  0  0  0  0  0  0
    2.9864    2.3682    0.0000 O    0  0  0  0  0  0  0  0  0  0  0  0
    1.4705    0.3248    0.0000 C    0  0  0  0  0  0  0  0  0  0  0  0
   -0.0594   -2.3891    0.0000 C    0  0  0  0  0  0  0  0  0  0  0  0
    1.9281    3.1786    0.0000 C    0  0  0  0  0  0  0  0  0  0  0  0
   -0.7230    0.5973    0.0000 O    0  0  0  0  0  0  0  0  0  0  0  0
    3.2624    3.1436    0.0000 C    0  0  0  0  0  0  0  0  0  0  0  0
    2.6127    3.6431    0.0000 C    0  0  0  0  0  0  0  0  0  0  0  0
    1.7464   -0.2515    0.0000 O    0  0  0  0  0  0  0  0  0  0  0  0
   -2.5463   -0.5275    0.0000 C    0  0  0  0  0  0  0  0  0  0  0  0
   -2.5463   -1.3587    0.0000 C    0  0  0  0  0  0  0  0  0  0  0  0
   -3.2658   -0.1153    0.0000 Br   0  0  0  0  0  0  0  0  0  0  0  0
  2  1  1  0  0  0  0
  3  2  1  0  0  0  0
  4  1  1  0  0  0  0
  5  4  2  0  0  0  0
  5  3  1  0  0  0  0
  6  1  1  0  0  0  0
  7 17  1  0  0  0  0
  8 12  1  0  0  0  0
  9  5  1  0  0  0  0
 10  7  3  0  0  0  0
 11  4  1  0  0  0  0
 12 14  2  0  0  0  0
 13  2  2  0  0  0  0
 14 16  1  0  0  0  0
 15  8  1  0  0  0  0
 16  6  1  0  0  0  0
 17  3  1  0  0  0  0
 18  8  2  0  0  0  0
 19  1  1  0  0  0  0
 20 15  1  0  0  0  0
 20 21  2  0  0  0  0
 21 18  1  0  0  0  0
 22 16  2  0  0  0  0
 23 11  2  0  0  0  0
 24 23  1  0  0  0  0
 24  9  2  0  0  0  0
 25 23  1  0  0  0  0
M  END
> <CdId>
1931

> <Mol Weight>
400.223

> <Formula>
C19H14BrNO4

> <Click_ID>
CLK025_H06 __ __ 

$$$$
