CLK046A08
 OpenBabel03181413202D

 21 22  0  0  0  0  0  0  0  0999 V2000
    2.8917   -3.6708    0.0000 N   0  0  0  0  0  0  0  0  0  0  0  0
   -2.1125    3.3417    0.0000 C   0  0  0  0  0  0  0  0  0  0  0  0
   -2.8250    3.7542    0.0000 C   0  0  0  0  0  0  0  0  0  0  0  0
    2.1750   -3.2583    0.0000 C   0  0  0  0  0  0  0  0  0  0  0  0
    0.0333   -0.3708    0.0000 C   0  0  0  0  0  0  0  0  0  0  0  0
    0.7458   -0.7833    0.0000 N   0  0  0  0  0  0  0  0  0  0  0  0
   -0.6833    0.8667    0.0000 N   0  0  0  0  0  0  0  0  0  0  0  0
    0.7458   -1.6083    0.0000 C   0  0  0  0  0  0  0  0  0  0  0  0
   -0.6833   -0.7833    0.0000 O   0  0  0  0  0  0  0  0  0  0  0  0
   -1.3958    2.9292    0.0000 C   0  0  0  0  0  0  0  0  0  0  0  0
    0.0333    0.4542    0.0000 C   0  0  0  0  0  0  0  0  0  0  0  0
    1.4625   -2.8458    0.0000 C   0  0  0  0  0  0  0  0  0  0  0  0
    1.4625   -2.0208    0.0000 C   0  0  0  0  0  0  0  0  0  0  0  0
   -0.6833    1.6917    0.0000 C   0  0  0  0  0  0  0  0  0  0  0  0
   -1.3958    2.1042    0.0000 C   0  0  0  0  0  0  0  0  0  0  0  0
    0.0333   -2.8458    0.0000 C   0  0  0  0  0  0  0  0  0  0  0  0
    0.0333    2.9292    0.0000 C   0  0  0  0  0  0  0  0  0  0  0  0
    0.0333   -2.0208    0.0000 C   0  0  0  0  0  0  0  0  0  0  0  0
   -0.6833    3.3417    0.0000 C   0  0  0  0  0  0  0  0  0  0  0  0
    0.7458   -3.2583    0.0000 C   0  0  0  0  0  0  0  0  0  0  0  0
    0.0333    2.1042    0.0000 C   0  0  0  0  0  0  0  0  0  0  0  0
  2 10  1  0  0  0  0
  3  2  3  0  0  0  0
  4  1  3  0  0  0  0
  5  6  1  0  0  0  0
  6  8  1  0  0  0  0
  7 11  1  0  0  0  0
  8 13  2  0  0  0  0
  9  5  2  0  0  0  0
 10 15  1  0  0  0  0
 11  5  1  0  0  0  0
 12  4  1  0  0  0  0
 13 12  1  0  0  0  0
 14  7  1  0  0  0  0
 15 14  2  0  0  0  0
 16 20  1  0  0  0  0
 16 18  2  0  0  0  0
 17 21  2  0  0  0  0
 18  8  1  0  0  0  0
 19 10  2  0  0  0  0
 19 17  1  0  0  0  0
 20 12  2  0  0  0  0
 21 14  1  0  0  0  0
M  END
> <CdId>
3537

> <Mol Weight>
275.3046

> <Formula>
C17H13N3O

> <Click_ID>
CLK046A08 __ __ 

$$$$
