CLK022_G04
 OpenBabel03181413202D

 15 15  0  0  0  0  0  0  0  0999 V2000
    2.0075    1.2741    0.0000 C   0  0  0  0  0  0  0  0  0  0  0  0
    6.5450    1.9891    0.0000 C   0  0  0  0  0  0  0  0  0  0  0  0
    7.3700    1.9891    0.0000 C   0  0  0  0  0  0  0  0  0  0  0  0
    2.8325    1.2741    0.0000 C   0  0  0  0  0  0  0  0  0  0  0  0
    1.5950    1.9891    0.0000 N   0  0  0  0  0  0  0  0  0  0  0  0
    1.5950    0.5591    0.0000 O   0  0  0  0  0  0  0  0  0  0  0  0
    3.2450    0.5591    0.0000 C   0  0  0  0  0  0  0  0  0  0  0  0
    3.2450    1.9891    0.0000 C   0  0  0  0  0  0  0  0  0  0  0  0
    4.4825    1.2741    0.0000 C   0  0  0  0  0  0  0  0  0  0  0  0
    4.0700    0.5591    0.0000 C   0  0  0  0  0  0  0  0  0  0  0  0
    4.0700    1.9891    0.0000 C   0  0  0  0  0  0  0  0  0  0  0  0
    5.7200    1.9891    0.0000 C   0  0  0  0  0  0  0  0  0  0  0  0
    5.3075    1.2741    0.0000 O   0  0  0  0  0  0  0  0  0  0  0  0
    0.7700    1.9891    0.0000 C   0  0  0  0  0  0  0  0  0  0  0  0
    2.0075    2.7041    0.0000 C   0  0  0  0  0  0  0  0  0  0  0  0
  2 12  1  0  0  0  0
  3  2  3  0  0  0  0
  4  1  1  0  0  0  0
  5  1  1  0  0  0  0
  6  1  2  0  0  0  0
  7  4  2  0  0  0  0
  8  4  1  0  0  0  0
  9 11  1  0  0  0  0
  9 10  2  0  0  0  0
 10  7  1  0  0  0  0
 11  8  2  0  0  0  0
 12 13  1  0  0  0  0
 13  9  1  0  0  0  0
 14  5  1  0  0  0  0
 15  5  1  0  0  0  0
M  END
> <CdId>
1685

> <Mol Weight>
203.2371

> <Formula>
C12H13NO2

> <Click_ID>
CLK022_G04 __ __ 

$$$$
