CLK051F10
 OpenBabel03181413202D

 17 18  0  0  0  0  0  0  0  0999 V2000
    0.2542   -0.0667    0.0000 C   0  0  0  0  0  0  0  0  0  0  0  0
   -0.2292   -0.7333    0.0000 C   0  0  0  0  0  0  0  0  0  0  0  0
   -0.2292    0.6000    0.0000 S   0  0  0  0  0  0  0  0  0  0  0  0
   -1.0167   -0.4792    0.0000 C   0  0  0  0  0  0  0  0  0  0  0  0
   -1.0167    0.3458    0.0000 C   0  0  0  0  0  0  0  0  0  0  0  0
    1.0792   -0.0667    0.0000 C   0  0  0  0  0  0  0  0  0  0  0  0
    2.7292    1.3625    0.0000 C   0  0  0  0  0  0  0  0  0  0  0  0
    3.1417    2.0750    0.0000 C   0  0  0  0  0  0  0  0  0  0  0  0
   -1.7292   -0.8917    0.0000 C   0  0  0  0  0  0  0  0  0  0  0  0
    1.4917   -0.7833    0.0000 O   0  0  0  0  0  0  0  0  0  0  0  0
    1.4917    0.6458    0.0000 N   0  0  0  0  0  0  0  0  0  0  0  0
    0.0250   -1.5208    0.0000 C   0  0  0  0  0  0  0  0  0  0  0  0
   -1.7292   -1.7167    0.0000 F   0  0  0  0  0  0  0  0  0  0  0  0
   -1.7292    0.7583    0.0000 C   0  0  0  0  0  0  0  0  0  0  0  0
    2.3167    0.6458    0.0000 C   0  0  0  0  0  0  0  0  0  0  0  0
   -2.4458    0.3458    0.0000 C   0  0  0  0  0  0  0  0  0  0  0  0
   -2.4458   -0.4792    0.0000 C   0  0  0  0  0  0  0  0  0  0  0  0
  2  1  2  0  0  0  0
  3  1  1  0  0  0  0
  4  2  1  0  0  0  0
  4  5  2  0  0  0  0
  5  3  1  0  0  0  0
  6  1  1  0  0  0  0
  7 15  1  0  0  0  0
  8  7  3  0  0  0  0
  9  4  1  0  0  0  0
 10  6  2  0  0  0  0
 11  6  1  0  0  0  0
 12  2  1  0  0  0  0
 13  9  1  0  0  0  0
 14  5  1  0  0  0  0
 15 11  1  0  0  0  0
 16 14  2  0  0  0  0
 17  9  2  0  0  0  0
 17 16  1  0  0  0  0
M  END
> <CdId>
3958

> <Mol Weight>
247.288

> <Formula>
C13H10FNOS

> <Click_ID>
CLK051F10 __ __ 

$$$$
