CLK046B05
 OpenBabel03181413202D

 28 31  0  0  0  0  0  0  0  0999 V2000
   -1.2868   -0.0167    0.0000 C   0  0  0  0  0  0  0  0  0  0  0  0
   -0.7996   -0.6829    0.0000 C   0  0  0  0  0  0  0  0  0  0  0  0
   -0.1291    0.8204    0.0000 N   0  0  0  0  0  0  0  0  0  0  0  0
    0.3540    0.1541    0.0000 C   0  0  0  0  0  0  0  0  0  0  0  0
    0.0208   -0.5997    0.0000 N   0  0  0  0  0  0  0  0  0  0  0  0
   -0.9495    0.7371    0.0000 C   0  0  0  0  0  0  0  0  0  0  0  0
   -2.0697   -0.2707    0.0000 C   0  0  0  0  0  0  0  0  0  0  0  0
   -2.0697   -1.0952    0.0000 C   0  0  0  0  0  0  0  0  0  0  0  0
   -1.2868   -1.3493    0.0000 S   0  0  0  0  0  0  0  0  0  0  0  0
    1.1744    0.2416    0.0000 S   0  0  0  0  0  0  0  0  0  0  0  0
   -2.7818    0.1416    0.0000 C   0  0  0  0  0  0  0  0  0  0  0  0
    4.2685   -1.5866    0.0000 C   0  0  0  0  0  0  0  0  0  0  0  0
    4.7557   -2.2530    0.0000 C   0  0  0  0  0  0  0  0  0  0  0  0
   -1.4325    1.4034    0.0000 O   0  0  0  0  0  0  0  0  0  0  0  0
    0.2041    1.5741    0.0000 C   0  0  0  0  0  0  0  0  0  0  0  0
   -2.7818   -1.5075    0.0000 C   0  0  0  0  0  0  0  0  0  0  0  0
    2.4819   -0.3373    0.0000 C   0  0  0  0  0  0  0  0  0  0  0  0
    2.8152    0.4123    0.0000 O   0  0  0  0  0  0  0  0  0  0  0  0
    1.6616   -0.4248    0.0000 C   0  0  0  0  0  0  0  0  0  0  0  0
    2.9651   -1.0077    0.0000 N   0  0  0  0  0  0  0  0  0  0  0  0
   -3.4981   -0.2707    0.0000 C   0  0  0  0  0  0  0  0  0  0  0  0
   -3.4981   -1.0952    0.0000 C   0  0  3  0  0  0  0  0  0  0  0  0
    3.7854   -0.9203    0.0000 C   0  0  0  0  0  0  0  0  0  0  0  0
   -0.2082    2.2904    0.0000 C   0  0  0  0  0  0  0  0  0  0  0  0
    1.0119    1.7490    0.0000 C   0  0  0  0  0  0  0  0  0  0  0  0
   -4.2102   -1.5075    0.0000 C   0  0  0  0  0  0  0  0  0  0  0  0
    1.0994    2.5653    0.0000 C   0  0  0  0  0  0  0  0  0  0  0  0
    0.3456    2.9026    0.0000 C   0  0  0  0  0  0  0  0  0  0  0  0
  2  1  2  0  0  0  0
  3  6  1  0  0  0  0
  3  4  1  0  0  0  0
  4  5  2  0  0  0  0
  5  2  1  0  0  0  0
  6  1  1  0  0  0  0
  7  1  1  0  0  0  0
  8  7  2  0  0  0  0
  9  2  1  0  0  0  0
  9  8  1  0  0  0  0
 10  4  1  0  0  0  0
 11  7  1  0  0  0  0
 12 23  1  0  0  0  0
 13 12  3  0  0  0  0
 14  6  2  0  0  0  0
 15  3  1  0  0  0  0
 16  8  1  0  0  0  0
 17 19  1  0  0  0  0
 18 17  2  0  0  0  0
 19 10  1  0  0  0  0
 20 17  1  0  0  0  0
 21 11  1  0  0  0  0
 21 22  1  0  0  0  0
 22 16  1  0  0  0  0
 23 20  1  0  0  0  0
 24 15  1  0  0  0  0
 25 15  1  0  0  0  0
 26 22  1  0  0  0  0
 27 25  1  0  0  0  0
 28 24  1  0  0  0  0
 28 27  1  0  0  0  0
M  END
> <CdId>
3514

> <Mol Weight>
415.572

> <Formula>
C21H25N3O2S2

> <Click_ID>
CLK046B05 __ __ 

$$$$
