CLK004_C05
 OpenBabel03181417552D

 28 31  0  0  0  0  0  0  0  0999 V2000
    0.4453    0.6973    0.0000 C   0  0  3  0  0  0  0  0  0  0  0  0
    1.1668    0.2865    0.0000 C   0  0  0  0  0  0  0  0  0  0  0  0
   -0.2658    0.2831    0.0000 C   0  0  0  0  0  0  0  0  0  0  0  0
    0.4557    1.5223    0.0000 C   0  0  0  0  0  0  0  0  0  0  0  0
    1.8813    0.6973    0.0000 C   0  0  0  0  0  0  0  0  0  0  0  0
    1.1598   -0.5282    0.0000 C   0  0  0  0  0  0  0  0  0  0  0  0
   -0.9839    0.6973    0.0000 C   0  0  0  0  0  0  0  0  0  0  0  0
   -0.2727   -0.5420    0.0000 C   0  0  0  0  0  0  0  0  0  0  0  0
    1.1668    1.9366    0.0000 C   0  0  0  0  0  0  0  0  0  0  0  0
   -0.2658    1.9366    0.0000 C   0  0  0  0  0  0  0  0  0  0  0  0
    2.5856    0.2865    0.0000 C   0  0  0  0  0  0  0  0  0  0  0  0
    1.8744    1.5223    0.0000 O   0  0  0  0  0  0  0  0  0  0  0  0
    1.8813   -0.9424    0.0000 C   0  0  0  0  0  0  0  0  0  0  0  0
   -1.6984    0.2831    0.0000 C   0  0  0  0  0  0  0  0  0  0  0  0
   -0.9839   -0.9562    0.0000 C   0  0  0  0  0  0  0  0  0  0  0  0
    1.1668    2.7616    0.0000 N   0  0  0  0  0  0  0  0  0  0  0  0
   -0.9734    2.3473    0.0000 N   0  0  0  0  0  0  0  0  0  0  0  0
    2.5959   -0.5282    0.0000 C   0  0  0  0  0  0  0  0  0  0  0  0
    2.0470   -1.7502    0.0000 O   0  0  0  0  0  0  0  0  0  0  0  0
   -1.6984   -0.5420    0.0000 C   0  0  0  0  0  0  0  0  0  0  0  0
   -2.4198    0.6973    0.0000 O   0  0  0  0  0  0  0  0  0  0  0  0
    3.2000   -1.0805    0.0000 O   0  0  0  0  0  0  0  0  0  0  0  0
    2.8686   -1.8296    0.0000 C   0  0  0  0  0  0  0  0  0  0  0  0
   -2.4198   -0.9562    0.0000 O   0  0  0  0  0  0  0  0  0  0  0  0
   -3.1310    0.2831    0.0000 C   0  0  0  0  0  0  0  0  0  0  0  0
   -2.4198   -1.7812    0.0000 C   0  0  0  0  0  0  0  0  0  0  0  0
   -3.1241   -2.1955    0.0000 C   0  0  0  0  0  0  0  0  0  0  0  0
   -3.8386   -2.6062    0.0000 C   0  0  0  0  0  0  0  0  0  0  0  0
  1  2  1  0  0  0  0
  1  3  1  0  0  0  0
  1  4  1  0  0  0  0
  2  5  2  0  0  0  0
  2  6  1  0  0  0  0
  3  7  2  0  0  0  0
  3  8  1  0  0  0  0
  4  9  2  0  0  0  0
  4 10  1  0  0  0  0
  5 11  1  0  0  0  0
  5 12  1  0  0  0  0
  6 13  2  0  0  0  0
  7 14  1  0  0  0  0
  8 15  2  0  0  0  0
  9 16  1  0  0  0  0
  9 12  1  0  0  0  0
 10 17  3  0  0  0  0
 11 18  2  0  0  0  0
 13 19  1  0  0  0  0
 13 18  1  0  0  0  0
 14 20  2  0  0  0  0
 14 21  1  0  0  0  0
 15 20  1  0  0  0  0
 18 22  1  0  0  0  0
 19 23  1  0  0  0  0
 20 24  1  0  0  0  0
 21 25  1  0  0  0  0
 22 23  1  0  0  0  0
 24 26  1  0  0  0  0
 26 27  1  0  0  0  0
 27 28  3  0  0  0  0
M  END
> <CdId>
264

> <Mol Weight>
376.3621

> <Formula>
C21H16N2O5

> <Click_ID>
CLK004_C05 __ __ 

$$$$
