CLK040D02
 OpenBabel03181417552D

 17 18  0  0  0  0  0  0  0  0999 V2000
   -1.1773    0.8684    0.0000 N   0  0  0  0  0  0  0  0  0  0  0  0
   -0.3882    0.6137    0.0000 C   0  0  0  0  0  0  0  0  0  0  0  0
    0.0960    1.2817    0.0000 N   0  0  0  0  0  0  0  0  0  0  0  0
   -0.3882    1.9496    0.0000 N   0  0  0  0  0  0  0  0  0  0  0  0
   -1.1773    1.6950    0.0000 C   0  0  0  0  0  0  0  0  0  0  0  0
   -0.1336   -0.1753    0.0000 S   0  0  0  0  0  0  0  0  0  0  0  0
   -1.8912    0.4551    0.0000 C   0  0  0  0  0  0  0  0  0  0  0  0
    2.8013   -2.2627    0.0000 C   0  0  0  0  0  0  0  0  0  0  0  0
    3.6112   -2.4340    0.0000 C   0  0  0  0  0  0  0  0  0  0  0  0
    0.9311   -1.1314    0.0000 C   0  0  0  0  0  0  0  0  0  0  0  0
   -1.8912    2.1083    0.0000 C   0  0  0  0  0  0  0  0  0  0  0  0
   -2.6051    0.8684    0.0000 C   0  0  0  0  0  0  0  0  0  0  0  0
   -2.6051    1.6950    0.0000 C   0  0  0  0  0  0  0  0  0  0  0  0
    0.3757   -1.7451    0.0000 O   0  0  0  0  0  0  0  0  0  0  0  0
    0.6763   -0.3465    0.0000 C   0  0  0  0  0  0  0  0  0  0  0  0
    1.7367   -1.3025    0.0000 N   0  0  0  0  0  0  0  0  0  0  0  0
    1.9956   -2.0915    0.0000 C   0  0  0  0  0  0  0  0  0  0  0  0
  2  1  1  0  0  0  0
  3  2  2  0  0  0  0
  4  5  2  0  0  0  0
  4  3  1  0  0  0  0
  5  1  1  0  0  0  0
  6  2  1  0  0  0  0
  7  1  1  0  0  0  0
  8 17  1  0  0  0  0
  9  8  3  0  0  0  0
 10 15  1  0  0  0  0
 11  5  1  0  0  0  0
 12  7  2  0  0  0  0
 12 13  1  0  0  0  0
 13 11  2  0  0  0  0
 14 10  2  0  0  0  0
 15  6  1  0  0  0  0
 16 10  1  0  0  0  0
 17 16  1  0  0  0  0
M  END
> <CdId>
3012

> <Mol Weight>
246.288

> <Formula>
C11H10N4OS

> <Click_ID>
CLK040D02 __ __ 

$$$$
