CLK020_B09
 OpenBabel03181417552D

 27 28  0  0  0  0  0  0  0  0999 V2000
    1.8424   -1.8466    0.0000 C    0  0  0  0  0  0  0  0  0  0  0  0
    3.2628   -1.8466    0.0000 N    0  0  0  0  0  0  0  0  0  0  0  0
    3.2628   -2.6738    0.0000 C    0  0  0  0  0  0  0  0  0  0  0  0
    2.5484   -1.4288    0.0000 C    0  0  0  0  0  0  0  0  0  0  0  0
    2.5484   -3.0831    0.0000 N    0  0  0  0  0  0  0  0  0  0  0  0
    1.8424   -2.6738    0.0000 C    0  0  0  0  0  0  0  0  0  0  0  0
    1.1197   -1.4330    0.0000 C    0  0  0  0  0  0  0  0  0  0  0  0
   -1.0026   -2.6821    0.0000 C    0  0  0  0  0  0  0  0  0  0  0  0
   -1.0026   -1.8591    0.0000 C    0  0  0  0  0  0  0  0  0  0  0  0
   -0.2966   -3.0873    0.0000 C    0  0  0  0  0  0  0  0  0  0  0  0
    0.4136   -1.8466    0.0000 C    0  0  0  0  0  0  0  0  0  0  0  0
    3.9855   -3.0873    0.0000 S    0  0  0  0  0  0  0  0  0  0  0  0
   -3.1458   -3.0873    0.0000 C    0  0  0  0  0  0  0  0  0  0  0  0
   -3.8685   -3.4967    0.0000 C    0  0  0  0  0  0  0  0  0  0  0  0
    2.5484   -0.6016    0.0000 O    0  0  0  0  0  0  0  0  0  0  0  0
   -0.2966   -1.4455    0.0000 C    0  0  0  0  0  0  0  0  0  0  0  0
    0.4178   -2.6738    0.0000 C    0  0  0  0  0  0  0  0  0  0  0  0
    1.1197   -3.0873    0.0000 O    0  0  0  0  0  0  0  0  0  0  0  0
    3.9855   -1.4330    0.0000 C    0  0  0  0  0  0  0  0  0  0  0  0
    3.9855   -0.6058    0.0000 C    0  0  0  0  0  0  0  0  0  0  0  0
    4.7041   -0.2005    0.0000 C    0  0  0  0  0  0  0  0  0  0  0  0
   -1.7170   -1.4538    0.0000 Br   0  0  0  0  0  0  0  0  0  0  0  0
   -1.7170   -3.0873    0.0000 O    0  0  0  0  0  0  0  0  0  0  0  0
   -0.2966   -3.9020    0.0000 O    0  0  0  0  0  0  0  0  0  0  0  0
   -2.4314   -2.6738    0.0000 C    0  0  0  0  0  0  0  0  0  0  0  0
    0.4178   -4.3114    0.0000 C    0  0  0  0  0  0  0  0  0  0  0  0
    0.4178   -5.1302    0.0000 C    0  0  0  0  0  0  0  0  0  0  0  0
  2  4  1  0  0  0  0
  3  5  1  0  0  0  0
  3  2  1  0  0  0  0
  4  1  1  0  0  0  0
  5  6  1  0  0  0  0
  6  1  1  0  0  0  0
  7  1  2  0  0  0  0
  8 10  2  0  0  0  0
  8  9  1  0  0  0  0
  9 16  2  0  0  0  0
 10 17  1  0  0  0  0
 11  7  1  0  0  0  0
 12  3  2  0  0  0  0
 13 25  1  0  0  0  0
 14 13  3  0  0  0  0
 15  4  2  0  0  0  0
 16 11  1  0  0  0  0
 17 11  2  0  0  0  0
 18  6  2  0  0  0  0
 19  2  1  0  0  0  0
 20 19  1  0  0  0  0
 21 20  2  0  0  0  0
 22  9  1  0  0  0  0
 23  8  1  0  0  0  0
 24 10  1  0  0  0  0
 25 23  1  0  0  0  0
 26 24  1  0  0  0  0
 27 26  1  0  0  0  0
M  END
> <CdId>
1494

> <Mol Weight>
449.318

> <Formula>
C19H17BrN2O4S

> <Click_ID>
CLK020_B09 __ __ 

$$$$
