CLK046B07
 OpenBabel03181417552D

 25 27  0  0  0  0  0  0  0  0999 V2000
    0.7500    0.6500    0.0000 C   0  0  0  0  0  0  0  0  0  0  0  0
    0.0375    0.2375    0.0000 C   0  0  0  0  0  0  0  0  0  0  0  0
   -0.6792    0.6500    0.0000 N   0  0  0  0  0  0  0  0  0  0  0  0
    0.7500    1.4750    0.0000 C   0  0  0  0  0  0  0  0  0  0  0  0
    1.5375    0.3917    0.0000 C   0  0  0  0  0  0  0  0  0  0  0  0
    0.0375    1.8875    0.0000 N   0  0  0  0  0  0  0  0  0  0  0  0
   -0.6792    1.4750    0.0000 C   0  0  0  0  0  0  0  0  0  0  0  0
    1.5375    1.7292    0.0000 S   0  0  0  0  0  0  0  0  0  0  0  0
    2.0208    1.0625    0.0000 C   0  0  0  0  0  0  0  0  0  0  0  0
    1.7917   -0.3917    0.0000 C   0  0  0  0  0  0  0  0  0  0  0  0
   -1.3917    0.2375    0.0000 C   0  0  0  0  0  0  0  0  0  0  0  0
    1.2375   -1.0042    0.0000 C   0  0  0  0  0  0  0  0  0  0  0  0
   -4.2500    0.2375    0.0000 C   0  0  0  0  0  0  0  0  0  0  0  0
   -4.9625   -0.1750    0.0000 C   0  0  0  0  0  0  0  0  0  0  0  0
   -2.1083    0.6500    0.0000 C   0  0  0  0  0  0  0  0  0  0  0  0
    1.4958   -1.7875    0.0000 C   0  0  0  0  0  0  0  0  0  0  0  0
    0.0375   -0.5875    0.0000 O   0  0  0  0  0  0  0  0  0  0  0  0
    2.6000   -0.5625    0.0000 C   0  0  0  0  0  0  0  0  0  0  0  0
    2.3000   -1.9625    0.0000 C   0  0  0  0  0  0  0  0  0  0  0  0
   -2.1083    1.4750    0.0000 O   0  0  0  0  0  0  0  0  0  0  0  0
    2.8542   -1.3458    0.0000 C   0  0  0  0  0  0  0  0  0  0  0  0
   -2.8208    0.2375    0.0000 N   0  0  0  0  0  0  0  0  0  0  0  0
   -3.5375    0.6500    0.0000 C   0  0  0  0  0  0  0  0  0  0  0  0
    0.9417   -2.4042    0.0000 C   0  0  0  0  0  0  0  0  0  0  0  0
    2.5542   -2.7458    0.0000 C   0  0  0  0  0  0  0  0  0  0  0  0
  2  1  1  0  0  0  0
  3  2  1  0  0  0  0
  3  7  1  0  0  0  0
  4  1  2  0  0  0  0
  5  1  1  0  0  0  0
  6  4  1  0  0  0  0
  7  6  2  0  0  0  0
  8  4  1  0  0  0  0
  8  9  1  0  0  0  0
  9  5  2  0  0  0  0
 10  5  1  0  0  0  0
 11  3  1  0  0  0  0
 12 10  2  0  0  0  0
 13 23  1  0  0  0  0
 14 13  3  0  0  0  0
 15 11  1  0  0  0  0
 16 12  1  0  0  0  0
 17  2  2  0  0  0  0
 18 10  1  0  0  0  0
 19 16  2  0  0  0  0
 20 15  2  0  0  0  0
 21 18  2  0  0  0  0
 21 19  1  0  0  0  0
 22 15  1  0  0  0  0
 23 22  1  0  0  0  0
 24 16  1  0  0  0  0
 25 19  1  0  0  0  0
M  END
> <CdId>
3530

> <Mol Weight>
351.422

> <Formula>
C19H17N3O2S

> <Click_ID>
CLK046B07 __ __ 

$$$$
