CLK041E08
 OpenBabel03181417552D

 25 26  0  0  0  0  0  0  0  0999 V2000
   -0.4583    1.3875    0.0000 N   0  0  0  0  0  0  0  0  0  0  0  0
    0.2542   -1.5000    0.0000 C   0  0  0  0  0  0  0  0  0  0  0  0
    1.6833   -3.1500    0.0000 C   0  0  0  0  0  0  0  0  0  0  0  0
   -0.4583    2.2125    0.0000 C   0  0  0  0  0  0  0  0  0  0  0  0
   -0.4583   -0.2625    0.0000 N   0  0  0  0  0  0  0  0  0  0  0  0
    2.4000   -3.5625    0.0000 C   0  0  0  0  0  0  0  0  0  0  0  0
    0.2542   -2.3250    0.0000 N   0  0  0  0  0  0  0  0  0  0  0  0
    0.9708   -2.7375    0.0000 C   0  0  0  0  0  0  0  0  0  0  0  0
   -1.1750    0.9750    0.0000 C   0  0  0  0  0  0  0  0  0  0  0  0
    0.2542    0.9750    0.0000 C   0  0  0  0  0  0  0  0  0  0  0  0
   -0.4583   -1.0875    0.0000 C   0  0  0  0  0  0  0  0  0  0  0  0
    0.9708   -1.0875    0.0000 O   0  0  0  0  0  0  0  0  0  0  0  0
   -1.1750    2.6250    0.0000 C   0  0  0  0  0  0  0  0  0  0  0  0
    0.2542    0.1500    0.0000 C   0  0  0  0  0  0  0  0  0  0  0  0
   -1.1750    0.1500    0.0000 C   0  0  0  0  0  0  0  0  0  0  0  0
   -1.8875    2.2125    0.0000 O   0  0  0  0  0  0  0  0  0  0  0  0
    0.2542    2.6250    0.0000 C   0  0  0  0  0  0  0  0  0  0  0  0
    1.3833   -2.0208    0.0000 C   0  0  0  0  0  0  0  0  0  0  0  0
    0.5583   -3.4500    0.0000 C   0  0  0  0  0  0  0  0  0  0  0  0
   -1.1750    3.4500    0.0000 C   0  0  0  0  0  0  0  0  0  0  0  0
   -2.6042    2.6250    0.0000 C   0  0  0  0  0  0  0  0  0  0  0  0
    2.2083   -2.0208    0.0000 C   0  0  0  0  0  0  0  0  0  0  0  0
   -0.2667   -3.4500    0.0000 C   0  0  0  0  0  0  0  0  0  0  0  0
    0.2542    3.4500    0.0000 C   0  0  0  0  0  0  0  0  0  0  0  0
   -0.4583    3.8625    0.0000 C   0  0  0  0  0  0  0  0  0  0  0  0
  2 11  1  0  0  0  0
  3  8  1  0  0  0  0
  4  1  1  0  0  0  0
  5 15  1  0  0  0  0
  6  3  3  0  0  0  0
  7  2  1  0  0  0  0
  8  7  1  0  0  0  0
  9  1  1  0  0  0  0
 10  1  1  0  0  0  0
 11  5  1  0  0  0  0
 12  2  2  0  0  0  0
 13  4  2  0  0  0  0
 14 10  1  0  0  0  0
 14  5  1  0  0  0  0
 15  9  1  0  0  0  0
 16 13  1  0  0  0  0
 17  4  1  0  0  0  0
 18  8  1  0  0  0  0
 19  8  1  0  0  0  0
 20 13  1  0  0  0  0
 21 16  1  0  0  0  0
 22 18  1  0  0  0  0
 23 19  1  0  0  0  0
 24 17  2  0  0  0  0
 25 20  2  0  0  0  0
 25 24  1  0  0  0  0
M  END
> <CdId>
3141

> <Mol Weight>
343.4632

> <Formula>
C20H29N3O2

> <Click_ID>
CLK041E08 __ __ 

$$$$
