CLK028_C08
 OpenBabel03181417552D

 24 25  0  0  0  0  0  0  0  0999 V2000
   -1.7930    3.7204    0.0000 C   0  0  0  0  0  0  0  0  0  0  0  0
    1.0689   -3.7273    0.0000 C   0  0  0  0  0  0  0  0  0  0  0  0
    1.0689   -4.5514    0.0000 C   0  0  0  0  0  0  0  0  0  0  0  0
    1.0689    1.2309    0.0000 N   0  0  0  0  0  0  0  0  0  0  0  0
    1.0689   -1.2448    0.0000 C   0  0  0  0  0  0  0  0  0  0  0  0
   -1.0689    3.3066    0.0000 C   0  0  0  0  0  0  0  0  0  0  0  0
    1.7827   -1.6551    0.0000 C   0  0  0  0  0  0  0  0  0  0  0  0
    1.0689   -0.4206    0.0000 C   0  0  0  0  0  0  0  0  0  0  0  0
   -2.5067    3.3101    0.0000 O   0  0  0  0  0  0  0  0  0  0  0  0
    1.0689    2.0585    0.0000 N   0  0  0  0  0  0  0  0  0  0  0  0
   -0.3552    3.7135    0.0000 C   0  0  0  0  0  0  0  0  0  0  0  0
   -1.0689    2.4722    0.0000 C   0  0  0  0  0  0  0  0  0  0  0  0
    2.5033   -1.2448    0.0000 C   0  0  0  0  0  0  0  0  0  0  0  0
    1.7827    0.8172    0.0000 C   0  0  0  0  0  0  0  0  0  0  0  0
    1.7827   -0.0069    0.0000 C   0  0  0  0  0  0  0  0  0  0  0  0
    0.3552    2.4722    0.0000 C   0  0  0  0  0  0  0  0  0  0  0  0
   -1.7860    4.5514    0.0000 O   0  0  0  0  0  0  0  0  0  0  0  0
    2.5033   -0.4206    0.0000 C   0  0  0  0  0  0  0  0  0  0  0  0
   -0.3552    2.0585    0.0000 C   0  0  0  0  0  0  0  0  0  0  0  0
    0.3552    3.3066    0.0000 C   0  0  0  0  0  0  0  0  0  0  0  0
    0.3517   -1.6689    0.0000 O   0  0  0  0  0  0  0  0  0  0  0  0
    1.7827   -2.4826    0.0000 O   0  0  0  0  0  0  0  0  0  0  0  0
    1.0689   -2.8929    0.0000 C   0  0  0  0  0  0  0  0  0  0  0  0
    0.3552   -2.5067    0.0000 C   0  0  0  0  0  0  0  0  0  0  0  0
  2 23  1  0  0  0  0
  3  2  3  0  0  0  0
  4 10  1  0  0  0  0
  5  8  2  0  0  0  0
  5  7  1  0  0  0  0
  6  1  1  0  0  0  0
  7 13  2  0  0  0  0
  8 15  1  0  0  0  0
  9  1  2  0  0  0  0
 10 16  1  0  0  0  0
 11  6  2  0  0  0  0
 12  6  1  0  0  0  0
 13 18  1  0  0  0  0
 14  4  2  0  0  0  0
 15 14  1  0  0  0  0
 16 19  1  0  0  0  0
 17  1  1  0  0  0  0
 18 15  2  0  0  0  0
 19 12  2  0  0  0  0
 20 11  1  0  0  0  0
 20 16  2  0  0  0  0
 21  5  1  0  0  0  0
 22  7  1  0  0  0  0
 23 22  1  0  0  0  0
 24 21  1  0  0  0  0
M  END
> <CdId>
2112

> <Mol Weight>
324.3306

> <Formula>
C18H16N2O4

> <Click_ID>
CLK028_C08 __ __ 

$$$$
