CLK050A06
 OpenBabel03181417552D

 12 12  0  0  0  0  0  0  0  0999 V2000
    0.5212   -0.0167    0.0000 C    0  0  0  0  0  0  0  0  0  0  0  0
    1.2802   -0.3378    0.0000 O    0  0  0  0  0  0  0  0  0  0  0  0
    1.8222    0.2835    0.0000 C    0  0  0  0  0  0  0  0  0  0  0  0
   -0.1876   -0.4378    0.0000 C    0  0  0  0  0  0  0  0  0  0  0  0
    0.5963    0.8089    0.0000 C    0  0  0  0  0  0  0  0  0  0  0  0
    1.4011    0.9925    0.0000 C    0  0  0  0  0  0  0  0  0  0  0  0
   -2.3393   -0.0583    0.0000 C    0  0  0  0  0  0  0  0  0  0  0  0
   -3.0607    0.3461    0.0000 C    0  0  0  0  0  0  0  0  0  0  0  0
   -0.1751   -1.2635    0.0000 O    0  0  0  0  0  0  0  0  0  0  0  0
   -0.9090   -0.0375    0.0000 N    0  0  0  0  0  0  0  0  0  0  0  0
    2.6438    0.2085    0.0000 Cl   0  0  0  0  0  0  0  0  0  0  0  0
   -1.6180   -0.4587    0.0000 C    0  0  0  0  0  0  0  0  0  0  0  0
  2  1  1  0  0  0  0
  3  2  1  0  0  0  0
  4  1  1  0  0  0  0
  5  1  2  0  0  0  0
  6  5  1  0  0  0  0
  6  3  2  0  0  0  0
  7 12  1  0  0  0  0
  8  7  3  0  0  0  0
  9  4  2  0  0  0  0
 10  4  1  0  0  0  0
 11  3  1  0  0  0  0
 12 10  1  0  0  0  0
M  END
> <CdId>
3841

> <Mol Weight>
183.592

> <Formula>
C8H6ClNO2

> <Click_ID>
CLK050A06 __ __ 

$$$$
