CLK051B07
 OpenBabel03181417552D

 22 24  0  0  0  0  0  0  0  0999 V2000
   -0.1000    0.8083    0.0000 C   0  0  0  0  0  0  0  0  0  0  0  0
    0.6167    1.2208    0.0000 N   0  0  0  0  0  0  0  0  0  0  0  0
   -0.1000   -0.0167    0.0000 C   0  0  0  0  0  0  0  0  0  0  0  0
   -0.8125    1.2208    0.0000 C   0  0  0  0  0  0  0  0  0  0  0  0
    0.6167    2.0458    0.0000 N   0  0  0  0  0  0  0  0  0  0  0  0
   -0.1000    2.4583    0.0000 C   0  0  0  0  0  0  0  0  0  0  0  0
   -0.8125    2.0458    0.0000 C   0  0  0  0  0  0  0  0  0  0  0  0
    0.6167   -0.4292    0.0000 N   0  0  0  0  0  0  0  0  0  0  0  0
    2.0458   -2.9042    0.0000 C   0  0  0  0  0  0  0  0  0  0  0  0
    2.7583   -3.3167    0.0000 C   0  0  0  0  0  0  0  0  0  0  0  0
   -0.8125   -0.4292    0.0000 O   0  0  0  0  0  0  0  0  0  0  0  0
   -0.1000    3.2833    0.0000 O   0  0  0  0  0  0  0  0  0  0  0  0
    0.6167   -1.2542    0.0000 C   0  0  0  0  0  0  0  0  0  0  0  0
    1.3292   -2.4917    0.0000 C   0  0  0  0  0  0  0  0  0  0  0  0
    1.3292   -1.6667    0.0000 C   0  0  0  0  0  0  0  0  0  0  0  0
   -1.5292    0.8083    0.0000 C   0  0  0  0  0  0  0  0  0  0  0  0
   -1.5292    2.4583    0.0000 C   0  0  0  0  0  0  0  0  0  0  0  0
   -0.1000   -2.4917    0.0000 C   0  0  0  0  0  0  0  0  0  0  0  0
   -0.1000   -1.6667    0.0000 C   0  0  0  0  0  0  0  0  0  0  0  0
    0.6167   -2.9042    0.0000 C   0  0  0  0  0  0  0  0  0  0  0  0
   -2.2417    1.2208    0.0000 C   0  0  0  0  0  0  0  0  0  0  0  0
   -2.2417    2.0458    0.0000 C   0  0  0  0  0  0  0  0  0  0  0  0
  2  1  2  0  0  0  0
  3  1  1  0  0  0  0
  4  1  1  0  0  0  0
  5  2  1  0  0  0  0
  6  7  1  0  0  0  0
  6  5  1  0  0  0  0
  7  4  2  0  0  0  0
  8  3  1  0  0  0  0
  9 14  1  0  0  0  0
 10  9  3  0  0  0  0
 11  3  2  0  0  0  0
 12  6  2  0  0  0  0
 13  8  1  0  0  0  0
 14 15  1  0  0  0  0
 15 13  2  0  0  0  0
 16  4  1  0  0  0  0
 17  7  1  0  0  0  0
 18 19  2  0  0  0  0
 19 13  1  0  0  0  0
 20 14  2  0  0  0  0
 20 18  1  0  0  0  0
 21 16  2  0  0  0  0
 21 22  1  0  0  0  0
 22 17  2  0  0  0  0
M  END
> <CdId>
3930

> <Mol Weight>
289.2881

> <Formula>
C17H11N3O2

> <Click_ID>
CLK051B07 __ __ 

$$$$
