CLK042A11
 OpenBabel03181417552D

 29 31  0  0  0  0  0  0  0  0999 V2000
    0.7625    2.7750    0.0000 S   0  0  0  0  0  0  0  0  0  0  0  0
   -0.6667   -3.0000    0.0000 C   0  0  0  0  0  0  0  0  0  0  0  0
   -1.3833   -1.7625    0.0000 C   0  0  0  0  0  0  0  0  0  0  0  0
   -1.3833   -3.4125    0.0000 O   0  0  0  0  0  0  0  0  0  0  0  0
   -2.0958   -3.0000    0.0000 C   0  0  0  0  0  0  0  0  0  0  0  0
   -0.6667   -2.1750    0.0000 C   0  0  0  0  0  0  0  0  0  0  0  0
   -2.0958   -2.1750    0.0000 C   0  0  0  0  0  0  0  0  0  0  0  0
    0.7625    1.9500    0.0000 C   0  0  0  0  0  0  0  0  0  0  0  0
   -0.6667    0.3000    0.0000 C   0  0  0  0  0  0  0  0  0  0  0  0
    0.0458   -3.4125    0.0000 C   0  0  0  0  0  0  0  0  0  0  0  0
    1.4750    4.8333    0.0000 C   0  0  0  0  0  0  0  0  0  0  0  0
    0.0458    0.7125    0.0000 C   0  0  0  0  0  0  0  0  0  0  0  0
    0.0458    1.5375    0.0000 C   0  0  0  0  0  0  0  0  0  0  0  0
    1.4750    5.6583    0.0000 C   0  0  0  0  0  0  0  0  0  0  0  0
    1.5875    2.7750    0.0000 O   0  0  0  0  0  0  0  0  0  0  0  0
   -0.0625    2.7750    0.0000 O   0  0  0  0  0  0  0  0  0  0  0  0
    0.0458   -1.7625    0.0000 C   0  0  0  0  0  0  0  0  0  0  0  0
   -0.6667   -0.5250    0.0000 O   0  0  0  0  0  0  0  0  0  0  0  0
   -1.3833   -0.9375    0.0000 C   0  0  0  0  0  0  0  0  0  0  0  0
    0.7625    3.6000    0.0000 N   0  0  0  0  0  0  0  0  0  0  0  0
   -2.8125   -3.4125    0.0000 O   0  0  0  0  0  0  0  0  0  0  0  0
   -1.3833    0.7125    0.0000 O   0  0  0  0  0  0  0  0  0  0  0  0
    0.7625   -3.0000    0.0000 C   0  0  0  0  0  0  0  0  0  0  0  0
    0.7625   -2.1750    0.0000 C   0  0  0  0  0  0  0  0  0  0  0  0
    1.4750    4.0083    0.0000 C   0  0  0  0  0  0  0  0  0  0  0  0
    1.4750   -3.4125    0.0000 O   0  0  0  0  0  0  0  0  0  0  0  0
    1.4750    1.5375    0.0000 C   0  0  0  0  0  0  0  0  0  0  0  0
    0.7625    0.3000    0.0000 C   0  0  0  0  0  0  0  0  0  0  0  0
    1.4750    0.7125    0.0000 C   0  0  0  0  0  0  0  0  0  0  0  0
  2  6  2  0  0  0  0
  2  4  1  0  0  0  0
  3 19  1  0  0  0  0
  4  5  1  0  0  0  0
  5  7  1  0  0  0  0
  6  3  1  0  0  0  0
  7  3  2  0  0  0  0
  8  1  1  0  0  0  0
  9 12  1  0  0  0  0
 10  2  1  0  0  0  0
 11 25  1  0  0  0  0
 12 13  2  0  0  0  0
 13  8  1  0  0  0  0
 14 11  3  0  0  0  0
 15  1  2  0  0  0  0
 16  1  2  0  0  0  0
 17  6  1  0  0  0  0
 18  9  1  0  0  0  0
 19 18  1  0  0  0  0
 20  1  1  0  0  0  0
 21  5  2  0  0  0  0
 22  9  2  0  0  0  0
 23 10  2  0  0  0  0
 24 17  2  0  0  0  0
 24 23  1  0  0  0  0
 25 20  1  0  0  0  0
 26 23  1  0  0  0  0
 27  8  2  0  0  0  0
 28 12  1  0  0  0  0
 29 27  1  0  0  0  0
 29 28  2  0  0  0  0
M  END
> <CdId>
3241

> <Mol Weight>
413.401

> <Formula>
C20H15NO7S

> <Click_ID>
CLK042A11 __ __ 

$$$$
