CLK002_B04
 OpenBabel03181417552D

 22 24  0  0  0  0  0  0  0  0999 V2000
   -1.3455   -0.1247    0.0000 C   0  0  0  0  0  0  0  0  0  0  0  0
   -0.9243    0.5975    0.0000 C   0  0  0  0  0  0  0  0  0  0  0  0
   -0.9243   -0.8383    0.0000 C   0  0  0  0  0  0  0  0  0  0  0  0
   -2.1752   -0.1247    0.0000 C   0  0  0  0  0  0  0  0  0  0  0  0
   -0.1204    0.5975    0.0000 C   0  0  0  0  0  0  0  0  0  0  0  0
   -1.3455    1.3069    0.0000 C   0  0  0  0  0  0  0  0  0  0  0  0
   -0.1204   -0.8383    0.0000 C   0  0  0  0  0  0  0  0  0  0  0  0
   -1.3455   -1.5862    0.0000 C   0  0  0  0  0  0  0  0  0  0  0  0
   -2.5621    0.5975    0.0000 C   0  0  0  0  0  0  0  0  0  0  0  0
   -2.5621   -0.8383    0.0000 C   0  0  0  0  0  0  0  0  0  0  0  0
    0.3052   -0.1247    0.0000 N   0  0  0  0  0  0  0  0  0  0  0  0
    0.3052    1.3069    0.0000 O   0  0  0  0  0  0  0  0  0  0  0  0
   -2.1752    1.3069    0.0000 C   0  0  0  0  0  0  0  0  0  0  0  0
    0.3052   -1.5862    0.0000 O   0  0  0  0  0  0  0  0  0  0  0  0
   -2.1752   -1.5862    0.0000 C   0  0  0  0  0  0  0  0  0  0  0  0
    1.1262   -0.1247    0.0000 C   0  0  0  0  0  0  0  0  0  0  0  0
    1.5390    0.5803    0.0000 C   0  0  0  0  0  0  0  0  0  0  0  0
    2.3644    0.5803    0.0000 O   0  0  0  0  0  0  0  0  0  0  0  0
    1.1006    1.2897    0.0000 O   0  0  0  0  0  0  0  0  0  0  0  0
    2.7685   -0.1247    0.0000 C   0  0  0  0  0  0  0  0  0  0  0  0
    3.5767   -0.1247    0.0000 C   0  0  0  0  0  0  0  0  0  0  0  0
    4.3891   -0.1247    0.0000 C   0  0  0  0  0  0  0  0  0  0  0  0
  1  2  1  0  0  0  0
  1  3  1  0  0  0  0
  1  4  2  0  0  0  0
  2  5  1  0  0  0  0
  2  6  2  0  0  0  0
  3  7  1  0  0  0  0
  3  8  2  0  0  0  0
  4  9  1  0  0  0  0
  4 10  1  0  0  0  0
  5 11  1  0  0  0  0
  5 12  2  0  0  0  0
  6 13  1  0  0  0  0
  7 14  2  0  0  0  0
  7 11  1  0  0  0  0
  8 15  1  0  0  0  0
  9 13  2  0  0  0  0
 10 15  2  0  0  0  0
 11 16  1  0  0  0  0
 16 17  1  0  0  0  0
 17 18  1  0  0  0  0
 17 19  2  0  0  0  0
 18 20  1  0  0  0  0
 20 21  1  0  0  0  0
 21 22  3  0  0  0  0
M  END
> <CdId>
93

> <Mol Weight>
293.2735

> <Formula>
C17H11NO4

> <Click_ID>
CLK002_B04 __ __ 

$$$$
