CLK040F07
 OpenBabel03181417552D

 23 24  0  0  0  0  0  0  0  0999 V2000
   -1.4666   -1.2541    0.0000 C   0  0  0  0  0  0  0  0  0  0  0  0
    1.1166    1.5082    0.0000 S   0  0  0  0  0  0  0  0  0  0  0  0
   -1.4666   -2.0790    0.0000 N   0  0  0  0  0  0  0  0  0  0  0  0
   -0.7957   -0.7666    0.0000 N   0  0  0  0  0  0  0  0  0  0  0  0
   -2.2498   -0.9957    0.0000 S   0  0  0  0  0  0  0  0  0  0  0  0
   -2.2498   -2.3331    0.0000 C   0  0  0  0  0  0  0  0  0  0  0  0
   -0.0417   -1.1041    0.0000 C   0  0  0  0  0  0  0  0  0  0  0  0
   -2.7330   -1.6665    0.0000 C   0  0  0  0  0  0  0  0  0  0  0  0
    1.2041    0.6874    0.0000 C   0  0  0  0  0  0  0  0  0  0  0  0
    0.6249   -0.6166    0.0000 C   0  0  0  0  0  0  0  0  0  0  0  0
    1.6124    3.6330    0.0000 C   0  0  0  0  0  0  0  0  0  0  0  0
    0.5375    0.2042    0.0000 C   0  0  0  0  0  0  0  0  0  0  0  0
    1.5291    4.4496    0.0000 C   0  0  0  0  0  0  0  0  0  0  0  0
    0.3000    1.4207    0.0000 O   0  0  0  0  0  0  0  0  0  0  0  0
    1.9373    1.5957    0.0000 O   0  0  0  0  0  0  0  0  0  0  0  0
    1.0332    2.3290    0.0000 N   0  0  0  0  0  0  0  0  0  0  0  0
    0.0417   -1.9248    0.0000 O   0  0  0  0  0  0  0  0  0  0  0  0
    1.6998    2.8122    0.0000 C   0  0  0  0  0  0  0  0  0  0  0  0
   -2.5040   -3.1164    0.0000 C   0  0  0  0  0  0  0  0  0  0  0  0
   -3.5580   -1.6665    0.0000 C   0  0  0  0  0  0  0  0  0  0  0  0
    1.9581    0.3500    0.0000 C   0  0  0  0  0  0  0  0  0  0  0  0
    1.3791   -0.9541    0.0000 C   0  0  0  0  0  0  0  0  0  0  0  0
    2.0456   -0.4708    0.0000 C   0  0  0  0  0  0  0  0  0  0  0  0
  2  9  1  0  0  0  0
  3  1  2  0  0  0  0
  4  1  1  0  0  0  0
  5  1  1  0  0  0  0
  6  3  1  0  0  0  0
  7  4  1  0  0  0  0
  8  5  1  0  0  0  0
  8  6  2  0  0  0  0
  9 12  1  0  0  0  0
 10  7  1  0  0  0  0
 11 18  1  0  0  0  0
 12 10  2  0  0  0  0
 13 11  3  0  0  0  0
 14  2  2  0  0  0  0
 15  2  2  0  0  0  0
 16  2  1  0  0  0  0
 17  7  2  0  0  0  0
 18 16  1  0  0  0  0
 19  6  1  0  0  0  0
 20  8  1  0  0  0  0
 21  9  2  0  0  0  0
 21 23  1  0  0  0  0
 22 10  1  0  0  0  0
 23 22  2  0  0  0  0
M  END
> <CdId>
3054

> <Mol Weight>
349.428

> <Formula>
C15H15N3O3S2

> <Click_ID>
CLK040F07 __ __ 

$$$$
