CLK035_B09
 OpenBabel03181417552D

 24 26  0  0  0  0  0  0  0  0999 V2000
   -3.3000    1.7333    0.0000 C   0  0  0  0  0  0  0  0  0  0  0  0
   -3.3000    2.5708    0.0000 C   0  0  0  0  0  0  0  0  0  0  0  0
   -4.0958    1.4833    0.0000 N   0  0  0  0  0  0  0  0  0  0  0  0
   -4.5833    2.1500    0.0000 N   0  0  0  0  0  0  0  0  0  0  0  0
   -4.0958    2.8208    0.0000 N   0  0  0  0  0  0  0  0  0  0  0  0
   -2.5958    1.3250    0.0000 N   0  0  0  0  0  0  0  0  0  0  0  0
   -2.5958    2.9833    0.0000 C   0  0  0  0  0  0  0  0  0  0  0  0
   -1.8833    2.5583    0.0000 N   0  0  0  0  0  0  0  0  0  0  0  0
   -1.8833    1.7333    0.0000 C   0  0  0  0  0  0  0  0  0  0  0  0
   -5.9125   -1.8292    0.0000 C   0  0  0  0  0  0  0  0  0  0  0  0
   -4.3458    0.6958    0.0000 C   0  0  0  0  0  0  0  0  0  0  0  0
   -1.1583    3.7958    0.0000 C   0  0  0  0  0  0  0  0  0  0  0  0
   -1.1625    4.6167    0.0000 C   0  0  0  0  0  0  0  0  0  0  0  0
   -2.5875    3.8000    0.0000 O   0  0  0  0  0  0  0  0  0  0  0  0
   -5.1125   -1.6625    0.0000 O   0  0  0  0  0  0  0  0  0  0  0  0
   -1.1625    2.9708    0.0000 C   0  0  0  0  0  0  0  0  0  0  0  0
   -5.1583    0.5208    0.0000 C   0  0  0  0  0  0  0  0  0  0  0  0
   -3.7958    0.0833    0.0000 C   0  0  0  0  0  0  0  0  0  0  0  0
   -6.6417   -1.9792    0.0000 F   0  0  0  0  0  0  0  0  0  0  0  0
   -6.5875   -1.2792    0.0000 F   0  0  0  0  0  0  0  0  0  0  0  0
   -6.3042   -2.5875    0.0000 F   0  0  0  0  0  0  0  0  0  0  0  0
   -4.8500   -0.8750    0.0000 C   0  0  0  0  0  0  0  0  0  0  0  0
   -4.0500   -0.7042    0.0000 C   0  0  0  0  0  0  0  0  0  0  0  0
   -5.4083   -0.2542    0.0000 C   0  0  0  0  0  0  0  0  0  0  0  0
  2  1  2  0  0  0  0
  3  1  1  0  0  0  0
  4  3  1  0  0  0  0
  5  2  1  0  0  0  0
  5  4  2  0  0  0  0
  6  1  1  0  0  0  0
  7  2  1  0  0  0  0
  7  8  1  0  0  0  0
  8  9  1  0  0  0  0
  9  6  2  0  0  0  0
 10 15  1  0  0  0  0
 11  3  1  0  0  0  0
 12 16  1  0  0  0  0
 13 12  3  0  0  0  0
 14  7  2  0  0  0  0
 15 22  1  0  0  0  0
 16  8  1  0  0  0  0
 17 11  2  0  0  0  0
 18 11  1  0  0  0  0
 19 10  1  0  0  0  0
 20 10  1  0  0  0  0
 21 10  1  0  0  0  0
 22 23  1  0  0  0  0
 23 18  2  0  0  0  0
 24 17  1  0  0  0  0
 24 22  2  0  0  0  0
M  END
> <CdId>
2663

> <Mol Weight>
335.2408

> <Formula>
C14H8F3N5O2

> <Click_ID>
CLK035_B09 __ __ 

$$$$
