CLK007_B08
 OpenBabel03181417552D

 26 29  0  0  0  0  0  0  0  0999 V2000
    0.6876   -0.3974    0.0000 C   0  0  3  0  0  0  0  0  0  0  0  0
   -0.0241   -0.8120    0.0000 C   0  0  0  0  0  0  0  0  0  0  0  0
    0.6876    0.4285    0.0000 C   0  0  0  0  0  0  0  0  0  0  0  0
    1.4029   -0.8016    0.0000 C   0  0  0  0  0  0  0  0  0  0  0  0
   -0.0241   -1.6309    0.0000 C   0  0  0  0  0  0  0  0  0  0  0  0
   -0.7394   -0.3905    0.0000 C   0  0  0  0  0  0  0  0  0  0  0  0
    1.4029    0.8362    0.0000 C   0  0  0  0  0  0  0  0  0  0  0  0
   -0.0241    0.8362    0.0000 C   0  0  0  0  0  0  0  0  0  0  0  0
    1.4029   -1.6309    0.0000 C   0  0  0  0  0  0  0  0  0  0  0  0
   -0.7394   -2.0421    0.0000 N   0  0  0  0  0  0  0  0  0  0  0  0
    0.6876   -2.0421    0.0000 N   0  0  0  0  0  0  0  0  0  0  0  0
   -1.4443   -0.8120    0.0000 N   0  0  0  0  0  0  0  0  0  0  0  0
   -0.7394    0.4354    0.0000 O   0  0  0  0  0  0  0  0  0  0  0  0
    1.3994    1.6689    0.0000 C   0  0  0  0  0  0  0  0  0  0  0  0
   -0.0380    1.6551    0.0000 C   0  0  0  0  0  0  0  0  0  0  0  0
    2.1146   -2.0421    0.0000 O   0  0  0  0  0  0  0  0  0  0  0  0
   -1.4443   -1.6378    0.0000 C   0  0  0  0  0  0  0  0  0  0  0  0
    0.6842    2.0766    0.0000 C   0  0  0  0  0  0  0  0  0  0  0  0
    2.1112    2.0801    0.0000 C   0  0  0  0  0  0  0  0  0  0  0  0
   -2.1665   -2.0525    0.0000 S   0  0  0  0  0  0  0  0  0  0  0  0
    0.6773    2.8956    0.0000 C   0  0  0  0  0  0  0  0  0  0  0  0
    2.1043    2.9059    0.0000 C   0  0  0  0  0  0  0  0  0  0  0  0
   -2.8818   -1.6378    0.0000 C   0  0  0  0  0  0  0  0  0  0  0  0
    1.3890    3.3171    0.0000 C   0  0  0  0  0  0  0  0  0  0  0  0
   -2.8818   -0.8120    0.0000 C   0  0  0  0  0  0  0  0  0  0  0  0
   -3.5970   -0.3974    0.0000 C   0  0  0  0  0  0  0  0  0  0  0  0
  1  2  1  0  0  0  0
  1  3  1  0  0  0  0
  1  4  1  0  0  0  0
  2  5  2  0  0  0  0
  2  6  1  0  0  0  0
  3  7  2  0  0  0  0
  3  8  1  0  0  0  0
  4  9  1  0  0  0  0
  5 10  1  0  0  0  0
  5 11  1  0  0  0  0
  6 12  1  0  0  0  0
  6 13  2  0  0  0  0
  7 14  1  0  0  0  0
  8 15  2  0  0  0  0
  9 16  2  0  0  0  0
  9 11  1  0  0  0  0
 10 17  2  0  0  0  0
 12 17  1  0  0  0  0
 14 18  1  0  0  0  0
 14 19  2  0  0  0  0
 15 18  1  0  0  0  0
 17 20  1  0  0  0  0
 18 21  2  0  0  0  0
 19 22  1  0  0  0  0
 20 23  1  0  0  0  0
 21 24  1  0  0  0  0
 22 24  2  0  0  0  0
 23 25  1  0  0  0  0
 25 26  3  0  0  0  0
M  END
> <CdId>
497

> <Mol Weight>
361.417

> <Formula>
C20H15N3O2S

> <Click_ID>
CLK007_B08 __ __ 

$$$$
