CLK040G10
 OpenBabel03181417552D

 21 22  0  0  0  0  0  0  0  0999 V2000
   -0.2042   -3.5333    0.0000 N   0  3  0  0  0  0  0  0  0  0  0  0
   -0.2042    2.2417    0.0000 C   0  0  0  0  0  0  0  0  0  0  0  0
   -0.2042    1.4167    0.0000 N   0  0  0  0  0  0  0  0  0  0  0  0
   -0.2042   -0.2333    0.0000 N   0  0  0  0  0  0  0  0  0  0  0  0
   -0.2042   -2.7083    0.0000 C   0  0  0  0  0  0  0  0  0  0  0  0
    1.2208    3.8917    0.0000 C   0  0  0  0  0  0  0  0  0  0  0  0
    1.9375    4.3000    0.0000 C   0  0  0  0  0  0  0  0  0  0  0  0
   -0.9208   -3.9458    0.0000 O   0  5  0  0  0  0  0  0  0  0  0  0
   -0.2042   -1.0583    0.0000 C   0  0  0  0  0  0  0  0  0  0  0  0
    0.5083   -3.9458    0.0000 O   0  0  0  0  0  0  0  0  0  0  0  0
   -0.9208    1.0042    0.0000 C   0  0  0  0  0  0  0  0  0  0  0  0
    0.5083    1.0042    0.0000 C   0  0  0  0  0  0  0  0  0  0  0  0
   -0.9208    0.1792    0.0000 C   0  0  0  0  0  0  0  0  0  0  0  0
    0.5083    0.1792    0.0000 C   0  0  0  0  0  0  0  0  0  0  0  0
   -0.9208    2.6542    0.0000 O   0  0  0  0  0  0  0  0  0  0  0  0
    0.5083    2.6542    0.0000 N   0  0  0  0  0  0  0  0  0  0  0  0
   -0.9208   -2.2958    0.0000 C   0  0  0  0  0  0  0  0  0  0  0  0
    0.5083   -2.2958    0.0000 C   0  0  0  0  0  0  0  0  0  0  0  0
    0.5083   -1.4708    0.0000 C   0  0  0  0  0  0  0  0  0  0  0  0
   -0.9208   -1.4708    0.0000 C   0  0  0  0  0  0  0  0  0  0  0  0
    0.5083    3.4792    0.0000 C   0  0  0  0  0  0  0  0  0  0  0  0
  2  3  1  0  0  0  0
  3 11  1  0  0  0  0
  3 12  1  0  0  0  0
  4  9  1  0  0  0  0
  5  1  1  0  0  0  0
  6 21  1  0  0  0  0
  7  6  3  0  0  0  0
  8  1  1  0  0  0  0
  9 20  2  0  0  0  0
  9 19  1  0  0  0  0
 10  1  2  0  0  0  0
 11 13  1  0  0  0  0
 12 14  1  0  0  0  0
 13  4  1  0  0  0  0
 14  4  1  0  0  0  0
 15  2  2  0  0  0  0
 16  2  1  0  0  0  0
 17  5  2  0  0  0  0
 18  5  1  0  0  0  0
 19 18  2  0  0  0  0
 20 17  1  0  0  0  0
 21 16  1  0  0  0  0
M  END
> <CdId>
3079

> <Mol Weight>
288.3018

> <Formula>
C14H16N4O3

> <Click_ID>
CLK040G10 __ __ 

$$$$
