CLK002_A10
 OpenBabel03181417552D

 24 27  0  0  0  0  0  0  0  0999 V2000
   -0.8777   -0.9569    0.0000 C   0  0  0  0  0  0  0  0  0  0  0  0
   -0.1770   -0.5439    0.0000 C   0  0  0  0  0  0  0  0  0  0  0  0
   -1.5930   -0.5439    0.0000 C   0  0  0  0  0  0  0  0  0  0  0  0
   -1.2796   -1.6926    0.0000 C   0  0  0  0  0  0  0  0  0  0  0  0
   -0.0498   -0.9569    0.0000 C   0  0  0  0  0  0  0  0  0  0  0  0
   -0.1770    0.2729    0.0000 C   0  0  0  0  0  0  0  0  0  0  0  0
    0.5384   -0.9569    0.0000 C   0  0  0  0  0  0  0  0  0  0  0  0
   -1.6096    0.2729    0.0000 C   0  0  0  0  0  0  0  0  0  0  0  0
   -0.8777   -2.3951    0.0000 C   0  0  0  0  0  0  0  0  0  0  0  0
    0.3688   -1.6594    0.0000 C   0  0  0  0  0  0  0  0  0  0  0  0
   -0.8777    0.6933    0.0000 C   0  0  0  0  0  0  0  0  0  0  0  0
    0.5384    0.6933    0.0000 N   0  0  0  0  0  0  0  0  0  0  0  0
    1.2538   -0.5439    0.0000 N   0  0  0  0  0  0  0  0  0  0  0  0
    0.5384   -1.7995    0.0000 O   0  0  0  0  0  0  0  0  0  0  0  0
   -2.3047    0.7025    0.0000 C   0  0  0  0  0  0  0  0  0  0  0  0
   -0.0498   -2.3951    0.0000 C   0  0  0  0  0  0  0  0  0  0  0  0
   -0.8777    1.5304    0.0000 C   0  0  0  0  0  0  0  0  0  0  0  0
    1.2538    0.2729    0.0000 C   0  0  0  0  0  0  0  0  0  0  0  0
   -2.3047    1.5119    0.0000 C   0  0  0  0  0  0  0  0  0  0  0  0
   -1.5617    1.9507    0.0000 C   0  0  0  0  0  0  0  0  0  0  0  0
    2.0005    0.7025    0.0000 S   0  0  0  0  0  0  0  0  0  0  0  0
    2.0005    1.5304    0.0000 C   0  0  0  0  0  0  0  0  0  0  0  0
    2.7104    1.9507    0.0000 C   0  0  0  0  0  0  0  0  0  0  0  0
    3.4166    2.3600    0.0000 C   0  0  0  0  0  0  0  0  0  0  0  0
  1  2  1  0  0  0  0
  1  3  1  0  0  0  0
  1  4  1  0  0  0  0
  1  5  1  0  0  0  0
  2  6  2  0  0  0  0
  2  7  1  0  0  0  0
  3  8  1  0  0  0  0
  4  9  1  0  0  0  0
  5 10  1  0  0  0  0
  6 11  1  0  0  0  0
  6 12  1  0  0  0  0
  7 13  1  0  0  0  0
  7 14  2  0  0  0  0
  8 15  2  0  0  0  0
  8 11  1  0  0  0  0
  9 16  1  0  0  0  0
 10 16  1  0  0  0  0
 11 17  2  0  0  0  0
 12 18  2  0  0  0  0
 13 18  1  0  0  0  0
 15 19  1  0  0  0  0
 17 20  1  0  0  0  0
 18 21  1  0  0  0  0
 19 20  2  0  0  0  0
 21 22  1  0  0  0  0
 22 23  1  0  0  0  0
 23 24  3  0  0  0  0
M  END
> <CdId>
89

> <Mol Weight>
336.451

> <Formula>
C20H20N2OS

> <Click_ID>
CLK002_A10 __ __ 

$$$$
