CLK019_D03
 OpenBabel03181417552D

 25 27  0  0  0  0  0  0  0  0999 V2000
    4.5762   -2.7056    0.0000 C    0  0  0  0  0  0  0  0  0  0  0  0
    5.2859   -3.1190    0.0000 C    0  0  3  0  0  0  0  0  0  0  0  0
    4.5845   -1.8789    0.0000 C    0  0  0  0  0  0  0  0  0  0  0  0
    5.2776   -3.9457    0.0000 C    0  0  0  0  0  0  0  0  0  0  0  0
    5.2901   -1.4697    0.0000 O    0  0  0  0  0  0  0  0  0  0  0  0
    5.9999   -1.8831    0.0000 C    0  0  0  0  0  0  0  0  0  0  0  0
    5.9999   -2.7098    0.0000 C    0  0  0  0  0  0  0  0  0  0  0  0
    3.8580   -3.1106    0.0000 C    0  0  0  0  0  0  0  0  0  0  0  0
    3.1357   -3.5115    0.0000 N    0  0  0  0  0  0  0  0  0  0  0  0
    6.7139   -1.4697    0.0000 C    0  0  0  0  0  0  0  0  0  0  0  0
    2.4426   -3.9248    0.0000 C    0  0  0  0  0  0  0  0  0  0  0  0
    1.7328   -3.5240    0.0000 C    0  0  0  0  0  0  0  0  0  0  0  0
    6.7139   -3.1232    0.0000 C    0  0  0  0  0  0  0  0  0  0  0  0
    4.5636   -4.3507    0.0000 C    0  0  0  0  0  0  0  0  0  0  0  0
    5.9916   -4.3590    0.0000 C    0  0  0  0  0  0  0  0  0  0  0  0
    3.8705   -1.4572    0.0000 N    0  0  0  0  0  0  0  0  0  0  0  0
    4.5594   -5.1732    0.0000 C    0  0  0  0  0  0  0  0  0  0  0  0
    7.4279   -1.8789    0.0000 C    0  0  0  0  0  0  0  0  0  0  0  0
    5.9874   -5.1857    0.0000 C    0  0  0  0  0  0  0  0  0  0  0  0
    7.4321   -2.7098    0.0000 C    0  0  0  0  0  0  0  0  0  0  0  0
    5.2734   -5.5908    0.0000 C    0  0  0  0  0  0  0  0  0  0  0  0
    6.6930   -5.5991    0.0000 Br   0  0  0  0  0  0  0  0  0  0  0  0
    3.8622   -3.9373    0.0000 O    0  0  0  0  0  0  0  0  0  0  0  0
    3.1482   -4.3465    0.0000 C    0  0  0  0  0  0  0  0  0  0  0  0
    8.1460   -1.4572    0.0000 O    0  0  0  0  0  0  0  0  0  0  0  0
  2  1  1  0  0  0  0
  3  1  2  0  0  0  0
  4  2  1  0  0  0  0
  5  3  1  0  0  0  0
  6  5  1  0  0  0  0
  7  2  1  0  0  0  0
  7  6  2  0  0  0  0
  8  1  1  0  0  0  0
  9  8  3  0  0  0  0
 10  6  1  0  0  0  0
 11 24  1  0  0  0  0
 12 11  3  0  0  0  0
 13  7  1  0  0  0  0
 14  4  2  0  0  0  0
 15  4  1  0  0  0  0
 16  3  1  0  0  0  0
 17 14  1  0  0  0  0
 18 10  2  0  0  0  0
 18 20  1  0  0  0  0
 19 15  2  0  0  0  0
 20 13  2  0  0  0  0
 21 19  1  0  0  0  0
 21 17  2  0  0  0  0
 22 19  1  0  0  0  0
 23 14  1  0  0  0  0
 24 23  1  0  0  0  0
 25 18  1  0  0  0  0
M  END
> <CdId>
1428

> <Mol Weight>
397.222

> <Formula>
C19H13BrN2O3

> <Click_ID>
CLK019_D03 __ __ 

$$$$
