CLK015_G03
 OpenBabel03181417552D

 23 24  0  0  0  0  0  0  0  0999 V2000
    6.8691   -1.8945    0.0000 N    0  0  0  0  0  0  0  0  0  0  0  0
    6.8691   -2.7236    0.0000 C    0  0  0  0  0  0  0  0  0  0  0  0
    6.0856   -1.6416    0.0000 C    0  0  0  0  0  0  0  0  0  0  0  0
    5.6006   -2.3049    0.0000 C    0  0  0  0  0  0  0  0  0  0  0  0
    6.0856   -2.9765    0.0000 S    0  0  0  0  0  0  0  0  0  0  0  0
    4.7756   -2.3049    0.0000 C    0  0  0  0  0  0  0  0  0  0  0  0
    4.3569   -3.0262    0.0000 C    0  0  0  0  0  0  0  0  0  0  0  0
    7.5407   -1.4095    0.0000 C    0  0  0  0  0  0  0  0  0  0  0  0
    7.5365   -3.2086    0.0000 S    0  0  0  0  0  0  0  0  0  0  0  0
    1.8821   -1.6085    0.0000 C    0  0  0  0  0  0  0  0  0  0  0  0
    1.4592   -0.8996    0.0000 C    0  0  0  0  0  0  0  0  0  0  0  0
    5.8244   -0.8581    0.0000 O    0  0  0  0  0  0  0  0  0  0  0  0
    3.5319   -3.0262    0.0000 C    0  0  0  0  0  0  0  0  0  0  0  0
    4.7798   -3.7475    0.0000 C    0  0  0  0  0  0  0  0  0  0  0  0
    3.1215   -3.7475    0.0000 C    0  0  0  0  0  0  0  0  0  0  0  0
    4.3652   -4.4689    0.0000 C    0  0  0  0  0  0  0  0  0  0  0  0
    3.5361   -4.4689    0.0000 C    0  0  0  0  0  0  0  0  0  0  0  0
    4.7798   -5.1777    0.0000 Br   0  0  0  0  0  0  0  0  0  0  0  0
    3.1133   -2.3174    0.0000 O    0  0  0  0  0  0  0  0  0  0  0  0
    2.2925   -2.3174    0.0000 C    0  0  0  0  0  0  0  0  0  0  0  0
    7.4536   -0.5969    0.0000 C    0  0  0  0  0  0  0  0  0  0  0  0
    8.1210   -0.1161    0.0000 C    0  0  0  0  0  0  0  0  0  0  0  0
    6.7074   -0.2612    0.0000 C    0  0  0  0  0  0  0  0  0  0  0  0
  2  1  1  0  0  0  0
  3  1  1  0  0  0  0
  4  3  1  0  0  0  0
  5  2  1  0  0  0  0
  5  4  1  0  0  0  0
  6  4  2  0  0  0  0
  7  6  1  0  0  0  0
  8  1  1  0  0  0  0
  9  2  2  0  0  0  0
 10 20  1  0  0  0  0
 11 10  3  0  0  0  0
 12  3  2  0  0  0  0
 13  7  2  0  0  0  0
 14  7  1  0  0  0  0
 15 13  1  0  0  0  0
 16 14  2  0  0  0  0
 17 16  1  0  0  0  0
 17 15  2  0  0  0  0
 18 16  1  0  0  0  0
 19 13  1  0  0  0  0
 20 19  1  0  0  0  0
 21  8  1  0  0  0  0
 22 21  1  0  0  0  0
 23 21  1  0  0  0  0
M  END
> <CdId>
1138

> <Mol Weight>
410.348

> <Formula>
C17H16BrNO2S2

> <Click_ID>
CLK015_G03 __ __ 

$$$$
