CLK028_F03
 OpenBabel03181417552D

 30 33  0  0  0  0  0  0  0  0999 V2000
    1.4368    0.1066    0.0000 N   0  0  0  0  0  0  0  0  0  0  0  0
    0.0138    0.1066    0.0000 C   0  0  0  0  0  0  0  0  0  0  0  0
    1.4368   -0.7184    0.0000 C   0  0  0  0  0  0  0  0  0  0  0  0
    0.7253    0.5259    0.0000 C   0  0  0  0  0  0  0  0  0  0  0  0
    0.7253   -1.1240    0.0000 N   0  0  0  0  0  0  0  0  0  0  0  0
    0.0138   -0.7184    0.0000 C   0  0  0  0  0  0  0  0  0  0  0  0
   -1.4162    0.1066    0.0000 C   0  0  0  0  0  0  0  0  0  0  0  0
   -0.7012    0.5190    0.0000 C   0  0  0  0  0  0  0  0  0  0  0  0
   -2.3236   -0.8800    0.0000 N   0  0  0  0  0  0  0  0  0  0  0  0
    2.1517    0.5190    0.0000 C   0  0  0  0  0  0  0  0  0  0  0  0
   -1.5124   -0.7047    0.0000 C   0  0  0  0  0  0  0  0  0  0  0  0
   -2.1792    0.4469    0.0000 C   0  0  0  0  0  0  0  0  0  0  0  0
   -2.7361   -0.1685    0.0000 C   0  0  0  0  0  0  0  0  0  0  0  0
    2.8632    0.1066    0.0000 C   0  0  0  0  0  0  0  0  0  0  0  0
    2.1517   -1.1308    0.0000 S   0  0  0  0  0  0  0  0  0  0  0  0
   -3.4785   -1.7186    0.0000 C   0  0  0  0  0  0  0  0  0  0  0  0
    0.7253    1.3508    0.0000 O   0  0  0  0  0  0  0  0  0  0  0  0
   -4.3000   -1.7565    0.0000 C   0  0  0  0  0  0  0  0  0  0  0  0
    2.1517    1.3474    0.0000 C   0  0  0  0  0  0  0  0  0  0  0  0
   -0.7012   -1.1308    0.0000 O   0  0  0  0  0  0  0  0  0  0  0  0
    3.5747    0.5121    0.0000 C   0  0  0  0  0  0  0  0  0  0  0  0
   -2.6536   -1.6430    0.0000 C   0  0  0  0  0  0  0  0  0  0  0  0
    2.8632    1.7598    0.0000 C   0  0  0  0  0  0  0  0  0  0  0  0
    3.5850    1.3371    0.0000 C   0  0  0  0  0  0  0  0  0  0  0  0
   -3.5369    0.0068    0.0000 C   0  0  0  0  0  0  0  0  0  0  0  0
   -2.4267    1.2339    0.0000 C   0  0  0  0  0  0  0  0  0  0  0  0
    2.8598   -0.7184    0.0000 C   0  0  0  0  0  0  0  0  0  0  0  0
    4.2965    1.7495    0.0000 C   0  0  0  0  0  0  0  0  0  0  0  0
   -3.2379    1.3989    0.0000 C   0  0  0  0  0  0  0  0  0  0  0  0
   -3.7879    0.7872    0.0000 C   0  0  0  0  0  0  0  0  0  0  0  0
  2  4  1  0  0  0  0
  3  1  1  0  0  0  0
  4  1  1  0  0  0  0
  5  3  1  0  0  0  0
  5  6  1  0  0  0  0
  6  2  1  0  0  0  0
  7  8  1  0  0  0  0
  8  2  2  0  0  0  0
  9 11  1  0  0  0  0
  9 13  1  0  0  0  0
 10  1  1  0  0  0  0
 11  7  2  0  0  0  0
 12  7  1  0  0  0  0
 13 12  1  0  0  0  0
 14 10  2  0  0  0  0
 15  3  2  0  0  0  0
 16 22  1  0  0  0  0
 17  4  2  0  0  0  0
 18 16  3  0  0  0  0
 19 10  1  0  0  0  0
 20  6  2  0  0  0  0
 21 14  1  0  0  0  0
 22  9  1  0  0  0  0
 23 19  2  0  0  0  0
 24 23  1  0  0  0  0
 24 21  2  0  0  0  0
 25 13  2  0  0  0  0
 25 30  1  0  0  0  0
 26 12  2  0  0  0  0
 27 14  1  0  0  0  0
 28 24  1  0  0  0  0
 29 26  1  0  0  0  0
 30 29  2  0  0  0  0
M  END
> <CdId>
2137

> <Mol Weight>
413.492

> <Formula>
C24H19N3O2S

> <Click_ID>
CLK028_F03 __ __ 

$$$$
