CLK041E06
 OpenBabel03181417552D

 23 24  0  0  0  0  0  0  0  0999 V2000
   -0.5000    2.4125    0.0000 S   0  0  0  0  0  0  0  0  0  0  0  0
   -0.5000   -0.8875    0.0000 C   0  0  0  0  0  0  0  0  0  0  0  0
   -0.5000    1.5875    0.0000 C   0  0  0  0  0  0  0  0  0  0  0  0
    0.2167    4.4708    0.0000 C   0  0  0  0  0  0  0  0  0  0  0  0
    0.2167    5.2958    0.0000 C   0  0  0  0  0  0  0  0  0  0  0  0
   -1.3250    2.4125    0.0000 O   0  0  0  0  0  0  0  0  0  0  0  0
    0.3250    2.4125    0.0000 O   0  0  0  0  0  0  0  0  0  0  0  0
    0.9292   -3.3625    0.0000 C   0  0  0  0  0  0  0  0  0  0  0  0
   -0.5000   -0.0625    0.0000 C   0  0  0  0  0  0  0  0  0  0  0  0
   -0.5000    3.2375    0.0000 N   0  0  0  0  0  0  0  0  0  0  0  0
    1.5958   -3.8458    0.0000 O   0  0  0  0  0  0  0  0  0  0  0  0
   -1.2125   -1.3000    0.0000 O   0  0  0  0  0  0  0  0  0  0  0  0
    0.2625   -3.8458    0.0000 C   0  0  0  0  0  0  0  0  0  0  0  0
    1.3417   -4.6292    0.0000 C   0  0  0  0  0  0  0  0  0  0  0  0
    0.5167   -4.6292    0.0000 C   0  0  0  0  0  0  0  0  0  0  0  0
    0.2167    1.1750    0.0000 C   0  0  0  0  0  0  0  0  0  0  0  0
   -1.2125    1.1750    0.0000 C   0  0  0  0  0  0  0  0  0  0  0  0
    0.2167   -1.3000    0.0000 N   0  0  0  0  0  0  0  0  0  0  0  0
    0.2167    0.3500    0.0000 C   0  0  0  0  0  0  0  0  0  0  0  0
   -1.2125    0.3500    0.0000 C   0  0  0  0  0  0  0  0  0  0  0  0
    0.9292   -2.5375    0.0000 C   0  0  0  0  0  0  0  0  0  0  0  0
    0.2167   -2.1250    0.0000 C   0  0  0  0  0  0  0  0  0  0  0  0
    0.2167    3.6500    0.0000 C   0  0  0  0  0  0  0  0  0  0  0  0
  2  9  1  0  0  0  0
  3  1  1  0  0  0  0
  4 23  1  0  0  0  0
  5  4  3  0  0  0  0
  6  1  2  0  0  0  0
  7  1  2  0  0  0  0
  8 21  1  0  0  0  0
  9 20  2  0  0  0  0
 10  1  1  0  0  0  0
 11  8  1  0  0  0  0
 12  2  2  0  0  0  0
 13  8  2  0  0  0  0
 14 11  1  0  0  0  0
 14 15  2  0  0  0  0
 15 13  1  0  0  0  0
 16  3  1  0  0  0  0
 17  3  2  0  0  0  0
 18  2  1  0  0  0  0
 19 16  2  0  0  0  0
 19  9  1  0  0  0  0
 20 17  1  0  0  0  0
 21 22  1  0  0  0  0
 22 18  1  0  0  0  0
 23 10  1  0  0  0  0
M  END
> <CdId>
3125

> <Mol Weight>
332.374

> <Formula>
C16H16N2O4S

> <Click_ID>
CLK041E06 __ __ 

$$$$
