CLK026_G10
 OpenBabel03181417552D

 24 25  0  0  0  0  0  0  0  0999 V2000
   -2.6942    0.0309    0.0000 N    0  0  0  0  0  0  0  0  0  0  0  0
   -3.0992   -0.6933    0.0000 C    0  0  0  0  0  0  0  0  0  0  0  0
   -1.7984   -0.9473    0.0000 C    0  0  0  0  0  0  0  0  0  0  0  0
   -1.8842   -0.1304    0.0000 C    0  0  0  0  0  0  0  0  0  0  0  0
   -2.5467   -1.2939    0.0000 S    0  0  0  0  0  0  0  0  0  0  0  0
   -1.0743   -1.3523    0.0000 C    0  0  0  0  0  0  0  0  0  0  0  0
   -0.3638   -0.9301    0.0000 C    0  0  0  0  0  0  0  0  0  0  0  0
    1.0571   -0.9095    0.0000 C    0  0  0  0  0  0  0  0  0  0  0  0
    0.3466   -1.3420    0.0000 C    0  0  0  0  0  0  0  0  0  0  0  0
    1.0571   -0.0927    0.0000 C    0  0  0  0  0  0  0  0  0  0  0  0
   -2.5604    1.4483    0.0000 C    0  0  0  0  0  0  0  0  0  0  0  0
   -0.3672   -0.0961    0.0000 C    0  0  0  0  0  0  0  0  0  0  0  0
    3.2159    0.3192    0.0000 C    0  0  0  0  0  0  0  0  0  0  0  0
    0.3466    0.3192    0.0000 C    0  0  0  0  0  0  0  0  0  0  0  0
    3.9126    0.7276    0.0000 C    0  0  0  0  0  0  0  0  0  0  0  0
   -2.1245    2.1588    0.0000 C    0  0  0  0  0  0  0  0  0  0  0  0
   -3.9161   -0.7791    0.0000 O    0  0  0  0  0  0  0  0  0  0  0  0
   -1.2871    0.4393    0.0000 O    0  0  0  0  0  0  0  0  0  0  0  0
   -3.0375    0.7757    0.0000 C    0  0  0  0  0  0  0  0  0  0  0  0
    0.3569   -2.1554    0.0000 Br   0  0  0  0  0  0  0  0  0  0  0  0
    1.7778    0.3124    0.0000 O    0  0  0  0  0  0  0  0  0  0  0  0
    0.3432    1.1361    0.0000 O    0  0  0  0  0  0  0  0  0  0  0  0
    2.4917   -0.0961    0.0000 C    0  0  0  0  0  0  0  0  0  0  0  0
   -0.3672    1.5342    0.0000 C    0  0  0  0  0  0  0  0  0  0  0  0
  2  1  1  0  0  0  0
  3  4  1  0  0  0  0
  4  1  1  0  0  0  0
  5  2  1  0  0  0  0
  5  3  1  0  0  0  0
  6  3  2  0  0  0  0
  7  6  1  0  0  0  0
  8  9  2  0  0  0  0
  8 10  1  0  0  0  0
  9  7  1  0  0  0  0
 10 14  2  0  0  0  0
 11 19  1  0  0  0  0
 12  7  2  0  0  0  0
 13 23  1  0  0  0  0
 14 12  1  0  0  0  0
 15 13  3  0  0  0  0
 16 11  3  0  0  0  0
 17  2  2  0  0  0  0
 18  4  2  0  0  0  0
 19  1  1  0  0  0  0
 20  9  1  0  0  0  0
 21 10  1  0  0  0  0
 22 14  1  0  0  0  0
 23 21  1  0  0  0  0
 24 22  1  0  0  0  0
M  END
> <CdId>
2005

> <Mol Weight>
406.25

> <Formula>
C17H12BrNO4S

> <Click_ID>
CLK026_G10 __ __ 

$$$$
