CLK012_E03
 OpenBabel03181417552D

 31 34  0  0  0  0  0  0  0  0999 V2000
    1.5677   -0.8172    0.0000 N   0  0  0  0  0  0  0  0  0  0  0  0
    1.8262   -1.6052    0.0000 C   0  0  0  0  0  0  0  0  0  0  0  0
    2.9061   -0.8172    0.0000 C   0  0  0  0  0  0  0  0  0  0  0  0
    2.2389   -0.3294    0.0000 C   0  0  0  0  0  0  0  0  0  0  0  0
    3.7191    1.5635    0.0000 N   0  0  0  0  0  0  0  0  0  0  0  0
    3.8567    0.2460    0.0000 C   0  0  0  0  0  0  0  0  0  0  0  0
    2.6517   -1.6052    0.0000 S   0  0  0  0  0  0  0  0  0  0  0  0
    3.3146    0.8505    0.0000 C   0  0  0  0  0  0  0  0  0  0  0  0
    3.6941   -0.5629    0.0000 C   0  0  0  0  0  0  0  0  0  0  0  0
    4.5279    1.3967    0.0000 C   0  0  0  0  0  0  0  0  0  0  0  0
    4.6155    0.5837    0.0000 C   0  0  0  0  0  0  0  0  0  0  0  0
    3.8775    2.9852    0.0000 C   0  0  0  0  0  0  0  0  0  0  0  0
    3.3897    2.3223    0.0000 C   0  0  0  0  0  0  0  0  0  0  0  0
    0.6129    0.2460    0.0000 C   0  0  0  0  0  0  0  0  0  0  0  0
    0.3920    1.0465    0.0000 C   0  0  0  0  0  0  0  0  0  0  0  0
    1.3384   -2.2681    0.0000 O   0  0  0  0  0  0  0  0  0  0  0  0
    3.5398    3.7357    0.0000 N   0  0  0  0  0  0  0  0  0  0  0  0
    2.2306    0.4961    0.0000 O   0  0  0  0  0  0  0  0  0  0  0  0
    0.7880   -0.5629    0.0000 C   0  0  0  0  0  0  0  0  0  0  0  0
    4.6947    2.8977    0.0000 O   0  0  0  0  0  0  0  0  0  0  0  0
    4.0193    4.3945    0.0000 C   0  0  0  0  0  0  0  0  0  0  0  0
    4.9949    5.7204    0.0000 C   0  0  0  0  0  0  0  0  0  0  0  0
    4.8323    4.3070    0.0000 C   0  0  0  0  0  0  0  0  0  0  0  0
    3.6816    5.1450    0.0000 C   0  0  0  0  0  0  0  0  0  0  0  0
    5.3201    4.9699    0.0000 C   0  0  0  0  0  0  0  0  0  0  0  0
    4.1694    5.8162    0.0000 C   0  0  0  0  0  0  0  0  0  0  0  0
    5.1950    1.8762    0.0000 C   0  0  0  0  0  0  0  0  0  0  0  0
    5.3659    0.2334    0.0000 C   0  0  0  0  0  0  0  0  0  0  0  0
    5.4827    6.3916    0.0000 C   0  0  0  0  0  0  0  0  0  0  0  0
    6.0205    0.7255    0.0000 C   0  0  0  0  0  0  0  0  0  0  0  0
    5.9413    1.5468    0.0000 C   0  0  0  0  0  0  0  0  0  0  0  0
  2  1  1  0  0  0  0
  3  4  1  0  0  0  0
  3  7  1  0  0  0  0
  4  1  1  0  0  0  0
  5  8  1  0  0  0  0
  5 10  1  0  0  0  0
  6  9  1  0  0  0  0
  7  2  1  0  0  0  0
  8  6  2  0  0  0  0
  9  3  2  0  0  0  0
 10 11  1  0  0  0  0
 11  6  1  0  0  0  0
 12 13  1  0  0  0  0
 13  5  1  0  0  0  0
 14 19  1  0  0  0  0
 15 14  3  0  0  0  0
 16  2  2  0  0  0  0
 17 12  1  0  0  0  0
 18  4  2  0  0  0  0
 19  1  1  0  0  0  0
 20 12  2  0  0  0  0
 21 17  1  0  0  0  0
 22 26  1  0  0  0  0
 23 21  2  0  0  0  0
 24 21  1  0  0  0  0
 25 23  1  0  0  0  0
 25 22  2  0  0  0  0
 26 24  2  0  0  0  0
 27 10  2  0  0  0  0
 27 31  1  0  0  0  0
 28 11  2  0  0  0  0
 29 22  1  0  0  0  0
 30 28  1  0  0  0  0
 31 30  2  0  0  0  0
M  END
> <CdId>
878

> <Mol Weight>
429.491

> <Formula>
C24H19N3O3S

> <Click_ID>
CLK012_E03 __ __ 

$$$$
