CLK006_G04
 OpenBabel03181417552D

 20 22  0  0  0  0  0  0  0  0999 V2000
   -1.5647    0.1304    0.0000 C   0  0  0  0  0  0  0  0  0  0  0  0
   -0.7790   -0.1166    0.0000 N   0  0  0  0  0  0  0  0  0  0  0  0
   -1.5750    0.9574    0.0000 C   0  0  0  0  0  0  0  0  0  0  0  0
   -2.2818   -0.2814    0.0000 C   0  0  0  0  0  0  0  0  0  0  0  0
   -0.2917    0.5559    0.0000 C   0  0  0  0  0  0  0  0  0  0  0  0
   -0.3672   -0.8269    0.0000 C   0  0  0  0  0  0  0  0  0  0  0  0
   -0.7892    1.2249    0.0000 N   0  0  0  0  0  0  0  0  0  0  0  0
   -2.2818    1.3725    0.0000 C   0  0  0  0  0  0  0  0  0  0  0  0
   -2.9955    0.1338    0.0000 C   0  0  0  0  0  0  0  0  0  0  0  0
    0.5319    0.5662    0.0000 C   0  0  0  0  0  0  0  0  0  0  0  0
   -0.7790   -1.5372    0.0000 C   0  0  0  0  0  0  0  0  0  0  0  0
   -2.9955    0.9642    0.0000 C   0  0  0  0  0  0  0  0  0  0  0  0
    0.9505   -0.1476    0.0000 O   0  0  0  0  0  0  0  0  0  0  0  0
   -0.3603   -2.2544    0.0000 C   0  0  0  0  0  0  0  0  0  0  0  0
    1.7706   -0.1304    0.0000 C   0  0  0  0  0  0  0  0  0  0  0  0
    2.1994   -0.8441    0.0000 C   0  0  0  0  0  0  0  0  0  0  0  0
    2.1755    0.5799    0.0000 C   0  0  0  0  0  0  0  0  0  0  0  0
    3.0230   -0.8338    0.0000 C   0  0  0  0  0  0  0  0  0  0  0  0
    2.9955    0.5970    0.0000 C   0  0  0  0  0  0  0  0  0  0  0  0
    3.4210   -0.1098    0.0000 C   0  0  0  0  0  0  0  0  0  0  0  0
  1  2  1  0  0  0  0
  1  3  1  0  0  0  0
  1  4  2  0  0  0  0
  2  5  1  0  0  0  0
  2  6  1  0  0  0  0
  3  7  1  0  0  0  0
  3  8  2  0  0  0  0
  4  9  1  0  0  0  0
  5 10  1  0  0  0  0
  5  7  2  0  0  0  0
  6 11  1  0  0  0  0
  8 12  1  0  0  0  0
  9 12  2  0  0  0  0
 10 13  1  0  0  0  0
 11 14  3  0  0  0  0
 13 15  1  0  0  0  0
 15 16  2  0  0  0  0
 15 17  1  0  0  0  0
 16 18  1  0  0  0  0
 17 19  2  0  0  0  0
 18 20  2  0  0  0  0
 19 20  1  0  0  0  0
M  END
> <CdId>
463

> <Mol Weight>
262.3059

> <Formula>
C17H14N2O

> <Click_ID>
CLK006_G04 __ __ 

$$$$
