CLK005_D03
 OpenBabel03181417552D

 26 29  0  0  0  0  0  0  0  0999 V2000
    0.4968    0.4174    0.0000 C   0  0  3  0  0  0  0  0  0  0  0  0
    1.1660   -0.0655    0.0000 C   0  0  3  0  0  0  0  0  0  0  0  0
   -0.1656   -0.0655    0.0000 C   0  0  3  0  0  0  0  0  0  0  0  0
    0.7382    1.6800    0.0000 O   0  0  0  0  0  0  0  0  0  0  0  0
   -0.3035    0.6348    0.0000 C   0  0  0  0  0  0  0  0  0  0  0  0
    1.7525    0.5209    0.0000 C   0  0  3  0  0  0  0  0  0  0  0  0
    0.9107   -0.8556    0.0000 C   0  0  0  0  0  0  0  0  0  0  0  0
    0.0862   -0.8556    0.0000 N   0  0  0  0  0  0  0  0  0  0  0  0
   -0.9487    0.1932    0.0000 C   0  0  0  0  0  0  0  0  0  0  0  0
    1.0764    1.0073    0.0000 C   0  0  3  0  0  0  0  0  0  0  0  0
    0.2760    1.2212    0.0000 C   0  0  0  0  0  0  0  0  0  0  0  0
    2.5735    0.5934    0.0000 C   0  0  0  0  0  0  0  0  0  0  0  0
    1.3972   -1.5214    0.0000 O   0  0  0  0  0  0  0  0  0  0  0  0
   -0.3968   -1.5214    0.0000 C   0  0  0  0  0  0  0  0  0  0  0  0
   -1.5662   -0.3657    0.0000 N   0  0  0  0  0  0  0  0  0  0  0  0
   -1.1246    0.9935    0.0000 O   0  0  0  0  0  0  0  0  0  0  0  0
    2.9254    1.3420    0.0000 N   0  0  0  0  0  0  0  0  0  0  0  0
    3.0392   -0.0828    0.0000 O   0  0  0  0  0  0  0  0  0  0  0  0
   -0.0655   -2.2665    0.0000 C   0  0  0  0  0  0  0  0  0  0  0  0
   -2.3493   -0.1069    0.0000 C   0  0  0  0  0  0  0  0  0  0  0  0
    3.7395    1.4075    0.0000 C   0  0  0  0  0  0  0  0  0  0  0  0
   -0.5485   -2.9358    0.0000 C   0  0  0  0  0  0  0  0  0  0  0  0
   -2.5977    0.6727    0.0000 C   0  0  0  0  0  0  0  0  0  0  0  0
   -3.0116   -0.5969    0.0000 C   0  0  0  0  0  0  0  0  0  0  0  0
   -3.4256    0.6727    0.0000 C   0  0  0  0  0  0  0  0  0  0  0  0
   -3.6775   -0.1069    0.0000 C   0  0  0  0  0  0  0  0  0  0  0  0
  1  2  1  0  0  0  0
  1  3  1  0  0  0  0
  1  4  1  0  0  0  0
  1  5  1  0  0  0  0
  2  6  1  0  0  0  0
  2  7  1  0  0  0  0
  3  8  1  0  0  0  0
  3  9  1  0  0  0  0
  4 10  1  0  0  0  0
  5 11  2  0  0  0  0
  6 12  1  0  0  0  0
  6 10  1  0  0  0  0
  7 13  2  0  0  0  0
  7  8  1  0  0  0  0
  8 14  1  0  0  0  0
  9 15  1  0  0  0  0
  9 16  2  0  0  0  0
 10 11  1  0  0  0  0
 12 17  1  0  0  0  0
 12 18  2  0  0  0  0
 14 19  1  0  0  0  0
 15 20  1  0  0  0  0
 17 21  1  0  0  0  0
 19 22  3  0  0  0  0
 20 23  1  0  0  0  0
 20 24  1  0  0  0  0
 23 25  1  0  0  0  0
 24 26  1  0  0  0  0
 25 26  1  0  0  0  0
M  END
> <CdId>
352

> <Mol Weight>
357.4036

> <Formula>
C19H23N3O4

> <Click_ID>
CLK005_D03 __ __ 

$$$$
