CLK013_F11
 OpenBabel03181417552D

 22 24  0  0  0  0  0  0  0  0999 V2000
    1.5629   -0.8147    0.0000 N   0  0  0  0  0  0  0  0  0  0  0  0
    1.8205   -1.6003    0.0000 C   0  0  0  0  0  0  0  0  0  0  0  0
    2.8971   -0.8147    0.0000 C   0  0  0  0  0  0  0  0  0  0  0  0
    2.2320   -0.3284    0.0000 C   0  0  0  0  0  0  0  0  0  0  0  0
    2.6435   -1.6003    0.0000 S   0  0  0  0  0  0  0  0  0  0  0  0
    3.6827   -0.5611    0.0000 C   0  0  0  0  0  0  0  0  0  0  0  0
    4.5181    1.3966    0.0000 C   0  0  0  0  0  0  0  0  0  0  0  0
    4.6054    0.5819    0.0000 O   0  0  0  0  0  0  0  0  0  0  0  0
    3.8530    0.2452    0.0000 C   0  0  0  0  0  0  0  0  0  0  0  0
    3.7159    1.5669    0.0000 C   0  0  0  0  0  0  0  0  0  0  0  0
    0.6110    0.2452    0.0000 C   0  0  0  0  0  0  0  0  0  0  0  0
    3.3044    0.8562    0.0000 C   0  0  0  0  0  0  0  0  0  0  0  0
    0.3907    1.0432    0.0000 C   0  0  0  0  0  0  0  0  0  0  0  0
    1.3342   -2.2611    0.0000 O   0  0  0  0  0  0  0  0  0  0  0  0
    2.2237    0.4946    0.0000 O   0  0  0  0  0  0  0  0  0  0  0  0
    0.7856   -0.5611    0.0000 C   0  0  0  0  0  0  0  0  0  0  0  0
    5.1291    1.9535    0.0000 C   0  0  0  0  0  0  0  0  0  0  0  0
    4.9545    2.7515    0.0000 C   0  0  0  0  0  0  0  0  0  0  0  0
    5.9147    1.6916    0.0000 C   0  0  0  0  0  0  0  0  0  0  0  0
    5.5738    3.3044    0.0000 C   0  0  0  0  0  0  0  0  0  0  0  0
    6.5257    2.2403    0.0000 C   0  0  0  0  0  0  0  0  0  0  0  0
    6.3594    3.0508    0.0000 C   0  0  0  0  0  0  0  0  0  0  0  0
  2  1  1  0  0  0  0
  3  4  1  0  0  0  0
  4  1  1  0  0  0  0
  5  2  1  0  0  0  0
  5  3  1  0  0  0  0
  6  3  2  0  0  0  0
  7  8  1  0  0  0  0
  7 10  2  0  0  0  0
  8  9  1  0  0  0  0
  9  6  1  0  0  0  0
 10 12  1  0  0  0  0
 11 16  1  0  0  0  0
 12  9  2  0  0  0  0
 13 11  3  0  0  0  0
 14  2  2  0  0  0  0
 15  4  2  0  0  0  0
 16  1  1  0  0  0  0
 17  7  1  0  0  0  0
 18 17  1  0  0  0  0
 19 17  2  0  0  0  0
 20 18  2  0  0  0  0
 20 22  1  0  0  0  0
 21 19  1  0  0  0  0
 22 21  2  0  0  0  0
M  END
> <CdId>
976

> <Mol Weight>
309.339

> <Formula>
C17H11NO3S

> <Click_ID>
CLK013_F11 __ __ 

$$$$
