CLK005_H04
 OpenBabel03181417552D

 15 16  0  0  0  0  0  0  0  0999 V2000
   -0.2043   -0.2232    0.0000 N   0  0  0  0  0  0  0  0  0  0  0  0
   -0.1968   -1.0519    0.0000 C   0  0  0  0  0  0  0  0  0  0  0  0
    0.5865    0.0340    0.0000 C   0  0  0  0  0  0  0  0  0  0  0  0
   -0.9195    0.1930    0.0000 C   0  0  0  0  0  0  0  0  0  0  0  0
   -0.9195   -1.4606    0.0000 N   0  0  0  0  0  0  0  0  0  0  0  0
    0.5903   -1.3055    0.0000 N   0  0  0  0  0  0  0  0  0  0  0  0
    1.0785   -0.6320    0.0000 N   0  0  0  0  0  0  0  0  0  0  0  0
    0.8363    0.8212    0.0000 S   0  0  0  0  0  0  0  0  0  0  0  0
   -1.6309   -0.2232    0.0000 C   0  0  0  0  0  0  0  0  0  0  0  0
   -0.9195    1.0141    0.0000 N   0  0  0  0  0  0  0  0  0  0  0  0
   -1.6309   -1.0482    0.0000 C   0  0  0  0  0  0  0  0  0  0  0  0
    1.6423    0.9952    0.0000 C   0  0  0  0  0  0  0  0  0  0  0  0
   -2.3423   -1.4606    0.0000 O   0  0  0  0  0  0  0  0  0  0  0  0
    1.8920    1.7822    0.0000 C   0  0  0  0  0  0  0  0  0  0  0  0
    2.1417    2.5655    0.0000 C   0  0  0  0  0  0  0  0  0  0  0  0
  1  2  1  0  0  0  0
  1  3  1  0  0  0  0
  1  4  1  0  0  0  0
  2  5  1  0  0  0  0
  2  6  2  0  0  0  0
  3  7  2  0  0  0  0
  3  8  1  0  0  0  0
  4  9  2  0  0  0  0
  4 10  1  0  0  0  0
  5 11  2  0  0  0  0
  6  7  1  0  0  0  0
  8 12  1  0  0  0  0
  9 11  1  0  0  0  0
 11 13  1  0  0  0  0
 12 14  1  0  0  0  0
 14 15  3  0  0  0  0
M  END
> <CdId>
393

> <Mol Weight>
221.239

> <Formula>
C8H7N5OS

> <Click_ID>
CLK005_H04 __ __ 

$$$$
