CLK011_G10
 OpenBabel03181417552D

 15 15  0  0  0  0  0  0  0  0999 V2000
    1.5168    2.5502    0.0000 C    0  0  0  0  0  0  0  0  0  0  0  0
    2.2252    2.1460    0.0000 C    0  0  0  0  0  0  0  0  0  0  0  0
    0.8043    2.1460    0.0000 C    0  0  0  0  0  0  0  0  0  0  0  0
    2.2544    4.6046    0.0000 C    0  0  0  0  0  0  0  0  0  0  0  0
    2.2544    5.4297    0.0000 C    0  0  0  0  0  0  0  0  0  0  0  0
    2.2294    1.3084    0.0000 C    0  0  0  0  0  0  0  0  0  0  0  0
    0.8001    1.3209    0.0000 C    0  0  0  0  0  0  0  0  0  0  0  0
    1.5168    0.9084    0.0000 C    0  0  0  0  0  0  0  0  0  0  0  0
    0.8043   -0.3375    0.0000 O    0  0  0  0  0  0  0  0  0  0  0  0
    2.9420    2.5460    0.0000 Cl   0  0  0  0  0  0  0  0  0  0  0  0
    1.5168    0.0750    0.0000 C    0  0  0  0  0  0  0  0  0  0  0  0
    1.5251    3.3753    0.0000 O    0  0  0  0  0  0  0  0  0  0  0  0
    0.1000    2.5585    0.0000 O    0  0  0  0  0  0  0  0  0  0  0  0
    2.2419    3.7837    0.0000 C    0  0  0  0  0  0  0  0  0  0  0  0
   -0.6084    2.1502    0.0000 C    0  0  0  0  0  0  0  0  0  0  0  0
  2  1  1  0  0  0  0
  3  1  2  0  0  0  0
  4 14  1  0  0  0  0
  5  4  3  0  0  0  0
  6  2  2  0  0  0  0
  7  3  1  0  0  0  0
  8  7  2  0  0  0  0
  8  6  1  0  0  0  0
  9 11  2  0  0  0  0
 10  2  1  0  0  0  0
 11  8  1  0  0  0  0
 12  1  1  0  0  0  0
 13  3  1  0  0  0  0
 14 12  1  0  0  0  0
 15 13  1  0  0  0  0
M  END
> <CdId>
825

> <Mol Weight>
224.64

> <Formula>
C11H9ClO3

> <Click_ID>
CLK011_G10 __ __ 

$$$$
