CLK049G05
 OpenBabel03181417552D

 21 22  0  0  0  0  0  0  0  0999 V2000
   -0.3417    1.6417    0.0000 S   0  0  0  0  0  0  0  0  0  0  0  0
   -0.3417    0.8167    0.0000 N   0  0  0  0  0  0  0  0  0  0  0  0
   -0.3417    2.4667    0.0000 N   0  0  0  0  0  0  0  0  0  0  0  0
   -0.3417   -0.8333    0.0000 N   0  0  0  0  0  0  0  0  0  0  0  0
    0.4833    1.6417    0.0000 O   0  0  0  0  0  0  0  0  0  0  0  0
   -1.1667    1.6417    0.0000 O   0  0  0  0  0  0  0  0  0  0  0  0
    1.0875   -4.1333    0.0000 C   0  0  0  0  0  0  0  0  0  0  0  0
    1.0875   -4.9583    0.0000 C   0  0  0  0  0  0  0  0  0  0  0  0
    0.3708    0.4042    0.0000 C   0  0  0  0  0  0  0  0  0  0  0  0
   -1.0583    0.4042    0.0000 C   0  0  0  0  0  0  0  0  0  0  0  0
    0.3708   -2.0708    0.0000 C   0  0  0  0  0  0  0  0  0  0  0  0
   -0.3417   -1.6583    0.0000 C   0  0  0  0  0  0  0  0  0  0  0  0
    1.0875   -1.6583    0.0000 O   0  0  0  0  0  0  0  0  0  0  0  0
    0.3708   -0.4208    0.0000 C   0  0  0  0  0  0  0  0  0  0  0  0
   -1.0583   -0.4208    0.0000 C   0  0  0  0  0  0  0  0  0  0  0  0
    0.3708   -2.8958    0.0000 N   0  0  0  0  0  0  0  0  0  0  0  0
    1.0875   -3.3083    0.0000 C   0  0  0  0  0  0  0  0  0  0  0  0
    0.3250    2.9542    0.0000 C   0  0  0  0  0  0  0  0  0  0  0  0
   -1.0083    2.9542    0.0000 C   0  0  0  0  0  0  0  0  0  0  0  0
   -0.7542    3.7375    0.0000 C   0  0  0  0  0  0  0  0  0  0  0  0
    0.0708    3.7375    0.0000 C   0  0  0  0  0  0  0  0  0  0  0  0
  2  1  1  0  0  0  0
  3  1  1  0  0  0  0
  4 15  1  0  0  0  0
  5  1  2  0  0  0  0
  6  1  2  0  0  0  0
  7 17  1  0  0  0  0
  8  7  3  0  0  0  0
  9  2  1  0  0  0  0
 10  2  1  0  0  0  0
 11 12  1  0  0  0  0
 12  4  1  0  0  0  0
 13 11  2  0  0  0  0
 14  9  1  0  0  0  0
 14  4  1  0  0  0  0
 15 10  1  0  0  0  0
 16 11  1  0  0  0  0
 17 16  1  0  0  0  0
 18  3  1  0  0  0  0
 19  3  1  0  0  0  0
 20 19  1  0  0  0  0
 20 21  1  0  0  0  0
 21 18  1  0  0  0  0
M  END
> <CdId>
3759

> <Mol Weight>
314.404

> <Formula>
C13H22N4O3S

> <Click_ID>
CLK049G05 __ __ 

$$$$
