CLK023_C07
 OpenBabel03181417552D

 29 31  0  0  0  0  0  0  0  0999 V2000
    3.3697   -0.5329    0.0000 N    0  0  0  0  0  0  0  0  0  0  0  0
    2.6614   -0.9455    0.0000 C    0  0  0  0  0  0  0  0  0  0  0  0
    3.2081    0.2750    0.0000 C    0  0  0  0  0  0  0  0  0  0  0  0
    2.3863    0.3679    0.0000 C    0  0  0  0  0  0  0  0  0  0  0  0
    2.0493   -0.3851    0.0000 S    0  0  0  0  0  0  0  0  0  0  0  0
   -0.5158    1.0831    0.0000 C    0  0  0  0  0  0  0  0  0  0  0  0
    1.9737    1.0831    0.0000 C    0  0  0  0  0  0  0  0  0  0  0  0
   -0.0894    0.3679    0.0000 C    0  0  0  0  0  0  0  0  0  0  0  0
   -0.0894    1.7983    0.0000 C    0  0  0  0  0  0  0  0  0  0  0  0
    1.1415    1.0831    0.0000 C    0  0  0  0  0  0  0  0  0  0  0  0
   -1.3341    1.0763    0.0000 O    0  0  0  0  0  0  0  0  0  0  0  0
    4.2121   -1.6917    0.0000 C    0  0  0  0  0  0  0  0  0  0  0  0
    4.2052   -2.5135    0.0000 C    0  0  0  0  0  0  0  0  0  0  0  0
    2.5685   -1.7674    0.0000 O    0  0  0  0  0  0  0  0  0  0  0  0
    0.7324    0.3679    0.0000 C    0  0  0  0  0  0  0  0  0  0  0  0
    3.7651    0.8871    0.0000 O    0  0  0  0  0  0  0  0  0  0  0  0
    0.7324    1.7983    0.0000 C    0  0  0  0  0  0  0  0  0  0  0  0
    4.1296   -0.8700    0.0000 C    0  0  0  0  0  0  0  0  0  0  0  0
   -0.5055   -0.3439    0.0000 Br   0  0  0  0  0  0  0  0  0  0  0  0
   -1.7468    0.3679    0.0000 C    0  0  0  0  0  0  0  0  0  0  0  0
   -0.5020    2.5169    0.0000 O    0  0  0  0  0  0  0  0  0  0  0  0
   -2.9846    1.0763    0.0000 C    0  0  0  0  0  0  0  0  0  0  0  0
   -3.8029    1.0763    0.0000 C    0  0  0  0  0  0  0  0  0  0  0  0
   -2.5685    0.3679    0.0000 C    0  0  0  0  0  0  0  0  0  0  0  0
   -4.2121    1.7846    0.0000 F    0  0  0  0  0  0  0  0  0  0  0  0
   -3.7995   -0.3542    0.0000 C    0  0  0  0  0  0  0  0  0  0  0  0
   -4.2155    0.3610    0.0000 C    0  0  0  0  0  0  0  0  0  0  0  0
   -2.9777   -0.3542    0.0000 C    0  0  0  0  0  0  0  0  0  0  0  0
   -1.3341    2.5169    0.0000 C    0  0  0  0  0  0  0  0  0  0  0  0
  2  1  1  0  0  0  0
  3  1  1  0  0  0  0
  4  3  1  0  0  0  0
  5  2  1  0  0  0  0
  5  4  1  0  0  0  0
  6  9  2  0  0  0  0
  7  4  2  0  0  0  0
  8 15  2  0  0  0  0
  8  6  1  0  0  0  0
  9 17  1  0  0  0  0
 10  7  1  0  0  0  0
 11  6  1  0  0  0  0
 12 18  1  0  0  0  0
 13 12  3  0  0  0  0
 14  2  2  0  0  0  0
 15 10  1  0  0  0  0
 16  3  2  0  0  0  0
 17 10  2  0  0  0  0
 18  1  1  0  0  0  0
 19  8  1  0  0  0  0
 20 11  1  0  0  0  0
 21  9  1  0  0  0  0
 22 24  2  0  0  0  0
 23 22  1  0  0  0  0
 24 20  1  0  0  0  0
 25 23  1  0  0  0  0
 26 28  2  0  0  0  0
 27 26  1  0  0  0  0
 27 23  2  0  0  0  0
 28 24  1  0  0  0  0
 29 21  1  0  0  0  0
M  END
> <CdId>
1722

> <Mol Weight>
476.316

> <Formula>
C21H15BrFNO4S

> <Click_ID>
CLK023_C07 __ __ 

$$$$
