CLK004_C11
 OpenBabel03181417552D

 29 31  0  0  0  0  0  0  0  0999 V2000
    0.5517   -0.8957    0.0000 C   0  0  0  0  0  0  0  0  0  0  0  0
    0.5517   -1.7233    0.0000 C   0  0  0  0  0  0  0  0  0  0  0  0
    1.3418   -0.6368    0.0000 C   0  0  0  0  0  0  0  0  0  0  0  0
   -0.1771   -0.4768    0.0000 C   0  0  0  0  0  0  0  0  0  0  0  0
    1.3418   -1.9821    0.0000 C   0  0  0  0  0  0  0  0  0  0  0  0
   -0.1771   -2.1422    0.0000 N   0  0  0  0  0  0  0  0  0  0  0  0
    1.8220   -1.3112    0.0000 C   0  0  0  0  0  0  0  0  0  0  0  0
    1.5871    0.1533    0.0000 C   0  0  0  0  0  0  0  0  0  0  0  0
   -0.8957   -0.8957    0.0000 C   0  0  0  0  0  0  0  0  0  0  0  0
   -0.1771    0.3508    0.0000 C   0  0  0  0  0  0  0  0  0  0  0  0
    1.5871   -2.7621    0.0000 C   0  0  0  0  0  0  0  0  0  0  0  0
   -0.8957   -1.7301    0.0000 C   0  0  0  0  0  0  0  0  0  0  0  0
    2.6497   -1.3112    0.0000 C   0  0  0  0  0  0  0  0  0  0  0  0
    1.0387    0.7697    0.0000 C   0  0  0  0  0  0  0  0  0  0  0  0
   -1.6007   -0.4837    0.0000 C   0  0  0  0  0  0  0  0  0  0  0  0
    1.8050   -3.5589    0.0000 N   0  0  0  0  0  0  0  0  0  0  0  0
   -1.6007   -2.1422    0.0000 N   0  0  0  0  0  0  0  0  0  0  0  0
    0.2486    0.5653    0.0000 C   0  0  0  0  0  0  0  0  0  0  0  0
    1.3146    1.5360    0.0000 C   0  0  0  0  0  0  0  0  0  0  0  0
   -2.3261   -0.0681    0.0000 N   0  0  0  0  0  0  0  0  0  0  0  0
   -0.2384    1.1170    0.0000 C   0  0  0  0  0  0  0  0  0  0  0  0
    0.8310    2.0774    0.0000 C   0  0  0  0  0  0  0  0  0  0  0  0
    0.0511    1.8697    0.0000 C   0  0  0  0  0  0  0  0  0  0  0  0
   -1.0422    0.9808    0.0000 O   0  0  0  0  0  0  0  0  0  0  0  0
   -0.5006    2.4725    0.0000 O   0  0  0  0  0  0  0  0  0  0  0  0
   -1.5394    1.5292    0.0000 C   0  0  0  0  0  0  0  0  0  0  0  0
   -1.2941    2.3057    0.0000 C   0  0  0  0  0  0  0  0  0  0  0  0
   -1.8357    2.9119    0.0000 C   0  0  0  0  0  0  0  0  0  0  0  0
   -2.4181    3.4909    0.0000 C   0  0  0  0  0  0  0  0  0  0  0  0
  1  2  2  0  0  0  0
  1  3  1  0  0  0  0
  1  4  1  0  0  0  0
  2  5  1  0  0  0  0
  2  6  1  0  0  0  0
  3  7  1  0  0  0  0
  3  8  2  0  0  0  0
  4  9  2  0  0  0  0
  4 10  1  0  0  0  0
  5 11  1  0  0  0  0
  5  7  2  0  0  0  0
  6 12  2  0  0  0  0
  7 13  1  0  0  0  0
  8 14  1  0  0  0  0
  9 15  1  0  0  0  0
  9 12  1  0  0  0  0
 11 16  3  0  0  0  0
 12 17  1  0  0  0  0
 14 18  2  0  0  0  0
 14 19  1  0  0  0  0
 15 20  3  0  0  0  0
 18 21  1  0  0  0  0
 19 22  2  0  0  0  0
 21 23  2  0  0  0  0
 21 24  1  0  0  0  0
 22 23  1  0  0  0  0
 23 25  1  0  0  0  0
 24 26  1  0  0  0  0
 25 27  1  0  0  0  0
 27 28  1  0  0  0  0
 28 29  3  0  0  0  0
M  END
> <CdId>
270

> <Mol Weight>
382.4146

> <Formula>
C23H18N4O2

> <Click_ID>
CLK004_C11 __ __ 

$$$$
