CLK015_B10
 OpenBabel03181417552D

 27 28  0  0  0  0  0  0  0  0999 V2000
    2.0220   -1.0776    0.0000 N    0  0  0  0  0  0  0  0  0  0  0  0
    2.2716   -1.8639    0.0000 C    0  0  0  0  0  0  0  0  0  0  0  0
    2.6835   -0.5908    0.0000 C    0  0  0  0  0  0  0  0  0  0  0  0
    3.3492   -1.0776    0.0000 C    0  0  0  0  0  0  0  0  0  0  0  0
    3.0954   -1.8639    0.0000 S    0  0  0  0  0  0  0  0  0  0  0  0
    4.1355   -0.8238    0.0000 C    0  0  0  0  0  0  0  0  0  0  0  0
    4.3103   -0.0125    0.0000 C    0  0  0  0  0  0  0  0  0  0  0  0
    1.2399   -0.8238    0.0000 C    0  0  0  0  0  0  0  0  0  0  0  0
    5.2671    1.0442    0.0000 C    0  0  0  0  0  0  0  0  0  0  0  0
    5.0966    0.2330    0.0000 C    0  0  0  0  0  0  0  0  0  0  0  0
    4.6598    1.5976    0.0000 C    0  0  0  0  0  0  0  0  0  0  0  0
    3.6987    0.5450    0.0000 C    0  0  0  0  0  0  0  0  0  0  0  0
    5.8205    3.4656    0.0000 C    0  0  0  0  0  0  0  0  0  0  0  0
    3.8734    1.3563    0.0000 C    0  0  0  0  0  0  0  0  0  0  0  0
    5.9953    4.2603    0.0000 C    0  0  0  0  0  0  0  0  0  0  0  0
    0.6241   -1.3771    0.0000 C    0  0  0  0  0  0  0  0  0  0  0  0
    1.7890   -2.5254    0.0000 O    0  0  0  0  0  0  0  0  0  0  0  0
    2.6835    0.2330    0.0000 O    0  0  0  0  0  0  0  0  0  0  0  0
    0.7988   -2.1842    0.0000 O    0  0  0  0  0  0  0  0  0  0  0  0
    5.7040   -0.3162    0.0000 Br   0  0  0  0  0  0  0  0  0  0  0  0
    4.8470    2.4047    0.0000 O    0  0  0  0  0  0  0  0  0  0  0  0
    3.2743    1.9055    0.0000 O    0  0  0  0  0  0  0  0  0  0  0  0
   -0.1581   -1.1233    0.0000 O    0  0  0  0  0  0  0  0  0  0  0  0
    5.6333    2.6543    0.0000 C    0  0  0  0  0  0  0  0  0  0  0  0
   -0.3328   -0.3162    0.0000 C    0  0  0  0  0  0  0  0  0  0  0  0
    2.4963    1.6558    0.0000 C    0  0  0  0  0  0  0  0  0  0  0  0
   -1.1191   -0.0666    0.0000 C    0  0  0  0  0  0  0  0  0  0  0  0
  2  1  1  0  0  0  0
  3  1  1  0  0  0  0
  4  3  1  0  0  0  0
  4  5  1  0  0  0  0
  5  2  1  0  0  0  0
  6  4  2  0  0  0  0
  7  6  1  0  0  0  0
  8  1  1  0  0  0  0
  9 10  2  0  0  0  0
 10  7  1  0  0  0  0
 11 14  2  0  0  0  0
 11  9  1  0  0  0  0
 12  7  2  0  0  0  0
 13 24  1  0  0  0  0
 14 12  1  0  0  0  0
 15 13  3  0  0  0  0
 16  8  1  0  0  0  0
 17  2  2  0  0  0  0
 18  3  2  0  0  0  0
 19 16  2  0  0  0  0
 20 10  1  0  0  0  0
 21 11  1  0  0  0  0
 22 14  1  0  0  0  0
 23 16  1  0  0  0  0
 24 21  1  0  0  0  0
 25 23  1  0  0  0  0
 26 22  1  0  0  0  0
 27 25  1  0  0  0  0
M  END
> <CdId>
1095

> <Mol Weight>
454.292

> <Formula>
C18H16BrNO6S

> <Click_ID>
CLK015_B10 __ __ 

$$$$
