CLK022_A02
 OpenBabel03181417552D

 17 17  0  0  0  0  0  0  0  0999 V2000
    6.1062    1.5483    0.0000 S   0  0  0  0  0  0  0  0  0  0  0  0
    6.6834    0.9620    0.0000 N   0  0  0  0  0  0  0  0  0  0  0  0
    7.8927    0.4626    0.0000 C   0  0  0  0  0  0  0  0  0  0  0  0
    6.7384    2.0842    0.0000 O   0  0  0  0  0  0  0  0  0  0  0  0
    5.6344    2.2216    0.0000 O   0  0  0  0  0  0  0  0  0  0  0  0
    8.3050   -0.2520    0.0000 C   0  0  0  0  0  0  0  0  0  0  0  0
    5.3916    1.1360    0.0000 C   0  0  0  0  0  0  0  0  0  0  0  0
    7.4805    1.1772    0.0000 C   0  0  0  0  0  0  0  0  0  0  0  0
    8.2317    1.5208    0.0000 C   0  0  0  0  0  0  0  0  0  0  0  0
    7.2010    1.9468    0.0000 C   0  0  0  0  0  0  0  0  0  0  0  0
    4.6770    1.5483    0.0000 C   0  0  0  0  0  0  0  0  0  0  0  0
    5.3916    0.3115    0.0000 C   0  0  0  0  0  0  0  0  0  0  0  0
    8.9097    1.0535    0.0000 C   0  0  0  0  0  0  0  0  0  0  0  0
    7.7278    2.5789    0.0000 C   0  0  0  0  0  0  0  0  0  0  0  0
    3.9624    1.1360    0.0000 C   0  0  0  0  0  0  0  0  0  0  0  0
    4.6770   -0.1008    0.0000 C   0  0  0  0  0  0  0  0  0  0  0  0
    3.9624    0.3115    0.0000 C   0  0  0  0  0  0  0  0  0  0  0  0
  2  1  1  0  0  0  0
  3  8  1  0  0  0  0
  4  1  2  0  0  0  0
  5  1  2  0  0  0  0
  6  3  3  0  0  0  0
  7  1  1  0  0  0  0
  8  2  1  0  0  0  0
  9  8  1  0  0  0  0
 10  8  1  0  0  0  0
 11  7  2  0  0  0  0
 12  7  1  0  0  0  0
 13  9  1  0  0  0  0
 14 10  1  0  0  0  0
 15 11  1  0  0  0  0
 16 12  2  0  0  0  0
 17 16  1  0  0  0  0
 17 15  2  0  0  0  0
M  END
> <CdId>
1637

> <Mol Weight>
251.345

> <Formula>
C13H17NO2S

> <Click_ID>
CLK022_A02 __ __ 

$$$$
