CLK042D07
 OpenBabel03181417552D

 19 19  0  0  0  0  0  0  0  0999 V2000
   -0.6042    1.5667    0.0000 C    0  0  0  0  0  0  0  0  0  0  0  0
    0.8250   -2.5583    0.0000 C    0  0  0  0  0  0  0  0  0  0  0  0
    0.8250   -3.3833    0.0000 C    0  0  0  0  0  0  0  0  0  0  0  0
   -0.6042    0.7417    0.0000 S    0  0  0  0  0  0  0  0  0  0  0  0
    0.1125   -0.4958    0.0000 C    0  0  0  0  0  0  0  0  0  0  0  0
    0.8250   -0.9083    0.0000 N    0  0  0  0  0  0  0  0  0  0  0  0
    0.1125    1.9792    0.0000 N    0  0  0  0  0  0  0  0  0  0  0  0
    0.8250   -1.7333    0.0000 C    0  0  0  0  0  0  0  0  0  0  0  0
   -1.3167    1.9792    0.0000 C    0  0  0  0  0  0  0  0  0  0  0  0
   -0.6042   -0.9083    0.0000 O    0  0  0  0  0  0  0  0  0  0  0  0
    0.1125    0.3292    0.0000 C    0  0  0  0  0  0  0  0  0  0  0  0
   -2.0333    1.5667    0.0000 Cl   0  0  0  0  0  0  0  0  0  0  0  0
    0.1125    2.8042    0.0000 C    0  0  0  0  0  0  0  0  0  0  0  0
    1.6500   -1.7333    0.0000 C    0  0  0  0  0  0  0  0  0  0  0  0
    0.0000   -1.7333    0.0000 C    0  0  0  0  0  0  0  0  0  0  0  0
   -1.3167    2.8042    0.0000 C    0  0  0  0  0  0  0  0  0  0  0  0
   -0.6042    3.2167    0.0000 C    0  0  0  0  0  0  0  0  0  0  0  0
    2.0625   -2.4500    0.0000 C    0  0  0  0  0  0  0  0  0  0  0  0
   -0.4125   -1.0208    0.0000 C    0  0  0  0  0  0  0  0  0  0  0  0
  2  8  1  0  0  0  0
  3  2  3  0  0  0  0
  4  1  1  0  0  0  0
  5 11  1  0  0  0  0
  6  5  1  0  0  0  0
  7  1  1  0  0  0  0
  8  6  1  0  0  0  0
  9  1  2  0  0  0  0
 10  5  2  0  0  0  0
 11  4  1  0  0  0  0
 12  9  1  0  0  0  0
 13  7  2  0  0  0  0
 14  8  1  0  0  0  0
 15  8  1  0  0  0  0
 16  9  1  0  0  0  0
 17 16  2  0  0  0  0
 17 13  1  0  0  0  0
 18 14  1  0  0  0  0
 19 15  1  0  0  0  0
M  END
> <CdId>
3212

> <Mol Weight>
296.816

> <Formula>
C14H17ClN2OS

> <Click_ID>
CLK042D07 __ __ 

$$$$
