CLK031_D05
 OpenBabel03181417552D

 32 35  0  0  0  0  0  0  0  0999 V2000
   -1.1648    2.3879    0.0000 C   0  0  0  0  0  0  0  0  0  0  0  0
   -0.3381    2.3796    0.0000 N   0  0  0  0  0  0  0  0  0  0  0  0
   -4.5922    3.2188    0.0000 S   0  0  0  0  0  0  0  0  0  0  0  0
    2.5592    1.6532    0.0000 N   0  0  0  0  0  0  0  0  0  0  0  0
   -1.6490    1.7241    0.0000 N   0  0  0  0  0  0  0  0  0  0  0  0
   -1.6490    3.0559    0.0000 S   0  0  0  0  0  0  0  0  0  0  0  0
   -2.4381    2.8013    0.0000 C   0  0  0  0  0  0  0  0  0  0  0  0
   -2.4381    1.9746    0.0000 C   0  0  0  0  0  0  0  0  0  0  0  0
    0.0751    3.0935    0.0000 C   0  0  0  0  0  0  0  0  0  0  0  0
    2.1333    2.3754    0.0000 C   0  0  0  0  0  0  0  0  0  0  0  0
    3.3732    1.5363    0.0000 C   0  0  0  0  0  0  0  0  0  0  0  0
    2.1792    0.9143    0.0000 C   0  0  0  0  0  0  0  0  0  0  0  0
   -3.8658    2.8013    0.0000 C   0  0  0  0  0  0  0  0  0  0  0  0
   -3.1519    3.2145    0.0000 C   0  0  0  0  0  0  0  0  0  0  0  0
    1.3151    2.3796    0.0000 C   0  0  0  0  0  0  0  0  0  0  0  0
    0.9018    3.0935    0.0000 C   0  0  0  0  0  0  0  0  0  0  0  0
   -1.9496    0.3214    0.0000 C   0  0  0  0  0  0  0  0  0  0  0  0
   -3.1519    1.5613    0.0000 C   0  0  0  0  0  0  0  0  0  0  0  0
   -2.5007   -0.2922    0.0000 C   0  0  0  0  0  0  0  0  0  0  0  0
   -4.1539    3.9159    0.0000 O   0  0  0  0  0  0  0  0  0  0  0  0
   -5.0306    2.5132    0.0000 O   0  0  0  0  0  0  0  0  0  0  0  0
   -5.2936    3.6529    0.0000 N   0  0  0  0  0  0  0  0  0  0  0  0
   -0.3381    3.8074    0.0000 O   0  0  0  0  0  0  0  0  0  0  0  0
   -3.8658    1.9746    0.0000 C   0  0  0  0  0  0  0  0  0  0  0  0
    3.5110    0.7138    0.0000 C   0  0  0  0  0  0  0  0  0  0  0  0
    2.7846    0.3256    0.0000 C   0  0  0  0  0  0  0  0  0  0  0  0
    3.9576    2.1124    0.0000 O   0  0  0  0  0  0  0  0  0  0  0  0
    1.3694    0.7848    0.0000 O   0  0  0  0  0  0  0  0  0  0  0  0
   -1.3985    0.9352    0.0000 C   0  0  0  0  0  0  0  0  0  0  0  0
    2.5592    3.0893    0.0000 C   0  0  0  0  0  0  0  0  0  0  0  0
    1.3193    3.8157    0.0000 C   0  0  0  0  0  0  0  0  0  0  0  0
    2.1458    3.8074    0.0000 C   0  0  0  0  0  0  0  0  0  0  0  0
  2  1  2  0  0  0  0
  3 13  1  0  0  0  0
  4 10  1  0  0  0  0
  5  1  1  0  0  0  0
  6  1  1  0  0  0  0
  7  6  1  0  0  0  0
  7  8  2  0  0  0  0
  8  5  1  0  0  0  0
  9  2  1  0  0  0  0
 10 15  1  0  0  0  0
 11  4  1  0  0  0  0
 12  4  1  0  0  0  0
 13 14  2  0  0  0  0
 13 24  1  0  0  0  0
 14  7  1  0  0  0  0
 15 16  2  0  0  0  0
 16  9  1  0  0  0  0
 17 29  1  0  0  0  0
 18  8  1  0  0  0  0
 19 17  3  0  0  0  0
 20  3  2  0  0  0  0
 21  3  2  0  0  0  0
 22  3  1  0  0  0  0
 23  9  2  0  0  0  0
 24 18  2  0  0  0  0
 25 11  1  0  0  0  0
 26 12  1  0  0  0  0
 26 25  1  0  0  0  0
 27 11  2  0  0  0  0
 28 12  2  0  0  0  0
 29  5  1  0  0  0  0
 30 32  1  0  0  0  0
 30 10  2  0  0  0  0
 31 16  1  0  0  0  0
 32 31  2  0  0  0  0
M  END
> <CdId>
2359

> <Mol Weight>
468.506

> <Formula>
C21H16N4O5S2

> <Click_ID>
CLK031_D05 __ __ 

$$$$
