CLK031_G09
 OpenBabel03181417552D

 27 29  0  0  0  0  0  0  0  0999 V2000
   -1.1640    2.3863    0.0000 C   0  0  0  0  0  0  0  0  0  0  0  0
   -4.5891    3.2166    0.0000 S   0  0  0  0  0  0  0  0  0  0  0  0
   -1.6479    1.7230    0.0000 N   0  0  0  0  0  0  0  0  0  0  0  0
   -0.3379    2.3780    0.0000 N   0  0  0  0  0  0  0  0  0  0  0  0
   -1.6479    3.0539    0.0000 S   0  0  0  0  0  0  0  0  0  0  0  0
   -2.4364    2.7993    0.0000 C   0  0  0  0  0  0  0  0  0  0  0  0
   -2.4364    1.9733    0.0000 C   0  0  0  0  0  0  0  0  0  0  0  0
   -3.8632    2.7993    0.0000 C   0  0  0  0  0  0  0  0  0  0  0  0
   -3.1498    3.2124    0.0000 C   0  0  0  0  0  0  0  0  0  0  0  0
    0.0751    3.0914    0.0000 C   0  0  0  0  0  0  0  0  0  0  0  0
   -1.9483    0.3212    0.0000 C   0  0  0  0  0  0  0  0  0  0  0  0
   -3.1498    1.5603    0.0000 C   0  0  0  0  0  0  0  0  0  0  0  0
   -2.4990   -0.2921    0.0000 C   0  0  0  0  0  0  0  0  0  0  0  0
   -4.1511    3.9133    0.0000 O   0  0  0  0  0  0  0  0  0  0  0  0
   -5.0272    2.5115    0.0000 O   0  0  0  0  0  0  0  0  0  0  0  0
   -5.2900    3.6504    0.0000 N   0  0  0  0  0  0  0  0  0  0  0  0
   -3.8632    1.9733    0.0000 C   0  0  0  0  0  0  0  0  0  0  0  0
   -1.3976    0.9345    0.0000 C   0  0  0  0  0  0  0  0  0  0  0  0
   -0.3379    3.8048    0.0000 O   0  0  0  0  0  0  0  0  0  0  0  0
    0.9011    3.0914    0.0000 C   0  0  0  0  0  0  0  0  0  0  0  0
    1.3184    3.8131    0.0000 C   0  0  0  0  0  0  0  0  0  0  0  0
    2.1569    3.8131    0.0000 C   0  0  0  0  0  0  0  0  0  0  0  0
    2.5783    4.5224    0.0000 C   0  0  0  0  0  0  0  0  0  0  0  0
    2.5700    3.0997    0.0000 C   0  0  0  0  0  0  0  0  0  0  0  0
    3.3960    3.0914    0.0000 C   0  0  0  0  0  0  0  0  0  0  0  0
    3.4043    4.5224    0.0000 C   0  0  0  0  0  0  0  0  0  0  0  0
    3.8090    3.8131    0.0000 C   0  0  0  0  0  0  0  0  0  0  0  0
  2  8  1  0  0  0  0
  3  1  1  0  0  0  0
  4  1  2  0  0  0  0
  5  1  1  0  0  0  0
  6  5  1  0  0  0  0
  6  7  2  0  0  0  0
  7  3  1  0  0  0  0
  8  9  2  0  0  0  0
  8 17  1  0  0  0  0
  9  6  1  0  0  0  0
 10  4  1  0  0  0  0
 11 18  1  0  0  0  0
 12  7  1  0  0  0  0
 13 11  3  0  0  0  0
 14  2  2  0  0  0  0
 15  2  2  0  0  0  0
 16  2  1  0  0  0  0
 17 12  2  0  0  0  0
 18  3  1  0  0  0  0
 19 10  2  0  0  0  0
 20 10  1  0  0  0  0
 21 20  1  0  0  0  0
 22 21  1  0  0  0  0
 23 22  1  0  0  0  0
 24 22  2  0  0  0  0
 25 24  1  0  0  0  0
 26 23  2  0  0  0  0
 26 27  1  0  0  0  0
 27 25  2  0  0  0  0
M  END
> <CdId>
2393

> <Mol Weight>
399.487

> <Formula>
C19H17N3O3S2

> <Click_ID>
CLK031_G09 __ __ 

$$$$
