CLK044E05
 OpenBabel03181417552D

 25 26  0  0  0  0  0  0  0  0999 V2000
   -0.7167    2.3625    0.0000 S   0  0  0  0  0  0  0  0  0  0  0  0
   -0.7167   -0.9375    0.0000 C   0  0  0  0  0  0  0  0  0  0  0  0
    0.0000   -1.3500    0.0000 N   0  0  0  0  0  0  0  0  0  0  0  0
   -0.7167    1.5375    0.0000 C   0  0  0  0  0  0  0  0  0  0  0  0
    0.0000   -2.1750    0.0000 C   0  0  3  0  0  0  0  0  0  0  0  0
    0.0000    4.4208    0.0000 C   0  0  0  0  0  0  0  0  0  0  0  0
    0.0000    5.2458    0.0000 C   0  0  0  0  0  0  0  0  0  0  0  0
    0.7125   -2.5875    0.0000 C   0  0  0  0  0  0  0  0  0  0  0  0
    0.1083    2.3625    0.0000 O   0  0  0  0  0  0  0  0  0  0  0  0
   -1.5417    2.3625    0.0000 O   0  0  0  0  0  0  0  0  0  0  0  0
   -0.7167   -0.1125    0.0000 C   0  0  0  0  0  0  0  0  0  0  0  0
   -0.7167    3.1875    0.0000 N   0  0  0  0  0  0  0  0  0  0  0  0
   -1.4292   -1.3500    0.0000 O   0  0  0  0  0  0  0  0  0  0  0  0
    1.4250   -2.1750    0.0000 C   0  0  0  0  0  0  0  0  0  0  0  0
    0.0000    1.1250    0.0000 C   0  0  0  0  0  0  0  0  0  0  0  0
   -1.4292    1.1250    0.0000 C   0  0  0  0  0  0  0  0  0  0  0  0
    0.0000    0.3000    0.0000 C   0  0  0  0  0  0  0  0  0  0  0  0
   -1.4292    0.3000    0.0000 C   0  0  0  0  0  0  0  0  0  0  0  0
    0.0000    3.6000    0.0000 C   0  0  0  0  0  0  0  0  0  0  0  0
    0.7125   -3.4125    0.0000 C   0  0  0  0  0  0  0  0  0  0  0  0
   -0.7167   -2.5875    0.0000 C   0  0  0  0  0  0  0  0  0  0  0  0
    1.4250   -1.3500    0.0000 C   0  0  0  0  0  0  0  0  0  0  0  0
    2.1417   -2.5875    0.0000 C   0  0  0  0  0  0  0  0  0  0  0  0
    1.4250   -3.8250    0.0000 C   0  0  0  0  0  0  0  0  0  0  0  0
    2.1417   -3.4125    0.0000 C   0  0  0  0  0  0  0  0  0  0  0  0
  2 11  1  0  0  0  0
  3  2  1  0  0  0  0
  4  1  1  0  0  0  0
  5  3  1  0  0  0  0
  6 19  1  0  0  0  0
  7  6  3  0  0  0  0
  8  5  1  0  0  0  0
  9  1  2  0  0  0  0
 10  1  2  0  0  0  0
 11 18  2  0  0  0  0
 12  1  1  0  0  0  0
 13  2  2  0  0  0  0
 14  8  2  0  0  0  0
 15  4  1  0  0  0  0
 16  4  2  0  0  0  0
 17 15  2  0  0  0  0
 17 11  1  0  0  0  0
 18 16  1  0  0  0  0
 19 12  1  0  0  0  0
 20  8  1  0  0  0  0
 21  5  1  0  0  0  0
 22 14  1  0  0  0  0
 23 14  1  0  0  0  0
 24 20  2  0  0  0  0
 25 23  2  0  0  0  0
 25 24  1  0  0  0  0
M  END
> <CdId>
3357

> <Mol Weight>
356.439

> <Formula>
C19H20N2O3S

> <Click_ID>
CLK044E05 __ __ 

$$$$
