CLK008_A03
 OpenBabel03181417552D

 35 39  0  0  0  0  0  0  0  0999 V2000
    0.0034    0.6131    0.0000 C   0  0  3  0  0  0  0  0  0  0  0  0
   -0.7095    0.1964    0.0000 C   0  0  0  0  0  0  0  0  0  0  0  0
    0.7957    0.8232    0.0000 C   0  0  0  0  0  0  0  0  0  0  0  0
    0.7164    0.1964    0.0000 C   0  0  0  0  0  0  0  0  0  0  0  0
   -0.4478    1.2986    0.0000 C   0  0  0  0  0  0  0  0  0  0  0  0
   -0.7164   -0.6269    0.0000 C   0  0  0  0  0  0  0  0  0  0  0  0
   -1.4191    0.6131    0.0000 C   0  0  0  0  0  0  0  0  0  0  0  0
    0.8405    1.6499    0.0000 C   0  0  0  0  0  0  0  0  0  0  0  0
    1.4880    0.3824    0.0000 C   0  0  0  0  0  0  0  0  0  0  0  0
    0.7164   -0.6269    0.0000 C   0  0  0  0  0  0  0  0  0  0  0  0
    1.4260   -0.2170    0.0000 C   0  0  0  0  0  0  0  0  0  0  0  0
    0.0654    1.9426    0.0000 N   0  0  0  0  0  0  0  0  0  0  0  0
   -1.0334    1.8841    0.0000 O   0  0  0  0  0  0  0  0  0  0  0  0
   -0.0034   -1.0402    0.0000 N   0  0  0  0  0  0  0  0  0  0  0  0
   -1.4191   -1.0367    0.0000 C   0  0  0  0  0  0  0  0  0  0  0  0
   -2.1321    0.1964    0.0000 C   0  0  0  0  0  0  0  0  0  0  0  0
   -2.0081    1.1987    0.0000 O   0  0  0  0  0  0  0  0  0  0  0  0
    1.5673    2.0322    0.0000 C   0  0  0  0  0  0  0  0  0  0  0  0
    2.2251    0.7578    0.0000 C   0  0  0  0  0  0  0  0  0  0  0  0
    1.4191   -1.0471    0.0000 N   0  0  0  0  0  0  0  0  0  0  0  0
    2.1390   -0.6269    0.0000 N   0  0  0  0  0  0  0  0  0  0  0  0
   -0.1481    2.7418    0.0000 C   0  0  0  0  0  0  0  0  0  0  0  0
   -0.0103   -1.8600    0.0000 C   0  0  0  0  0  0  0  0  0  0  0  0
   -2.1321   -0.6269    0.0000 C   0  0  0  0  0  0  0  0  0  0  0  0
    2.2630    1.5810    0.0000 C   0  0  0  0  0  0  0  0  0  0  0  0
    0.4305    3.3308    0.0000 C   0  0  0  0  0  0  0  0  0  0  0  0
    0.7026   -2.2768    0.0000 C   0  0  0  0  0  0  0  0  0  0  0  0
   -0.7302   -2.2630    0.0000 C   0  0  0  0  0  0  0  0  0  0  0  0
   -2.5455   -1.3399    0.0000 C   0  0  0  0  0  0  0  0  0  0  0  0
   -2.9312   -0.4133    0.0000 C   0  0  0  0  0  0  0  0  0  0  0  0
    0.2205    4.1299    0.0000 C   0  0  0  0  0  0  0  0  0  0  0  0
    0.6958   -3.0966    0.0000 C   0  0  0  0  0  0  0  0  0  0  0  0
    1.4191   -1.8634    0.0000 C   0  0  0  0  0  0  0  0  0  0  0  0
   -0.7337   -3.0897    0.0000 C   0  0  0  0  0  0  0  0  0  0  0  0
   -0.0207   -3.5099    0.0000 C   0  0  0  0  0  0  0  0  0  0  0  0
  1  2  1  0  0  0  0
  1  3  1  0  0  0  0
  1  4  1  0  0  0  0
  1  5  1  0  0  0  0
  2  6  2  0  0  0  0
  2  7  1  0  0  0  0
  3  8  2  0  0  0  0
  3  9  1  0  0  0  0
  4 10  2  0  0  0  0
  4 11  1  0  0  0  0
  5 12  1  0  0  0  0
  5 13  2  0  0  0  0
  6 14  1  0  0  0  0
  6 15  1  0  0  0  0
  7 16  1  0  0  0  0
  7 17  2  0  0  0  0
  8 18  1  0  0  0  0
  8 12  1  0  0  0  0
  9 19  2  0  0  0  0
 10 20  1  0  0  0  0
 10 14  1  0  0  0  0
 11 21  3  0  0  0  0
 12 22  1  0  0  0  0
 14 23  1  0  0  0  0
 15 24  1  0  0  0  0
 16 24  1  0  0  0  0
 18 25  2  0  0  0  0
 19 25  1  0  0  0  0
 22 26  1  0  0  0  0
 23 27  1  0  0  0  0
 23 28  2  0  0  0  0
 24 29  1  0  0  0  0
 24 30  1  0  0  0  0
 26 31  3  0  0  0  0
 27 32  2  0  0  0  0
 27 33  1  0  0  0  0
 28 34  1  0  0  0  0
 32 35  1  0  0  0  0
 34 35  2  0  0  0  0
M  END
> <CdId>
562

> <Mol Weight>
462.5423

> <Formula>
C29H26N4O2

> <Click_ID>
CLK008_A03 __ __ 

$$$$
