CLK018_C08
 OpenBabel03181417552D

 21 22  0  0  0  0  0  0  0  0999 V2000
    8.1627   -5.2641    0.0000 C   0  0  0  0  0  0  0  0  0  0  0  0
    8.9206   -5.5972    0.0000 C   0  0  0  0  0  0  0  0  0  0  0  0
    9.4703   -4.9768    0.0000 N   0  0  0  0  0  0  0  0  0  0  0  0
    7.4505   -5.6764    0.0000 C   0  0  0  0  0  0  0  0  0  0  0  0
    8.2501   -4.4395    0.0000 N   0  0  0  0  0  0  0  0  0  0  0  0
    9.0580   -4.2646    0.0000 O   0  0  0  0  0  0  0  0  0  0  0  0
    6.7384   -5.2766    0.0000 N   0  0  0  0  0  0  0  0  0  0  0  0
    2.4613   -8.5625    0.0000 C   0  0  0  0  0  0  0  0  0  0  0  0
    6.0262   -5.6847    0.0000 N   0  0  0  0  0  0  0  0  0  0  0  0
    1.7408   -8.9748    0.0000 C   0  0  0  0  0  0  0  0  0  0  0  0
    9.0955   -6.4010    0.0000 N   0  0  0  0  0  0  0  0  0  0  0  0
    7.4588   -6.5010    0.0000 N   0  0  0  0  0  0  0  0  0  0  0  0
    5.3141   -6.0970    0.0000 C   0  0  0  0  0  0  0  0  0  0  0  0
    4.6019   -7.3339    0.0000 C   0  0  0  0  0  0  0  0  0  0  0  0
    5.3141   -6.9216    0.0000 C   0  0  0  0  0  0  0  0  0  0  0  0
    4.6019   -8.1627    0.0000 C   0  0  0  0  0  0  0  0  0  0  0  0
    3.1776   -8.1585    0.0000 C   0  0  0  0  0  0  0  0  0  0  0  0
    3.8898   -8.5750    0.0000 O   0  0  0  0  0  0  0  0  0  0  0  0
    6.0345   -8.1627    0.0000 C   0  0  0  0  0  0  0  0  0  0  0  0
    6.0345   -7.3339    0.0000 C   0  0  0  0  0  0  0  0  0  0  0  0
    5.3141   -8.5750    0.0000 C   0  0  0  0  0  0  0  0  0  0  0  0
  2  1  1  0  0  0  0
  3  2  2  0  0  0  0
  4  1  1  0  0  0  0
  5  1  2  0  0  0  0
  6  5  1  0  0  0  0
  6  3  1  0  0  0  0
  7  4  2  0  0  0  0
  8 17  1  0  0  0  0
  9  7  1  0  0  0  0
 10  8  3  0  0  0  0
 11  2  1  0  0  0  0
 12  4  1  0  0  0  0
 13  9  2  0  0  0  0
 14 15  1  0  0  0  0
 15 13  1  0  0  0  0
 16 14  2  0  0  0  0
 16 21  1  0  0  0  0
 17 18  1  0  0  0  0
 18 16  1  0  0  0  0
 19 20  1  0  0  0  0
 20 15  2  0  0  0  0
 21 19  2  0  0  0  0
M  END
> <CdId>
1343

> <Mol Weight>
284.2734

> <Formula>
C13H12N6O2

> <Click_ID>
CLK018_C08 __ __ 

$$$$
