CLK012_E10
 OpenBabel03181417552D

 22 23  0  0  0  0  0  0  0  0999 V2000
    1.5645   -0.8156    0.0000 N   0  0  0  0  0  0  0  0  0  0  0  0
    1.8225   -1.6020    0.0000 C   0  0  0  0  0  0  0  0  0  0  0  0
    2.9002   -0.8156    0.0000 C   0  0  0  0  0  0  0  0  0  0  0  0
    2.2344   -0.3287    0.0000 C   0  0  0  0  0  0  0  0  0  0  0  0
    2.6463   -1.6020    0.0000 S   0  0  0  0  0  0  0  0  0  0  0  0
    3.6866   -0.5617    0.0000 C   0  0  0  0  0  0  0  0  0  0  0  0
    4.8058    1.3065    0.0000 C   0  0  0  0  0  0  0  0  0  0  0  0
    4.6352    0.4993    0.0000 C   0  0  0  0  0  0  0  0  0  0  0  0
    3.8571    0.2455    0.0000 C   0  0  0  0  0  0  0  0  0  0  0  0
    0.6116    0.2455    0.0000 C   0  0  0  0  0  0  0  0  0  0  0  0
    0.3912    1.0443    0.0000 C   0  0  0  0  0  0  0  0  0  0  0  0
    1.3356   -2.2635    0.0000 O   0  0  0  0  0  0  0  0  0  0  0  0
    4.1859    1.8557    0.0000 C   0  0  0  0  0  0  0  0  0  0  0  0
    2.2261    0.4951    0.0000 O   0  0  0  0  0  0  0  0  0  0  0  0
    0.7864   -0.5617    0.0000 C   0  0  0  0  0  0  0  0  0  0  0  0
    3.2372    0.7947    0.0000 C   0  0  0  0  0  0  0  0  0  0  0  0
    3.4078    1.5936    0.0000 C   0  0  0  0  0  0  0  0  0  0  0  0
    5.2469   -0.0541    0.0000 O   0  0  0  0  0  0  0  0  0  0  0  0
    4.3564    2.6546    0.0000 O   0  0  0  0  0  0  0  0  0  0  0  0
    5.5797    1.5603    0.0000 C   0  0  0  0  0  0  0  0  0  0  0  0
    6.0291    0.2080    0.0000 C   0  0  0  0  0  0  0  0  0  0  0  0
    3.7365    3.2038    0.0000 C   0  0  0  0  0  0  0  0  0  0  0  0
  2  1  1  0  0  0  0
  3  4  1  0  0  0  0
  3  5  1  0  0  0  0
  4  1  1  0  0  0  0
  5  2  1  0  0  0  0
  6  3  2  0  0  0  0
  7  8  1  0  0  0  0
  7 13  2  0  0  0  0
  8  9  2  0  0  0  0
  9  6  1  0  0  0  0
 10 15  1  0  0  0  0
 11 10  3  0  0  0  0
 12  2  2  0  0  0  0
 13 17  1  0  0  0  0
 14  4  2  0  0  0  0
 15  1  1  0  0  0  0
 16  9  1  0  0  0  0
 17 16  2  0  0  0  0
 18  8  1  0  0  0  0
 19 13  1  0  0  0  0
 20  7  1  0  0  0  0
 21 18  1  0  0  0  0
 22 19  1  0  0  0  0
M  END
> <CdId>
885

> <Mol Weight>
317.36

> <Formula>
C16H15NO4S

> <Click_ID>
CLK012_E10 __ __ 

$$$$
