CLK038F05
 OpenBabel03181417552D

 32 33  0  0  0  0  0  0  0  0999 V2000
    4.1083    1.9458    0.0000 C    0  0  0  0  0  0  0  0  0  0  0  0
    4.1083   -2.1792    0.0000 C    0  0  0  0  0  0  0  0  0  0  0  0
    4.1083    2.7708    0.0000 N    0  0  0  0  0  0  0  0  0  0  0  0
   -0.2083   -0.3542    0.0000 C    0  0  0  0  0  0  0  0  0  0  0  0
    0.2042    0.3583    0.0000 C    0  0  0  0  0  0  0  0  0  0  0  0
    3.3917   -0.9417    0.0000 N    0  0  0  0  0  0  0  0  0  0  0  0
    3.3917    0.7083    0.0000 N    0  0  0  0  0  0  0  0  0  0  0  0
    5.5375    0.2958    0.0000 C    0  0  0  0  0  0  0  0  0  0  0  0
    5.5375    1.1208    0.0000 C    0  0  0  0  0  0  0  0  0  0  0  0
    3.3917    1.5333    0.0000 C    0  0  0  0  0  0  0  0  0  0  0  0
    3.3917   -1.7667    0.0000 C    0  0  0  0  0  0  0  0  0  0  0  0
    4.8208   -1.7667    0.0000 C    0  0  0  0  0  0  0  0  0  0  0  0
    4.1083   -3.0042    0.0000 C    0  0  0  0  0  0  0  0  0  0  0  0
    4.8208    1.5333    0.0000 O    0  0  0  0  0  0  0  0  0  0  0  0
    1.0292    0.3583    0.0000 O    0  0  0  0  0  0  0  0  0  0  0  0
    0.2042   -1.0708    0.0000 O    0  0  0  0  0  0  0  0  0  0  0  0
    5.5375   -2.1792    0.0000 C    0  0  0  0  0  0  0  0  0  0  0  0
    4.8208   -3.4167    0.0000 C    0  0  0  0  0  0  0  0  0  0  0  0
    4.1083   -0.5292    0.0000 C    0  0  0  0  0  0  0  0  0  0  0  0
    2.6792    0.2958    0.0000 C    0  0  0  0  0  0  0  0  0  0  0  0
    2.6792   -0.5292    0.0000 C    0  0  0  0  0  0  0  0  0  0  0  0
    4.1083    0.2958    0.0000 C    0  0  0  0  0  0  0  0  0  0  0  0
   -0.2083    1.0750    0.0000 O    0  0  0  0  0  0  0  0  0  0  0  0
   -1.0333   -0.3542    0.0000 O    0  0  0  0  0  0  0  0  0  0  0  0
    5.5375   -3.0042    0.0000 C    0  0  0  0  0  0  0  0  0  0  0  0
    4.8208   -4.2417    0.0000 Br   0  0  0  0  0  0  0  0  0  0  0  0
    4.8208   -0.9417    0.0000 O    0  0  0  0  0  0  0  0  0  0  0  0
    3.4417    3.2542    0.0000 C    0  0  0  0  0  0  0  0  0  0  0  0
    4.7750    3.2542    0.0000 C    0  0  0  0  0  0  0  0  0  0  0  0
    5.5375   -0.5292    0.0000 C    0  0  0  0  0  0  0  0  0  0  0  0
    4.5208    4.0375    0.0000 C    0  0  0  0  0  0  0  0  0  0  0  0
    3.6958    4.0375    0.0000 C    0  0  0  0  0  0  0  0  0  0  0  0
  2 11  1  0  0  0  0
  3  1  1  0  0  0  0
  5  4  1  0  0  0  0
  6 21  1  0  0  0  0
  7 10  1  0  0  0  0
  8 30  1  0  0  0  0
  9  8  3  0  0  0  0
 10  1  1  0  0  0  0
 11  6  1  0  0  0  0
 12  2  2  0  0  0  0
 13  2  1  0  0  0  0
 14  1  2  0  0  0  0
 15  5  2  0  0  0  0
 16  4  2  0  0  0  0
 17 12  1  0  0  0  0
 17 25  2  0  0  0  0
 18 13  2  0  0  0  0
 19 22  1  0  0  0  0
 19  6  1  0  0  0  0
 20  7  1  0  0  0  0
 21 20  1  0  0  0  0
 22  7  1  0  0  0  0
 23  5  1  0  0  0  0
 24  4  1  0  0  0  0
 25 18  1  0  0  0  0
 26 18  1  0  0  0  0
 27 12  1  0  0  0  0
 28  3  1  0  0  0  0
 29  3  1  0  0  0  0
 30 27  1  0  0  0  0
 31 29  1  0  0  0  0
 32 28  1  0  0  0  0
 32 31  1  0  0  0  0
M  END
> <CdId>
2878

> <Mol Weight>
510.378

> <Formula>
C22H28BrN3O6

> <Click_ID>
CLK038F05 __ __ 

$$$$
