CLK052C05
 OpenBabel03181417552D

 19 20  0  0  0  0  0  0  0  0999 V2000
   -0.9416   -0.4291    0.0000 C   0  0  0  0  0  0  0  0  0  0  0  0
   -1.7247   -0.1750    0.0000 S   0  0  0  0  0  0  0  0  0  0  0  0
   -0.2708    0.0583    0.0000 C   0  0  0  0  0  0  0  0  0  0  0  0
   -0.9416   -1.2540    0.0000 C   0  0  0  0  0  0  0  0  0  0  0  0
   -2.2080   -0.8416    0.0000 C   0  0  0  0  0  0  0  0  0  0  0  0
   -1.7247   -1.5081    0.0000 C   0  0  0  0  0  0  0  0  0  0  0  0
    0.4791   -0.2792    0.0000 N   0  0  0  0  0  0  0  0  0  0  0  0
    1.6414    2.3329    0.0000 C   0  0  0  0  0  0  0  0  0  0  0  0
    1.5581    3.1537    0.0000 C   0  0  0  0  0  0  0  0  0  0  0  0
   -0.3582    0.8749    0.0000 O   0  0  0  0  0  0  0  0  0  0  0  0
    1.1498    0.2042    0.0000 C   0  0  0  0  0  0  0  0  0  0  0  0
    1.7289    1.5123    0.0000 C   0  0  0  0  0  0  0  0  0  0  0  0
    1.0623    1.0248    0.0000 C   0  0  0  0  0  0  0  0  0  0  0  0
   -1.9789   -2.2914    0.0000 C   0  0  0  0  0  0  0  0  0  0  0  0
   -3.0328   -0.8416    0.0000 C   0  0  0  0  0  0  0  0  0  0  0  0
    2.5704    0.3541    0.0000 C   0  0  0  0  0  0  0  0  0  0  0  0
    1.8997   -0.1292    0.0000 C   0  0  0  0  0  0  0  0  0  0  0  0
    2.4829    1.1748    0.0000 C   0  0  0  0  0  0  0  0  0  0  0  0
   -1.4290   -2.9038    0.0000 C   0  0  0  0  0  0  0  0  0  0  0  0
  2  1  1  0  0  0  0
  3  1  1  0  0  0  0
  4  1  2  0  0  0  0
  5  2  1  0  0  0  0
  5  6  2  0  0  0  0
  6  4  1  0  0  0  0
  7  3  1  0  0  0  0
  8 12  1  0  0  0  0
  9  8  3  0  0  0  0
 10  3  2  0  0  0  0
 11  7  1  0  0  0  0
 12 13  1  0  0  0  0
 13 11  2  0  0  0  0
 14  6  1  0  0  0  0
 15  5  1  0  0  0  0
 16 17  2  0  0  0  0
 17 11  1  0  0  0  0
 18 12  2  0  0  0  0
 18 16  1  0  0  0  0
 19 14  1  0  0  0  0
M  END
> <CdId>
3995

> <Mol Weight>
269.361

> <Formula>
C16H15NOS

> <Click_ID>
CLK052C05 __ __ 

$$$$
