CLK009_E05
 OpenBabel03181417552D

 22 23  0  0  0  0  0  0  0  0999 V2000
   -2.5336    3.3915    0.0000 C    0  0  0  0  0  0  0  0  0  0  0  0
   -2.1218    2.6537    0.0000 C    0  0  0  0  0  0  0  0  0  0  0  0
   -1.2983    2.6537    0.0000 C    0  0  0  0  0  0  0  0  0  0  0  0
   -0.8521    3.3915    0.0000 C    0  0  0  0  0  0  0  0  0  0  0  0
   -3.3802    3.3915    0.0000 N    0  0  0  0  0  0  0  0  0  0  0  0
    1.2068    2.6881    0.0000 C    0  0  0  0  0  0  0  0  0  0  0  0
    2.0590    2.6881    0.0000 C    0  0  0  0  0  0  0  0  0  0  0  0
   -2.1218    4.1122    0.0000 O    0  0  0  0  0  0  0  0  0  0  0  0
   -1.2983    4.1122    0.0000 O    0  0  0  0  0  0  0  0  0  0  0  0
   -3.7920    2.6881    0.0000 C    0  0  0  0  0  0  0  0  0  0  0  0
   -0.0286    3.3915    0.0000 O    0  0  0  0  0  0  0  0  0  0  0  0
   -4.6155    1.2525    0.0000 C    0  0  0  0  0  0  0  0  0  0  0  0
   -4.8043    0.8178    0.0000 Cl   0  0  0  0  0  0  0  0  0  0  0  0
   -4.6155    2.6881    0.0000 C    0  0  0  0  0  0  0  0  0  0  0  0
   -3.3802    1.9674    0.0000 C    0  0  0  0  0  0  0  0  0  0  0  0
   -5.0273    1.9674    0.0000 C    0  0  0  0  0  0  0  0  0  0  0  0
   -3.7920    1.2525    0.0000 C    0  0  0  0  0  0  0  0  0  0  0  0
    0.3832    2.6881    0.0000 C    0  0  0  0  0  0  0  0  0  0  0  0
   -2.5336    1.9389    0.0000 C    0  0  0  0  0  0  0  0  0  0  0  0
   -0.8865    1.9389    0.0000 C    0  0  0  0  0  0  0  0  0  0  0  0
   -1.2983    1.2296    0.0000 C    0  0  0  0  0  0  0  0  0  0  0  0
   -2.1218    1.2296    0.0000 C    0  0  0  0  0  0  0  0  0  0  0  0
  2  1  1  0  0  0  0
  3  2  1  0  0  0  0
  4  3  1  0  0  0  0
  5  1  1  0  0  0  0
  6 18  1  0  0  0  0
  7  6  3  0  0  0  0
  8  1  2  0  0  0  0
  9  4  2  0  0  0  0
 10  5  1  0  0  0  0
 11  4  1  0  0  0  0
 12 17  2  0  0  0  0
 13 12  1  0  0  0  0
 14 10  1  0  0  0  0
 15 10  2  0  0  0  0
 16 14  2  0  0  0  0
 16 12  1  0  0  0  0
 17 15  1  0  0  0  0
 18 11  1  0  0  0  0
 19  2  2  0  0  0  0
 20  3  2  0  0  0  0
 21 22  2  0  0  0  0
 21 20  1  0  0  0  0
 22 19  1  0  0  0  0
M  END
> <CdId>
640

> <Mol Weight>
313.735

> <Formula>
C17H12ClNO3

> <Click_ID>
CLK009_E05 __ __ 

$$$$
