CLK024_H09
 OpenBabel03181417552D

 31 33  0  0  0  0  0  0  0  0999 V2000
   -2.1809    0.2202    0.0000 C    0  0  0  0  0  0  0  0  0  0  0  0
   -1.9298   -0.5744    0.0000 N    0  0  0  0  0  0  0  0  0  0  0  0
   -0.8531    0.2029    0.0000 C    0  0  0  0  0  0  0  0  0  0  0  0
   -1.1145   -0.5744    0.0000 C    0  0  0  0  0  0  0  0  0  0  0  0
   -1.5170    0.6949    0.0000 S    0  0  0  0  0  0  0  0  0  0  0  0
   -0.0654    0.4506    0.0000 C    0  0  0  0  0  0  0  0  0  0  0  0
   -2.9686    0.4782    0.0000 N    0  0  0  0  0  0  0  0  0  0  0  0
    0.5435   -0.1100    0.0000 C    0  0  0  0  0  0  0  0  0  0  0  0
    1.9332   -0.4128    0.0000 C    0  0  0  0  0  0  0  0  0  0  0  0
    1.3244    0.1376    0.0000 C    0  0  0  0  0  0  0  0  0  0  0  0
    1.7509   -1.2246    0.0000 C    0  0  0  0  0  0  0  0  0  0  0  0
    0.3612   -0.9116    0.0000 C    0  0  0  0  0  0  0  0  0  0  0  0
    3.7632   -2.0880    0.0000 C    0  0  0  0  0  0  0  0  0  0  0  0
    0.9632   -1.4757    0.0000 C    0  0  0  0  0  0  0  0  0  0  0  0
    4.5441   -1.8403    0.0000 C    0  0  0  0  0  0  0  0  0  0  0  0
   -0.6330   -1.2487    0.0000 O    0  0  0  0  0  0  0  0  0  0  0  0
   -2.4079   -1.2452    0.0000 C    0  0  0  0  0  0  0  0  0  0  0  0
   -3.2197    1.2658    0.0000 C    0  0  0  0  0  0  0  0  0  0  0  0
    1.4998    0.9459    0.0000 Br   0  0  0  0  0  0  0  0  0  0  0  0
    2.3632   -1.7750    0.0000 O    0  0  0  0  0  0  0  0  0  0  0  0
    0.7878   -2.2772    0.0000 O    0  0  0  0  0  0  0  0  0  0  0  0
    3.1475   -1.5273    0.0000 C    0  0  0  0  0  0  0  0  0  0  0  0
   -3.7185   -1.8266    0.0000 O    0  0  0  0  0  0  0  0  0  0  0  0
   -3.2300   -1.1593    0.0000 C    0  0  0  0  0  0  0  0  0  0  0  0
   -4.0246    1.4413    0.0000 C    0  0  0  0  0  0  0  0  0  0  0  0
   -2.6693    1.8782    0.0000 C    0  0  0  0  0  0  0  0  0  0  0  0
    1.3966   -2.8413    0.0000 C    0  0  0  0  0  0  0  0  0  0  0  0
   -4.5475   -1.7372    0.0000 C    0  0  0  0  0  0  0  0  0  0  0  0
   -4.2826    2.2222    0.0000 C    0  0  0  0  0  0  0  0  0  0  0  0
   -2.9170    2.6693    0.0000 C    0  0  0  0  0  0  0  0  0  0  0  0
   -3.7185    2.8447    0.0000 C    0  0  0  0  0  0  0  0  0  0  0  0
  2  1  1  0  0  0  0
  3  5  1  0  0  0  0
  3  4  1  0  0  0  0
  4  2  1  0  0  0  0
  5  1  1  0  0  0  0
  6  3  2  0  0  0  0
  7  1  2  0  0  0  0
  8  6  1  0  0  0  0
  9 10  2  0  0  0  0
 10  8  1  0  0  0  0
 11 14  2  0  0  0  0
 11  9  1  0  0  0  0
 12  8  2  0  0  0  0
 13 22  1  0  0  0  0
 14 12  1  0  0  0  0
 15 13  3  0  0  0  0
 16  4  2  0  0  0  0
 17  2  1  0  0  0  0
 18  7  1  0  0  0  0
 19 10  1  0  0  0  0
 20 11  1  0  0  0  0
 21 14  1  0  0  0  0
 22 20  1  0  0  0  0
 23 24  1  0  0  0  0
 24 17  1  0  0  0  0
 25 18  1  0  0  0  0
 26 18  2  0  0  0  0
 27 21  1  0  0  0  0
 28 23  1  0  0  0  0
 29 25  2  0  0  0  0
 29 31  1  0  0  0  0
 30 26  1  0  0  0  0
 31 30  2  0  0  0  0
M  END
> <CdId>
1854

> <Mol Weight>
501.393

> <Formula>
C23H21BrN2O4S

> <Click_ID>
CLK024_H09 __ __ 

$$$$
