CLK007_G08
 OpenBabel03181417552D

 27 29  0  0  0  0  0  0  0  0999 V2000
    0.2512    2.2955    0.0000 C    0  0  0  0  0  0  0  0  0  0  0  0
   -0.5748    2.2507    0.0000 C    0  0  0  0  0  0  0  0  0  0  0  0
    0.7089    1.5968    0.0000 C    0  0  0  0  0  0  0  0  0  0  0  0
    0.6229    3.0319    0.0000 O    0  0  0  0  0  0  0  0  0  0  0  0
   -0.9464    1.5142    0.0000 C    0  0  0  0  0  0  0  0  0  0  0  0
   -1.0221    2.9321    0.0000 O    0  0  0  0  0  0  0  0  0  0  0  0
    0.3235    0.8638    0.0000 C    0  0  0  0  0  0  0  0  0  0  0  0
    1.5315    1.6347    0.0000 Cl   0  0  0  0  0  0  0  0  0  0  0  0
    0.1756    3.7167    0.0000 C    0  0  0  0  0  0  0  0  0  0  0  0
   -0.4887    0.8156    0.0000 C    0  0  0  0  0  0  0  0  0  0  0  0
   -1.8446    2.8909    0.0000 C    0  0  0  0  0  0  0  0  0  0  0  0
    0.5506    4.4464    0.0000 C    0  0  0  0  0  0  0  0  0  0  0  0
   -0.8742    0.0791    0.0000 C    0  0  0  0  0  0  0  0  0  0  0  0
    1.3732    4.4877    0.0000 C    0  0  0  0  0  0  0  0  0  0  0  0
   -0.4164   -0.6195    0.0000 C    0  0  0  0  0  0  0  0  0  0  0  0
   -0.7089   -1.3938    0.0000 N    0  0  0  0  0  0  0  0  0  0  0  0
    0.3958   -0.6573    0.0000 C    0  0  0  0  0  0  0  0  0  0  0  0
   -0.0757   -1.8962    0.0000 C    0  0  0  0  0  0  0  0  0  0  0  0
    0.6126   -1.4488    0.0000 O    0  0  0  0  0  0  0  0  0  0  0  0
    0.9085    0.0000    0.0000 O    0  0  0  0  0  0  0  0  0  0  0  0
   -0.0654   -2.7291    0.0000 C    0  0  0  0  0  0  0  0  0  0  0  0
   -0.7846   -3.1386    0.0000 C    0  0  0  0  0  0  0  0  0  0  0  0
    0.6470   -3.1386    0.0000 C    0  0  0  0  0  0  0  0  0  0  0  0
   -0.7846   -3.9680    0.0000 C    0  0  0  0  0  0  0  0  0  0  0  0
    0.6366   -3.9680    0.0000 C    0  0  0  0  0  0  0  0  0  0  0  0
   -0.0757   -4.3810    0.0000 C    0  0  0  0  0  0  0  0  0  0  0  0
   -0.0757   -5.2035    0.0000 C    0  0  0  0  0  0  0  0  0  0  0  0
  1  2  1  0  0  0  0
  1  3  2  0  0  0  0
  1  4  1  0  0  0  0
  2  5  2  0  0  0  0
  2  6  1  0  0  0  0
  3  7  1  0  0  0  0
  3  8  1  0  0  0  0
  4  9  1  0  0  0  0
  5 10  1  0  0  0  0
  6 11  1  0  0  0  0
  7 10  2  0  0  0  0
  9 12  1  0  0  0  0
 10 13  1  0  0  0  0
 12 14  3  0  0  0  0
 13 15  2  0  0  0  0
 15 16  1  0  0  0  0
 15 17  1  0  0  0  0
 16 18  2  0  0  0  0
 17 19  1  0  0  0  0
 17 20  2  0  0  0  0
 18 21  1  0  0  0  0
 18 19  1  0  0  0  0
 21 22  2  0  0  0  0
 21 23  1  0  0  0  0
 22 24  1  0  0  0  0
 23 25  2  0  0  0  0
 24 26  2  0  0  0  0
 25 26  1  0  0  0  0
 26 27  1  0  0  0  0
M  END
> <CdId>
547

> <Mol Weight>
381.809

> <Formula>
C21H16ClNO4

> <Click_ID>
CLK007_G08 __ __ 

$$$$
