CLK024_F10
 OpenBabel03181417552D

 32 34  0  0  0  0  0  0  0  0999 V2000
   -2.1825    0.5912    0.0000 C    0  0  0  0  0  0  0  0  0  0  0  0
   -1.9281   -0.2062    0.0000 N    0  0  0  0  0  0  0  0  0  0  0  0
   -1.1170   -0.2062    0.0000 C    0  0  0  0  0  0  0  0  0  0  0  0
   -0.8523    0.5774    0.0000 C    0  0  0  0  0  0  0  0  0  0  0  0
   -1.5157    1.0689    0.0000 S    0  0  0  0  0  0  0  0  0  0  0  0
   -2.9695    0.8558    0.0000 N    0  0  0  0  0  0  0  0  0  0  0  0
   -0.0653    0.8214    0.0000 C    0  0  0  0  0  0  0  0  0  0  0  0
    1.7494   -0.8490    0.0000 C    0  0  0  0  0  0  0  0  0  0  0  0
    1.9350   -0.0412    0.0000 C    0  0  0  0  0  0  0  0  0  0  0  0
    0.9624   -1.0964    0.0000 C    0  0  0  0  0  0  0  0  0  0  0  0
    0.5430    0.2681    0.0000 C    0  0  0  0  0  0  0  0  0  0  0  0
    3.7600   -1.7116    0.0000 C    0  0  0  0  0  0  0  0  0  0  0  0
    4.5403   -1.4607    0.0000 C    0  0  0  0  0  0  0  0  0  0  0  0
    1.3233    0.5155    0.0000 C    0  0  0  0  0  0  0  0  0  0  0  0
   -0.6324   -0.8730    0.0000 O    0  0  0  0  0  0  0  0  0  0  0  0
    0.3609   -0.5430    0.0000 C    0  0  0  0  0  0  0  0  0  0  0  0
   -2.4162   -0.8730    0.0000 C    0  0  0  0  0  0  0  0  0  0  0  0
   -3.1345    1.6601    0.0000 C    0  0  0  0  0  0  0  0  0  0  0  0
    2.7221    0.2028    0.0000 Br   0  0  0  0  0  0  0  0  0  0  0  0
    2.3647   -1.4057    0.0000 O    0  0  0  0  0  0  0  0  0  0  0  0
    0.7871   -1.8972    0.0000 O    0  0  0  0  0  0  0  0  0  0  0  0
    3.1483   -1.1548    0.0000 C    0  0  0  0  0  0  0  0  0  0  0  0
   -3.7222   -1.4470    0.0000 O    0  0  0  0  0  0  0  0  0  0  0  0
   -3.2342   -0.7836    0.0000 C    0  0  0  0  0  0  0  0  0  0  0  0
    1.3954   -2.4608    0.0000 C    0  0  0  0  0  0  0  0  0  0  0  0
   -2.5159    2.2065    0.0000 C    0  0  0  0  0  0  0  0  0  0  0  0
   -3.9181    1.9178    0.0000 C    0  0  0  0  0  0  0  0  0  0  0  0
   -4.5437   -1.3610    0.0000 C    0  0  0  0  0  0  0  0  0  0  0  0
    1.2132   -3.2720    0.0000 C    0  0  0  0  0  0  0  0  0  0  0  0
   -2.6843    3.0211    0.0000 C    0  0  0  0  0  0  0  0  0  0  0  0
   -4.0866    2.7186    0.0000 C    0  0  0  0  0  0  0  0  0  0  0  0
   -3.4679    3.2754    0.0000 C    0  0  0  0  0  0  0  0  0  0  0  0
  2  1  1  0  0  0  0
  3  2  1  0  0  0  0
  3  4  1  0  0  0  0
  4  5  1  0  0  0  0
  5  1  1  0  0  0  0
  6  1  2  0  0  0  0
  7  4  2  0  0  0  0
  8 10  2  0  0  0  0
  9 14  2  0  0  0  0
  9  8  1  0  0  0  0
 10 16  1  0  0  0  0
 11  7  1  0  0  0  0
 12 22  1  0  0  0  0
 13 12  3  0  0  0  0
 14 11  1  0  0  0  0
 15  3  2  0  0  0  0
 16 11  2  0  0  0  0
 17  2  1  0  0  0  0
 18  6  1  0  0  0  0
 19  9  1  0  0  0  0
 20  8  1  0  0  0  0
 21 10  1  0  0  0  0
 22 20  1  0  0  0  0
 23 24  1  0  0  0  0
 24 17  1  0  0  0  0
 25 21  1  0  0  0  0
 26 18  2  0  0  0  0
 27 18  1  0  0  0  0
 28 23  1  0  0  0  0
 29 25  1  0  0  0  0
 30 26  1  0  0  0  0
 30 32  2  0  0  0  0
 31 27  2  0  0  0  0
 32 31  1  0  0  0  0
M  END
> <CdId>
1835

> <Mol Weight>
515.419

> <Formula>
C24H23BrN2O4S

> <Click_ID>
CLK024_F10 __ __ 

$$$$
