CLK044F02
 OpenBabel03181417552D

 19 21  0  0  0  0  0  0  0  0999 V2000
   -0.1417   -0.1667    0.0000 C   0  0  0  0  0  0  0  0  0  0  0  0
   -0.1417    1.4833    0.0000 N   0  0  0  0  0  0  0  0  0  0  0  0
    0.5708    1.0708    0.0000 C   0  0  0  0  0  0  0  0  0  0  0  0
    0.5708    0.2458    0.0000 C   0  0  0  0  0  0  0  0  0  0  0  0
    1.2875    1.4833    0.0000 C   0  0  0  0  0  0  0  0  0  0  0  0
   -0.1417   -0.9917    0.0000 C   0  0  0  0  0  0  0  0  0  0  0  0
   -0.8583    0.2458    0.0000 C   0  0  0  0  0  0  0  0  0  0  0  0
   -0.8583    1.0708    0.0000 C   0  0  0  0  0  0  0  0  0  0  0  0
    2.1125    1.4833    0.0000 C   0  0  0  0  0  0  0  0  0  0  0  0
    1.7000    2.2000    0.0000 C   0  0  0  0  0  0  0  0  0  0  0  0
    1.2875   -2.6417    0.0000 C   0  0  0  0  0  0  0  0  0  0  0  0
    2.0000   -3.0542    0.0000 C   0  0  0  0  0  0  0  0  0  0  0  0
   -0.8583   -1.4042    0.0000 O   0  0  0  0  0  0  0  0  0  0  0  0
    0.5708   -1.4042    0.0000 N   0  0  0  0  0  0  0  0  0  0  0  0
    0.5708   -2.2292    0.0000 C   0  0  0  0  0  0  0  0  0  0  0  0
   -1.5708   -0.1667    0.0000 C   0  0  0  0  0  0  0  0  0  0  0  0
   -1.5708    1.4833    0.0000 C   0  0  0  0  0  0  0  0  0  0  0  0
   -2.2875    0.2458    0.0000 C   0  0  0  0  0  0  0  0  0  0  0  0
   -2.2875    1.0708    0.0000 C   0  0  0  0  0  0  0  0  0  0  0  0
  2  8  2  0  0  0  0
  2  3  1  0  0  0  0
  3  4  2  0  0  0  0
  4  1  1  0  0  0  0
  5  3  1  0  0  0  0
  6  1  1  0  0  0  0
  7  1  2  0  0  0  0
  8  7  1  0  0  0  0
  9  5  1  0  0  0  0
 10  5  1  0  0  0  0
 10  9  1  0  0  0  0
 11 15  1  0  0  0  0
 12 11  3  0  0  0  0
 13  6  2  0  0  0  0
 14  6  1  0  0  0  0
 15 14  1  0  0  0  0
 16  7  1  0  0  0  0
 17  8  1  0  0  0  0
 18 16  2  0  0  0  0
 18 19  1  0  0  0  0
 19 17  2  0  0  0  0
M  END
> <CdId>
3334

> <Mol Weight>
250.2952

> <Formula>
C16H14N2O

> <Click_ID>
CLK044F02 __ __ 

$$$$
