CLK049A10
 OpenBabel03181417552D

 29 29  0  0  0  0  0  0  0  0999 V2000
   -0.3958    1.4250    0.0000 N    0  0  0  0  0  0  0  0  0  0  0  0
   -1.1125    1.8375    0.0000 C    0  0  0  0  0  0  0  0  0  0  0  0
   -0.3958    0.6000    0.0000 C    0  0  3  0  0  0  0  0  0  0  0  0
    0.3167    0.1875    0.0000 C    0  0  0  0  0  0  0  0  0  0  0  0
    1.7458   -3.9375    0.0000 C    0  0  0  0  0  0  0  0  0  0  0  0
    1.7458   -4.7625    0.0000 C    0  0  0  0  0  0  0  0  0  0  0  0
    1.0333   -1.8750    0.0000 C    0  0  0  0  0  0  0  0  0  0  0  0
   -1.1125    2.6625    0.0000 C    0  0  0  0  0  0  0  0  0  0  0  0
    1.7458   -2.2875    0.0000 N    0  0  0  0  0  0  0  0  0  0  0  0
    1.7458   -3.1125    0.0000 C    0  0  0  0  0  0  0  0  0  0  0  0
    0.3167   -0.6375    0.0000 O    0  0  0  0  0  0  0  0  0  0  0  0
   -1.8250    1.4250    0.0000 O    0  0  0  0  0  0  0  0  0  0  0  0
    1.0333    0.6000    0.0000 O    0  0  0  0  0  0  0  0  0  0  0  0
    0.3167   -2.2875    0.0000 O    0  0  0  0  0  0  0  0  0  0  0  0
   -1.8250    3.0750    0.0000 C    0  0  0  0  0  0  0  0  0  0  0  0
   -0.3958    3.0750    0.0000 C    0  0  0  0  0  0  0  0  0  0  0  0
    1.0333   -1.0500    0.0000 C    0  0  0  0  0  0  0  0  0  0  0  0
   -1.1125    0.1875    0.0000 C    0  0  3  0  0  0  0  0  0  0  0  0
   -1.1125    4.3083    0.0000 C    0  0  0  0  0  0  0  0  0  0  0  0
   -1.8250    3.9000    0.0000 C    0  0  0  0  0  0  0  0  0  0  0  0
   -0.3958    3.9000    0.0000 C    0  0  0  0  0  0  0  0  0  0  0  0
   -1.1125    5.1333    0.0000 Cl   0  0  0  0  0  0  0  0  0  0  0  0
    2.5708   -3.1125    0.0000 C    0  0  0  0  0  0  0  0  0  0  0  0
    0.9208   -3.1125    0.0000 C    0  0  0  0  0  0  0  0  0  0  0  0
   -1.8250    0.6000    0.0000 C    0  0  0  0  0  0  0  0  0  0  0  0
   -1.1125   -0.6375    0.0000 C    0  0  0  0  0  0  0  0  0  0  0  0
    2.9833   -3.8292    0.0000 C    0  0  0  0  0  0  0  0  0  0  0  0
    0.5083   -2.4000    0.0000 C    0  0  0  0  0  0  0  0  0  0  0  0
   -2.5417    0.1875    0.0000 C    0  0  0  0  0  0  0  0  0  0  0  0
  2  1  1  0  0  0  0
  3  1  1  0  0  0  0
  4  3  1  0  0  0  0
  5 10  1  0  0  0  0
  6  5  3  0  0  0  0
  7 17  1  0  0  0  0
  8  2  1  0  0  0  0
  9  7  1  0  0  0  0
 10  9  1  0  0  0  0
 11  4  1  0  0  0  0
 12  2  2  0  0  0  0
 13  4  2  0  0  0  0
 14  7  2  0  0  0  0
 15  8  2  0  0  0  0
 16  8  1  0  0  0  0
 17 11  1  0  0  0  0
 18  3  1  0  0  0  0
 19 20  2  0  0  0  0
 19 21  1  0  0  0  0
 20 15  1  0  0  0  0
 21 16  2  0  0  0  0
 22 19  1  0  0  0  0
 23 10  1  0  0  0  0
 24 10  1  0  0  0  0
 25 18  1  0  0  0  0
 26 18  1  0  0  0  0
 27 23  1  0  0  0  0
 28 24  1  0  0  0  0
 29 25  1  0  0  0  0
M  END
> <CdId>
3793

> <Mol Weight>
420.93

> <Formula>
C22H29ClN2O4

> <Click_ID>
CLK049A10 __ __ 

$$$$
