CLK003_H07
 OpenBabel03181417552D

 38 43  0  0  0  0  0  0  0  0999 V2000
   -1.3815   -0.9798    0.0000 C   0  0  0  0  0  0  0  0  0  0  0  0
   -2.1041   -1.3886    0.0000 C   0  0  0  0  0  0  0  0  0  0  0  0
   -1.5684   -0.1727    0.0000 C   0  0  0  0  0  0  0  0  0  0  0  0
   -0.6872   -1.3992    0.0000 C   0  0  0  0  0  0  0  0  0  0  0  0
   -2.7103   -0.8247    0.0000 C   0  0  0  0  0  0  0  0  0  0  0  0
   -2.1182   -2.2063    0.0000 C   0  0  0  0  0  0  0  0  0  0  0  0
   -2.3508   -0.0846    0.0000 N   0  0  0  0  0  0  0  0  0  0  0  0
   -1.0116    0.4405    0.0000 O   0  0  0  0  0  0  0  0  0  0  0  0
   -0.6872   -2.2310    0.0000 C   0  0  0  0  0  0  0  0  0  0  0  0
   -3.5279   -0.9727    0.0000 O   0  0  0  0  0  0  0  0  0  0  0  0
   -1.4133   -2.6398    0.0000 C   0  0  0  0  0  0  0  0  0  0  0  0
   -2.8724    0.5534    0.0000 C   0  0  0  0  0  0  0  0  0  0  0  0
    0.7437   -2.2521    0.0000 C   0  0  0  0  0  0  0  0  0  0  0  0
   -3.5984    0.9375    0.0000 C   0  0  0  0  0  0  0  0  0  0  0  0
   -2.1675    0.9692    0.0000 C   0  0  0  0  0  0  0  0  0  0  0  0
    0.7578   -1.4204    0.0000 C   0  0  0  0  0  0  0  0  0  0  0  0
    1.4732   -2.6786    0.0000 C   0  0  0  0  0  0  0  0  0  0  0  0
   -3.6301    1.7551    0.0000 C   0  0  0  0  0  0  0  0  0  0  0  0
   -2.1816    1.7974    0.0000 C   0  0  0  0  0  0  0  0  0  0  0  0
    1.4803   -1.0116    0.0000 C   0  0  0  0  0  0  0  0  0  0  0  0
    2.1746   -2.2909    0.0000 C   0  0  0  0  0  0  0  0  0  0  0  0
   -2.9465    2.2063    0.0000 C   0  0  0  0  0  0  0  0  0  0  0  0
   -4.3526    2.1393    0.0000 C   0  0  0  0  0  0  0  0  0  0  0  0
    2.1887   -1.4344    0.0000 C   0  0  0  0  0  0  0  0  0  0  0  0
    1.6529   -0.2115    0.0000 C   0  0  0  0  0  0  0  0  0  0  0  0
   -5.0435    1.6952    0.0000 C   0  0  0  0  0  0  0  0  0  0  0  0
    2.7878   -0.8882    0.0000 C   0  0  0  0  0  0  0  0  0  0  0  0
    2.4635   -0.1339    0.0000 N   0  0  0  0  0  0  0  0  0  0  0  0
    1.1031    0.4194    0.0000 O   0  0  0  0  0  0  0  0  0  0  0  0
    3.6055   -1.0749    0.0000 O   0  0  0  0  0  0  0  0  0  0  0  0
    2.9429    0.5216    0.0000 C   0  0  0  0  0  0  0  0  0  0  0  0
    3.6266    0.9692    0.0000 C   0  0  0  0  0  0  0  0  0  0  0  0
    2.2098    0.8987    0.0000 C   0  0  0  0  0  0  0  0  0  0  0  0
    3.5949    1.7974    0.0000 C   0  0  0  0  0  0  0  0  0  0  0  0
    2.1746    1.7164    0.0000 C   0  0  0  0  0  0  0  0  0  0  0  0
    2.8724    2.1569    0.0000 C   0  0  0  0  0  0  0  0  0  0  0  0
    4.2716    2.2451    0.0000 C   0  0  0  0  0  0  0  0  0  0  0  0
    4.2187    3.0733    0.0000 C   0  0  0  0  0  0  0  0  0  0  0  0
  1  2  1  0  0  0  0
  1  3  1  0  0  0  0
  1  4  2  0  0  0  0
  2  5  1  0  0  0  0
  2  6  2  0  0  0  0
  3  7  1  0  0  0  0
  3  8  2  0  0  0  0
  4  9  1  0  0  0  0
  5 10  2  0  0  0  0
  5  7  1  0  0  0  0
  6 11  1  0  0  0  0
  7 12  1  0  0  0  0
  9 13  1  0  0  0  0
  9 11  2  0  0  0  0
 12 14  1  0  0  0  0
 12 15  2  0  0  0  0
 13 16  1  0  0  0  0
 13 17  2  0  0  0  0
 14 18  2  0  0  0  0
 15 19  1  0  0  0  0
 16 20  2  0  0  0  0
 17 21  1  0  0  0  0
 18 22  1  0  0  0  0
 18 23  1  0  0  0  0
 19 22  2  0  0  0  0
 20 24  1  0  0  0  0
 20 25  1  0  0  0  0
 21 24  2  0  0  0  0
 23 26  3  0  0  0  0
 24 27  1  0  0  0  0
 25 28  1  0  0  0  0
 25 29  2  0  0  0  0
 27 30  2  0  0  0  0
 27 28  1  0  0  0  0
 28 31  1  0  0  0  0
 31 32  2  0  0  0  0
 31 33  1  0  0  0  0
 32 34  1  0  0  0  0
 33 35  2  0  0  0  0
 34 36  2  0  0  0  0
 34 37  1  0  0  0  0
 35 36  1  0  0  0  0
 37 38  3  0  0  0  0
M  END
> <CdId>
236

> <Mol Weight>
492.4804

> <Formula>
C32H16N2O4

> <Click_ID>
CLK003_H07 __ __ 

$$$$
