CLK049A02
 OpenBabel03181417552D

 12 12  0  0  0  0  0  0  0  0999 V2000
    0.5959   -0.1417    0.0000 C    0  0  0  0  0  0  0  0  0  0  0  0
    0.6709    0.6793    0.0000 C    0  0  0  0  0  0  0  0  0  0  0  0
   -0.1125   -0.5668    0.0000 C    0  0  0  0  0  0  0  0  0  0  0  0
    1.4753    0.8627    0.0000 C    0  0  0  0  0  0  0  0  0  0  0  0
    1.3545   -0.4668    0.0000 C    0  0  0  0  0  0  0  0  0  0  0  0
    1.9004    0.1542    0.0000 O    0  0  0  0  0  0  0  0  0  0  0  0
   -2.2630   -0.1875    0.0000 C    0  0  0  0  0  0  0  0  0  0  0  0
   -2.9798    0.2167    0.0000 C    0  0  0  0  0  0  0  0  0  0  0  0
   -0.1000   -1.3920    0.0000 O    0  0  0  0  0  0  0  0  0  0  0  0
   -0.8335   -0.1625    0.0000 N    0  0  0  0  0  0  0  0  0  0  0  0
    1.8004    1.6211    0.0000 Br   0  0  0  0  0  0  0  0  0  0  0  0
   -1.5420   -0.5876    0.0000 C    0  0  0  0  0  0  0  0  0  0  0  0
  2  1  1  0  0  0  0
  3  1  1  0  0  0  0
  4  2  2  0  0  0  0
  5  1  2  0  0  0  0
  6  5  1  0  0  0  0
  6  4  1  0  0  0  0
  7 12  1  0  0  0  0
  8  7  3  0  0  0  0
  9  3  2  0  0  0  0
 10  3  1  0  0  0  0
 11  4  1  0  0  0  0
 12 10  1  0  0  0  0
M  END
> <CdId>
3729

> <Mol Weight>
228.043

> <Formula>
C8H6BrNO2

> <Click_ID>
CLK049A02 __ __ 

$$$$
