CLK013_A06
 OpenBabel03181417552D

 27 29  0  0  0  0  0  0  0  0999 V2000
    5.7957   -1.4104    0.0000 N    0  0  0  0  0  0  0  0  0  0  0  0
    5.6584   -2.2259    0.0000 C    0  0  0  0  0  0  0  0  0  0  0  0
    5.0593   -1.0277    0.0000 C    0  0  0  0  0  0  0  0  0  0  0  0
    4.4726   -1.6143    0.0000 C    0  0  0  0  0  0  0  0  0  0  0  0
    4.8471   -2.3508    0.0000 S    0  0  0  0  0  0  0  0  0  0  0  0
    3.6571   -1.4853    0.0000 C    0  0  0  0  0  0  0  0  0  0  0  0
    6.5279   -1.0402    0.0000 C    0  0  0  0  0  0  0  0  0  0  0  0
    6.2450   -2.8126    0.0000 S    0  0  0  0  0  0  0  0  0  0  0  0
    1.3522   -5.4545    0.0000 C    0  0  0  0  0  0  0  0  0  0  0  0
    0.8363   -6.0911    0.0000 C    0  0  0  0  0  0  0  0  0  0  0  0
    2.9124   -3.5323    0.0000 C    0  0  0  0  0  0  0  0  0  0  0  0
    4.9303   -0.2164    0.0000 O    0  0  0  0  0  0  0  0  0  0  0  0
    3.1371   -2.1219    0.0000 C    0  0  0  0  0  0  0  0  0  0  0  0
    3.4325   -2.8875    0.0000 C    0  0  0  0  0  0  0  0  0  0  0  0
    2.0969   -3.4075    0.0000 C    0  0  0  0  0  0  0  0  0  0  0  0
    1.8016   -2.6253    0.0000 C    0  0  0  0  0  0  0  0  0  0  0  0
    6.5696   -0.2164    0.0000 C    0  0  0  0  0  0  0  0  0  0  0  0
    3.1995   -4.2979    0.0000 Cl   0  0  0  0  0  0  0  0  0  0  0  0
    2.3133   -1.9888    0.0000 C    0  0  0  0  0  0  0  0  0  0  0  0
    1.5769   -4.0483    0.0000 O    0  0  0  0  0  0  0  0  0  0  0  0
    7.3060    0.1581    0.0000 C    0  0  0  0  0  0  0  0  0  0  0  0
    1.8723   -4.8179    0.0000 C    0  0  0  0  0  0  0  0  0  0  0  0
    7.9925   -0.2996    0.0000 C    0  0  0  0  0  0  0  0  0  0  0  0
    7.3434    0.9736    0.0000 C    0  0  0  0  0  0  0  0  0  0  0  0
    8.7289    0.0707    0.0000 C    0  0  0  0  0  0  0  0  0  0  0  0
    8.0881    1.3438    0.0000 C    0  0  0  0  0  0  0  0  0  0  0  0
    8.7788    0.8945    0.0000 C    0  0  0  0  0  0  0  0  0  0  0  0
  2  1  1  0  0  0  0
  3  1  1  0  0  0  0
  4  3  1  0  0  0  0
  5  2  1  0  0  0  0
  5  4  1  0  0  0  0
  6  4  2  0  0  0  0
  7  1  1  0  0  0  0
  8  2  2  0  0  0  0
  9 22  1  0  0  0  0
 10  9  3  0  0  0  0
 11 14  2  0  0  0  0
 12  3  2  0  0  0  0
 13  6  1  0  0  0  0
 14 13  1  0  0  0  0
 15 16  2  0  0  0  0
 15 11  1  0  0  0  0
 16 19  1  0  0  0  0
 17  7  1  0  0  0  0
 18 11  1  0  0  0  0
 19 13  2  0  0  0  0
 20 15  1  0  0  0  0
 21 17  1  0  0  0  0
 22 20  1  0  0  0  0
 23 21  2  0  0  0  0
 24 21  1  0  0  0  0
 25 23  1  0  0  0  0
 26 24  2  0  0  0  0
 27 26  1  0  0  0  0
 27 25  2  0  0  0  0
M  END
> <CdId>
921

> <Mol Weight>
413.94

> <Formula>
C21H16ClNO2S2

> <Click_ID>
CLK013_A06 __ __ 

$$$$
