CLK033_B09
 OpenBabel03181417552D

 32 35  0  0  0  0  0  0  0  0999 V2000
   -4.5644    2.5395    0.0000 C   0  0  0  0  0  0  0  0  0  0  0  0
   -0.9959    5.4318    0.0000 S   0  0  0  0  0  0  0  0  0  0  0  0
   -3.8549    2.9586    0.0000 N   0  0  0  0  0  0  0  0  0  0  0  0
   -4.6640    1.7262    0.0000 N   0  0  0  0  0  0  0  0  0  0  0  0
   -5.2989    2.8839    0.0000 S   0  0  0  0  0  0  0  0  0  0  0  0
   -5.4649    1.5685    0.0000 C   0  0  0  0  0  0  0  0  0  0  0  0
   -5.8715    2.2864    0.0000 C   0  0  0  0  0  0  0  0  0  0  0  0
   -3.8549    3.7844    0.0000 C   0  0  0  0  0  0  0  0  0  0  0  0
   -0.2739    5.8426    0.0000 N   0  0  0  0  0  0  0  0  0  0  0  0
   -1.7137    5.0210    0.0000 C   0  0  0  0  0  0  0  0  0  0  0  0
   -4.2325    0.3486    0.0000 C   0  0  0  0  0  0  0  0  0  0  0  0
   -0.5809    4.7097    0.0000 O   0  0  0  0  0  0  0  0  0  0  0  0
   -1.4067    6.1413    0.0000 O   0  0  0  0  0  0  0  0  0  0  0  0
   -4.4151   -0.4606    0.0000 C   0  0  0  0  0  0  0  0  0  0  0  0
   -3.1453    4.1952    0.0000 C   0  0  0  0  0  0  0  0  0  0  0  0
   -5.8882    0.8672    0.0000 C   0  0  0  0  0  0  0  0  0  0  0  0
   -4.5769    4.1869    0.0000 O   0  0  0  0  0  0  0  0  0  0  0  0
   -4.0458    1.1535    0.0000 C   0  0  0  0  0  0  0  0  0  0  0  0
   -1.7137    4.1952    0.0000 C   0  0  0  0  0  0  0  0  0  0  0  0
   -2.4233    5.4276    0.0000 C   0  0  0  0  0  0  0  0  0  0  0  0
   -2.4233    3.7926    0.0000 C   0  0  0  0  0  0  0  0  0  0  0  0
   -3.1370    5.0085    0.0000 C   0  0  0  0  0  0  0  0  0  0  0  0
   -6.6766    2.3030    0.0000 C   0  0  0  0  0  0  0  0  0  0  0  0
   -5.4981    0.1369    0.0000 O   0  0  0  0  0  0  0  0  0  0  0  0
   -0.1120    6.6517    0.0000 C   0  0  0  0  0  0  0  0  0  0  0  0
    0.4274    5.4442    0.0000 C   0  0  0  0  0  0  0  0  0  0  0  0
   -7.1123    1.6017    0.0000 C   0  0  0  0  0  0  0  0  0  0  0  0
   -6.7015    0.8797    0.0000 C   0  0  0  0  0  0  0  0  0  0  0  0
   -5.9213   -0.5644    0.0000 C   0  0  0  0  0  0  0  0  0  0  0  0
    0.7138    6.7389    0.0000 C   0  0  0  0  0  0  0  0  0  0  0  0
    1.0499    5.9919    0.0000 C   0  0  0  0  0  0  0  0  0  0  0  0
   -5.5396   -1.2739    0.0000 C   0  0  0  0  0  0  0  0  0  0  0  0
  2 10  1  0  0  0  0
  3  1  2  0  0  0  0
  4  1  1  0  0  0  0
  5  1  1  0  0  0  0
  6  4  1  0  0  0  0
  7  5  1  0  0  0  0
  7  6  2  0  0  0  0
  8  3  1  0  0  0  0
  9  2  1  0  0  0  0
 10 20  1  0  0  0  0
 10 19  2  0  0  0  0
 11 18  1  0  0  0  0
 12  2  2  0  0  0  0
 13  2  2  0  0  0  0
 14 11  3  0  0  0  0
 15  8  1  0  0  0  0
 16  6  1  0  0  0  0
 17  8  2  0  0  0  0
 18  4  1  0  0  0  0
 19 21  1  0  0  0  0
 20 22  2  0  0  0  0
 21 15  2  0  0  0  0
 22 15  1  0  0  0  0
 23  7  1  0  0  0  0
 24 16  1  0  0  0  0
 25  9  1  0  0  0  0
 26  9  1  0  0  0  0
 27 23  2  0  0  0  0
 28 16  2  0  0  0  0
 28 27  1  0  0  0  0
 29 24  1  0  0  0  0
 30 25  1  0  0  0  0
 31 26  1  0  0  0  0
 31 30  1  0  0  0  0
 32 29  1  0  0  0  0
M  END
> <CdId>
2503

> <Mol Weight>
469.576

> <Formula>
C23H23N3O4S2

> <Click_ID>
CLK033_B09 __ __ 

$$$$
