CLK003_C03
 OpenBabel03181417552D

 31 34  0  0  0  0  0  0  0  0999 V2000
    0.0874    0.3230    0.0000 C    0  0  3  0  0  0  0  0  0  0  0  0
    0.8131   -0.0798    0.0000 C    0  0  0  0  0  0  0  0  0  0  0  0
    0.0836    1.1437    0.0000 C    0  0  0  0  0  0  0  0  0  0  0  0
   -0.6194   -0.0950    0.0000 C    0  0  0  0  0  0  0  0  0  0  0  0
    1.5199    0.3458    0.0000 C    0  0  0  0  0  0  0  0  0  0  0  0
    0.8170   -0.8929    0.0000 C    0  0  0  0  0  0  0  0  0  0  0  0
    0.7903    1.5616    0.0000 C    0  0  0  0  0  0  0  0  0  0  0  0
   -0.6422    1.5464    0.0000 C    0  0  0  0  0  0  0  0  0  0  0  0
   -0.6079   -0.9233    0.0000 C    0  0  0  0  0  0  0  0  0  0  0  0
   -1.3451    0.3040    0.0000 C    0  0  0  0  0  0  0  0  0  0  0  0
    1.5047    1.1627    0.0000 N    0  0  0  0  0  0  0  0  0  0  0  0
    2.2342   -0.0532    0.0000 C    0  0  0  0  0  0  0  0  0  0  0  0
    1.5427   -1.3071    0.0000 C    0  0  0  0  0  0  0  0  0  0  0  0
    0.0988   -1.3299    0.0000 O    0  0  0  0  0  0  0  0  0  0  0  0
    0.7751    2.3977    0.0000 C    0  0  0  0  0  0  0  0  0  0  0  0
   -0.6459    2.3710    0.0000 C    0  0  0  0  0  0  0  0  0  0  0  0
   -1.3603    1.1323    0.0000 O    0  0  0  0  0  0  0  0  0  0  0  0
   -1.3186   -1.3489    0.0000 C    0  0  0  0  0  0  0  0  0  0  0  0
   -2.0519   -0.1215    0.0000 C    0  0  0  0  0  0  0  0  0  0  0  0
    2.2190    1.5883    0.0000 C    0  0  0  0  0  0  0  0  0  0  0  0
    2.2495   -0.8891    0.0000 C    0  0  0  0  0  0  0  0  0  0  0  0
    0.0532    2.7928    0.0000 C    0  0  0  0  0  0  0  0  0  0  0  0
   -2.0404   -0.9500    0.0000 C    0  0  0  0  0  0  0  0  0  0  0  0
   -1.3033   -2.1734    0.0000 Br   0  0  0  0  0  0  0  0  0  0  0  0
    2.9372    1.1856    0.0000 C    0  0  0  0  0  0  0  0  0  0  0  0
   -2.7510   -1.3717    0.0000 O    0  0  0  0  0  0  0  0  0  0  0  0
    3.6401    1.6111    0.0000 O    0  0  0  0  0  0  0  0  0  0  0  0
    2.9524    0.3610    0.0000 O    0  0  0  0  0  0  0  0  0  0  0  0
   -2.7358   -2.2038    0.0000 C    0  0  0  0  0  0  0  0  0  0  0  0
   -3.4540   -2.6256    0.0000 C    0  0  0  0  0  0  0  0  0  0  0  0
   -3.4388   -3.4577    0.0000 C    0  0  0  0  0  0  0  0  0  0  0  0
  1  2  1  0  0  0  0
  1  3  1  0  0  0  0
  1  4  1  0  0  0  0
  2  5  2  0  0  0  0
  2  6  1  0  0  0  0
  3  7  2  0  0  0  0
  3  8  1  0  0  0  0
  4  9  2  0  0  0  0
  4 10  1  0  0  0  0
  5 11  1  0  0  0  0
  5 12  1  0  0  0  0
  6 13  1  0  0  0  0
  6 14  2  0  0  0  0
  7 15  1  0  0  0  0
  7 11  1  0  0  0  0
  8 16  1  0  0  0  0
  8 17  2  0  0  0  0
  9 18  1  0  0  0  0
 10 19  2  0  0  0  0
 11 20  1  0  0  0  0
 12 21  1  0  0  0  0
 13 21  1  0  0  0  0
 15 22  1  0  0  0  0
 16 22  1  0  0  0  0
 18 23  2  0  0  0  0
 18 24  1  0  0  0  0
 19 23  1  0  0  0  0
 20 25  1  0  0  0  0
 23 26  1  0  0  0  0
 25 27  1  0  0  0  0
 25 28  2  0  0  0  0
 26 29  1  0  0  0  0
 29 30  1  0  0  0  0
 30 31  3  0  0  0  0
M  END
> <CdId>
182

> <Mol Weight>
484.339

> <Formula>
C24H22BrNO5

> <Click_ID>
CLK003_C03 __ __ 

$$$$
