CLK016_H08
 OpenBabel03181417552D

 26 28  0  0  0  0  0  0  0  0999 V2000
    1.5629   -0.8147    0.0000 N    0  0  0  0  0  0  0  0  0  0  0  0
    1.8205   -1.6003    0.0000 C    0  0  0  0  0  0  0  0  0  0  0  0
    2.8971   -0.8147    0.0000 C    0  0  0  0  0  0  0  0  0  0  0  0
    2.2320   -0.3284    0.0000 C    0  0  0  0  0  0  0  0  0  0  0  0
    2.6435   -1.6003    0.0000 S    0  0  0  0  0  0  0  0  0  0  0  0
    8.7826   -2.0699    0.0000 N    0  0  0  0  0  0  0  0  0  0  0  0
    5.4990   -1.6709    0.0000 C    0  0  0  0  0  0  0  0  0  0  0  0
    3.6827   -0.5611    0.0000 C    0  0  0  0  0  0  0  0  0  0  0  0
    6.3137   -1.7624    0.0000 C    0  0  0  0  0  0  0  0  0  0  0  0
    5.1042   -0.9519    0.0000 O    0  0  0  0  0  0  0  0  0  0  0  0
    4.2936   -1.1140    0.0000 C    0  0  0  0  0  0  0  0  0  0  0  0
    6.6462   -2.5313    0.0000 C    0  0  0  0  0  0  0  0  0  0  0  0
    7.9555   -1.9619    0.0000 C    0  0  0  0  0  0  0  0  0  0  0  0
    7.4609   -2.6310    0.0000 C    0  0  0  0  0  0  0  0  0  0  0  0
    4.9545   -2.2819    0.0000 C    0  0  0  0  0  0  0  0  0  0  0  0
    0.6110    0.2452    0.0000 C    0  0  0  0  0  0  0  0  0  0  0  0
    4.2064   -1.9494    0.0000 C    0  0  0  0  0  0  0  0  0  0  0  0
    6.8125   -1.1140    0.0000 C    0  0  0  0  0  0  0  0  0  0  0  0
    0.3907    1.0432    0.0000 C    0  0  0  0  0  0  0  0  0  0  0  0
    9.1026   -2.8223    0.0000 O    0  0  0  0  0  0  0  0  0  0  0  0
    1.3342   -2.2611    0.0000 O    0  0  0  0  0  0  0  0  0  0  0  0
    9.2689   -1.4008    0.0000 O    0  0  0  0  0  0  0  0  0  0  0  0
    2.2237    0.4946    0.0000 O    0  0  0  0  0  0  0  0  0  0  0  0
    0.7856   -0.5611    0.0000 C    0  0  0  0  0  0  0  0  0  0  0  0
    7.6354   -1.2012    0.0000 C    0  0  0  0  0  0  0  0  0  0  0  0
    6.1516   -3.1839    0.0000 Br   0  0  0  0  0  0  0  0  0  0  0  0
  2  1  1  0  0  0  0
  3  4  1  0  0  0  0
  4  1  1  0  0  0  0
  5  2  1  0  0  0  0
  5  3  1  0  0  0  0
  6 13  1  0  0  0  0
  7 10  1  0  0  0  0
  8  3  2  0  0  0  0
  9  7  1  0  0  0  0
 10 11  1  0  0  0  0
 11  8  1  0  0  0  0
 12  9  2  0  0  0  0
 13 25  1  0  0  0  0
 14 12  1  0  0  0  0
 14 13  2  0  0  0  0
 15 17  1  0  0  0  0
 15  7  2  0  0  0  0
 16 24  1  0  0  0  0
 17 11  2  0  0  0  0
 18  9  1  0  0  0  0
 19 16  3  0  0  0  0
 20  6  1  0  0  0  0
 21  2  2  0  0  0  0
 22  6  2  0  0  0  0
 23  4  2  0  0  0  0
 24  1  1  0  0  0  0
 25 18  2  0  0  0  0
 26 12  1  0  0  0  0
M  END
> <CdId>
1233

> <Mol Weight>
433.233

> <Formula>
C17H9BrN2O5S

> <Click_ID>
CLK016_H08 __ __ 

$$$$
