CLK038H03
 OpenBabel03181417552D

 29 31  0  0  0  0  0  0  0  0999 V2000
    0.1208    0.5583    0.0000 N   0  0  0  0  0  0  0  0  0  0  0  0
    0.1208    3.0333    0.0000 C   0  0  0  0  0  0  0  0  0  0  0  0
   -0.5917    0.1458    0.0000 C   0  0  3  0  0  0  0  0  0  0  0  0
   -0.5917    3.4458    0.0000 C   0  0  0  0  0  0  0  0  0  0  0  0
    0.1208   -3.5667    0.0000 C   0  0  0  0  0  0  0  0  0  0  0  0
    1.5500    0.5583    0.0000 C   0  0  0  0  0  0  0  0  0  0  0  0
    0.8375    0.1458    0.0000 C   0  0  0  0  0  0  0  0  0  0  0  0
   -0.5917   -0.6792    0.0000 C   0  0  0  0  0  0  0  0  0  0  0  0
   -0.5917   -3.1542    0.0000 O   0  0  0  0  0  0  0  0  0  0  0  0
    1.5500    1.3833    0.0000 C   0  0  0  0  0  0  0  0  0  0  0  0
   -1.3083    0.5583    0.0000 C   0  0  0  0  0  0  0  0  0  0  0  0
    0.1208   -1.0917    0.0000 C   0  0  0  0  0  0  0  0  0  0  0  0
   -1.3083   -1.0917    0.0000 C   0  0  0  0  0  0  0  0  0  0  0  0
   -0.5917   -2.3292    0.0000 C   0  0  0  0  0  0  0  0  0  0  0  0
    0.1208   -4.3917    0.0000 F   0  0  0  0  0  0  0  0  0  0  0  0
    0.8375   -3.1542    0.0000 F   0  0  0  0  0  0  0  0  0  0  0  0
    0.1208   -1.9167    0.0000 C   0  0  0  0  0  0  0  0  0  0  0  0
   -1.3083   -1.9167    0.0000 C   0  0  0  0  0  0  0  0  0  0  0  0
    0.8375    1.7958    0.0000 O   0  0  0  0  0  0  0  0  0  0  0  0
    0.8375    2.6208    0.0000 C   0  0  0  0  0  0  0  0  0  0  0  0
    2.2625    0.1458    0.0000 C   0  0  0  0  0  0  0  0  0  0  0  0
    2.2625    1.7958    0.0000 C   0  0  0  0  0  0  0  0  0  0  0  0
   -1.3083    1.3833    0.0000 C   0  0  0  0  0  0  0  0  0  0  0  0
   -2.0208    0.1458    0.0000 C   0  0  0  0  0  0  0  0  0  0  0  0
    2.9792    0.5583    0.0000 C   0  0  0  0  0  0  0  0  0  0  0  0
   -2.0208    1.7958    0.0000 C   0  0  0  0  0  0  0  0  0  0  0  0
   -2.7375    0.5583    0.0000 C   0  0  0  0  0  0  0  0  0  0  0  0
    2.9792    1.3833    0.0000 C   0  0  0  0  0  0  0  0  0  0  0  0
   -2.7375    1.3833    0.0000 C   0  0  0  0  0  0  0  0  0  0  0  0
  2 20  1  0  0  0  0
  3  1  1  0  0  0  0
  4  2  3  0  0  0  0
  5  9  1  0  0  0  0
  6  7  1  0  0  0  0
  7  1  1  0  0  0  0
  8  3  1  0  0  0  0
  9 14  1  0  0  0  0
 10  6  2  0  0  0  0
 11  3  1  0  0  0  0
 12  8  1  0  0  0  0
 13  8  2  0  0  0  0
 14 18  2  0  0  0  0
 15  5  1  0  0  0  0
 16  5  1  0  0  0  0
 17 12  2  0  0  0  0
 17 14  1  0  0  0  0
 18 13  1  0  0  0  0
 19 10  1  0  0  0  0
 20 19  1  0  0  0  0
 21  6  1  0  0  0  0
 22 10  1  0  0  0  0
 23 11  1  0  0  0  0
 24 11  2  0  0  0  0
 25 21  2  0  0  0  0
 26 23  2  0  0  0  0
 27 24  1  0  0  0  0
 28 22  2  0  0  0  0
 28 25  1  0  0  0  0
 29 27  2  0  0  0  0
 29 26  1  0  0  0  0
M  END
> <CdId>
2864

> <Mol Weight>
393.4258

> <Formula>
C24H21F2NO2

> <Click_ID>
CLK038H03 __ __ 

$$$$
