CLK017_C05
 OpenBabel03181417552D

 30 33  0  0  0  0  0  0  0  0999 V2000
    2.8292   -1.3042    0.0000 N   0  0  0  0  0  0  0  0  0  0  0  0
    1.4042   -1.3042    0.0000 C   0  0  0  0  0  0  0  0  0  0  0  0
    2.8292   -2.1292    0.0000 C   0  0  0  0  0  0  0  0  0  0  0  0
    2.1167   -0.8875    0.0000 C   0  0  0  0  0  0  0  0  0  0  0  0
    2.1167   -2.5375    0.0000 N   0  0  0  0  0  0  0  0  0  0  0  0
    1.4042   -2.1292    0.0000 C   0  0  0  0  0  0  0  0  0  0  0  0
   -0.0250   -1.3042    0.0000 C   0  0  0  0  0  0  0  0  0  0  0  0
    0.6917   -0.8917    0.0000 C   0  0  0  0  0  0  0  0  0  0  0  0
   -0.9333   -2.2917    0.0000 N   0  0  0  0  0  0  0  0  0  0  0  0
    3.5417   -0.8917    0.0000 C   0  0  0  0  0  0  0  0  0  0  0  0
   -0.1208   -2.1167    0.0000 C   0  0  0  0  0  0  0  0  0  0  0  0
   -0.7875   -0.9667    0.0000 C   0  0  0  0  0  0  0  0  0  0  0  0
   -1.3458   -1.5792    0.0000 C   0  0  0  0  0  0  0  0  0  0  0  0
    3.5417   -2.5417    0.0000 S   0  0  0  0  0  0  0  0  0  0  0  0
   -2.0875   -3.1292    0.0000 C   0  0  0  0  0  0  0  0  0  0  0  0
   -2.9083   -3.1667    0.0000 C   0  0  0  0  0  0  0  0  0  0  0  0
    2.1167   -0.0625    0.0000 O   0  0  0  0  0  0  0  0  0  0  0  0
    4.2542   -1.3125    0.0000 C   0  0  0  0  0  0  0  0  0  0  0  0
    3.5417   -0.0667    0.0000 C   0  0  0  0  0  0  0  0  0  0  0  0
    0.6917   -2.5417    0.0000 O   0  0  0  0  0  0  0  0  0  0  0  0
   -1.2625   -3.0542    0.0000 C   0  0  0  0  0  0  0  0  0  0  0  0
    4.2667    0.3375    0.0000 C   0  0  0  0  0  0  0  0  0  0  0  0
    4.9750   -0.9042    0.0000 C   0  0  0  0  0  0  0  0  0  0  0  0
    4.9792   -0.0792    0.0000 C   0  0  0  0  0  0  0  0  0  0  0  0
   -2.1458   -1.4042    0.0000 C   0  0  0  0  0  0  0  0  0  0  0  0
   -1.0333   -0.1792    0.0000 C   0  0  0  0  0  0  0  0  0  0  0  0
    5.6792   -1.3167    0.0000 C   0  0  0  0  0  0  0  0  0  0  0  0
    4.2667    1.1625    0.0000 C   0  0  0  0  0  0  0  0  0  0  0  0
   -1.8458   -0.0125    0.0000 C   0  0  0  0  0  0  0  0  0  0  0  0
   -2.3958   -0.6250    0.0000 C   0  0  0  0  0  0  0  0  0  0  0  0
  2  4  1  0  0  0  0
  3  1  1  0  0  0  0
  4  1  1  0  0  0  0
  5  3  1  0  0  0  0
  5  6  1  0  0  0  0
  6  2  1  0  0  0  0
  7  8  1  0  0  0  0
  8  2  2  0  0  0  0
  9 11  1  0  0  0  0
  9 13  1  0  0  0  0
 10  1  1  0  0  0  0
 11  7  2  0  0  0  0
 12  7  1  0  0  0  0
 13 12  1  0  0  0  0
 14  3  2  0  0  0  0
 15 21  1  0  0  0  0
 16 15  3  0  0  0  0
 17  4  2  0  0  0  0
 18 10  2  0  0  0  0
 19 10  1  0  0  0  0
 20  6  2  0  0  0  0
 21  9  1  0  0  0  0
 22 19  2  0  0  0  0
 23 18  1  0  0  0  0
 24 22  1  0  0  0  0
 24 23  2  0  0  0  0
 25 13  2  0  0  0  0
 25 30  1  0  0  0  0
 26 12  2  0  0  0  0
 27 23  1  0  0  0  0
 28 22  1  0  0  0  0
 29 26  1  0  0  0  0
 30 29  2  0  0  0  0
M  END
> <CdId>
1260

> <Mol Weight>
413.492

> <Formula>
C24H19N3O2S

> <Click_ID>
CLK017_C05 __ __ 

$$$$
