CLK051C05
 OpenBabel03181417552D

 20 21  0  0  0  0  0  0  0  0999 V2000
    1.0333   -0.1833    0.0000 C   0  0  0  0  0  0  0  0  0  0  0  0
    0.3208   -0.5958    0.0000 N   0  0  0  0  0  0  0  0  0  0  0  0
   -0.3958   -0.1833    0.0000 C   0  0  0  0  0  0  0  0  0  0  0  0
    3.1792   -0.5958    0.0000 C   0  0  0  0  0  0  0  0  0  0  0  0
    3.8917   -1.0083    0.0000 C   0  0  0  0  0  0  0  0  0  0  0  0
    1.0333    0.6417    0.0000 O   0  0  0  0  0  0  0  0  0  0  0  0
   -0.3958    0.6417    0.0000 C   0  0  0  0  0  0  0  0  0  0  0  0
   -1.1083   -0.5958    0.0000 C   0  0  0  0  0  0  0  0  0  0  0  0
    1.7500   -0.5958    0.0000 N   0  0  0  0  0  0  0  0  0  0  0  0
    2.4625   -0.1833    0.0000 C   0  0  0  0  0  0  0  0  0  0  0  0
   -1.1083    1.0542    0.0000 C   0  0  0  0  0  0  0  0  0  0  0  0
    0.3208    1.0542    0.0000 C   0  0  0  0  0  0  0  0  0  0  0  0
   -1.8250   -0.1833    0.0000 C   0  0  0  0  0  0  0  0  0  0  0  0
   -1.1083   -1.4208    0.0000 C   0  0  0  0  0  0  0  0  0  0  0  0
    0.3208    1.8792    0.0000 C   0  0  0  0  0  0  0  0  0  0  0  0
   -2.5375   -0.5958    0.0000 C   0  0  0  0  0  0  0  0  0  0  0  0
   -1.8250   -1.8333    0.0000 C   0  0  0  0  0  0  0  0  0  0  0  0
   -1.1083    1.8792    0.0000 C   0  0  0  0  0  0  0  0  0  0  0  0
   -0.3958    2.2917    0.0000 C   0  0  0  0  0  0  0  0  0  0  0  0
   -2.5375   -1.4208    0.0000 C   0  0  0  0  0  0  0  0  0  0  0  0
  2  1  1  0  0  0  0
  3  2  1  0  0  0  0
  4 10  1  0  0  0  0
  5  4  3  0  0  0  0
  6  1  2  0  0  0  0
  7  3  1  0  0  0  0
  8  3  1  0  0  0  0
  9  1  1  0  0  0  0
 10  9  1  0  0  0  0
 11  7  2  0  0  0  0
 12  7  1  0  0  0  0
 13  8  1  0  0  0  0
 14  8  2  0  0  0  0
 15 12  2  0  0  0  0
 16 13  2  0  0  0  0
 17 14  1  0  0  0  0
 18 11  1  0  0  0  0
 19 18  2  0  0  0  0
 19 15  1  0  0  0  0
 20 17  2  0  0  0  0
 20 16  1  0  0  0  0
M  END
> <CdId>
3915

> <Mol Weight>
264.3217

> <Formula>
C17H16N2O

> <Click_ID>
CLK051C05 __ __ 

$$$$
