CLK050A08
 OpenBabel03181417552D

 20 20  0  0  0  0  0  0  0  0999 V2000
   -0.2875   -1.7292    0.0000 C    0  0  0  0  0  0  0  0  0  0  0  0
    0.4250   -1.3167    0.0000 C    0  0  0  0  0  0  0  0  0  0  0  0
   -1.0042   -1.3167    0.0000 C    0  0  0  0  0  0  0  0  0  0  0  0
    1.8542    3.6333    0.0000 C    0  0  0  0  0  0  0  0  0  0  0  0
    2.5708    4.0417    0.0000 C    0  0  0  0  0  0  0  0  0  0  0  0
    0.4250    1.9833    0.0000 C    0  0  0  0  0  0  0  0  0  0  0  0
    0.4250    1.1583    0.0000 C    0  0  0  0  0  0  0  0  0  0  0  0
   -0.2875    0.7458    0.0000 C    0  0  0  0  0  0  0  0  0  0  0  0
   -0.2875   -0.0792    0.0000 C    0  0  0  0  0  0  0  0  0  0  0  0
    0.4250   -0.4917    0.0000 C    0  0  0  0  0  0  0  0  0  0  0  0
   -1.0042   -0.4917    0.0000 C    0  0  0  0  0  0  0  0  0  0  0  0
   -0.2875    2.3958    0.0000 O    0  0  0  0  0  0  0  0  0  0  0  0
    1.1417    2.3958    0.0000 N    0  0  0  0  0  0  0  0  0  0  0  0
    1.1417   -1.7292    0.0000 Cl   0  0  0  0  0  0  0  0  0  0  0  0
   -0.2875   -2.5542    0.0000 O    0  0  0  0  0  0  0  0  0  0  0  0
   -1.7167   -1.7292    0.0000 O    0  0  0  0  0  0  0  0  0  0  0  0
    1.1417    3.2208    0.0000 C    0  0  0  0  0  0  0  0  0  0  0  0
   -1.0042   -2.9667    0.0000 C    0  0  0  0  0  0  0  0  0  0  0  0
   -2.4333   -1.3167    0.0000 C    0  0  0  0  0  0  0  0  0  0  0  0
   -1.0042   -3.7917    0.0000 C    0  0  0  0  0  0  0  0  0  0  0  0
  2  1  1  0  0  0  0
  3  1  2  0  0  0  0
  4 17  1  0  0  0  0
  5  4  3  0  0  0  0
  6  7  1  0  0  0  0
  7  8  2  0  0  0  0
  8  9  1  0  0  0  0
  9 11  2  0  0  0  0
  9 10  1  0  0  0  0
 10  2  2  0  0  0  0
 11  3  1  0  0  0  0
 12  6  2  0  0  0  0
 13  6  1  0  0  0  0
 14  2  1  0  0  0  0
 15  1  1  0  0  0  0
 16  3  1  0  0  0  0
 17 13  1  0  0  0  0
 18 15  1  0  0  0  0
 19 16  1  0  0  0  0
 20 18  1  0  0  0  0
M  END
> <CdId>
3857

> <Mol Weight>
293.745

> <Formula>
C15H16ClNO3

> <Click_ID>
CLK050A08 __ __ 

$$$$
