CLK042C07
 OpenBabel03181417552D

 22 23  0  0  0  0  0  0  0  0999 V2000
   -0.5583    1.7833    0.0000 S   0  0  0  0  0  0  0  0  0  0  0  0
   -0.5583   -1.5167    0.0000 C   0  0  0  0  0  0  0  0  0  0  0  0
    0.1583   -1.9292    0.0000 N   0  0  0  0  0  0  0  0  0  0  0  0
   -0.5583    0.9583    0.0000 C   0  0  0  0  0  0  0  0  0  0  0  0
    0.1583    3.8458    0.0000 C   0  0  0  0  0  0  0  0  0  0  0  0
    0.1583    4.6667    0.0000 C   0  0  0  0  0  0  0  0  0  0  0  0
   -1.3833    1.7833    0.0000 O   0  0  0  0  0  0  0  0  0  0  0  0
    0.2667    1.7833    0.0000 O   0  0  0  0  0  0  0  0  0  0  0  0
   -0.5583   -0.6917    0.0000 C   0  0  0  0  0  0  0  0  0  0  0  0
   -0.5583    2.6083    0.0000 N   0  0  0  0  0  0  0  0  0  0  0  0
   -1.2708   -1.9292    0.0000 O   0  0  0  0  0  0  0  0  0  0  0  0
    0.1583    0.5458    0.0000 C   0  0  0  0  0  0  0  0  0  0  0  0
   -1.2708    0.5458    0.0000 C   0  0  0  0  0  0  0  0  0  0  0  0
    0.1583   -0.2792    0.0000 C   0  0  0  0  0  0  0  0  0  0  0  0
   -1.2708   -0.2792    0.0000 C   0  0  0  0  0  0  0  0  0  0  0  0
    0.1583    3.0208    0.0000 C   0  0  0  0  0  0  0  0  0  0  0  0
    0.8417   -1.4625    0.0000 C   0  0  0  0  0  0  0  0  0  0  0  0
    0.0958   -2.7500    0.0000 C   0  0  0  0  0  0  0  0  0  0  0  0
    0.7000   -3.3125    0.0000 C   0  0  0  0  0  0  0  0  0  0  0  0
    1.6292   -1.7083    0.0000 C   0  0  0  0  0  0  0  0  0  0  0  0
    1.9292   -2.4750    0.0000 C   0  0  0  0  0  0  0  0  0  0  0  0
    1.5167   -3.1875    0.0000 C   0  0  0  0  0  0  0  0  0  0  0  0
  2  9  1  0  0  0  0
  3  2  1  0  0  0  0
  4  1  1  0  0  0  0
  5 16  1  0  0  0  0
  6  5  3  0  0  0  0
  7  1  2  0  0  0  0
  8  1  2  0  0  0  0
  9 15  2  0  0  0  0
 10  1  1  0  0  0  0
 11  2  2  0  0  0  0
 12  4  1  0  0  0  0
 13  4  2  0  0  0  0
 14 12  2  0  0  0  0
 14  9  1  0  0  0  0
 15 13  1  0  0  0  0
 16 10  1  0  0  0  0
 17  3  1  0  0  0  0
 18  3  1  0  0  0  0
 19 18  1  0  0  0  0
 20 17  1  0  0  0  0
 21 20  1  0  0  0  0
 21 22  1  0  0  0  0
 22 19  1  0  0  0  0
M  END
> <CdId>
3211

> <Mol Weight>
320.407

> <Formula>
C16H20N2O3S

> <Click_ID>
CLK042C07 __ __ 

$$$$
