CLK038C02
 OpenBabel03181417552D

 31 34  0  0  0  0  0  0  0  0999 V2000
   -0.9078   -1.1369    0.0000 N    0  0  0  0  0  0  0  0  0  0  0  0
   -0.8204   -0.3165    0.0000 C    0  0  0  0  0  0  0  0  0  0  0  0
   -0.1541   -1.4742    0.0000 C    0  0  0  0  0  0  0  0  0  0  0  0
    0.3956   -0.8578    0.0000 C    0  0  0  0  0  0  0  0  0  0  0  0
   -0.0167   -0.1457    0.0000 S    0  0  0  0  0  0  0  0  0  0  0  0
    1.2160   -0.9453    0.0000 C    0  0  0  0  0  0  0  0  0  0  0  0
    2.6693    1.0536    0.0000 C    0  0  0  0  0  0  0  0  0  0  0  0
    3.0067    0.3040    0.0000 C    0  0  0  0  0  0  0  0  0  0  0  0
    1.8490    1.1411    0.0000 C    0  0  0  0  0  0  0  0  0  0  0  0
   -1.6241   -1.5492    0.0000 C    0  0  0  0  0  0  0  0  0  0  0  0
    1.7033   -0.2790    0.0000 C    0  0  0  0  0  0  0  0  0  0  0  0
   -1.4325    0.2332    0.0000 S    0  0  0  0  0  0  0  0  0  0  0  0
   -3.7646   -1.1369    0.0000 C    0  0  0  0  0  0  0  0  0  0  0  0
    4.4601    2.3029    0.0000 C    0  0  0  0  0  0  0  0  0  0  0  0
    4.9431    2.9692    0.0000 C    0  0  0  0  0  0  0  0  0  0  0  0
   -3.7646   -0.3123    0.0000 C    0  0  0  0  0  0  0  0  0  0  0  0
   -4.5475   -1.3909    0.0000 O    0  0  0  0  0  0  0  0  0  0  0  0
    0.0167   -2.2780    0.0000 O    0  0  0  0  0  0  0  0  0  0  0  0
    2.5236   -0.3665    0.0000 C    0  0  0  0  0  0  0  0  0  0  0  0
    1.3660    0.4747    0.0000 C    0  0  0  0  0  0  0  0  0  0  0  0
   -4.5475   -0.0583    0.0000 O    0  0  0  0  0  0  0  0  0  0  0  0
   -5.0347   -0.7246    0.0000 C    0  0  0  0  0  0  0  0  0  0  0  0
   -3.0483   -1.5492    0.0000 C    0  0  0  0  0  0  0  0  0  0  0  0
   -2.3362   -1.1369    0.0000 C    0  0  0  0  0  0  0  0  0  0  0  0
   -3.0483    0.0999    0.0000 C    0  0  0  0  0  0  0  0  0  0  0  0
    3.8271    0.2166    0.0000 Cl   0  0  0  0  0  0  0  0  0  0  0  0
    3.1566    1.7241    0.0000 O    0  0  0  0  0  0  0  0  0  0  0  0
   -2.3362   -0.3123    0.0000 C    0  0  0  0  0  0  0  0  0  0  0  0
    1.5159    1.8948    0.0000 O    0  0  0  0  0  0  0  0  0  0  0  0
    3.9770    1.6366    0.0000 C    0  0  0  0  0  0  0  0  0  0  0  0
    0.6954    1.9822    0.0000 C    0  0  0  0  0  0  0  0  0  0  0  0
  2  1  1  0  0  0  0
  3  1  1  0  0  0  0
  4  3  1  0  0  0  0
  5  2  1  0  0  0  0
  5  4  1  0  0  0  0
  6  4  2  0  0  0  0
  7  8  1  0  0  0  0
  7  9  2  0  0  0  0
  8 19  2  0  0  0  0
  9 20  1  0  0  0  0
 10  1  1  0  0  0  0
 11  6  1  0  0  0  0
 12  2  2  0  0  0  0
 13 23  1  0  0  0  0
 14 30  1  0  0  0  0
 15 14  3  0  0  0  0
 16 13  2  0  0  0  0
 16 25  1  0  0  0  0
 17 13  1  0  0  0  0
 18  3  2  0  0  0  0
 19 11  1  0  0  0  0
 20 11  2  0  0  0  0
 21 16  1  0  0  0  0
 22 17  1  0  0  0  0
 22 21  1  0  0  0  0
 23 24  2  0  0  0  0
 24 10  1  0  0  0  0
 25 28  2  0  0  0  0
 26  8  1  0  0  0  0
 27  7  1  0  0  0  0
 28 24  1  0  0  0  0
 29  9  1  0  0  0  0
 30 27  1  0  0  0  0
 31 29  1  0  0  0  0
M  END
> <CdId>
2851

> <Mol Weight>
473.949

> <Formula>
C22H16ClNO5S2

> <Click_ID>
CLK038C02 __ __ 

$$$$
