CLK038D11
 OpenBabel03181417552D

 27 29  0  0  0  0  0  0  0  0999 V2000
    1.0875    1.1042    0.0000 C   0  0  0  0  0  0  0  0  0  0  0  0
    0.3000    1.3583    0.0000 N   0  0  0  0  0  0  0  0  0  0  0  0
    0.3000    0.0250    0.0000 N   0  0  0  0  0  0  0  0  0  0  0  0
    1.0875    0.2792    0.0000 N   0  0  0  0  0  0  0  0  0  0  0  0
   -0.1833    0.6917    0.0000 C   0  0  0  0  0  0  0  0  0  0  0  0
   -1.8208   -1.8875    0.0000 C   0  0  0  0  0  0  0  0  0  0  0  0
    1.7542    1.5875    0.0000 C   0  0  0  0  0  0  0  0  0  0  0  0
    0.0458   -0.7625    0.0000 C   0  0  0  0  0  0  0  0  0  0  0  0
   -1.0167   -1.7167    0.0000 C   0  0  0  0  0  0  0  0  0  0  0  0
   -0.7625   -0.9333    0.0000 C   0  0  0  0  0  0  0  0  0  0  0  0
    3.9292    1.4042    0.0000 C   0  0  0  0  0  0  0  0  0  0  0  0
    4.6833    1.0667    0.0000 C   0  0  0  0  0  0  0  0  0  0  0  0
   -1.0083    0.6917    0.0000 C   0  0  0  0  0  0  0  0  0  0  0  0
    1.6667    2.4083    0.0000 O   0  0  0  0  0  0  0  0  0  0  0  0
   -1.9958   -1.0833    0.0000 F   0  0  0  0  0  0  0  0  0  0  0  0
   -2.6292   -2.0583    0.0000 F   0  0  0  0  0  0  0  0  0  0  0  0
   -1.6500   -2.6958    0.0000 F   0  0  0  0  0  0  0  0  0  0  0  0
    2.5083    1.2542    0.0000 N   0  0  0  0  0  0  0  0  0  0  0  0
    3.1750    1.7375    0.0000 C   0  0  0  0  0  0  0  0  0  0  0  0
    0.6000   -1.3750    0.0000 C   0  0  0  0  0  0  0  0  0  0  0  0
   -0.4625   -2.3292    0.0000 C   0  0  0  0  0  0  0  0  0  0  0  0
    0.3417   -2.1583    0.0000 C   0  0  0  0  0  0  0  0  0  0  0  0
   -1.4208    1.4042    0.0000 C   0  0  0  0  0  0  0  0  0  0  0  0
   -1.4208   -0.0250    0.0000 C   0  0  0  0  0  0  0  0  0  0  0  0
   -2.2458   -0.0250    0.0000 C   0  0  0  0  0  0  0  0  0  0  0  0
   -2.2458    1.4042    0.0000 C   0  0  0  0  0  0  0  0  0  0  0  0
   -2.6583    0.6917    0.0000 C   0  0  0  0  0  0  0  0  0  0  0  0
  2  1  1  0  0  0  0
  3  4  1  0  0  0  0
  4  1  2  0  0  0  0
  5  2  2  0  0  0  0
  5  3  1  0  0  0  0
  6  9  1  0  0  0  0
  7  1  1  0  0  0  0
  8  3  1  0  0  0  0
  9 10  2  0  0  0  0
 10  8  1  0  0  0  0
 11 19  1  0  0  0  0
 12 11  3  0  0  0  0
 13  5  1  0  0  0  0
 14  7  2  0  0  0  0
 15  6  1  0  0  0  0
 16  6  1  0  0  0  0
 17  6  1  0  0  0  0
 18  7  1  0  0  0  0
 19 18  1  0  0  0  0
 20  8  2  0  0  0  0
 21  9  1  0  0  0  0
 22 20  1  0  0  0  0
 22 21  2  0  0  0  0
 23 13  1  0  0  0  0
 24 13  2  0  0  0  0
 25 24  1  0  0  0  0
 26 23  2  0  0  0  0
 27 25  2  0  0  0  0
 27 26  1  0  0  0  0
M  END
> <CdId>
2924

> <Mol Weight>
370.3279

> <Formula>
C19H13F3N4O

> <Click_ID>
CLK038D11 __ __ 

$$$$
