CLK044A07
 OpenBabel03181417552D

 14 14  0  0  0  0  0  0  0  0999 V2000
    0.1000   -0.4125    0.0000 C    0  0  0  0  0  0  0  0  0  0  0  0
   -0.6125    0.0000    0.0000 C    0  0  0  0  0  0  0  0  0  0  0  0
   -1.3292    2.0625    0.0000 C    0  0  0  0  0  0  0  0  0  0  0  0
   -1.3292    2.8917    0.0000 C    0  0  0  0  0  0  0  0  0  0  0  0
    0.8125    0.0000    0.0000 C    0  0  0  0  0  0  0  0  0  0  0  0
    0.1000   -1.2375    0.0000 C    0  0  0  0  0  0  0  0  0  0  0  0
   -1.3292   -0.4125    0.0000 O    0  0  0  0  0  0  0  0  0  0  0  0
   -0.6125    0.8250    0.0000 N    0  0  0  0  0  0  0  0  0  0  0  0
    1.5292   -0.4125    0.0000 C    0  0  0  0  0  0  0  0  0  0  0  0
    0.8125   -1.6500    0.0000 C    0  0  0  0  0  0  0  0  0  0  0  0
    0.8125    0.8250    0.0000 Br   0  0  0  0  0  0  0  0  0  0  0  0
    1.5292   -1.2375    0.0000 C    0  0  0  0  0  0  0  0  0  0  0  0
    0.8125   -2.4750    0.0000 F    0  0  0  0  0  0  0  0  0  0  0  0
   -1.3292    1.2375    0.0000 C    0  0  0  0  0  0  0  0  0  0  0  0
  2  1  1  0  0  0  0
  3 14  1  0  0  0  0
  4  3  3  0  0  0  0
  5  1  2  0  0  0  0
  6  1  1  0  0  0  0
  7  2  2  0  0  0  0
  8  2  1  0  0  0  0
  9  5  1  0  0  0  0
  9 12  2  0  0  0  0
 10  6  2  0  0  0  0
 11  5  1  0  0  0  0
 12 10  1  0  0  0  0
 13 10  1  0  0  0  0
 14  8  1  0  0  0  0
M  END
> <CdId>
3369

> <Mol Weight>
256.071

> <Formula>
C10H7BrFNO

> <Click_ID>
CLK044A07 __ __ 

$$$$
