CLK026_F04
 OpenBabel03181417552D

 11  9  0  0  0  0  0  0  0  0999 V2000
    1.0966   -0.5947    0.0000 C   0  0  0  0  0  0  0  0  0  0  0  0
    1.8115   -0.1718    0.0000 O   0  0  0  0  0  0  0  0  0  0  0  0
    1.0966   -1.4163    0.0000 C   0  0  0  0  0  0  0  0  0  0  0  0
    0.3816   -0.1718    0.0000 C   0  0  0  0  0  0  0  0  0  0  0  0
    1.4988   -1.3062    0.0000 C   0  0  0  0  0  0  0  0  0  0  0  0
   -0.2750    0.1753    0.0000 C   0  0  0  0  0  0  0  0  0  0  0  0
    0.4366   -0.2269    0.0000 C   0  0  0  0  0  0  0  0  0  0  0  0
   -0.9900    0.5981    0.0000 C   0  0  0  0  0  0  0  0  0  0  0  0
   -0.9900    1.4197    0.0000 O   0  0  0  0  0  0  0  0  0  0  0  0
   -1.8150    0.5981    0.0000 C   0  0  0  0  0  0  0  0  0  0  0  0
   -1.7050    0.1753    0.0000 C   0  0  0  0  0  0  0  0  0  0  0  0
  2  1  1  0  0  0  0
  3  1  1  0  0  0  0
  4  1  1  0  0  0  0
  5  1  1  0  0  0  0
  7  6  3  0  0  0  0
  8  6  1  0  0  0  0
  9  8  1  0  0  0  0
 10  8  1  0  0  0  0
 11  8  1  0  0  0  0
M  END
> <CdId>
1989

> <Mol Weight>
158.238

> <Formula>
C9H18O2

> <Click_ID>
CLK026_F04 __ __ 

$$$$
