CLK022_E07
 OpenBabel03181417552D

 19 20  0  0  0  0  0  0  0  0999 V2000
    3.9028    1.5483    0.0000 C   0  0  0  0  0  0  0  0  0  0  0  0
    3.4906    2.2629    0.0000 N   0  0  0  0  0  0  0  0  0  0  0  0
    8.4378    0.8337    0.0000 C   0  0  0  0  0  0  0  0  0  0  0  0
    9.2624    0.8337    0.0000 C   0  0  0  0  0  0  0  0  0  0  0  0
    4.7274    1.5483    0.0000 C   0  0  0  0  0  0  0  0  0  0  0  0
    3.4906    0.8337    0.0000 O   0  0  0  0  0  0  0  0  0  0  0  0
    5.1396    0.8337    0.0000 C   0  0  0  0  0  0  0  0  0  0  0  0
    5.1396    2.2629    0.0000 C   0  0  0  0  0  0  0  0  0  0  0  0
    2.6660    2.2629    0.0000 C   0  0  0  0  0  0  0  0  0  0  0  0
    6.3765    1.5483    0.0000 C   0  0  0  0  0  0  0  0  0  0  0  0
    5.9642    2.2629    0.0000 C   0  0  0  0  0  0  0  0  0  0  0  0
    5.9642    0.8337    0.0000 C   0  0  0  0  0  0  0  0  0  0  0  0
    7.6133    0.8337    0.0000 C   0  0  0  0  0  0  0  0  0  0  0  0
    7.2010    1.5483    0.0000 O   0  0  0  0  0  0  0  0  0  0  0  0
    2.2537    2.9775    0.0000 C   0  0  0  0  0  0  0  0  0  0  0  0
    2.2537    1.5483    0.0000 C   0  0  0  0  0  0  0  0  0  0  0  0
    1.4292    1.5483    0.0000 C   0  0  0  0  0  0  0  0  0  0  0  0
    1.4292    2.9775    0.0000 C   0  0  0  0  0  0  0  0  0  0  0  0
    1.0169    2.2629    0.0000 C   0  0  0  0  0  0  0  0  0  0  0  0
  2  1  1  0  0  0  0
  3 13  1  0  0  0  0
  4  3  3  0  0  0  0
  5  1  1  0  0  0  0
  6  1  2  0  0  0  0
  7  5  2  0  0  0  0
  8  5  1  0  0  0  0
  9  2  1  0  0  0  0
 10 11  1  0  0  0  0
 10 12  2  0  0  0  0
 11  8  2  0  0  0  0
 12  7  1  0  0  0  0
 13 14  1  0  0  0  0
 14 10  1  0  0  0  0
 15  9  2  0  0  0  0
 16  9  1  0  0  0  0
 17 16  2  0  0  0  0
 18 15  1  0  0  0  0
 19 17  1  0  0  0  0
 19 18  2  0  0  0  0
M  END
> <CdId>
1674

> <Mol Weight>
251.2799

> <Formula>
C16H13NO2

> <Click_ID>
CLK022_E07 __ __ 

$$$$
