CLK011_E04
 OpenBabel03181417552D

 23 24  0  0  0  0  0  0  0  0999 V2000
    2.7164    0.4520    0.0000 N    0  0  0  0  0  0  0  0  0  0  0  0
    2.4527   -0.3390    0.0000 C    0  0  0  0  0  0  0  0  0  0  0  0
    2.0467    0.9375    0.0000 C    0  0  0  0  0  0  0  0  0  0  0  0
    1.3729    0.4520    0.0000 C    0  0  0  0  0  0  0  0  0  0  0  0
    1.6323   -0.3390    0.0000 S    0  0  0  0  0  0  0  0  0  0  0  0
    0.5901    0.7115    0.0000 C    0  0  0  0  0  0  0  0  0  0  0  0
   -1.2389   -0.9585    0.0000 C    0  0  0  0  0  0  0  0  0  0  0  0
   -1.4063   -0.1507    0.0000 C    0  0  0  0  0  0  0  0  0  0  0  0
   -0.4604   -1.2096    0.0000 C    0  0  0  0  0  0  0  0  0  0  0  0
   -0.0209    0.1507    0.0000 C    0  0  0  0  0  0  0  0  0  0  0  0
   -3.2604   -1.7872    0.0000 C    0  0  0  0  0  0  0  0  0  0  0  0
   -3.8757   -2.3397    0.0000 C    0  0  0  0  0  0  0  0  0  0  0  0
    2.9424   -1.0087    0.0000 O    0  0  0  0  0  0  0  0  0  0  0  0
   -0.7994    0.4018    0.0000 C    0  0  0  0  0  0  0  0  0  0  0  0
    2.0384    1.7662    0.0000 O    0  0  0  0  0  0  0  0  0  0  0  0
    0.1549   -0.6572    0.0000 C    0  0  0  0  0  0  0  0  0  0  0  0
    3.5074    0.7115    0.0000 C    0  0  0  0  0  0  0  0  0  0  0  0
   -2.1931    0.1088    0.0000 Br   0  0  0  0  0  0  0  0  0  0  0  0
   -1.8583   -1.4984    0.0000 O    0  0  0  0  0  0  0  0  0  0  0  0
   -0.2971   -2.0090    0.0000 O    0  0  0  0  0  0  0  0  0  0  0  0
   -2.6452   -1.2473    0.0000 C    0  0  0  0  0  0  0  0  0  0  0  0
    0.4897   -2.2601    0.0000 C    0  0  0  0  0  0  0  0  0  0  0  0
    0.6572   -3.0638    0.0000 C    0  0  0  0  0  0  0  0  0  0  0  0
  2  1  1  0  0  0  0
  3  1  1  0  0  0  0
  4  3  1  0  0  0  0
  5  2  1  0  0  0  0
  5  4  1  0  0  0  0
  6  4  2  0  0  0  0
  7  9  2  0  0  0  0
  7  8  1  0  0  0  0
  8 14  2  0  0  0  0
  9 16  1  0  0  0  0
 10  6  1  0  0  0  0
 11 21  1  0  0  0  0
 12 11  3  0  0  0  0
 13  2  2  0  0  0  0
 14 10  1  0  0  0  0
 15  3  2  0  0  0  0
 16 10  2  0  0  0  0
 17  1  1  0  0  0  0
 18  8  1  0  0  0  0
 19  7  1  0  0  0  0
 20  9  1  0  0  0  0
 21 19  1  0  0  0  0
 22 20  1  0  0  0  0
 23 22  1  0  0  0  0
M  END
> <CdId>
799

> <Mol Weight>
396.256

> <Formula>
C16H14BrNO4S

> <Click_ID>
CLK011_E04 __ __ 

$$$$
