CLK040B11
 OpenBabel03181417552D

 22 24  0  0  0  0  0  0  0  0999 V2000
    0.8792   -1.6458    0.0000 C   0  0  0  0  0  0  0  0  0  0  0  0
    0.3917   -0.9750    0.0000 C   0  0  0  0  0  0  0  0  0  0  0  0
   -0.3917   -2.0583    0.0000 C   0  0  0  0  0  0  0  0  0  0  0  0
   -0.3917   -1.2333    0.0000 C   0  0  0  0  0  0  0  0  0  0  0  0
    0.3917   -2.3125    0.0000 S   0  0  0  0  0  0  0  0  0  0  0  0
    0.7292   -0.2208    0.0000 C   0  0  0  0  0  0  0  0  0  0  0  0
    1.7000   -1.5583    0.0000 N   0  0  0  0  0  0  0  0  0  0  0  0
    1.5500   -0.1375    0.0000 N   0  0  0  0  0  0  0  0  0  0  0  0
   -1.1083   -0.8208    0.0000 C   0  0  0  0  0  0  0  0  0  0  0  0
    0.2792    4.0375    0.0000 C   0  0  0  0  0  0  0  0  0  0  0  0
    0.6167    4.7917    0.0000 C   0  0  0  0  0  0  0  0  0  0  0  0
    0.2417    0.4458    0.0000 S   0  0  0  0  0  0  0  0  0  0  0  0
    2.0333   -0.8042    0.0000 C   0  0  0  0  0  0  0  0  0  0  0  0
   -1.1083   -2.4708    0.0000 C   0  0  0  0  0  0  0  0  0  0  0  0
    0.0958    1.8667    0.0000 C   0  0  0  0  0  0  0  0  0  0  0  0
   -0.7250    1.7792    0.0000 O   0  0  0  0  0  0  0  0  0  0  0  0
    0.5792    1.2000    0.0000 C   0  0  0  0  0  0  0  0  0  0  0  0
    0.4292    2.6208    0.0000 N   0  0  0  0  0  0  0  0  0  0  0  0
   -1.8208   -1.2333    0.0000 C   0  0  0  0  0  0  0  0  0  0  0  0
   -1.8208   -2.0583    0.0000 C   0  0  3  0  0  0  0  0  0  0  0  0
   -0.0542    3.2875    0.0000 C   0  0  0  0  0  0  0  0  0  0  0  0
   -2.5375   -2.4708    0.0000 C   0  0  0  0  0  0  0  0  0  0  0  0
  2  1  2  0  0  0  0
  3  5  1  0  0  0  0
  3  4  2  0  0  0  0
  4  2  1  0  0  0  0
  5  1  1  0  0  0  0
  6  2  1  0  0  0  0
  7  1  1  0  0  0  0
  8  6  2  0  0  0  0
  8 13  1  0  0  0  0
  9  4  1  0  0  0  0
 10 21  1  0  0  0  0
 11 10  3  0  0  0  0
 12  6  1  0  0  0  0
 13  7  2  0  0  0  0
 14  3  1  0  0  0  0
 15 17  1  0  0  0  0
 16 15  2  0  0  0  0
 17 12  1  0  0  0  0
 18 15  1  0  0  0  0
 19  9  1  0  0  0  0
 19 20  1  0  0  0  0
 20 14  1  0  0  0  0
 21 18  1  0  0  0  0
 22 20  1  0  0  0  0
M  END
> <CdId>
3082

> <Mol Weight>
331.456

> <Formula>
C16H17N3OS2

> <Click_ID>
CLK040B11 __ __ 

$$$$
