CLK009_F03
 OpenBabel03181417552D

 19 19  0  0  0  0  0  0  0  0999 V2000
    3.2693    0.4128    0.0000 C   0  0  0  0  0  0  0  0  0  0  0  0
    3.9906    0.8131    0.0000 C   0  0  0  0  0  0  0  0  0  0  0  0
   -1.7139    0.0709    0.0000 C   0  0  0  0  0  0  0  0  0  0  0  0
    1.1509    0.0333    0.0000 C   0  0  0  0  0  0  0  0  0  0  0  0
   -2.4144    0.4962    0.0000 N   0  0  0  0  0  0  0  0  0  0  0  0
   -1.7139   -0.7673    0.0000 O   0  0  0  0  0  0  0  0  0  0  0  0
    1.1509   -0.8173    0.0000 O   0  0  0  0  0  0  0  0  0  0  0  0
   -3.1525    0.0709    0.0000 C   0  0  0  0  0  0  0  0  0  0  0  0
    1.8515    0.4336    0.0000 O   0  0  0  0  0  0  0  0  0  0  0  0
   -3.8739    0.4629    0.0000 C   0  0  0  0  0  0  0  0  0  0  0  0
    2.5687    0.0125    0.0000 C   0  0  0  0  0  0  0  0  0  0  0  0
   -0.9966    0.4712    0.0000 C   0  0  0  0  0  0  0  0  0  0  0  0
    0.4295    0.4504    0.0000 C   0  0  0  0  0  0  0  0  0  0  0  0
   -0.2960    0.0500    0.0000 C   0  0  0  0  0  0  0  0  0  0  0  0
   -3.8739    1.2843    0.0000 C   0  0  0  0  0  0  0  0  0  0  0  0
   -4.5869    0.0333    0.0000 C   0  0  0  0  0  0  0  0  0  0  0  0
   -5.3042    0.4504    0.0000 C   0  0  0  0  0  0  0  0  0  0  0  0
   -4.6036    1.6971    0.0000 C   0  0  0  0  0  0  0  0  0  0  0  0
   -5.3167    1.2635    0.0000 C   0  0  0  0  0  0  0  0  0  0  0  0
  2  1  3  0  0  0  0
  3 12  1  0  0  0  0
  4  9  1  0  0  0  0
  5  3  1  0  0  0  0
  6  3  2  0  0  0  0
  7  4  2  0  0  0  0
  8  5  1  0  0  0  0
  9 11  1  0  0  0  0
 10  8  1  0  0  0  0
 11  1  1  0  0  0  0
 12 14  1  0  0  0  0
 13  4  1  0  0  0  0
 14 13  1  0  0  0  0
 15 10  2  0  0  0  0
 16 10  1  0  0  0  0
 17 16  2  0  0  0  0
 18 15  1  0  0  0  0
 19 17  1  0  0  0  0
 19 18  2  0  0  0  0
M  END
> <CdId>
648

> <Mol Weight>
259.3004

> <Formula>
C15H17NO3

> <Click_ID>
CLK009_F03 __ __ 

$$$$
