CLK004_C08
 OpenBabel03181417552D

 31 33  0  0  0  0  0  0  0  0999 V2000
    1.1108   -0.6414    0.0000 N   0  0  0  0  0  0  0  0  0  0  0  0
    0.2893   -0.7325    0.0000 C   0  0  3  0  0  0  0  0  0  0  0  0
    1.4447    0.1113    0.0000 C   0  0  0  0  0  0  0  0  0  0  0  0
    1.5944   -1.3071    0.0000 C   0  0  0  0  0  0  0  0  0  0  0  0
   -0.0445   -1.4791    0.0000 C   0  0  0  0  0  0  0  0  0  0  0  0
   -0.2003   -0.0647    0.0000 C   0  0  0  0  0  0  0  0  0  0  0  0
    0.9550    0.7790    0.0000 C   0  0  0  0  0  0  0  0  0  0  0  0
    2.2621    0.1963    0.0000 C   0  0  0  0  0  0  0  0  0  0  0  0
    2.4179   -1.2181    0.0000 C   0  0  0  0  0  0  0  0  0  0  0  0
    1.2625   -2.0618    0.0000 O   0  0  0  0  0  0  0  0  0  0  0  0
   -0.8539   -1.6551    0.0000 C   0  0  0  0  0  0  0  0  0  0  0  0
    0.3683   -2.1933    0.0000 S   0  0  0  0  0  0  0  0  0  0  0  0
   -1.0177   -0.1497    0.0000 N   0  0  0  0  0  0  0  0  0  0  0  0
    0.1376    0.6920    0.0000 O   0  0  0  0  0  0  0  0  0  0  0  0
    1.2929    1.5316    0.0000 C   0  0  0  0  0  0  0  0  0  0  0  0
    2.6000    0.9530    0.0000 C   0  0  0  0  0  0  0  0  0  0  0  0
    3.2394   -1.1290    0.0000 C   0  0  0  0  0  0  0  0  0  0  0  0
   -0.9348   -2.4766    0.0000 C   0  0  0  0  0  0  0  0  0  0  0  0
   -0.1821   -2.8104    0.0000 C   0  0  0  0  0  0  0  0  0  0  0  0
   -1.5074    0.5180    0.0000 C   0  0  0  0  0  0  0  0  0  0  0  0
    2.1104    1.6207    0.0000 C   0  0  0  0  0  0  0  0  0  0  0  0
    0.8033    2.1973    0.0000 C   0  0  0  0  0  0  0  0  0  0  0  0
   -2.3248    0.4289    0.0000 C   0  0  0  0  0  0  0  0  0  0  0  0
    0.2125    2.7740    0.0000 F   0  0  0  0  0  0  0  0  0  0  0  0
    0.1861    1.6591    0.0000 F   0  0  0  0  0  0  0  0  0  0  0  0
    1.3253    2.8428    0.0000 F   0  0  0  0  0  0  0  0  0  0  0  0
   -2.8124    1.0906    0.0000 C   0  0  0  0  0  0  0  0  0  0  0  0
   -2.6566   -0.3258    0.0000 C   0  0  0  0  0  0  0  0  0  0  0  0
   -3.6319    1.0076    0.0000 C   0  0  0  0  0  0  0  0  0  0  0  0
   -3.4801   -0.4148    0.0000 C   0  0  0  0  0  0  0  0  0  0  0  0
   -3.9637    0.2529    0.0000 C   0  0  0  0  0  0  0  0  0  0  0  0
  1  2  1  0  0  0  0
  1  3  1  0  0  0  0
  1  4  1  0  0  0  0
  2  5  1  0  0  0  0
  2  6  1  0  0  0  0
  3  7  1  0  0  0  0
  3  8  2  0  0  0  0
  4  9  1  0  0  0  0
  4 10  2  0  0  0  0
  5 11  2  0  0  0  0
  5 12  1  0  0  0  0
  6 13  1  0  0  0  0
  6 14  2  0  0  0  0
  7 15  2  0  0  0  0
  8 16  1  0  0  0  0
  9 17  3  0  0  0  0
 11 18  1  0  0  0  0
 12 19  1  0  0  0  0
 13 20  1  0  0  0  0
 15 21  1  0  0  0  0
 15 22  1  0  0  0  0
 16 21  2  0  0  0  0
 18 19  2  0  0  0  0
 20 23  1  0  0  0  0
 22 24  1  0  0  0  0
 22 25  1  0  0  0  0
 22 26  1  0  0  0  0
 23 27  2  0  0  0  0
 23 28  1  0  0  0  0
 27 29  1  0  0  0  0
 28 30  2  0  0  0  0
 29 31  2  0  0  0  0
 30 31  1  0  0  0  0
M  END
> <CdId>
267

> <Mol Weight>
442.453

> <Formula>
C23H17F3N2O2S

> <Click_ID>
CLK004_C08 __ __ 

$$$$
