CLK039H02
 OpenBabel03181417552D

 17 18  0  0  0  0  0  0  0  0999 V2000
   -0.4333   -0.5458    0.0000 C   0  0  0  0  0  0  0  0  0  0  0  0
   -0.9167    0.1250    0.0000 N   0  0  0  0  0  0  0  0  0  0  0  0
   -0.9167   -1.2125    0.0000 S   0  0  0  0  0  0  0  0  0  0  0  0
   -1.7042   -0.1333    0.0000 C   0  0  0  0  0  0  0  0  0  0  0  0
   -1.7042   -0.9583    0.0000 C   0  0  0  0  0  0  0  0  0  0  0  0
    3.2792    1.6000    0.0000 C   0  0  0  0  0  0  0  0  0  0  0  0
    3.6917    2.3125    0.0000 C   0  0  0  0  0  0  0  0  0  0  0  0
    0.3917   -0.5458    0.0000 S   0  0  0  0  0  0  0  0  0  0  0  0
    1.6292    0.1708    0.0000 C   0  0  0  0  0  0  0  0  0  0  0  0
    2.0417   -0.5458    0.0000 O   0  0  0  0  0  0  0  0  0  0  0  0
    0.8042    0.1708    0.0000 C   0  0  0  0  0  0  0  0  0  0  0  0
    2.0417    0.8833    0.0000 N   0  0  0  0  0  0  0  0  0  0  0  0
    2.8667    0.8833    0.0000 C   0  0  0  0  0  0  0  0  0  0  0  0
   -2.4167    0.2792    0.0000 C   0  0  0  0  0  0  0  0  0  0  0  0
   -2.4167   -1.3708    0.0000 C   0  0  0  0  0  0  0  0  0  0  0  0
   -3.1333   -0.9583    0.0000 C   0  0  0  0  0  0  0  0  0  0  0  0
   -3.1333   -0.1333    0.0000 C   0  0  0  0  0  0  0  0  0  0  0  0
  2  1  2  0  0  0  0
  3  1  1  0  0  0  0
  4  2  1  0  0  0  0
  5  3  1  0  0  0  0
  5  4  2  0  0  0  0
  6 13  1  0  0  0  0
  7  6  3  0  0  0  0
  8  1  1  0  0  0  0
  9 11  1  0  0  0  0
 10  9  2  0  0  0  0
 11  8  1  0  0  0  0
 12  9  1  0  0  0  0
 13 12  1  0  0  0  0
 14  4  1  0  0  0  0
 15  5  1  0  0  0  0
 16 15  2  0  0  0  0
 16 17  1  0  0  0  0
 17 14  2  0  0  0  0
M  END
> <CdId>
2936

> <Mol Weight>
262.351

> <Formula>
C12H10N2OS2

> <Click_ID>
CLK039H02 __ __ 

$$$$
