CLK034_D08
 OpenBabel03181417552D

 30 33  0  0  0  0  0  0  0  0999 V2000
   -4.5776    2.5468    0.0000 C   0  0  0  0  0  0  0  0  0  0  0  0
   -3.8660    2.9671    0.0000 N   0  0  0  0  0  0  0  0  0  0  0  0
   -4.6692    1.7312    0.0000 N   0  0  0  0  0  0  0  0  0  0  0  0
   -5.3142    2.8922    0.0000 S   0  0  0  0  0  0  0  0  0  0  0  0
   -1.0071    3.7911    0.0000 N   0  0  0  0  0  0  0  0  0  0  0  0
   -5.4765    1.5689    0.0000 C   0  0  0  0  0  0  0  0  0  0  0  0
   -5.8760    2.2930    0.0000 C   0  0  0  0  0  0  0  0  0  0  0  0
   -3.8660    3.7953    0.0000 C   0  0  0  0  0  0  0  0  0  0  0  0
   -1.7187    4.2073    0.0000 C   0  0  0  0  0  0  0  0  0  0  0  0
   -0.9613    2.9671    0.0000 C   0  0  0  0  0  0  0  0  0  0  0  0
   -0.2372    4.0866    0.0000 C   0  0  0  0  0  0  0  0  0  0  0  0
   -6.6959    2.3054    0.0000 C   0  0  0  0  0  0  0  0  0  0  0  0
   -2.4345    3.8036    0.0000 C   0  0  0  0  0  0  0  0  0  0  0  0
   -3.1544    4.2073    0.0000 C   0  0  0  0  0  0  0  0  0  0  0  0
   -4.2405    0.3496    0.0000 C   0  0  0  0  0  0  0  0  0  0  0  0
   -4.4153   -0.4536    0.0000 C   0  0  0  0  0  0  0  0  0  0  0  0
   -5.9010    0.8697    0.0000 C   0  0  0  0  0  0  0  0  0  0  0  0
   -7.1204    1.5980    0.0000 C   0  0  0  0  0  0  0  0  0  0  0  0
   -4.5901    4.2073    0.0000 O   0  0  0  0  0  0  0  0  0  0  0  0
   -0.1456    2.7674    0.0000 C   0  0  0  0  0  0  0  0  0  0  0  0
    0.2913    3.4665    0.0000 C   0  0  0  0  0  0  0  0  0  0  0  0
   -1.5938    2.4553    0.0000 O   0  0  0  0  0  0  0  0  0  0  0  0
   -0.0208    4.8814    0.0000 O   0  0  0  0  0  0  0  0  0  0  0  0
   -6.7084    0.8822    0.0000 C   0  0  0  0  0  0  0  0  0  0  0  0
   -4.0533    1.1611    0.0000 C   0  0  0  0  0  0  0  0  0  0  0  0
   -1.7104    5.0230    0.0000 C   0  0  0  0  0  0  0  0  0  0  0  0
   -7.0954    3.0295    0.0000 C   0  0  0  0  0  0  0  0  0  0  0  0
   -3.1461    5.0355    0.0000 C   0  0  0  0  0  0  0  0  0  0  0  0
   -2.4303    5.4474    0.0000 C   0  0  0  0  0  0  0  0  0  0  0  0
   -7.1079    0.1581    0.0000 C   0  0  0  0  0  0  0  0  0  0  0  0
  2  1  2  0  0  0  0
  3  1  1  0  0  0  0
  4  1  1  0  0  0  0
  5  9  1  0  0  0  0
  6  3  1  0  0  0  0
  7  4  1  0  0  0  0
  7  6  2  0  0  0  0
  8  2  1  0  0  0  0
  9 13  1  0  0  0  0
  9 26  2  0  0  0  0
 10  5  1  0  0  0  0
 11  5  1  0  0  0  0
 12  7  1  0  0  0  0
 13 14  2  0  0  0  0
 14  8  1  0  0  0  0
 15 25  1  0  0  0  0
 16 15  3  0  0  0  0
 17  6  1  0  0  0  0
 18 12  2  0  0  0  0
 19  8  2  0  0  0  0
 20 10  1  0  0  0  0
 20 21  1  0  0  0  0
 21 11  1  0  0  0  0
 22 10  2  0  0  0  0
 23 11  2  0  0  0  0
 24 17  2  0  0  0  0
 24 18  1  0  0  0  0
 25  3  1  0  0  0  0
 26 29  1  0  0  0  0
 27 12  1  0  0  0  0
 28 14  1  0  0  0  0
 29 28  2  0  0  0  0
 30 24  1  0  0  0  0
M  END
> <CdId>
2602

> <Mol Weight>
417.48

> <Formula>
C23H19N3O3S

> <Click_ID>
CLK034_D08 __ __ 

$$$$
