CLK042E02
 OpenBabel03181417552D

 26 28  0  0  0  0  0  0  0  0999 V2000
    1.8917    1.0792    0.0000 S   0  0  0  0  0  0  0  0  0  0  0  0
    1.8917    0.2542    0.0000 C   0  0  0  0  0  0  0  0  0  0  0  0
    0.4625   -1.3958    0.0000 C   0  0  0  0  0  0  0  0  0  0  0  0
   -3.1083   -0.9833    0.0000 C   0  0  0  0  0  0  0  0  0  0  0  0
    2.6083    3.1417    0.0000 C   0  0  0  0  0  0  0  0  0  0  0  0
    1.1792   -0.9833    0.0000 C   0  0  0  0  0  0  0  0  0  0  0  0
    1.1792   -0.1583    0.0000 C   0  0  0  0  0  0  0  0  0  0  0  0
    2.6083    3.9667    0.0000 C   0  0  0  0  0  0  0  0  0  0  0  0
   -0.2500   -0.9833    0.0000 N   0  0  0  0  0  0  0  0  0  0  0  0
    1.0667    1.0792    0.0000 O   0  0  0  0  0  0  0  0  0  0  0  0
    2.7167    1.0792    0.0000 O   0  0  0  0  0  0  0  0  0  0  0  0
   -3.1083   -0.1583    0.0000 C   0  0  0  0  0  0  0  0  0  0  0  0
   -3.8917   -1.2375    0.0000 O   0  0  0  0  0  0  0  0  0  0  0  0
    1.8917    1.9042    0.0000 N   0  0  0  0  0  0  0  0  0  0  0  0
   -3.8917    0.1000    0.0000 O   0  0  0  0  0  0  0  0  0  0  0  0
   -4.3792   -0.5708    0.0000 C   0  0  0  0  0  0  0  0  0  0  0  0
   -2.3917   -1.3958    0.0000 C   0  0  0  0  0  0  0  0  0  0  0  0
    0.4625   -2.2208    0.0000 O   0  0  0  0  0  0  0  0  0  0  0  0
   -2.3917    0.2542    0.0000 C   0  0  0  0  0  0  0  0  0  0  0  0
   -1.6792   -0.9833    0.0000 C   0  0  0  0  0  0  0  0  0  0  0  0
   -0.9625   -1.3958    0.0000 C   0  0  0  0  0  0  0  0  0  0  0  0
   -1.6792   -0.1583    0.0000 C   0  0  0  0  0  0  0  0  0  0  0  0
    2.6083    2.3167    0.0000 C   0  0  0  0  0  0  0  0  0  0  0  0
    2.6083   -0.1583    0.0000 C   0  0  0  0  0  0  0  0  0  0  0  0
    1.8917   -1.3958    0.0000 C   0  0  0  0  0  0  0  0  0  0  0  0
    2.6083   -0.9833    0.0000 C   0  0  0  0  0  0  0  0  0  0  0  0
  2  1  1  0  0  0  0
  3  6  1  0  0  0  0
  4 17  1  0  0  0  0
  5 23  1  0  0  0  0
  6  7  2  0  0  0  0
  7  2  1  0  0  0  0
  8  5  3  0  0  0  0
  9  3  1  0  0  0  0
 10  1  2  0  0  0  0
 11  1  2  0  0  0  0
 12  4  2  0  0  0  0
 12 19  1  0  0  0  0
 13  4  1  0  0  0  0
 14  1  1  0  0  0  0
 15 12  1  0  0  0  0
 16 13  1  0  0  0  0
 16 15  1  0  0  0  0
 17 20  2  0  0  0  0
 18  3  2  0  0  0  0
 19 22  2  0  0  0  0
 20 21  1  0  0  0  0
 21  9  1  0  0  0  0
 22 20  1  0  0  0  0
 23 14  1  0  0  0  0
 24  2  2  0  0  0  0
 25  6  1  0  0  0  0
 26 24  1  0  0  0  0
 26 25  2  0  0  0  0
M  END
> <CdId>
3173

> <Mol Weight>
372.395

> <Formula>
C18H16N2O5S

> <Click_ID>
CLK042E02 __ __ 

$$$$
