CLK041D04
 OpenBabel03181417552D

 22 24  0  0  0  0  0  0  0  0999 V2000
   -0.5709    0.5626    0.0000 C   0  0  0  0  0  0  0  0  0  0  0  0
   -0.3126   -0.2209    0.0000 C   0  0  0  0  0  0  0  0  0  0  0  0
   -0.0833    1.2295    0.0000 C   0  0  0  0  0  0  0  0  0  0  0  0
   -0.5709    1.8963    0.0000 N   0  0  0  0  0  0  0  0  0  0  0  0
   -1.3545    0.8169    0.0000 C   0  0  0  0  0  0  0  0  0  0  0  0
    0.4918   -0.3918    0.0000 C   0  0  3  0  0  0  0  0  0  0  0  0
    2.4048    0.6627    0.0000 C   0  0  0  0  0  0  0  0  0  0  0  0
   -1.3545    1.6421    0.0000 C   0  0  0  0  0  0  0  0  0  0  0  0
    2.9550    1.2753    0.0000 C   0  0  0  0  0  0  0  0  0  0  0  0
   -0.8669   -0.8335    0.0000 O   0  0  0  0  0  0  0  0  0  0  0  0
    0.7460   -1.1795    0.0000 C   0  0  0  0  0  0  0  0  0  0  0  0
    1.0461    0.2209    0.0000 N   0  0  0  0  0  0  0  0  0  0  0  0
    1.8505    0.0500    0.0000 C   0  0  0  0  0  0  0  0  0  0  0  0
   -2.0672    0.4043    0.0000 C   0  0  0  0  0  0  0  0  0  0  0  0
   -2.0672    2.0547    0.0000 C   0  0  0  0  0  0  0  0  0  0  0  0
    1.5546   -1.3503    0.0000 C   0  0  0  0  0  0  0  0  0  0  0  0
    0.1958   -1.7922    0.0000 C   0  0  0  0  0  0  0  0  0  0  0  0
   -2.7840    0.8169    0.0000 C   0  0  0  0  0  0  0  0  0  0  0  0
   -2.7840    1.6421    0.0000 C   0  0  0  0  0  0  0  0  0  0  0  0
    0.4501   -2.5757    0.0000 C   0  0  0  0  0  0  0  0  0  0  0  0
    1.8088   -2.1338    0.0000 C   0  0  0  0  0  0  0  0  0  0  0  0
    1.2586   -2.7465    0.0000 C   0  0  0  0  0  0  0  0  0  0  0  0
  2  1  1  0  0  0  0
  3  1  2  0  0  0  0
  4  3  1  0  0  0  0
  5  1  1  0  0  0  0
  6  2  1  0  0  0  0
  7 13  1  0  0  0  0
  8  5  2  0  0  0  0
  8  4  1  0  0  0  0
  9  7  3  0  0  0  0
 10  2  2  0  0  0  0
 11  6  1  0  0  0  0
 12  6  1  0  0  0  0
 13 12  1  0  0  0  0
 14  5  1  0  0  0  0
 15  8  1  0  0  0  0
 16 11  2  0  0  0  0
 17 11  1  0  0  0  0
 18 14  2  0  0  0  0
 18 19  1  0  0  0  0
 19 15  2  0  0  0  0
 20 17  2  0  0  0  0
 21 16  1  0  0  0  0
 22 21  2  0  0  0  0
 22 20  1  0  0  0  0
M  END
> <CdId>
3108

> <Mol Weight>
288.3431

> <Formula>
C19H16N2O

> <Click_ID>
CLK041D04 __ __ 

$$$$
