CLK046D05
 OpenBabel03181417552D

 25 26  0  0  0  0  0  0  0  0999 V2000
    1.9417   -0.2958    0.0000 C   0  0  0  0  0  0  0  0  0  0  0  0
   -4.4875   -0.7083    0.0000 C   0  0  0  0  0  0  0  0  0  0  0  0
    2.6542    0.9417    0.0000 C   0  0  0  0  0  0  0  0  0  0  0  0
    1.9417    0.5292    0.0000 C   0  0  0  0  0  0  0  0  0  0  0  0
   -5.2042   -1.1208    0.0000 C   0  0  0  0  0  0  0  0  0  0  0  0
   -0.9167   -0.2958    0.0000 C   0  0  0  0  0  0  0  0  0  0  0  0
   -1.6292   -0.7083    0.0000 N   0  0  0  0  0  0  0  0  0  0  0  0
    2.6542    1.7667    0.0000 C   0  0  0  0  0  0  0  0  0  0  0  0
    2.6542   -0.7083    0.0000 C   0  0  0  0  0  0  0  0  0  0  0  0
    3.3708    0.5292    0.0000 C   0  0  0  0  0  0  0  0  0  0  0  0
   -2.3458   -0.2958    0.0000 C   0  0  0  0  0  0  0  0  0  0  0  0
   -0.9167    0.5292    0.0000 O   0  0  0  0  0  0  0  0  0  0  0  0
    1.9417    2.1792    0.0000 O   0  0  0  0  0  0  0  0  0  0  0  0
    3.3708   -0.2958    0.0000 C   0  0  0  0  0  0  0  0  0  0  0  0
    0.5125   -0.2958    0.0000 S   0  0  0  0  0  0  0  0  0  0  0  0
   -3.7750   -0.2958    0.0000 C   0  0  0  0  0  0  0  0  0  0  0  0
   -3.0583   -0.7083    0.0000 C   0  0  0  0  0  0  0  0  0  0  0  0
    1.2250   -0.7083    0.0000 C   0  0  0  0  0  0  0  0  0  0  0  0
    2.6542   -1.5333    0.0000 O   0  0  0  0  0  0  0  0  0  0  0  0
   -0.2042   -0.7083    0.0000 C   0  0  0  0  0  0  0  0  0  0  0  0
   -3.0583    0.9417    0.0000 C   0  0  0  0  0  0  0  0  0  0  0  0
   -2.3458    0.5292    0.0000 C   0  0  0  0  0  0  0  0  0  0  0  0
    3.3708    2.1792    0.0000 C   0  0  0  0  0  0  0  0  0  0  0  0
   -3.7750    0.5292    0.0000 C   0  0  0  0  0  0  0  0  0  0  0  0
    3.3708   -1.9458    0.0000 C   0  0  0  0  0  0  0  0  0  0  0  0
  2 16  1  0  0  0  0
  3  4  2  0  0  0  0
  3 10  1  0  0  0  0
  4  1  1  0  0  0  0
  5  2  3  0  0  0  0
  6 20  1  0  0  0  0
  7  6  1  0  0  0  0
  8  3  1  0  0  0  0
  9  1  2  0  0  0  0
 10 14  2  0  0  0  0
 11  7  1  0  0  0  0
 12  6  2  0  0  0  0
 13  8  2  0  0  0  0
 14  9  1  0  0  0  0
 15 18  1  0  0  0  0
 16 17  1  0  0  0  0
 17 11  2  0  0  0  0
 18  1  1  0  0  0  0
 19  9  1  0  0  0  0
 20 15  1  0  0  0  0
 21 22  2  0  0  0  0
 22 11  1  0  0  0  0
 23  8  1  0  0  0  0
 24 16  2  0  0  0  0
 24 21  1  0  0  0  0
 25 19  1  0  0  0  0
M  END
> <CdId>
3516

> <Mol Weight>
353.435

> <Formula>
C20H19NO3S

> <Click_ID>
CLK046D05 __ __ 

$$$$
