CLK046A09
 OpenBabel03181417552D

 17 18  0  0  0  0  0  0  0  0999 V2000
    0.3750    0.2208    0.0000 C   0  0  0  0  0  0  0  0  0  0  0  0
   -0.3375   -0.1917    0.0000 C   0  0  0  0  0  0  0  0  0  0  0  0
    0.3750    1.0458    0.0000 C   0  0  0  0  0  0  0  0  0  0  0  0
    1.0917   -0.1917    0.0000 C   0  0  0  0  0  0  0  0  0  0  0  0
    1.8042   -2.2542    0.0000 C   0  0  0  0  0  0  0  0  0  0  0  0
   -0.3375    1.4583    0.0000 C   0  0  0  0  0  0  0  0  0  0  0  0
    1.8042   -3.0792    0.0000 C   0  0  0  0  0  0  0  0  0  0  0  0
   -1.0542    0.2208    0.0000 C   0  0  0  0  0  0  0  0  0  0  0  0
   -1.0542    1.0458    0.0000 C   0  0  0  0  0  0  0  0  0  0  0  0
    1.8042    0.2208    0.0000 O   0  0  0  0  0  0  0  0  0  0  0  0
    1.0917   -1.0167    0.0000 N   0  0  0  0  0  0  0  0  0  0  0  0
    1.0917    1.4583    0.0000 O   0  0  0  0  0  0  0  0  0  0  0  0
    1.8042   -1.4292    0.0000 C   0  0  0  0  0  0  0  0  0  0  0  0
   -1.7667   -0.1917    0.0000 C   0  0  0  0  0  0  0  0  0  0  0  0
   -1.7667    1.4583    0.0000 C   0  0  0  0  0  0  0  0  0  0  0  0
   -2.4833    1.0458    0.0000 C   0  0  0  0  0  0  0  0  0  0  0  0
   -2.4833    0.2208    0.0000 C   0  0  0  0  0  0  0  0  0  0  0  0
  2  1  1  0  0  0  0
  3  1  2  0  0  0  0
  4  1  1  0  0  0  0
  5 13  1  0  0  0  0
  6  3  1  0  0  0  0
  7  5  3  0  0  0  0
  8  2  2  0  0  0  0
  8  9  1  0  0  0  0
  9  6  2  0  0  0  0
 10  4  2  0  0  0  0
 11  4  1  0  0  0  0
 12  3  1  0  0  0  0
 13 11  1  0  0  0  0
 14  8  1  0  0  0  0
 15  9  1  0  0  0  0
 16 15  2  0  0  0  0
 17 14  2  0  0  0  0
 17 16  1  0  0  0  0
M  END
> <CdId>
3545

> <Mol Weight>
225.2426

> <Formula>
C14H11NO2

> <Click_ID>
CLK046A09 __ __ 

$$$$
