CLK049A07
 OpenBabel03181417552D

 13 13  0  0  0  0  0  0  0  0999 V2000
   -0.2208   -0.3792    0.0000 C   0  0  0  0  0  0  0  0  0  0  0  0
    0.4917    0.0333    0.0000 C   0  0  0  0  0  0  0  0  0  0  0  0
   -2.3667    0.0333    0.0000 C   0  0  0  0  0  0  0  0  0  0  0  0
   -3.0792    0.4458    0.0000 C   0  0  0  0  0  0  0  0  0  0  0  0
   -0.2208   -1.2042    0.0000 O   0  0  0  0  0  0  0  0  0  0  0  0
    1.2083   -0.3792    0.0000 C   0  0  0  0  0  0  0  0  0  0  0  0
   -0.9375    0.0333    0.0000 N   0  0  0  0  0  0  0  0  0  0  0  0
   -1.6500   -0.3792    0.0000 C   0  0  0  0  0  0  0  0  0  0  0  0
    0.4917    0.8583    0.0000 C   0  0  0  0  0  0  0  0  0  0  0  0
    1.2083   -1.2042    0.0000 C   0  0  0  0  0  0  0  0  0  0  0  0
    1.9208    0.0333    0.0000 C   0  0  0  0  0  0  0  0  0  0  0  0
    1.2083    1.2708    0.0000 C   0  0  0  0  0  0  0  0  0  0  0  0
    1.9208    0.8583    0.0000 C   0  0  0  0  0  0  0  0  0  0  0  0
  2  1  1  0  0  0  0
  3  8  1  0  0  0  0
  4  3  3  0  0  0  0
  5  1  2  0  0  0  0
  6  2  2  0  0  0  0
  7  1  1  0  0  0  0
  8  7  1  0  0  0  0
  9  2  1  0  0  0  0
 10  6  1  0  0  0  0
 11  6  1  0  0  0  0
 12  9  2  0  0  0  0
 12 13  1  0  0  0  0
 13 11  2  0  0  0  0
M  END
> <CdId>
3769

> <Mol Weight>
173.2111

> <Formula>
C11H11NO

> <Click_ID>
CLK049A07 __ __ 

$$$$
