CLK009_F10
 OpenBabel03181417552D

 25 26  0  0  0  0  0  0  0  0999 V2000
    7.4296   -2.8463    0.0000 C   0  0  0  0  0  0  0  0  0  0  0  0
    4.5146   -5.9721    0.0000 C   0  0  0  0  0  0  0  0  0  0  0  0
    7.4296   -3.6712    0.0000 C   0  0  0  0  0  0  0  0  0  0  0  0
    6.7146   -2.4246    0.0000 C   0  0  0  0  0  0  0  0  0  0  0  0
    3.7400   -6.3571    0.0000 C   0  0  0  0  0  0  0  0  0  0  0  0
    9.5746   -2.4384    0.0000 C   0  0  0  0  0  0  0  0  0  0  0  0
   10.2896   -2.0350    0.0000 C   0  0  0  0  0  0  0  0  0  0  0  0
    5.2846   -4.8400    0.0000 N   0  0  0  0  0  0  0  0  0  0  0  0
    6.7146   -4.0746    0.0000 C   0  0  0  0  0  0  0  0  0  0  0  0
    5.9996   -2.8371    0.0000 C   0  0  0  0  0  0  0  0  0  0  0  0
    4.5146   -5.2250    0.0000 N   0  0  0  0  0  0  0  0  0  0  0  0
    5.9996   -3.6712    0.0000 C   0  0  0  0  0  0  0  0  0  0  0  0
    5.2846   -6.3571    0.0000 O   0  0  0  0  0  0  0  0  0  0  0  0
    2.9700   -7.4984    0.0000 N   0  0  0  0  0  0  0  0  0  0  0  0
    5.2846   -4.0746    0.0000 C   0  0  0  0  0  0  0  0  0  0  0  0
    8.1446   -4.0746    0.0000 I   0  0  0  0  0  0  0  0  0  0  0  0
    8.1446   -2.4384    0.0000 O   0  0  0  0  0  0  0  0  0  0  0  0
    6.7284   -1.5996    0.0000 O   0  0  0  0  0  0  0  0  0  0  0  0
    3.7400   -7.1134    0.0000 C   0  0  0  0  0  0  0  0  0  0  0  0
    8.8596   -2.8463    0.0000 C   0  0  0  0  0  0  0  0  0  0  0  0
    2.9700   -5.9721    0.0000 C   0  0  0  0  0  0  0  0  0  0  0  0
    2.2000   -7.1134    0.0000 C   0  0  0  0  0  0  0  0  0  0  0  0
    6.0134   -1.1871    0.0000 C   0  0  0  0  0  0  0  0  0  0  0  0
    2.2000   -6.3571    0.0000 C   0  0  0  0  0  0  0  0  0  0  0  0
    3.7446   -4.8400    0.0000 H   0  0  0  0  0  0  0  0  0  0  0  0
  2 11  1  0  0  0  0
  3  1  2  0  0  0  0
  4  1  1  0  0  0  0
  5  2  1  0  0  0  0
  6 20  1  0  0  0  0
  7  6  3  0  0  0  0
  8 15  2  0  0  0  0
  9  3  1  0  0  0  0
 10  4  2  0  0  0  0
 11  8  1  0  0  0  0
 12 10  1  0  0  0  0
 12  9  2  0  0  0  0
 13  2  2  0  0  0  0
 14 19  1  0  0  0  0
 14 22  2  0  0  0  0
 15 12  1  0  0  0  0
 16  3  1  0  0  0  0
 17  1  1  0  0  0  0
 18  4  1  0  0  0  0
 19  5  2  0  0  0  0
 20 17  1  0  0  0  0
 21  5  1  0  0  0  0
 22 24  1  0  0  0  0
 23 18  1  0  0  0  0
 24 21  2  0  0  0  0
 25 11  1  0  0  0  0
M  END
> <CdId>
655

> <Mol Weight>
435.2158

> <Formula>
C17H14IN3O3

> <Click_ID>
CLK009_F10 __ __ 

$$$$
