CLK003_F04
 OpenBabel03181417552D

 24 26  0  0  0  0  0  0  0  0999 V2000
   -0.4235    0.0416    0.0000 C    0  0  3  0  0  0  0  0  0  0  0  0
   -1.2139   -0.2118    0.0000 C    0  0  0  0  0  0  0  0  0  0  0  0
    0.0340   -0.5862    0.0000 C    0  0  0  0  0  0  0  0  0  0  0  0
    0.4198    0.8131    0.0000 C    0  0  0  0  0  0  0  0  0  0  0  0
   -0.8131    0.9189    0.0000 O    0  0  0  0  0  0  0  0  0  0  0  0
   -1.2139   -1.0400    0.0000 C    0  0  0  0  0  0  0  0  0  0  0  0
   -1.9248    0.2080    0.0000 C    0  0  0  0  0  0  0  0  0  0  0  0
   -0.4235   -1.2857    0.0000 N    0  0  0  0  0  0  0  0  0  0  0  0
    0.8319   -0.6580    0.0000 O    0  0  0  0  0  0  0  0  0  0  0  0
    1.3802    0.6467    0.0000 C    0  0  0  0  0  0  0  0  0  0  0  0
   -1.9248   -1.4521    0.0000 C    0  0  0  0  0  0  0  0  0  0  0  0
   -2.6395   -0.2118    0.0000 C    0  0  0  0  0  0  0  0  0  0  0  0
   -0.1551   -2.0685    0.0000 C    0  0  0  0  0  0  0  0  0  0  0  0
    1.8794    1.2933    0.0000 C    0  0  0  0  0  0  0  0  0  0  0  0
    1.6525    0.0605    0.0000 O    0  0  0  0  0  0  0  0  0  0  0  0
   -2.6395   -1.0400    0.0000 C    0  0  0  0  0  0  0  0  0  0  0  0
   -3.3505    0.1966    0.0000 Br   0  0  0  0  0  0  0  0  0  0  0  0
   -0.6769   -2.6962    0.0000 C    0  0  0  0  0  0  0  0  0  0  0  0
    2.6962    1.1836    0.0000 C    0  0  0  0  0  0  0  0  0  0  0  0
    1.5656    2.0572    0.0000 C    0  0  0  0  0  0  0  0  0  0  0  0
   -1.2139   -3.3164    0.0000 C    0  0  0  0  0  0  0  0  0  0  0  0
    3.1954    1.8379    0.0000 C    0  0  0  0  0  0  0  0  0  0  0  0
    2.0648    2.7076    0.0000 C    0  0  0  0  0  0  0  0  0  0  0  0
    2.8853    2.5980    0.0000 C    0  0  0  0  0  0  0  0  0  0  0  0
  1  2  1  0  0  0  0
  1  3  1  0  0  0  0
  1  4  1  0  0  0  0
  1  5  1  0  0  0  0
  2  6  2  0  0  0  0
  2  7  1  0  0  0  0
  3  8  1  0  0  0  0
  3  9  2  0  0  0  0
  4 10  1  0  0  0  0
  6 11  1  0  0  0  0
  6  8  1  0  0  0  0
  7 12  2  0  0  0  0
  8 13  1  0  0  0  0
 10 14  1  0  0  0  0
 10 15  2  0  0  0  0
 11 16  2  0  0  0  0
 12 17  1  0  0  0  0
 12 16  1  0  0  0  0
 13 18  1  0  0  0  0
 14 19  1  0  0  0  0
 14 20  2  0  0  0  0
 18 21  3  0  0  0  0
 19 22  2  0  0  0  0
 20 23  1  0  0  0  0
 22 24  1  0  0  0  0
 23 24  2  0  0  0  0
M  END
> <CdId>
213

> <Mol Weight>
384.223

> <Formula>
C19H14BrNO3

> <Click_ID>
CLK003_F04 __ __ 

$$$$
