CLK040G04
 OpenBabel03181417552D

 19 19  0  0  0  0  0  0  0  0999 V2000
    0.6750   -1.4292    0.0000 C    0  0  0  0  0  0  0  0  0  0  0  0
   -0.0417   -0.1917    0.0000 N    0  0  0  0  0  0  0  0  0  0  0  0
    0.6750    0.2208    0.0000 C    0  0  0  0  0  0  0  0  0  0  0  0
   -0.0417   -1.0167    0.0000 C    0  0  0  0  0  0  0  0  0  0  0  0
    0.6750   -2.2542    0.0000 C    0  0  0  0  0  0  0  0  0  0  0  0
    1.3875   -0.1917    0.0000 C    0  0  0  0  0  0  0  0  0  0  0  0
    1.3875   -1.0167    0.0000 C    0  0  0  0  0  0  0  0  0  0  0  0
   -0.7542    0.2208    0.0000 C    0  0  0  0  0  0  0  0  0  0  0  0
   -2.1833    2.6958    0.0000 C    0  0  0  0  0  0  0  0  0  0  0  0
   -2.8958    3.1083    0.0000 C    0  0  0  0  0  0  0  0  0  0  0  0
   -0.7542    1.0458    0.0000 C    0  0  0  0  0  0  0  0  0  0  0  0
    0.6750    1.0458    0.0000 O    0  0  0  0  0  0  0  0  0  0  0  0
   -0.0417    1.4583    0.0000 O    0  0  0  0  0  0  0  0  0  0  0  0
    1.5000   -2.2542    0.0000 F    0  0  0  0  0  0  0  0  0  0  0  0
   -0.1500   -2.2542    0.0000 F    0  0  0  0  0  0  0  0  0  0  0  0
    0.6750   -3.0792    0.0000 F    0  0  0  0  0  0  0  0  0  0  0  0
    2.1042    0.2208    0.0000 Cl   0  0  0  0  0  0  0  0  0  0  0  0
   -1.4667    1.4583    0.0000 N    0  0  0  0  0  0  0  0  0  0  0  0
   -1.4667    2.2833    0.0000 C    0  0  0  0  0  0  0  0  0  0  0  0
  2  4  1  0  0  0  0
  3  2  1  0  0  0  0
  3  6  1  0  0  0  0
  4  1  2  0  0  0  0
  5  1  1  0  0  0  0
  6  7  2  0  0  0  0
  7  1  1  0  0  0  0
  8  2  1  0  0  0  0
  9 19  1  0  0  0  0
 10  9  3  0  0  0  0
 11  8  1  0  0  0  0
 12  3  2  0  0  0  0
 13 11  2  0  0  0  0
 14  5  1  0  0  0  0
 15  5  1  0  0  0  0
 16  5  1  0  0  0  0
 17  6  1  0  0  0  0
 18 11  1  0  0  0  0
 19 18  1  0  0  0  0
M  END
> <CdId>
3031

> <Mol Weight>
292.642

> <Formula>
C11H8ClF3N2O2

> <Click_ID>
CLK040G04 __ __ 

$$$$
