CLK051D08
 OpenBabel03181417552D

 20 21  0  0  0  0  0  0  0  0999 V2000
   -1.8250    1.3417    0.0000 C   0  0  0  0  0  0  0  0  0  0  0  0
   -1.8250    2.1667    0.0000 N   0  0  0  0  0  0  0  0  0  0  0  0
   -1.1083    0.9292    0.0000 N   0  0  0  0  0  0  0  0  0  0  0  0
   -1.1083    2.5792    0.0000 C   0  0  0  0  0  0  0  0  0  0  0  0
   -0.3958    2.1667    0.0000 C   0  0  0  0  0  0  0  0  0  0  0  0
   -0.3958    1.3417    0.0000 C   0  0  0  0  0  0  0  0  0  0  0  0
   -0.3958   -0.3083    0.0000 C   0  0  0  0  0  0  0  0  0  0  0  0
    2.4625   -1.1333    0.0000 C   0  0  0  0  0  0  0  0  0  0  0  0
   -1.1083    0.1042    0.0000 C   0  0  0  0  0  0  0  0  0  0  0  0
    3.1792   -0.7208    0.0000 C   0  0  0  0  0  0  0  0  0  0  0  0
   -0.3958   -1.1333    0.0000 N   0  0  0  0  0  0  0  0  0  0  0  0
   -2.5375    0.9292    0.0000 O   0  0  0  0  0  0  0  0  0  0  0  0
   -1.1083    3.4042    0.0000 O   0  0  0  0  0  0  0  0  0  0  0  0
    0.3208    0.1042    0.0000 O   0  0  0  0  0  0  0  0  0  0  0  0
    0.3208   -1.5458    0.0000 C   0  0  0  0  0  0  0  0  0  0  0  0
    1.7500   -1.5458    0.0000 C   0  0  0  0  0  0  0  0  0  0  0  0
    1.0333   -1.1333    0.0000 C   0  0  0  0  0  0  0  0  0  0  0  0
    1.0333   -2.7833    0.0000 C   0  0  0  0  0  0  0  0  0  0  0  0
    0.3208   -2.3708    0.0000 C   0  0  0  0  0  0  0  0  0  0  0  0
    1.7500   -2.3708    0.0000 C   0  0  0  0  0  0  0  0  0  0  0  0
  2  1  1  0  0  0  0
  3  1  1  0  0  0  0
  4  2  1  0  0  0  0
  4  5  1  0  0  0  0
  5  6  2  0  0  0  0
  6  3  1  0  0  0  0
  7  9  1  0  0  0  0
  8 16  1  0  0  0  0
  9  3  1  0  0  0  0
 10  8  3  0  0  0  0
 11  7  1  0  0  0  0
 12  1  2  0  0  0  0
 13  4  2  0  0  0  0
 14  7  2  0  0  0  0
 15 11  1  0  0  0  0
 16 17  1  0  0  0  0
 17 15  2  0  0  0  0
 18 19  2  0  0  0  0
 19 15  1  0  0  0  0
 20 16  2  0  0  0  0
 20 18  1  0  0  0  0
M  END
> <CdId>
3940

> <Mol Weight>
269.2554

> <Formula>
C14H11N3O3

> <Click_ID>
CLK051D08 __ __ 

$$$$
