CLK051A09
 OpenBabel03181417552D

 19 20  0  0  0  0  0  0  0  0999 V2000
    0.1792   -0.0167    0.0000 C   0  0  0  0  0  0  0  0  0  0  0  0
    0.9667   -0.2750    0.0000 C   0  0  0  0  0  0  0  0  0  0  0  0
   -0.3042   -0.6875    0.0000 C   0  0  0  0  0  0  0  0  0  0  0  0
    0.9667   -1.1000    0.0000 O   0  0  0  0  0  0  0  0  0  0  0  0
    0.1792   -1.3542    0.0000 C   0  0  0  0  0  0  0  0  0  0  0  0
    1.6333    0.2125    0.0000 N   0  0  0  0  0  0  0  0  0  0  0  0
   -1.1292   -0.6875    0.0000 C   0  0  0  0  0  0  0  0  0  0  0  0
   -0.0750    0.7667    0.0000 C   0  0  0  0  0  0  0  0  0  0  0  0
   -0.3292    1.5500    0.0000 N   0  0  0  0  0  0  0  0  0  0  0  0
   -2.7792    0.7417    0.0000 C   0  0  0  0  0  0  0  0  0  0  0  0
   -3.1917    1.4583    0.0000 C   0  0  0  0  0  0  0  0  0  0  0  0
    2.4167   -0.0417    0.0000 C   0  0  0  0  0  0  0  0  0  0  0  0
    1.6333    1.0375    0.0000 C   0  0  0  0  0  0  0  0  0  0  0  0
   -1.5417   -1.4000    0.0000 O   0  0  0  0  0  0  0  0  0  0  0  0
    2.4167    1.2917    0.0000 C   0  0  0  0  0  0  0  0  0  0  0  0
    2.9042    0.6250    0.0000 C   0  0  0  0  0  0  0  0  0  0  0  0
   -1.5417    0.0292    0.0000 N   0  0  0  0  0  0  0  0  0  0  0  0
   -0.0750   -2.1375    0.0000 C   0  0  0  0  0  0  0  0  0  0  0  0
   -2.3667    0.0292    0.0000 C   0  0  0  0  0  0  0  0  0  0  0  0
  2  1  2  0  0  0  0
  3  1  1  0  0  0  0
  4  2  1  0  0  0  0
  4  5  1  0  0  0  0
  5  3  2  0  0  0  0
  6  2  1  0  0  0  0
  7  3  1  0  0  0  0
  8  1  1  0  0  0  0
  9  8  3  0  0  0  0
 10 19  1  0  0  0  0
 11 10  3  0  0  0  0
 12  6  1  0  0  0  0
 13  6  1  0  0  0  0
 14  7  2  0  0  0  0
 15 13  2  0  0  0  0
 15 16  1  0  0  0  0
 16 12  2  0  0  0  0
 17  7  1  0  0  0  0
 18  5  1  0  0  0  0
 19 17  1  0  0  0  0
M  END
> <CdId>
3945

> <Mol Weight>
253.256

> <Formula>
C14H11N3O2

> <Click_ID>
CLK051A09 __ __ 

$$$$
