CLK005_B06
 OpenBabel03181417552D

 25 27  0  0  0  0  0  0  0  0999 V2000
   -1.5815    0.2433    0.0000 C   0  0  0  0  0  0  0  0  0  0  0  0
   -0.7794    0.2509    0.0000 C   0  0  0  0  0  0  0  0  0  0  0  0
   -2.0643   -0.4106    0.0000 N   0  0  0  0  0  0  0  0  0  0  0  0
   -2.0643    0.8896    0.0000 S   0  0  0  0  0  0  0  0  0  0  0  0
   -0.3725   -0.4600    0.0000 C   0  0  0  0  0  0  0  0  0  0  0  0
   -0.3155    1.0379    0.0000 C   0  0  0  0  0  0  0  0  0  0  0  0
   -2.8247   -0.1596    0.0000 C   0  0  0  0  0  0  0  0  0  0  0  0
   -2.8247    0.6425    0.0000 C   0  0  0  0  0  0  0  0  0  0  0  0
    0.4562   -0.4600    0.0000 C   0  0  0  0  0  0  0  0  0  0  0  0
    0.1407    1.8362    0.0000 N   0  0  0  0  0  0  0  0  0  0  0  0
   -3.5280   -0.5702    0.0000 C   0  0  0  0  0  0  0  0  0  0  0  0
   -3.5280    1.0531    0.0000 C   0  0  0  0  0  0  0  0  0  0  0  0
    0.8668    0.2585    0.0000 C   0  0  0  0  0  0  0  0  0  0  0  0
    0.8668   -1.1747    0.0000 C   0  0  0  0  0  0  0  0  0  0  0  0
   -4.2313   -0.1596    0.0000 C   0  0  0  0  0  0  0  0  0  0  0  0
   -4.2313    0.6425    0.0000 C   0  0  0  0  0  0  0  0  0  0  0  0
    1.6955    0.2509    0.0000 C   0  0  0  0  0  0  0  0  0  0  0  0
    1.6955   -1.1823    0.0000 C   0  0  0  0  0  0  0  0  0  0  0  0
    2.1100   -0.4638    0.0000 C   0  0  0  0  0  0  0  0  0  0  0  0
    2.1137    0.9694    0.0000 O   0  0  0  0  0  0  0  0  0  0  0  0
    2.9350   -0.4638    0.0000 O   0  0  0  0  0  0  0  0  0  0  0  0
    2.9387    0.9694    0.0000 C   0  0  0  0  0  0  0  0  0  0  0  0
    3.3493   -1.1823    0.0000 C   0  0  0  0  0  0  0  0  0  0  0  0
    4.1743   -1.1823    0.0000 C   0  0  0  0  0  0  0  0  0  0  0  0
    5.0030   -1.1823    0.0000 C   0  0  0  0  0  0  0  0  0  0  0  0
  1  2  1  0  0  0  0
  1  3  2  0  0  0  0
  1  4  1  0  0  0  0
  2  5  2  0  0  0  0
  2  6  1  0  0  0  0
  3  7  1  0  0  0  0
  4  8  1  0  0  0  0
  5  9  1  0  0  0  0
  6 10  3  0  0  0  0
  7 11  1  0  0  0  0
  7  8  2  0  0  0  0
  8 12  1  0  0  0  0
  9 13  2  0  0  0  0
  9 14  1  0  0  0  0
 11 15  2  0  0  0  0
 12 16  2  0  0  0  0
 13 17  1  0  0  0  0
 14 18  2  0  0  0  0
 15 16  1  0  0  0  0
 17 19  2  0  0  0  0
 17 20  1  0  0  0  0
 18 19  1  0  0  0  0
 19 21  1  0  0  0  0
 20 22  1  0  0  0  0
 21 23  1  0  0  0  0
 23 24  1  0  0  0  0
 24 25  3  0  0  0  0
M  END
> <CdId>
335

> <Mol Weight>
346.402

> <Formula>
C20H14N2O2S

> <Click_ID>
CLK005_B06 __ __ 

$$$$
