CLK022_G07
 OpenBabel03181417552D

 25 27  0  0  0  0  0  0  0  0999 V2000
    2.8309    2.3041    0.0000 C    0  0  0  0  0  0  0  0  0  0  0  0
    3.5364    1.8918    0.0000 N    0  0  0  0  0  0  0  0  0  0  0  0
    4.9656    1.0673    0.0000 N    0  0  0  0  0  0  0  0  0  0  0  0
    5.6802    0.6550    0.0000 C    0  0  0  0  0  0  0  0  0  0  0  0
   -1.4567    0.6550    0.0000 C    0  0  0  0  0  0  0  0  0  0  0  0
   -2.1713    0.2427    0.0000 C    0  0  0  0  0  0  0  0  0  0  0  0
    5.6802   -0.1695    0.0000 C    0  0  0  0  0  0  0  0  0  0  0  0
    2.1163    1.8918    0.0000 C    0  0  0  0  0  0  0  0  0  0  0  0
    4.2510    2.3041    0.0000 C    0  0  0  0  0  0  0  0  0  0  0  0
    3.5364    1.0673    0.0000 C    0  0  0  0  0  0  0  0  0  0  0  0
    4.2510    0.6550    0.0000 C    0  0  0  0  0  0  0  0  0  0  0  0
    4.9656    1.8918    0.0000 C    0  0  0  0  0  0  0  0  0  0  0  0
    2.8309    3.1286    0.0000 O    0  0  0  0  0  0  0  0  0  0  0  0
    1.4017    2.3041    0.0000 C    0  0  0  0  0  0  0  0  0  0  0  0
    2.1163    1.0673    0.0000 C    0  0  0  0  0  0  0  0  0  0  0  0
    6.3948   -0.5818    0.0000 C    0  0  0  0  0  0  0  0  0  0  0  0
    0.6871    1.0673    0.0000 C    0  0  0  0  0  0  0  0  0  0  0  0
    1.4017    0.6550    0.0000 C    0  0  0  0  0  0  0  0  0  0  0  0
    0.6871    1.8918    0.0000 C    0  0  0  0  0  0  0  0  0  0  0  0
    6.3948   -1.4063    0.0000 Cl   0  0  0  0  0  0  0  0  0  0  0  0
   -0.7421    1.0673    0.0000 C    0  0  0  0  0  0  0  0  0  0  0  0
   -0.0275    0.6550    0.0000 O    0  0  0  0  0  0  0  0  0  0  0  0
    6.3948    1.0673    0.0000 C    0  0  0  0  0  0  0  0  0  0  0  0
    7.1094    0.6550    0.0000 C    0  0  0  0  0  0  0  0  0  0  0  0
    7.1094   -0.1695    0.0000 C    0  0  0  0  0  0  0  0  0  0  0  0
  2  1  1  0  0  0  0
  3 11  1  0  0  0  0
  4  3  1  0  0  0  0
  5 21  1  0  0  0  0
  6  5  3  0  0  0  0
  7  4  1  0  0  0  0
  8  1  1  0  0  0  0
  9  2  1  0  0  0  0
 10  2  1  0  0  0  0
 11 10  1  0  0  0  0
 12  9  1  0  0  0  0
 12  3  1  0  0  0  0
 13  1  2  0  0  0  0
 14  8  1  0  0  0  0
 15  8  2  0  0  0  0
 16  7  2  0  0  0  0
 16 25  1  0  0  0  0
 17 18  2  0  0  0  0
 18 15  1  0  0  0  0
 19 14  2  0  0  0  0
 19 17  1  0  0  0  0
 20 16  1  0  0  0  0
 21 22  1  0  0  0  0
 22 17  1  0  0  0  0
 23  4  2  0  0  0  0
 24 23  1  0  0  0  0
 25 24  2  0  0  0  0
M  END
> <CdId>
1688

> <Mol Weight>
354.83

> <Formula>
C20H19ClN2O2

> <Click_ID>
CLK022_G07 __ __ 

$$$$
