CLK030_G05
 OpenBabel03181417552D

 25 27  0  0  0  0  0  0  0  0999 V2000
   -1.1649    2.3882    0.0000 C    0  0  0  0  0  0  0  0  0  0  0  0
   -0.3382    2.3799    0.0000 N    0  0  0  0  0  0  0  0  0  0  0  0
   -1.6492    1.7244    0.0000 N    0  0  0  0  0  0  0  0  0  0  0  0
   -1.6492    3.0563    0.0000 S    0  0  0  0  0  0  0  0  0  0  0  0
    0.0752    3.0939    0.0000 C    0  0  0  0  0  0  0  0  0  0  0  0
   -4.5928    3.2192    0.0000 N    0  0  0  0  0  0  0  0  0  0  0  0
   -2.4383    2.8016    0.0000 C    0  0  0  0  0  0  0  0  0  0  0  0
   -2.4383    1.9749    0.0000 C    0  0  0  0  0  0  0  0  0  0  0  0
    0.9019    3.0939    0.0000 C    0  0  0  0  0  0  0  0  0  0  0  0
   -3.1523    3.2149    0.0000 C    0  0  0  0  0  0  0  0  0  0  0  0
   -3.8663    2.8016    0.0000 C    0  0  0  0  0  0  0  0  0  0  0  0
   -1.9498    0.3215    0.0000 C    0  0  0  0  0  0  0  0  0  0  0  0
   -3.1523    1.5615    0.0000 C    0  0  0  0  0  0  0  0  0  0  0  0
   -2.5010   -0.2923    0.0000 C    0  0  0  0  0  0  0  0  0  0  0  0
   -4.5928    4.0376    0.0000 O    0  0  0  0  0  0  0  0  0  0  0  0
   -5.3068    2.8058    0.0000 O    0  0  0  0  0  0  0  0  0  0  0  0
    1.3152    2.3882    0.0000 C    0  0  0  0  0  0  0  0  0  0  0  0
   -0.3382    3.8079    0.0000 O    0  0  0  0  0  0  0  0  0  0  0  0
   -3.8663    1.9749    0.0000 C    0  0  0  0  0  0  0  0  0  0  0  0
   -1.3987    0.9352    0.0000 C    0  0  0  0  0  0  0  0  0  0  0  0
    0.8810    1.6617    0.0000 Cl   0  0  0  0  0  0  0  0  0  0  0  0
    1.3194    3.8079    0.0000 C    0  0  0  0  0  0  0  0  0  0  0  0
    2.1336    2.3799    0.0000 C    0  0  0  0  0  0  0  0  0  0  0  0
    2.1461    3.8037    0.0000 C    0  0  0  0  0  0  0  0  0  0  0  0
    2.5553    3.0897    0.0000 C    0  0  0  0  0  0  0  0  0  0  0  0
  2  1  2  0  0  0  0
  3  1  1  0  0  0  0
  4  1  1  0  0  0  0
  5  2  1  0  0  0  0
  6 11  1  0  0  0  0
  7  4  1  0  0  0  0
  7  8  2  0  0  0  0
  8  3  1  0  0  0  0
  9  5  1  0  0  0  0
 10  7  1  0  0  0  0
 11 10  2  0  0  0  0
 11 19  1  0  0  0  0
 12 20  1  0  0  0  0
 13  8  1  0  0  0  0
 14 12  3  0  0  0  0
 15  6  1  0  0  0  0
 16  6  2  0  0  0  0
 17  9  2  0  0  0  0
 18  5  2  0  0  0  0
 19 13  2  0  0  0  0
 20  3  1  0  0  0  0
 21 17  1  0  0  0  0
 22  9  1  0  0  0  0
 23 17  1  0  0  0  0
 24 22  2  0  0  0  0
 25 24  1  0  0  0  0
 25 23  2  0  0  0  0
M  END
> <CdId>
2309

> <Mol Weight>
371.798

> <Formula>
C17H10ClN3O3S

> <Click_ID>
CLK030_G05 __ __ 

$$$$
