CLK041A06
 OpenBabel03181417552D

 28 30  0  0  0  0  0  0  0  0999 V2000
    2.6083    2.2458    0.0000 S   0  0  0  0  0  0  0  0  0  0  0  0
   -2.8250   -1.3708    0.0000 N   0  0  0  0  0  0  0  0  0  0  0  0
   -2.8250   -2.7083    0.0000 N   0  0  0  0  0  0  0  0  0  0  0  0
   -2.3417   -2.0375    0.0000 C   0  0  0  0  0  0  0  0  0  0  0  0
   -3.6125   -1.6250    0.0000 C   0  0  0  0  0  0  0  0  0  0  0  0
   -3.6125   -2.4500    0.0000 C   0  0  0  0  0  0  0  0  0  0  0  0
    0.9583   -0.6083    0.0000 C   0  0  0  0  0  0  0  0  0  0  0  0
    2.1958    1.5333    0.0000 C   0  0  0  0  0  0  0  0  0  0  0  0
    4.2583    3.6750    0.0000 C   0  0  0  0  0  0  0  0  0  0  0  0
    4.6708    4.3875    0.0000 C   0  0  0  0  0  0  0  0  0  0  0  0
    1.8958    2.6583    0.0000 O   0  0  0  0  0  0  0  0  0  0  0  0
    3.3250    1.8333    0.0000 O   0  0  0  0  0  0  0  0  0  0  0  0
    1.3708    0.1042    0.0000 C   0  0  0  0  0  0  0  0  0  0  0  0
    3.0208    2.9625    0.0000 N   0  0  0  0  0  0  0  0  0  0  0  0
    1.3708   -1.3250    0.0000 O   0  0  0  0  0  0  0  0  0  0  0  0
    2.6083    0.8167    0.0000 C   0  0  0  0  0  0  0  0  0  0  0  0
    1.3708    1.5333    0.0000 C   0  0  0  0  0  0  0  0  0  0  0  0
    2.1958    0.1042    0.0000 C   0  0  0  0  0  0  0  0  0  0  0  0
    0.9583    0.8167    0.0000 C   0  0  0  0  0  0  0  0  0  0  0  0
    0.1333   -0.6083    0.0000 N   0  0  0  0  0  0  0  0  0  0  0  0
    3.8458    2.9625    0.0000 C   0  0  0  0  0  0  0  0  0  0  0  0
   -1.5167   -2.0375    0.0000 C   0  0  0  0  0  0  0  0  0  0  0  0
   -4.3250   -1.2125    0.0000 C   0  0  0  0  0  0  0  0  0  0  0  0
   -4.3250   -2.8625    0.0000 C   0  0  0  0  0  0  0  0  0  0  0  0
   -0.2792   -1.3250    0.0000 C   0  0  0  0  0  0  0  0  0  0  0  0
   -1.1042   -1.3250    0.0000 C   0  0  0  0  0  0  0  0  0  0  0  0
   -5.0417   -1.6250    0.0000 C   0  0  0  0  0  0  0  0  0  0  0  0
   -5.0417   -2.4500    0.0000 C   0  0  0  0  0  0  0  0  0  0  0  0
  2  4  2  0  0  0  0
  3  4  1  0  0  0  0
  4 22  1  0  0  0  0
  5  2  1  0  0  0  0
  6  3  1  0  0  0  0
  6  5  2  0  0  0  0
  7 13  1  0  0  0  0
  8  1  1  0  0  0  0
  9 21  1  0  0  0  0
 10  9  3  0  0  0  0
 11  1  2  0  0  0  0
 12  1  2  0  0  0  0
 13 19  2  0  0  0  0
 14  1  1  0  0  0  0
 15  7  2  0  0  0  0
 16  8  1  0  0  0  0
 17  8  2  0  0  0  0
 18 16  2  0  0  0  0
 18 13  1  0  0  0  0
 19 17  1  0  0  0  0
 20  7  1  0  0  0  0
 21 14  1  0  0  0  0
 22 26  1  0  0  0  0
 23  5  1  0  0  0  0
 24  6  1  0  0  0  0
 25 20  1  0  0  0  0
 26 25  1  0  0  0  0
 27 23  2  0  0  0  0
 28 24  2  0  0  0  0
 28 27  1  0  0  0  0
M  END
> <CdId>
3121

> <Mol Weight>
396.463

> <Formula>
C20H20N4O3S

> <Click_ID>
CLK041A06 __ __ 

$$$$
