CLK012_H08
 OpenBabel03181417552D

 25 27  0  0  0  0  0  0  0  0999 V2000
    1.5664   -0.8165    0.0000 N   0  0  0  0  0  0  0  0  0  0  0  0
    1.8246   -1.6039    0.0000 C   0  0  0  0  0  0  0  0  0  0  0  0
    2.9036   -0.8165    0.0000 C   0  0  0  0  0  0  0  0  0  0  0  0
    2.2370   -0.3291    0.0000 C   0  0  0  0  0  0  0  0  0  0  0  0
    2.6494   -1.6039    0.0000 S   0  0  0  0  0  0  0  0  0  0  0  0
    7.3026    1.9746    0.0000 N   0  3  0  0  0  0  0  0  0  0  0  0
    3.6909   -0.5624    0.0000 C   0  0  0  0  0  0  0  0  0  0  0  0
    4.5240    1.3872    0.0000 C   0  0  0  0  0  0  0  0  0  0  0  0
    4.6032    0.5707    0.0000 O   0  0  0  0  0  0  0  0  0  0  0  0
    3.8534    0.2374    0.0000 C   0  0  0  0  0  0  0  0  0  0  0  0
    3.7034    1.5622    0.0000 C   0  0  0  0  0  0  0  0  0  0  0  0
    6.5236    2.2328    0.0000 C   0  0  0  0  0  0  0  0  0  0  0  0
    5.1281    1.9371    0.0000 C   0  0  0  0  0  0  0  0  0  0  0  0
    0.6124    0.2457    0.0000 C   0  0  0  0  0  0  0  0  0  0  0  0
    3.3035    0.8498    0.0000 C   0  0  0  0  0  0  0  0  0  0  0  0
    5.9154    1.6829    0.0000 C   0  0  0  0  0  0  0  0  0  0  0  0
    0.3916    1.0456    0.0000 C   0  0  0  0  0  0  0  0  0  0  0  0
    7.4776    1.1747    0.0000 O   0  5  0  0  0  0  0  0  0  0  0  0
    1.3372   -2.2662    0.0000 O   0  0  0  0  0  0  0  0  0  0  0  0
    7.9275    2.5203    0.0000 O   0  0  0  0  0  0  0  0  0  0  0  0
    2.2287    0.4957    0.0000 O   0  0  0  0  0  0  0  0  0  0  0  0
    0.7873   -0.5624    0.0000 C   0  0  0  0  0  0  0  0  0  0  0  0
    6.3528    3.0451    0.0000 C   0  0  0  0  0  0  0  0  0  0  0  0
    4.9614    2.7452    0.0000 C   0  0  0  0  0  0  0  0  0  0  0  0
    5.5738    3.2951    0.0000 C   0  0  0  0  0  0  0  0  0  0  0  0
  2  1  1  0  0  0  0
  3  4  1  0  0  0  0
  4  1  1  0  0  0  0
  5  2  1  0  0  0  0
  5  3  1  0  0  0  0
  6 12  1  0  0  0  0
  7  3  2  0  0  0  0
  8  9  1  0  0  0  0
  9 10  1  0  0  0  0
 10  7  1  0  0  0  0
 11 15  1  0  0  0  0
 11  8  2  0  0  0  0
 12 16  1  0  0  0  0
 13  8  1  0  0  0  0
 14 22  1  0  0  0  0
 15 10  2  0  0  0  0
 16 13  2  0  0  0  0
 17 14  3  0  0  0  0
 18  6  1  0  0  0  0
 19  2  2  0  0  0  0
 20  6  2  0  0  0  0
 21  4  2  0  0  0  0
 22  1  1  0  0  0  0
 23 25  1  0  0  0  0
 23 12  2  0  0  0  0
 24 13  1  0  0  0  0
 25 24  2  0  0  0  0
M  END
> <CdId>
913

> <Mol Weight>
354.337

> <Formula>
C17H10N2O5S

> <Click_ID>
CLK012_H08 __ __ 

$$$$
