CLK026_E06
 OpenBabel03181417552D

 29 31  0  0  0  0  0  0  0  0999 V2000
    2.4856    0.4114    0.0000 N   0  0  0  0  0  0  0  0  0  0  0  0
    3.1987    0.8194    0.0000 C   0  0  0  0  0  0  0  0  0  0  0  0
    1.7759    1.6457    0.0000 C   0  0  0  0  0  0  0  0  0  0  0  0
    1.7759    0.8194    0.0000 C   0  0  0  0  0  0  0  0  0  0  0  0
    3.1987    1.6457    0.0000 N   0  0  0  0  0  0  0  0  0  0  0  0
    2.4856    2.0605    0.0000 C   0  0  0  0  0  0  0  0  0  0  0  0
    1.0594    2.0571    0.0000 C   0  0  0  0  0  0  0  0  0  0  0  0
    2.4856   -0.4149    0.0000 C   0  0  0  0  0  0  0  0  0  0  0  0
    3.9153    0.4046    0.0000 S   0  0  0  0  0  0  0  0  0  0  0  0
   -3.2056    0.4046    0.0000 C   0  0  0  0  0  0  0  0  0  0  0  0
   -3.9187   -0.0035    0.0000 C   0  0  0  0  0  0  0  0  0  0  0  0
    1.0594    0.4046    0.0000 O   0  0  0  0  0  0  0  0  0  0  0  0
   -0.3634    0.4046    0.0000 C   0  0  0  0  0  0  0  0  0  0  0  0
    2.4856    2.8867    0.0000 O   0  0  0  0  0  0  0  0  0  0  0  0
    0.3462    1.6457    0.0000 C   0  0  0  0  0  0  0  0  0  0  0  0
    0.3497    0.8194    0.0000 C   0  0  0  0  0  0  0  0  0  0  0  0
   -1.0662    0.8194    0.0000 C   0  0  0  0  0  0  0  0  0  0  0  0
    3.1987   -0.8194    0.0000 C   0  0  0  0  0  0  0  0  0  0  0  0
    1.7623   -0.8194    0.0000 C   0  0  0  0  0  0  0  0  0  0  0  0
   -1.0765    1.6319    0.0000 C   0  0  0  0  0  0  0  0  0  0  0  0
   -0.3532    2.0433    0.0000 C   0  0  0  0  0  0  0  0  0  0  0  0
    2.4753   -2.0571    0.0000 C   0  0  0  0  0  0  0  0  0  0  0  0
    3.1885   -1.6457    0.0000 C   0  0  0  0  0  0  0  0  0  0  0  0
    1.7623   -1.6457    0.0000 C   0  0  0  0  0  0  0  0  0  0  0  0
   -0.3634   -0.4080    0.0000 O   0  0  0  0  0  0  0  0  0  0  0  0
    2.4650   -2.8834    0.0000 F   0  0  0  0  0  0  0  0  0  0  0  0
   -1.7897    0.4046    0.0000 O   0  0  0  0  0  0  0  0  0  0  0  0
   -2.4891    0.8194    0.0000 C   0  0  0  0  0  0  0  0  0  0  0  0
    0.3462   -0.8194    0.0000 C   0  0  0  0  0  0  0  0  0  0  0  0
  2  1  1  0  0  0  0
  3  4  1  0  0  0  0
  4  1  1  0  0  0  0
  5  2  1  0  0  0  0
  5  6  1  0  0  0  0
  6  3  1  0  0  0  0
  7  3  2  0  0  0  0
  8  1  1  0  0  0  0
  9  2  2  0  0  0  0
 10 28  1  0  0  0  0
 11 10  3  0  0  0  0
 12  4  2  0  0  0  0
 13 16  1  0  0  0  0
 13 17  2  0  0  0  0
 14  6  2  0  0  0  0
 15  7  1  0  0  0  0
 16 15  2  0  0  0  0
 17 20  1  0  0  0  0
 18  8  1  0  0  0  0
 19  8  2  0  0  0  0
 20 21  2  0  0  0  0
 21 15  1  0  0  0  0
 22 24  2  0  0  0  0
 23 18  2  0  0  0  0
 23 22  1  0  0  0  0
 24 19  1  0  0  0  0
 25 13  1  0  0  0  0
 26 22  1  0  0  0  0
 27 17  1  0  0  0  0
 28 27  1  0  0  0  0
 29 25  1  0  0  0  0
M  END
> <CdId>
1981

> <Mol Weight>
410.418

> <Formula>
C21H15FN2O4S

> <Click_ID>
CLK026_E06 __ __ 

$$$$
