CLK004_C10
 OpenBabel03181417552D

 27 29  0  0  0  0  0  0  0  0999 V2000
    0.9323    0.4436    0.0000 C   0  0  3  0  0  0  0  0  0  0  0  0
    1.3447   -0.2704    0.0000 C   0  0  0  0  0  0  0  0  0  0  0  0
    0.1039    0.4436    0.0000 C   0  0  0  0  0  0  0  0  0  0  0  0
    1.3516    1.1541    0.0000 C   0  0  0  0  0  0  0  0  0  0  0  0
    2.1765   -0.2807    0.0000 C   0  0  0  0  0  0  0  0  0  0  0  0
    0.9323   -0.9878    0.0000 C   0  0  0  0  0  0  0  0  0  0  0  0
   -0.3085   -0.2599    0.0000 C   0  0  0  0  0  0  0  0  0  0  0  0
   -0.3085    1.1749    0.0000 C   0  0  0  0  0  0  0  0  0  0  0  0
    2.1765    1.1472    0.0000 C   0  0  0  0  0  0  0  0  0  0  0  0
    0.9357    1.8785    0.0000 C   0  0  0  0  0  0  0  0  0  0  0  0
    2.5820    0.4332    0.0000 O   0  0  0  0  0  0  0  0  0  0  0  0
    2.5820   -0.9878    0.0000 C   0  0  0  0  0  0  0  0  0  0  0  0
    1.3378   -1.7052    0.0000 C   0  0  0  0  0  0  0  0  0  0  0  0
    0.1039   -0.9878    0.0000 O   0  0  0  0  0  0  0  0  0  0  0  0
   -1.1298   -0.2599    0.0000 C   0  0  0  0  0  0  0  0  0  0  0  0
   -1.1229    1.1749    0.0000 C   0  0  0  0  0  0  0  0  0  0  0  0
    2.5959    1.8646    0.0000 N   0  0  0  0  0  0  0  0  0  0  0  0
    0.5337    2.5924    0.0000 N   0  0  0  0  0  0  0  0  0  0  0  0
    2.1765   -1.7052    0.0000 C   0  0  0  0  0  0  0  0  0  0  0  0
   -1.5526    0.4575    0.0000 C   0  0  0  0  0  0  0  0  0  0  0  0
   -1.5526   -0.9635    0.0000 O   0  0  0  0  0  0  0  0  0  0  0  0
   -2.3741    0.4575    0.0000 O   0  0  0  0  0  0  0  0  0  0  0  0
   -1.1367   -1.6775    0.0000 C   0  0  0  0  0  0  0  0  0  0  0  0
   -2.7831   -0.2460    0.0000 C   0  0  0  0  0  0  0  0  0  0  0  0
   -1.5526   -2.3914    0.0000 C   0  0  0  0  0  0  0  0  0  0  0  0
   -3.6113   -0.2530    0.0000 C   0  0  0  0  0  0  0  0  0  0  0  0
   -4.4293   -0.2460    0.0000 C   0  0  0  0  0  0  0  0  0  0  0  0
  1  2  1  0  0  0  0
  1  3  1  0  0  0  0
  1  4  1  0  0  0  0
  2  5  2  0  0  0  0
  2  6  1  0  0  0  0
  3  7  1  0  0  0  0
  3  8  2  0  0  0  0
  4  9  2  0  0  0  0
  4 10  1  0  0  0  0
  5 11  1  0  0  0  0
  5 12  1  0  0  0  0
  6 13  1  0  0  0  0
  6 14  2  0  0  0  0
  7 15  2  0  0  0  0
  8 16  1  0  0  0  0
  9 17  1  0  0  0  0
  9 11  1  0  0  0  0
 10 18  3  0  0  0  0
 12 19  1  0  0  0  0
 13 19  1  0  0  0  0
 15 20  1  0  0  0  0
 15 21  1  0  0  0  0
 16 20  2  0  0  0  0
 20 22  1  0  0  0  0
 21 23  1  0  0  0  0
 22 24  1  0  0  0  0
 23 25  1  0  0  0  0
 24 26  1  0  0  0  0
 26 27  3  0  0  0  0
M  END
> <CdId>
269

> <Mol Weight>
364.3945

> <Formula>
C21H20N2O4

> <Click_ID>
CLK004_C10 __ __ 

$$$$
