CLK020_C09
 OpenBabel03181417552D

 26 27  0  0  0  0  0  0  0  0999 V2000
    1.8447   -1.8489    0.0000 C   0  0  0  0  0  0  0  0  0  0  0  0
    3.2669   -1.8489    0.0000 N   0  0  0  0  0  0  0  0  0  0  0  0
    3.2669   -2.6771    0.0000 C   0  0  0  0  0  0  0  0  0  0  0  0
    2.5516   -1.4306    0.0000 C   0  0  0  0  0  0  0  0  0  0  0  0
    2.5516   -3.0870    0.0000 N   0  0  0  0  0  0  0  0  0  0  0  0
    1.8447   -2.6771    0.0000 C   0  0  0  0  0  0  0  0  0  0  0  0
    1.1211   -1.4348    0.0000 C   0  0  0  0  0  0  0  0  0  0  0  0
    3.9906   -3.0913    0.0000 S   0  0  0  0  0  0  0  0  0  0  0  0
   -3.1581   -3.0913    0.0000 C   0  0  0  0  0  0  0  0  0  0  0  0
   -3.8734   -3.5012    0.0000 C   0  0  0  0  0  0  0  0  0  0  0  0
    2.5516   -0.6023    0.0000 O   0  0  0  0  0  0  0  0  0  0  0  0
   -0.2970   -3.0913    0.0000 C   0  0  0  0  0  0  0  0  0  0  0  0
    1.1211   -3.0913    0.0000 O   0  0  0  0  0  0  0  0  0  0  0  0
    0.4058   -1.8489    0.0000 C   0  0  0  0  0  0  0  0  0  0  0  0
    0.4141   -2.6729    0.0000 C   0  0  0  0  0  0  0  0  0  0  0  0
   -1.0039   -2.6855    0.0000 C   0  0  0  0  0  0  0  0  0  0  0  0
    3.9906   -1.4348    0.0000 C   0  0  0  0  0  0  0  0  0  0  0  0
    3.9906   -0.6066    0.0000 C   0  0  0  0  0  0  0  0  0  0  0  0
   -1.0122   -1.8615    0.0000 C   0  0  0  0  0  0  0  0  0  0  0  0
    4.7101   -0.2008    0.0000 C   0  0  0  0  0  0  0  0  0  0  0  0
   -0.2970   -1.4473    0.0000 C   0  0  0  0  0  0  0  0  0  0  0  0
   -0.2970   -3.9069    0.0000 O   0  0  0  0  0  0  0  0  0  0  0  0
   -1.7275   -3.0913    0.0000 O   0  0  0  0  0  0  0  0  0  0  0  0
   -2.4345   -2.6771    0.0000 C   0  0  0  0  0  0  0  0  0  0  0  0
    0.4183   -4.3168    0.0000 C   0  0  0  0  0  0  0  0  0  0  0  0
    0.4183   -5.1367    0.0000 C   0  0  0  0  0  0  0  0  0  0  0  0
  2  4  1  0  0  0  0
  3  5  1  0  0  0  0
  3  2  1  0  0  0  0
  4  1  1  0  0  0  0
  5  6  1  0  0  0  0
  6  1  1  0  0  0  0
  7  1  2  0  0  0  0
  8  3  2  0  0  0  0
  9 24  1  0  0  0  0
 10  9  3  0  0  0  0
 11  4  2  0  0  0  0
 12 15  1  0  0  0  0
 13  6  2  0  0  0  0
 14  7  1  0  0  0  0
 15 14  2  0  0  0  0
 16 19  1  0  0  0  0
 16 12  2  0  0  0  0
 17  2  1  0  0  0  0
 18 17  1  0  0  0  0
 19 21  2  0  0  0  0
 20 18  2  0  0  0  0
 21 14  1  0  0  0  0
 22 12  1  0  0  0  0
 23 16  1  0  0  0  0
 24 23  1  0  0  0  0
 25 22  1  0  0  0  0
 26 25  1  0  0  0  0
M  END
> <CdId>
1504

> <Mol Weight>
370.422

> <Formula>
C19H18N2O4S

> <Click_ID>
CLK020_C09 __ __ 

$$$$
