CLK040F06
 OpenBabel03181417552D

 23 25  0  0  0  0  0  0  0  0999 V2000
   -1.1625   -0.8625    0.0000 S   0  0  0  0  0  0  0  0  0  0  0  0
   -1.8750   -0.4500    0.0000 N   0  0  0  0  0  0  0  0  0  0  0  0
   -0.4458   -0.4500    0.0000 C   0  0  0  0  0  0  0  0  0  0  0  0
   -1.8750    0.3750    0.0000 C   0  0  0  0  0  0  0  0  0  0  0  0
   -1.1625    0.7875    0.0000 N   0  0  0  0  0  0  0  0  0  0  0  0
   -0.4458    0.3750    0.0000 C   0  0  0  0  0  0  0  0  0  0  0  0
    0.2667   -0.8625    0.0000 C   0  0  0  0  0  0  0  0  0  0  0  0
   -0.9167   -1.6500    0.0000 O   0  0  0  0  0  0  0  0  0  0  0  0
   -1.4042   -1.6500    0.0000 O   0  0  0  0  0  0  0  0  0  0  0  0
    0.9833   -0.4500    0.0000 C   0  0  0  0  0  0  0  0  0  0  0  0
    1.6958   -0.8625    0.0000 C   0  0  0  0  0  0  0  0  0  0  0  0
    0.2667    0.7875    0.0000 C   0  0  0  0  0  0  0  0  0  0  0  0
    3.8417   -0.4500    0.0000 C   0  0  0  0  0  0  0  0  0  0  0  0
    4.5542   -0.0375    0.0000 C   0  0  0  0  0  0  0  0  0  0  0  0
    0.9833    0.3750    0.0000 C   0  0  0  0  0  0  0  0  0  0  0  0
    1.6958   -1.6875    0.0000 O   0  0  0  0  0  0  0  0  0  0  0  0
    2.4125   -0.4500    0.0000 N   0  0  0  0  0  0  0  0  0  0  0  0
   -1.0375    1.6042    0.0000 C   0  0  0  0  0  0  0  0  0  0  0  0
   -2.6417    0.6750    0.0000 C   0  0  0  0  0  0  0  0  0  0  0  0
    3.1250   -0.8625    0.0000 C   0  0  0  0  0  0  0  0  0  0  0  0
   -1.6000    2.2083    0.0000 C   0  0  0  0  0  0  0  0  0  0  0  0
   -2.8875    1.4625    0.0000 C   0  0  0  0  0  0  0  0  0  0  0  0
   -2.4208    2.1458    0.0000 C   0  0  0  0  0  0  0  0  0  0  0  0
  2  1  1  0  0  0  0
  3  1  1  0  0  0  0
  4  2  2  0  0  0  0
  4  5  1  0  0  0  0
  5  6  1  0  0  0  0
  6  3  2  0  0  0  0
  7  3  1  0  0  0  0
  8  1  2  0  0  0  0
  9  1  2  0  0  0  0
 10  7  2  0  0  0  0
 11 10  1  0  0  0  0
 12  6  1  0  0  0  0
 12 15  2  0  0  0  0
 13 20  1  0  0  0  0
 14 13  3  0  0  0  0
 15 10  1  0  0  0  0
 16 11  2  0  0  0  0
 17 11  1  0  0  0  0
 18  5  1  0  0  0  0
 19  4  1  0  0  0  0
 20 17  1  0  0  0  0
 21 18  1  0  0  0  0
 22 19  1  0  0  0  0
 23 22  1  0  0  0  0
 23 21  1  0  0  0  0
M  END
> <CdId>
3046

> <Mol Weight>
331.389

> <Formula>
C16H17N3O3S

> <Click_ID>
CLK040F06 __ __ 

$$$$
