CLK010_C09
 OpenBabel03181417552D

 31 34  0  0  0  0  0  0  0  0999 V2000
    2.5094   -1.0814    0.0000 N   0  0  0  0  0  0  0  0  0  0  0  0
    1.0898   -1.0814    0.0000 C   0  0  0  0  0  0  0  0  0  0  0  0
    1.7954   -0.6639    0.0000 C   0  0  0  0  0  0  0  0  0  0  0  0
    2.5094   -1.9081    0.0000 C   0  0  0  0  0  0  0  0  0  0  0  0
    1.7954   -2.3173    0.0000 N   0  0  0  0  0  0  0  0  0  0  0  0
    1.0898   -1.9081    0.0000 C   0  0  0  0  0  0  0  0  0  0  0  0
    3.2317   -0.6681    0.0000 C   0  0  0  0  0  0  0  0  0  0  0  0
    0.3675   -0.6681    0.0000 C   0  0  0  0  0  0  0  0  0  0  0  0
    3.2317    0.1586    0.0000 C   0  0  0  0  0  0  0  0  0  0  0  0
    3.9499    0.5637    0.0000 C   0  0  0  0  0  0  0  0  0  0  0  0
   -3.9039   -2.3215    0.0000 C   0  0  0  0  0  0  0  0  0  0  0  0
    3.2317   -2.3215    0.0000 O   0  0  0  0  0  0  0  0  0  0  0  0
   -4.6179   -2.7306    0.0000 C   0  0  0  0  0  0  0  0  0  0  0  0
    1.7954    0.1628    0.0000 O   0  0  0  0  0  0  0  0  0  0  0  0
   -1.0480   -2.3215    0.0000 C   0  0  0  0  0  0  0  0  0  0  0  0
    4.6638    0.1461    0.0000 C   0  0  0  0  0  0  0  0  0  0  0  0
    4.1335    1.3736    0.0000 O   0  0  0  0  0  0  0  0  0  0  0  0
    0.3675   -2.3215    0.0000 O   0  0  0  0  0  0  0  0  0  0  0  0
   -0.3465   -1.0814    0.0000 C   0  0  0  0  0  0  0  0  0  0  0  0
    5.2776    0.6972    0.0000 O   0  0  0  0  0  0  0  0  0  0  0  0
    3.9457   -1.0898    0.0000 C   0  0  0  0  0  0  0  0  0  0  0  0
    4.9519    1.4488    0.0000 C   0  0  0  0  0  0  0  0  0  0  0  0
   -0.3340   -1.9081    0.0000 C   0  0  0  0  0  0  0  0  0  0  0  0
   -1.7619   -1.9081    0.0000 C   0  0  0  0  0  0  0  0  0  0  0  0
    4.6638   -0.6806    0.0000 C   0  0  0  0  0  0  0  0  0  0  0  0
   -1.7619   -1.0940    0.0000 C   0  0  0  0  0  0  0  0  0  0  0  0
   -1.0480   -0.6806    0.0000 C   0  0  0  0  0  0  0  0  0  0  0  0
   -1.0522   -3.1357    0.0000 O   0  0  0  0  0  0  0  0  0  0  0  0
   -2.4759   -2.3215    0.0000 O   0  0  0  0  0  0  0  0  0  0  0  0
   -3.1816   -1.9081    0.0000 C   0  0  0  0  0  0  0  0  0  0  0  0
   -0.3465   -3.5490    0.0000 C   0  0  0  0  0  0  0  0  0  0  0  0
  2  3  1  0  0  0  0
  2  6  1  0  0  0  0
  3  1  1  0  0  0  0
  4  1  1  0  0  0  0
  5  4  1  0  0  0  0
  6  5  1  0  0  0  0
  7  1  1  0  0  0  0
  8  2  2  0  0  0  0
  9  7  1  0  0  0  0
 10  9  2  0  0  0  0
 10 16  1  0  0  0  0
 11 30  1  0  0  0  0
 12  4  2  0  0  0  0
 13 11  3  0  0  0  0
 14  3  2  0  0  0  0
 15 23  1  0  0  0  0
 15 24  2  0  0  0  0
 16 25  2  0  0  0  0
 17 10  1  0  0  0  0
 18  6  2  0  0  0  0
 19  8  1  0  0  0  0
 20 16  1  0  0  0  0
 20 22  1  0  0  0  0
 21  7  2  0  0  0  0
 22 17  1  0  0  0  0
 23 19  2  0  0  0  0
 24 26  1  0  0  0  0
 25 21  1  0  0  0  0
 26 27  2  0  0  0  0
 27 19  1  0  0  0  0
 28 15  1  0  0  0  0
 29 24  1  0  0  0  0
 30 29  1  0  0  0  0
 31 28  1  0  0  0  0
M  END
> <CdId>
704

> <Mol Weight>
420.3716

> <Formula>
C22H16N2O7

> <Click_ID>
CLK010_C09 __ __ 

$$$$
