CLK004_B02
 OpenBabel03181417552D

 27 29  0  0  0  0  0  0  0  0999 V2000
   -0.0647    0.1256    0.0000 C   0  0  3  0  0  0  0  0  0  0  0  0
   -0.4854   -0.5730    0.0000 N   0  0  0  0  0  0  0  0  0  0  0  0
   -0.4702    0.8471    0.0000 C   0  0  0  0  0  0  0  0  0  0  0  0
    0.7596    0.1199    0.0000 C   0  0  0  0  0  0  0  0  0  0  0  0
   -0.0799   -1.2945    0.0000 C   0  0  0  0  0  0  0  0  0  0  0  0
   -1.3097   -0.5711    0.0000 C   0  0  0  0  0  0  0  0  0  0  0  0
   -0.0514    1.5591    0.0000 C   0  0  0  0  0  0  0  0  0  0  0  0
   -1.2964    0.8548    0.0000 C   0  0  0  0  0  0  0  0  0  0  0  0
    1.1784    0.8338    0.0000 N   0  0  0  0  0  0  0  0  0  0  0  0
    1.0451   -0.3731    0.0000 O   0  0  0  0  0  0  0  0  0  0  0  0
   -0.4987   -2.0065    0.0000 C   0  0  0  0  0  0  0  0  0  0  0  0
   -1.7152    0.1447    0.0000 C   0  0  0  0  0  0  0  0  0  0  0  0
   -1.7285   -1.2812    0.0000 O   0  0  0  0  0  0  0  0  0  0  0  0
   -0.4588    2.2768    0.0000 C   0  0  0  0  0  0  0  0  0  0  0  0
    0.5254    1.5553    0.0000 F   0  0  0  0  0  0  0  0  0  0  0  0
   -1.7000    1.5743    0.0000 C   0  0  0  0  0  0  0  0  0  0  0  0
    2.0027    0.8262    0.0000 C   0  0  0  0  0  0  0  0  0  0  0  0
   -1.3155   -2.0845    0.0000 C   0  0  0  0  0  0  0  0  0  0  0  0
   -0.1694   -2.7622    0.0000 O   0  0  0  0  0  0  0  0  0  0  0  0
   -2.1207    0.8604    0.0000 C   0  0  0  0  0  0  0  0  0  0  0  0
   -1.2850    2.2844    0.0000 C   0  0  0  0  0  0  0  0  0  0  0  0
    2.4900    1.4906    0.0000 C   0  0  0  0  0  0  0  0  0  0  0  0
    2.4824    0.1542    0.0000 C   0  0  0  0  0  0  0  0  0  0  0  0
   -1.4944   -2.8878    0.0000 C   0  0  0  0  0  0  0  0  0  0  0  0
   -0.7824   -3.3067    0.0000 C   0  0  0  0  0  0  0  0  0  0  0  0
    3.2743    1.2298    0.0000 C   0  0  0  0  0  0  0  0  0  0  0  0
    3.2667    0.4017    0.0000 C   0  0  0  0  0  0  0  0  0  0  0  0
  1  2  1  0  0  0  0
  1  3  1  0  0  0  0
  1  4  1  0  0  0  0
  2  5  1  0  0  0  0
  2  6  1  0  0  0  0
  3  7  2  0  0  0  0
  3  8  1  0  0  0  0
  4  9  1  0  0  0  0
  4 10  2  0  0  0  0
  5 11  1  0  0  0  0
  6 12  1  0  0  0  0
  6 13  2  0  0  0  0
  7 14  1  0  0  0  0
  7 15  1  0  0  0  0
  8 16  2  0  0  0  0
  9 17  1  0  0  0  0
 11 18  2  0  0  0  0
 11 19  1  0  0  0  0
 12 20  3  0  0  0  0
 14 21  2  0  0  0  0
 16 21  1  0  0  0  0
 17 22  1  0  0  0  0
 17 23  1  0  0  0  0
 18 24  1  0  0  0  0
 19 25  1  0  0  0  0
 22 26  1  0  0  0  0
 23 27  1  0  0  0  0
 24 25  2  0  0  0  0
 26 27  1  0  0  0  0
M  END
> <CdId>
251

> <Mol Weight>
368.4014

> <Formula>
C21H21FN2O3

> <Click_ID>
CLK004_B02 __ __ 

$$$$
