CLK011_D07
 OpenBabel03181417552D

 18 18  0  0  0  0  0  0  0  0999 V2000
    1.5214    2.5523    0.0000 C   0  0  0  0  0  0  0  0  0  0  0  0
    0.8023    2.1450    0.0000 C   0  0  0  0  0  0  0  0  0  0  0  0
    2.2365    2.1408    0.0000 C   0  0  0  0  0  0  0  0  0  0  0  0
    2.2614    4.6059    0.0000 C   0  0  0  0  0  0  0  0  0  0  0  0
    2.2697    5.4373    0.0000 C   0  0  0  0  0  0  0  0  0  0  0  0
    0.8023    1.3219    0.0000 C   0  0  0  0  0  0  0  0  0  0  0  0
    2.2323    1.3094    0.0000 C   0  0  0  0  0  0  0  0  0  0  0  0
    1.5132    0.9062    0.0000 C   0  0  0  0  0  0  0  0  0  0  0  0
    3.6581    2.1450    0.0000 C   0  0  0  0  0  0  0  0  0  0  0  0
    0.8023   -0.3367    0.0000 O   0  0  0  0  0  0  0  0  0  0  0  0
    4.3690    2.5565    0.0000 C   0  0  0  0  0  0  0  0  0  0  0  0
    1.5132    0.0748    0.0000 C   0  0  0  0  0  0  0  0  0  0  0  0
    0.1040    2.5648    0.0000 O   0  0  0  0  0  0  0  0  0  0  0  0
    1.5339    3.3879    0.0000 O   0  0  0  0  0  0  0  0  0  0  0  0
    2.9431    2.5565    0.0000 C   0  0  0  0  0  0  0  0  0  0  0  0
    2.2489    3.7869    0.0000 C   0  0  0  0  0  0  0  0  0  0  0  0
   -0.6069    2.1574    0.0000 C   0  0  0  0  0  0  0  0  0  0  0  0
   -1.3177    2.5773    0.0000 C   0  0  0  0  0  0  0  0  0  0  0  0
  2  1  2  0  0  0  0
  3  1  1  0  0  0  0
  4 16  1  0  0  0  0
  5  4  3  0  0  0  0
  6  2  1  0  0  0  0
  7  3  2  0  0  0  0
  8  7  1  0  0  0  0
  8  6  2  0  0  0  0
  9 15  1  0  0  0  0
 10 12  2  0  0  0  0
 11  9  2  0  0  0  0
 12  8  1  0  0  0  0
 13  2  1  0  0  0  0
 14  1  1  0  0  0  0
 15  3  1  0  0  0  0
 16 14  1  0  0  0  0
 17 13  1  0  0  0  0
 18 17  1  0  0  0  0
M  END
> <CdId>
792

> <Mol Weight>
244.2857

> <Formula>
C15H16O3

> <Click_ID>
CLK011_D07 __ __ 

$$$$
