CLK017_H03
 OpenBabel03181417552D

 29 32  0  0  0  0  0  0  0  0999 V2000
    2.7819   -2.5207    0.0000 C    0  0  0  0  0  0  0  0  0  0  0  0
    2.0532   -1.2970    0.0000 C    0  0  0  0  0  0  0  0  0  0  0  0
    2.0670   -2.1174    0.0000 C    0  0  3  0  0  0  0  0  0  0  0  0
    2.7545   -0.8799    0.0000 C    0  0  0  0  0  0  0  0  0  0  0  0
    3.4923   -2.0945    0.0000 C    0  0  0  0  0  0  0  0  0  0  0  0
    3.4785   -1.2787    0.0000 O    0  0  0  0  0  0  0  0  0  0  0  0
    1.3520   -2.5345    0.0000 C    0  0  0  0  0  0  0  0  0  0  0  0
   -0.0641   -3.3869    0.0000 C    0  0  0  0  0  0  0  0  0  0  0  0
    0.6600   -3.7856    0.0000 C    0  0  0  0  0  0  0  0  0  0  0  0
   -0.0779   -2.5620    0.0000 C    0  0  0  0  0  0  0  0  0  0  0  0
    2.7911   -3.3319    0.0000 C    0  0  0  0  0  0  0  0  0  0  0  0
    1.3383   -0.8937    0.0000 C    0  0  0  0  0  0  0  0  0  0  0  0
    1.3658   -3.3594    0.0000 C    0  0  0  0  0  0  0  0  0  0  0  0
    0.6371   -2.1357    0.0000 C    0  0  0  0  0  0  0  0  0  0  0  0
   -1.4665   -5.0597    0.0000 C    0  0  0  0  0  0  0  0  0  0  0  0
   -1.4528   -5.8846    0.0000 C    0  0  0  0  0  0  0  0  0  0  0  0
    2.0761   -3.7673    0.0000 O    0  0  0  0  0  0  0  0  0  0  0  0
    0.6233   -1.3108    0.0000 O    0  0  0  0  0  0  0  0  0  0  0  0
    0.6737   -4.6106    0.0000 Cl   0  0  0  0  0  0  0  0  0  0  0  0
   -0.7700   -3.8085    0.0000 O    0  0  0  0  0  0  0  0  0  0  0  0
    2.7498   -0.0459    0.0000 C    0  0  0  0  0  0  0  0  0  0  0  0
    4.2119   -2.5023    0.0000 C    0  0  0  0  0  0  0  0  0  0  0  0
   -0.7928   -2.1586    0.0000 O    0  0  0  0  0  0  0  0  0  0  0  0
   -0.7562   -4.6381    0.0000 C    0  0  0  0  0  0  0  0  0  0  0  0
    3.5107   -3.7444    0.0000 C    0  0  0  0  0  0  0  0  0  0  0  0
    1.3245   -0.0734    0.0000 C    0  0  0  0  0  0  0  0  0  0  0  0
    4.2210   -3.3273    0.0000 C    0  0  0  0  0  0  0  0  0  0  0  0
    2.0257    0.3437    0.0000 C    0  0  0  0  0  0  0  0  0  0  0  0
   -0.8066   -1.3337    0.0000 C    0  0  0  0  0  0  0  0  0  0  0  0
  2  3  1  0  0  0  0
  2  4  2  0  0  0  0
  3  1  1  0  0  0  0
  4  6  1  0  0  0  0
  5  1  2  0  0  0  0
  6  5  1  0  0  0  0
  7  3  1  0  0  0  0
  8 10  1  0  0  0  0
  9 13  1  0  0  0  0
  9  8  2  0  0  0  0
 10 14  2  0  0  0  0
 11  1  1  0  0  0  0
 12  2  1  0  0  0  0
 13  7  2  0  0  0  0
 14  7  1  0  0  0  0
 15 24  1  0  0  0  0
 16 15  3  0  0  0  0
 17 11  2  0  0  0  0
 18 12  2  0  0  0  0
 19  9  1  0  0  0  0
 20  8  1  0  0  0  0
 21  4  1  0  0  0  0
 22  5  1  0  0  0  0
 23 10  1  0  0  0  0
 24 20  1  0  0  0  0
 25 11  1  0  0  0  0
 26 12  1  0  0  0  0
 27 25  1  0  0  0  0
 27 22  1  0  0  0  0
 28 21  1  0  0  0  0
 28 26  1  0  0  0  0
 29 23  1  0  0  0  0
M  END
> <CdId>
1308

> <Mol Weight>
412.863

> <Formula>
C23H21ClO5

> <Click_ID>
CLK017_H03 __ __ 

$$$$
