CLK005_G09
 OpenBabel03181417552D

 26 28  0  0  0  0  0  0  0  0999 V2000
   -0.8501    0.1119    0.0000 C   0  0  0  0  0  0  0  0  0  0  0  0
   -1.3515   -0.5402    0.0000 C   0  0  0  0  0  0  0  0  0  0  0  0
   -1.1600    0.8780    0.0000 C   0  0  0  0  0  0  0  0  0  0  0  0
   -0.0345    0.0021    0.0000 N   0  0  0  0  0  0  0  0  0  0  0  0
   -1.0394   -1.2934    0.0000 N   0  0  0  0  0  0  0  0  0  0  0  0
   -2.1693   -0.4304    0.0000 C   0  0  0  0  0  0  0  0  0  0  0  0
   -1.9778    0.9878    0.0000 C   0  0  0  0  0  0  0  0  0  0  0  0
    0.4734    0.6542    0.0000 C   0  0  0  0  0  0  0  0  0  0  0  0
   -0.2217   -1.4032    0.0000 C   0  0  0  0  0  0  0  0  0  0  0  0
   -1.5452   -1.9476    0.0000 C   0  0  0  0  0  0  0  0  0  0  0  0
   -2.4814    0.3357    0.0000 C   0  0  0  0  0  0  0  0  0  0  0  0
   -2.2941    1.7475    0.0000 C   0  0  0  0  0  0  0  0  0  0  0  0
    1.2891    0.5445    0.0000 C   0  0  0  0  0  0  0  0  0  0  0  0
    0.1593    1.4161    0.0000 O   0  0  0  0  0  0  0  0  0  0  0  0
    0.0904   -2.1714    0.0000 C   0  0  0  0  0  0  0  0  0  0  0  0
   -1.2289   -2.7095    0.0000 C   0  0  0  0  0  0  0  0  0  0  0  0
   -1.7884    2.3995    0.0000 N   0  0  0  0  0  0  0  0  0  0  0  0
   -3.1055    1.8616    0.0000 O   0  0  0  0  0  0  0  0  0  0  0  0
    1.6011   -0.2174    0.0000 C   0  0  0  0  0  0  0  0  0  0  0  0
    1.7949    1.1965    0.0000 C   0  0  0  0  0  0  0  0  0  0  0  0
   -0.4110   -2.8235    0.0000 O   0  0  0  0  0  0  0  0  0  0  0  0
    2.4190   -0.3271    0.0000 C   0  0  0  0  0  0  0  0  0  0  0  0
    2.6105    1.0868    0.0000 C   0  0  0  0  0  0  0  0  0  0  0  0
    2.9247    0.3250    0.0000 C   0  0  0  0  0  0  0  0  0  0  0  0
    3.7382    0.2152    0.0000 C   0  0  0  0  0  0  0  0  0  0  0  0
    4.5559    0.1055    0.0000 C   0  0  0  0  0  0  0  0  0  0  0  0
  1  2  1  0  0  0  0
  1  3  2  0  0  0  0
  1  4  1  0  0  0  0
  2  5  1  0  0  0  0
  2  6  2  0  0  0  0
  3  7  1  0  0  0  0
  4  8  1  0  0  0  0
  5  9  1  0  0  0  0
  5 10  1  0  0  0  0
  6 11  1  0  0  0  0
  7 12  1  0  0  0  0
  7 11  2  0  0  0  0
  8 13  1  0  0  0  0
  8 14  2  0  0  0  0
  9 15  1  0  0  0  0
 10 16  1  0  0  0  0
 12 17  1  0  0  0  0
 12 18  2  0  0  0  0
 13 19  1  0  0  0  0
 13 20  2  0  0  0  0
 15 21  1  0  0  0  0
 16 21  1  0  0  0  0
 19 22  2  0  0  0  0
 20 23  1  0  0  0  0
 22 24  1  0  0  0  0
 23 24  2  0  0  0  0
 24 25  1  0  0  0  0
 25 26  3  0  0  0  0
M  END
> <CdId>
388

> <Mol Weight>
349.3832

> <Formula>
C20H19N3O3

> <Click_ID>
CLK005_G09 __ __ 

$$$$
