CLK050G03
 OpenBabel03181417552D

 20 22  0  0  0  0  0  0  0  0999 V2000
   -0.4591    0.9141    0.0000 C   0  0  0  0  0  0  0  0  0  0  0  0
   -1.2439    1.1688    0.0000 C   0  0  0  0  0  0  0  0  0  0  0  0
   -1.2439    1.9953    0.0000 N   0  0  0  0  0  0  0  0  0  0  0  0
   -0.2046    0.1252    0.0000 C   0  0  0  0  0  0  0  0  0  0  0  0
   -0.4591    2.2499    0.0000 N   0  0  0  0  0  0  0  0  0  0  0  0
    0.0250    1.5820    0.0000 C   0  0  0  0  0  0  0  0  0  0  0  0
   -1.9618    0.7556    0.0000 N   0  0  0  0  0  0  0  0  0  0  0  0
    0.6053   -0.0459    0.0000 N   0  0  0  0  0  0  0  0  0  0  0  0
    2.7341   -1.9618    0.0000 C   0  0  0  0  0  0  0  0  0  0  0  0
    3.5397   -2.1330    0.0000 C   0  0  0  0  0  0  0  0  0  0  0  0
   -1.9618    2.4085    0.0000 C   0  0  0  0  0  0  0  0  0  0  0  0
   -2.6756    1.9953    0.0000 C   0  0  0  0  0  0  0  0  0  0  0  0
   -0.7556   -0.4884    0.0000 O   0  0  0  0  0  0  0  0  0  0  0  0
    0.8598   -0.8307    0.0000 C   0  0  0  0  0  0  0  0  0  0  0  0
   -2.6756    1.1688    0.0000 C   0  0  0  0  0  0  0  0  0  0  0  0
    1.9243   -1.7865    0.0000 C   0  0  0  0  0  0  0  0  0  0  0  0
    1.6697   -1.0018    0.0000 C   0  0  0  0  0  0  0  0  0  0  0  0
    0.5635   -2.2290    0.0000 C   0  0  0  0  0  0  0  0  0  0  0  0
    0.3089   -1.4443    0.0000 C   0  0  0  0  0  0  0  0  0  0  0  0
    1.3692   -2.4043    0.0000 C   0  0  0  0  0  0  0  0  0  0  0  0
  2  1  2  0  0  0  0
  3  2  1  0  0  0  0
  3  5  1  0  0  0  0
  4  1  1  0  0  0  0
  5  6  2  0  0  0  0
  6  1  1  0  0  0  0
  7  2  1  0  0  0  0
  8  4  1  0  0  0  0
  9 16  1  0  0  0  0
 10  9  3  0  0  0  0
 11  3  1  0  0  0  0
 12 11  2  0  0  0  0
 13  4  2  0  0  0  0
 14  8  1  0  0  0  0
 15  7  2  0  0  0  0
 15 12  1  0  0  0  0
 16 17  1  0  0  0  0
 17 14  2  0  0  0  0
 18 19  2  0  0  0  0
 19 14  1  0  0  0  0
 20 16  2  0  0  0  0
 20 18  1  0  0  0  0
M  END
> <CdId>
3823

> <Mol Weight>
262.2661

> <Formula>
C15H10N4O

> <Click_ID>
CLK050G03 __ __ 

$$$$
