CLK044C04
 OpenBabel03181417552D

 23 24  0  0  0  0  0  0  0  0999 V2000
   -0.5917    0.5208    0.0000 S   0  0  0  0  0  0  0  0  0  0  0  0
   -0.5917    1.3458    0.0000 N   0  0  0  0  0  0  0  0  0  0  0  0
   -0.5917   -0.3042    0.0000 C   0  0  0  0  0  0  0  0  0  0  0  0
   -0.5917   -2.7792    0.0000 C   0  0  0  0  0  0  0  0  0  0  0  0
    0.8375    3.8208    0.0000 C   0  0  0  0  0  0  0  0  0  0  0  0
   -1.4167    0.5208    0.0000 O   0  0  0  0  0  0  0  0  0  0  0  0
    0.2333    0.5208    0.0000 O   0  0  0  0  0  0  0  0  0  0  0  0
    0.8375    4.6417    0.0000 C   0  0  0  0  0  0  0  0  0  0  0  0
   -0.5917   -1.9542    0.0000 C   0  0  0  0  0  0  0  0  0  0  0  0
    0.1208    1.7583    0.0000 C   0  0  0  0  0  0  0  0  0  0  0  0
   -1.3083   -3.1917    0.0000 O   0  0  0  0  0  0  0  0  0  0  0  0
   -1.3083   -0.7167    0.0000 C   0  0  0  0  0  0  0  0  0  0  0  0
    0.1208   -0.7167    0.0000 C   0  0  0  0  0  0  0  0  0  0  0  0
   -1.3083   -1.5417    0.0000 C   0  0  0  0  0  0  0  0  0  0  0  0
    0.1208   -1.5417    0.0000 C   0  0  0  0  0  0  0  0  0  0  0  0
    0.8375    2.9958    0.0000 C   0  0  0  0  0  0  0  0  0  0  0  0
    0.1208    2.5833    0.0000 C   0  0  0  0  0  0  0  0  0  0  0  0
    0.1208   -3.1917    0.0000 O   0  0  0  0  0  0  0  0  0  0  0  0
    1.5500    1.7583    0.0000 C   0  0  0  0  0  0  0  0  0  0  0  0
    0.8375    1.3458    0.0000 C   0  0  0  0  0  0  0  0  0  0  0  0
    1.5500    2.5833    0.0000 C   0  0  0  0  0  0  0  0  0  0  0  0
    0.1208   -4.0167    0.0000 C   0  0  0  0  0  0  0  0  0  0  0  0
    0.8375   -4.4292    0.0000 C   0  0  0  0  0  0  0  0  0  0  0  0
  2  1  1  0  0  0  0
  3  1  1  0  0  0  0
  4  9  1  0  0  0  0
  5 16  1  0  0  0  0
  6  1  2  0  0  0  0
  7  1  2  0  0  0  0
  8  5  3  0  0  0  0
  9 14  2  0  0  0  0
 10  2  1  0  0  0  0
 11  4  2  0  0  0  0
 12  3  2  0  0  0  0
 13  3  1  0  0  0  0
 14 12  1  0  0  0  0
 15 13  2  0  0  0  0
 15  9  1  0  0  0  0
 16 17  1  0  0  0  0
 17 10  2  0  0  0  0
 18  4  1  0  0  0  0
 19 20  2  0  0  0  0
 20 10  1  0  0  0  0
 21 16  2  0  0  0  0
 21 19  1  0  0  0  0
 22 18  1  0  0  0  0
 23 22  1  0  0  0  0
M  END
> <CdId>
3347

> <Mol Weight>
329.37

> <Formula>
C17H15NO4S

> <Click_ID>
CLK044C04 __ __ 

$$$$
