CLK009_H10
 OpenBabel03181417552D

 23 25  0  0  0  0  0  0  0  0999 V2000
    0.8076   -0.0199    0.0000 N   0  0  0  0  0  0  0  0  0  0  0  0
    1.5643    0.3146    0.0000 C   0  0  0  0  0  0  0  0  0  0  0  0
    2.1084   -0.3061    0.0000 N   0  0  0  0  0  0  0  0  0  0  0  0
    0.8870   -0.8530    0.0000 C   0  0  0  0  0  0  0  0  0  0  0  0
    0.0935    0.4166    0.0000 C   0  0  0  0  0  0  0  0  0  0  0  0
    1.7003   -1.0315    0.0000 C   0  0  0  0  0  0  0  0  0  0  0  0
   -0.6263    0.0141    0.0000 C   0  0  0  0  0  0  0  0  0  0  0  0
    2.7063    2.1735    0.0000 C   0  0  0  0  0  0  0  0  0  0  0  0
    3.4941    2.4286    0.0000 C   0  0  0  0  0  0  0  0  0  0  0  0
   -1.3404    0.4307    0.0000 C   0  0  0  0  0  0  0  0  0  0  0  0
    1.7372    1.1193    0.0000 S   0  0  0  0  0  0  0  0  0  0  0  0
    0.1049    1.2327    0.0000 O   0  0  0  0  0  0  0  0  0  0  0  0
   -2.0829    0.0311    0.0000 C   0  0  0  0  0  0  0  0  0  0  0  0
    2.5363    1.3744    0.0000 C   0  0  0  0  0  0  0  0  0  0  0  0
    0.3429   -1.4623    0.0000 C   0  0  0  0  0  0  0  0  0  0  0  0
    1.9497   -1.8137    0.0000 C   0  0  0  0  0  0  0  0  0  0  0  0
   -2.0829   -0.7935    0.0000 C   0  0  0  0  0  0  0  0  0  0  0  0
   -2.7856    0.4392    0.0000 C   0  0  0  0  0  0  0  0  0  0  0  0
    0.5810   -2.2558    0.0000 C   0  0  0  0  0  0  0  0  0  0  0  0
    1.3801   -2.4258    0.0000 C   0  0  0  0  0  0  0  0  0  0  0  0
   -3.4998    0.0340    0.0000 C   0  0  0  0  0  0  0  0  0  0  0  0
   -2.7885   -1.2157    0.0000 C   0  0  0  0  0  0  0  0  0  0  0  0
   -3.5111   -0.8020    0.0000 C   0  0  0  0  0  0  0  0  0  0  0  0
  2  1  1  0  0  0  0
  3  2  2  0  0  0  0
  4  1  1  0  0  0  0
  5  1  1  0  0  0  0
  6  4  1  0  0  0  0
  6  3  1  0  0  0  0
  7  5  1  0  0  0  0
  8 14  1  0  0  0  0
  9  8  3  0  0  0  0
 10  7  2  0  0  0  0
 11  2  1  0  0  0  0
 12  5  2  0  0  0  0
 13 10  1  0  0  0  0
 14 11  1  0  0  0  0
 15  4  2  0  0  0  0
 16  6  2  0  0  0  0
 17 13  1  0  0  0  0
 18 13  2  0  0  0  0
 19 15  1  0  0  0  0
 20 19  2  0  0  0  0
 20 16  1  0  0  0  0
 21 18  1  0  0  0  0
 22 17  2  0  0  0  0
 22 23  1  0  0  0  0
 23 21  2  0  0  0  0
M  END
> <CdId>
675

> <Mol Weight>
318.392

> <Formula>
C19H14N2OS

> <Click_ID>
CLK009_H10 __ __ 

$$$$
