CLK007_C05
 OpenBabel03181417552D

 25 28  0  0  0  0  0  0  0  0999 V2000
   -0.5881   -0.0084    0.0000 C   0  0  3  0  0  0  0  0  0  0  0  0
   -1.1903   -0.1187    0.0000 C   0  0  0  0  0  0  0  0  0  0  0  0
    0.1018    0.4552    0.0000 C   0  0  3  0  0  0  0  0  0  0  0  0
   -0.2969   -0.5513    0.0000 C   0  0  0  0  0  0  0  0  0  0  0  0
   -0.7803    0.6870    0.0000 O   0  0  0  0  0  0  0  0  0  0  0  0
   -1.2808   -0.7266    0.0000 C   0  0  0  0  0  0  0  0  0  0  0  0
   -1.6739    0.2686    0.0000 C   0  0  0  0  0  0  0  0  0  0  0  0
    0.8596    0.0933    0.0000 C   0  0  0  0  0  0  0  0  0  0  0  0
    0.0424    1.2865    0.0000 C   0  0  0  0  0  0  0  0  0  0  0  0
   -0.7266   -0.9924    0.0000 N   0  0  0  0  0  0  0  0  0  0  0  0
    0.3082   -0.6419    0.0000 O   0  0  0  0  0  0  0  0  0  0  0  0
   -1.8463   -0.9529    0.0000 C   0  0  0  0  0  0  0  0  0  0  0  0
   -2.2450    0.0339    0.0000 C   0  0  0  0  0  0  0  0  0  0  0  0
    1.5438    0.5542    0.0000 C   0  0  0  0  0  0  0  0  0  0  0  0
    0.9133   -0.7464    0.0000 O   0  0  0  0  0  0  0  0  0  0  0  0
    0.7380    1.7530    0.0000 C   0  0  0  0  0  0  0  0  0  0  0  0
   -0.6249   -1.5975    0.0000 C   0  0  0  0  0  0  0  0  0  0  0  0
   -2.3355   -0.5740    0.0000 C   0  0  0  0  0  0  0  0  0  0  0  0
    1.4872    1.3855    0.0000 C   0  0  0  0  0  0  0  0  0  0  0  0
    2.2874    0.1894    0.0000 C   0  0  0  0  0  0  0  0  0  0  0  0
   -1.0970   -1.9962    0.0000 C   0  0  0  0  0  0  0  0  0  0  0  0
    2.1743    1.8463    0.0000 C   0  0  0  0  0  0  0  0  0  0  0  0
    2.9801    0.6503    0.0000 C   0  0  0  0  0  0  0  0  0  0  0  0
   -1.6710   -1.7813    0.0000 C   0  0  0  0  0  0  0  0  0  0  0  0
    2.9208    1.4872    0.0000 C   0  0  0  0  0  0  0  0  0  0  0  0
  1  2  1  0  0  0  0
  1  3  1  0  0  0  0
  1  4  1  0  0  0  0
  1  5  1  0  0  0  0
  2  6  2  0  0  0  0
  2  7  1  0  0  0  0
  3  8  1  0  0  0  0
  3  9  1  0  0  0  0
  4 10  1  0  0  0  0
  4 11  2  0  0  0  0
  6 12  1  0  0  0  0
  6 10  1  0  0  0  0
  7 13  2  0  0  0  0
  8 14  1  0  0  0  0
  8 15  2  0  0  0  0
  9 16  1  0  0  0  0
 10 17  1  0  0  0  0
 12 18  2  0  0  0  0
 13 18  1  0  0  0  0
 14 19  2  0  0  0  0
 14 20  1  0  0  0  0
 16 19  1  0  0  0  0
 17 21  1  0  0  0  0
 19 22  1  0  0  0  0
 20 23  2  0  0  0  0
 21 24  3  0  0  0  0
 22 25  2  0  0  0  0
 23 25  1  0  0  0  0
M  END
> <CdId>
504

> <Mol Weight>
331.3646

> <Formula>
C21H17NO3

> <Click_ID>
CLK007_C05 __ __ 

$$$$
