CLK046D08
 OpenBabel03181417552D

 21 22  0  0  0  0  0  0  0  0999 V2000
   -0.5125    3.3625    0.0000 C   0  0  0  0  0  0  0  0  0  0  0  0
   -1.2250   -2.8250    0.0000 C   0  0  0  0  0  0  0  0  0  0  0  0
   -1.2250    3.7750    0.0000 C   0  0  0  0  0  0  0  0  0  0  0  0
   -1.2250   -2.0000    0.0000 C   0  0  0  0  0  0  0  0  0  0  0  0
    0.2000   -0.3500    0.0000 C   0  0  0  0  0  0  0  0  0  0  0  0
   -0.5125   -0.7625    0.0000 N   0  0  0  0  0  0  0  0  0  0  0  0
   -0.5125   -1.5875    0.0000 C   0  0  0  0  0  0  0  0  0  0  0  0
   -0.5125   -3.2375    0.0000 C   0  0  0  0  0  0  0  0  0  0  0  0
    0.9167    0.8875    0.0000 N   0  0  0  0  0  0  0  0  0  0  0  0
    0.9167   -0.7625    0.0000 O   0  0  0  0  0  0  0  0  0  0  0  0
    0.2000   -2.8250    0.0000 C   0  0  0  0  0  0  0  0  0  0  0  0
    0.2000    2.9500    0.0000 C   0  0  0  0  0  0  0  0  0  0  0  0
    0.2000    0.4750    0.0000 C   0  0  0  0  0  0  0  0  0  0  0  0
   -1.9417   -3.2375    0.0000 F   0  0  0  0  0  0  0  0  0  0  0  0
    0.9167    1.7125    0.0000 C   0  0  0  0  0  0  0  0  0  0  0  0
    0.2000   -2.0000    0.0000 C   0  0  0  0  0  0  0  0  0  0  0  0
    0.2000    2.1250    0.0000 C   0  0  0  0  0  0  0  0  0  0  0  0
   -0.5125   -4.0625    0.0000 F   0  0  0  0  0  0  0  0  0  0  0  0
    1.6292    2.9500    0.0000 C   0  0  0  0  0  0  0  0  0  0  0  0
    0.9167    3.3625    0.0000 C   0  0  0  0  0  0  0  0  0  0  0  0
    1.6292    2.1250    0.0000 C   0  0  0  0  0  0  0  0  0  0  0  0
  2  4  1  0  0  0  0
  3  1  3  0  0  0  0
  4  7  2  0  0  0  0
  5 13  1  0  0  0  0
  6  5  1  0  0  0  0
  7  6  1  0  0  0  0
  8  2  2  0  0  0  0
  9 15  1  0  0  0  0
 10  5  2  0  0  0  0
 11 16  2  0  0  0  0
 11  8  1  0  0  0  0
 12  1  1  0  0  0  0
 13  9  1  0  0  0  0
 14  2  1  0  0  0  0
 15 17  2  0  0  0  0
 16  7  1  0  0  0  0
 17 12  1  0  0  0  0
 18  8  1  0  0  0  0
 19 20  1  0  0  0  0
 19 21  2  0  0  0  0
 20 12  2  0  0  0  0
 21 15  1  0  0  0  0
M  END
> <CdId>
3540

> <Mol Weight>
286.2761

> <Formula>
C16H12F2N2O

> <Click_ID>
CLK046D08 __ __ 

$$$$
