CLK041H06
 OpenBabel03181417552D

 26 28  0  0  0  0  0  0  0  0999 V2000
   -0.5500   -0.0917    0.0000 C   0  0  0  0  0  0  0  0  0  0  0  0
    0.1625    0.3208    0.0000 N   0  0  0  0  0  0  0  0  0  0  0  0
   -0.5500   -0.9167    0.0000 C   0  0  0  0  0  0  0  0  0  0  0  0
   -1.2667   -1.3292    0.0000 C   0  0  0  0  0  0  0  0  0  0  0  0
    0.8792    1.5583    0.0000 C   0  0  3  0  0  0  0  0  0  0  0  0
    0.1625    1.1458    0.0000 C   0  0  0  0  0  0  0  0  0  0  0  0
    0.8792    2.3833    0.0000 C   0  0  0  0  0  0  0  0  0  0  0  0
   -1.2667   -2.1542    0.0000 C   0  0  0  0  0  0  0  0  0  0  0  0
    0.1625   -1.3292    0.0000 C   0  0  0  0  0  0  0  0  0  0  0  0
    2.3042    4.0292    0.0000 C   0  0  0  0  0  0  0  0  0  0  0  0
    3.0208    4.4417    0.0000 C   0  0  0  0  0  0  0  0  0  0  0  0
   -1.2667    0.3208    0.0000 O   0  0  0  0  0  0  0  0  0  0  0  0
   -0.5500   -2.5667    0.0000 C   0  0  0  0  0  0  0  0  0  0  0  0
    0.1625    2.7958    0.0000 O   0  0  0  0  0  0  0  0  0  0  0  0
    0.1625   -2.1542    0.0000 C   0  0  0  0  0  0  0  0  0  0  0  0
    1.5917    2.7958    0.0000 N   0  0  0  0  0  0  0  0  0  0  0  0
    0.8792   -0.0917    0.0000 C   0  0  0  0  0  0  0  0  0  0  0  0
    1.5917    3.6208    0.0000 C   0  0  0  0  0  0  0  0  0  0  0  0
    1.5917    1.1458    0.0000 C   0  0  0  0  0  0  0  0  0  0  0  0
   -0.5500   -3.3917    0.0000 O   0  0  0  0  0  0  0  0  0  0  0  0
   -1.9792   -0.9167    0.0000 C   0  0  0  0  0  0  0  0  0  0  0  0
    1.5917    0.3208    0.0000 C   0  0  0  0  0  0  0  0  0  0  0  0
   -1.9792   -2.5667    0.0000 C   0  0  0  0  0  0  0  0  0  0  0  0
    0.1625   -3.8042    0.0000 C   0  0  0  0  0  0  0  0  0  0  0  0
   -2.6958   -1.3292    0.0000 C   0  0  0  0  0  0  0  0  0  0  0  0
   -2.6958   -2.1542    0.0000 C   0  0  0  0  0  0  0  0  0  0  0  0
  2  1  1  0  0  0  0
  3  1  1  0  0  0  0
  4  3  2  0  0  0  0
  5  6  1  0  0  0  0
  6  2  1  0  0  0  0
  7  5  1  0  0  0  0
  8  4  1  0  0  0  0
  9  3  1  0  0  0  0
 10 18  1  0  0  0  0
 11 10  3  0  0  0  0
 12  1  2  0  0  0  0
 13  8  2  0  0  0  0
 14  7  2  0  0  0  0
 15  9  2  0  0  0  0
 15 13  1  0  0  0  0
 16  7  1  0  0  0  0
 17  2  1  0  0  0  0
 18 16  1  0  0  0  0
 19  5  1  0  0  0  0
 19 22  1  0  0  0  0
 20 13  1  0  0  0  0
 21  4  1  0  0  0  0
 22 17  1  0  0  0  0
 23  8  1  0  0  0  0
 24 20  1  0  0  0  0
 25 21  2  0  0  0  0
 26 23  2  0  0  0  0
 26 25  1  0  0  0  0
M  END
> <CdId>
3128

> <Mol Weight>
350.411

> <Formula>
C21H22N2O3

> <Click_ID>
CLK041H06 __ __ 

$$$$
