CLK001_D02
 OpenBabel03181417552D

 31 34  0  0  0  0  0  0  0  0999 V2000
   -0.2551   -0.4705    0.0000 N    0  0  0  0  0  0  0  0  0  0  0  0
   -0.9640   -0.0597    0.0000 C    0  0  0  0  0  0  0  0  0  0  0  0
    0.4671   -0.0597    0.0000 C    0  0  0  0  0  0  0  0  0  0  0  0
   -0.2551   -1.3086    0.0000 C    0  0  0  0  0  0  0  0  0  0  0  0
   -0.9640    0.7785    0.0000 N    0  0  0  0  0  0  0  0  0  0  0  0
   -1.6763   -0.4705    0.0000 N    0  0  0  0  0  0  0  0  0  0  0  0
    1.1761   -0.4705    0.0000 C    0  0  0  0  0  0  0  0  0  0  0  0
    0.4671   -1.7195    0.0000 C    0  0  0  0  0  0  0  0  0  0  0  0
   -1.6763    1.1893    0.0000 C    0  0  0  0  0  0  0  0  0  0  0  0
   -2.3854   -0.0597    0.0000 C    0  0  0  0  0  0  0  0  0  0  0  0
    1.1761   -1.3086    0.0000 N    0  0  0  0  0  0  0  0  0  0  0  0
   -2.3854    0.7785    0.0000 N    0  0  0  0  0  0  0  0  0  0  0  0
   -1.6763    2.0176    0.0000 N    0  0  0  0  0  0  0  0  0  0  0  0
   -3.1076   -0.4506    0.0000 O    0  0  0  0  0  0  0  0  0  0  0  0
    1.8785   -1.7195    0.0000 C    0  0  0  0  0  0  0  0  0  0  0  0
   -0.9640    2.4317    0.0000 C    0  0  0  0  0  0  0  0  0  0  0  0
   -3.1076   -1.2689    0.0000 C    0  0  0  0  0  0  0  0  0  0  0  0
    2.6007   -1.3086    0.0000 C    0  0  0  0  0  0  0  0  0  0  0  0
    1.8785   -2.5476    0.0000 C    0  0  0  0  0  0  0  0  0  0  0  0
   -0.9640    3.2567    0.0000 C    0  0  0  0  0  0  0  0  0  0  0  0
   -0.2551    2.0176    0.0000 C    0  0  0  0  0  0  0  0  0  0  0  0
   -2.4052   -1.6731    0.0000 C    0  0  0  0  0  0  0  0  0  0  0  0
    3.3096   -1.7195    0.0000 C    0  0  0  0  0  0  0  0  0  0  0  0
    2.6007   -2.9486    0.0000 C    0  0  0  0  0  0  0  0  0  0  0  0
   -0.2551    3.6708    0.0000 C    0  0  0  0  0  0  0  0  0  0  0  0
    0.4671    2.4317    0.0000 C    0  0  0  0  0  0  0  0  0  0  0  0
   -1.7062   -2.0772    0.0000 C    0  0  0  0  0  0  0  0  0  0  0  0
    3.3096   -2.5476    0.0000 C    0  0  0  0  0  0  0  0  0  0  0  0
    4.0418   -1.3086    0.0000 Cl   0  0  0  0  0  0  0  0  0  0  0  0
    0.4671    3.2567    0.0000 C    0  0  0  0  0  0  0  0  0  0  0  0
    1.1595    3.6708    0.0000 Br   0  0  0  0  0  0  0  0  0  0  0  0
  1  2  1  0  0  0  0
  1  3  1  0  0  0  0
  1  4  1  0  0  0  0
  2  5  2  0  0  0  0
  2  6  1  0  0  0  0
  3  7  1  0  0  0  0
  4  8  1  0  0  0  0
  5  9  1  0  0  0  0
  6 10  2  0  0  0  0
  7 11  1  0  0  0  0
  8 11  1  0  0  0  0
  9 12  2  0  0  0  0
  9 13  1  0  0  0  0
 10 14  1  0  0  0  0
 10 12  1  0  0  0  0
 11 15  1  0  0  0  0
 13 16  1  0  0  0  0
 14 17  1  0  0  0  0
 15 18  2  0  0  0  0
 15 19  1  0  0  0  0
 16 20  2  0  0  0  0
 16 21  1  0  0  0  0
 17 22  1  0  0  0  0
 18 23  1  0  0  0  0
 19 24  2  0  0  0  0
 20 25  1  0  0  0  0
 21 26  2  0  0  0  0
 22 27  3  0  0  0  0
 23 28  2  0  0  0  0
 23 29  1  0  0  0  0
 24 28  1  0  0  0  0
 25 30  2  0  0  0  0
 26 30  1  0  0  0  0
 30 31  1  0  0  0  0
M  END
> <CdId>
31

> <Mol Weight>
499.791

> <Formula>
C22H20BrClN6O

> <Click_ID>
CLK001_D02 __ __ 

$$$$
