CLK021_G11
 OpenBabel03181417552D

 18 18  0  0  0  0  0  0  0  0999 V2000
    7.4021    1.2375    0.0000 C   0  0  0  0  0  0  0  0  0  0  0  0
    9.4187    1.8241    0.0000 C   0  0  0  0  0  0  0  0  0  0  0  0
   10.0009    2.4062    0.0000 C   0  0  0  0  0  0  0  0  0  0  0  0
    8.1171    1.6500    0.0000 N   0  0  0  0  0  0  0  0  0  0  0  0
    5.9721    1.2375    0.0000 C   0  0  0  0  0  0  0  0  0  0  0  0
    6.6871    1.6500    0.0000 C   0  0  0  0  0  0  0  0  0  0  0  0
    8.8321    1.2375    0.0000 C   0  0  0  0  0  0  0  0  0  0  0  0
    7.4021    0.4125    0.0000 O   0  0  0  0  0  0  0  0  0  0  0  0
    5.2571    1.6500    0.0000 C   0  0  0  0  0  0  0  0  0  0  0  0
    5.9721    0.4125    0.0000 C   0  0  0  0  0  0  0  0  0  0  0  0
    8.3600    0.5637    0.0000 C   0  0  0  0  0  0  0  0  0  0  0  0
    9.4646    0.7104    0.0000 C   0  0  0  0  0  0  0  0  0  0  0  0
    5.2571    2.4750    0.0000 C   0  0  0  0  0  0  0  0  0  0  0  0
    4.5421    1.2375    0.0000 C   0  0  0  0  0  0  0  0  0  0  0  0
    9.3225   -0.1009    0.0000 C   0  0  0  0  0  0  0  0  0  0  0  0
    8.7084   -0.1834    0.0000 C   0  0  0  0  0  0  0  0  0  0  0  0
    5.2571    0.0000    0.0000 C   0  0  0  0  0  0  0  0  0  0  0  0
    4.5421    0.4125    0.0000 C   0  0  0  0  0  0  0  0  0  0  0  0
  2  7  1  0  0  0  0
  3  2  3  0  0  0  0
  4  1  1  0  0  0  0
  5  6  1  0  0  0  0
  6  1  1  0  0  0  0
  7  4  1  0  0  0  0
  8  1  2  0  0  0  0
  9  5  2  0  0  0  0
 10  5  1  0  0  0  0
 11  7  1  0  0  0  0
 12  7  1  0  0  0  0
 13  9  1  0  0  0  0
 14  9  1  0  0  0  0
 15 12  1  0  0  0  0
 16 11  1  0  0  0  0
 17 10  2  0  0  0  0
 18 17  1  0  0  0  0
 18 14  2  0  0  0  0
M  END
> <CdId>
1626

> <Mol Weight>
243.344

> <Formula>
C16H21NO

> <Click_ID>
CLK021_G11 __ __ 

$$$$
