CLK029_F03
 OpenBabel03181417552D

 32 34  0  0  0  0  0  0  0  0999 V2000
   -1.1750    0.9659    0.0000 C   0  0  0  0  0  0  0  0  0  0  0  0
   -1.6642    0.2969    0.0000 N   0  0  0  0  0  0  0  0  0  0  0  0
   -0.3470    0.9659    0.0000 N   0  0  0  0  0  0  0  0  0  0  0  0
   -1.6642    1.6391    0.0000 S   0  0  0  0  0  0  0  0  0  0  0  0
    1.6099    0.0334    0.0000 N   0  0  0  0  0  0  0  0  0  0  0  0
   -2.4545    0.5520    0.0000 C   0  0  0  0  0  0  0  0  0  0  0  0
    1.3967   -0.7652    0.0000 C   0  0  0  0  0  0  0  0  0  0  0  0
    2.0490    1.6308    0.0000 N   0  0  0  0  0  0  0  0  0  0  0  0
   -2.4545    1.3799    0.0000 C   0  0  0  0  0  0  0  0  0  0  0  0
    2.2580    2.4337    0.0000 C   0  0  0  0  0  0  0  0  0  0  0  0
   -0.1338    1.7688    0.0000 C   0  0  0  0  0  0  0  0  0  0  0  0
   -0.6021   -0.6565    0.0000 C   0  0  0  0  0  0  0  0  0  0  0  0
   -0.0502   -0.0418    0.0000 C   0  0  0  0  0  0  0  0  0  0  0  0
    2.4128    0.2509    0.0000 C   0  0  0  0  0  0  0  0  0  0  0  0
    1.0287    0.6230    0.0000 C   0  0  0  0  0  0  0  0  0  0  0  0
    2.6261    1.0495    0.0000 C   0  0  0  0  0  0  0  0  0  0  0  0
    1.2336    1.4176    0.0000 C   0  0  0  0  0  0  0  0  0  0  0  0
    1.9863   -1.3423    0.0000 O   0  0  0  0  0  0  0  0  0  0  0  0
    3.0526    2.6553    0.0000 O   0  0  0  0  0  0  0  0  0  0  0  0
   -1.4050   -0.4809    0.0000 C   0  0  0  0  0  0  0  0  0  0  0  0
   -0.7234    2.3542    0.0000 O   0  0  0  0  0  0  0  0  0  0  0  0
    0.8698    2.7933    0.0000 S   0  0  0  0  0  0  0  0  0  0  0  0
    0.6021   -0.9702    0.0000 O   0  0  0  0  0  0  0  0  0  0  0  0
    1.6684    3.0107    0.0000 C   0  0  0  0  0  0  0  0  0  0  0  0
    0.6565    1.9904    0.0000 C   0  0  0  0  0  0  0  0  0  0  0  0
   -3.1696    0.1463    0.0000 C   0  0  0  0  0  0  0  0  0  0  0  0
   -3.1696    1.8022    0.0000 C   0  0  0  0  0  0  0  0  0  0  0  0
    0.3889   -1.7688    0.0000 C   0  0  0  0  0  0  0  0  0  0  0  0
   -3.8763    0.5520    0.0000 C   0  0  0  0  0  0  0  0  0  0  0  0
   -3.8763    1.3799    0.0000 C   0  0  0  0  0  0  0  0  0  0  0  0
   -0.3972   -1.9821    0.0000 C   0  0  0  0  0  0  0  0  0  0  0  0
   -4.5997    1.7897    0.0000 H   0  0  0  0  0  0  0  0  0  0  0  0
  2  1  1  0  0  0  0
  3  1  2  0  0  0  0
  4  1  1  0  0  0  0
  5 15  1  0  0  0  0
  6  2  1  0  0  0  0
  7  5  1  0  0  0  0
  8 10  1  0  0  0  0
  9  4  1  0  0  0  0
  9  6  2  0  0  0  0
 10 24  1  0  0  0  0
 11  3  1  0  0  0  0
 12 20  1  0  0  0  0
 13 12  3  0  0  0  0
 14 16  1  0  0  0  0
 14  5  1  0  0  0  0
 15 17  1  0  0  0  0
 16  8  1  0  0  0  0
 17  8  1  0  0  0  0
 18  7  2  0  0  0  0
 19 10  2  0  0  0  0
 20  2  1  0  0  0  0
 21 11  2  0  0  0  0
 22 25  1  0  0  0  0
 23  7  1  0  0  0  0
 24 22  1  0  0  0  0
 25 11  1  0  0  0  0
 26  6  1  0  0  0  0
 27  9  1  0  0  0  0
 28 23  1  0  0  0  0
 29 26  2  0  0  0  0
 30 27  2  0  0  0  0
 30 29  1  0  0  0  0
 31 28  1  0  0  0  0
 32 30  1  0  0  0  0
M  END
> <CdId>
2217

> <Mol Weight>
460.57

> <Formula>
C21H24N4O4S2

> <Click_ID>
CLK029_F03 __ __ 

$$$$
