CLK013_C04
 OpenBabel03181417552D

 28 30  0  0  0  0  0  0  0  0999 V2000
    2.7696   -1.5433    0.0000 N    0  0  0  0  0  0  0  0  0  0  0  0
    3.5829   -1.4182    0.0000 C    0  0  0  0  0  0  0  0  0  0  0  0
    2.6402   -2.3649    0.0000 C    0  0  0  0  0  0  0  0  0  0  0  0
    3.3702   -2.7403    0.0000 C    0  0  0  0  0  0  0  0  0  0  0  0
    3.9583   -2.1564    0.0000 S    0  0  0  0  0  0  0  0  0  0  0  0
    3.4953   -3.5579    0.0000 C    0  0  0  0  0  0  0  0  0  0  0  0
    5.8227   -4.4463    0.0000 C    0  0  0  0  0  0  0  0  0  0  0  0
    5.1678   -4.9718    0.0000 C    0  0  0  0  0  0  0  0  0  0  0  0
    5.6851   -3.6413    0.0000 C    0  0  0  0  0  0  0  0  0  0  0  0
    2.1898   -0.9635    0.0000 C    0  0  0  0  0  0  0  0  0  0  0  0
    4.2711   -3.8582    0.0000 C    0  0  0  0  0  0  0  0  0  0  0  0
    8.0000   -4.5297    0.0000 C    0  0  0  0  0  0  0  0  0  0  0  0
    8.7758   -4.8217    0.0000 C    0  0  0  0  0  0  0  0  0  0  0  0
    3.9666   -0.6882    0.0000 O    0  0  0  0  0  0  0  0  0  0  0  0
    4.3962   -4.6798    0.0000 C    0  0  0  0  0  0  0  0  0  0  0  0
    1.9020   -2.7320    0.0000 O    0  0  0  0  0  0  0  0  0  0  0  0
    4.9176   -3.3452    0.0000 C    0  0  0  0  0  0  0  0  0  0  0  0
    2.4067   -0.1669    0.0000 C    0  0  0  0  0  0  0  0  0  0  0  0
    1.3931   -1.1762    0.0000 C    0  0  0  0  0  0  0  0  0  0  0  0
    5.2972   -5.7935    0.0000 Cl   0  0  0  0  0  0  0  0  0  0  0  0
    6.5860   -4.7466    0.0000 O    0  0  0  0  0  0  0  0  0  0  0  0
    1.0303    0.2085    0.0000 C    0  0  0  0  0  0  0  0  0  0  0  0
    6.3232   -3.1199    0.0000 O    0  0  0  0  0  0  0  0  0  0  0  0
    0.8175   -0.5881    0.0000 C    0  0  0  0  0  0  0  0  0  0  0  0
    1.8311    0.4212    0.0000 C    0  0  0  0  0  0  0  0  0  0  0  0
    0.4547    0.8008    0.0000 Cl   0  0  0  0  0  0  0  0  0  0  0  0
    7.2325   -4.2336    0.0000 C    0  0  0  0  0  0  0  0  0  0  0  0
    6.1981   -2.3024    0.0000 C    0  0  0  0  0  0  0  0  0  0  0  0
  2  1  1  0  0  0  0
  3  1  1  0  0  0  0
  4  3  1  0  0  0  0
  5  2  1  0  0  0  0
  5  4  1  0  0  0  0
  6  4  2  0  0  0  0
  7  9  1  0  0  0  0
  7  8  2  0  0  0  0
  8 15  1  0  0  0  0
  9 17  2  0  0  0  0
 10  1  1  0  0  0  0
 11  6  1  0  0  0  0
 12 27  1  0  0  0  0
 13 12  3  0  0  0  0
 14  2  2  0  0  0  0
 15 11  2  0  0  0  0
 16  3  2  0  0  0  0
 17 11  1  0  0  0  0
 18 10  2  0  0  0  0
 19 10  1  0  0  0  0
 20  8  1  0  0  0  0
 21  7  1  0  0  0  0
 22 24  1  0  0  0  0
 22 25  2  0  0  0  0
 23  9  1  0  0  0  0
 24 19  2  0  0  0  0
 25 18  1  0  0  0  0
 26 22  1  0  0  0  0
 27 21  1  0  0  0  0
 28 23  1  0  0  0  0
M  END
> <CdId>
939

> <Mol Weight>
434.293

> <Formula>
C20H13Cl2NO4S

> <Click_ID>
CLK013_C04 __ __ 

$$$$
