CLK047H06
 OpenBabel03181417552D

 17 17  0  0  0  0  0  0  0  0999 V2000
    0.4167   -0.5333    0.0000 C   0  0  0  0  0  0  0  0  0  0  0  0
   -0.2958   -0.1208    0.0000 N   0  0  0  0  0  0  0  0  0  0  0  0
    1.1333   -1.7708    0.0000 N   0  0  0  0  0  0  0  0  0  0  0  0
   -1.7250    2.3542    0.0000 C   0  0  0  0  0  0  0  0  0  0  0  0
   -2.4417    2.7667    0.0000 C   0  0  0  0  0  0  0  0  0  0  0  0
    1.1333   -2.5958    0.0000 C   0  0  0  0  0  0  0  0  0  0  0  0
    0.4167   -1.3583    0.0000 C   0  0  3  0  0  0  0  0  0  0  0  0
    1.1333   -0.1208    0.0000 O   0  0  0  0  0  0  0  0  0  0  0  0
   -0.2958    0.7042    0.0000 C   0  0  0  0  0  0  0  0  0  0  0  0
    0.4167   -3.0083    0.0000 O   0  0  0  0  0  0  0  0  0  0  0  0
   -1.0125    1.9417    0.0000 C   0  0  0  0  0  0  0  0  0  0  0  0
   -1.0125    1.1167    0.0000 C   0  0  0  0  0  0  0  0  0  0  0  0
    0.4167    1.9417    0.0000 C   0  0  0  0  0  0  0  0  0  0  0  0
    1.8458   -3.0083    0.0000 C   0  0  0  0  0  0  0  0  0  0  0  0
    0.4167    1.1167    0.0000 C   0  0  0  0  0  0  0  0  0  0  0  0
   -0.2958   -1.7708    0.0000 C   0  0  0  0  0  0  0  0  0  0  0  0
   -0.2958    2.3542    0.0000 C   0  0  0  0  0  0  0  0  0  0  0  0
  2  1  1  0  0  0  0
  3  7  1  0  0  0  0
  4 11  1  0  0  0  0
  5  4  3  0  0  0  0
  6  3  1  0  0  0  0
  7  1  1  0  0  0  0
  8  1  2  0  0  0  0
  9  2  1  0  0  0  0
 10  6  2  0  0  0  0
 11 12  1  0  0  0  0
 12  9  2  0  0  0  0
 13 15  2  0  0  0  0
 14  6  1  0  0  0  0
 15  9  1  0  0  0  0
 16  7  1  0  0  0  0
 17 11  2  0  0  0  0
 17 13  1  0  0  0  0
M  END
> <CdId>
3608

> <Mol Weight>
230.2625

> <Formula>
C13H14N2O2

> <Click_ID>
CLK047H06 __ __ 

$$$$
