CLK025_A11
 OpenBabel03181417552D

 25 27  0  0  0  0  0  0  0  0999 V2000
    1.3234    0.8008    0.0000 C   0  0  0  0  0  0  0  0  0  0  0  0
    1.4092   -0.0241    0.0000 C   0  0  0  0  0  0  0  0  0  0  0  0
    2.2135   -0.1925    0.0000 N   0  0  0  0  0  0  0  0  0  0  0  0
    2.0761    1.1378    0.0000 C   0  0  0  0  0  0  0  0  0  0  0  0
    0.6119    1.2133    0.0000 C   0  0  0  0  0  0  0  0  0  0  0  0
    2.6260    0.5259    0.0000 C   0  0  0  0  0  0  0  0  0  0  0  0
   -1.5399   -0.0344    0.0000 C   0  0  0  0  0  0  0  0  0  0  0  0
   -0.8215   -0.4434    0.0000 C   0  0  0  0  0  0  0  0  0  0  0  0
   -1.5399    0.8008    0.0000 C   0  0  0  0  0  0  0  0  0  0  0  0
   -0.1100    0.8008    0.0000 C   0  0  0  0  0  0  0  0  0  0  0  0
   -2.9732   -1.6843    0.0000 C   0  0  0  0  0  0  0  0  0  0  0  0
   -3.6847   -2.0864    0.0000 C   0  0  0  0  0  0  0  0  0  0  0  0
   -0.1100   -0.0309    0.0000 C   0  0  0  0  0  0  0  0  0  0  0  0
   -0.8249    1.2133    0.0000 C   0  0  0  0  0  0  0  0  0  0  0  0
    0.7905   -0.5740    0.0000 O   0  0  0  0  0  0  0  0  0  0  0  0
   -0.8215   -1.2683    0.0000 I   0  0  0  0  0  0  0  0  0  0  0  0
   -2.2583   -0.4469    0.0000 O   0  0  0  0  0  0  0  0  0  0  0  0
   -2.2583    1.2065    0.0000 O   0  0  0  0  0  0  0  0  0  0  0  0
   -2.2583   -1.2718    0.0000 C   0  0  0  0  0  0  0  0  0  0  0  0
    2.3270    1.9145    0.0000 C   0  0  0  0  0  0  0  0  0  0  0  0
    3.4269    0.6943    0.0000 C   0  0  0  0  0  0  0  0  0  0  0  0
   -2.9766    0.8008    0.0000 C   0  0  0  0  0  0  0  0  0  0  0  0
    3.1279    2.0898    0.0000 C   0  0  0  0  0  0  0  0  0  0  0  0
    3.6847    1.4780    0.0000 C   0  0  0  0  0  0  0  0  0  0  0  0
   -3.6881    1.2030    0.0000 C   0  0  0  0  0  0  0  0  0  0  0  0
  2  1  1  0  0  0  0
  3  2  1  0  0  0  0
  3  6  1  0  0  0  0
  4  1  1  0  0  0  0
  5  1  2  0  0  0  0
  6  4  2  0  0  0  0
  7  9  2  0  0  0  0
  8 13  2  0  0  0  0
  8  7  1  0  0  0  0
  9 14  1  0  0  0  0
 10  5  1  0  0  0  0
 11 19  1  0  0  0  0
 12 11  3  0  0  0  0
 13 10  1  0  0  0  0
 14 10  2  0  0  0  0
 15  2  2  0  0  0  0
 16  8  1  0  0  0  0
 17  7  1  0  0  0  0
 18  9  1  0  0  0  0
 19 17  1  0  0  0  0
 20  4  1  0  0  0  0
 21  6  1  0  0  0  0
 21 24  2  0  0  0  0
 22 18  1  0  0  0  0
 23 20  2  0  0  0  0
 24 23  1  0  0  0  0
 25 22  1  0  0  0  0
M  END
> <CdId>
1866

> <Mol Weight>
445.2504

> <Formula>
C20H16INO3

> <Click_ID>
CLK025_A11 __ __ 

$$$$
