CLK002_C02
 OpenBabel03181417552D

 13 12  0  0  0  0  0  0  0  0999 V2000
   -0.3286   -0.4004    0.0000 N    0  0  0  0  0  0  0  0  0  0  0  0
    0.4613   -0.1611    0.0000 C    0  0  0  0  0  0  0  0  0  0  0  0
   -0.5810    0.4004    0.0000 C    0  0  0  0  0  0  0  0  0  0  0  0
   -1.1229   -0.6659    0.0000 C    0  0  0  0  0  0  0  0  0  0  0  0
   -0.0696   -1.1947    0.0000 C    0  0  0  0  0  0  0  0  0  0  0  0
    0.6506    0.6419    0.0000 C    0  0  0  0  0  0  0  0  0  0  0  0
   -1.3819    0.5723    0.0000 C    0  0  0  0  0  0  0  0  0  0  0  0
   -1.2817   -1.4733    0.0000 C    0  0  0  0  0  0  0  0  0  0  0  0
    0.7508   -1.3601    0.0000 C    0  0  0  0  0  0  0  0  0  0  0  0
    1.4319    0.8814    0.0000 C    0  0  0  0  0  0  0  0  0  0  0  0
   -2.1783    0.7421    0.0000 C    0  0  0  0  0  0  0  0  0  0  0  0
    1.6038    1.6887    0.0000 C    0  0  0  0  0  0  0  0  0  0  0  0
    2.0456    0.3264    0.0000 Cl   0  0  0  0  0  0  0  0  0  0  0  0
  1  2  1  0  0  0  0
  1  3  1  0  0  0  0
  1  4  1  0  0  0  0
  1  5  1  0  0  0  0
  2  6  1  0  0  0  0
  3  7  1  0  0  0  0
  4  8  1  0  0  0  0
  5  9  1  0  0  0  0
  6 10  2  0  0  0  0
  7 11  3  0  0  0  0
 10 12  1  0  0  0  0
 10 13  1  0  0  0  0
M  END
> <CdId>
101

> <Mol Weight>
200.728

> <Formula>
C11H19ClN

> <Click_ID>
CLK002_C02 __ __ 

$$$$
