CLK003_D09
 OpenBabel03181417552D

 16 17  0  0  0  0  0  0  0  0999 V2000
   -0.4883   -0.3145    0.0000 C   0  0  0  0  0  0  0  0  0  0  0  0
   -0.7455    0.4902    0.0000 C   0  0  0  0  0  0  0  0  0  0  0  0
    0.2886   -0.4957    0.0000 N   0  0  0  0  0  0  0  0  0  0  0  0
   -1.1747   -0.7640    0.0000 S   0  0  0  0  0  0  0  0  0  0  0  0
   -0.2035    1.0951    0.0000 C   0  0  0  0  0  0  0  0  0  0  0  0
   -1.5705    0.4902    0.0000 C   0  0  0  0  0  0  0  0  0  0  0  0
    0.8454    0.1276    0.0000 C   0  0  0  0  0  0  0  0  0  0  0  0
   -1.8128   -0.2719    0.0000 C   0  0  0  0  0  0  0  0  0  0  0  0
    0.6049    0.8990    0.0000 N   0  0  0  0  0  0  0  0  0  0  0  0
   -0.4440    1.8850    0.0000 N   0  0  0  0  0  0  0  0  0  0  0  0
   -2.0514    1.1765    0.0000 C   0  0  0  0  0  0  0  0  0  0  0  0
    1.6833   -0.0851    0.0000 S   0  0  0  0  0  0  0  0  0  0  0  0
   -2.6286   -0.5142    0.0000 C   0  0  0  0  0  0  0  0  0  0  0  0
    1.9460   -0.8712    0.0000 C   0  0  0  0  0  0  0  0  0  0  0  0
    2.7414   -1.0396    0.0000 C   0  0  0  0  0  0  0  0  0  0  0  0
    3.0096   -1.8017    0.0000 C   0  0  0  0  0  0  0  0  0  0  0  0
  1  2  2  0  0  0  0
  1  3  1  0  0  0  0
  1  4  1  0  0  0  0
  2  5  1  0  0  0  0
  2  6  1  0  0  0  0
  3  7  2  0  0  0  0
  4  8  1  0  0  0  0
  5  9  2  0  0  0  0
  5 10  1  0  0  0  0
  6 11  1  0  0  0  0
  6  8  2  0  0  0  0
  7 12  1  0  0  0  0
  7  9  1  0  0  0  0
  8 13  1  0  0  0  0
 12 14  1  0  0  0  0
 14 15  1  0  0  0  0
 15 16  3  0  0  0  0
M  END
> <CdId>
198

> <Mol Weight>
249.355

> <Formula>
C11H11N3S2

> <Click_ID>
CLK003_D09 __ __ 

$$$$
