CLK024_H04
 OpenBabel03181417552D

 29 32  0  0  0  0  0  0  0  0999 V2000
   -1.5057   -2.3685    0.0000 N    0  0  0  0  0  0  0  0  0  0  0  0
    0.5122    0.2166    0.0000 N    0  0  0  0  0  0  0  0  0  0  0  0
    0.5363   -1.1241    0.0000 C    0  0  0  0  0  0  0  0  0  0  0  0
   -1.2478   -3.1557    0.0000 C    0  0  0  0  0  0  0  0  0  0  0  0
   -0.1753   -2.3685    0.0000 C    0  0  0  0  0  0  0  0  0  0  0  0
   -0.8388   -1.8838    0.0000 C    0  0  0  0  0  0  0  0  0  0  0  0
    0.0378   -0.4434    0.0000 C    0  0  0  0  0  0  0  0  0  0  0  0
    0.5431   -1.9491    0.0000 C    0  0  0  0  0  0  0  0  0  0  0  0
   -0.4263   -3.1557    0.0000 S    0  0  0  0  0  0  0  0  0  0  0  0
    1.2959   -0.0309    0.0000 C    0  0  0  0  0  0  0  0  0  0  0  0
    1.3062   -0.8525    0.0000 C    0  0  0  0  0  0  0  0  0  0  0  0
    0.2510    0.9935    0.0000 C    0  0  0  0  0  0  0  0  0  0  0  0
   -2.5266   -1.3510    0.0000 C    0  0  0  0  0  0  0  0  0  0  0  0
   -2.7397   -0.5534    0.0000 C    0  0  0  0  0  0  0  0  0  0  0  0
   -1.8425   -3.7367    0.0000 O    0  0  0  0  0  0  0  0  0  0  0  0
   -0.8456   -1.0519    0.0000 O    0  0  0  0  0  0  0  0  0  0  0  0
   -2.3066   -2.1485    0.0000 C    0  0  0  0  0  0  0  0  0  0  0  0
    0.7941    1.6122    0.0000 C    0  0  0  0  0  0  0  0  0  0  0  0
   -0.7838   -0.4434    0.0000 C    0  0  0  0  0  0  0  0  0  0  0  0
    1.6329    3.0319    0.0000 C    0  0  0  0  0  0  0  0  0  0  0  0
    2.0384    3.7367    0.0000 Br   0  0  0  0  0  0  0  0  0  0  0  0
    2.0041    0.3919    0.0000 C    0  0  0  0  0  0  0  0  0  0  0  0
    2.0248   -1.2513    0.0000 C    0  0  0  0  0  0  0  0  0  0  0  0
    0.3850    2.3272    0.0000 C    0  0  0  0  0  0  0  0  0  0  0  0
    1.6191    1.5985    0.0000 C    0  0  0  0  0  0  0  0  0  0  0  0
    0.8112    3.0354    0.0000 C    0  0  0  0  0  0  0  0  0  0  0  0
    2.0384    2.3135    0.0000 C    0  0  0  0  0  0  0  0  0  0  0  0
    2.7363   -0.8422    0.0000 C    0  0  0  0  0  0  0  0  0  0  0  0
    2.7260   -0.0138    0.0000 C    0  0  0  0  0  0  0  0  0  0  0  0
  2  7  1  0  0  0  0
  2 10  1  0  0  0  0
  3  8  1  0  0  0  0
  4  1  1  0  0  0  0
  5  6  1  0  0  0  0
  5  9  1  0  0  0  0
  6  1  1  0  0  0  0
  7  3  2  0  0  0  0
  8  5  2  0  0  0  0
  9  4  1  0  0  0  0
 10 11  2  0  0  0  0
 11  3  1  0  0  0  0
 12  2  1  0  0  0  0
 13 17  1  0  0  0  0
 14 13  3  0  0  0  0
 15  4  2  0  0  0  0
 16  6  2  0  0  0  0
 17  1  1  0  0  0  0
 18 12  1  0  0  0  0
 19  7  1  0  0  0  0
 20 27  2  0  0  0  0
 21 20  1  0  0  0  0
 22 10  1  0  0  0  0
 22 29  2  0  0  0  0
 23 11  1  0  0  0  0
 24 18  1  0  0  0  0
 25 18  2  0  0  0  0
 26 24  2  0  0  0  0
 26 20  1  0  0  0  0
 27 25  1  0  0  0  0
 28 23  2  0  0  0  0
 29 28  1  0  0  0  0
M  END
> <CdId>
1849

> <Mol Weight>
465.362

> <Formula>
C23H17BrN2O2S

> <Click_ID>
CLK024_H04 __ __ 

$$$$
