CLK006_H04
 OpenBabel03181417552D

 21 23  0  0  0  0  0  0  0  0999 V2000
   -1.7694    0.1340    0.0000 C   0  0  0  0  0  0  0  0  0  0  0  0
   -0.9826   -0.1099    0.0000 N   0  0  0  0  0  0  0  0  0  0  0  0
   -1.7797    0.9655    0.0000 C   0  0  0  0  0  0  0  0  0  0  0  0
   -2.4875   -0.2783    0.0000 C   0  0  0  0  0  0  0  0  0  0  0  0
   -0.4948    0.5634    0.0000 C   0  0  0  0  0  0  0  0  0  0  0  0
   -0.5703   -0.8246    0.0000 C   0  0  0  0  0  0  0  0  0  0  0  0
   -0.9930    1.2300    0.0000 N   0  0  0  0  0  0  0  0  0  0  0  0
   -2.4875    1.3812    0.0000 C   0  0  0  0  0  0  0  0  0  0  0  0
   -3.2021    0.1374    0.0000 C   0  0  0  0  0  0  0  0  0  0  0  0
    0.3298    0.5703    0.0000 C   0  0  0  0  0  0  0  0  0  0  0  0
   -0.9826   -1.5358    0.0000 C   0  0  0  0  0  0  0  0  0  0  0  0
   -3.2021    0.9689    0.0000 C   0  0  0  0  0  0  0  0  0  0  0  0
    0.7490   -0.1443    0.0000 O   0  0  0  0  0  0  0  0  0  0  0  0
   -0.5634   -2.2539    0.0000 C   0  0  0  0  0  0  0  0  0  0  0  0
    1.5702   -0.1271    0.0000 C   0  0  0  0  0  0  0  0  0  0  0  0
    1.9996   -0.8417    0.0000 C   0  0  0  0  0  0  0  0  0  0  0  0
    1.9756    0.5876    0.0000 C   0  0  0  0  0  0  0  0  0  0  0  0
    2.8242   -0.8280    0.0000 C   0  0  0  0  0  0  0  0  0  0  0  0
    2.7967    0.6047    0.0000 C   0  0  0  0  0  0  0  0  0  0  0  0
    3.2227   -0.1065    0.0000 C   0  0  0  0  0  0  0  0  0  0  0  0
    4.0473   -0.0928    0.0000 C   0  0  0  0  0  0  0  0  0  0  0  0
  1  2  1  0  0  0  0
  1  3  1  0  0  0  0
  1  4  2  0  0  0  0
  2  5  1  0  0  0  0
  2  6  1  0  0  0  0
  3  7  1  0  0  0  0
  3  8  2  0  0  0  0
  4  9  1  0  0  0  0
  5 10  1  0  0  0  0
  5  7  2  0  0  0  0
  6 11  1  0  0  0  0
  8 12  1  0  0  0  0
  9 12  2  0  0  0  0
 10 13  1  0  0  0  0
 11 14  3  0  0  0  0
 13 15  1  0  0  0  0
 15 16  2  0  0  0  0
 15 17  1  0  0  0  0
 16 18  1  0  0  0  0
 17 19  2  0  0  0  0
 18 20  2  0  0  0  0
 19 20  1  0  0  0  0
 20 21  1  0  0  0  0
M  END
> <CdId>
473

> <Mol Weight>
276.3324

> <Formula>
C18H16N2O

> <Click_ID>
CLK006_H04 __ __ 

$$$$
