CLK004_E04
 OpenBabel03181417552D

 18 20  0  0  0  0  0  0  0  0999 V2000
    0.2679   -0.2094    0.0000 C   0  0  0  0  0  0  0  0  0  0  0  0
   -0.2816    0.3983    0.0000 C   0  0  0  0  0  0  0  0  0  0  0  0
    0.0171   -0.9959    0.0000 C   0  0  0  0  0  0  0  0  0  0  0  0
    1.0748   -0.0377    0.0000 C   0  0  0  0  0  0  0  0  0  0  0  0
   -1.0886    0.2198    0.0000 N   0  0  0  0  0  0  0  0  0  0  0  0
   -0.0412    1.1950    0.0000 N   0  0  0  0  0  0  0  0  0  0  0  0
   -0.7898   -1.1710    0.0000 N   0  0  0  0  0  0  0  0  0  0  0  0
    0.5666   -1.6036    0.0000 C   0  0  0  0  0  0  0  0  0  0  0  0
    1.6242   -0.6525    0.0000 C   0  0  0  0  0  0  0  0  0  0  0  0
   -1.3496   -0.5598    0.0000 C   0  0  0  0  0  0  0  0  0  0  0  0
   -1.7513    0.7074    0.0000 N   0  0  0  0  0  0  0  0  0  0  0  0
    0.7658    1.3771    0.0000 C   0  0  0  0  0  0  0  0  0  0  0  0
    1.3736   -1.4319    0.0000 C   0  0  3  0  0  0  0  0  0  0  0  0
   -2.1703   -0.5598    0.0000 N   0  0  0  0  0  0  0  0  0  0  0  0
   -2.4209    0.2198    0.0000 C   0  0  0  0  0  0  0  0  0  0  0  0
    1.0165    2.1737    0.0000 C   0  0  0  0  0  0  0  0  0  0  0  0
    1.9230   -2.0398    0.0000 C   0  0  0  0  0  0  0  0  0  0  0  0
    1.2637    2.9636    0.0000 C   0  0  0  0  0  0  0  0  0  0  0  0
  1  2  2  0  0  0  0
  1  3  1  0  0  0  0
  1  4  1  0  0  0  0
  2  5  1  0  0  0  0
  2  6  1  0  0  0  0
  3  7  2  0  0  0  0
  3  8  1  0  0  0  0
  4  9  1  0  0  0  0
  5 10  1  0  0  0  0
  5 11  1  0  0  0  0
  6 12  1  0  0  0  0
  7 10  1  0  0  0  0
  8 13  1  0  0  0  0
  9 13  1  0  0  0  0
 10 14  2  0  0  0  0
 11 15  2  0  0  0  0
 12 16  1  0  0  0  0
 13 17  1  0  0  0  0
 14 15  1  0  0  0  0
 16 18  3  0  0  0  0
M  END
> <CdId>
283

> <Mol Weight>
241.2917

> <Formula>
C13H15N5

> <Click_ID>
CLK004_E04 __ __ 

$$$$
