CLK048B05
 OpenBabel03181417552D

 25 27  0  0  0  0  0  0  0  0999 V2000
    1.6000    1.3875    0.0000 N   0  0  0  0  0  0  0  0  0  0  0  0
    0.8833    0.9750    0.0000 C   0  0  3  0  0  0  0  0  0  0  0  0
    1.6000    2.2125    0.0000 C   0  0  0  0  0  0  0  0  0  0  0  0
    0.8833    0.1500    0.0000 C   0  0  0  0  0  0  0  0  0  0  0  0
    0.1708    1.3875    0.0000 C   0  0  0  0  0  0  0  0  0  0  0  0
    2.3125    0.9750    0.0000 C   0  0  0  0  0  0  0  0  0  0  0  0
    0.1708   -0.2625    0.0000 C   0  0  0  0  0  0  0  0  0  0  0  0
    0.8833    2.6250    0.0000 C   0  0  0  0  0  0  0  0  0  0  0  0
   -1.2583   -3.5625    0.0000 C   0  0  0  0  0  0  0  0  0  0  0  0
   -1.2583   -4.3875    0.0000 C   0  0  0  0  0  0  0  0  0  0  0  0
    0.1708   -1.0875    0.0000 N   0  0  0  0  0  0  0  0  0  0  0  0
    0.1708    2.2125    0.0000 C   0  0  0  0  0  0  0  0  0  0  0  0
    3.0292    1.3875    0.0000 O   0  0  0  0  0  0  0  0  0  0  0  0
   -0.5458    0.1500    0.0000 O   0  0  0  0  0  0  0  0  0  0  0  0
   -0.5458   -1.5000    0.0000 C   0  0  0  0  0  0  0  0  0  0  0  0
   -1.2583   -2.7375    0.0000 C   0  0  0  0  0  0  0  0  0  0  0  0
   -0.5458   -2.3250    0.0000 C   0  0  0  0  0  0  0  0  0  0  0  0
   -0.5458    0.9750    0.0000 C   0  0  0  0  0  0  0  0  0  0  0  0
    2.3125    0.1500    0.0000 C   0  0  0  0  0  0  0  0  0  0  0  0
   -1.9750   -1.5000    0.0000 C   0  0  0  0  0  0  0  0  0  0  0  0
   -1.2583   -1.0875    0.0000 C   0  0  0  0  0  0  0  0  0  0  0  0
   -0.5458    2.6250    0.0000 C   0  0  0  0  0  0  0  0  0  0  0  0
   -1.9750   -2.3250    0.0000 C   0  0  0  0  0  0  0  0  0  0  0  0
   -1.2583    1.3875    0.0000 C   0  0  0  0  0  0  0  0  0  0  0  0
   -1.2583    2.2125    0.0000 C   0  0  0  0  0  0  0  0  0  0  0  0
  2  1  1  0  0  0  0
  3  1  1  0  0  0  0
  4  2  1  0  0  0  0
  5  2  1  0  0  0  0
  6  1  1  0  0  0  0
  7  4  1  0  0  0  0
  8  3  2  0  0  0  0
  9 16  1  0  0  0  0
 10  9  3  0  0  0  0
 11  7  1  0  0  0  0
 12  5  2  0  0  0  0
 12  8  1  0  0  0  0
 13  6  2  0  0  0  0
 14  7  2  0  0  0  0
 15 11  1  0  0  0  0
 16 17  1  0  0  0  0
 17 15  2  0  0  0  0
 18  5  1  0  0  0  0
 19  6  1  0  0  0  0
 20 21  2  0  0  0  0
 21 15  1  0  0  0  0
 22 12  1  0  0  0  0
 23 16  2  0  0  0  0
 23 20  1  0  0  0  0
 24 18  2  0  0  0  0
 24 25  1  0  0  0  0
 25 22  2  0  0  0  0
M  END
> <CdId>
3674

> <Mol Weight>
330.3798

> <Formula>
C21H18N2O2

> <Click_ID>
CLK048B05 __ __ 

$$$$
