CLK007_A05
 OpenBabel03181417552D

 18 18  0  0  0  0  0  0  0  0999 V2000
   -0.1139    0.4312    0.0000 C   0  0  0  0  0  0  0  0  0  0  0  0
   -0.1220    1.2590    0.0000 N   0  0  0  0  0  0  0  0  0  0  0  0
    0.5980    0.0224    0.0000 N   0  0  0  0  0  0  0  0  0  0  0  0
   -0.8278    0.0183    0.0000 N   0  0  0  0  0  0  0  0  0  0  0  0
    0.5918    1.6739    0.0000 C   0  0  0  0  0  0  0  0  0  0  0  0
   -0.8400    1.6719    0.0000 C   0  0  0  0  0  0  0  0  0  0  0  0
    0.6000   -0.8075    0.0000 C   0  0  0  0  0  0  0  0  0  0  0  0
   -0.8278   -0.8095    0.0000 C   0  0  0  0  0  0  0  0  0  0  0  0
    1.3078    1.2672    0.0000 C   0  0  0  0  0  0  0  0  0  0  0  0
   -1.5559    1.2651    0.0000 C   0  0  0  0  0  0  0  0  0  0  0  0
   -0.1119   -1.2224    0.0000 N   0  0  0  0  0  0  0  0  0  0  0  0
    1.3119   -1.2183    0.0000 N   0  0  0  0  0  0  0  0  0  0  0  0
   -1.5478   -1.2122    0.0000 N   0  0  0  0  0  0  0  0  0  0  0  0
    2.0217    1.6820    0.0000 C   0  0  0  0  0  0  0  0  0  0  0  0
    2.0237   -0.7993    0.0000 C   0  0  0  0  0  0  0  0  0  0  0  0
   -2.2637   -0.7993    0.0000 C   0  0  0  0  0  0  0  0  0  0  0  0
    2.7356   -1.2122    0.0000 C   0  0  0  0  0  0  0  0  0  0  0  0
   -2.9818   -1.2082    0.0000 C   0  0  0  0  0  0  0  0  0  0  0  0
  1  2  1  0  0  0  0
  1  3  2  0  0  0  0
  1  4  1  0  0  0  0
  2  5  1  0  0  0  0
  2  6  1  0  0  0  0
  3  7  1  0  0  0  0
  4  8  2  0  0  0  0
  5  9  1  0  0  0  0
  6 10  3  0  0  0  0
  7 11  2  0  0  0  0
  7 12  1  0  0  0  0
  8 13  1  0  0  0  0
  8 11  1  0  0  0  0
  9 14  1  0  0  0  0
 12 15  1  0  0  0  0
 13 16  1  0  0  0  0
 15 17  1  0  0  0  0
 16 18  1  0  0  0  0
M  END
> <CdId>
484

> <Mol Weight>
248.3274

> <Formula>
C12H20N6

> <Click_ID>
CLK007_A05 __ __ 

$$$$
