CLK003_E03
 OpenBabel03181417552D

 29 31  0  0  0  0  0  0  0  0999 V2000
   -1.7273   -0.2278    0.0000 N   0  0  0  0  0  0  0  0  0  0  0  0
   -2.4447   -0.6416    0.0000 C   0  0  0  0  0  0  0  0  0  0  0  0
   -1.0136   -0.6416    0.0000 C   0  0  0  0  0  0  0  0  0  0  0  0
   -1.7273    0.5960    0.0000 C   0  0  0  0  0  0  0  0  0  0  0  0
   -2.4447   -1.4653    0.0000 C   0  0  0  0  0  0  0  0  0  0  0  0
   -3.1584   -0.2278    0.0000 C   0  0  0  0  0  0  0  0  0  0  0  0
   -0.2961   -0.2278    0.0000 C   0  0  0  0  0  0  0  0  0  0  0  0
   -1.0136   -1.4653    0.0000 O   0  0  0  0  0  0  0  0  0  0  0  0
   -1.0136    1.0097    0.0000 N   0  0  0  0  0  0  0  0  0  0  0  0
   -2.4447    1.0097    0.0000 O   0  0  0  0  0  0  0  0  0  0  0  0
   -3.1584   -1.8791    0.0000 C   0  0  0  0  0  0  0  0  0  0  0  0
   -3.8759   -0.6416    0.0000 C   0  0  0  0  0  0  0  0  0  0  0  0
    0.4176   -0.6416    0.0000 C   0  0  0  0  0  0  0  0  0  0  0  0
   -0.2961    0.5960    0.0000 C   0  0  0  0  0  0  0  0  0  0  0  0
   -3.8759   -1.4653    0.0000 C   0  0  0  0  0  0  0  0  0  0  0  0
    1.1350   -0.2278    0.0000 C   0  0  0  0  0  0  0  0  0  0  0  0
    0.4176    1.0097    0.0000 O   0  0  0  0  0  0  0  0  0  0  0  0
   -4.5820   -1.8791    0.0000 O   0  0  0  0  0  0  0  0  0  0  0  0
    1.8487   -0.6416    0.0000 C   0  0  0  0  0  0  0  0  0  0  0  0
    1.1350    0.5960    0.0000 C   0  0  0  0  0  0  0  0  0  0  0  0
    2.5662   -0.2278    0.0000 C   0  0  0  0  0  0  0  0  0  0  0  0
    1.8487    1.0097    0.0000 C   0  0  0  0  0  0  0  0  0  0  0  0
    2.5662    0.5960    0.0000 C   0  0  0  0  0  0  0  0  0  0  0  0
    3.2799   -0.6416    0.0000 O   0  0  0  0  0  0  0  0  0  0  0  0
    3.2799    1.0097    0.0000 O   0  0  0  0  0  0  0  0  0  0  0  0
    3.2799   -1.4653    0.0000 C   0  0  0  0  0  0  0  0  0  0  0  0
    3.2799    1.8374    0.0000 C   0  0  0  0  0  0  0  0  0  0  0  0
    3.9973    2.2474    0.0000 C   0  0  0  0  0  0  0  0  0  0  0  0
    3.9973    3.0749    0.0000 C   0  0  0  0  0  0  0  0  0  0  0  0
  1  2  1  0  0  0  0
  1  3  1  0  0  0  0
  1  4  1  0  0  0  0
  2  5  2  0  0  0  0
  2  6  1  0  0  0  0
  3  7  1  0  0  0  0
  3  8  2  0  0  0  0
  4  9  1  0  0  0  0
  4 10  2  0  0  0  0
  5 11  1  0  0  0  0
  6 12  2  0  0  0  0
  7 13  2  0  0  0  0
  7 14  1  0  0  0  0
  9 14  1  0  0  0  0
 11 15  2  0  0  0  0
 12 15  1  0  0  0  0
 13 16  1  0  0  0  0
 14 17  2  0  0  0  0
 15 18  1  0  0  0  0
 16 19  1  0  0  0  0
 16 20  2  0  0  0  0
 19 21  2  0  0  0  0
 20 22  1  0  0  0  0
 21 23  1  0  0  0  0
 21 24  1  0  0  0  0
 22 23  2  0  0  0  0
 23 25  1  0  0  0  0
 24 26  1  0  0  0  0
 25 27  1  0  0  0  0
 27 28  1  0  0  0  0
 28 29  3  0  0  0  0
M  END
> <CdId>
202

> <Mol Weight>
392.3615

> <Formula>
C21H16N2O6

> <Click_ID>
CLK003_E03 __ __ 

$$$$
