CLK013_F09
 OpenBabel03181417552D

 31 33  0  0  0  0  0  0  0  0999 V2000
    2.6592   -2.2918    0.0000 N    0  0  0  0  0  0  0  0  0  0  0  0
    2.4087   -1.5028    0.0000 C    0  0  0  0  0  0  0  0  0  0  0  0
    3.4858   -2.2918    0.0000 C    0  0  0  0  0  0  0  0  0  0  0  0
    3.7445   -1.5028    0.0000 C    0  0  0  0  0  0  0  0  0  0  0  0
    3.0725   -1.0186    0.0000 S    0  0  0  0  0  0  0  0  0  0  0  0
    4.5335   -1.2440    0.0000 C    0  0  0  0  0  0  0  0  0  0  0  0
    5.0262    1.1647    0.0000 C    0  0  0  0  0  0  0  0  0  0  0  0
    2.1708   -2.9598    0.0000 C    0  0  0  0  0  0  0  0  0  0  0  0
    2.5089   -3.7112    0.0000 C    0  0  0  0  0  0  0  0  0  0  0  0
    5.6398    0.6220    0.0000 C    0  0  0  0  0  0  0  0  0  0  0  0
    4.2580    0.9142    0.0000 C    0  0  0  0  0  0  0  0  0  0  0  0
    4.7005   -0.4425    0.0000 C    0  0  0  0  0  0  0  0  0  0  0  0
    2.0205   -4.3832    0.0000 N    0  0  0  0  0  0  0  0  0  0  0  0
    6.1783    3.0265    0.0000 C    0  0  0  0  0  0  0  0  0  0  0  0
    6.3536    3.8280    0.0000 C    0  0  0  0  0  0  0  0  0  0  0  0
    1.2023   -4.2956    0.0000 C    0  0  0  0  0  0  0  0  0  0  0  0
    1.6197   -1.2440    0.0000 O    0  0  0  0  0  0  0  0  0  0  0  0
    3.9742   -2.9598    0.0000 O    0  0  0  0  0  0  0  0  0  0  0  0
    4.0827    0.1085    0.0000 C    0  0  0  0  0  0  0  0  0  0  0  0
    5.4728   -0.1921    0.0000 C    0  0  0  0  0  0  0  0  0  0  0  0
    3.3313   -3.7988    0.0000 O    0  0  0  0  0  0  0  0  0  0  0  0
    0.7181   -4.9635    0.0000 C    0  0  0  0  0  0  0  0  0  0  0  0
    6.4246    0.8641    0.0000 Cl   0  0  0  0  0  0  0  0  0  0  0  0
    3.6486    1.4736    0.0000 Cl   0  0  0  0  0  0  0  0  0  0  0  0
    5.2140    1.9745    0.0000 O    0  0  0  0  0  0  0  0  0  0  0  0
    1.0520   -5.7149    0.0000 F    0  0  0  0  0  0  0  0  0  0  0  0
    5.9988    2.2167    0.0000 C    0  0  0  0  0  0  0  0  0  0  0  0
    0.8683   -3.5358    0.0000 C    0  0  0  0  0  0  0  0  0  0  0  0
   -0.1085   -4.8717    0.0000 C    0  0  0  0  0  0  0  0  0  0  0  0
    0.0501   -3.4482    0.0000 C    0  0  0  0  0  0  0  0  0  0  0  0
   -0.4383   -4.1119    0.0000 C    0  0  0  0  0  0  0  0  0  0  0  0
  2  1  1  0  0  0  0
  3  1  1  0  0  0  0
  4  3  1  0  0  0  0
  5  2  1  0  0  0  0
  5  4  1  0  0  0  0
  6  4  2  0  0  0  0
  7 10  1  0  0  0  0
  7 11  2  0  0  0  0
  8  1  1  0  0  0  0
  9  8  1  0  0  0  0
 10 20  2  0  0  0  0
 11 19  1  0  0  0  0
 12  6  1  0  0  0  0
 13  9  1  0  0  0  0
 14 27  1  0  0  0  0
 15 14  3  0  0  0  0
 16 13  1  0  0  0  0
 17  2  2  0  0  0  0
 18  3  2  0  0  0  0
 19 12  2  0  0  0  0
 20 12  1  0  0  0  0
 21  9  2  0  0  0  0
 22 16  1  0  0  0  0
 23 10  1  0  0  0  0
 24 11  1  0  0  0  0
 25  7  1  0  0  0  0
 26 22  1  0  0  0  0
 27 25  1  0  0  0  0
 28 16  2  0  0  0  0
 29 22  2  0  0  0  0
 30 28  1  0  0  0  0
 31 30  2  0  0  0  0
 31 29  1  0  0  0  0
M  END
> <CdId>
974

> <Mol Weight>
479.308

> <Formula>
C21H13Cl2FN2O4S

> <Click_ID>
CLK013_F09 __ __ 

$$$$
