CLK049D02
 OpenBabel03181417552D

 20 21  0  0  0  0  0  0  0  0999 V2000
   -0.1083   -1.2750    0.0000 N   0  0  0  0  0  0  0  0  0  0  0  0
   -1.5375   -1.2750    0.0000 C   0  0  0  0  0  0  0  0  0  0  0  0
   -0.1083   -0.4500    0.0000 C   0  0  0  0  0  0  0  0  0  0  0  0
   -0.8250   -1.6875    0.0000 C   0  0  0  0  0  0  0  0  0  0  0  0
   -0.8250   -0.0375    0.0000 N   0  0  0  0  0  0  0  0  0  0  0  0
   -1.5375   -0.4500    0.0000 C   0  0  0  0  0  0  0  0  0  0  0  0
   -2.3250   -1.5333    0.0000 S   0  0  0  0  0  0  0  0  0  0  0  0
    0.6042   -0.0375    0.0000 S   0  0  0  0  0  0  0  0  0  0  0  0
   -2.3250   -0.1958    0.0000 C   0  0  0  0  0  0  0  0  0  0  0  0
    2.0333    3.2625    0.0000 C   0  0  0  0  0  0  0  0  0  0  0  0
    2.0333    4.0833    0.0000 C   0  0  0  0  0  0  0  0  0  0  0  0
   -2.8083   -0.8625    0.0000 C   0  0  0  0  0  0  0  0  0  0  0  0
   -0.8250   -2.5125    0.0000 O   0  0  0  0  0  0  0  0  0  0  0  0
    1.3167    1.2000    0.0000 C   0  0  0  0  0  0  0  0  0  0  0  0
    2.0333    0.7875    0.0000 O   0  0  0  0  0  0  0  0  0  0  0  0
    0.6042   -1.6875    0.0000 C   0  0  0  0  0  0  0  0  0  0  0  0
    0.6042    0.7875    0.0000 C   0  0  0  0  0  0  0  0  0  0  0  0
    1.3167    2.0250    0.0000 N   0  0  0  0  0  0  0  0  0  0  0  0
    2.0333    2.4375    0.0000 C   0  0  0  0  0  0  0  0  0  0  0  0
    0.6042   -2.5125    0.0000 C   0  0  0  0  0  0  0  0  0  0  0  0
  2  4  1  0  0  0  0
  3  1  1  0  0  0  0
  4  1  1  0  0  0  0
  5  3  2  0  0  0  0
  6  2  2  0  0  0  0
  6  5  1  0  0  0  0
  7  2  1  0  0  0  0
  8  3  1  0  0  0  0
  9  6  1  0  0  0  0
 10 19  1  0  0  0  0
 11 10  3  0  0  0  0
 12  7  1  0  0  0  0
 12  9  2  0  0  0  0
 13  4  2  0  0  0  0
 14 17  1  0  0  0  0
 15 14  2  0  0  0  0
 16  1  1  0  0  0  0
 17  8  1  0  0  0  0
 18 14  1  0  0  0  0
 19 18  1  0  0  0  0
 20 16  1  0  0  0  0
M  END
> <CdId>
3732

> <Mol Weight>
307.391

> <Formula>
C13H13N3O2S2

> <Click_ID>
CLK049D02 __ __ 

$$$$
