CLK011_D04
 OpenBabel03181417552D

 24 27  0  0  0  0  0  0  0  0999 V2000
    4.2042   -1.9250    0.0000 N   0  0  0  0  0  0  0  0  0  0  0  0
    3.7167   -2.5917    0.0000 C   0  0  0  0  0  0  0  0  0  0  0  0
    3.7125   -1.2542    0.0000 C   0  0  0  0  0  0  0  0  0  0  0  0
    2.9292   -1.5167    0.0000 C   0  0  3  0  0  0  0  0  0  0  0  0
    2.9292   -2.3417    0.0000 C   0  0  3  0  0  0  0  0  0  0  0  0
    2.2167   -2.7542    0.0000 C   0  0  3  0  0  0  0  0  0  0  0  0
    2.2167   -1.1042    0.0000 C   0  0  3  0  0  0  0  0  0  0  0  0
    1.5042   -1.5167    0.0000 C   0  0  0  0  0  0  0  0  0  0  0  0
    1.5042   -2.3417    0.0000 C   0  0  0  0  0  0  0  0  0  0  0  0
    2.4875   -1.8875    0.0000 C   0  0  0  0  0  0  0  0  0  0  0  0
    5.0250   -1.9167    0.0000 C   0  0  0  0  0  0  0  0  0  0  0  0
    7.4875   -1.9042    0.0000 C   0  0  0  0  0  0  0  0  0  0  0  0
    9.1292   -1.9000    0.0000 C   0  0  0  0  0  0  0  0  0  0  0  0
    9.5375   -1.1792    0.0000 C   0  0  0  0  0  0  0  0  0  0  0  0
    3.9792   -3.3792    0.0000 O   0  0  0  0  0  0  0  0  0  0  0  0
    3.9667   -0.4750    0.0000 O   0  0  0  0  0  0  0  0  0  0  0  0
    6.6625   -1.9125    0.0000 C   0  0  0  0  0  0  0  0  0  0  0  0
    7.8917   -1.1917    0.0000 O   0  0  0  0  0  0  0  0  0  0  0  0
    5.4292   -2.6292    0.0000 C   0  0  0  0  0  0  0  0  0  0  0  0
    5.4250   -1.2042    0.0000 C   0  0  0  0  0  0  0  0  0  0  0  0
    6.2417   -1.2000    0.0000 C   0  0  0  0  0  0  0  0  0  0  0  0
    6.2542   -2.6250    0.0000 C   0  0  0  0  0  0  0  0  0  0  0  0
    7.9042   -2.6167    0.0000 O   0  0  0  0  0  0  0  0  0  0  0  0
    8.7250   -2.6125    0.0000 C   0  0  0  0  0  0  0  0  0  0  0  0
  2  1  1  0  0  0  0
  3  1  1  0  0  0  0
  4  3  1  0  0  0  0
  4  5  1  0  0  0  0
  5  2  1  0  0  0  0
  6  5  1  0  0  0  0
  7  4  1  0  0  0  0
  8  7  1  0  0  0  0
  8  9  2  0  0  0  0
  9  6  1  0  0  0  0
 10  7  1  0  0  0  0
 10  6  1  0  0  0  0
 11  1  1  0  0  0  0
 12 17  1  0  0  0  0
 13 24  1  0  0  0  0
 14 13  3  0  0  0  0
 15  2  2  0  0  0  0
 16  3  2  0  0  0  0
 17 21  1  0  0  0  0
 18 12  2  0  0  0  0
 19 11  2  0  0  0  0
 20 11  1  0  0  0  0
 21 20  2  0  0  0  0
 22 19  1  0  0  0  0
 22 17  2  0  0  0  0
 23 12  1  0  0  0  0
 24 23  1  0  0  0  0
M  END
> <CdId>
789

> <Mol Weight>
321.3267

> <Formula>
C19H15NO4

> <Click_ID>
CLK011_D04 __ __ 

$$$$
