CLK030_B05
 OpenBabel03181417552D

 28 31  0  0  0  0  0  0  0  0999 V2000
    1.3277    3.8287    0.0000 N   0  0  0  0  0  0  0  0  0  0  0  0
   -1.1649    2.3882    0.0000 C   0  0  0  0  0  0  0  0  0  0  0  0
    0.9938    4.5636    0.0000 C   0  0  0  0  0  0  0  0  0  0  0  0
    2.1336    3.9081    0.0000 C   0  0  0  0  0  0  0  0  0  0  0  0
   -1.6492    1.7244    0.0000 N   0  0  0  0  0  0  0  0  0  0  0  0
   -0.3382    2.3799    0.0000 N   0  0  0  0  0  0  0  0  0  0  0  0
   -1.6492    3.0563    0.0000 S   0  0  0  0  0  0  0  0  0  0  0  0
   -2.4383    2.8016    0.0000 C   0  0  0  0  0  0  0  0  0  0  0  0
    1.6075    5.1148    0.0000 C   0  0  0  0  0  0  0  0  0  0  0  0
    2.3215    4.7014    0.0000 C   0  0  0  0  0  0  0  0  0  0  0  0
   -2.4383    1.9749    0.0000 C   0  0  0  0  0  0  0  0  0  0  0  0
    0.0752    3.0939    0.0000 C   0  0  0  0  0  0  0  0  0  0  0  0
    0.9019    3.0939    0.0000 C   0  0  0  0  0  0  0  0  0  0  0  0
   -3.1523    3.2149    0.0000 C   0  0  0  0  0  0  0  0  0  0  0  0
   -1.9498    0.3215    0.0000 C   0  0  0  0  0  0  0  0  0  0  0  0
   -2.5010   -0.2923    0.0000 C   0  0  0  0  0  0  0  0  0  0  0  0
   -3.1523    1.5615    0.0000 C   0  0  0  0  0  0  0  0  0  0  0  0
    0.1754    4.7390    0.0000 O   0  0  0  0  0  0  0  0  0  0  0  0
    2.6805    3.2901    0.0000 O   0  0  0  0  0  0  0  0  0  0  0  0
   -0.3382    3.8079    0.0000 O   0  0  0  0  0  0  0  0  0  0  0  0
   -1.3987    0.9352    0.0000 C   0  0  0  0  0  0  0  0  0  0  0  0
   -3.8663    2.8016    0.0000 C   0  0  0  0  0  0  0  0  0  0  0  0
   -3.8663    1.9749    0.0000 C   0  0  0  0  0  0  0  0  0  0  0  0
   -4.5928    3.2192    0.0000 F   0  0  0  0  0  0  0  0  0  0  0  0
    3.0355    5.1023    0.0000 C   0  0  0  0  0  0  0  0  0  0  0  0
    1.6158    5.9498    0.0000 C   0  0  0  0  0  0  0  0  0  0  0  0
    2.3340    6.3548    0.0000 C   0  0  0  0  0  0  0  0  0  0  0  0
    3.0480    5.9290    0.0000 C   0  0  0  0  0  0  0  0  0  0  0  0
  2  6  2  0  0  0  0
  3  1  1  0  0  0  0
  4  1  1  0  0  0  0
  5  2  1  0  0  0  0
  6 12  1  0  0  0  0
  7  2  1  0  0  0  0
  8  7  1  0  0  0  0
  8 11  2  0  0  0  0
  9  3  1  0  0  0  0
 10  4  1  0  0  0  0
 10  9  2  0  0  0  0
 11  5  1  0  0  0  0
 12 13  1  0  0  0  0
 13  1  1  0  0  0  0
 14  8  1  0  0  0  0
 15 21  1  0  0  0  0
 16 15  3  0  0  0  0
 17 11  1  0  0  0  0
 18  3  2  0  0  0  0
 19  4  2  0  0  0  0
 20 12  2  0  0  0  0
 21  5  1  0  0  0  0
 22 14  2  0  0  0  0
 22 23  1  0  0  0  0
 23 17  2  0  0  0  0
 24 22  1  0  0  0  0
 25 10  1  0  0  0  0
 26  9  1  0  0  0  0
 27 26  2  0  0  0  0
 28 25  2  0  0  0  0
 28 27  1  0  0  0  0
M  END
> <CdId>
2259

> <Mol Weight>
393.391

> <Formula>
C20H12FN3O3S

> <Click_ID>
CLK030_B05 __ __ 

$$$$
