CLK023_B06
 OpenBabel03181417552D

 29 32  0  0  0  0  0  0  0  0999 V2000
    1.4266    0.1134    0.0000 N   0  0  0  0  0  0  0  0  0  0  0  0
    0.0138    0.1134    0.0000 C   0  0  0  0  0  0  0  0  0  0  0  0
    0.7150    0.5294    0.0000 C   0  0  0  0  0  0  0  0  0  0  0  0
    1.4266   -0.7116    0.0000 C   0  0  0  0  0  0  0  0  0  0  0  0
    0.7150   -1.1206    0.0000 N   0  0  0  0  0  0  0  0  0  0  0  0
    0.0138   -0.7116    0.0000 C   0  0  0  0  0  0  0  0  0  0  0  0
   -1.4197    0.1134    0.0000 C   0  0  0  0  0  0  0  0  0  0  0  0
   -0.7081    0.5225    0.0000 C   0  0  0  0  0  0  0  0  0  0  0  0
   -2.3168   -0.8834    0.0000 N   0  0  0  0  0  0  0  0  0  0  0  0
   -1.5056   -0.7081    0.0000 C   0  0  0  0  0  0  0  0  0  0  0  0
   -2.1794    0.4503    0.0000 C   0  0  0  0  0  0  0  0  0  0  0  0
   -2.7293   -0.1615    0.0000 C   0  0  0  0  0  0  0  0  0  0  0  0
    2.1485    0.5225    0.0000 C   0  0  0  0  0  0  0  0  0  0  0  0
   -3.4788   -1.7187    0.0000 C   0  0  0  0  0  0  0  0  0  0  0  0
    2.1485   -1.1241    0.0000 O   0  0  0  0  0  0  0  0  0  0  0  0
   -4.3038   -1.7497    0.0000 C   0  0  0  0  0  0  0  0  0  0  0  0
    0.7150    1.3509    0.0000 O   0  0  0  0  0  0  0  0  0  0  0  0
   -0.7081   -1.1241    0.0000 O   0  0  0  0  0  0  0  0  0  0  0  0
   -2.6572   -1.6362    0.0000 C   0  0  0  0  0  0  0  0  0  0  0  0
    2.1485    1.3475    0.0000 C   0  0  0  0  0  0  0  0  0  0  0  0
    2.8600    0.1031    0.0000 C   0  0  0  0  0  0  0  0  0  0  0  0
    3.5750    1.3372    0.0000 C   0  0  0  0  0  0  0  0  0  0  0  0
    2.8634    1.7531    0.0000 C   0  0  0  0  0  0  0  0  0  0  0  0
    3.5750    0.5122    0.0000 C   0  0  0  0  0  0  0  0  0  0  0  0
    4.3003    1.7393    0.0000 F   0  0  0  0  0  0  0  0  0  0  0  0
   -3.5337    0.0138    0.0000 C   0  0  0  0  0  0  0  0  0  0  0  0
   -2.4303    1.2375    0.0000 C   0  0  0  0  0  0  0  0  0  0  0  0
   -3.2347    1.4025    0.0000 C   0  0  0  0  0  0  0  0  0  0  0  0
   -3.7915    0.7872    0.0000 C   0  0  0  0  0  0  0  0  0  0  0  0
  2  3  1  0  0  0  0
  2  6  1  0  0  0  0
  3  1  1  0  0  0  0
  4  1  1  0  0  0  0
  5  4  1  0  0  0  0
  6  5  1  0  0  0  0
  7  8  1  0  0  0  0
  8  2  2  0  0  0  0
  9 10  1  0  0  0  0
 10  7  2  0  0  0  0
 11  7  1  0  0  0  0
 12 11  1  0  0  0  0
 12  9  1  0  0  0  0
 13  1  1  0  0  0  0
 14 19  1  0  0  0  0
 15  4  2  0  0  0  0
 16 14  3  0  0  0  0
 17  3  2  0  0  0  0
 18  6  2  0  0  0  0
 19  9  1  0  0  0  0
 20 13  1  0  0  0  0
 21 13  2  0  0  0  0
 22 24  2  0  0  0  0
 23 20  2  0  0  0  0
 23 22  1  0  0  0  0
 24 21  1  0  0  0  0
 25 22  1  0  0  0  0
 26 12  2  0  0  0  0
 27 11  2  0  0  0  0
 28 27  1  0  0  0  0
 29 28  2  0  0  0  0
 29 26  1  0  0  0  0
M  END
> <CdId>
1711

> <Mol Weight>
387.3633

> <Formula>
C22H14FN3O3

> <Click_ID>
CLK023_B06 __ __ 

$$$$
