CLK022_A06
 OpenBabel03181417552D

 21 22  0  0  0  0  0  0  0  0999 V2000
    3.4402    1.0261    0.0000 C   0  0  0  0  0  0  0  0  0  0  0  0
    3.0279    1.7407    0.0000 N   0  0  0  0  0  0  0  0  0  0  0  0
    2.2034    1.7407    0.0000 C   0  0  0  0  0  0  0  0  0  0  0  0
    1.7911    2.4553    0.0000 C   0  0  0  0  0  0  0  0  0  0  0  0
    7.9752    1.7407    0.0000 C   0  0  0  0  0  0  0  0  0  0  0  0
    8.7997    1.7407    0.0000 C   0  0  0  0  0  0  0  0  0  0  0  0
    4.2648    1.0261    0.0000 C   0  0  0  0  0  0  0  0  0  0  0  0
    3.0279    0.3115    0.0000 O   0  0  0  0  0  0  0  0  0  0  0  0
    0.9666    2.4553    0.0000 C   0  0  0  0  0  0  0  0  0  0  0  0
    4.6770    0.3115    0.0000 C   0  0  0  0  0  0  0  0  0  0  0  0
    4.6770    1.7407    0.0000 C   0  0  0  0  0  0  0  0  0  0  0  0
    5.9138    1.0261    0.0000 C   0  0  0  0  0  0  0  0  0  0  0  0
    5.5016    0.3115    0.0000 C   0  0  0  0  0  0  0  0  0  0  0  0
    5.5016    1.7407    0.0000 C   0  0  0  0  0  0  0  0  0  0  0  0
    7.1506    1.7407    0.0000 C   0  0  0  0  0  0  0  0  0  0  0  0
    1.7911    1.0261    0.0000 C   0  0  0  0  0  0  0  0  0  0  0  0
    6.7384    1.0261    0.0000 O   0  0  0  0  0  0  0  0  0  0  0  0
    0.9666    1.0261    0.0000 C   0  0  0  0  0  0  0  0  0  0  0  0
    2.2034    3.1699    0.0000 C   0  0  0  0  0  0  0  0  0  0  0  0
    0.5543    1.7407    0.0000 C   0  0  0  0  0  0  0  0  0  0  0  0
    0.5543    3.1699    0.0000 C   0  0  0  0  0  0  0  0  0  0  0  0
  2  1  1  0  0  0  0
  3  2  1  0  0  0  0
  4  3  1  0  0  0  0
  5 15  1  0  0  0  0
  6  5  3  0  0  0  0
  7  1  1  0  0  0  0
  8  1  2  0  0  0  0
  9  4  2  0  0  0  0
  9 20  1  0  0  0  0
 10  7  1  0  0  0  0
 11  7  2  0  0  0  0
 12 14  2  0  0  0  0
 12 13  1  0  0  0  0
 13 10  2  0  0  0  0
 14 11  1  0  0  0  0
 15 17  1  0  0  0  0
 16  3  2  0  0  0  0
 17 12  1  0  0  0  0
 18 16  1  0  0  0  0
 19  4  1  0  0  0  0
 20 18  2  0  0  0  0
 21  9  1  0  0  0  0
M  END
> <CdId>
1641

> <Mol Weight>
279.3331

> <Formula>
C18H17NO2

> <Click_ID>
CLK022_A06 __ __ 

$$$$
