CLK032_A03
 OpenBabel03181417552D

 26 28  0  0  0  0  0  0  0  0999 V2000
   -1.1625    2.3833    0.0000 C    0  0  0  0  0  0  0  0  0  0  0  0
   -0.3375    2.3750    0.0000 N    0  0  0  0  0  0  0  0  0  0  0  0
   -1.6458    1.7208    0.0000 N    0  0  0  0  0  0  0  0  0  0  0  0
   -1.6458    3.0500    0.0000 S    0  0  0  0  0  0  0  0  0  0  0  0
   -2.4333    2.7958    0.0000 C    0  0  0  0  0  0  0  0  0  0  0  0
   -2.4333    1.9708    0.0000 C    0  0  0  0  0  0  0  0  0  0  0  0
    0.0750    3.0875    0.0000 C    0  0  0  0  0  0  0  0  0  0  0  0
   -3.1458    3.2083    0.0000 C    0  0  0  0  0  0  0  0  0  0  0  0
   -1.9458    0.3208    0.0000 C    0  0  0  0  0  0  0  0  0  0  0  0
    0.9000    3.0875    0.0000 C    0  0  0  0  0  0  0  0  0  0  0  0
   -2.4958   -0.2917    0.0000 C    0  0  0  0  0  0  0  0  0  0  0  0
   -3.1458    1.5583    0.0000 C    0  0  0  0  0  0  0  0  0  0  0  0
   -5.2875    2.8000    0.0000 C    0  0  0  0  0  0  0  0  0  0  0  0
   -4.5833    3.2125    0.0000 N    0  0  0  0  0  0  0  0  0  0  0  0
   -3.8583    2.7958    0.0000 C    0  0  0  0  0  0  0  0  0  0  0  0
   -0.3375    3.8000    0.0000 O    0  0  0  0  0  0  0  0  0  0  0  0
    1.3167    2.3708    0.0000 C    0  0  0  0  0  0  0  0  0  0  0  0
   -1.3958    0.9333    0.0000 C    0  0  0  0  0  0  0  0  0  0  0  0
   -6.0000    3.2125    0.0000 O    0  0  0  0  0  0  0  0  0  0  0  0
   -3.8583    1.9708    0.0000 C    0  0  0  0  0  0  0  0  0  0  0  0
    2.1292    2.3708    0.0000 C    0  0  0  0  0  0  0  0  0  0  0  0
    2.5542    1.6458    0.0000 Br   0  0  0  0  0  0  0  0  0  0  0  0
    1.3167    3.8000    0.0000 C    0  0  0  0  0  0  0  0  0  0  0  0
    2.1417    3.8000    0.0000 C    0  0  0  0  0  0  0  0  0  0  0  0
   -5.2958    1.9750    0.0000 C    0  0  0  0  0  0  0  0  0  0  0  0
    2.5542    3.0833    0.0000 C    0  0  0  0  0  0  0  0  0  0  0  0
  2  1  2  0  0  0  0
  3  1  1  0  0  0  0
  4  1  1  0  0  0  0
  5  4  1  0  0  0  0
  5  6  2  0  0  0  0
  6  3  1  0  0  0  0
  7  2  1  0  0  0  0
  8  5  1  0  0  0  0
  9 18  1  0  0  0  0
 10  7  1  0  0  0  0
 11  9  3  0  0  0  0
 12  6  1  0  0  0  0
 13 14  1  0  0  0  0
 14 15  1  0  0  0  0
 15  8  2  0  0  0  0
 15 20  1  0  0  0  0
 16  7  2  0  0  0  0
 17 10  2  0  0  0  0
 18  3  1  0  0  0  0
 19 13  2  0  0  0  0
 20 12  2  0  0  0  0
 21 17  1  0  0  0  0
 22 21  1  0  0  0  0
 23 10  1  0  0  0  0
 24 23  2  0  0  0  0
 25 13  1  0  0  0  0
 26 24  1  0  0  0  0
 26 21  2  0  0  0  0
M  END
> <CdId>
2407

> <Mol Weight>
428.302

> <Formula>
C19H14BrN3O2S

> <Click_ID>
CLK032_A03 __ __ 

$$$$
