CLK020_A03
 OpenBabel03181417552D

 26 28  0  0  0  0  0  0  0  0999 V2000
    1.1040    3.9120    0.0000 C   0  0  0  0  0  0  0  0  0  0  0  0
    0.4306    3.4218    0.0000 N   0  0  0  0  0  0  0  0  0  0  0  0
    1.1040    4.7182    0.0000 C   0  0  0  0  0  0  0  0  0  0  0  0
    1.7728    3.4218    0.0000 N   0  0  0  0  0  0  0  0  0  0  0  0
    0.6917    2.6385    0.0000 C   0  0  0  0  0  0  0  0  0  0  0  0
    1.8186    5.1305    0.0000 C   0  0  0  0  0  0  0  0  0  0  0  0
    1.5163    2.6385    0.0000 C   0  0  0  0  0  0  0  0  0  0  0  0
    0.3894    5.1305    0.0000 C   0  0  0  0  0  0  0  0  0  0  0  0
   -0.3252    5.5428    0.0000 N   0  0  0  0  0  0  0  0  0  0  0  0
    6.1016    3.4997    0.0000 C   0  0  0  0  0  0  0  0  0  0  0  0
    6.8162    3.0874    0.0000 C   0  0  0  0  0  0  0  0  0  0  0  0
    3.2478    3.4997    0.0000 C   0  0  0  0  0  0  0  0  0  0  0  0
    2.5332    4.7182    0.0000 C   0  0  0  0  0  0  0  0  0  0  0  0
    0.2795    1.9239    0.0000 C   0  0  0  0  0  0  0  0  0  0  0  0
    2.5332    3.9120    0.0000 C   0  0  0  0  0  0  0  0  0  0  0  0
    3.9578    3.9120    0.0000 C   0  0  0  0  0  0  0  0  0  0  0  0
    1.9285    1.9239    0.0000 C   0  0  0  0  0  0  0  0  0  0  0  0
    3.9578    4.7182    0.0000 C   0  0  0  0  0  0  0  0  0  0  0  0
    0.6917    1.2093    0.0000 C   0  0  0  0  0  0  0  0  0  0  0  0
    3.2478    5.1305    0.0000 C   0  0  0  0  0  0  0  0  0  0  0  0
    1.5163    1.2093    0.0000 C   0  0  0  0  0  0  0  0  0  0  0  0
    3.2478    2.6751    0.0000 O   0  0  0  0  0  0  0  0  0  0  0  0
    4.6724    3.4997    0.0000 O   0  0  0  0  0  0  0  0  0  0  0  0
    5.3870    3.9120    0.0000 C   0  0  0  0  0  0  0  0  0  0  0  0
    0.2795    0.4947    0.0000 C   0  0  0  0  0  0  0  0  0  0  0  0
    2.5332    2.2629    0.0000 C   0  0  0  0  0  0  0  0  0  0  0  0
  2  1  2  0  0  0  0
  3  1  1  0  0  0  0
  4  1  1  0  0  0  0
  5  2  1  0  0  0  0
  5  7  1  0  0  0  0
  6  3  2  0  0  0  0
  7  4  1  0  0  0  0
  8  3  1  0  0  0  0
  9  8  3  0  0  0  0
 10 24  1  0  0  0  0
 11 10  3  0  0  0  0
 12 15  1  0  0  0  0
 12 16  2  0  0  0  0
 13  6  1  0  0  0  0
 14  5  2  0  0  0  0
 15 13  2  0  0  0  0
 16 18  1  0  0  0  0
 17  7  2  0  0  0  0
 18 20  2  0  0  0  0
 19 14  1  0  0  0  0
 19 21  2  0  0  0  0
 20 13  1  0  0  0  0
 21 17  1  0  0  0  0
 22 12  1  0  0  0  0
 23 16  1  0  0  0  0
 24 23  1  0  0  0  0
 25 19  1  0  0  0  0
 26 22  1  0  0  0  0
M  END
> <CdId>
1478

> <Mol Weight>
343.3786

> <Formula>
C21H17N3O2

> <Click_ID>
CLK020_A03 __ __ 

$$$$
