CLK047H11
 OpenBabel03181417552D

 18 20  0  0  0  0  0  0  0  0999 V2000
    0.6861    0.7466    0.0000 C   0  0  3  0  0  0  0  0  0  0  0  0
    1.0413   -0.5529    0.0000 C   0  0  3  0  0  0  0  0  0  0  0  0
   -2.9019   -0.6982    0.0000 C   0  0  0  0  0  0  0  0  0  0  0  0
   -3.6971   -0.6054    0.0000 C   0  0  0  0  0  0  0  0  0  0  0  0
   -0.6861   -0.1130    0.0000 C   0  0  0  0  0  0  0  0  0  0  0  0
    1.9696    0.4722    0.0000 C   0  0  3  0  0  0  0  0  0  0  0  0
    0.3189    0.7951    0.0000 C   0  0  3  0  0  0  0  0  0  0  0  0
    0.5529   -0.1776    0.0000 C   0  0  0  0  0  0  0  0  0  0  0  0
   -0.1252    0.4924    0.0000 C   0  0  0  0  0  0  0  0  0  0  0  0
    1.4853    0.9929    0.0000 C   0  0  0  0  0  0  0  0  0  0  0  0
    0.9162    1.3319    0.0000 C   0  0  0  0  0  0  0  0  0  0  0  0
    1.8324   -0.3189    0.0000 C   0  0  0  0  0  0  0  0  0  0  0  0
    0.2341   -0.1252    0.0000 C   0  0  0  0  0  0  0  0  0  0  0  0
   -0.5207   -0.9041    0.0000 O   0  0  0  0  0  0  0  0  0  0  0  0
    1.1624    0.8718    0.0000 C   0  0  0  0  0  0  0  0  0  0  0  0
   -1.4974   -0.1574    0.0000 N   0  0  0  0  0  0  0  0  0  0  0  0
    1.2876   -1.3157    0.0000 O   0  0  0  0  0  0  0  0  0  0  0  0
   -2.0988   -0.6942    0.0000 C   0  0  0  0  0  0  0  0  0  0  0  0
  2  8  1  0  0  0  0
  3 18  1  0  0  0  0
  4  3  3  0  0  0  0
  5  9  1  0  0  0  0
  6 10  1  0  0  0  0
  7 11  1  0  0  0  0
  8  1  1  0  0  0  0
  9  1  1  0  0  0  0
 10  1  1  0  0  0  0
 11  1  1  0  0  0  0
 12  6  1  0  0  0  0
 12  2  1  0  0  0  0
 13  7  1  0  0  0  0
 13  2  1  0  0  0  0
 14  5  2  0  0  0  0
 15  7  1  0  0  0  0
 15  6  1  0  0  0  0
 16  5  1  0  0  0  0
 17  2  1  0  0  0  0
 18 16  1  0  0  0  0
M  END
> <CdId>
3648

> <Mol Weight>
247.3327

> <Formula>
C15H21NO2

> <Click_ID>
CLK047H11 __ __ 

$$$$
