CLK002_D08
 OpenBabel03181417552D

 20 20  0  0  0  0  0  0  0  0999 V2000
   -0.9124    0.0712    0.0000 C   0  0  0  0  0  0  0  0  0  0  0  0
   -0.0809    0.0712    0.0000 S   0  0  0  0  0  0  0  0  0  0  0  0
   -1.3200    0.7862    0.0000 C   0  0  0  0  0  0  0  0  0  0  0  0
   -1.3200   -0.6438    0.0000 C   0  0  0  0  0  0  0  0  0  0  0  0
    0.7441    0.0712    0.0000 N   0  0  0  0  0  0  0  0  0  0  0  0
   -0.0809   -0.7603    0.0000 O   0  0  0  0  0  0  0  0  0  0  0  0
   -0.0809    0.8962    0.0000 O   0  0  0  0  0  0  0  0  0  0  0  0
   -2.1450    0.7862    0.0000 C   0  0  0  0  0  0  0  0  0  0  0  0
   -0.9124    1.5141    0.0000 C   0  0  0  0  0  0  0  0  0  0  0  0
   -2.1450   -0.6438    0.0000 C   0  0  0  0  0  0  0  0  0  0  0  0
   -0.9124   -1.3556    0.0000 C   0  0  0  0  0  0  0  0  0  0  0  0
    1.1518    0.7862    0.0000 C   0  0  0  0  0  0  0  0  0  0  0  0
   -2.5656    0.0712    0.0000 C   0  0  0  0  0  0  0  0  0  0  0  0
    1.9833    0.7862    0.0000 C   0  0  0  0  0  0  0  0  0  0  0  0
   -3.3842    0.0712    0.0000 C   0  0  0  0  0  0  0  0  0  0  0  0
    2.3909    0.0712    0.0000 O   0  0  0  0  0  0  0  0  0  0  0  0
    2.3909    1.5141    0.0000 O   0  0  0  0  0  0  0  0  0  0  0  0
    1.9833   -0.6438    0.0000 C   0  0  0  0  0  0  0  0  0  0  0  0
    2.3909   -1.3556    0.0000 C   0  0  0  0  0  0  0  0  0  0  0  0
    2.8277   -2.0738    0.0000 C   0  0  0  0  0  0  0  0  0  0  0  0
  1  2  1  0  0  0  0
  1  3  1  0  0  0  0
  1  4  2  0  0  0  0
  2  5  1  0  0  0  0
  2  6  2  0  0  0  0
  2  7  2  0  0  0  0
  3  8  2  0  0  0  0
  3  9  1  0  0  0  0
  4 10  1  0  0  0  0
  4 11  1  0  0  0  0
  5 12  1  0  0  0  0
  8 13  1  0  0  0  0
 10 13  2  0  0  0  0
 12 14  1  0  0  0  0
 13 15  1  0  0  0  0
 14 16  1  0  0  0  0
 14 17  2  0  0  0  0
 16 18  1  0  0  0  0
 18 19  1  0  0  0  0
 19 20  3  0  0  0  0
M  END
> <CdId>
117

> <Mol Weight>
295.354

> <Formula>
C14H17NO4S

> <Click_ID>
CLK002_D08 __ __ 

$$$$
