CLK019_E07
 OpenBabel03181417552D

 21 22  0  0  0  0  0  0  0  0999 V2000
    3.4196    0.3841    0.0000 C    0  0  0  0  0  0  0  0  0  0  0  0
    3.4113    1.2108    0.0000 C    0  0  0  0  0  0  0  0  0  0  0  0
    4.1378   -0.0293    0.0000 C    0  0  0  0  0  0  0  0  0  0  0  0
    4.8517   -0.4426    0.0000 N    0  0  0  0  0  0  0  0  0  0  0  0
   -0.1085    4.0834    0.0000 C    0  0  0  0  0  0  0  0  0  0  0  0
   -0.8100    4.5010    0.0000 C    0  0  0  0  0  0  0  0  0  0  0  0
    2.7056   -0.0293    0.0000 C    0  0  0  0  0  0  0  0  0  0  0  0
    2.7098    1.6116    0.0000 C    0  0  0  0  0  0  0  0  0  0  0  0
    1.9833    0.3758    0.0000 C    0  0  0  0  0  0  0  0  0  0  0  0
    2.7056   -0.8685    0.0000 C    0  0  0  0  0  0  0  0  0  0  0  0
    1.2693   -0.8685    0.0000 C    0  0  0  0  0  0  0  0  0  0  0  0
    1.2902    2.4383    0.0000 C    0  0  0  0  0  0  0  0  0  0  0  0
    1.9833   -1.2819    0.0000 C    0  0  0  0  0  0  0  0  0  0  0  0
    1.2693   -0.0293    0.0000 C    0  0  0  0  0  0  0  0  0  0  0  0
    0.5553   -1.2819    0.0000 Cl   0  0  0  0  0  0  0  0  0  0  0  0
    2.7098    2.4258    0.0000 C    0  0  0  0  0  0  0  0  0  0  0  0
    1.9916    1.2108    0.0000 C    0  0  0  0  0  0  0  0  0  0  0  0
    1.2902    1.6242    0.0000 C    0  0  0  0  0  0  0  0  0  0  0  0
    1.9958    2.8517    0.0000 C    0  0  0  0  0  0  0  0  0  0  0  0
    0.5929    3.6784    0.0000 C    0  0  0  0  0  0  0  0  0  0  0  0
    0.5929    2.8517    0.0000 O    0  0  0  0  0  0  0  0  0  0  0  0
  2  1  2  0  0  0  0
  3  1  1  0  0  0  0
  4  3  3  0  0  0  0
  5 20  1  0  0  0  0
  6  5  3  0  0  0  0
  7  1  1  0  0  0  0
  8  2  1  0  0  0  0
  9  7  2  0  0  0  0
 10  7  1  0  0  0  0
 11 13  1  0  0  0  0
 12 18  2  0  0  0  0
 13 10  2  0  0  0  0
 14  9  1  0  0  0  0
 14 11  2  0  0  0  0
 15 11  1  0  0  0  0
 16  8  1  0  0  0  0
 17  8  2  0  0  0  0
 18 17  1  0  0  0  0
 19 16  2  0  0  0  0
 19 12  1  0  0  0  0
 20 21  1  0  0  0  0
 21 12  1  0  0  0  0
M  END
> <CdId>
1442

> <Mol Weight>
293.747

> <Formula>
C18H12ClNO

> <Click_ID>
CLK019_E07 __ __ 

$$$$
