CLK006_D11
 OpenBabel03181417552D

 28 31  0  0  0  0  0  0  0  0999 V2000
    1.4429    0.1104    0.0000 C   0  0  0  0  0  0  0  0  0  0  0  0
    2.2057    0.4488    0.0000 C   0  0  0  0  0  0  0  0  0  0  0  0
    0.8975    0.7318    0.0000 C   0  0  0  0  0  0  0  0  0  0  0  0
    1.2737   -0.6938    0.0000 C   0  0  0  0  0  0  0  0  0  0  0  0
    2.1263    1.2703    0.0000 C   0  0  0  0  0  0  0  0  0  0  0  0
    2.9652    0.0967    0.0000 C   0  0  0  0  0  0  0  0  0  0  0  0
    1.3152    1.4498    0.0000 N   0  0  0  0  0  0  0  0  0  0  0  0
    0.4867   -0.9458    0.0000 C   0  0  0  0  0  0  0  0  0  0  0  0
    2.7926    1.7397    0.0000 C   0  0  0  0  0  0  0  0  0  0  0  0
    3.6278    0.5937    0.0000 C   0  0  0  0  0  0  0  0  0  0  0  0
    0.9872    2.2057    0.0000 C   0  0  0  0  0  0  0  0  0  0  0  0
   -0.1864   -0.4660    0.0000 C   0  0  0  0  0  0  0  0  0  0  0  0
    0.2278   -1.7328    0.0000 S   0  0  0  0  0  0  0  0  0  0  0  0
    3.5451    1.4118    0.0000 C   0  0  0  0  0  0  0  0  0  0  0  0
    1.4774    2.8685    0.0000 C   0  0  0  0  0  0  0  0  0  0  0  0
   -0.8492   -0.9458    0.0000 N   0  0  0  0  0  0  0  0  0  0  0  0
   -0.1864    0.3590    0.0000 O   0  0  0  0  0  0  0  0  0  0  0  0
   -0.5972   -1.7328    0.0000 C   0  0  0  0  0  0  0  0  0  0  0  0
    2.0055    3.4933    0.0000 C   0  0  0  0  0  0  0  0  0  0  0  0
   -1.6362   -0.6938    0.0000 C   0  0  0  0  0  0  0  0  0  0  0  0
   -1.0873   -2.3956    0.0000 O   0  0  0  0  0  0  0  0  0  0  0  0
   -2.2506   -1.2461    0.0000 C   0  0  0  0  0  0  0  0  0  0  0  0
   -3.0376   -0.9941    0.0000 N   0  0  0  0  0  0  0  0  0  0  0  0
   -2.0745   -2.0538    0.0000 O   0  0  0  0  0  0  0  0  0  0  0  0
   -3.7004   -1.4705    0.0000 C   0  0  0  0  0  0  0  0  0  0  0  0
   -3.2896   -0.2071    0.0000 C   0  0  0  0  0  0  0  0  0  0  0  0
   -4.3631   -0.9907    0.0000 C   0  0  0  0  0  0  0  0  0  0  0  0
   -4.1145   -0.2071    0.0000 C   0  0  0  0  0  0  0  0  0  0  0  0
  1  2  1  0  0  0  0
  1  3  2  0  0  0  0
  1  4  1  0  0  0  0
  2  5  1  0  0  0  0
  2  6  2  0  0  0  0
  3  7  1  0  0  0  0
  4  8  2  0  0  0  0
  5  9  2  0  0  0  0
  5  7  1  0  0  0  0
  6 10  1  0  0  0  0
  7 11  1  0  0  0  0
  8 12  1  0  0  0  0
  8 13  1  0  0  0  0
  9 14  1  0  0  0  0
 10 14  2  0  0  0  0
 11 15  1  0  0  0  0
 12 16  1  0  0  0  0
 12 17  2  0  0  0  0
 13 18  1  0  0  0  0
 15 19  3  0  0  0  0
 16 20  1  0  0  0  0
 16 18  1  0  0  0  0
 18 21  2  0  0  0  0
 20 22  1  0  0  0  0
 22 23  1  0  0  0  0
 22 24  2  0  0  0  0
 23 25  1  0  0  0  0
 23 26  1  0  0  0  0
 25 27  1  0  0  0  0
 26 28  1  0  0  0  0
 27 28  1  0  0  0  0
M  END
> <CdId>
440

> <Mol Weight>
393.459

> <Formula>
C21H19N3O3S

> <Click_ID>
CLK006_D11 __ __ 

$$$$
