CLK037F10
 OpenBabel03181417552D

 25 26  0  0  0  0  0  0  0  0999 V2000
    0.0250    1.1417    0.0000 N    0  0  0  0  0  0  0  0  0  0  0  0
    0.0250    0.3167    0.0000 N    0  0  0  0  0  0  0  0  0  0  0  0
   -0.6875   -0.0958    0.0000 C    0  0  0  0  0  0  0  0  0  0  0  0
   -0.6875    1.5542    0.0000 C    0  0  0  0  0  0  0  0  0  0  0  0
   -0.6875   -0.9208    0.0000 C    0  0  0  0  0  0  0  0  0  0  0  0
   -1.4042    0.3167    0.0000 C    0  0  0  0  0  0  0  0  0  0  0  0
   -1.4042    1.1417    0.0000 C    0  0  0  0  0  0  0  0  0  0  0  0
    0.7417    1.5542    0.0000 C    0  0  0  0  0  0  0  0  0  0  0  0
    0.0250   -1.3333    0.0000 N    0  0  0  0  0  0  0  0  0  0  0  0
    0.0250   -2.9833    0.0000 C    0  0  0  0  0  0  0  0  0  0  0  0
    0.0250   -3.8083    0.0000 C    0  0  0  0  0  0  0  0  0  0  0  0
    0.0250   -2.1583    0.0000 C    0  0  0  0  0  0  0  0  0  0  0  0
    0.7417    2.3792    0.0000 C    0  0  0  0  0  0  0  0  0  0  0  0
   -1.4042   -1.3333    0.0000 O    0  0  0  0  0  0  0  0  0  0  0  0
   -2.1167   -0.0958    0.0000 O    0  0  0  0  0  0  0  0  0  0  0  0
    0.0250    2.7917    0.0000 Cl   0  0  0  0  0  0  0  0  0  0  0  0
   -0.6875    2.3792    0.0000 C    0  0  0  0  0  0  0  0  0  0  0  0
    1.4542    1.1417    0.0000 C    0  0  0  0  0  0  0  0  0  0  0  0
   -0.8000   -2.1583    0.0000 C    0  0  0  0  0  0  0  0  0  0  0  0
    0.8500   -2.1583    0.0000 C    0  0  0  0  0  0  0  0  0  0  0  0
    1.4542    2.7917    0.0000 C    0  0  0  0  0  0  0  0  0  0  0  0
    2.1708    1.5542    0.0000 C    0  0  0  0  0  0  0  0  0  0  0  0
   -1.2125   -1.4458    0.0000 C    0  0  0  0  0  0  0  0  0  0  0  0
    1.2625   -2.8750    0.0000 C    0  0  0  0  0  0  0  0  0  0  0  0
    2.1708    2.3792    0.0000 C    0  0  0  0  0  0  0  0  0  0  0  0
  2  1  1  0  0  0  0
  3  2  2  0  0  0  0
  4  1  1  0  0  0  0
  5  3  1  0  0  0  0
  6  7  1  0  0  0  0
  6  3  1  0  0  0  0
  7  4  2  0  0  0  0
  8  1  1  0  0  0  0
  9  5  1  0  0  0  0
 10 12  1  0  0  0  0
 11 10  3  0  0  0  0
 12  9  1  0  0  0  0
 13  8  2  0  0  0  0
 14  5  2  0  0  0  0
 15  6  2  0  0  0  0
 16 13  1  0  0  0  0
 17  4  1  0  0  0  0
 18  8  1  0  0  0  0
 19 12  1  0  0  0  0
 20 12  1  0  0  0  0
 21 13  1  0  0  0  0
 22 18  2  0  0  0  0
 23 19  1  0  0  0  0
 24 20  1  0  0  0  0
 25 21  2  0  0  0  0
 25 22  1  0  0  0  0
M  END
> <CdId>
2838

> <Mol Weight>
357.834

> <Formula>
C19H20ClN3O2

> <Click_ID>
CLK037F10 __ __ 

$$$$
