CLK010_B05
 OpenBabel03181417552D

 28 30  0  0  0  0  0  0  0  0999 V2000
    9.8405   -5.3762    0.0000 N    0  0  0  0  0  0  0  0  0  0  0  0
    8.5970   -4.6550    0.0000 C    0  0  0  0  0  0  0  0  0  0  0  0
    9.4259   -4.6550    0.0000 C    0  0  0  0  0  0  0  0  0  0  0  0
    9.4259   -6.0850    0.0000 C    0  0  0  0  0  0  0  0  0  0  0  0
    8.6052   -6.0850    0.0000 N    0  0  0  0  0  0  0  0  0  0  0  0
    8.1866   -5.3720    0.0000 C    0  0  0  0  0  0  0  0  0  0  0  0
    8.1866   -3.9337    0.0000 C    0  0  0  0  0  0  0  0  0  0  0  0
   10.6695   -5.3762    0.0000 C    0  0  0  0  0  0  0  0  0  0  0  0
    3.6560   -3.1876    0.0000 C    0  0  0  0  0  0  0  0  0  0  0  0
    9.8405   -6.8063    0.0000 O    0  0  0  0  0  0  0  0  0  0  0  0
    2.8270   -3.1752    0.0000 C    0  0  0  0  0  0  0  0  0  0  0  0
    9.8405   -3.9420    0.0000 O    0  0  0  0  0  0  0  0  0  0  0  0
    6.1306   -3.2207    0.0000 C    0  0  0  0  0  0  0  0  0  0  0  0
    7.3617   -5.3762    0.0000 O    0  0  0  0  0  0  0  0  0  0  0  0
    7.3617   -3.9337    0.0000 C    0  0  0  0  0  0  0  0  0  0  0  0
    6.9555   -3.2249    0.0000 C    0  0  0  0  0  0  0  0  0  0  0  0
    5.7120   -3.9295    0.0000 C    0  0  0  0  0  0  0  0  0  0  0  0
   11.0798   -6.0933    0.0000 C    0  0  0  0  0  0  0  0  0  0  0  0
   11.0798   -4.6550    0.0000 C    0  0  0  0  0  0  0  0  0  0  0  0
    6.1182   -4.6425    0.0000 C    0  0  0  0  0  0  0  0  0  0  0  0
    5.7244   -2.5037    0.0000 Br   0  0  0  0  0  0  0  0  0  0  0  0
    6.9431   -4.6508    0.0000 C    0  0  0  0  0  0  0  0  0  0  0  0
   12.3234   -5.3762    0.0000 C    0  0  0  0  0  0  0  0  0  0  0  0
   11.9047   -6.0975    0.0000 C    0  0  0  0  0  0  0  0  0  0  0  0
   11.9130   -4.6632    0.0000 C    0  0  0  0  0  0  0  0  0  0  0  0
   13.1565   -5.3887    0.0000 F    0  0  0  0  0  0  0  0  0  0  0  0
    4.8871   -3.9171    0.0000 O    0  0  0  0  0  0  0  0  0  0  0  0
    4.4809   -3.2000    0.0000 C    0  0  0  0  0  0  0  0  0  0  0  0
  2  3  1  0  0  0  0
  3  1  1  0  0  0  0
  4  1  1  0  0  0  0
  5  4  1  0  0  0  0
  6  5  1  0  0  0  0
  6  2  1  0  0  0  0
  7  2  2  0  0  0  0
  8  1  1  0  0  0  0
  9 28  1  0  0  0  0
 10  4  2  0  0  0  0
 11  9  3  0  0  0  0
 12  3  2  0  0  0  0
 13 16  2  0  0  0  0
 14  6  2  0  0  0  0
 15  7  1  0  0  0  0
 16 15  1  0  0  0  0
 17 20  2  0  0  0  0
 17 13  1  0  0  0  0
 18  8  2  0  0  0  0
 19  8  1  0  0  0  0
 20 22  1  0  0  0  0
 21 13  1  0  0  0  0
 22 15  2  0  0  0  0
 23 25  1  0  0  0  0
 23 24  2  0  0  0  0
 24 18  1  0  0  0  0
 25 19  2  0  0  0  0
 26 23  1  0  0  0  0
 27 17  1  0  0  0  0
 28 27  1  0  0  0  0
M  END
> <CdId>
690

> <Mol Weight>
443.223

> <Formula>
C20H12BrFN2O4

> <Click_ID>
CLK010_B05 __ __ 

$$$$
