CLK003_G06
 OpenBabel03181417552D

 27 29  0  0  0  0  0  0  0  0999 V2000
   -1.7777    0.0758    0.0000 C   0  0  3  0  0  0  0  0  0  0  0  0
   -2.5890   -0.0607    0.0000 C   0  0  0  0  0  0  0  0  0  0  0  0
   -1.3950   -0.6520    0.0000 C   0  0  0  0  0  0  0  0  0  0  0  0
   -0.8491    0.7088    0.0000 C   0  0  0  0  0  0  0  0  0  0  0  0
   -2.0393    1.0158    0.0000 O   0  0  0  0  0  0  0  0  0  0  0  0
   -2.7026   -0.8794    0.0000 C   0  0  0  0  0  0  0  0  0  0  0  0
   -3.2371    0.4473    0.0000 C   0  0  0  0  0  0  0  0  0  0  0  0
   -1.9711   -1.2433    0.0000 N   0  0  0  0  0  0  0  0  0  0  0  0
   -0.5724   -0.7619    0.0000 O   0  0  0  0  0  0  0  0  0  0  0  0
   -0.0607    0.2957    0.0000 C   0  0  0  0  0  0  0  0  0  0  0  0
   -3.4684   -1.1864    0.0000 C   0  0  0  0  0  0  0  0  0  0  0  0
   -4.0066    0.1440    0.0000 C   0  0  0  0  0  0  0  0  0  0  0  0
   -1.8232   -2.0545    0.0000 C   0  0  0  0  0  0  0  0  0  0  0  0
    0.6406    0.7354    0.0000 C   0  0  0  0  0  0  0  0  0  0  0  0
   -0.0228   -0.3905    0.0000 O   0  0  0  0  0  0  0  0  0  0  0  0
   -4.1203   -0.6785    0.0000 C   0  0  0  0  0  0  0  0  0  0  0  0
   -1.0500   -2.3388    0.0000 C   0  0  0  0  0  0  0  0  0  0  0  0
    1.3684    0.3563    0.0000 C   0  0  0  0  0  0  0  0  0  0  0  0
   -0.2805   -2.6155    0.0000 C   0  0  0  0  0  0  0  0  0  0  0  0
    2.0658    0.8036    0.0000 C   0  0  0  0  0  0  0  0  0  0  0  0
    2.7974    0.4208    0.0000 C   0  0  0  0  0  0  0  0  0  0  0  0
    3.4949    0.8642    0.0000 C   0  0  0  0  0  0  0  0  0  0  0  0
    3.4532    1.6868    0.0000 C   0  0  0  0  0  0  0  0  0  0  0  0
    4.2227    0.4889    0.0000 C   0  0  0  0  0  0  0  0  0  0  0  0
    4.1431    2.1378    0.0000 C   0  0  0  0  0  0  0  0  0  0  0  0
    4.9126    0.9287    0.0000 C   0  0  0  0  0  0  0  0  0  0  0  0
    4.8822    1.7512    0.0000 C   0  0  0  0  0  0  0  0  0  0  0  0
  1  2  1  0  0  0  0
  1  3  1  0  0  0  0
  1  4  1  0  0  0  0
  1  5  1  0  0  0  0
  2  6  2  0  0  0  0
  2  7  1  0  0  0  0
  3  8  1  0  0  0  0
  3  9  2  0  0  0  0
  4 10  1  0  0  0  0
  6 11  1  0  0  0  0
  6  8  1  0  0  0  0
  7 12  2  0  0  0  0
  8 13  1  0  0  0  0
 10 14  1  0  0  0  0
 10 15  2  0  0  0  0
 11 16  2  0  0  0  0
 12 16  1  0  0  0  0
 13 17  1  0  0  0  0
 14 18  2  0  0  0  0
 17 19  3  0  0  0  0
 18 20  1  0  0  0  0
 20 21  2  0  0  0  0
 21 22  1  0  0  0  0
 22 23  2  0  0  0  0
 22 24  1  0  0  0  0
 23 25  1  0  0  0  0
 24 26  2  0  0  0  0
 25 27  2  0  0  0  0
 26 27  1  0  0  0  0
M  END
> <CdId>
225

> <Mol Weight>
357.4019

> <Formula>
C23H19NO3

> <Click_ID>
CLK003_G06 __ __ 

$$$$
