CLK001_A10
 OpenBabel03181417552D

 16 17  0  0  0  0  0  0  0  0999 V2000
   -0.4637   -0.5660    0.0000 C   0  0  3  0  0  0  0  0  0  0  0  0
   -0.4637    0.2590    0.0000 C   0  0  0  0  0  0  0  0  0  0  0  0
    0.3613   -0.5660    0.0000 C   0  0  0  0  0  0  0  0  0  0  0  0
   -1.2903   -0.5660    0.0000 C   0  0  0  0  0  0  0  0  0  0  0  0
   -0.4637   -1.3910    0.0000 O   0  0  0  0  0  0  0  0  0  0  0  0
    0.2494    0.6667    0.0000 C   0  0  0  0  0  0  0  0  0  0  0  0
   -1.1784    0.6763    0.0000 C   0  0  0  0  0  0  0  0  0  0  0  0
    0.7690    0.1391    0.0000 C   0  0  0  0  0  0  0  0  0  0  0  0
    0.7786   -1.2807    0.0000 C   0  0  0  0  0  0  0  0  0  0  0  0
   -2.1057   -0.5660    0.0000 C   0  0  0  0  0  0  0  0  0  0  0  0
    0.2494    1.4933    0.0000 C   0  0  0  0  0  0  0  0  0  0  0  0
   -1.1784    1.5029    0.0000 C   0  0  0  0  0  0  0  0  0  0  0  0
    1.5940    0.1391    0.0000 C   0  0  0  0  0  0  0  0  0  0  0  0
    1.6036   -1.2807    0.0000 N   0  0  0  0  0  0  0  0  0  0  0  0
   -0.4637    1.9010    0.0000 C   0  0  0  0  0  0  0  0  0  0  0  0
    2.0017   -0.5660    0.0000 C   0  0  0  0  0  0  0  0  0  0  0  0
  1  2  1  0  0  0  0
  1  3  1  0  0  0  0
  1  4  1  0  0  0  0
  1  5  1  0  0  0  0
  2  6  1  0  0  0  0
  2  7  2  0  0  0  0
  3  8  1  0  0  0  0
  3  9  2  0  0  0  0
  4 10  3  0  0  0  0
  6 11  2  0  0  0  0
  7 12  1  0  0  0  0
  8 13  2  0  0  0  0
  9 14  1  0  0  0  0
 11 15  1  0  0  0  0
 12 15  2  0  0  0  0
 13 16  1  0  0  0  0
 14 16  2  0  0  0  0
M  END
> <CdId>
9

> <Mol Weight>
209.2432

> <Formula>
C14H11NO

> <Click_ID>
CLK001_A10 __ __ 

$$$$
