CLK016_A07
 OpenBabel03181417552D

 27 29  0  0  0  0  0  0  0  0999 V2000
    1.5619   -0.8142    0.0000 N   0  0  0  0  0  0  0  0  0  0  0  0
    1.8195   -1.5993    0.0000 C   0  0  0  0  0  0  0  0  0  0  0  0
    2.8954   -0.8142    0.0000 C   0  0  0  0  0  0  0  0  0  0  0  0
    2.2307   -0.3282    0.0000 C   0  0  0  0  0  0  0  0  0  0  0  0
    2.6420   -1.5993    0.0000 S   0  0  0  0  0  0  0  0  0  0  0  0
    7.0079    3.5849    0.0000 N   0  3  0  0  0  0  0  0  0  0  0  0
    4.5362    1.3833    0.0000 C   0  0  0  0  0  0  0  0  0  0  0  0
    3.6805   -0.5608    0.0000 C   0  0  0  0  0  0  0  0  0  0  0  0
    5.1510    1.9399    0.0000 C   0  0  0  0  0  0  0  0  0  0  0  0
    4.6152    0.5691    0.0000 O   0  0  0  0  0  0  0  0  0  0  0  0
    3.8632    0.2451    0.0000 C   0  0  0  0  0  0  0  0  0  0  0  0
    6.3848    3.0241    0.0000 C   0  0  0  0  0  0  0  0  0  0  0  0
    5.9361    1.6782    0.0000 C   0  0  0  0  0  0  0  0  0  0  0  0
    6.5551    2.2182    0.0000 C   0  0  0  0  0  0  0  0  0  0  0  0
    3.7179    1.5660    0.0000 C   0  0  0  0  0  0  0  0  0  0  0  0
    0.6106    0.2451    0.0000 C   0  0  0  0  0  0  0  0  0  0  0  0
    3.3066    0.8557    0.0000 C   0  0  0  0  0  0  0  0  0  0  0  0
    4.9848    2.7375    0.0000 C   0  0  0  0  0  0  0  0  0  0  0  0
    0.3905    1.0426    0.0000 C   0  0  0  0  0  0  0  0  0  0  0  0
    7.7888    3.3232    0.0000 O   0  5  0  0  0  0  0  0  0  0  0  0
    1.3334   -2.2598    0.0000 O   0  0  0  0  0  0  0  0  0  0  0  0
    6.8417    4.3784    0.0000 O   0  0  0  0  0  0  0  0  0  0  0  0
    2.2224    0.4943    0.0000 O   0  0  0  0  0  0  0  0  0  0  0  0
    0.7851   -0.5608    0.0000 C   0  0  0  0  0  0  0  0  0  0  0  0
    5.5997    3.2900    0.0000 C   0  0  0  0  0  0  0  0  0  0  0  0
    6.1064    0.8682    0.0000 O   0  0  0  0  0  0  0  0  0  0  0  0
    6.8833    0.6065    0.0000 C   0  0  0  0  0  0  0  0  0  0  0  0
  2  1  1  0  0  0  0
  3  4  1  0  0  0  0
  4  1  1  0  0  0  0
  5  2  1  0  0  0  0
  5  3  1  0  0  0  0
  6 12  1  0  0  0  0
  7 10  1  0  0  0  0
  8  3  2  0  0  0  0
  9  7  1  0  0  0  0
 10 11  1  0  0  0  0
 11  8  1  0  0  0  0
 12 25  1  0  0  0  0
 13  9  2  0  0  0  0
 14 13  1  0  0  0  0
 14 12  2  0  0  0  0
 15 17  1  0  0  0  0
 15  7  2  0  0  0  0
 16 24  1  0  0  0  0
 17 11  2  0  0  0  0
 18  9  1  0  0  0  0
 19 16  3  0  0  0  0
 20  6  1  0  0  0  0
 21  2  2  0  0  0  0
 22  6  2  0  0  0  0
 23  4  2  0  0  0  0
 24  1  1  0  0  0  0
 25 18  2  0  0  0  0
 26 13  1  0  0  0  0
 27 26  1  0  0  0  0
M  END
> <CdId>
1162

> <Mol Weight>
384.363

> <Formula>
C18H12N2O6S

> <Click_ID>
CLK016_A07 __ __ 

$$$$
