CLK036_E04
 OpenBabel03181417552D

 26 28  0  0  0  0  0  0  0  0999 V2000
    3.6873   -0.2165    0.0000 C   0  0  0  0  0  0  0  0  0  0  0  0
    4.1742   -0.8906    0.0000 N   0  0  0  0  0  0  0  0  0  0  0  0
    2.8633   -0.2165    0.0000 N   0  0  0  0  0  0  0  0  0  0  0  0
    3.9370    0.5619    0.0000 S   0  0  0  0  0  0  0  0  0  0  0  0
    4.9982   -0.7990    0.0000 C   0  0  0  0  0  0  0  0  0  0  0  0
    6.6338   -0.6160    0.0000 S   0  0  0  0  0  0  0  0  0  0  0  0
    2.6011    0.5702    0.0000 C   0  0  0  0  0  0  0  0  0  0  0  0
    5.4852   -1.4650    0.0000 C   0  0  0  0  0  0  0  0  0  0  0  0
    3.2711    1.0487    0.0000 C   0  0  0  0  0  0  0  0  0  0  0  0
    6.3050   -1.3776    0.0000 C   0  0  0  0  0  0  0  0  0  0  0  0
    1.5524   -0.8157    0.0000 C   0  0  0  0  0  0  0  0  0  0  0  0
    0.7283   -0.7408    0.0000 C   0  0  0  0  0  0  0  0  0  0  0  0
    7.3954   -0.9488    0.0000 O   0  0  0  0  0  0  0  0  0  0  0  0
    5.8722   -0.2789    0.0000 O   0  0  0  0  0  0  0  0  0  0  0  0
    1.8520    0.9072    0.0000 C   0  0  0  0  0  0  0  0  0  0  0  0
    5.3353   -0.0417    0.0000 O   0  0  0  0  0  0  0  0  0  0  0  0
    2.3763   -0.8989    0.0000 C   0  0  0  0  0  0  0  0  0  0  0  0
    6.9709    0.1456    0.0000 C   0  0  0  0  0  0  0  0  0  0  0  0
    1.1778    0.4203    0.0000 F   0  0  0  0  0  0  0  0  0  0  0  0
    5.1481   -2.2140    0.0000 C   0  0  0  0  0  0  0  0  0  0  0  0
    3.1837    1.8686    0.0000 C   0  0  0  0  0  0  0  0  0  0  0  0
    6.7919   -2.0475    0.0000 C   0  0  0  0  0  0  0  0  0  0  0  0
    2.4263    2.2056    0.0000 C   0  0  0  0  0  0  0  0  0  0  0  0
    1.7646    1.7230    0.0000 C   0  0  0  0  0  0  0  0  0  0  0  0
    5.6350   -2.8883    0.0000 C   0  0  0  0  0  0  0  0  0  0  0  0
    6.4548   -2.8009    0.0000 C   0  0  0  0  0  0  0  0  0  0  0  0
  2  1  2  0  0  0  0
  3  1  1  0  0  0  0
  4  1  1  0  0  0  0
  5  2  1  0  0  0  0
  6 10  1  0  0  0  0
  7  3  1  0  0  0  0
  7  9  2  0  0  0  0
  8  5  1  0  0  0  0
  9  4  1  0  0  0  0
 10  8  1  0  0  0  0
 11 17  1  0  0  0  0
 12 11  3  0  0  0  0
 13  6  2  0  0  0  0
 14  6  2  0  0  0  0
 15  7  1  0  0  0  0
 16  5  2  0  0  0  0
 17  3  1  0  0  0  0
 18  6  1  0  0  0  0
 19 15  1  0  0  0  0
 20  8  2  0  0  0  0
 21  9  1  0  0  0  0
 22 10  2  0  0  0  0
 22 26  1  0  0  0  0
 23 21  2  0  0  0  0
 24 15  2  0  0  0  0
 24 23  1  0  0  0  0
 25 20  1  0  0  0  0
 26 25  2  0  0  0  0
M  END
> <CdId>
2751

> <Mol Weight>
388.436

> <Formula>
C18H13FN2O3S2

> <Click_ID>
CLK036_E04 __ __ 

$$$$
