CLK032_B11
 OpenBabel03181417552D

 26 28  0  0  0  0  0  0  0  0999 V2000
   -1.8958    2.1583    0.0000 C   0  0  0  0  0  0  0  0  0  0  0  0
   -1.0708    2.1583    0.0000 N   0  0  0  0  0  0  0  0  0  0  0  0
   -2.3750    2.8208    0.0000 N   0  0  0  0  0  0  0  0  0  0  0  0
   -0.6583    1.4458    0.0000 C   0  0  0  0  0  0  0  0  0  0  0  0
   -2.3750    1.4833    0.0000 S   0  0  0  0  0  0  0  0  0  0  0  0
   -3.1625    2.5583    0.0000 C   0  0  0  0  0  0  0  0  0  0  0  0
    0.1667    1.4458    0.0000 C   0  0  0  0  0  0  0  0  0  0  0  0
   -3.1583    1.7333    0.0000 C   0  0  0  0  0  0  0  0  0  0  0  0
   -1.3208    3.7708    0.0000 C   0  0  0  0  0  0  0  0  0  0  0  0
   -0.5208    3.9458    0.0000 C   0  0  0  0  0  0  0  0  0  0  0  0
   -1.0625    0.7250    0.0000 O   0  0  0  0  0  0  0  0  0  0  0  0
   -3.8750    2.9833    0.0000 C   0  0  0  0  0  0  0  0  0  0  0  0
    0.5875    0.7333    0.0000 C   0  0  0  0  0  0  0  0  0  0  0  0
    0.5792    2.1583    0.0000 C   0  0  0  0  0  0  0  0  0  0  0  0
   -2.1250    3.6083    0.0000 C   0  0  0  0  0  0  0  0  0  0  0  0
   -3.8750    3.8000    0.0000 F   0  0  0  0  0  0  0  0  0  0  0  0
   -3.8750    1.3250    0.0000 C   0  0  0  0  0  0  0  0  0  0  0  0
    0.1792    0.0208    0.0000 O   0  0  0  0  0  0  0  0  0  0  0  0
    0.1625    2.8708    0.0000 O   0  0  0  0  0  0  0  0  0  0  0  0
   -4.5833    1.7333    0.0000 C   0  0  0  0  0  0  0  0  0  0  0  0
    1.8167    1.4500    0.0000 C   0  0  0  0  0  0  0  0  0  0  0  0
   -4.5833    2.5583    0.0000 C   0  0  0  0  0  0  0  0  0  0  0  0
    1.4042    0.7333    0.0000 C   0  0  0  0  0  0  0  0  0  0  0  0
    1.4042    2.1583    0.0000 C   0  0  0  0  0  0  0  0  0  0  0  0
    0.5750    3.5833    0.0000 C   0  0  0  0  0  0  0  0  0  0  0  0
    0.6000   -0.6917    0.0000 C   0  0  0  0  0  0  0  0  0  0  0  0
  2  1  2  0  0  0  0
  3  1  1  0  0  0  0
  4  2  1  0  0  0  0
  5  1  1  0  0  0  0
  6  3  1  0  0  0  0
  7  4  1  0  0  0  0
  8  5  1  0  0  0  0
  8  6  2  0  0  0  0
  9 15  1  0  0  0  0
 10  9  3  0  0  0  0
 11  4  2  0  0  0  0
 12  6  1  0  0  0  0
 13  7  1  0  0  0  0
 14  7  2  0  0  0  0
 15  3  1  0  0  0  0
 16 12  1  0  0  0  0
 17  8  1  0  0  0  0
 18 13  1  0  0  0  0
 19 14  1  0  0  0  0
 20 17  2  0  0  0  0
 20 22  1  0  0  0  0
 21 24  2  0  0  0  0
 22 12  2  0  0  0  0
 23 13  2  0  0  0  0
 23 21  1  0  0  0  0
 24 14  1  0  0  0  0
 25 19  1  0  0  0  0
 26 18  1  0  0  0  0
M  END
> <CdId>
2425

> <Mol Weight>
370.397

> <Formula>
C19H15FN2O3S

> <Click_ID>
CLK032_B11 __ __ 

$$$$
