CLK001_H04
 OpenBabel03181417552D

 19 21  0  0  0  0  0  0  0  0999 V2000
   -0.0076    0.6712    0.0000 C   0  0  0  0  0  0  0  0  0  0  0  0
    0.1631   -0.1441    0.0000 C   0  0  3  0  0  0  0  0  0  0  0  0
   -0.7926    0.9139    0.0000 C   0  0  0  0  0  0  0  0  0  0  0  0
    0.5840    1.2438    0.0000 C   0  0  0  0  0  0  0  0  0  0  0  0
   -0.4475   -0.7167    0.0000 C   0  0  3  0  0  0  0  0  0  0  0  0
    0.9670   -0.3906    0.0000 O   0  0  0  0  0  0  0  0  0  0  0  0
   -1.4183    0.3488    0.0000 O   0  0  0  0  0  0  0  0  0  0  0  0
   -0.9935    1.7140    0.0000 C   0  0  0  0  0  0  0  0  0  0  0  0
    0.3944    2.0439    0.0000 C   0  0  0  0  0  0  0  0  0  0  0  0
   -1.2741   -0.4475    0.0000 C   0  0  0  0  0  0  0  0  0  0  0  0
   -0.2503   -1.5055    0.0000 C   0  0  0  0  0  0  0  0  0  0  0  0
    1.1338   -1.1984    0.0000 C   0  0  3  0  0  0  0  0  0  0  0  0
   -0.3944    2.2867    0.0000 C   0  0  0  0  0  0  0  0  0  0  0  0
   -1.8582   -0.9973    0.0000 C   0  0  0  0  0  0  0  0  0  0  0  0
   -2.2563    0.0189    0.0000 C   0  0  0  0  0  0  0  0  0  0  0  0
    0.5195   -1.7633    0.0000 C   0  0  0  0  0  0  0  0  0  0  0  0
    1.7140   -0.6106    0.0000 C   0  0  0  0  0  0  0  0  0  0  0  0
    1.9151   -1.4372    0.0000 C   0  0  0  0  0  0  0  0  0  0  0  0
    2.3018   -0.0341    0.0000 C   0  0  0  0  0  0  0  0  0  0  0  0
  1  2  1  0  0  0  0
  1  3  1  0  0  0  0
  1  4  2  0  0  0  0
  2  5  1  0  0  0  0
  2  6  1  0  0  0  0
  3  7  1  0  0  0  0
  3  8  2  0  0  0  0
  4  9  1  0  0  0  0
  5 10  1  0  0  0  0
  5 11  1  0  0  0  0
  6 12  1  0  0  0  0
  7 10  1  0  0  0  0
  8 13  1  0  0  0  0
  9 13  2  0  0  0  0
 10 14  1  0  0  0  0
 10 15  1  0  0  0  0
 11 16  1  0  0  0  0
 12 17  1  0  0  0  0
 12 18  1  0  0  0  0
 12 16  1  0  0  0  0
 17 19  3  0  0  0  0
M  END
> <CdId>
73

> <Mol Weight>
256.3395

> <Formula>
C17H20O2

> <Click_ID>
CLK001_H04 __ __ 

$$$$
