CLK017_E09
 OpenBabel03181417552D

 29 31  0  0  0  0  0  0  0  0999 V2000
    5.4248   -2.8019    0.0000 N    0  0  0  0  0  0  0  0  0  0  0  0
    5.0127   -3.5139    0.0000 C    0  0  0  0  0  0  0  0  0  0  0  0
    4.8711   -2.1899    0.0000 C    0  0  0  0  0  0  0  0  0  0  0  0
    4.1134   -2.5230    0.0000 C    0  0  0  0  0  0  0  0  0  0  0  0
    4.2008   -3.3390    0.0000 S    0  0  0  0  0  0  0  0  0  0  0  0
    6.2450   -2.7145    0.0000 C    0  0  0  0  0  0  0  0  0  0  0  0
    3.4015   -2.1108    0.0000 C    0  0  0  0  0  0  0  0  0  0  0  0
    1.2365   -3.3598    0.0000 C    0  0  0  0  0  0  0  0  0  0  0  0
    1.2407   -2.5147    0.0000 C    0  0  0  0  0  0  0  0  0  0  0  0
    1.9651   -3.7637    0.0000 C    0  0  0  0  0  0  0  0  0  0  0  0
    2.6770   -2.5272    0.0000 C    0  0  0  0  0  0  0  0  0  0  0  0
   -0.1956   -5.0210    0.0000 C    0  0  0  0  0  0  0  0  0  0  0  0
   -0.9076   -5.4248    0.0000 C    0  0  0  0  0  0  0  0  0  0  0  0
    5.3457   -4.2633    0.0000 O    0  0  0  0  0  0  0  0  0  0  0  0
    5.0376   -1.3781    0.0000 O    0  0  0  0  0  0  0  0  0  0  0  0
    1.9609   -2.1025    0.0000 C    0  0  0  0  0  0  0  0  0  0  0  0
    2.6770   -3.3515    0.0000 C    0  0  0  0  0  0  0  0  0  0  0  0
    6.5739   -1.9609    0.0000 C    0  0  0  0  0  0  0  0  0  0  0  0
    0.5288   -2.1108    0.0000 Br   0  0  0  0  0  0  0  0  0  0  0  0
    0.5246   -3.7762    0.0000 O    0  0  0  0  0  0  0  0  0  0  0  0
    1.9609   -4.5880    0.0000 O    0  0  0  0  0  0  0  0  0  0  0  0
    6.0868   -1.2990    0.0000 O    0  0  0  0  0  0  0  0  0  0  0  0
    0.5163   -4.6005    0.0000 C    0  0  0  0  0  0  0  0  0  0  0  0
    6.7238   -3.3848    0.0000 C    0  0  0  0  0  0  0  0  0  0  0  0
    7.3940   -1.8777    0.0000 C    0  0  0  0  0  0  0  0  0  0  0  0
    2.6770   -5.0085    0.0000 C    0  0  0  0  0  0  0  0  0  0  0  0
    6.4240   -0.5413    0.0000 C    0  0  0  0  0  0  0  0  0  0  0  0
    7.5356   -3.2973    0.0000 C    0  0  0  0  0  0  0  0  0  0  0  0
    7.8811   -2.5479    0.0000 C    0  0  0  0  0  0  0  0  0  0  0  0
  2  1  1  0  0  0  0
  3  1  1  0  0  0  0
  4  3  1  0  0  0  0
  4  5  1  0  0  0  0
  5  2  1  0  0  0  0
  6  1  1  0  0  0  0
  7  4  2  0  0  0  0
  8 10  1  0  0  0  0
  9 16  1  0  0  0  0
  9  8  2  0  0  0  0
 10 17  2  0  0  0  0
 11  7  1  0  0  0  0
 12 23  1  0  0  0  0
 13 12  3  0  0  0  0
 14  2  2  0  0  0  0
 15  3  2  0  0  0  0
 16 11  2  0  0  0  0
 17 11  1  0  0  0  0
 18  6  1  0  0  0  0
 19  9  1  0  0  0  0
 20  8  1  0  0  0  0
 21 10  1  0  0  0  0
 22 18  1  0  0  0  0
 23 20  1  0  0  0  0
 24  6  2  0  0  0  0
 25 18  2  0  0  0  0
 25 29  1  0  0  0  0
 26 21  1  0  0  0  0
 27 22  1  0  0  0  0
 28 24  1  0  0  0  0
 29 28  2  0  0  0  0
M  END
> <CdId>
1284

> <Mol Weight>
474.324

> <Formula>
C21H16BrNO5S

> <Click_ID>
CLK017_E09 __ __ 

$$$$
