CLK052D04
 OpenBabel03181417552D

 24 24  0  0  0  0  0  0  0  0999 V2000
    0.1750    0.3792    0.0000 C   0  0  0  0  0  0  0  0  0  0  0  0
    1.6042    2.0292    0.0000 N   0  3  0  0  0  0  0  0  0  0  0  0
    0.1750   -0.4458    0.0000 C   0  0  0  0  0  0  0  0  0  0  0  0
    0.8917    0.7917    0.0000 C   0  0  0  0  0  0  0  0  0  0  0  0
    0.8917    1.6167    0.0000 C   0  0  0  0  0  0  0  0  0  0  0  0
    0.8917   -0.8583    0.0000 N   0  0  0  0  0  0  0  0  0  0  0  0
    0.8917   -2.5083    0.0000 C   0  0  0  0  0  0  0  0  0  0  0  0
   -0.5375    0.7917    0.0000 C   0  0  0  0  0  0  0  0  0  0  0  0
    0.8917   -3.3333    0.0000 C   0  0  0  0  0  0  0  0  0  0  0  0
    2.3208    1.6167    0.0000 O   0  5  0  0  0  0  0  0  0  0  0  0
    0.8917   -1.6833    0.0000 C   0  0  0  0  0  0  0  0  0  0  0  0
    1.6042    2.8542    0.0000 O   0  0  0  0  0  0  0  0  0  0  0  0
   -0.5375   -0.8583    0.0000 O   0  0  0  0  0  0  0  0  0  0  0  0
    0.1750    2.0292    0.0000 C   0  0  0  0  0  0  0  0  0  0  0  0
   -0.5375    1.6167    0.0000 C   0  0  0  0  0  0  0  0  0  0  0  0
   -1.2542    0.3792    0.0000 N   0  0  0  0  0  0  0  0  0  0  0  0
   -3.3958    0.7917    0.0000 O   0  0  0  0  0  0  0  0  0  0  0  0
    1.7167   -1.6833    0.0000 C   0  0  0  0  0  0  0  0  0  0  0  0
    0.0667   -1.6833    0.0000 C   0  0  0  0  0  0  0  0  0  0  0  0
   -1.9667    0.7917    0.0000 C   0  0  0  0  0  0  0  0  0  0  0  0
   -2.6833    0.3792    0.0000 C   0  0  0  0  0  0  0  0  0  0  0  0
   -4.1083    0.3792    0.0000 C   0  0  0  0  0  0  0  0  0  0  0  0
   -0.3458   -0.9667    0.0000 C   0  0  0  0  0  0  0  0  0  0  0  0
    2.1292   -2.3958    0.0000 C   0  0  0  0  0  0  0  0  0  0  0  0
  2  5  1  0  0  0  0
  3  1  1  0  0  0  0
  4  1  1  0  0  0  0
  5  4  2  0  0  0  0
  6  3  1  0  0  0  0
  7 11  1  0  0  0  0
  8  1  2  0  0  0  0
  9  7  3  0  0  0  0
 10  2  1  0  0  0  0
 11  6  1  0  0  0  0
 12  2  2  0  0  0  0
 13  3  2  0  0  0  0
 14 15  2  0  0  0  0
 14  5  1  0  0  0  0
 15  8  1  0  0  0  0
 16  8  1  0  0  0  0
 17 21  1  0  0  0  0
 18 11  1  0  0  0  0
 19 11  1  0  0  0  0
 20 16  1  0  0  0  0
 21 20  1  0  0  0  0
 22 17  1  0  0  0  0
 23 19  1  0  0  0  0
 24 18  1  0  0  0  0
M  END
> <CdId>
3988

> <Mol Weight>
333.3822

> <Formula>
C17H23N3O4

> <Click_ID>
CLK052D04 __ __ 

$$$$
