CLK012_G04
 OpenBabel03181417552D

 29 31  0  0  0  0  0  0  0  0999 V2000
    1.5576   -0.8119    0.0000 N    0  0  0  0  0  0  0  0  0  0  0  0
    1.8144   -1.5948    0.0000 C    0  0  0  0  0  0  0  0  0  0  0  0
    2.2245   -0.3273    0.0000 C    0  0  0  0  0  0  0  0  0  0  0  0
    2.8873   -0.8119    0.0000 C    0  0  0  0  0  0  0  0  0  0  0  0
    2.6345   -1.5948    0.0000 S    0  0  0  0  0  0  0  0  0  0  0  0
    4.1797    1.8723    0.0000 C    0  0  0  0  0  0  0  0  0  0  0  0
    3.6702   -0.5592    0.0000 C    0  0  0  0  0  0  0  0  0  0  0  0
    4.7886    1.3255    0.0000 C    0  0  0  0  0  0  0  0  0  0  0  0
    3.3968    1.6113    0.0000 C    0  0  0  0  0  0  0  0  0  0  0  0
    3.8317    0.2485    0.0000 C    0  0  0  0  0  0  0  0  0  0  0  0
    4.3537    2.6801    0.0000 O    0  0  0  0  0  0  0  0  0  0  0  0
    0.6089    0.2444    0.0000 C    0  0  0  0  0  0  0  0  0  0  0  0
    0.3894    1.0397    0.0000 C    0  0  0  0  0  0  0  0  0  0  0  0
    1.3297   -2.2535    0.0000 O    0  0  0  0  0  0  0  0  0  0  0  0
    4.6229    0.5053    0.0000 C    0  0  0  0  0  0  0  0  0  0  0  0
    2.2162    0.4929    0.0000 O    0  0  0  0  0  0  0  0  0  0  0  0
    3.2228    0.8036    0.0000 C    0  0  0  0  0  0  0  0  0  0  0  0
    0.7829   -0.5592    0.0000 C    0  0  0  0  0  0  0  0  0  0  0  0
    5.5715    1.5741    0.0000 Cl   0  0  0  0  0  0  0  0  0  0  0  0
    5.1490    2.9286    0.0000 C    0  0  0  0  0  0  0  0  0  0  0  0
    2.7878    2.1623    0.0000 O    0  0  0  0  0  0  0  0  0  0  0  0
    6.1059    3.9767    0.0000 C    0  0  0  0  0  0  0  0  0  0  0  0
    5.3230    3.7364    0.0000 C    0  0  0  0  0  0  0  0  0  0  0  0
    6.2799    4.7762    0.0000 C    0  0  0  0  0  0  0  0  0  0  0  0
    4.8839    5.0869    0.0000 C    0  0  0  0  0  0  0  0  0  0  0  0
    4.7016    4.2791    0.0000 C    0  0  0  0  0  0  0  0  0  0  0  0
    5.6709    5.3437    0.0000 C    0  0  0  0  0  0  0  0  0  0  0  0
    2.0049    1.9096    0.0000 C    0  0  0  0  0  0  0  0  0  0  0  0
    7.0710    5.0247    0.0000 C    0  0  0  0  0  0  0  0  0  0  0  0
  2  1  1  0  0  0  0
  3  1  1  0  0  0  0
  4  3  1  0  0  0  0
  4  5  1  0  0  0  0
  5  2  1  0  0  0  0
  6  9  2  0  0  0  0
  6  8  1  0  0  0  0
  7  4  2  0  0  0  0
  8 15  2  0  0  0  0
  9 17  1  0  0  0  0
 10  7  1  0  0  0  0
 11  6  1  0  0  0  0
 12 18  1  0  0  0  0
 13 12  3  0  0  0  0
 14  2  2  0  0  0  0
 15 10  1  0  0  0  0
 16  3  2  0  0  0  0
 17 10  2  0  0  0  0
 18  1  1  0  0  0  0
 19  8  1  0  0  0  0
 20 11  1  0  0  0  0
 21  9  1  0  0  0  0
 22 23  2  0  0  0  0
 23 20  1  0  0  0  0
 24 22  1  0  0  0  0
 24 27  2  0  0  0  0
 25 26  2  0  0  0  0
 26 23  1  0  0  0  0
 27 25  1  0  0  0  0
 28 21  1  0  0  0  0
 29 24  1  0  0  0  0
M  END
> <CdId>
899

> <Mol Weight>
427.901

> <Formula>
C22H18ClNO4S

> <Click_ID>
CLK012_G04 __ __ 

$$$$
