CLK024_E07
 OpenBabel03181417552D

 24 25  0  0  0  0  0  0  0  0999 V2000
   -0.9045   -1.9465    0.0000 N    0  0  0  0  0  0  0  0  0  0  0  0
   -0.6569   -2.7307    0.0000 C    0  0  0  0  0  0  0  0  0  0  0  0
    0.4265   -1.9465    0.0000 C    0  0  0  0  0  0  0  0  0  0  0  0
   -0.2442   -1.4616    0.0000 C    0  0  0  0  0  0  0  0  0  0  0  0
    0.1754   -2.7307    0.0000 S    0  0  0  0  0  0  0  0  0  0  0  0
    1.2106   -1.6921    0.0000 C    0  0  0  0  0  0  0  0  0  0  0  0
    1.3860   -0.8770    0.0000 C    0  0  0  0  0  0  0  0  0  0  0  0
    2.3455    0.1754    0.0000 C    0  0  0  0  0  0  0  0  0  0  0  0
    2.1701   -0.6397    0.0000 C    0  0  0  0  0  0  0  0  0  0  0  0
    1.7437    0.7291    0.0000 C    0  0  0  0  0  0  0  0  0  0  0  0
    0.7773   -0.3233    0.0000 C    0  0  0  0  0  0  0  0  0  0  0  0
    2.9061    2.5965    0.0000 C    0  0  0  0  0  0  0  0  0  0  0  0
    0.9492    0.4918    0.0000 C    0  0  0  0  0  0  0  0  0  0  0  0
    3.0781    3.4048    0.0000 C    0  0  0  0  0  0  0  0  0  0  0  0
   -1.1418   -3.4048    0.0000 O    0  0  0  0  0  0  0  0  0  0  0  0
   -0.2442   -0.6362    0.0000 O    0  0  0  0  0  0  0  0  0  0  0  0
   -1.6886   -1.6921    0.0000 C    0  0  0  0  0  0  0  0  0  0  0  0
   -2.2973   -2.2458    0.0000 C    0  0  0  0  0  0  0  0  0  0  0  0
   -3.0815   -1.9981    0.0000 C    0  0  0  0  0  0  0  0  0  0  0  0
    2.7823   -1.1865    0.0000 Br   0  0  0  0  0  0  0  0  0  0  0  0
    1.9294    1.5442    0.0000 O    0  0  0  0  0  0  0  0  0  0  0  0
    0.3543    1.0421    0.0000 O    0  0  0  0  0  0  0  0  0  0  0  0
    2.7170    1.7884    0.0000 C    0  0  0  0  0  0  0  0  0  0  0  0
   -0.4299    0.8048    0.0000 C    0  0  0  0  0  0  0  0  0  0  0  0
  2  1  1  0  0  0  0
  3  4  1  0  0  0  0
  3  5  1  0  0  0  0
  4  1  1  0  0  0  0
  5  2  1  0  0  0  0
  6  3  2  0  0  0  0
  7  6  1  0  0  0  0
  8  9  2  0  0  0  0
  9  7  1  0  0  0  0
 10 13  2  0  0  0  0
 10  8  1  0  0  0  0
 11  7  2  0  0  0  0
 12 23  1  0  0  0  0
 13 11  1  0  0  0  0
 14 12  3  0  0  0  0
 15  2  2  0  0  0  0
 16  4  2  0  0  0  0
 17  1  1  0  0  0  0
 18 17  1  0  0  0  0
 19 18  2  0  0  0  0
 20  9  1  0  0  0  0
 21 10  1  0  0  0  0
 22 13  1  0  0  0  0
 23 21  1  0  0  0  0
 24 22  1  0  0  0  0
M  END
> <CdId>
1822

> <Mol Weight>
408.266

> <Formula>
C17H14BrNO4S

> <Click_ID>
CLK024_E07 __ __ 

$$$$
