CLK049F07
 OpenBabel03181417552D

 17 18  0  0  0  0  0  0  0  0999 V2000
   -0.5119    0.7451    0.0000 C   0  0  0  0  0  0  0  0  0  0  0  0
   -0.5119   -0.5869    0.0000 C   0  0  0  0  0  0  0  0  0  0  0  0
   -1.2945    0.4912    0.0000 N   0  0  0  0  0  0  0  0  0  0  0  0
   -0.0250    0.0791    0.0000 C   0  0  0  0  0  0  0  0  0  0  0  0
   -0.2580   -1.3736    0.0000 C   0  0  0  0  0  0  0  0  0  0  0  0
   -1.2945   -0.3329    0.0000 N   0  0  0  0  0  0  0  0  0  0  0  0
   -0.7410   -2.0396    0.0000 S   0  0  0  0  0  0  0  0  0  0  0  0
   -0.2580    1.5276    0.0000 C   0  0  0  0  0  0  0  0  0  0  0  0
    0.5287   -1.6276    0.0000 C   0  0  0  0  0  0  0  0  0  0  0  0
   -0.2580   -2.7056    0.0000 C   0  0  0  0  0  0  0  0  0  0  0  0
    1.6109    2.6556    0.0000 C   0  0  0  0  0  0  0  0  0  0  0  0
    2.4183    2.8263    0.0000 C   0  0  0  0  0  0  0  0  0  0  0  0
    0.5287   -2.4517    0.0000 C   0  0  0  0  0  0  0  0  0  0  0  0
   -0.8075    2.1395    0.0000 O   0  0  0  0  0  0  0  0  0  0  0  0
    0.5495    1.6983    0.0000 N   0  0  0  0  0  0  0  0  0  0  0  0
    0.8034    2.4849    0.0000 C   0  0  0  0  0  0  0  0  0  0  0  0
   -0.5119   -3.4881    0.0000 C   0  0  0  0  0  0  0  0  0  0  0  0
  2  4  2  0  0  0  0
  3  1  2  0  0  0  0
  4  1  1  0  0  0  0
  5  2  1  0  0  0  0
  6  3  1  0  0  0  0
  6  2  1  0  0  0  0
  7  5  1  0  0  0  0
  8  1  1  0  0  0  0
  9  5  2  0  0  0  0
 10  7  1  0  0  0  0
 11 16  1  0  0  0  0
 12 11  3  0  0  0  0
 13  9  1  0  0  0  0
 13 10  2  0  0  0  0
 14  8  2  0  0  0  0
 15  8  1  0  0  0  0
 16 15  1  0  0  0  0
 17 10  1  0  0  0  0
M  END
> <CdId>
3774

> <Mol Weight>
245.3

> <Formula>
C12H11N3OS

> <Click_ID>
CLK049F07 __ __ 

$$$$
