CLK024_A11
 OpenBabel03181417552D

 32 35  0  0  0  0  0  0  0  0999 V2000
   -1.1759   -0.1338    0.0000 C   0  0  0  0  0  0  0  0  0  0  0  0
   -0.6760   -0.7992    0.0000 N   0  0  0  0  0  0  0  0  0  0  0  0
    0.0915    0.2887    0.0000 C   0  0  0  0  0  0  0  0  0  0  0  0
    0.1056   -0.5457    0.0000 C   0  0  0  0  0  0  0  0  0  0  0  0
   -0.6971    0.5316    0.0000 S   0  0  0  0  0  0  0  0  0  0  0  0
    0.7569    0.7746    0.0000 C   0  0  0  0  0  0  0  0  0  0  0  0
    2.1652    0.1725    0.0000 C   0  0  0  0  0  0  0  0  0  0  0  0
   -2.0032   -0.1479    0.0000 N   0  0  0  0  0  0  0  0  0  0  0  0
    2.2533   -0.6443    0.0000 C   0  0  0  0  0  0  0  0  0  0  0  0
    3.2918    2.7884    0.0000 C   0  0  0  0  0  0  0  0  0  0  0  0
    3.0665    3.6016    0.0000 C   0  0  0  0  0  0  0  0  0  0  0  0
    2.8236    0.6584    0.0000 C   0  0  0  0  0  0  0  0  0  0  0  0
    0.7746   -1.0245    0.0000 O   0  0  0  0  0  0  0  0  0  0  0  0
    3.0032   -0.9753    0.0000 C   0  0  0  0  0  0  0  0  0  0  0  0
    3.5770    0.3380    0.0000 C   0  0  0  0  0  0  0  0  0  0  0  0
   -0.9259   -1.5949    0.0000 C   0  0  0  0  0  0  0  0  0  0  0  0
    3.6686   -0.4894    0.0000 C   0  0  0  0  0  0  0  0  0  0  0  0
   -2.4293    0.5703    0.0000 C   0  0  0  0  0  0  0  0  0  0  0  0
    2.7285    1.4787    0.0000 O   0  0  0  0  0  0  0  0  0  0  0  0
    3.3869    1.9681    0.0000 C   0  0  0  0  0  0  0  0  0  0  0  0
    1.5949   -1.1196    0.0000 C   0  0  0  0  0  0  0  0  0  0  0  0
   -0.6090   -2.9961    0.0000 O   0  0  0  0  0  0  0  0  0  0  0  0
    3.0911   -1.7850    0.0000 C   0  0  0  0  0  0  0  0  0  0  0  0
   -0.3661   -2.2075    0.0000 C   0  0  0  0  0  0  0  0  0  0  0  0
   -2.0138    1.2745    0.0000 C   0  0  0  0  0  0  0  0  0  0  0  0
   -3.2425    0.5562    0.0000 C   0  0  0  0  0  0  0  0  0  0  0  0
   -0.0493   -3.6016    0.0000 C   0  0  0  0  0  0  0  0  0  0  0  0
    1.6829   -1.9399    0.0000 C   0  0  0  0  0  0  0  0  0  0  0  0
    2.4398   -2.2708    0.0000 C   0  0  0  0  0  0  0  0  0  0  0  0
   -3.6720    1.2639    0.0000 C   0  0  0  0  0  0  0  0  0  0  0  0
   -2.4293    1.9892    0.0000 C   0  0  0  0  0  0  0  0  0  0  0  0
   -3.2566    1.9821    0.0000 C   0  0  0  0  0  0  0  0  0  0  0  0
  2  1  1  0  0  0  0
  3  5  1  0  0  0  0
  3  4  1  0  0  0  0
  4  2  1  0  0  0  0
  5  1  1  0  0  0  0
  6  3  2  0  0  0  0
  7  6  1  0  0  0  0
  8  1  2  0  0  0  0
  9  7  2  0  0  0  0
 10 20  1  0  0  0  0
 11 10  3  0  0  0  0
 12  7  1  0  0  0  0
 13  4  2  0  0  0  0
 14  9  1  0  0  0  0
 15 12  2  0  0  0  0
 16  2  1  0  0  0  0
 17 15  1  0  0  0  0
 17 14  2  0  0  0  0
 18  8  1  0  0  0  0
 19 12  1  0  0  0  0
 20 19  1  0  0  0  0
 21  9  1  0  0  0  0
 22 24  1  0  0  0  0
 23 14  1  0  0  0  0
 23 29  2  0  0  0  0
 24 16  1  0  0  0  0
 25 18  2  0  0  0  0
 26 18  1  0  0  0  0
 27 22  1  0  0  0  0
 28 21  2  0  0  0  0
 29 28  1  0  0  0  0
 30 26  2  0  0  0  0
 31 25  1  0  0  0  0
 32 30  1  0  0  0  0
 32 31  2  0  0  0  0
M  END
> <CdId>
1786

> <Mol Weight>
442.529

> <Formula>
C26H22N2O3S

> <Click_ID>
CLK024_A11 __ __ 

$$$$
