CLK036_A06
 OpenBabel03181417552D

 29 31  0  0  0  0  0  0  0  0999 V2000
   -0.4675    4.8584    0.0000 C   0  0  0  0  0  0  0  0  0  0  0  0
   -0.0550    4.1341    0.0000 N   0  0  0  0  0  0  0  0  0  0  0  0
   -1.2787    4.9409    0.0000 N   0  0  0  0  0  0  0  0  0  0  0  0
   -0.1329    5.6146    0.0000 S   0  0  0  0  0  0  0  0  0  0  0  0
   -1.4529    8.2271    0.0000 S   0  0  0  0  0  0  0  0  0  0  0  0
    2.4246    1.2604    0.0000 S   0  0  0  0  0  0  0  0  0  0  0  0
   -0.7425    6.1646    0.0000 C   0  0  0  0  0  0  0  0  0  0  0  0
   -1.4529    5.7521    0.0000 C   0  0  0  0  0  0  0  0  0  0  0  0
    0.7746    4.1250    0.0000 C   0  0  0  0  0  0  0  0  0  0  0  0
   -1.4529    7.4021    0.0000 C   0  0  0  0  0  0  0  0  0  0  0  0
   -0.7425    6.9896    0.0000 C   0  0  0  0  0  0  0  0  0  0  0  0
    2.0121    1.9891    0.0000 C   0  0  0  0  0  0  0  0  0  0  0  0
   -1.5629    3.5566    0.0000 C   0  0  0  0  0  0  0  0  0  0  0  0
   -2.1679    6.1646    0.0000 C   0  0  0  0  0  0  0  0  0  0  0  0
   -1.3016    2.7729    0.0000 C   0  0  0  0  0  0  0  0  0  0  0  0
    1.1871    3.4191    0.0000 C   0  0  0  0  0  0  0  0  0  0  0  0
   -2.2779    8.2271    0.0000 O   0  0  0  0  0  0  0  0  0  0  0  0
   -1.4529    9.0521    0.0000 O   0  0  0  0  0  0  0  0  0  0  0  0
    1.7050    0.8479    0.0000 O   0  0  0  0  0  0  0  0  0  0  0  0
    3.1534    1.6729    0.0000 O   0  0  0  0  0  0  0  0  0  0  0  0
    1.1871    4.8400    0.0000 O   0  0  0  0  0  0  0  0  0  0  0  0
   -2.1679    6.9896    0.0000 C   0  0  0  0  0  0  0  0  0  0  0  0
   -1.8241    4.3266    0.0000 C   0  0  0  0  0  0  0  0  0  0  0  0
    2.4246    2.7041    0.0000 C   0  0  0  0  0  0  0  0  0  0  0  0
    1.1871    1.9891    0.0000 C   0  0  0  0  0  0  0  0  0  0  0  0
    2.0121    3.4191    0.0000 C   0  0  0  0  0  0  0  0  0  0  0  0
    0.7746    2.7041    0.0000 C   0  0  0  0  0  0  0  0  0  0  0  0
   -0.6279    8.2271    0.0000 C   0  0  0  0  0  0  0  0  0  0  0  0
    2.8371    0.5362    0.0000 C   0  0  0  0  0  0  0  0  0  0  0  0
  2  1  2  0  0  0  0
  3  1  1  0  0  0  0
  4  1  1  0  0  0  0
  5 10  1  0  0  0  0
  6 12  1  0  0  0  0
  7  4  1  0  0  0  0
  8  3  1  0  0  0  0
  8  7  2  0  0  0  0
  9  2  1  0  0  0  0
 10 11  2  0  0  0  0
 11  7  1  0  0  0  0
 12 25  2  0  0  0  0
 13 23  1  0  0  0  0
 14  8  1  0  0  0  0
 15 13  3  0  0  0  0
 16  9  1  0  0  0  0
 17  5  2  0  0  0  0
 18  5  2  0  0  0  0
 19  6  2  0  0  0  0
 20  6  2  0  0  0  0
 21  9  2  0  0  0  0
 22 14  2  0  0  0  0
 22 10  1  0  0  0  0
 23  3  1  0  0  0  0
 24 26  2  0  0  0  0
 24 12  1  0  0  0  0
 25 27  1  0  0  0  0
 26 16  1  0  0  0  0
 27 16  2  0  0  0  0
 28  5  1  0  0  0  0
 29  6  1  0  0  0  0
M  END
> <CdId>
2730

> <Mol Weight>
448.536

> <Formula>
C19H16N2O5S3

> <Click_ID>
CLK036_A06 __ __ 

$$$$
