CLK018_A09
 OpenBabel03181417552D

 33 35  0  0  0  0  0  0  0  0999 V2000
    3.9449   -1.3400    0.0000 N    0  0  0  0  0  0  0  0  0  0  0  0
    4.1954   -2.1290    0.0000 C    0  0  0  0  0  0  0  0  0  0  0  0
    4.6087   -0.8558    0.0000 C    0  0  0  0  0  0  0  0  0  0  0  0
    5.2766   -1.3400    0.0000 C    0  0  0  0  0  0  0  0  0  0  0  0
    5.0219   -2.1290    0.0000 S    0  0  0  0  0  0  0  0  0  0  0  0
    6.0656   -1.0812    0.0000 C    0  0  0  0  0  0  0  0  0  0  0  0
    6.5791    1.3358    0.0000 C    0  0  0  0  0  0  0  0  0  0  0  0
    3.1476   -1.0812    0.0000 C    0  0  0  0  0  0  0  0  0  0  0  0
    7.1885    0.7848    0.0000 C    0  0  0  0  0  0  0  0  0  0  0  0
    5.7984    1.0895    0.0000 C    0  0  0  0  0  0  0  0  0  0  0  0
    2.5340   -1.6323    0.0000 C    0  0  0  0  0  0  0  0  0  0  0  0
    6.2367   -0.2755    0.0000 C    0  0  0  0  0  0  0  0  0  0  0  0
    7.7312    3.2018    0.0000 C    0  0  0  0  0  0  0  0  0  0  0  0
    7.9149    4.0033    0.0000 C    0  0  0  0  0  0  0  0  0  0  0  0
    1.7533   -1.3818    0.0000 N    0  0  0  0  0  0  0  0  0  0  0  0
    3.7112   -2.7970    0.0000 O    0  0  0  0  0  0  0  0  0  0  0  0
    4.6087   -0.0293    0.0000 O    0  0  0  0  0  0  0  0  0  0  0  0
    0.6262    0.4967    0.0000 C    0  0  0  0  0  0  0  0  0  0  0  0
    7.0174   -0.0293    0.0000 C    0  0  0  0  0  0  0  0  0  0  0  0
    5.6231    0.2838    0.0000 C    0  0  0  0  0  0  0  0  0  0  0  0
    1.5822   -0.5678    0.0000 C    0  0  0  0  0  0  0  0  0  0  0  0
    0.7932   -0.3173    0.0000 C    0  0  0  0  0  0  0  0  0  0  0  0
    1.2440    1.0478    0.0000 C    0  0  0  0  0  0  0  0  0  0  0  0
    2.7093   -2.4463    0.0000 O    0  0  0  0  0  0  0  0  0  0  0  0
    2.0288    0.7848    0.0000 C    0  0  0  0  0  0  0  0  0  0  0  0
    7.9775    1.0352    0.0000 Cl   0  0  0  0  0  0  0  0  0  0  0  0
    6.7627    2.1498    0.0000 O    0  0  0  0  0  0  0  0  0  0  0  0
    2.1958   -0.0167    0.0000 C    0  0  0  0  0  0  0  0  0  0  0  0
    5.1973    1.6406    0.0000 O    0  0  0  0  0  0  0  0  0  0  0  0
    7.5517    2.3878    0.0000 C    0  0  0  0  0  0  0  0  0  0  0  0
   -0.1586    0.7514    0.0000 C    0  0  0  0  0  0  0  0  0  0  0  0
    1.0770    1.8535    0.0000 C    0  0  0  0  0  0  0  0  0  0  0  0
    4.4208    1.3901    0.0000 C    0  0  0  0  0  0  0  0  0  0  0  0
  2  1  1  0  0  0  0
  3  1  1  0  0  0  0
  4  3  1  0  0  0  0
  4  5  1  0  0  0  0
  5  2  1  0  0  0  0
  6  4  2  0  0  0  0
  7 10  2  0  0  0  0
  7  9  1  0  0  0  0
  8  1  1  0  0  0  0
  9 19  2  0  0  0  0
 10 20  1  0  0  0  0
 11  8  1  0  0  0  0
 12  6  1  0  0  0  0
 13 30  1  0  0  0  0
 14 13  3  0  0  0  0
 15 11  1  0  0  0  0
 16  2  2  0  0  0  0
 17  3  2  0  0  0  0
 18 22  2  0  0  0  0
 19 12  1  0  0  0  0
 20 12  2  0  0  0  0
 21 15  1  0  0  0  0
 22 21  1  0  0  0  0
 23 25  2  0  0  0  0
 23 18  1  0  0  0  0
 24 11  2  0  0  0  0
 25 28  1  0  0  0  0
 26  9  1  0  0  0  0
 27  7  1  0  0  0  0
 28 21  2  0  0  0  0
 29 10  1  0  0  0  0
 30 27  1  0  0  0  0
 31 18  1  0  0  0  0
 32 23  1  0  0  0  0
 33 29  1  0  0  0  0
M  END
> <CdId>
1324

> <Mol Weight>
484.952

> <Formula>
C24H21ClN2O5S

> <Click_ID>
CLK018_A09 __ __ 

$$$$
