CLK049D08
 OpenBabel03181417552D

 19 20  0  0  0  0  0  0  0  0999 V2000
   -0.2292    1.8250    0.0000 C   0  0  0  0  0  0  0  0  0  0  0  0
   -0.2292    1.0000    0.0000 N   0  0  0  0  0  0  0  0  0  0  0  0
    1.2000    3.4750    0.0000 C   0  0  0  0  0  0  0  0  0  0  0  0
    1.9167    3.8875    0.0000 C   0  0  0  0  0  0  0  0  0  0  0  0
   -0.9417    0.5875    0.0000 C   0  0  0  0  0  0  0  0  0  0  0  0
    0.4875    0.5875    0.0000 C   0  0  0  0  0  0  0  0  0  0  0  0
   -0.9417    2.2375    0.0000 O   0  0  0  0  0  0  0  0  0  0  0  0
   -0.2292   -1.4750    0.0000 C   0  0  0  0  0  0  0  0  0  0  0  0
   -0.2292   -0.6500    0.0000 C   0  0  0  0  0  0  0  0  0  0  0  0
    0.4875    2.2375    0.0000 N   0  0  0  0  0  0  0  0  0  0  0  0
   -0.9417   -0.2375    0.0000 C   0  0  0  0  0  0  0  0  0  0  0  0
    0.4875   -0.2375    0.0000 C   0  0  0  0  0  0  0  0  0  0  0  0
   -0.9417   -1.8875    0.0000 C   0  0  0  0  0  0  0  0  0  0  0  0
    0.4875   -1.8875    0.0000 C   0  0  0  0  0  0  0  0  0  0  0  0
   -0.2292   -3.1250    0.0000 C   0  0  0  0  0  0  0  0  0  0  0  0
   -0.9417   -2.7125    0.0000 C   0  0  0  0  0  0  0  0  0  0  0  0
    0.4875   -2.7125    0.0000 C   0  0  0  0  0  0  0  0  0  0  0  0
    0.4875    3.0625    0.0000 C   0  0  0  0  0  0  0  0  0  0  0  0
   -0.2292   -3.9500    0.0000 O   0  0  0  0  0  0  0  0  0  0  0  0
  2  1  1  0  0  0  0
  3 18  1  0  0  0  0
  4  3  3  0  0  0  0
  5  2  1  0  0  0  0
  6  2  1  0  0  0  0
  7  1  2  0  0  0  0
  8  9  1  0  0  0  0
  9 11  1  0  0  0  0
 10  1  1  0  0  0  0
 11  5  1  0  0  0  0
 12  6  1  0  0  0  0
 12  9  1  0  0  0  0
 13  8  2  0  0  0  0
 14  8  1  0  0  0  0
 15 16  2  0  0  0  0
 16 13  1  0  0  0  0
 17 14  2  0  0  0  0
 17 15  1  0  0  0  0
 18 10  1  0  0  0  0
 19 15  1  0  0  0  0
M  END
> <CdId>
3780

> <Mol Weight>
258.3156

> <Formula>
C15H18N2O2

> <Click_ID>
CLK049D08 __ __ 

$$$$
