CLK019_B11
 OpenBabel03181417552D

 28 30  0  0  0  0  0  0  0  0999 V2000
    7.0545    4.2005    0.0000 C   0  0  0  0  0  0  0  0  0  0  0  0
    7.4667    4.8969    0.0000 C   0  0  0  0  0  0  0  0  0  0  0  0
    6.2299    4.2005    0.0000 C   0  0  0  0  0  0  0  0  0  0  0  0
    7.4667    3.4859    0.0000 C   0  0  3  0  0  0  0  0  0  0  0  0
    6.2299    2.7713    0.0000 C   0  0  0  0  0  0  0  0  0  0  0  0
    5.8176    3.4859    0.0000 N   0  0  0  0  0  0  0  0  0  0  0  0
    7.0545    2.7713    0.0000 N   0  0  0  0  0  0  0  0  0  0  0  0
    8.2913    4.8969    0.0000 N   0  0  0  0  0  0  0  0  0  0  0  0
   12.0017    2.7713    0.0000 C   0  0  0  0  0  0  0  0  0  0  0  0
    8.7035    5.6115    0.0000 C   0  0  0  0  0  0  0  0  0  0  0  0
    8.2913    3.4859    0.0000 C   0  0  0  0  0  0  0  0  0  0  0  0
   12.8262    2.7713    0.0000 C   0  0  0  0  0  0  0  0  0  0  0  0
    7.0545    5.6115    0.0000 O   0  0  0  0  0  0  0  0  0  0  0  0
    5.8176    2.0567    0.0000 O   0  0  0  0  0  0  0  0  0  0  0  0
    9.5281    5.6115    0.0000 C   0  0  0  0  0  0  0  0  0  0  0  0
    8.7035    2.7713    0.0000 C   0  0  0  0  0  0  0  0  0  0  0  0
    8.7035    4.2005    0.0000 C   0  0  0  0  0  0  0  0  0  0  0  0
    5.8176    4.8969    0.0000 C   0  0  0  0  0  0  0  0  0  0  0  0
    9.9403    3.4859    0.0000 C   0  0  0  0  0  0  0  0  0  0  0  0
    9.5281    4.2005    0.0000 C   0  0  0  0  0  0  0  0  0  0  0  0
    9.5281    2.7713    0.0000 C   0  0  0  0  0  0  0  0  0  0  0  0
   11.1772    2.7713    0.0000 C   0  0  0  0  0  0  0  0  0  0  0  0
   10.7649    3.4859    0.0000 O   0  0  0  0  0  0  0  0  0  0  0  0
    8.2913    6.3261    0.0000 C   0  0  0  0  0  0  0  0  0  0  0  0
    9.9403    4.8969    0.0000 C   0  0  0  0  0  0  0  0  0  0  0  0
    9.9403    6.3261    0.0000 C   0  0  0  0  0  0  0  0  0  0  0  0
    8.7035    7.0407    0.0000 C   0  0  0  0  0  0  0  0  0  0  0  0
    9.5281    7.0407    0.0000 C   0  0  0  0  0  0  0  0  0  0  0  0
  2  1  1  0  0  0  0
  3  1  2  0  0  0  0
  4  1  1  0  0  0  0
  5  7  1  0  0  0  0
  5  6  1  0  0  0  0
  6  3  1  0  0  0  0
  7  4  1  0  0  0  0
  8  2  1  0  0  0  0
  9 22  1  0  0  0  0
 10  8  1  0  0  0  0
 11  4  1  0  0  0  0
 12  9  3  0  0  0  0
 13  2  2  0  0  0  0
 14  5  2  0  0  0  0
 15 10  1  0  0  0  0
 16 11  1  0  0  0  0
 17 11  2  0  0  0  0
 18  3  1  0  0  0  0
 19 20  2  0  0  0  0
 19 21  1  0  0  0  0
 20 17  1  0  0  0  0
 21 16  2  0  0  0  0
 22 23  1  0  0  0  0
 23 19  1  0  0  0  0
 24 10  2  0  0  0  0
 25 15  1  0  0  0  0
 26 15  2  0  0  0  0
 26 28  1  0  0  0  0
 27 24  1  0  0  0  0
 28 27  2  0  0  0  0
M  END
> <CdId>
1416

> <Mol Weight>
375.4204

> <Formula>
C22H21N3O3

> <Click_ID>
CLK019_B11 __ __ 

$$$$
