CLK026_E05
 OpenBabel03181417552D

 29 31  0  0  0  0  0  0  0  0999 V2000
   -3.4025   -0.4498    0.0000 N   0  0  0  0  0  0  0  0  0  0  0  0
   -3.8111   -1.1708    0.0000 C   0  0  0  0  0  0  0  0  0  0  0  0
   -2.5854   -0.6249    0.0000 C   0  0  0  0  0  0  0  0  0  0  0  0
   -2.5064   -1.4455    0.0000 C   0  0  0  0  0  0  0  0  0  0  0  0
   -3.2549   -1.7854    0.0000 S   0  0  0  0  0  0  0  0  0  0  0  0
   -1.7854   -1.8609    0.0000 C   0  0  0  0  0  0  0  0  0  0  0  0
   -3.2446    0.9682    0.0000 C   0  0  0  0  0  0  0  0  0  0  0  0
   -2.8051    1.6721    0.0000 C   0  0  0  0  0  0  0  0  0  0  0  0
   -4.6248   -1.2498    0.0000 O   0  0  0  0  0  0  0  0  0  0  0  0
   -0.3673   -0.1922    0.0000 C   0  0  0  0  0  0  0  0  0  0  0  0
   -1.9845   -0.0653    0.0000 O   0  0  0  0  0  0  0  0  0  0  0  0
    0.3502   -0.6112    0.0000 C   0  0  0  0  0  0  0  0  0  0  0  0
   -1.0747   -1.4352    0.0000 C   0  0  0  0  0  0  0  0  0  0  0  0
   -3.7287    0.3055    0.0000 C   0  0  0  0  0  0  0  0  0  0  0  0
   -1.0781   -0.6146    0.0000 C   0  0  0  0  0  0  0  0  0  0  0  0
    1.0506   -0.1922    0.0000 O   0  0  0  0  0  0  0  0  0  0  0  0
    0.3537   -1.4249    0.0000 C   0  0  0  0  0  0  0  0  0  0  0  0
   -0.3537   -1.8437    0.0000 C   0  0  0  0  0  0  0  0  0  0  0  0
    1.7819   -0.5906    0.0000 C   0  0  0  0  0  0  0  0  0  0  0  0
    3.2034   -0.5871    0.0000 C   0  0  0  0  0  0  0  0  0  0  0  0
    2.4824   -0.1819    0.0000 C   0  0  0  0  0  0  0  0  0  0  0  0
   -0.3708    0.6283    0.0000 O   0  0  0  0  0  0  0  0  0  0  0  0
    3.9003   -0.1751    0.0000 C   0  0  0  0  0  0  0  0  0  0  0  0
    3.1896    1.0644    0.0000 C   0  0  0  0  0  0  0  0  0  0  0  0
    2.4789    0.6455    0.0000 C   0  0  0  0  0  0  0  0  0  0  0  0
    3.9003    0.6558    0.0000 C   0  0  0  0  0  0  0  0  0  0  0  0
   -1.0884    1.0369    0.0000 C   0  0  0  0  0  0  0  0  0  0  0  0
    4.6214   -0.5665    0.0000 C   0  0  0  0  0  0  0  0  0  0  0  0
   -1.0918    1.8643    0.0000 C   0  0  0  0  0  0  0  0  0  0  0  0
  2  1  1  0  0  0  0
  3  1  1  0  0  0  0
  4  3  1  0  0  0  0
  5  2  1  0  0  0  0
  5  4  1  0  0  0  0
  6  4  2  0  0  0  0
  7 14  1  0  0  0  0
  8  7  3  0  0  0  0
  9  2  2  0  0  0  0
 10 15  1  0  0  0  0
 11  3  2  0  0  0  0
 12 17  1  0  0  0  0
 12 10  2  0  0  0  0
 13  6  1  0  0  0  0
 14  1  1  0  0  0  0
 15 13  2  0  0  0  0
 16 12  1  0  0  0  0
 17 18  2  0  0  0  0
 18 13  1  0  0  0  0
 19 16  1  0  0  0  0
 20 21  1  0  0  0  0
 21 19  1  0  0  0  0
 22 10  1  0  0  0  0
 23 20  2  0  0  0  0
 24 25  1  0  0  0  0
 25 21  2  0  0  0  0
 26 24  2  0  0  0  0
 26 23  1  0  0  0  0
 27 22  1  0  0  0  0
 28 23  1  0  0  0  0
 29 27  1  0  0  0  0
M  END
> <CdId>
1980

> <Mol Weight>
407.482

> <Formula>
C23H21NO4S

> <Click_ID>
CLK026_E05 __ __ 

$$$$
