CLK038D07
 OpenBabel03181417552D

 24 25  0  0  0  0  0  0  0  0999 V2000
    0.2583    1.4083    0.0000 C    0  0  0  0  0  0  0  0  0  0  0  0
   -0.4083    0.9250    0.0000 N    0  0  0  0  0  0  0  0  0  0  0  0
    0.2583    2.2333    0.0000 C    0  0  0  0  0  0  0  0  0  0  0  0
    0.9250    0.9250    0.0000 S    0  0  0  0  0  0  0  0  0  0  0  0
   -0.1542    0.1375    0.0000 C    0  0  0  0  0  0  0  0  0  0  0  0
   -0.3042   -1.2833    0.0000 C    0  0  0  0  0  0  0  0  0  0  0  0
   -0.6417   -0.5292    0.0000 C    0  0  0  0  0  0  0  0  0  0  0  0
   -0.1167   -3.4583    0.0000 C    0  0  0  0  0  0  0  0  0  0  0  0
    0.6708    0.1375    0.0000 C    0  0  0  0  0  0  0  0  0  0  0  0
    0.2167   -4.2083    0.0000 C    0  0  0  0  0  0  0  0  0  0  0  0
   -0.7917   -1.9500    0.0000 N    0  0  0  0  0  0  0  0  0  0  0  0
   -0.4542   -2.7042    0.0000 C    0  0  0  0  0  0  0  0  0  0  0  0
    0.9708    2.6458    0.0000 C    0  0  0  0  0  0  0  0  0  0  0  0
   -0.4583    2.6458    0.0000 C    0  0  0  0  0  0  0  0  0  0  0  0
    0.5167   -1.3667    0.0000 O    0  0  0  0  0  0  0  0  0  0  0  0
    1.6875    2.2333    0.0000 Cl   0  0  0  0  0  0  0  0  0  0  0  0
   -1.1708    2.2333    0.0000 Cl   0  0  0  0  0  0  0  0  0  0  0  0
    0.2583    3.8833    0.0000 C    0  0  0  0  0  0  0  0  0  0  0  0
    0.9708    3.4708    0.0000 C    0  0  0  0  0  0  0  0  0  0  0  0
   -0.4583    3.4708    0.0000 C    0  0  0  0  0  0  0  0  0  0  0  0
   -1.2083   -3.0375    0.0000 C    0  0  0  0  0  0  0  0  0  0  0  0
    0.3000   -2.3667    0.0000 C    0  0  0  0  0  0  0  0  0  0  0  0
   -1.8750   -2.5542    0.0000 C    0  0  0  0  0  0  0  0  0  0  0  0
    0.9667   -2.8542    0.0000 C    0  0  0  0  0  0  0  0  0  0  0  0
  2  1  2  0  0  0  0
  3  1  1  0  0  0  0
  4  1  1  0  0  0  0
  5  2  1  0  0  0  0
  6  7  1  0  0  0  0
  7  5  1  0  0  0  0
  8 12  1  0  0  0  0
  9  4  1  0  0  0  0
  9  5  2  0  0  0  0
 10  8  3  0  0  0  0
 11  6  1  0  0  0  0
 12 11  1  0  0  0  0
 13  3  1  0  0  0  0
 14  3  2  0  0  0  0
 15  6  2  0  0  0  0
 16 13  1  0  0  0  0
 17 14  1  0  0  0  0
 18 20  2  0  0  0  0
 18 19  1  0  0  0  0
 19 13  2  0  0  0  0
 20 14  1  0  0  0  0
 21 12  1  0  0  0  0
 22 12  1  0  0  0  0
 23 21  1  0  0  0  0
 24 22  1  0  0  0  0
M  END
> <CdId>
2892

> <Mol Weight>
381.319

> <Formula>
C18H18Cl2N2OS

> <Click_ID>
CLK038D07 __ __ 

$$$$
