CLK040F09
 OpenBabel03181417552D

 17 17  0  0  0  0  0  0  0  0999 V2000
   -0.1292   -0.0208    0.0000 C   0  0  0  0  0  0  0  0  0  0  0  0
   -1.5583   -0.0208    0.0000 N   0  0  0  0  0  0  0  0  0  0  0  0
   -0.8417    0.3917    0.0000 C   0  0  0  0  0  0  0  0  0  0  0  0
   -1.5583   -0.8458    0.0000 C   0  0  0  0  0  0  0  0  0  0  0  0
    0.5875    0.3917    0.0000 S   0  0  0  0  0  0  0  0  0  0  0  0
   -0.8417   -1.2583    0.0000 N   0  0  0  0  0  0  0  0  0  0  0  0
   -0.1292   -0.8458    0.0000 C   0  0  0  0  0  0  0  0  0  0  0  0
    2.7292    0.8042    0.0000 C   0  0  0  0  0  0  0  0  0  0  0  0
    3.4458    1.2167    0.0000 C   0  0  0  0  0  0  0  0  0  0  0  0
    0.1750    1.1042    0.0000 O   0  0  0  0  0  0  0  0  0  0  0  0
    1.0000   -0.3250    0.0000 O   0  0  0  0  0  0  0  0  0  0  0  0
   -2.2708   -1.2583    0.0000 O   0  0  0  0  0  0  0  0  0  0  0  0
   -0.8417    1.2167    0.0000 O   0  0  0  0  0  0  0  0  0  0  0  0
    1.3000    0.8042    0.0000 N   0  0  0  0  0  0  0  0  0  0  0  0
   -2.2708    0.3917    0.0000 C   0  0  0  0  0  0  0  0  0  0  0  0
   -0.8417   -2.0833    0.0000 C   0  0  0  0  0  0  0  0  0  0  0  0
    2.0167    0.3917    0.0000 C   0  0  0  0  0  0  0  0  0  0  0  0
  2  3  1  0  0  0  0
  3  1  1  0  0  0  0
  4  2  1  0  0  0  0
  4  6  1  0  0  0  0
  5  1  1  0  0  0  0
  6  7  1  0  0  0  0
  7  1  2  0  0  0  0
  8 17  1  0  0  0  0
  9  8  3  0  0  0  0
 10  5  2  0  0  0  0
 11  5  2  0  0  0  0
 12  4  2  0  0  0  0
 13  3  2  0  0  0  0
 14  5  1  0  0  0  0
 15  2  1  0  0  0  0
 16  6  1  0  0  0  0
 17 14  1  0  0  0  0
M  END
> <CdId>
3070

> <Mol Weight>
257.266

> <Formula>
C9H11N3O4S

> <Click_ID>
CLK040F09 __ __ 

$$$$
