CLK015_G05
 OpenBabel03181417552D

 21 22  0  0  0  0  0  0  0  0999 V2000
    0.1667    0.1833    0.0000 N    0  0  0  0  0  0  0  0  0  0  0  0
    0.9919    0.1833    0.0000 C    0  0  0  0  0  0  0  0  0  0  0  0
    0.5793   -1.0877    0.0000 C    0  0  0  0  0  0  0  0  0  0  0  0
   -0.0833   -0.6043    0.0000 C    0  0  0  0  0  0  0  0  0  0  0  0
    1.2544   -0.6043    0.0000 N    0  0  0  0  0  0  0  0  0  0  0  0
    0.5793   -1.9129    0.0000 C    0  0  0  0  0  0  0  0  0  0  0  0
    1.4795    0.8460    0.0000 S    0  0  0  0  0  0  0  0  0  0  0  0
    4.8759   -3.5549    0.0000 C    0  0  0  0  0  0  0  0  0  0  0  0
    5.5886   -3.9674    0.0000 C    0  0  0  0  0  0  0  0  0  0  0  0
    2.7255   -2.3254    0.0000 C    0  0  0  0  0  0  0  0  0  0  0  0
   -0.8710   -0.8544    0.0000 O    0  0  0  0  0  0  0  0  0  0  0  0
    1.2919   -2.3171    0.0000 C    0  0  0  0  0  0  0  0  0  0  0  0
    2.0046   -1.9129    0.0000 C    0  0  0  0  0  0  0  0  0  0  0  0
    2.7297   -3.1506    0.0000 C    0  0  0  0  0  0  0  0  0  0  0  0
   -0.3126    0.8460    0.0000 C    0  0  0  0  0  0  0  0  0  0  0  0
    2.0046   -3.5632    0.0000 C    0  0  0  0  0  0  0  0  0  0  0  0
    2.0379   -0.8544    0.0000 C    0  0  0  0  0  0  0  0  0  0  0  0
    3.4424   -1.9171    0.0000 Cl   0  0  0  0  0  0  0  0  0  0  0  0
    1.2919   -3.1506    0.0000 C    0  0  0  0  0  0  0  0  0  0  0  0
    3.4507   -3.5632    0.0000 O    0  0  0  0  0  0  0  0  0  0  0  0
    4.1633   -3.1423    0.0000 C    0  0  0  0  0  0  0  0  0  0  0  0
  2  1  1  0  0  0  0
  3  4  1  0  0  0  0
  4  1  1  0  0  0  0
  5  2  1  0  0  0  0
  5  3  1  0  0  0  0
  6  3  2  0  0  0  0
  7  2  2  0  0  0  0
  8 21  1  0  0  0  0
  9  8  3  0  0  0  0
 10 13  2  0  0  0  0
 11  4  2  0  0  0  0
 12  6  1  0  0  0  0
 13 12  1  0  0  0  0
 14 16  2  0  0  0  0
 14 10  1  0  0  0  0
 15  1  1  0  0  0  0
 16 19  1  0  0  0  0
 17  5  1  0  0  0  0
 18 10  1  0  0  0  0
 19 12  2  0  0  0  0
 20 14  1  0  0  0  0
 21 20  1  0  0  0  0
M  END
> <CdId>
1140

> <Mol Weight>
320.794

> <Formula>
C15H13ClN2O2S

> <Click_ID>
CLK015_G05 __ __ 

$$$$
