CLK040G09
 OpenBabel03181417552D

 24 25  0  0  0  0  0  0  0  0999 V2000
   -0.5667    1.4958    0.0000 N   0  0  0  0  0  0  0  0  0  0  0  0
    0.1458   -1.3917    0.0000 C   0  0  0  0  0  0  0  0  0  0  0  0
    1.5750   -3.0417    0.0000 C   0  0  0  0  0  0  0  0  0  0  0  0
   -0.5667    2.3208    0.0000 C   0  0  0  0  0  0  0  0  0  0  0  0
   -0.5667   -0.1542    0.0000 N   0  0  0  0  0  0  0  0  0  0  0  0
    2.2917   -3.4542    0.0000 C   0  0  0  0  0  0  0  0  0  0  0  0
    0.1458   -2.2167    0.0000 N   0  0  0  0  0  0  0  0  0  0  0  0
    0.8625   -2.6292    0.0000 C   0  0  0  0  0  0  0  0  0  0  0  0
   -1.2833    1.0833    0.0000 C   0  0  0  0  0  0  0  0  0  0  0  0
    0.1458    1.0833    0.0000 C   0  0  0  0  0  0  0  0  0  0  0  0
   -0.5667   -0.9792    0.0000 C   0  0  0  0  0  0  0  0  0  0  0  0
   -1.2833    2.7333    0.0000 C   0  0  0  0  0  0  0  0  0  0  0  0
    0.8625   -0.9792    0.0000 O   0  0  0  0  0  0  0  0  0  0  0  0
    0.1458    0.2583    0.0000 C   0  0  0  0  0  0  0  0  0  0  0  0
   -1.2833    0.2583    0.0000 C   0  0  0  0  0  0  0  0  0  0  0  0
   -1.9958    2.3208    0.0000 F   0  0  0  0  0  0  0  0  0  0  0  0
    0.1458    2.7333    0.0000 C   0  0  0  0  0  0  0  0  0  0  0  0
    1.2750   -1.9125    0.0000 C   0  0  0  0  0  0  0  0  0  0  0  0
    0.4500   -3.3417    0.0000 C   0  0  0  0  0  0  0  0  0  0  0  0
   -1.2833    3.5583    0.0000 C   0  0  0  0  0  0  0  0  0  0  0  0
   -0.3750   -3.3417    0.0000 C   0  0  0  0  0  0  0  0  0  0  0  0
    2.1000   -1.9125    0.0000 C   0  0  0  0  0  0  0  0  0  0  0  0
    0.1458    3.5583    0.0000 C   0  0  0  0  0  0  0  0  0  0  0  0
   -0.5667    3.9708    0.0000 C   0  0  0  0  0  0  0  0  0  0  0  0
  2 11  1  0  0  0  0
  3  8  1  0  0  0  0
  4  1  1  0  0  0  0
  5 15  1  0  0  0  0
  6  3  3  0  0  0  0
  7  2  1  0  0  0  0
  8  7  1  0  0  0  0
  9  1  1  0  0  0  0
 10  1  1  0  0  0  0
 11  5  1  0  0  0  0
 12  4  2  0  0  0  0
 13  2  2  0  0  0  0
 14 10  1  0  0  0  0
 14  5  1  0  0  0  0
 15  9  1  0  0  0  0
 16 12  1  0  0  0  0
 17  4  1  0  0  0  0
 18  8  1  0  0  0  0
 19  8  1  0  0  0  0
 20 12  1  0  0  0  0
 21 19  1  0  0  0  0
 22 18  1  0  0  0  0
 23 17  2  0  0  0  0
 24 20  2  0  0  0  0
 24 23  1  0  0  0  0
M  END
> <CdId>
3071

> <Mol Weight>
331.4276

> <Formula>
C19H26FN3O

> <Click_ID>
CLK040G09 __ __ 

$$$$
