CLK013_A11
 OpenBabel03181417552D

 30 32  0  0  0  0  0  0  0  0999 V2000
    1.5820   -0.8247    0.0000 N   0  0  0  0  0  0  0  0  0  0  0  0
    1.8428   -1.6198    0.0000 C   0  0  0  0  0  0  0  0  0  0  0  0
    2.2593   -0.3324    0.0000 C   0  0  0  0  0  0  0  0  0  0  0  0
    2.9325   -0.8247    0.0000 C   0  0  0  0  0  0  0  0  0  0  0  0
    2.6758   -1.6198    0.0000 S   0  0  0  0  0  0  0  0  0  0  0  0
    3.7277   -0.5680    0.0000 C   0  0  0  0  0  0  0  0  0  0  0  0
    4.2704    1.8512    0.0000 C   0  0  0  0  0  0  0  0  0  0  0  0
    3.4752    1.5903    0.0000 C   0  0  0  0  0  0  0  0  0  0  0  0
    3.9044    0.2356    0.0000 C   0  0  0  0  0  0  0  0  0  0  0  0
    4.8762    1.2958    0.0000 C   0  0  0  0  0  0  0  0  0  0  0  0
    4.4429    2.6506    0.0000 O   0  0  0  0  0  0  0  0  0  0  0  0
    0.6185    0.2482    0.0000 C   0  0  0  0  0  0  0  0  0  0  0  0
    0.3955    1.0560    0.0000 C   0  0  0  0  0  0  0  0  0  0  0  0
    1.3505   -2.2888    0.0000 O   0  0  0  0  0  0  0  0  0  0  0  0
    2.2509    0.5006    0.0000 O   0  0  0  0  0  0  0  0  0  0  0  0
    3.2943    0.7909    0.0000 C   0  0  0  0  0  0  0  0  0  0  0  0
    4.6869    0.4754    0.0000 C   0  0  0  0  0  0  0  0  0  0  0  0
    0.7952   -0.5680    0.0000 C   0  0  0  0  0  0  0  0  0  0  0  0
    6.2646    0.9803    0.0000 C   0  0  0  0  0  0  0  0  0  0  0  0
    7.0429    1.2327    0.0000 C   0  0  0  0  0  0  0  0  0  0  0  0
    5.2296    2.8988    0.0000 C   0  0  0  0  0  0  0  0  0  0  0  0
    2.8694    2.1541    0.0000 O   0  0  0  0  0  0  0  0  0  0  0  0
    5.6545    1.5399    0.0000 C   0  0  0  0  0  0  0  0  0  0  0  0
    5.4063    3.7192    0.0000 C   0  0  0  0  0  0  0  0  0  0  0  0
    2.0826    1.9143    0.0000 C   0  0  0  0  0  0  0  0  0  0  0  0
    6.1889    3.9590    0.0000 C   0  0  0  0  0  0  0  0  0  0  0  0
    4.7963    4.2578    0.0000 C   0  0  0  0  0  0  0  0  0  0  0  0
    4.9730    5.0656    0.0000 C   0  0  0  0  0  0  0  0  0  0  0  0
    6.3656    4.7626    0.0000 C   0  0  0  0  0  0  0  0  0  0  0  0
    5.7555    5.3138    0.0000 C   0  0  0  0  0  0  0  0  0  0  0  0
  2  1  1  0  0  0  0
  3  1  1  0  0  0  0
  4  3  1  0  0  0  0
  4  5  1  0  0  0  0
  5  2  1  0  0  0  0
  6  4  2  0  0  0  0
  7 10  1  0  0  0  0
  7  8  2  0  0  0  0
  8 16  1  0  0  0  0
  9  6  1  0  0  0  0
 10 17  2  0  0  0  0
 11  7  1  0  0  0  0
 12 18  1  0  0  0  0
 13 12  3  0  0  0  0
 14  2  2  0  0  0  0
 15  3  2  0  0  0  0
 16  9  2  0  0  0  0
 17  9  1  0  0  0  0
 18  1  1  0  0  0  0
 19 23  1  0  0  0  0
 20 19  2  0  0  0  0
 21 11  1  0  0  0  0
 22  8  1  0  0  0  0
 23 10  1  0  0  0  0
 24 21  1  0  0  0  0
 25 22  1  0  0  0  0
 26 24  1  0  0  0  0
 27 24  2  0  0  0  0
 28 27  1  0  0  0  0
 29 26  2  0  0  0  0
 29 30  1  0  0  0  0
 30 28  2  0  0  0  0
M  END
> <CdId>
926

> <Mol Weight>
419.493

> <Formula>
C24H21NO4S

> <Click_ID>
CLK013_A11 __ __ 

$$$$
