CLK025_G08
 OpenBabel03181417552D

 28 29  0  0  0  0  0  0  0  0999 V2000
   -2.4824   -1.0149    0.0000 C    0  0  0  0  0  0  0  0  0  0  0  0
    2.4996    0.2263    0.0000 C    0  0  0  0  0  0  0  0  0  0  0  0
   -1.7658   -0.6001    0.0000 C    0  0  0  0  0  0  0  0  0  0  0  0
   -3.2025   -0.6001    0.0000 C    0  0  0  0  0  0  0  0  0  0  0  0
    2.4996   -0.5966    0.0000 C    0  0  0  0  0  0  0  0  0  0  0  0
    1.8001    0.6309    0.0000 C    0  0  0  0  0  0  0  0  0  0  0  0
   -5.3523   -2.6641    0.0000 N    0  0  0  0  0  0  0  0  0  0  0  0
    4.6391    0.6240    0.0000 C    0  0  0  0  0  0  0  0  0  0  0  0
   -2.4824   -1.8481    0.0000 C    0  0  0  0  0  0  0  0  0  0  0  0
    5.3523    1.0252    0.0000 C    0  0  0  0  0  0  0  0  0  0  0  0
   -4.6356   -2.2595    0.0000 C    0  0  0  0  0  0  0  0  0  0  0  0
   -0.3394   -0.6001    0.0000 N    0  0  0  0  0  0  0  0  0  0  0  0
    1.7863   -1.0012    0.0000 C    0  0  0  0  0  0  0  0  0  0  0  0
    1.0869    0.2263    0.0000 C    0  0  0  0  0  0  0  0  0  0  0  0
   -1.0527   -1.0149    0.0000 N    0  0  0  0  0  0  0  0  0  0  0  0
   -3.9156   -1.0149    0.0000 C    0  0  0  0  0  0  0  0  0  0  0  0
    1.0869   -0.6001    0.0000 C    0  0  0  0  0  0  0  0  0  0  0  0
   -1.7658    0.2263    0.0000 O    0  0  0  0  0  0  0  0  0  0  0  0
   -3.9156   -1.8481    0.0000 C    0  0  0  0  0  0  0  0  0  0  0  0
    0.3738   -1.0149    0.0000 C    0  0  0  0  0  0  0  0  0  0  0  0
   -3.2025    0.2298    0.0000 F    0  0  0  0  0  0  0  0  0  0  0  0
    3.2128   -1.0081    0.0000 Br   0  0  0  0  0  0  0  0  0  0  0  0
    3.2230    0.6240    0.0000 O    0  0  0  0  0  0  0  0  0  0  0  0
   -3.2025   -2.2595    0.0000 C    0  0  0  0  0  0  0  0  0  0  0  0
    1.8001    1.4504    0.0000 O    0  0  0  0  0  0  0  0  0  0  0  0
    3.9259    0.2160    0.0000 C    0  0  0  0  0  0  0  0  0  0  0  0
    1.0938    1.8515    0.0000 C    0  0  0  0  0  0  0  0  0  0  0  0
    1.0869    2.6676    0.0000 C    0  0  0  0  0  0  0  0  0  0  0  0
  2  6  2  0  0  0  0
  3  1  1  0  0  0  0
  4  1  1  0  0  0  0
  5 13  2  0  0  0  0
  5  2  1  0  0  0  0
  6 14  1  0  0  0  0
  7 11  3  0  0  0  0
  8 26  1  0  0  0  0
  9  1  2  0  0  0  0
 10  8  3  0  0  0  0
 11 19  1  0  0  0  0
 12 15  1  0  0  0  0
 13 17  1  0  0  0  0
 14 17  2  0  0  0  0
 15  3  1  0  0  0  0
 16  4  2  0  0  0  0
 16 19  1  0  0  0  0
 17 20  1  0  0  0  0
 18  3  2  0  0  0  0
 19 24  2  0  0  0  0
 20 12  2  0  0  0  0
 21  4  1  0  0  0  0
 22  5  1  0  0  0  0
 23  2  1  0  0  0  0
 24  9  1  0  0  0  0
 25  6  1  0  0  0  0
 26 23  1  0  0  0  0
 27 25  1  0  0  0  0
 28 27  1  0  0  0  0
M  END
> <CdId>
1923

> <Mol Weight>
444.254

> <Formula>
C20H15BrFN3O3

> <Click_ID>
CLK025_G08 __ __ 

$$$$
