CLK034_E08
 OpenBabel03181417552D

 30 33  0  0  0  0  0  0  0  0999 V2000
   -4.5932    2.5568    0.0000 C   0  0  0  0  0  0  0  0  0  0  0  0
   -3.8603    2.9816    0.0000 N   0  0  0  0  0  0  0  0  0  0  0  0
   -4.6806    1.7323    0.0000 N   0  0  0  0  0  0  0  0  0  0  0  0
   -1.0077    3.7936    0.0000 N   0  0  0  0  0  0  0  0  0  0  0  0
   -5.3177    2.8941    0.0000 S   0  0  0  0  0  0  0  0  0  0  0  0
   -5.4844    1.5824    0.0000 C   0  0  0  0  0  0  0  0  0  0  0  0
   -5.8924    2.2987    0.0000 C   0  0  0  0  0  0  0  0  0  0  0  0
   -3.8686    3.7978    0.0000 C   0  0  0  0  0  0  0  0  0  0  0  0
   -1.7198    4.2101    0.0000 C   0  0  0  0  0  0  0  0  0  0  0  0
   -0.9619    2.9691    0.0000 C   0  0  0  0  0  0  0  0  0  0  0  0
   -0.2374    4.0894    0.0000 C   0  0  0  0  0  0  0  0  0  0  0  0
   -2.4361    3.8061    0.0000 C   0  0  0  0  0  0  0  0  0  0  0  0
   -3.1565    4.2101    0.0000 C   0  0  0  0  0  0  0  0  0  0  0  0
   -4.2559    0.3581    0.0000 C   0  0  0  0  0  0  0  0  0  0  0  0
   -4.4433   -0.4539    0.0000 C   0  0  0  0  0  0  0  0  0  0  0  0
   -5.9174    0.8828    0.0000 C   0  0  0  0  0  0  0  0  0  0  0  0
   -4.5807    4.2143    0.0000 O   0  0  0  0  0  0  0  0  0  0  0  0
   -0.1457    2.7692    0.0000 C   0  0  0  0  0  0  0  0  0  0  0  0
    0.2915    3.4688    0.0000 C   0  0  0  0  0  0  0  0  0  0  0  0
   -1.5949    2.4569    0.0000 O   0  0  0  0  0  0  0  0  0  0  0  0
   -0.0208    4.8847    0.0000 O   0  0  0  0  0  0  0  0  0  0  0  0
   -4.0685    1.1618    0.0000 C   0  0  0  0  0  0  0  0  0  0  0  0
   -6.7004    2.3195    0.0000 C   0  0  0  0  0  0  0  0  0  0  0  0
   -1.7115    5.0263    0.0000 C   0  0  0  0  0  0  0  0  0  0  0  0
   -5.5176    0.1457    0.0000 O   0  0  0  0  0  0  0  0  0  0  0  0
   -3.1482    5.0388    0.0000 C   0  0  0  0  0  0  0  0  0  0  0  0
   -2.4319    5.4511    0.0000 C   0  0  0  0  0  0  0  0  0  0  0  0
   -7.1376    1.6199    0.0000 C   0  0  0  0  0  0  0  0  0  0  0  0
   -6.7253    0.8870    0.0000 C   0  0  0  0  0  0  0  0  0  0  0  0
   -5.9549   -0.5539    0.0000 C   0  0  0  0  0  0  0  0  0  0  0  0
  2  1  2  0  0  0  0
  3  1  1  0  0  0  0
  4  9  1  0  0  0  0
  5  1  1  0  0  0  0
  6  3  1  0  0  0  0
  7  5  1  0  0  0  0
  7  6  2  0  0  0  0
  8  2  1  0  0  0  0
  9 12  1  0  0  0  0
  9 24  2  0  0  0  0
 10  4  1  0  0  0  0
 11  4  1  0  0  0  0
 12 13  2  0  0  0  0
 13  8  1  0  0  0  0
 14 22  1  0  0  0  0
 15 14  3  0  0  0  0
 16  6  1  0  0  0  0
 17  8  2  0  0  0  0
 18 10  1  0  0  0  0
 18 19  1  0  0  0  0
 19 11  1  0  0  0  0
 20 10  2  0  0  0  0
 21 11  2  0  0  0  0
 22  3  1  0  0  0  0
 23  7  1  0  0  0  0
 24 27  1  0  0  0  0
 25 16  1  0  0  0  0
 26 13  1  0  0  0  0
 27 26  2  0  0  0  0
 28 23  2  0  0  0  0
 29 16  2  0  0  0  0
 29 28  1  0  0  0  0
 30 25  1  0  0  0  0
M  END
> <CdId>
2612

> <Mol Weight>
419.453

> <Formula>
C22H17N3O4S

> <Click_ID>
CLK034_E08 __ __ 

$$$$
