CLK004_H02
 OpenBabel03181417552D

 32 34  0  0  0  0  0  0  0  0999 V2000
    0.3819    0.0897    0.0000 C   0  0  3  0  0  0  0  0  0  0  0  0
   -0.1774    0.6991    0.0000 N   0  0  0  0  0  0  0  0  0  0  0  0
    1.1853    0.2692    0.0000 C   0  0  0  0  0  0  0  0  0  0  0  0
    0.1314   -0.6970    0.0000 C   0  0  0  0  0  0  0  0  0  0  0  0
   -0.9829    0.5196    0.0000 C   0  0  0  0  0  0  0  0  0  0  0  0
    0.0709    1.4858    0.0000 C   0  0  0  0  0  0  0  0  0  0  0  0
    1.7425   -0.3443    0.0000 C   0  0  0  0  0  0  0  0  0  0  0  0
    1.4337    1.0517    0.0000 C   0  0  0  0  0  0  0  0  0  0  0  0
    0.6886   -1.3063    0.0000 N   0  0  0  0  0  0  0  0  0  0  0  0
   -0.6740   -0.8765    0.0000 O   0  0  0  0  0  0  0  0  0  0  0  0
   -1.5400    1.1269    0.0000 C   0  0  0  0  0  0  0  0  0  0  0  0
   -1.2291   -0.2671    0.0000 C   0  0  0  0  0  0  0  0  0  0  0  0
   -0.4862    2.0910    0.0000 C   0  0  0  0  0  0  0  0  0  0  0  0
    0.8765    1.6632    0.0000 O   0  0  0  0  0  0  0  0  0  0  0  0
    2.5480   -0.1648    0.0000 C   0  0  0  0  0  0  0  0  0  0  0  0
    2.2371    1.2312    0.0000 C   0  0  0  0  0  0  0  0  0  0  0  0
    0.4403   -2.0889    0.0000 C   0  0  0  0  0  0  0  0  0  0  0  0
   -2.3477    0.9495    0.0000 C   0  0  0  0  0  0  0  0  0  0  0  0
   -2.0388   -0.4466    0.0000 C   0  0  0  0  0  0  0  0  0  0  0  0
   -1.0455    2.7024    0.0000 C   0  0  0  0  0  0  0  0  0  0  0  0
    2.7942    0.6261    0.0000 C   0  0  0  0  0  0  0  0  0  0  0  0
   -0.3402   -2.3498    0.0000 C   0  0  0  0  0  0  0  0  0  0  0  0
    0.9307   -2.7525    0.0000 C   0  0  0  0  0  0  0  0  0  0  0  0
   -2.5960    0.1628    0.0000 C   0  0  0  0  0  0  0  0  0  0  0  0
   -2.9048    1.5589    0.0000 O   0  0  0  0  0  0  0  0  0  0  0  0
   -2.2871   -1.2375    0.0000 O   0  0  0  0  0  0  0  0  0  0  0  0
    3.6039    0.8013    0.0000 O   0  0  0  0  0  0  0  0  0  0  0  0
   -0.3339   -3.1740    0.0000 C   0  0  0  0  0  0  0  0  0  0  0  0
    0.4507   -3.4266    0.0000 C   0  0  0  0  0  0  0  0  0  0  0  0
   -2.6544    2.3456    0.0000 C   0  0  0  0  0  0  0  0  0  0  0  0
   -1.7300   -1.8343    0.0000 C   0  0  0  0  0  0  0  0  0  0  0  0
    3.8522    1.5880    0.0000 C   0  0  0  0  0  0  0  0  0  0  0  0
  1  2  1  0  0  0  0
  1  3  1  0  0  0  0
  1  4  1  0  0  0  0
  2  5  1  0  0  0  0
  2  6  1  0  0  0  0
  3  7  2  0  0  0  0
  3  8  1  0  0  0  0
  4  9  1  0  0  0  0
  4 10  2  0  0  0  0
  5 11  1  0  0  0  0
  5 12  2  0  0  0  0
  6 13  1  0  0  0  0
  6 14  2  0  0  0  0
  7 15  1  0  0  0  0
  8 16  2  0  0  0  0
  9 17  1  0  0  0  0
 11 18  2  0  0  0  0
 12 19  1  0  0  0  0
 13 20  3  0  0  0  0
 15 21  2  0  0  0  0
 16 21  1  0  0  0  0
 17 22  1  0  0  0  0
 17 23  1  0  0  0  0
 18 24  1  0  0  0  0
 18 25  1  0  0  0  0
 19 26  1  0  0  0  0
 19 24  2  0  0  0  0
 21 27  1  0  0  0  0
 22 28  1  0  0  0  0
 23 29  1  0  0  0  0
 25 30  1  0  0  0  0
 26 31  1  0  0  0  0
 27 32  1  0  0  0  0
 28 29  1  0  0  0  0
M  END
> <CdId>
311

> <Mol Weight>
436.5002

> <Formula>
C25H28N2O5

> <Click_ID>
CLK004_H02 __ __ 

$$$$
