CLK029_G11
 OpenBabel03181417552D

 24 26  0  0  0  0  0  0  0  0999 V2000
   -1.1649    2.3882    0.0000 C    0  0  0  0  0  0  0  0  0  0  0  0
    1.3194    3.8162    0.0000 N    0  0  0  0  0  0  0  0  0  0  0  0
   -1.6492    1.7244    0.0000 N    0  0  0  0  0  0  0  0  0  0  0  0
   -0.3382    2.3799    0.0000 N    0  0  0  0  0  0  0  0  0  0  0  0
   -1.6492    3.0563    0.0000 S    0  0  0  0  0  0  0  0  0  0  0  0
   -2.4383    2.8016    0.0000 C    0  0  0  0  0  0  0  0  0  0  0  0
   -2.4383    1.9749    0.0000 C    0  0  0  0  0  0  0  0  0  0  0  0
    2.1336    3.8913    0.0000 C    0  0  0  0  0  0  0  0  0  0  0  0
    0.9812    4.5511    0.0000 C    0  0  0  0  0  0  0  0  0  0  0  0
    0.0752    3.0939    0.0000 C    0  0  0  0  0  0  0  0  0  0  0  0
    0.9019    3.0939    0.0000 C    0  0  0  0  0  0  0  0  0  0  0  0
   -3.1523    3.2149    0.0000 C    0  0  0  0  0  0  0  0  0  0  0  0
   -1.9498    0.3215    0.0000 C    0  0  0  0  0  0  0  0  0  0  0  0
   -2.5010   -0.2923    0.0000 C    0  0  0  0  0  0  0  0  0  0  0  0
   -3.1523    1.5615    0.0000 C    0  0  0  0  0  0  0  0  0  0  0  0
    1.5950    5.1023    0.0000 C    0  0  0  0  0  0  0  0  0  0  0  0
    2.3173    4.7014    0.0000 C    0  0  0  0  0  0  0  0  0  0  0  0
    0.1796    4.7390    0.0000 O    0  0  0  0  0  0  0  0  0  0  0  0
    2.6931    3.2776    0.0000 O    0  0  0  0  0  0  0  0  0  0  0  0
   -0.3382    3.8079    0.0000 O    0  0  0  0  0  0  0  0  0  0  0  0
   -1.3987    0.9352    0.0000 C    0  0  0  0  0  0  0  0  0  0  0  0
   -3.8663    2.8016    0.0000 C    0  0  0  0  0  0  0  0  0  0  0  0
   -3.8663    1.9749    0.0000 C    0  0  0  0  0  0  0  0  0  0  0  0
   -4.5928    3.2192    0.0000 Cl   0  0  0  0  0  0  0  0  0  0  0  0
  2 11  1  0  0  0  0
  3  1  1  0  0  0  0
  4  1  2  0  0  0  0
  5  1  1  0  0  0  0
  6  5  1  0  0  0  0
  6  7  2  0  0  0  0
  7  3  1  0  0  0  0
  8  2  1  0  0  0  0
  9  2  1  0  0  0  0
 10  4  1  0  0  0  0
 11 10  1  0  0  0  0
 12  6  1  0  0  0  0
 13 21  1  0  0  0  0
 14 13  3  0  0  0  0
 15  7  1  0  0  0  0
 16  9  1  0  0  0  0
 16 17  1  0  0  0  0
 17  8  1  0  0  0  0
 18  9  2  0  0  0  0
 19  8  2  0  0  0  0
 20 10  2  0  0  0  0
 21  3  1  0  0  0  0
 22 12  2  0  0  0  0
 22 23  1  0  0  0  0
 23 15  2  0  0  0  0
 24 22  1  0  0  0  0
M  END
> <CdId>
2235

> <Mol Weight>
361.803

> <Formula>
C16H12ClN3O3S

> <Click_ID>
CLK029_G11 __ __ 

$$$$
