CLK017_A02
 OpenBabel03181417552D

 22 24  0  0  0  0  0  0  0  0999 V2000
   -1.1758   -0.4503    0.0000 C   0  0  0  0  0  0  0  0  0  0  0  0
   -1.1365   -1.2633    0.0000 C   0  0  0  0  0  0  0  0  0  0  0  0
    0.2492   -0.3847    0.0000 N   0  0  0  0  0  0  0  0  0  0  0  0
   -0.4021   -1.6436    0.0000 N   0  0  0  0  0  0  0  0  0  0  0  0
    0.2929   -1.1846    0.0000 C   0  0  0  0  0  0  0  0  0  0  0  0
   -0.4852    0.0131    0.0000 C   0  0  0  0  0  0  0  0  0  0  0  0
   -1.9102   -1.5387    0.0000 S   0  0  0  0  0  0  0  0  0  0  0  0
   -1.9757   -0.2404    0.0000 C   0  0  0  0  0  0  0  0  0  0  0  0
   -2.4129   -0.9311    0.0000 C   0  0  0  0  0  0  0  0  0  0  0  0
    2.4960   -1.4556    0.0000 C   0  0  0  0  0  0  0  0  0  0  0  0
    0.9442    0.0525    0.0000 C   0  0  0  0  0  0  0  0  0  0  0  0
    3.1648   -0.9966    0.0000 C   0  0  0  0  0  0  0  0  0  0  0  0
   -0.5245    0.8349    0.0000 O   0  0  0  0  0  0  0  0  0  0  0  0
    1.0491   -1.5605    0.0000 S   0  0  0  0  0  0  0  0  0  0  0  0
   -2.3735    0.5201    0.0000 C   0  0  0  0  0  0  0  0  0  0  0  0
    1.7354   -1.0797    0.0000 C   0  0  0  0  0  0  0  0  0  0  0  0
   -3.2522   -0.8917    0.0000 C   0  0  0  0  0  0  0  0  0  0  0  0
    0.9224    0.8742    0.0000 C   0  0  0  0  0  0  0  0  0  0  0  0
    1.6785   -0.3454    0.0000 C   0  0  0  0  0  0  0  0  0  0  0  0
    1.6130    1.3114    0.0000 C   0  0  0  0  0  0  0  0  0  0  0  0
    2.3911    0.1180    0.0000 C   0  0  0  0  0  0  0  0  0  0  0  0
    2.3473    0.9398    0.0000 C   0  0  0  0  0  0  0  0  0  0  0  0
  2  1  2  0  0  0  0
  3  6  1  0  0  0  0
  4  2  1  0  0  0  0
  5  3  1  0  0  0  0
  5  4  2  0  0  0  0
  6  1  1  0  0  0  0
  7  2  1  0  0  0  0
  8  1  1  0  0  0  0
  9  8  2  0  0  0  0
  9  7  1  0  0  0  0
 10 16  1  0  0  0  0
 11  3  1  0  0  0  0
 12 10  3  0  0  0  0
 13  6  2  0  0  0  0
 14  5  1  0  0  0  0
 15  8  1  0  0  0  0
 16 14  1  0  0  0  0
 17  9  1  0  0  0  0
 18 11  1  0  0  0  0
 19 11  2  0  0  0  0
 20 18  2  0  0  0  0
 20 22  1  0  0  0  0
 21 19  1  0  0  0  0
 22 21  2  0  0  0  0
M  END
> <CdId>
1237

> <Mol Weight>
326.436

> <Formula>
C17H14N2OS2

> <Click_ID>
CLK017_A02 __ __ 

$$$$
