CLK042H04
 OpenBabel03181417552D

 22 24  0  0  0  0  0  0  0  0999 V2000
   -0.2917   -0.3083    0.0000 C   0  0  0  0  0  0  0  0  0  0  0  0
   -0.7750    0.3583    0.0000 N   0  0  0  0  0  0  0  0  0  0  0  0
   -0.7750   -0.9750    0.0000 N   0  0  0  0  0  0  0  0  0  0  0  0
    1.7708    0.4042    0.0000 C   0  0  0  0  0  0  0  0  0  0  0  0
   -1.5583   -0.7208    0.0000 C   0  0  0  0  0  0  0  0  0  0  0  0
   -1.5583    0.1042    0.0000 C   0  0  0  0  0  0  0  0  0  0  0  0
    0.9458    0.4042    0.0000 N   0  0  0  0  0  0  0  0  0  0  0  0
    0.5333   -0.3083    0.0000 C   0  0  0  0  0  0  0  0  0  0  0  0
    2.1833    1.1208    0.0000 C   0  0  0  0  0  0  0  0  0  0  0  0
   -1.0708   -2.3750    0.0000 C   0  0  0  0  0  0  0  0  0  0  0  0
   -1.6250   -2.9875    0.0000 C   0  0  0  0  0  0  0  0  0  0  0  0
    1.8500    1.8750    0.0000 O   0  0  0  0  0  0  0  0  0  0  0  0
    2.1833   -0.3083    0.0000 O   0  0  0  0  0  0  0  0  0  0  0  0
    3.0042    1.2042    0.0000 C   0  0  0  0  0  0  0  0  0  0  0  0
    2.4625    2.4250    0.0000 C   0  0  0  0  0  0  0  0  0  0  0  0
   -0.5208   -1.7625    0.0000 C   0  0  0  0  0  0  0  0  0  0  0  0
    3.1750    2.0125    0.0000 C   0  0  0  0  0  0  0  0  0  0  0  0
    0.5333    1.1208    0.0000 C   0  0  0  0  0  0  0  0  0  0  0  0
   -2.2750   -1.1333    0.0000 C   0  0  0  0  0  0  0  0  0  0  0  0
   -2.2750    0.5167    0.0000 C   0  0  0  0  0  0  0  0  0  0  0  0
   -2.9875   -0.7208    0.0000 C   0  0  0  0  0  0  0  0  0  0  0  0
   -2.9875    0.1042    0.0000 C   0  0  0  0  0  0  0  0  0  0  0  0
  2  1  2  0  0  0  0
  3  1  1  0  0  0  0
  4  7  1  0  0  0  0
  5  3  1  0  0  0  0
  5  6  2  0  0  0  0
  6  2  1  0  0  0  0
  7  8  1  0  0  0  0
  8  1  1  0  0  0  0
  9  4  1  0  0  0  0
 10 16  1  0  0  0  0
 11 10  3  0  0  0  0
 12  9  1  0  0  0  0
 13  4  2  0  0  0  0
 14  9  2  0  0  0  0
 15 12  1  0  0  0  0
 15 17  2  0  0  0  0
 16  3  1  0  0  0  0
 17 14  1  0  0  0  0
 18  7  1  0  0  0  0
 19  5  1  0  0  0  0
 20  6  1  0  0  0  0
 21 19  2  0  0  0  0
 21 22  1  0  0  0  0
 22 20  2  0  0  0  0
M  END
> <CdId>
3192

> <Mol Weight>
293.3199

> <Formula>
C17H15N3O2

> <Click_ID>
CLK042H04 __ __ 

$$$$
