CLK014_E02
 OpenBabel03181417552D

 26 28  0  0  0  0  0  0  0  0999 V2000
    1.5667   -0.8167    0.0000 N   0  0  0  0  0  0  0  0  0  0  0  0
    1.8250   -1.6042    0.0000 C   0  0  0  0  0  0  0  0  0  0  0  0
    2.9042   -0.8167    0.0000 C   0  0  0  0  0  0  0  0  0  0  0  0
    2.2375   -0.3292    0.0000 C   0  0  0  0  0  0  0  0  0  0  0  0
    4.5250    1.3875    0.0000 N   0  0  0  0  0  0  0  0  0  0  0  0
    3.8542    0.2458    0.0000 C   0  0  0  0  0  0  0  0  0  0  0  0
    2.6500   -1.6042    0.0000 S   0  0  0  0  0  0  0  0  0  0  0  0
    3.7167    1.5583    0.0000 C   0  0  0  0  0  0  0  0  0  0  0  0
    4.6125    0.5708    0.0000 C   0  0  0  0  0  0  0  0  0  0  0  0
    3.6917   -0.5625    0.0000 C   0  0  0  0  0  0  0  0  0  0  0  0
    3.3042    0.8500    0.0000 C   0  0  0  0  0  0  0  0  0  0  0  0
    5.1417    1.9458    0.0000 C   0  0  0  0  0  0  0  0  0  0  0  0
    0.6125    0.2458    0.0000 C   0  0  0  0  0  0  0  0  0  0  0  0
    0.3917    1.0458    0.0000 C   0  0  0  0  0  0  0  0  0  0  0  0
    1.3375   -2.2667    0.0000 O   0  0  0  0  0  0  0  0  0  0  0  0
    2.2292    0.4958    0.0000 O   0  0  0  0  0  0  0  0  0  0  0  0
    0.7875   -0.5625    0.0000 C   0  0  0  0  0  0  0  0  0  0  0  0
    5.9167    1.6833    0.0000 C   0  0  0  0  0  0  0  0  0  0  0  0
    4.9625    2.7458    0.0000 C   0  0  0  0  0  0  0  0  0  0  0  0
    3.3792    2.3208    0.0000 C   0  0  0  0  0  0  0  0  0  0  0  0
    6.3542    3.0458    0.0000 C   0  0  0  0  0  0  0  0  0  0  0  0
    5.3250    0.1583    0.0000 C   0  0  0  0  0  0  0  0  0  0  0  0
    6.5292    2.2333    0.0000 C   0  0  0  0  0  0  0  0  0  0  0  0
    5.5792    3.2958    0.0000 C   0  0  0  0  0  0  0  0  0  0  0  0
    6.9750    3.5833    0.0000 O   0  0  0  0  0  0  0  0  0  0  0  0
    6.8042    4.3875    0.0000 C   0  0  0  0  0  0  0  0  0  0  0  0
  2  1  1  0  0  0  0
  3  4  1  0  0  0  0
  3  7  1  0  0  0  0
  4  1  1  0  0  0  0
  5  9  1  0  0  0  0
  5  8  1  0  0  0  0
  6 10  1  0  0  0  0
  7  2  1  0  0  0  0
  8 11  2  0  0  0  0
  9  6  2  0  0  0  0
 10  3  2  0  0  0  0
 11  6  1  0  0  0  0
 12  5  1  0  0  0  0
 13 17  1  0  0  0  0
 14 13  3  0  0  0  0
 15  2  2  0  0  0  0
 16  4  2  0  0  0  0
 17  1  1  0  0  0  0
 18 12  2  0  0  0  0
 19 12  1  0  0  0  0
 20  8  1  0  0  0  0
 21 24  1  0  0  0  0
 22  9  1  0  0  0  0
 23 18  1  0  0  0  0
 23 21  2  0  0  0  0
 24 19  2  0  0  0  0
 25 21  1  0  0  0  0
 26 25  1  0  0  0  0
M  END
> <CdId>
1037

> <Mol Weight>
366.434

> <Formula>
C20H18N2O3S

> <Click_ID>
CLK014_E02 __ __ 

$$$$
