CLK002_C09
 OpenBabel03181417552D

 20 22  0  0  0  0  0  0  0  0999 V2000
   -0.0894   -0.2262    0.0000 C   0  0  3  0  0  0  0  0  0  0  0  0
   -0.6993    0.3260    0.0000 C   0  0  0  0  0  0  0  0  0  0  0  0
    0.6310   -0.6048    0.0000 C   0  0  0  0  0  0  0  0  0  0  0  0
   -0.4207   -0.9676    0.0000 O   0  0  0  0  0  0  0  0  0  0  0  0
    0.1735    0.5679    0.0000 O   0  0  0  0  0  0  0  0  0  0  0  0
   -1.4092   -0.0788    0.0000 C   0  0  0  0  0  0  0  0  0  0  0  0
   -0.7152    1.1411    0.0000 C   0  0  0  0  0  0  0  0  0  0  0  0
    1.3357   -0.1525    0.0000 C   0  0  0  0  0  0  0  0  0  0  0  0
    0.6731   -1.4251    0.0000 C   0  0  0  0  0  0  0  0  0  0  0  0
   -1.2305   -0.8939    0.0000 C   0  0  0  0  0  0  0  0  0  0  0  0
    0.9622    0.7204    0.0000 C   0  0  0  0  0  0  0  0  0  0  0  0
   -2.1297    0.3260    0.0000 C   0  0  0  0  0  0  0  0  0  0  0  0
   -1.4092    1.5460    0.0000 C   0  0  0  0  0  0  0  0  0  0  0  0
    2.0666   -0.5363    0.0000 C   0  0  0  0  0  0  0  0  0  0  0  0
    1.3987   -1.8089    0.0000 C   0  0  0  0  0  0  0  0  0  0  0  0
   -1.7827   -1.5198    0.0000 O   0  0  0  0  0  0  0  0  0  0  0  0
    1.2251    1.5039    0.0000 C   0  0  0  0  0  0  0  0  0  0  0  0
   -2.1455    1.1411    0.0000 C   0  0  0  0  0  0  0  0  0  0  0  0
    2.0982   -1.3673    0.0000 C   0  0  0  0  0  0  0  0  0  0  0  0
    1.4672    2.2926    0.0000 C   0  0  0  0  0  0  0  0  0  0  0  0
  1  2  1  0  0  0  0
  1  3  1  0  0  0  0
  1  4  1  0  0  0  0
  1  5  1  0  0  0  0
  2  6  1  0  0  0  0
  2  7  2  0  0  0  0
  3  8  2  0  0  0  0
  3  9  1  0  0  0  0
  4 10  1  0  0  0  0
  5 11  1  0  0  0  0
  6 12  2  0  0  0  0
  6 10  1  0  0  0  0
  7 13  1  0  0  0  0
  8 14  1  0  0  0  0
  9 15  2  0  0  0  0
 10 16  2  0  0  0  0
 11 17  1  0  0  0  0
 12 18  1  0  0  0  0
 13 18  2  0  0  0  0
 14 19  2  0  0  0  0
 15 19  1  0  0  0  0
 17 20  3  0  0  0  0
M  END
> <CdId>
108

> <Mol Weight>
264.2754

> <Formula>
C17H12O3

> <Click_ID>
CLK002_C09 __ __ 

$$$$
