CLK031_E06
 OpenBabel03181417552D

 31 33  0  0  0  0  0  0  0  0999 V2000
   -1.1625    2.3833    0.0000 C   0  0  0  0  0  0  0  0  0  0  0  0
   -0.3375    2.3750    0.0000 N   0  0  0  0  0  0  0  0  0  0  0  0
   -4.5833    3.2125    0.0000 S   0  0  0  0  0  0  0  0  0  0  0  0
   -1.6458    1.7208    0.0000 N   0  0  0  0  0  0  0  0  0  0  0  0
   -1.6458    3.0500    0.0000 S   0  0  0  0  0  0  0  0  0  0  0  0
   -2.4333    2.7958    0.0000 C   0  0  0  0  0  0  0  0  0  0  0  0
   -2.4333    1.9708    0.0000 C   0  0  0  0  0  0  0  0  0  0  0  0
    0.0750    3.0875    0.0000 C   0  0  0  0  0  0  0  0  0  0  0  0
   -3.8583    2.7958    0.0000 C   0  0  0  0  0  0  0  0  0  0  0  0
   -3.1458    3.2083    0.0000 C   0  0  0  0  0  0  0  0  0  0  0  0
   -1.9458    0.3208    0.0000 C   0  0  0  0  0  0  0  0  0  0  0  0
   -3.1458    1.5583    0.0000 C   0  0  0  0  0  0  0  0  0  0  0  0
   -2.4958   -0.2917    0.0000 C   0  0  0  0  0  0  0  0  0  0  0  0
   -4.1458    3.9083    0.0000 O   0  0  0  0  0  0  0  0  0  0  0  0
   -5.0208    2.5083    0.0000 O   0  0  0  0  0  0  0  0  0  0  0  0
    0.9000    3.0875    0.0000 C   0  0  0  0  0  0  0  0  0  0  0  0
   -5.2833    3.6458    0.0000 N   0  0  0  0  0  0  0  0  0  0  0  0
   -0.3375    3.8000    0.0000 O   0  0  0  0  0  0  0  0  0  0  0  0
   -3.8583    1.9708    0.0000 C   0  0  0  0  0  0  0  0  0  0  0  0
   -1.3958    0.9333    0.0000 C   0  0  0  0  0  0  0  0  0  0  0  0
    1.3250    3.8125    0.0000 C   0  0  0  0  0  0  0  0  0  0  0  0
    1.3125    2.3833    0.0000 C   0  0  0  0  0  0  0  0  0  0  0  0
    2.5542    3.0708    0.0000 C   0  0  0  0  0  0  0  0  0  0  0  0
    2.1500    3.8083    0.0000 C   0  0  0  0  0  0  0  0  0  0  0  0
    2.1292    2.3708    0.0000 C   0  0  0  0  0  0  0  0  0  0  0  0
    3.3875    3.0625    0.0000 O   0  0  0  0  0  0  0  0  0  0  0  0
    3.7917    2.3583    0.0000 C   0  0  0  0  0  0  0  0  0  0  0  0
    4.6250    2.3500    0.0000 C   0  0  0  0  0  0  0  0  0  0  0  0
    5.8625    1.6208    0.0000 C   0  0  0  0  0  0  0  0  0  0  0  0
    5.0292    1.6250    0.0000 C   0  0  0  0  0  0  0  0  0  0  0  0
    6.2667    0.9000    0.0000 C   0  0  0  0  0  0  0  0  0  0  0  0
  2  1  2  0  0  0  0
  3  9  1  0  0  0  0
  4  1  1  0  0  0  0
  5  1  1  0  0  0  0
  6  5  1  0  0  0  0
  6  7  2  0  0  0  0
  7  4  1  0  0  0  0
  8  2  1  0  0  0  0
  9 10  2  0  0  0  0
  9 19  1  0  0  0  0
 10  6  1  0  0  0  0
 11 20  1  0  0  0  0
 12  7  1  0  0  0  0
 13 11  3  0  0  0  0
 14  3  2  0  0  0  0
 15  3  2  0  0  0  0
 16  8  1  0  0  0  0
 17  3  1  0  0  0  0
 18  8  2  0  0  0  0
 19 12  2  0  0  0  0
 20  4  1  0  0  0  0
 21 16  1  0  0  0  0
 22 16  2  0  0  0  0
 23 25  2  0  0  0  0
 23 24  1  0  0  0  0
 24 21  2  0  0  0  0
 25 22  1  0  0  0  0
 26 23  1  0  0  0  0
 27 26  1  0  0  0  0
 28 27  1  0  0  0  0
 29 30  1  0  0  0  0
 30 28  1  0  0  0  0
 31 29  1  0  0  0  0
M  END
> <CdId>
2370

> <Mol Weight>
457.566

> <Formula>
C22H23N3O4S2

> <Click_ID>
CLK031_E06 __ __ 

$$$$
