CLK006_H09
 OpenBabel03181417552D

 28 30  0  0  0  0  0  0  0  0999 V2000
   -0.1485   -0.8803    0.0000 C   0  0  0  0  0  0  0  0  0  0  0  0
    0.5661   -0.4660    0.0000 C   0  0  3  0  0  0  0  0  0  0  0  0
   -0.1485   -1.6985    0.0000 C   0  0  0  0  0  0  0  0  0  0  0  0
   -0.8595   -0.4591    0.0000 C   0  0  0  0  0  0  0  0  0  0  0  0
    0.5661    0.3590    0.0000 C   0  0  0  0  0  0  0  0  0  0  0  0
    1.2807   -0.8734    0.0000 C   0  0  0  0  0  0  0  0  0  0  0  0
   -0.8595   -2.1126    0.0000 N   0  0  0  0  0  0  0  0  0  0  0  0
    0.5661   -2.1126    0.0000 N   0  0  0  0  0  0  0  0  0  0  0  0
   -1.5638   -0.8803    0.0000 N   0  0  0  0  0  0  0  0  0  0  0  0
   -0.8595    0.3659    0.0000 O   0  0  0  0  0  0  0  0  0  0  0  0
    1.2807    0.7698    0.0000 C   0  0  0  0  0  0  0  0  0  0  0  0
   -0.1485    0.7663    0.0000 C   0  0  0  0  0  0  0  0  0  0  0  0
    1.2807   -1.6985    0.0000 C   0  0  0  0  0  0  0  0  0  0  0  0
   -1.5638   -1.7053    0.0000 C   0  0  0  0  0  0  0  0  0  0  0  0
    1.2773    1.5983    0.0000 C   0  0  0  0  0  0  0  0  0  0  0  0
    1.9919    1.1841    0.0000 O   0  0  0  0  0  0  0  0  0  0  0  0
   -0.1588    1.5845    0.0000 C   0  0  0  0  0  0  0  0  0  0  0  0
    1.9919   -2.1126    0.0000 O   0  0  0  0  0  0  0  0  0  0  0  0
   -2.2853   -2.1195    0.0000 S   0  0  0  0  0  0  0  0  0  0  0  0
    0.5627    2.0056    0.0000 C   0  0  0  0  0  0  0  0  0  0  0  0
    1.9919    2.0091    0.0000 O   0  0  0  0  0  0  0  0  0  0  0  0
    2.5787    0.6041    0.0000 C   0  0  0  0  0  0  0  0  0  0  0  0
   -2.9999   -1.7053    0.0000 C   0  0  0  0  0  0  0  0  0  0  0  0
    0.5523    2.8307    0.0000 O   0  0  0  0  0  0  0  0  0  0  0  0
    1.9815    2.8445    0.0000 C   0  0  0  0  0  0  0  0  0  0  0  0
   -2.9999   -0.8803    0.0000 C   0  0  0  0  0  0  0  0  0  0  0  0
   -0.1588    3.2449    0.0000 C   0  0  0  0  0  0  0  0  0  0  0  0
   -3.7144   -0.4660    0.0000 C   0  0  0  0  0  0  0  0  0  0  0  0
  1  2  1  0  0  0  0
  1  3  2  0  0  0  0
  1  4  1  0  0  0  0
  2  5  1  0  0  0  0
  2  6  1  0  0  0  0
  3  7  1  0  0  0  0
  3  8  1  0  0  0  0
  4  9  1  0  0  0  0
  4 10  2  0  0  0  0
  5 11  2  0  0  0  0
  5 12  1  0  0  0  0
  6 13  1  0  0  0  0
  7 14  2  0  0  0  0
  8 13  1  0  0  0  0
  9 14  1  0  0  0  0
 11 15  1  0  0  0  0
 11 16  1  0  0  0  0
 12 17  2  0  0  0  0
 13 18  2  0  0  0  0
 14 19  1  0  0  0  0
 15 20  2  0  0  0  0
 15 21  1  0  0  0  0
 16 22  1  0  0  0  0
 17 20  1  0  0  0  0
 19 23  1  0  0  0  0
 20 24  1  0  0  0  0
 21 25  1  0  0  0  0
 23 26  1  0  0  0  0
 24 27  1  0  0  0  0
 26 28  3  0  0  0  0
M  END
> <CdId>
478

> <Mol Weight>
401.436

> <Formula>
C19H19N3O5S

> <Click_ID>
CLK006_H09 __ __ 

$$$$
