CLK044B02
 OpenBabel03181417552D

 30 33  0  0  0  0  0  0  0  0999 V2000
    3.6162    0.3542    0.0000 S   0  0  0  0  0  0  0  0  0  0  0  0
   -0.8207   -0.8291    0.0000 C   0  0  0  0  0  0  0  0  0  0  0  0
   -1.3748   -0.2167    0.0000 N   0  0  0  0  0  0  0  0  0  0  0  0
    0.0000   -0.7416    0.0000 N   0  0  0  0  0  0  0  0  0  0  0  0
   -2.1289   -0.5541    0.0000 C   0  0  0  0  0  0  0  0  0  0  0  0
    0.3333    0.0083    0.0000 C   0  0  0  0  0  0  0  0  0  0  0  0
   -1.2331   -1.5456    0.0000 S   0  0  0  0  0  0  0  0  0  0  0  0
   -2.0414   -1.3706    0.0000 C   0  0  0  0  0  0  0  0  0  0  0  0
   -2.8413   -0.1417    0.0000 C   0  0  0  0  0  0  0  0  0  0  0  0
    2.7954    0.2667    0.0000 C   0  0  0  0  0  0  0  0  0  0  0  0
    5.7409   -0.1417    0.0000 C   0  0  0  0  0  0  0  0  0  0  0  0
   -3.5578   -0.5541    0.0000 C   0  0  0  0  0  0  0  0  0  0  0  0
    6.5616   -0.0542    0.0000 C   0  0  0  0  0  0  0  0  0  0  0  0
    3.5287    1.1748    0.0000 O   0  0  0  0  0  0  0  0  0  0  0  0
    3.6995   -0.4666    0.0000 O   0  0  0  0  0  0  0  0  0  0  0  0
   -4.2702   -0.1417    0.0000 C   0  0  0  0  0  0  0  0  0  0  0  0
    1.1540    0.0958    0.0000 C   0  0  0  0  0  0  0  0  0  0  0  0
    4.4369    0.4416    0.0000 N   0  0  0  0  0  0  0  0  0  0  0  0
   -0.1500    0.6791    0.0000 O   0  0  0  0  0  0  0  0  0  0  0  0
   -4.2702    0.6832    0.0000 C   0  0  0  0  0  0  0  0  0  0  0  0
   -2.8413    0.6832    0.0000 C   0  0  0  0  0  0  0  0  0  0  0  0
    2.4580   -0.4832    0.0000 C   0  0  0  0  0  0  0  0  0  0  0  0
    2.3080    0.9374    0.0000 C   0  0  0  0  0  0  0  0  0  0  0  0
    1.6373   -0.5707    0.0000 C   0  0  0  0  0  0  0  0  0  0  0  0
    1.4915    0.8499    0.0000 C   0  0  0  0  0  0  0  0  0  0  0  0
   -3.5578    1.0956    0.0000 C   0  0  0  0  0  0  0  0  0  0  0  0
    4.9201   -0.2250    0.0000 C   0  0  0  0  0  0  0  0  0  0  0  0
   -5.0535   -0.3957    0.0000 C   0  0  0  0  0  0  0  0  0  0  0  0
   -5.5409    0.2708    0.0000 C   0  0  0  0  0  0  0  0  0  0  0  0
   -5.0535    0.9416    0.0000 C   0  0  0  0  0  0  0  0  0  0  0  0
  2  4  1  0  0  0  0
  3  2  2  0  0  0  0
  4  6  1  0  0  0  0
  5  3  1  0  0  0  0
  6 17  1  0  0  0  0
  7  2  1  0  0  0  0
  8  7  1  0  0  0  0
  8  5  2  0  0  0  0
  9  5  1  0  0  0  0
 10  1  1  0  0  0  0
 11 27  1  0  0  0  0
 12  9  2  0  0  0  0
 13 11  3  0  0  0  0
 14  1  2  0  0  0  0
 15  1  2  0  0  0  0
 16 12  1  0  0  0  0
 17 25  2  0  0  0  0
 18  1  1  0  0  0  0
 19  6  2  0  0  0  0
 20 16  2  0  0  0  0
 20 26  1  0  0  0  0
 21  9  1  0  0  0  0
 22 10  1  0  0  0  0
 23 10  2  0  0  0  0
 24 22  2  0  0  0  0
 24 17  1  0  0  0  0
 25 23  1  0  0  0  0
 26 21  2  0  0  0  0
 27 18  1  0  0  0  0
 28 16  1  0  0  0  0
 29 28  1  0  0  0  0
 29 30  1  0  0  0  0
 30 20  1  0  0  0  0
M  END
> <CdId>
3330

> <Mol Weight>
437.535

> <Formula>
C22H19N3O3S2

> <Click_ID>
CLK044B02 __ __ 

$$$$
