CLK027_H07
 OpenBabel03181417552D

 31 33  0  0  0  0  0  0  0  0999 V2000
    1.1619   -1.2972    0.0000 C    0  0  0  0  0  0  0  0  0  0  0  0
    1.1758   -2.6326    0.0000 C    0  0  0  0  0  0  0  0  0  0  0  0
    0.3885   -2.3898    0.0000 C    0  0  0  0  0  0  0  0  0  0  0  0
    0.3850   -1.5608    0.0000 C    0  0  0  0  0  0  0  0  0  0  0  0
    1.6614   -1.9597    0.0000 C    0  0  0  0  0  0  0  0  0  0  0  0
   -0.3226   -2.8130    0.0000 N    0  0  0  0  0  0  0  0  0  0  0  0
   -1.0544   -1.5747    0.0000 C    0  0  0  0  0  0  0  0  0  0  0  0
   -0.3399   -1.1515    0.0000 C    0  0  0  0  0  0  0  0  0  0  0  0
    1.4984   -0.2220    0.0000 C    0  0  0  0  0  0  0  0  0  0  0  0
   -1.0475   -2.4002    0.0000 C    0  0  0  0  0  0  0  0  0  0  0  0
    0.9469    0.3850    0.0000 C    0  0  0  0  0  0  0  0  0  0  0  0
    1.4359   -3.4130    0.0000 C    0  0  0  0  0  0  0  0  0  0  0  0
   -1.7724   -1.1723    0.0000 C    0  0  0  0  0  0  0  0  0  0  0  0
    0.6382    1.7654    0.0000 C    0  0  0  0  0  0  0  0  0  0  0  0
    1.1862    1.1619    0.0000 C    0  0  0  0  0  0  0  0  0  0  0  0
    1.6614   -4.2003    0.0000 N    0  0  0  0  0  0  0  0  0  0  0  0
   -2.4904   -0.7596    0.0000 N    0  0  0  0  0  0  0  0  0  0  0  0
   -0.1630    1.5955    0.0000 C    0  0  0  0  0  0  0  0  0  0  0  0
    0.1388    0.2116    0.0000 C    0  0  0  0  0  0  0  0  0  0  0  0
   -1.0162    3.5864    0.0000 C    0  0  0  0  0  0  0  0  0  0  0  0
   -0.4162    0.8220    0.0000 C    0  0  0  0  0  0  0  0  0  0  0  0
   -1.5747    4.2003    0.0000 C    0  0  0  0  0  0  0  0  0  0  0  0
   -1.7516   -2.8199    0.0000 N    0  0  0  0  0  0  0  0  0  0  0  0
    1.9874    1.3458    0.0000 Br   0  0  0  0  0  0  0  0  0  0  0  0
    2.4869   -1.9527    0.0000 C    0  0  0  0  0  0  0  0  0  0  0  0
   -0.3503   -0.3261    0.0000 C    0  0  0  0  0  0  0  0  0  0  0  0
   -0.7111    2.2060    0.0000 O    0  0  0  0  0  0  0  0  0  0  0  0
   -1.2105    0.6486    0.0000 O    0  0  0  0  0  0  0  0  0  0  0  0
   -0.4647    2.9864    0.0000 C    0  0  0  0  0  0  0  0  0  0  0  0
   -1.4603   -0.1388    0.0000 C    0  0  0  0  0  0  0  0  0  0  0  0
   -2.2615   -0.3157    0.0000 C    0  0  0  0  0  0  0  0  0  0  0  0
  2  5  2  0  0  0  0
  3  4  1  0  0  0  0
  3  2  1  0  0  0  0
  4  1  1  0  0  0  0
  5  1  1  0  0  0  0
  6  3  2  0  0  0  0
  7  8  1  0  0  0  0
  8  4  2  0  0  0  0
  9  1  2  0  0  0  0
 10  7  2  0  0  0  0
 10  6  1  0  0  0  0
 11  9  1  0  0  0  0
 12  2  1  0  0  0  0
 13  7  1  0  0  0  0
 14 15  2  0  0  0  0
 15 11  1  0  0  0  0
 16 12  3  0  0  0  0
 17 13  3  0  0  0  0
 18 21  2  0  0  0  0
 18 14  1  0  0  0  0
 19 11  2  0  0  0  0
 20 29  1  0  0  0  0
 21 19  1  0  0  0  0
 22 20  3  0  0  0  0
 23 10  1  0  0  0  0
 24 15  1  0  0  0  0
 25  5  1  0  0  0  0
 26  8  1  0  0  0  0
 27 18  1  0  0  0  0
 28 21  1  0  0  0  0
 29 27  1  0  0  0  0
 30 28  1  0  0  0  0
 31 30  1  0  0  0  0
M  END
> <CdId>
2083

> <Mol Weight>
475.337

> <Formula>
C24H19BrN4O2

> <Click_ID>
CLK027_H07 __ __ 

$$$$
