CLK005_F07
 OpenBabel03181417552D

 23 24  0  0  0  0  0  0  0  0999 V2000
    0.1864   -0.6800    0.0000 C   0  0  3  0  0  0  0  0  0  0  0  0
    0.1864    0.1450    0.0000 C   0  0  0  0  0  0  0  0  0  0  0  0
   -0.5282   -1.0943    0.0000 C   0  0  0  0  0  0  0  0  0  0  0  0
    0.9079   -1.0943    0.0000 N   0  0  0  0  0  0  0  0  0  0  0  0
    0.9010    0.5558    0.0000 C   0  0  0  0  0  0  0  0  0  0  0  0
   -0.5282    0.5489    0.0000 C   0  0  0  0  0  0  0  0  0  0  0  0
   -0.5282   -1.9193    0.0000 C   0  0  0  0  0  0  0  0  0  0  0  0
   -1.2393   -0.6800    0.0000 C   0  0  0  0  0  0  0  0  0  0  0  0
    0.9079   -1.9193    0.0000 C   0  0  0  0  0  0  0  0  0  0  0  0
    0.9010    1.3843    0.0000 C   0  0  0  0  0  0  0  0  0  0  0  0
   -0.5385    1.3705    0.0000 C   0  0  0  0  0  0  0  0  0  0  0  0
    0.1864   -2.3335    0.0000 N   0  0  0  0  0  0  0  0  0  0  0  0
   -1.2393   -2.3335    0.0000 C   0  0  0  0  0  0  0  0  0  0  0  0
   -1.9538   -1.0943    0.0000 O   0  0  0  0  0  0  0  0  0  0  0  0
   -1.2393    0.1450    0.0000 O   0  0  0  0  0  0  0  0  0  0  0  0
    1.6259   -2.3335    0.0000 O   0  0  0  0  0  0  0  0  0  0  0  0
    0.1830    1.7951    0.0000 C   0  0  0  0  0  0  0  0  0  0  0  0
    1.6121    1.7951    0.0000 O   0  0  0  0  0  0  0  0  0  0  0  0
   -2.6719   -0.6800    0.0000 C   0  0  0  0  0  0  0  0  0  0  0  0
    1.6121    2.6236    0.0000 C   0  0  0  0  0  0  0  0  0  0  0  0
   -3.3830   -1.0943    0.0000 C   0  0  0  0  0  0  0  0  0  0  0  0
    2.3266    3.0343    0.0000 C   0  0  0  0  0  0  0  0  0  0  0  0
    2.3232    3.8594    0.0000 C   0  0  0  0  0  0  0  0  0  0  0  0
  1  2  1  0  0  0  0
  1  3  1  0  0  0  0
  1  4  1  0  0  0  0
  2  5  2  0  0  0  0
  2  6  1  0  0  0  0
  3  7  2  0  0  0  0
  3  8  1  0  0  0  0
  4  9  1  0  0  0  0
  5 10  1  0  0  0  0
  6 11  2  0  0  0  0
  7 12  1  0  0  0  0
  7 13  1  0  0  0  0
  8 14  1  0  0  0  0
  8 15  2  0  0  0  0
  9 16  2  0  0  0  0
  9 12  1  0  0  0  0
 10 17  2  0  0  0  0
 10 18  1  0  0  0  0
 11 17  1  0  0  0  0
 14 19  1  0  0  0  0
 18 20  1  0  0  0  0
 19 21  1  0  0  0  0
 20 22  1  0  0  0  0
 22 23  3  0  0  0  0
M  END
> <CdId>
376

> <Mol Weight>
314.3358

> <Formula>
C17H18N2O4

> <Click_ID>
CLK005_F07 __ __ 

$$$$
