CLK047A10
 OpenBabel03181417552D

 17 18  0  0  0  0  0  0  0  0999 V2000
    0.7125   -0.8458    0.0000 C   0  0  0  0  0  0  0  0  0  0  0  0
    0.0000   -0.4333    0.0000 N   0  0  0  0  0  0  0  0  0  0  0  0
    0.0000    0.3917    0.0000 C   0  0  0  0  0  0  0  0  0  0  0  0
    1.4250   -2.9083    0.0000 C   0  0  0  0  0  0  0  0  0  0  0  0
    1.4250   -3.7333    0.0000 C   0  0  0  0  0  0  0  0  0  0  0  0
   -0.7167    0.8042    0.0000 C   0  0  0  0  0  0  0  0  0  0  0  0
    1.4250   -0.4333    0.0000 O   0  0  0  0  0  0  0  0  0  0  0  0
    0.7125   -1.6708    0.0000 N   0  0  0  0  0  0  0  0  0  0  0  0
   -0.7167    1.6292    0.0000 C   0  0  0  0  0  0  0  0  0  0  0  0
    1.4250   -2.0833    0.0000 C   0  0  0  0  0  0  0  0  0  0  0  0
    0.7125    0.8042    0.0000 C   0  0  0  0  0  0  0  0  0  0  0  0
    0.7125    1.6292    0.0000 C   0  0  0  0  0  0  0  0  0  0  0  0
   -1.4292    0.3917    0.0000 C   0  0  0  0  0  0  0  0  0  0  0  0
    0.0000    2.0417    0.0000 C   0  0  0  0  0  0  0  0  0  0  0  0
   -1.4292    2.0417    0.0000 C   0  0  0  0  0  0  0  0  0  0  0  0
   -2.1458    0.8042    0.0000 C   0  0  0  0  0  0  0  0  0  0  0  0
   -2.1458    1.6292    0.0000 C   0  0  0  0  0  0  0  0  0  0  0  0
  2  1  1  0  0  0  0
  3  2  1  0  0  0  0
  4 10  1  0  0  0  0
  5  4  3  0  0  0  0
  6  3  2  0  0  0  0
  7  1  2  0  0  0  0
  8  1  1  0  0  0  0
  9  6  1  0  0  0  0
 10  8  1  0  0  0  0
 11  3  1  0  0  0  0
 12 11  2  0  0  0  0
 13  6  1  0  0  0  0
 14  9  2  0  0  0  0
 14 12  1  0  0  0  0
 15  9  1  0  0  0  0
 16 13  2  0  0  0  0
 16 17  1  0  0  0  0
 17 15  2  0  0  0  0
M  END
> <CdId>
3633

> <Mol Weight>
224.2579

> <Formula>
C14H12N2O

> <Click_ID>
CLK047A10 __ __ 

$$$$
