CLK040C08
 OpenBabel03181417552D

 26 27  0  0  0  0  0  0  0  0999 V2000
   -2.2292    1.8917    0.0000 S   0  0  0  0  0  0  0  0  0  0  0  0
    1.3458   -1.8208    0.0000 C   0  0  0  0  0  0  0  0  0  0  0  0
    0.6292    0.2417    0.0000 C   0  0  0  0  0  0  0  0  0  0  0  0
   -1.5125    1.4792    0.0000 C   0  0  0  0  0  0  0  0  0  0  0  0
    1.3458   -0.9958    0.0000 N   0  0  0  0  0  0  0  0  0  0  0  0
    0.6292   -0.5833    0.0000 N   0  0  0  0  0  0  0  0  0  0  0  0
   -3.6583    3.5417    0.0000 C   0  0  0  0  0  0  0  0  0  0  0  0
   -4.3708    3.9542    0.0000 C   0  0  0  0  0  0  0  0  0  0  0  0
    2.0583   -2.2333    0.0000 C   0  0  0  0  0  0  0  0  0  0  0  0
   -2.6417    1.1750    0.0000 O   0  0  0  0  0  0  0  0  0  0  0  0
   -1.8167    2.6042    0.0000 O   0  0  0  0  0  0  0  0  0  0  0  0
   -0.0833    0.6542    0.0000 C   0  0  0  0  0  0  0  0  0  0  0  0
   -2.9417    2.3042    0.0000 N   0  0  0  0  0  0  0  0  0  0  0  0
    0.6292   -2.2333    0.0000 O   0  0  0  0  0  0  0  0  0  0  0  0
    2.0583   -3.0583    0.0000 C   0  0  0  0  0  0  0  0  0  0  0  0
    1.3458    0.6542    0.0000 O   0  0  0  0  0  0  0  0  0  0  0  0
   -0.8000    1.8917    0.0000 C   0  0  0  0  0  0  0  0  0  0  0  0
   -1.5125    0.6542    0.0000 C   0  0  0  0  0  0  0  0  0  0  0  0
   -0.0833    1.4792    0.0000 C   0  0  0  0  0  0  0  0  0  0  0  0
   -0.8000    0.2417    0.0000 C   0  0  0  0  0  0  0  0  0  0  0  0
    2.7750   -3.4708    0.0000 C   0  0  0  0  0  0  0  0  0  0  0  0
   -2.9417    3.1292    0.0000 C   0  0  0  0  0  0  0  0  0  0  0  0
    2.7750   -4.2958    0.0000 O   0  0  0  0  0  0  0  0  0  0  0  0
    2.7750   -1.8208    0.0000 C   0  0  0  0  0  0  0  0  0  0  0  0
    3.4875   -2.2333    0.0000 C   0  0  0  0  0  0  0  0  0  0  0  0
    3.4875   -3.0583    0.0000 C   0  0  0  0  0  0  0  0  0  0  0  0
  2  5  1  0  0  0  0
  3 12  1  0  0  0  0
  4  1  1  0  0  0  0
  5  6  1  0  0  0  0
  6  3  1  0  0  0  0
  7 22  1  0  0  0  0
  8  7  3  0  0  0  0
  9  2  1  0  0  0  0
 10  1  2  0  0  0  0
 11  1  2  0  0  0  0
 12 20  2  0  0  0  0
 13  1  1  0  0  0  0
 14  2  2  0  0  0  0
 15  9  1  0  0  0  0
 16  3  2  0  0  0  0
 17  4  1  0  0  0  0
 18  4  2  0  0  0  0
 19 17  2  0  0  0  0
 19 12  1  0  0  0  0
 20 18  1  0  0  0  0
 21 15  2  0  0  0  0
 22 13  1  0  0  0  0
 23 21  1  0  0  0  0
 24  9  2  0  0  0  0
 25 24  1  0  0  0  0
 25 26  2  0  0  0  0
 26 21  1  0  0  0  0
M  END
> <CdId>
3059

> <Mol Weight>
373.383

> <Formula>
C17H15N3O5S

> <Click_ID>
CLK040C08 __ __ 

$$$$
