CLK030_H10
 OpenBabel03181417552D

 27 29  0  0  0  0  0  0  0  0999 V2000
   -1.1648    2.3880    0.0000 C    0  0  0  0  0  0  0  0  0  0  0  0
   -0.3382    2.3797    0.0000 N    0  0  0  0  0  0  0  0  0  0  0  0
   -4.5924    3.2189    0.0000 S    0  0  0  0  0  0  0  0  0  0  0  0
   -1.6491    1.7242    0.0000 N    0  0  0  0  0  0  0  0  0  0  0  0
   -1.6491    3.0560    0.0000 S    0  0  0  0  0  0  0  0  0  0  0  0
    0.0751    3.0936    0.0000 C    0  0  0  0  0  0  0  0  0  0  0  0
   -2.4381    2.8013    0.0000 C    0  0  0  0  0  0  0  0  0  0  0  0
    0.9018    3.0936    0.0000 C    0  0  0  0  0  0  0  0  0  0  0  0
   -2.4381    1.9747    0.0000 C    0  0  0  0  0  0  0  0  0  0  0  0
   -3.8659    2.8013    0.0000 C    0  0  0  0  0  0  0  0  0  0  0  0
    1.3193    2.3797    0.0000 C    0  0  0  0  0  0  0  0  0  0  0  0
   -3.1520    3.2146    0.0000 C    0  0  0  0  0  0  0  0  0  0  0  0
   -1.9496    0.3214    0.0000 C    0  0  0  0  0  0  0  0  0  0  0  0
    1.3193    3.8075    0.0000 C    0  0  0  0  0  0  0  0  0  0  0  0
   -3.1520    1.5614    0.0000 C    0  0  0  0  0  0  0  0  0  0  0  0
   -2.5007   -0.2923    0.0000 C    0  0  0  0  0  0  0  0  0  0  0  0
    2.1459    2.3755    0.0000 C    0  0  0  0  0  0  0  0  0  0  0  0
   -4.1540    3.9160    0.0000 O    0  0  0  0  0  0  0  0  0  0  0  0
   -5.0307    2.5133    0.0000 O    0  0  0  0  0  0  0  0  0  0  0  0
   -0.3382    3.8075    0.0000 O    0  0  0  0  0  0  0  0  0  0  0  0
   -5.2938    3.6530    0.0000 N    0  0  0  0  0  0  0  0  0  0  0  0
   -3.8659    1.9747    0.0000 C    0  0  0  0  0  0  0  0  0  0  0  0
   -1.3986    0.9351    0.0000 C    0  0  0  0  0  0  0  0  0  0  0  0
    2.5593    3.0894    0.0000 C    0  0  0  0  0  0  0  0  0  0  0  0
    0.8893    1.6616    0.0000 Cl   0  0  0  0  0  0  0  0  0  0  0  0
    2.1459    3.8033    0.0000 C    0  0  0  0  0  0  0  0  0  0  0  0
    3.3859    3.0894    0.0000 Cl   0  0  0  0  0  0  0  0  0  0  0  0
  2  1  2  0  0  0  0
  3 10  1  0  0  0  0
  4  1  1  0  0  0  0
  5  1  1  0  0  0  0
  6  2  1  0  0  0  0
  7  5  1  0  0  0  0
  7  9  2  0  0  0  0
  8  6  1  0  0  0  0
  9  4  1  0  0  0  0
 10 12  2  0  0  0  0
 10 22  1  0  0  0  0
 11  8  2  0  0  0  0
 12  7  1  0  0  0  0
 13 23  1  0  0  0  0
 14  8  1  0  0  0  0
 15  9  1  0  0  0  0
 16 13  3  0  0  0  0
 17 11  1  0  0  0  0
 18  3  2  0  0  0  0
 19  3  2  0  0  0  0
 20  6  2  0  0  0  0
 21  3  1  0  0  0  0
 22 15  2  0  0  0  0
 23  4  1  0  0  0  0
 24 26  1  0  0  0  0
 24 17  2  0  0  0  0
 25 11  1  0  0  0  0
 26 14  2  0  0  0  0
 27 24  1  0  0  0  0
M  END
> <CdId>
2324

> <Mol Weight>
440.324

> <Formula>
C17H11Cl2N3O3S2

> <Click_ID>
CLK030_H10 __ __ 

$$$$
