CLK045F08
 OpenBabel03181417552D

 20 20  0  0  0  0  0  0  0  0999 V2000
   -0.8583    1.2375    0.0000 S   0  0  0  0  0  0  0  0  0  0  0  0
    0.5708   -1.2375    0.0000 C   0  0  0  0  0  0  0  0  0  0  0  0
   -0.1458    0.8250    0.0000 C   0  0  0  0  0  0  0  0  0  0  0  0
    1.2833   -1.6500    0.0000 N   0  0  0  0  0  0  0  0  0  0  0  0
    0.5708   -0.4125    0.0000 C   0  0  0  0  0  0  0  0  0  0  0  0
   -2.2875    2.8917    0.0000 C   0  0  0  0  0  0  0  0  0  0  0  0
   -0.1458    0.0000    0.0000 C   0  0  0  0  0  0  0  0  0  0  0  0
   -3.0042    3.3000    0.0000 C   0  0  0  0  0  0  0  0  0  0  0  0
   -1.2708    0.5250    0.0000 O   0  0  0  0  0  0  0  0  0  0  0  0
   -0.4458    1.9542    0.0000 O   0  0  0  0  0  0  0  0  0  0  0  0
   -1.5750    1.6500    0.0000 N   0  0  0  0  0  0  0  0  0  0  0  0
   -0.1458   -1.6500    0.0000 O   0  0  0  0  0  0  0  0  0  0  0  0
   -1.5750    2.4750    0.0000 C   0  0  0  0  0  0  0  0  0  0  0  0
    1.2833   -2.4750    0.0000 C   0  0  3  0  0  0  0  0  0  0  0  0
    0.5708    1.2375    0.0000 C   0  0  0  0  0  0  0  0  0  0  0  0
    1.2833    0.0000    0.0000 C   0  0  0  0  0  0  0  0  0  0  0  0
    1.2833    0.8250    0.0000 C   0  0  0  0  0  0  0  0  0  0  0  0
    2.0000   -2.8875    0.0000 C   0  0  0  0  0  0  0  0  0  0  0  0
    0.5708   -2.8875    0.0000 C   0  0  0  0  0  0  0  0  0  0  0  0
    2.0000   -3.7125    0.0000 C   0  0  0  0  0  0  0  0  0  0  0  0
  2  5  1  0  0  0  0
  3  1  1  0  0  0  0
  4  2  1  0  0  0  0
  5  7  2  0  0  0  0
  6 13  1  0  0  0  0
  7  3  1  0  0  0  0
  8  6  3  0  0  0  0
  9  1  2  0  0  0  0
 10  1  2  0  0  0  0
 11  1  1  0  0  0  0
 12  2  2  0  0  0  0
 13 11  1  0  0  0  0
 14  4  1  0  0  0  0
 15  3  2  0  0  0  0
 16  5  1  0  0  0  0
 17 15  1  0  0  0  0
 17 16  2  0  0  0  0
 18 14  1  0  0  0  0
 19 14  1  0  0  0  0
 20 18  1  0  0  0  0
M  END
> <CdId>
3462

> <Mol Weight>
294.369

> <Formula>
C14H18N2O3S

> <Click_ID>
CLK045F08 __ __ 

$$$$
