CLK016_D02
 OpenBabel03181417552D

 30 32  0  0  0  0  0  0  0  0999 V2000
    1.5658   -0.8162    0.0000 N   0  0  0  0  0  0  0  0  0  0  0  0
    1.8240   -1.6033    0.0000 C   0  0  0  0  0  0  0  0  0  0  0  0
    2.9025   -0.8162    0.0000 C   0  0  0  0  0  0  0  0  0  0  0  0
    2.2362   -0.3290    0.0000 C   0  0  0  0  0  0  0  0  0  0  0  0
    2.6485   -1.6033    0.0000 S   0  0  0  0  0  0  0  0  0  0  0  0
    5.2512   -0.0542    0.0000 N   0  3  0  0  0  0  0  0  0  0  0  0
    4.6390    0.4955    0.0000 C   0  0  0  0  0  0  0  0  0  0  0  0
    3.8603    0.2457    0.0000 C   0  0  0  0  0  0  0  0  0  0  0  0
    3.6896   -0.5622    0.0000 C   0  0  0  0  0  0  0  0  0  0  0  0
    4.8139    1.2951    0.0000 C   0  0  0  0  0  0  0  0  0  0  0  0
    4.2101    1.8447    0.0000 C   0  0  0  0  0  0  0  0  0  0  0  0
    3.2523    0.7953    0.0000 C   0  0  0  0  0  0  0  0  0  0  0  0
    0.6121    0.2457    0.0000 C   0  0  0  0  0  0  0  0  0  0  0  0
    3.4230    1.5991    0.0000 C   0  0  0  0  0  0  0  0  0  0  0  0
    0.3915    1.0452    0.0000 C   0  0  0  0  0  0  0  0  0  0  0  0
    5.0846   -0.8620    0.0000 O   0  5  0  0  0  0  0  0  0  0  0  0
    1.3367   -2.2654    0.0000 O   0  0  0  0  0  0  0  0  0  0  0  0
    6.0382    0.1874    0.0000 O   0  0  0  0  0  0  0  0  0  0  0  0
    2.2279    0.4955    0.0000 O   0  0  0  0  0  0  0  0  0  0  0  0
    4.3850    2.6568    0.0000 O   0  0  0  0  0  0  0  0  0  0  0  0
    0.7870   -0.5622    0.0000 C   0  0  0  0  0  0  0  0  0  0  0  0
    5.0888    3.0857    0.0000 C   0  0  0  0  0  0  0  0  0  0  0  0
    2.8234    2.1571    0.0000 O   0  0  0  0  0  0  0  0  0  0  0  0
    5.0638    3.9186    0.0000 C   0  0  0  0  0  0  0  0  0  0  0  0
    2.0280    1.8989    0.0000 C   0  0  0  0  0  0  0  0  0  0  0  0
    5.7634    4.3517    0.0000 C   0  0  0  0  0  0  0  0  0  0  0  0
    4.3267    4.2892    0.0000 C   0  0  0  0  0  0  0  0  0  0  0  0
    5.7384    5.1637    0.0000 C   0  0  0  0  0  0  0  0  0  0  0  0
    4.3017    5.1346    0.0000 C   0  0  0  0  0  0  0  0  0  0  0  0
    5.0013    5.5718    0.0000 C   0  0  0  0  0  0  0  0  0  0  0  0
  2  1  1  0  0  0  0
  3  4  1  0  0  0  0
  3  5  1  0  0  0  0
  4  1  1  0  0  0  0
  5  2  1  0  0  0  0
  6  7  1  0  0  0  0
  7  8  2  0  0  0  0
  8  9  1  0  0  0  0
  9  3  2  0  0  0  0
 10  7  1  0  0  0  0
 10 11  2  0  0  0  0
 11 14  1  0  0  0  0
 12  8  1  0  0  0  0
 13 21  1  0  0  0  0
 14 12  2  0  0  0  0
 15 13  3  0  0  0  0
 16  6  1  0  0  0  0
 17  2  2  0  0  0  0
 18  6  2  0  0  0  0
 19  4  2  0  0  0  0
 20 11  1  0  0  0  0
 21  1  1  0  0  0  0
 22 20  1  0  0  0  0
 23 14  1  0  0  0  0
 24 22  1  0  0  0  0
 25 23  1  0  0  0  0
 26 24  2  0  0  0  0
 27 24  1  0  0  0  0
 28 26  1  0  0  0  0
 29 27  2  0  0  0  0
 30 29  1  0  0  0  0
 30 28  2  0  0  0  0
M  END
> <CdId>
1187

> <Mol Weight>
424.427

> <Formula>
C21H16N2O6S

> <Click_ID>
CLK016_D02 __ __ 

$$$$
