CLK008_F05
 OpenBabel03181417552D

 35 38  0  0  0  0  0  0  0  0999 V2000
   -1.7092   -1.8910    0.0000 C   0  0  0  0  0  0  0  0  0  0  0  0
   -2.4215   -2.3003    0.0000 N   0  0  0  0  0  0  0  0  0  0  0  0
   -1.0004   -2.3003    0.0000 N   0  0  0  0  0  0  0  0  0  0  0  0
   -1.7092   -1.0649    0.0000 N   0  0  0  0  0  0  0  0  0  0  0  0
   -3.1379   -1.8910    0.0000 C   0  0  0  0  0  0  0  0  0  0  0  0
   -2.4215   -3.1264    0.0000 C   0  0  0  0  0  0  0  0  0  0  0  0
   -0.2805   -1.8910    0.0000 C   0  0  0  0  0  0  0  0  0  0  0  0
   -1.0004   -0.6481    0.0000 C   0  0  0  0  0  0  0  0  0  0  0  0
   -3.8502   -2.3003    0.0000 C   0  0  0  0  0  0  0  0  0  0  0  0
   -3.1379   -3.5395    0.0000 C   0  0  0  0  0  0  0  0  0  0  0  0
   -0.2805   -1.0649    0.0000 N   0  0  0  0  0  0  0  0  0  0  0  0
    0.4359   -2.3003    0.0000 N   0  0  0  0  0  0  0  0  0  0  0  0
   -1.0004    0.1743    0.0000 N   0  0  0  0  0  0  0  0  0  0  0  0
   -3.8502   -3.1264    0.0000 O   0  0  0  0  0  0  0  0  0  0  0  0
    1.1482   -1.8910    0.0000 C   0  0  0  0  0  0  0  0  0  0  0  0
   -0.2842    0.5987    0.0000 N   0  0  0  0  0  0  0  0  0  0  0  0
    1.1482   -1.0649    0.0000 C   0  0  0  0  0  0  0  0  0  0  0  0
    1.8646   -2.3003    0.0000 C   0  0  0  0  0  0  0  0  0  0  0  0
   -0.2842    1.4211    0.0000 C   0  0  0  0  0  0  0  0  0  0  0  0
    1.8646   -0.6518    0.0000 C   0  0  0  0  0  0  0  0  0  0  0  0
    2.5769   -1.8910    0.0000 C   0  0  0  0  0  0  0  0  0  0  0  0
    0.4207    1.8342    0.0000 C   0  0  0  0  0  0  0  0  0  0  0  0
    2.5769   -1.0649    0.0000 C   0  0  0  0  0  0  0  0  0  0  0  0
    0.4207    2.6565    0.0000 C   0  0  0  0  0  0  0  0  0  0  0  0
    1.1331    1.4211    0.0000 C   0  0  0  0  0  0  0  0  0  0  0  0
    3.2933   -0.6631    0.0000 F   0  0  0  0  0  0  0  0  0  0  0  0
    1.1331    3.0735    0.0000 C   0  0  0  0  0  0  0  0  0  0  0  0
   -0.2956    3.0696    0.0000 O   0  0  0  0  0  0  0  0  0  0  0  0
    1.8494    1.8342    0.0000 C   0  0  0  0  0  0  0  0  0  0  0  0
    1.8494    2.6565    0.0000 C   0  0  0  0  0  0  0  0  0  0  0  0
    1.1331    3.8957    0.0000 I   0  0  0  0  0  0  0  0  0  0  0  0
   -0.2956    3.8881    0.0000 C   0  0  0  0  0  0  0  0  0  0  0  0
    2.5618    1.4211    0.0000 I   0  0  0  0  0  0  0  0  0  0  0  0
    0.4207    4.3050    0.0000 C   0  0  0  0  0  0  0  0  0  0  0  0
    1.1293    4.7181    0.0000 C   0  0  0  0  0  0  0  0  0  0  0  0
  1  2  1  0  0  0  0
  1  3  2  0  0  0  0
  1  4  1  0  0  0  0
  2  5  1  0  0  0  0
  2  6  1  0  0  0  0
  3  7  1  0  0  0  0
  4  8  2  0  0  0  0
  5  9  1  0  0  0  0
  6 10  1  0  0  0  0
  7 11  2  0  0  0  0
  7 12  1  0  0  0  0
  8 13  1  0  0  0  0
  8 11  1  0  0  0  0
  9 14  1  0  0  0  0
 10 14  1  0  0  0  0
 12 15  1  0  0  0  0
 13 16  1  0  0  0  0
 15 17  2  0  0  0  0
 15 18  1  0  0  0  0
 16 19  2  0  0  0  0
 17 20  1  0  0  0  0
 18 21  2  0  0  0  0
 19 22  1  0  0  0  0
 20 23  2  0  0  0  0
 21 23  1  0  0  0  0
 22 24  1  0  0  0  0
 22 25  2  0  0  0  0
 23 26  1  0  0  0  0
 24 27  2  0  0  0  0
 24 28  1  0  0  0  0
 25 29  1  0  0  0  0
 27 30  1  0  0  0  0
 27 31  1  0  0  0  0
 28 32  1  0  0  0  0
 29 33  1  0  0  0  0
 29 30  2  0  0  0  0
 32 34  1  0  0  0  0
 34 35  3  0  0  0  0
M  END
> <CdId>
588

> <Mol Weight>
699.2579

> <Formula>
C23H20FI2N7O2

> <Click_ID>
CLK008_F05 __ __ 

$$$$
