CLK005_F02
 OpenBabel03181417552D

 26 28  0  0  0  0  0  0  0  0999 V2000
   -0.7108    0.7587    0.0000 C   0  0  0  0  0  0  0  0  0  0  0  0
   -0.7108   -0.0615    0.0000 C   0  0  3  0  0  0  0  0  0  0  0  0
   -1.4286    1.1688    0.0000 C   0  0  0  0  0  0  0  0  0  0  0  0
    0.0034    1.1791    0.0000 C   0  0  0  0  0  0  0  0  0  0  0  0
    0.0068   -0.4785    0.0000 C   0  0  0  0  0  0  0  0  0  0  0  0
   -1.4183   -0.4717    0.0000 C   0  0  0  0  0  0  0  0  0  0  0  0
   -2.1360    0.7553    0.0000 O   0  0  0  0  0  0  0  0  0  0  0  0
   -1.4286    1.9959    0.0000 C   0  0  0  0  0  0  0  0  0  0  0  0
   -0.0034    1.9959    0.0000 C   0  0  0  0  0  0  0  0  0  0  0  0
    0.7143    0.7587    0.0000 O   0  0  0  0  0  0  0  0  0  0  0  0
    0.7143   -0.0684    0.0000 C   0  0  0  0  0  0  0  0  0  0  0  0
    0.0034   -1.2986    0.0000 C   0  0  0  0  0  0  0  0  0  0  0  0
   -2.1360   -0.0615    0.0000 C   0  0  0  0  0  0  0  0  0  0  0  0
   -1.4217   -1.2986    0.0000 C   0  0  0  0  0  0  0  0  0  0  0  0
   -0.7245    2.4094    0.0000 C   0  0  0  0  0  0  0  0  0  0  0  0
    1.4217   -0.4785    0.0000 C   0  0  0  0  0  0  0  0  0  0  0  0
    0.7108   -1.7088    0.0000 C   0  0  0  0  0  0  0  0  0  0  0  0
   -2.8469   -0.4717    0.0000 N   0  0  0  0  0  0  0  0  0  0  0  0
   -1.4183   -2.1257    0.0000 N   0  0  0  0  0  0  0  0  0  0  0  0
   -0.0034    2.8161    0.0000 C   0  0  0  0  0  0  0  0  0  0  0  0
   -1.4423    2.8161    0.0000 C   0  0  0  0  0  0  0  0  0  0  0  0
    1.4320   -1.2986    0.0000 C   0  0  0  0  0  0  0  0  0  0  0  0
    2.1394   -1.7088    0.0000 O   0  0  0  0  0  0  0  0  0  0  0  0
    2.8435   -1.2986    0.0000 C   0  0  0  0  0  0  0  0  0  0  0  0
    3.5646   -1.7054    0.0000 C   0  0  0  0  0  0  0  0  0  0  0  0
    4.2686   -2.1155    0.0000 C   0  0  0  0  0  0  0  0  0  0  0  0
  1  2  1  0  0  0  0
  1  3  2  0  0  0  0
  1  4  1  0  0  0  0
  2  5  1  0  0  0  0
  2  6  1  0  0  0  0
  3  7  1  0  0  0  0
  3  8  1  0  0  0  0
  4  9  1  0  0  0  0
  4 10  2  0  0  0  0
  5 11  1  0  0  0  0
  5 12  2  0  0  0  0
  6 13  2  0  0  0  0
  6 14  1  0  0  0  0
  7 13  1  0  0  0  0
  8 15  1  0  0  0  0
  9 15  1  0  0  0  0
 11 16  2  0  0  0  0
 12 17  1  0  0  0  0
 13 18  1  0  0  0  0
 14 19  3  0  0  0  0
 15 20  1  0  0  0  0
 15 21  1  0  0  0  0
 16 22  1  0  0  0  0
 17 22  2  0  0  0  0
 22 23  1  0  0  0  0
 23 24  1  0  0  0  0
 24 25  1  0  0  0  0
 25 26  3  0  0  0  0
M  END
> <CdId>
371

> <Mol Weight>
348.3951

> <Formula>
C21H20N2O3

> <Click_ID>
CLK005_F02 __ __ 

$$$$
