CLK018_B05
 OpenBabel03181417552D

 26 28  0  0  0  0  0  0  0  0999 V2000
    1.1571   -0.9190    0.0000 N   0  0  0  0  0  0  0  0  0  0  0  0
    1.4161   -1.7085    0.0000 C   0  0  0  0  0  0  0  0  0  0  0  0
    1.8297   -0.4303    0.0000 C   0  0  0  0  0  0  0  0  0  0  0  0
    2.4981   -0.9190    0.0000 C   0  0  0  0  0  0  0  0  0  0  0  0
    2.2432   -1.7085    0.0000 N   0  0  0  0  0  0  0  0  0  0  0  0
    0.3760   -0.6642    0.0000 C   0  0  0  0  0  0  0  0  0  0  0  0
    3.2876   -0.6642    0.0000 C   0  0  0  0  0  0  0  0  0  0  0  0
    0.2005    0.1462    0.0000 C   0  0  0  0  0  0  0  0  0  0  0  0
    4.9543    3.5674    0.0000 C   0  0  0  0  0  0  0  0  0  0  0  0
    5.1423    4.3528    0.0000 C   0  0  0  0  0  0  0  0  0  0  0  0
    0.9274   -2.3727    0.0000 O   0  0  0  0  0  0  0  0  0  0  0  0
    1.8213    0.3968    0.0000 O   0  0  0  0  0  0  0  0  0  0  0  0
   -0.5848    0.3968    0.0000 C   0  0  0  0  0  0  0  0  0  0  0  0
    3.4588    0.1336    0.0000 C   0  0  0  0  0  0  0  0  0  0  0  0
   -1.1988   -0.1546    0.0000 F   0  0  0  0  0  0  0  0  0  0  0  0
    3.8097    1.7377    0.0000 C   0  0  0  0  0  0  0  0  0  0  0  0
    4.2275    0.3843    0.0000 C   0  0  0  0  0  0  0  0  0  0  0  0
    2.8489    0.6893    0.0000 C   0  0  0  0  0  0  0  0  0  0  0  0
    3.0327    1.4871    0.0000 C   0  0  0  0  0  0  0  0  0  0  0  0
    4.4154    1.1863    0.0000 C   0  0  0  0  0  0  0  0  0  0  0  0
    4.7746    2.7779    0.0000 C   0  0  0  0  0  0  0  0  0  0  0  0
    3.9893    2.5272    0.0000 O   0  0  0  0  0  0  0  0  0  0  0  0
    0.8188    0.6976    0.0000 C   0  0  0  0  0  0  0  0  0  0  0  0
   -0.7602    1.2031    0.0000 C   0  0  0  0  0  0  0  0  0  0  0  0
    0.6433    1.5038    0.0000 C   0  0  0  0  0  0  0  0  0  0  0  0
   -0.1462    1.7628    0.0000 C   0  0  0  0  0  0  0  0  0  0  0  0
  2  1  1  0  0  0  0
  3  1  1  0  0  0  0
  4  3  1  0  0  0  0
  4  5  1  0  0  0  0
  5  2  1  0  0  0  0
  6  1  1  0  0  0  0
  7  4  2  0  0  0  0
  8  6  1  0  0  0  0
  9 21  1  0  0  0  0
 10  9  3  0  0  0  0
 11  2  2  0  0  0  0
 12  3  2  0  0  0  0
 13  8  1  0  0  0  0
 14  7  1  0  0  0  0
 15 13  1  0  0  0  0
 16 19  2  0  0  0  0
 16 20  1  0  0  0  0
 17 14  1  0  0  0  0
 18 14  2  0  0  0  0
 19 18  1  0  0  0  0
 20 17  2  0  0  0  0
 21 22  1  0  0  0  0
 22 16  1  0  0  0  0
 23  8  2  0  0  0  0
 24 13  2  0  0  0  0
 25 23  1  0  0  0  0
 26 25  2  0  0  0  0
 26 24  1  0  0  0  0
M  END
> <CdId>
1330

> <Mol Weight>
350.3431

> <Formula>
C20H15FN2O3

> <Click_ID>
CLK018_B05 __ __ 

$$$$
