CLK014_F09
 OpenBabel03181417552D

 26 29  0  0  0  0  0  0  0  0999 V2000
    1.8578    0.7938    0.0000 C   0  0  0  0  0  0  0  0  0  0  0  0
    0.5279    0.7938    0.0000 N   0  0  0  0  0  0  0  0  0  0  0  0
    1.1887    1.2718    0.0000 C   0  0  0  0  0  0  0  0  0  0  0  0
    0.7772    0.0083    0.0000 N   0  0  0  0  0  0  0  0  0  0  0  0
    2.8179    1.8536    0.0000 C   0  0  0  0  0  0  0  0  0  0  0  0
    2.6433    1.0432    0.0000 C   0  0  0  0  0  0  0  0  0  0  0  0
    1.6002    0.0083    0.0000 C   0  0  0  0  0  0  0  0  0  0  0  0
    2.6849    3.1878    0.0000 N   0  0  0  0  0  0  0  0  0  0  0  0
    2.2693    2.4770    0.0000 C   0  0  0  0  0  0  0  0  0  0  0  0
    3.5785    2.1903    0.0000 C   0  0  0  0  0  0  0  0  0  0  0  0
    3.4954    3.0132    0.0000 C   0  0  0  0  0  0  0  0  0  0  0  0
    2.8470    4.6051    0.0000 C   0  0  0  0  0  0  0  0  0  0  0  0
    3.3790    5.2368    0.0000 C   0  0  0  0  0  0  0  0  0  0  0  0
   -0.2576    1.0432    0.0000 C   0  0  0  0  0  0  0  0  0  0  0  0
    1.1887    2.0947    0.0000 O   0  0  0  0  0  0  0  0  0  0  0  0
    2.3566    3.9483    0.0000 C   0  0  0  0  0  0  0  0  0  0  0  0
    2.0864   -0.6608    0.0000 C   0  0  0  0  0  0  0  0  0  0  0  0
    4.1645    3.4912    0.0000 C   0  0  0  0  0  0  0  0  0  0  0  0
    4.3308    1.8412    0.0000 C   0  0  0  0  0  0  0  0  0  0  0  0
   -0.4239    1.8536    0.0000 C   0  0  0  0  0  0  0  0  0  0  0  0
   -0.8686    0.4946    0.0000 C   0  0  0  0  0  0  0  0  0  0  0  0
    4.9916    2.3274    0.0000 C   0  0  0  0  0  0  0  0  0  0  0  0
    4.9126    3.1503    0.0000 C   0  0  0  0  0  0  0  0  0  0  0  0
   -1.2053    2.1030    0.0000 C   0  0  0  0  0  0  0  0  0  0  0  0
   -1.6541    0.7564    0.0000 C   0  0  0  0  0  0  0  0  0  0  0  0
   -1.8162    1.5586    0.0000 C   0  0  0  0  0  0  0  0  0  0  0  0
  2  3  1  0  0  0  0
  2  4  1  0  0  0  0
  3  1  1  0  0  0  0
  4  7  2  0  0  0  0
  5  6  1  0  0  0  0
  6  1  2  0  0  0  0
  7  1  1  0  0  0  0
  8  9  1  0  0  0  0
  8 11  1  0  0  0  0
  9  5  2  0  0  0  0
 10  5  1  0  0  0  0
 11 10  1  0  0  0  0
 12 16  1  0  0  0  0
 13 12  3  0  0  0  0
 14  2  1  0  0  0  0
 15  3  2  0  0  0  0
 16  8  1  0  0  0  0
 17  7  1  0  0  0  0
 18 11  2  0  0  0  0
 18 23  1  0  0  0  0
 19 10  2  0  0  0  0
 20 14  2  0  0  0  0
 21 14  1  0  0  0  0
 22 19  1  0  0  0  0
 23 22  2  0  0  0  0
 24 20  1  0  0  0  0
 25 21  2  0  0  0  0
 26 25  1  0  0  0  0
 26 24  2  0  0  0  0
M  END
> <CdId>
1054

> <Mol Weight>
339.3899

> <Formula>
C22H17N3O

> <Click_ID>
CLK014_F09 __ __ 

$$$$
