CLK035_B07
 OpenBabel03181417552D

 27 29  0  0  0  0  0  0  0  0999 V2000
   -4.5967    2.5588    0.0000 C    0  0  0  0  0  0  0  0  0  0  0  0
   -3.8632    2.9839    0.0000 N    0  0  0  0  0  0  0  0  0  0  0  0
   -4.6842    1.7336    0.0000 N    0  0  0  0  0  0  0  0  0  0  0  0
   -5.3218    2.8963    0.0000 S    0  0  0  0  0  0  0  0  0  0  0  0
   -3.8715    3.8007    0.0000 C    0  0  0  0  0  0  0  0  0  0  0  0
   -3.1589    4.2133    0.0000 C    0  0  0  0  0  0  0  0  0  0  0  0
   -5.4885    1.5836    0.0000 C    0  0  0  0  0  0  0  0  0  0  0  0
   -1.0002    3.8090    0.0000 N    0  0  0  0  0  0  0  0  0  0  0  0
   -5.8969    2.3004    0.0000 C    0  0  0  0  0  0  0  0  0  0  0  0
   -2.4338    3.8007    0.0000 C    0  0  0  0  0  0  0  0  0  0  0  0
   -1.7253    4.2133    0.0000 C    0  0  0  0  0  0  0  0  0  0  0  0
   -4.2591    0.3584    0.0000 C    0  0  0  0  0  0  0  0  0  0  0  0
   -4.4466   -0.4543    0.0000 C    0  0  0  0  0  0  0  0  0  0  0  0
   -3.1589    5.0302    0.0000 C    0  0  0  0  0  0  0  0  0  0  0  0
   -0.9960    2.9839    0.0000 O    0  0  0  0  0  0  0  0  0  0  0  0
   -0.2834    4.2175    0.0000 O    0  0  0  0  0  0  0  0  0  0  0  0
   -4.5842    4.2175    0.0000 O    0  0  0  0  0  0  0  0  0  0  0  0
   -5.9219    0.8835    0.0000 C    0  0  0  0  0  0  0  0  0  0  0  0
   -1.7253    5.0302    0.0000 C    0  0  0  0  0  0  0  0  0  0  0  0
   -4.0716    1.1627    0.0000 C    0  0  0  0  0  0  0  0  0  0  0  0
   -2.4338    5.4510    0.0000 C    0  0  0  0  0  0  0  0  0  0  0  0
   -3.8715    5.4427    0.0000 Cl   0  0  0  0  0  0  0  0  0  0  0  0
   -6.7055    2.3212    0.0000 C    0  0  0  0  0  0  0  0  0  0  0  0
   -5.5218    0.1458    0.0000 O    0  0  0  0  0  0  0  0  0  0  0  0
   -7.1430    1.6211    0.0000 C    0  0  0  0  0  0  0  0  0  0  0  0
   -6.7305    0.8877    0.0000 C    0  0  0  0  0  0  0  0  0  0  0  0
   -5.9594   -0.5543    0.0000 C    0  0  0  0  0  0  0  0  0  0  0  0
  2  1  2  0  0  0  0
  3  1  1  0  0  0  0
  4  1  1  0  0  0  0
  5  2  1  0  0  0  0
  6  5  1  0  0  0  0
  7  3  1  0  0  0  0
  8 11  1  0  0  0  0
  9  4  1  0  0  0  0
  9  7  2  0  0  0  0
 10  6  2  0  0  0  0
 11 10  1  0  0  0  0
 12 20  1  0  0  0  0
 13 12  3  0  0  0  0
 14  6  1  0  0  0  0
 15  8  1  0  0  0  0
 16  8  2  0  0  0  0
 17  5  2  0  0  0  0
 18  7  1  0  0  0  0
 19 21  1  0  0  0  0
 19 11  2  0  0  0  0
 20  3  1  0  0  0  0
 21 14  2  0  0  0  0
 22 14  1  0  0  0  0
 23  9  1  0  0  0  0
 24 18  1  0  0  0  0
 25 23  2  0  0  0  0
 26 18  2  0  0  0  0
 26 25  1  0  0  0  0
 27 24  1  0  0  0  0
M  END
> <CdId>
2661

> <Mol Weight>
401.824

> <Formula>
C18H12ClN3O4S

> <Click_ID>
CLK035_B07 __ __ 

$$$$
