CLK017_F09
 OpenBabel03181417552D

 22 23  0  0  0  0  0  0  0  0999 V2000
    5.7067   -2.6090    0.0000 N   0  0  0  0  0  0  0  0  0  0  0  0
    5.2967   -3.3171    0.0000 C   0  0  0  0  0  0  0  0  0  0  0  0
    4.4022   -2.3232    0.0000 C   0  0  0  0  0  0  0  0  0  0  0  0
    5.1600   -1.9920    0.0000 C   0  0  0  0  0  0  0  0  0  0  0  0
    4.4892   -3.1432    0.0000 S   0  0  0  0  0  0  0  0  0  0  0  0
    3.6899   -1.9050    0.0000 C   0  0  0  0  0  0  0  0  0  0  0  0
    2.9735   -2.3232    0.0000 C   0  0  0  0  0  0  0  0  0  0  0  0
    7.0070   -3.1847    0.0000 C   0  0  0  0  0  0  0  0  0  0  0  0
    2.9735   -3.1474    0.0000 C   0  0  0  0  0  0  0  0  0  0  0  0
    2.2529   -1.9050    0.0000 C   0  0  0  0  0  0  0  0  0  0  0  0
    2.2611   -3.5574    0.0000 C   0  0  0  0  0  0  0  0  0  0  0  0
    1.5447   -3.1474    0.0000 C   0  0  0  0  0  0  0  0  0  0  0  0
    7.4087   -3.9052    0.0000 C   0  0  0  0  0  0  0  0  0  0  0  0
    1.5447   -2.3150    0.0000 C   0  0  0  0  0  0  0  0  0  0  0  0
    5.6197   -4.0750    0.0000 O   0  0  0  0  0  0  0  0  0  0  0  0
    5.3340   -1.1844    0.0000 O   0  0  0  0  0  0  0  0  0  0  0  0
    6.5267   -2.5262    0.0000 C   0  0  0  0  0  0  0  0  0  0  0  0
    0.8366   -3.5574    0.0000 O   0  0  0  0  0  0  0  0  0  0  0  0
    2.2611   -4.3773    0.0000 O   0  0  0  0  0  0  0  0  0  0  0  0
    2.2529   -1.0850    0.0000 C   0  0  0  0  0  0  0  0  0  0  0  0
    1.5530   -4.7873    0.0000 C   0  0  0  0  0  0  0  0  0  0  0  0
    0.8366   -4.3773    0.0000 C   0  0  0  0  0  0  0  0  0  0  0  0
  2  1  1  0  0  0  0
  3  4  1  0  0  0  0
  4  1  1  0  0  0  0
  5  2  1  0  0  0  0
  5  3  1  0  0  0  0
  6  3  2  0  0  0  0
  7  6  1  0  0  0  0
  8 17  1  0  0  0  0
  9  7  1  0  0  0  0
 10  7  2  0  0  0  0
 11  9  2  0  0  0  0
 11 12  1  0  0  0  0
 12 14  2  0  0  0  0
 13  8  3  0  0  0  0
 14 10  1  0  0  0  0
 15  2  2  0  0  0  0
 16  4  2  0  0  0  0
 17  1  1  0  0  0  0
 18 12  1  0  0  0  0
 19 11  1  0  0  0  0
 20 10  1  0  0  0  0
 21 19  1  0  0  0  0
 22 18  1  0  0  0  0
M  END
> <CdId>
1294

> <Mol Weight>
317.36

> <Formula>
C16H15NO4S

> <Click_ID>
CLK017_F09 __ __ 

$$$$
