CLK049C11
 OpenBabel03181417552D

 20 21  0  0  0  0  0  0  0  0999 V2000
    0.6000   -1.3708    0.0000 N   0  0  0  0  0  0  0  0  0  0  0  0
   -0.1542   -1.0417    0.0000 C   0  0  0  0  0  0  0  0  0  0  0  0
   -2.2792    2.7625    0.0000 C   0  0  0  0  0  0  0  0  0  0  0  0
   -2.9917    3.1750    0.0000 C   0  0  0  0  0  0  0  0  0  0  0  0
   -0.1542   -0.2167    0.0000 C   0  0  0  0  0  0  0  0  0  0  0  0
   -0.7875    0.3083    0.0000 N   0  0  0  0  0  0  0  0  0  0  0  0
   -0.9000   -1.4000    0.0000 O   0  0  0  0  0  0  0  0  0  0  0  0
   -1.5542    2.3708    0.0000 C   0  0  0  0  0  0  0  0  0  0  0  0
   -0.8458    1.1333    0.0000 C   0  0  0  0  0  0  0  0  0  0  0  0
   -1.5583    1.5458    0.0000 C   0  0  0  0  0  0  0  0  0  0  0  0
    0.4917   -2.1875    0.0000 C   0  0  0  0  0  0  0  0  0  0  0  0
    1.2542   -0.8708    0.0000 C   0  0  0  0  0  0  0  0  0  0  0  0
   -0.1250    2.3667    0.0000 C   0  0  0  0  0  0  0  0  0  0  0  0
   -0.8375    2.7833    0.0000 C   0  0  0  0  0  0  0  0  0  0  0  0
   -0.1292    1.5417    0.0000 C   0  0  0  0  0  0  0  0  0  0  0  0
    2.0750   -0.9792    0.0000 C   0  0  0  0  0  0  0  0  0  0  0  0
    0.9917   -2.8458    0.0000 C   0  0  0  0  0  0  0  0  0  0  0  0
    2.5750   -1.6333    0.0000 C   0  0  0  0  0  0  0  0  0  0  0  0
    1.8125   -2.9542    0.0000 C   0  0  0  0  0  0  0  0  0  0  0  0
    2.4667   -2.4500    0.0000 C   0  0  0  0  0  0  0  0  0  0  0  0
  2  1  1  0  0  0  0
  3  8  1  0  0  0  0
  4  3  3  0  0  0  0
  5  2  1  0  0  0  0
  6  5  1  0  0  0  0
  7  2  2  0  0  0  0
  8 10  1  0  0  0  0
  9  6  1  0  0  0  0
 10  9  2  0  0  0  0
 11  1  1  0  0  0  0
 12  1  1  0  0  0  0
 13 15  2  0  0  0  0
 14  8  2  0  0  0  0
 14 13  1  0  0  0  0
 15  9  1  0  0  0  0
 16 12  1  0  0  0  0
 17 11  1  0  0  0  0
 18 16  1  0  0  0  0
 19 17  1  0  0  0  0
 20 18  1  0  0  0  0
 20 19  1  0  0  0  0
M  END
> <CdId>
3803

> <Mol Weight>
270.3694

> <Formula>
C17H22N2O

> <Click_ID>
CLK049C11 __ __ 

$$$$
