CLK051F07
 OpenBabel03181417552D

 18 18  0  0  0  0  0  0  0  0999 V2000
    0.3542    1.6750    0.0000 C   0  0  0  0  0  0  0  0  0  0  0  0
    1.7833    3.3250    0.0000 C   0  0  0  0  0  0  0  0  0  0  0  0
    2.5000    3.7375    0.0000 C   0  0  0  0  0  0  0  0  0  0  0  0
   -1.0750   -1.6250    0.0000 C   0  0  0  0  0  0  0  0  0  0  0  0
    0.3542    0.8500    0.0000 N   0  0  0  0  0  0  0  0  0  0  0  0
   -0.3583   -2.0375    0.0000 C   0  0  0  0  0  0  0  0  0  0  0  0
   -0.3583    2.0875    0.0000 O   0  0  0  0  0  0  0  0  0  0  0  0
   -1.0750   -0.8000    0.0000 C   0  0  0  0  0  0  0  0  0  0  0  0
    1.0708    2.0875    0.0000 N   0  0  0  0  0  0  0  0  0  0  0  0
    0.3542   -1.6250    0.0000 C   0  0  0  0  0  0  0  0  0  0  0  0
   -0.3583   -0.3875    0.0000 C   0  0  0  0  0  0  0  0  0  0  0  0
   -0.3583    0.4375    0.0000 C   0  0  0  0  0  0  0  0  0  0  0  0
    0.3542   -0.8000    0.0000 C   0  0  0  0  0  0  0  0  0  0  0  0
   -1.7875   -2.0375    0.0000 O   0  0  0  0  0  0  0  0  0  0  0  0
    1.0708    2.9125    0.0000 C   0  0  0  0  0  0  0  0  0  0  0  0
   -0.3583   -2.8625    0.0000 O   0  0  0  0  0  0  0  0  0  0  0  0
   -2.5042   -1.6250    0.0000 C   0  0  0  0  0  0  0  0  0  0  0  0
    0.3542   -3.2750    0.0000 C   0  0  0  0  0  0  0  0  0  0  0  0
  2 15  1  0  0  0  0
  3  2  3  0  0  0  0
  4  8  1  0  0  0  0
  5  1  1  0  0  0  0
  6  4  2  0  0  0  0
  7  1  2  0  0  0  0
  8 11  2  0  0  0  0
  9  1  1  0  0  0  0
 10 13  2  0  0  0  0
 10  6  1  0  0  0  0
 11 12  1  0  0  0  0
 12  5  1  0  0  0  0
 13 11  1  0  0  0  0
 14  4  1  0  0  0  0
 15  9  1  0  0  0  0
 16  6  1  0  0  0  0
 17 14  1  0  0  0  0
 18 16  1  0  0  0  0
M  END
> <CdId>
3934

> <Mol Weight>
248.2777

> <Formula>
C13H16N2O3

> <Click_ID>
CLK051F07 __ __ 

$$$$
