CLK042F03
 OpenBabel03181417552D

 22 24  0  0  0  0  0  0  0  0999 V2000
   -0.6125   -0.2667    0.0000 C   0  0  0  0  0  0  0  0  0  0  0  0
   -1.1000    0.4000    0.0000 N   0  0  0  0  0  0  0  0  0  0  0  0
   -1.1000   -0.9375    0.0000 N   0  0  0  0  0  0  0  0  0  0  0  0
   -1.8833   -0.6792    0.0000 C   0  0  0  0  0  0  0  0  0  0  0  0
   -1.8833    0.1458    0.0000 C   0  0  0  0  0  0  0  0  0  0  0  0
    2.6875    1.1625    0.0000 C   0  0  0  0  0  0  0  0  0  0  0  0
    1.8625    1.1625    0.0000 C   0  0  0  0  0  0  0  0  0  0  0  0
   -1.3958   -2.3333    0.0000 C   0  0  0  0  0  0  0  0  0  0  0  0
   -1.9458   -2.9458    0.0000 C   0  0  0  0  0  0  0  0  0  0  0  0
    0.2125   -0.2667    0.0000 C   0  0  0  0  0  0  0  0  0  0  0  0
    3.1708    1.8292    0.0000 O   0  0  0  0  0  0  0  0  0  0  0  0
    3.1708    0.4917    0.0000 C   0  0  0  0  0  0  0  0  0  0  0  0
    1.4500    1.8750    0.0000 O   0  0  0  0  0  0  0  0  0  0  0  0
    3.9542    1.5750    0.0000 C   0  0  0  0  0  0  0  0  0  0  0  0
   -0.8417   -1.7208    0.0000 C   0  0  0  0  0  0  0  0  0  0  0  0
    3.9542    0.7500    0.0000 C   0  0  0  0  0  0  0  0  0  0  0  0
    1.4500    0.4458    0.0000 N   0  0  0  0  0  0  0  0  0  0  0  0
    0.6250    0.4458    0.0000 C   0  0  0  0  0  0  0  0  0  0  0  0
   -2.5958   -1.0917    0.0000 C   0  0  0  0  0  0  0  0  0  0  0  0
   -2.5958    0.5583    0.0000 C   0  0  0  0  0  0  0  0  0  0  0  0
   -3.3125   -0.6792    0.0000 C   0  0  0  0  0  0  0  0  0  0  0  0
   -3.3125    0.1458    0.0000 C   0  0  0  0  0  0  0  0  0  0  0  0
  2  1  2  0  0  0  0
  3  1  1  0  0  0  0
  4  3  1  0  0  0  0
  4  5  2  0  0  0  0
  5  2  1  0  0  0  0
  6  7  1  0  0  0  0
  7 17  1  0  0  0  0
  8 15  1  0  0  0  0
  9  8  3  0  0  0  0
 10  1  1  0  0  0  0
 11  6  1  0  0  0  0
 12  6  2  0  0  0  0
 13  7  2  0  0  0  0
 14 11  1  0  0  0  0
 14 16  2  0  0  0  0
 15  3  1  0  0  0  0
 16 12  1  0  0  0  0
 17 18  1  0  0  0  0
 18 10  1  0  0  0  0
 19  4  1  0  0  0  0
 20  5  1  0  0  0  0
 21 19  2  0  0  0  0
 21 22  1  0  0  0  0
 22 20  2  0  0  0  0
M  END
> <CdId>
3182

> <Mol Weight>
293.3199

> <Formula>
C17H15N3O2

> <Click_ID>
CLK042F03 __ __ 

$$$$
