CLK023_D08
 OpenBabel03181417552D

 28 30  0  0  0  0  0  0  0  0999 V2000
   -2.7720   -2.2875    0.0000 N   0  0  0  0  0  0  0  0  0  0  0  0
   -2.5228   -3.0799    0.0000 C   0  0  0  0  0  0  0  0  0  0  0  0
   -1.4570   -2.3152    0.0000 C   0  0  0  0  0  0  0  0  0  0  0  0
   -2.1006   -1.8030    0.0000 C   0  0  0  0  0  0  0  0  0  0  0  0
   -0.2076    0.0899    0.0000 N   0  0  0  0  0  0  0  0  0  0  0  0
   -0.5675   -1.2008    0.0000 C   0  0  0  0  0  0  0  0  0  0  0  0
   -1.6854   -3.0799    0.0000 S   0  0  0  0  0  0  0  0  0  0  0  0
   -1.0313    0.0554    0.0000 C   0  0  0  0  0  0  0  0  0  0  0  0
    0.2041   -0.6229    0.0000 C   0  0  0  0  0  0  0  0  0  0  0  0
   -0.6852   -2.0106    0.0000 C   0  0  0  0  0  0  0  0  0  0  0  0
   -1.2562   -0.7371    0.0000 C   0  0  0  0  0  0  0  0  0  0  0  0
    0.2041    0.8133    0.0000 C   0  0  0  0  0  0  0  0  0  0  0  0
   -3.4952   -1.0486    0.0000 C   0  0  0  0  0  0  0  0  0  0  0  0
   -3.4952   -0.2215    0.0000 C   0  0  0  0  0  0  0  0  0  0  0  0
   -3.1146   -3.6683    0.0000 O   0  0  0  0  0  0  0  0  0  0  0  0
   -1.9760   -0.9759    0.0000 O   0  0  0  0  0  0  0  0  0  0  0  0
   -3.4952   -1.8722    0.0000 C   0  0  0  0  0  0  0  0  0  0  0  0
    1.0313    0.8133    0.0000 C   0  0  0  0  0  0  0  0  0  0  0  0
   -0.2111    1.5261    0.0000 C   0  0  0  0  0  0  0  0  0  0  0  0
   -1.4500    0.7752    0.0000 C   0  0  0  0  0  0  0  0  0  0  0  0
    1.0278   -0.6229    0.0000 C   0  0  0  0  0  0  0  0  0  0  0  0
    0.2041    2.2390    0.0000 C   0  0  0  0  0  0  0  0  0  0  0  0
    1.4466    1.5261    0.0000 C   0  0  0  0  0  0  0  0  0  0  0  0
    1.0313    2.2390    0.0000 C   0  0  0  0  0  0  0  0  0  0  0  0
    1.4431    2.9553    0.0000 C   0  0  0  0  0  0  0  0  0  0  0  0
    2.2598    2.9553    0.0000 C   0  0  0  0  0  0  0  0  0  0  0  0
    2.6716    3.6683    0.0000 C   0  0  0  0  0  0  0  0  0  0  0  0
    3.4918    3.6683    0.0000 C   0  0  0  0  0  0  0  0  0  0  0  0
  2  1  1  0  0  0  0
  3  4  1  0  0  0  0
  3  7  1  0  0  0  0
  4  1  1  0  0  0  0
  5  9  1  0  0  0  0
  6 10  1  0  0  0  0
  7  2  1  0  0  0  0
  8 11  2  0  0  0  0
  8  5  1  0  0  0  0
  9  6  2  0  0  0  0
 10  3  2  0  0  0  0
 11  6  1  0  0  0  0
 12  5  1  0  0  0  0
 13 17  1  0  0  0  0
 14 13  3  0  0  0  0
 15  2  2  0  0  0  0
 16  4  2  0  0  0  0
 17  1  1  0  0  0  0
 18 12  2  0  0  0  0
 19 12  1  0  0  0  0
 20  8  1  0  0  0  0
 21  9  1  0  0  0  0
 22 19  2  0  0  0  0
 23 18  1  0  0  0  0
 24 22  1  0  0  0  0
 24 23  2  0  0  0  0
 25 24  1  0  0  0  0
 26 25  1  0  0  0  0
 27 26  1  0  0  0  0
 28 27  1  0  0  0  0
M  END
> <CdId>
1733

> <Mol Weight>
392.514

> <Formula>
C23H24N2O2S

> <Click_ID>
CLK023_D08 __ __ 

$$$$
