CLK039A06
 OpenBabel03181417552D

 16 16  0  0  0  0  0  0  0  0999 V2000
    0.4458   -0.9250    0.0000 C    0  0  0  0  0  0  0  0  0  0  0  0
   -1.7000    2.7875    0.0000 C    0  0  0  0  0  0  0  0  0  0  0  0
   -1.7000    3.6125    0.0000 C    0  0  0  0  0  0  0  0  0  0  0  0
    0.4458   -1.7500    0.0000 C    0  0  0  0  0  0  0  0  0  0  0  0
   -0.9833    0.7250    0.0000 C    0  0  0  0  0  0  0  0  0  0  0  0
   -0.2708   -0.5125    0.0000 O    0  0  0  0  0  0  0  0  0  0  0  0
    1.1583   -0.5125    0.0000 C    0  0  0  0  0  0  0  0  0  0  0  0
   -1.7000    0.3125    0.0000 O    0  0  0  0  0  0  0  0  0  0  0  0
    1.8750   -0.9250    0.0000 C    0  0  0  0  0  0  0  0  0  0  0  0
    1.1583   -2.1625    0.0000 C    0  0  0  0  0  0  0  0  0  0  0  0
   -0.2708    0.3125    0.0000 C    0  0  0  0  0  0  0  0  0  0  0  0
   -0.9833    1.5500    0.0000 N    0  0  0  0  0  0  0  0  0  0  0  0
    1.1583    0.3125    0.0000 Cl   0  0  0  0  0  0  0  0  0  0  0  0
    1.8750   -1.7500    0.0000 C    0  0  0  0  0  0  0  0  0  0  0  0
    1.1583   -2.9875    0.0000 Cl   0  0  0  0  0  0  0  0  0  0  0  0
   -1.7000    1.9625    0.0000 C    0  0  0  0  0  0  0  0  0  0  0  0
  2 16  1  0  0  0  0
  3  2  3  0  0  0  0
  4  1  1  0  0  0  0
  5 11  1  0  0  0  0
  6  1  1  0  0  0  0
  7  1  2  0  0  0  0
  8  5  2  0  0  0  0
  9  7  1  0  0  0  0
  9 14  2  0  0  0  0
 10  4  2  0  0  0  0
 11  6  1  0  0  0  0
 12  5  1  0  0  0  0
 13  7  1  0  0  0  0
 14 10  1  0  0  0  0
 15 10  1  0  0  0  0
 16 12  1  0  0  0  0
M  END
> <CdId>
2961

> <Mol Weight>
258.101

> <Formula>
C11H9Cl2NO2

> <Click_ID>
CLK039A06 __ __ 

$$$$
