CLK009_H03
 OpenBabel03181417552D

 19 19  0  0  0  0  0  0  0  0999 V2000
    5.8395    0.0972    0.0000 C   0  0  0  0  0  0  0  0  0  0  0  0
    6.5602    0.5433    0.0000 C   0  0  0  0  0  0  0  0  0  0  0  0
    1.5614    0.0972    0.0000 C   0  0  0  0  0  0  0  0  0  0  0  0
    3.7062   -0.3146    0.0000 C   0  0  0  0  0  0  0  0  0  0  0  0
    1.5614    0.9208    0.0000 O   0  0  0  0  0  0  0  0  0  0  0  0
    3.7062   -1.1382    0.0000 O   0  0  0  0  0  0  0  0  0  0  0  0
    0.8465   -0.3146    0.0000 N   0  0  0  0  0  0  0  0  0  0  0  0
    2.2706   -0.3146    0.0000 C   0  0  0  0  0  0  0  0  0  0  0  0
    2.9913    0.0972    0.0000 C   0  0  0  0  0  0  0  0  0  0  0  0
    4.4154    0.0972    0.0000 O   0  0  0  0  0  0  0  0  0  0  0  0
    0.1373    0.0972    0.0000 C   0  0  0  0  0  0  0  0  0  0  0  0
    5.1303   -0.3146    0.0000 C   0  0  0  0  0  0  0  0  0  0  0  0
   -1.3497    0.0972    0.0000 C   0  0  0  0  0  0  0  0  0  0  0  0
   -0.6119   -0.3432    0.0000 C   0  0  0  0  0  0  0  0  0  0  0  0
   -2.0590   -0.3146    0.0000 C   0  0  0  0  0  0  0  0  0  0  0  0
   -1.3497    0.9551    0.0000 C   0  0  0  0  0  0  0  0  0  0  0  0
   -2.0590    1.3669    0.0000 C   0  0  0  0  0  0  0  0  0  0  0  0
   -2.7739    0.0972    0.0000 C   0  0  0  0  0  0  0  0  0  0  0  0
   -2.7739    0.9551    0.0000 C   0  0  0  0  0  0  0  0  0  0  0  0
  2  1  3  0  0  0  0
  3  8  1  0  0  0  0
  4 10  1  0  0  0  0
  5  3  2  0  0  0  0
  6  4  2  0  0  0  0
  7  3  1  0  0  0  0
  8  9  1  0  0  0  0
  9  4  1  0  0  0  0
 10 12  1  0  0  0  0
 11  7  1  0  0  0  0
 12  1  1  0  0  0  0
 13 14  1  0  0  0  0
 14 11  1  0  0  0  0
 15 13  2  0  0  0  0
 16 13  1  0  0  0  0
 17 16  2  0  0  0  0
 18 15  1  0  0  0  0
 18 19  2  0  0  0  0
 19 17  1  0  0  0  0
M  END
> <CdId>
668

> <Mol Weight>
259.3004

> <Formula>
C15H17NO3

> <Click_ID>
CLK009_H03 __ __ 

$$$$
