CLK026_G03
 OpenBabel03181417552D

 29 31  0  0  0  0  0  0  0  0999 V2000
    3.1694    0.7012    0.0000 N   0  0  0  0  0  0  0  0  0  0  0  0
    3.9188    0.3541    0.0000 C   0  0  0  0  0  0  0  0  0  0  0  0
    2.6159    0.0790    0.0000 C   0  0  0  0  0  0  0  0  0  0  0  0
    3.0284   -0.6359    0.0000 C   0  0  0  0  0  0  0  0  0  0  0  0
    3.8294   -0.4606    0.0000 S   0  0  0  0  0  0  0  0  0  0  0  0
   -3.2175   -0.3472    0.0000 C   0  0  0  0  0  0  0  0  0  0  0  0
   -2.4818   -0.0206    0.0000 O   0  0  0  0  0  0  0  0  0  0  0  0
    2.6159   -1.3475    0.0000 C   0  0  0  0  0  0  0  0  0  0  0  0
   -3.9291    0.0757    0.0000 C   0  0  0  0  0  0  0  0  0  0  0  0
   -3.1418   -1.1722    0.0000 C   0  0  0  0  0  0  0  0  0  0  0  0
   -1.9216   -0.6359    0.0000 C   0  0  0  0  0  0  0  0  0  0  0  0
    2.2447    1.7841    0.0000 C   0  0  0  0  0  0  0  0  0  0  0  0
    1.4678    2.0590    0.0000 C   0  0  0  0  0  0  0  0  0  0  0  0
   -2.3341   -1.3475    0.0000 C   0  0  0  0  0  0  0  0  0  0  0  0
    4.6406    0.7666    0.0000 O   0  0  0  0  0  0  0  0  0  0  0  0
    0.5500   -0.6359    0.0000 C   0  0  0  0  0  0  0  0  0  0  0  0
    1.7909    0.1650    0.0000 O   0  0  0  0  0  0  0  0  0  0  0  0
    0.1375   -1.3475    0.0000 C   0  0  0  0  0  0  0  0  0  0  0  0
    1.7909   -1.3475    0.0000 C   0  0  0  0  0  0  0  0  0  0  0  0
    3.0181    1.5125    0.0000 C   0  0  0  0  0  0  0  0  0  0  0  0
    1.3819   -0.6359    0.0000 C   0  0  0  0  0  0  0  0  0  0  0  0
   -0.6841   -1.3475    0.0000 O   0  0  0  0  0  0  0  0  0  0  0  0
   -4.6441   -0.3368    0.0000 O   0  0  0  0  0  0  0  0  0  0  0  0
    0.5500   -2.0557    0.0000 C   0  0  0  0  0  0  0  0  0  0  0  0
   -1.0966   -0.6359    0.0000 C   0  0  0  0  0  0  0  0  0  0  0  0
   -3.9153    0.9007    0.0000 O   0  0  0  0  0  0  0  0  0  0  0  0
    1.3819   -2.0557    0.0000 C   0  0  0  0  0  0  0  0  0  0  0  0
    0.1237    0.0893    0.0000 O   0  0  0  0  0  0  0  0  0  0  0  0
   -0.7012    0.0757    0.0000 C   0  0  0  0  0  0  0  0  0  0  0  0
  2  1  1  0  0  0  0
  3  1  1  0  0  0  0
  4  3  1  0  0  0  0
  4  5  1  0  0  0  0
  5  2  1  0  0  0  0
  6  7  1  0  0  0  0
  6 10  2  0  0  0  0
  7 11  1  0  0  0  0
  8  4  2  0  0  0  0
  9  6  1  0  0  0  0
 10 14  1  0  0  0  0
 11 25  1  0  0  0  0
 12 20  1  0  0  0  0
 13 12  3  0  0  0  0
 14 11  2  0  0  0  0
 15  2  2  0  0  0  0
 16 21  2  0  0  0  0
 16 18  1  0  0  0  0
 17  3  2  0  0  0  0
 18 24  2  0  0  0  0
 19  8  1  0  0  0  0
 20  1  1  0  0  0  0
 21 19  1  0  0  0  0
 22 18  1  0  0  0  0
 23  9  2  0  0  0  0
 24 27  1  0  0  0  0
 25 22  1  0  0  0  0
 26  9  1  0  0  0  0
 27 19  2  0  0  0  0
 28 16  1  0  0  0  0
 29 28  1  0  0  0  0
M  END
> <CdId>
1998

> <Mol Weight>
413.401

> <Formula>
C20H15NO7S

> <Click_ID>
CLK026_G03 __ __ 

$$$$
