CLK039A03
 OpenBabel03181417552D

 18 19  0  0  0  0  0  0  0  0999 V2000
   -0.9627   -0.4293    0.0000 C   0  0  0  0  0  0  0  0  0  0  0  0
   -0.1792   -1.5087    0.0000 C   0  0  0  0  0  0  0  0  0  0  0  0
   -0.1792   -0.6835    0.0000 C   0  0  0  0  0  0  0  0  0  0  0  0
   -0.9627   -1.7629    0.0000 O   0  0  0  0  0  0  0  0  0  0  0  0
   -1.4462   -1.0961    0.0000 C   0  0  0  0  0  0  0  0  0  0  0  0
   -0.6252    3.1508    0.0000 C   0  0  0  0  0  0  0  0  0  0  0  0
    0.5376   -1.9213    0.0000 C   0  0  0  0  0  0  0  0  0  0  0  0
   -0.8794    3.9385    0.0000 C   0  0  0  0  0  0  0  0  0  0  0  0
   -1.2170    0.3543    0.0000 C   0  0  0  0  0  0  0  0  0  0  0  0
   -0.6669    0.9710    0.0000 C   0  0  0  0  0  0  0  0  0  0  0  0
    0.5376   -0.2709    0.0000 C   0  0  0  0  0  0  0  0  0  0  0  0
    0.1417    0.7960    0.0000 O   0  0  0  0  0  0  0  0  0  0  0  0
    1.2503   -1.5087    0.0000 C   0  0  0  0  0  0  0  0  0  0  0  0
   -0.9210    1.7546    0.0000 N   0  0  0  0  0  0  0  0  0  0  0  0
    1.2503   -0.6835    0.0000 C   0  0  0  0  0  0  0  0  0  0  0  0
   -0.3668    2.3673    0.0000 C   0  0  0  0  0  0  0  0  0  0  0  0
    1.9672   -1.9213    0.0000 O   0  0  0  0  0  0  0  0  0  0  0  0
    2.6799   -1.5087    0.0000 C   0  0  0  0  0  0  0  0  0  0  0  0
  2  3  2  0  0  0  0
  2  4  1  0  0  0  0
  3  1  1  0  0  0  0
  4  5  1  0  0  0  0
  5  1  2  0  0  0  0
  6 16  1  0  0  0  0
  7  2  1  0  0  0  0
  8  6  3  0  0  0  0
  9  1  1  0  0  0  0
 10  9  1  0  0  0  0
 11  3  1  0  0  0  0
 12 10  2  0  0  0  0
 13  7  2  0  0  0  0
 14 10  1  0  0  0  0
 15 11  2  0  0  0  0
 15 13  1  0  0  0  0
 16 14  1  0  0  0  0
 17 13  1  0  0  0  0
 18 17  1  0  0  0  0
M  END
> <CdId>
2937

> <Mol Weight>
243.2579

> <Formula>
C14H13NO3

> <Click_ID>
CLK039A03 __ __ 

$$$$
