CLK044H09
 OpenBabel03181417552D

 32 35  0  0  0  0  0  0  0  0999 V2000
   -1.0169    0.1167    0.0000 N   0  0  0  0  0  0  0  0  0  0  0  0
   -1.0169    0.9419    0.0000 C   0  0  0  0  0  0  0  0  0  0  0  0
   -1.8046   -0.1417    0.0000 C   0  0  0  0  0  0  0  0  0  0  0  0
   -1.8046    1.1961    0.0000 O   0  0  0  0  0  0  0  0  0  0  0  0
   -2.2880    0.5293    0.0000 C   0  0  0  0  0  0  0  0  0  0  0  0
    1.6504    2.8798    0.0000 N   0  0  0  0  0  0  0  0  0  0  0  0
    1.6504    3.7050    0.0000 C   0  0  0  0  0  0  0  0  0  0  0  0
   -2.0587   -0.9252    0.0000 C   0  0  0  0  0  0  0  0  0  0  0  0
    0.4459   -4.7760    0.0000 C   0  0  0  0  0  0  0  0  0  0  0  0
   -0.3501    1.4253    0.0000 C   0  0  0  0  0  0  0  0  0  0  0  0
    0.9835    2.3963    0.0000 C   0  0  0  0  0  0  0  0  0  0  0  0
    1.0002   -5.3887    0.0000 C   0  0  0  0  0  0  0  0  0  0  0  0
   -0.1458   -1.9796    0.0000 C   0  0  0  0  0  0  0  0  0  0  0  0
   -1.5045   -1.5378    0.0000 C   0  0  0  0  0  0  0  0  0  0  0  0
   -3.1132    0.5293    0.0000 O   0  0  0  0  0  0  0  0  0  0  0  0
   -0.7002   -1.3670    0.0000 C   0  0  0  0  0  0  0  0  0  0  0  0
   -0.4043   -2.7631    0.0000 C   0  0  0  0  0  0  0  0  0  0  0  0
    0.9835    4.1884    0.0000 O   0  0  0  0  0  0  0  0  0  0  0  0
    1.0710    1.5753    0.0000 C   0  0  0  0  0  0  0  0  0  0  0  0
    0.2292    2.7298    0.0000 C   0  0  0  0  0  0  0  0  0  0  0  0
    0.4043    1.0877    0.0000 C   0  0  0  0  0  0  0  0  0  0  0  0
   -0.4376    2.2463    0.0000 C   0  0  0  0  0  0  0  0  0  0  0  0
   -1.2086   -2.9339    0.0000 C   0  0  0  0  0  0  0  0  0  0  0  0
   -1.7629   -2.3213    0.0000 C   0  0  0  0  0  0  0  0  0  0  0  0
    2.4380    2.6256    0.0000 C   0  0  0  0  0  0  0  0  0  0  0  0
    0.6584   -1.8087    0.0000 O   0  0  0  0  0  0  0  0  0  0  0  0
    0.1500   -3.3757    0.0000 O   0  0  0  0  0  0  0  0  0  0  0  0
    2.4380    3.9592    0.0000 C   0  0  0  0  0  0  0  0  0  0  0  0
   -0.1042   -4.1634    0.0000 C   0  0  0  0  0  0  0  0  0  0  0  0
    2.9214    3.2924    0.0000 C   0  0  0  0  0  0  0  0  0  0  0  0
    0.9169   -1.0252    0.0000 C   0  0  0  0  0  0  0  0  0  0  0  0
    1.7212   -0.8502    0.0000 C   0  0  0  0  0  0  0  0  0  0  0  0
  2  1  2  0  0  0  0
  3  1  1  0  0  0  0
  4  2  1  0  0  0  0
  5  3  1  0  0  0  0
  5  4  1  0  0  0  0
  6 11  1  0  0  0  0
  7  6  1  0  0  0  0
  8  3  2  0  0  0  0
  9 29  1  0  0  0  0
 10  2  1  0  0  0  0
 11 20  2  0  0  0  0
 11 19  1  0  0  0  0
 12  9  3  0  0  0  0
 13 16  1  0  0  0  0
 14  8  1  0  0  0  0
 15  5  2  0  0  0  0
 16 14  2  0  0  0  0
 17 23  1  0  0  0  0
 17 13  2  0  0  0  0
 18  7  2  0  0  0  0
 19 21  2  0  0  0  0
 20 22  1  0  0  0  0
 21 10  1  0  0  0  0
 22 10  2  0  0  0  0
 23 24  2  0  0  0  0
 24 14  1  0  0  0  0
 25  6  1  0  0  0  0
 26 13  1  0  0  0  0
 27 17  1  0  0  0  0
 28  7  1  0  0  0  0
 28 30  1  0  0  0  0
 29 27  1  0  0  0  0
 30 25  1  0  0  0  0
 31 26  1  0  0  0  0
 32 31  1  0  0  0  0
M  END
> <CdId>
3392

> <Mol Weight>
430.4526

> <Formula>
C25H22N2O5

> <Click_ID>
CLK044H09 __ __ 

$$$$
