CLK016_F05
 OpenBabel03181417552D

 29 32  0  0  0  0  0  0  0  0999 V2000
    1.5705   -0.8187    0.0000 N   0  0  0  0  0  0  0  0  0  0  0  0
    1.8294   -1.6081    0.0000 C   0  0  0  0  0  0  0  0  0  0  0  0
    2.2429   -0.3300    0.0000 C   0  0  0  0  0  0  0  0  0  0  0  0
    2.9112   -0.8187    0.0000 C   0  0  0  0  0  0  0  0  0  0  0  0
    2.6564   -1.6081    0.0000 S   0  0  0  0  0  0  0  0  0  0  0  0
    3.7006   -0.5639    0.0000 C   0  0  0  0  0  0  0  0  0  0  0  0
    0.6140    0.2464    0.0000 C   0  0  0  0  0  0  0  0  0  0  0  0
    0.3926    1.0483    0.0000 C   0  0  0  0  0  0  0  0  0  0  0  0
    1.3407   -2.2722    0.0000 O   0  0  0  0  0  0  0  0  0  0  0  0
    2.2346    0.4970    0.0000 O   0  0  0  0  0  0  0  0  0  0  0  0
    4.7531    4.2728    0.0000 C   0  0  0  0  0  0  0  0  0  0  0  0
    0.7894   -0.5639    0.0000 C   0  0  0  0  0  0  0  0  0  0  0  0
    5.3629    3.7172    0.0000 C   0  0  0  0  0  0  0  0  0  0  0  0
    5.1791    2.9153    0.0000 C   0  0  0  0  0  0  0  0  0  0  0  0
    3.8635    0.2381    0.0000 C   0  0  0  0  0  0  0  0  0  0  0  0
    4.4023    2.6564    0.0000 O   0  0  0  0  0  0  0  0  0  0  0  0
    4.9285    5.0664    0.0000 C   0  0  0  0  0  0  0  0  0  0  0  0
    4.2143    1.8544    0.0000 C   0  0  0  0  0  0  0  0  0  0  0  0
    3.2495    0.8019    0.0000 C   0  0  0  0  0  0  0  0  0  0  0  0
    4.6403    0.4970    0.0000 C   0  0  0  0  0  0  0  0  0  0  0  0
    4.8158    1.3031    0.0000 C   0  0  0  0  0  0  0  0  0  0  0  0
    3.4249    1.6122    0.0000 C   0  0  0  0  0  0  0  0  0  0  0  0
    6.3277    4.7531    0.0000 C   0  0  0  0  0  0  0  0  0  0  0  0
    6.1439    3.9678    0.0000 C   0  0  0  0  0  0  0  0  0  0  0  0
    3.9637    4.0222    0.0000 C   0  0  0  0  0  0  0  0  0  0  0  0
    5.7262    5.3253    0.0000 C   0  0  0  0  0  0  0  0  0  0  0  0
    4.3271    5.6302    0.0000 C   0  0  0  0  0  0  0  0  0  0  0  0
    3.3581    4.5902    0.0000 C   0  0  0  0  0  0  0  0  0  0  0  0
    3.5377    5.3921    0.0000 C   0  0  0  0  0  0  0  0  0  0  0  0
  2  1  1  0  0  0  0
  3  1  1  0  0  0  0
  4  3  1  0  0  0  0
  4  5  1  0  0  0  0
  5  2  1  0  0  0  0
  6  4  2  0  0  0  0
  7 12  1  0  0  0  0
  8  7  3  0  0  0  0
  9  2  2  0  0  0  0
 10  3  2  0  0  0  0
 11 13  1  0  0  0  0
 12  1  1  0  0  0  0
 13 14  1  0  0  0  0
 14 16  1  0  0  0  0
 15  6  1  0  0  0  0
 16 18  1  0  0  0  0
 17 11  1  0  0  0  0
 17 26  1  0  0  0  0
 18 21  1  0  0  0  0
 18 22  2  0  0  0  0
 19 15  2  0  0  0  0
 20 15  1  0  0  0  0
 21 20  2  0  0  0  0
 22 19  1  0  0  0  0
 23 24  1  0  0  0  0
 24 13  2  0  0  0  0
 25 11  2  0  0  0  0
 26 23  2  0  0  0  0
 27 17  2  0  0  0  0
 27 29  1  0  0  0  0
 28 25  1  0  0  0  0
 29 28  2  0  0  0  0
M  END
> <CdId>
1210

> <Mol Weight>
399.462

> <Formula>
C24H17NO3S

> <Click_ID>
CLK016_F05 __ __ 

$$$$
