CLK024_D08
 OpenBabel03181417552D

 27 30  0  0  0  0  0  0  0  0999 V2000
   -1.9855   -1.8653    0.0000 N   0  0  0  0  0  0  0  0  0  0  0  0
   -1.7484   -2.6519    0.0000 C   0  0  0  0  0  0  0  0  0  0  0  0
    0.7591    0.4019    0.0000 N   0  0  0  0  0  0  0  0  0  0  0  0
   -0.6561   -1.8756    0.0000 C   0  0  0  0  0  0  0  0  0  0  0  0
   -1.3259   -1.3809    0.0000 C   0  0  0  0  0  0  0  0  0  0  0  0
    0.3469   -0.8656    0.0000 C   0  0  0  0  0  0  0  0  0  0  0  0
   -0.9240   -2.6553    0.0000 S   0  0  0  0  0  0  0  0  0  0  0  0
   -0.0653    0.4019    0.0000 C   0  0  0  0  0  0  0  0  0  0  0  0
    1.0168   -0.3778    0.0000 C   0  0  0  0  0  0  0  0  0  0  0  0
    0.1340   -1.6660    0.0000 C   0  0  0  0  0  0  0  0  0  0  0  0
   -0.3195   -0.3778    0.0000 C   0  0  0  0  0  0  0  0  0  0  0  0
    1.1713    1.1267    0.0000 C   0  0  0  0  0  0  0  0  0  0  0  0
    1.9958    1.1577    0.0000 C   0  0  0  0  0  0  0  0  0  0  0  0
    2.3840    1.8927    0.0000 C   0  0  0  0  0  0  0  0  0  0  0  0
   -2.9988   -0.8313    0.0000 C   0  0  0  0  0  0  0  0  0  0  0  0
   -3.2084   -0.0344    0.0000 C   0  0  0  0  0  0  0  0  0  0  0  0
   -2.3393   -3.2255    0.0000 O   0  0  0  0  0  0  0  0  0  0  0  0
    1.9202    2.5798    0.0000 C   0  0  0  0  0  0  0  0  0  0  0  0
    3.1672    2.1160    0.0000 O   0  0  0  0  0  0  0  0  0  0  0  0
   -1.3259   -0.5565    0.0000 O   0  0  0  0  0  0  0  0  0  0  0  0
    2.4320    3.2290    0.0000 O   0  0  0  0  0  0  0  0  0  0  0  0
   -2.7859   -1.6317    0.0000 C   0  0  0  0  0  0  0  0  0  0  0  0
    0.7317    1.8172    0.0000 C   0  0  0  0  0  0  0  0  0  0  0  0
    3.2049    2.9405    0.0000 C   0  0  0  0  0  0  0  0  0  0  0  0
    1.1095    2.5489    0.0000 C   0  0  0  0  0  0  0  0  0  0  0  0
   -0.4809    1.1198    0.0000 C   0  0  0  0  0  0  0  0  0  0  0  0
    1.8069   -0.5839    0.0000 C   0  0  0  0  0  0  0  0  0  0  0  0
  2  1  1  0  0  0  0
  3  9  1  0  0  0  0
  4  5  1  0  0  0  0
  4  7  1  0  0  0  0
  5  1  1  0  0  0  0
  6 10  1  0  0  0  0
  7  2  1  0  0  0  0
  8 11  2  0  0  0  0
  8  3  1  0  0  0  0
  9  6  2  0  0  0  0
 10  4  2  0  0  0  0
 11  6  1  0  0  0  0
 12  3  1  0  0  0  0
 13 12  2  0  0  0  0
 14 13  1  0  0  0  0
 15 22  1  0  0  0  0
 16 15  3  0  0  0  0
 17  2  2  0  0  0  0
 18 25  1  0  0  0  0
 18 14  2  0  0  0  0
 19 14  1  0  0  0  0
 20  5  2  0  0  0  0
 21 18  1  0  0  0  0
 21 24  1  0  0  0  0
 22  1  1  0  0  0  0
 23 12  1  0  0  0  0
 24 19  1  0  0  0  0
 25 23  2  0  0  0  0
 26  8  1  0  0  0  0
 27  9  1  0  0  0  0
M  END
> <CdId>
1813

> <Mol Weight>
380.417

> <Formula>
C20H16N2O4S

> <Click_ID>
CLK024_D08 __ __ 

$$$$
