CLK009_B09
 OpenBabel03181417552D

 18 18  0  0  0  0  0  0  0  0999 V2000
   -2.5861    2.4956    0.0000 C   0  0  0  0  0  0  0  0  0  0  0  0
   -4.0171    0.7888    0.0000 C   0  0  0  0  0  0  0  0  0  0  0  0
   -1.1508    0.7715    0.0000 C   0  0  0  0  0  0  0  0  0  0  0  0
   -1.7542    1.0345    0.0000 C   0  0  0  0  0  0  0  0  0  0  0  0
   -3.4266    1.0345    0.0000 C   0  0  0  0  0  0  0  0  0  0  0  0
   -3.4266    2.0129    0.0000 C   0  0  0  0  0  0  0  0  0  0  0  0
   -1.7542    2.0129    0.0000 C   0  0  0  0  0  0  0  0  0  0  0  0
   -2.5861    0.5517    0.0000 C   0  0  0  0  0  0  0  0  0  0  0  0
   -4.8447    0.4655    0.0000 C   0  0  0  0  0  0  0  0  0  0  0  0
   -0.4094    0.4655    0.0000 C   0  0  0  0  0  0  0  0  0  0  0  0
   -1.0560    2.2887    0.0000 O   0  0  0  0  0  0  0  0  0  0  0  0
   -4.0344    2.3491    0.0000 O   0  0  0  0  0  0  0  0  0  0  0  0
   -0.4267    1.9784    0.0000 C   0  0  0  0  0  0  0  0  0  0  0  0
   -4.6551    2.1034    0.0000 C   0  0  0  0  0  0  0  0  0  0  0  0
    0.3103    2.3491    0.0000 C   0  0  0  0  0  0  0  0  0  0  0  0
   -5.1938    2.4439    0.0000 C   0  0  0  0  0  0  0  0  0  0  0  0
    0.9354    1.9611    0.0000 C   0  0  0  0  0  0  0  0  0  0  0  0
   -5.7930    2.0904    0.0000 C   0  0  0  0  0  0  0  0  0  0  0  0
  2  5  1  0  0  0  0
  3  4  1  0  0  0  0
  4  7  2  0  0  0  0
  5  6  1  0  0  0  0
  6  1  2  0  0  0  0
  7  1  1  0  0  0  0
  8  4  1  0  0  0  0
  8  5  2  0  0  0  0
  9  2  3  0  0  0  0
 10  3  3  0  0  0  0
 11  7  1  0  0  0  0
 12  6  1  0  0  0  0
 13 11  1  0  0  0  0
 14 12  1  0  0  0  0
 15 13  1  0  0  0  0
 16 14  1  0  0  0  0
 17 15  1  0  0  0  0
 18 16  1  0  0  0  0
M  END
> <CdId>
614

> <Mol Weight>
242.3129

> <Formula>
C16H18O2

> <Click_ID>
CLK009_B09 __ __ 

$$$$
