CLK037H04
 OpenBabel03181417552D

 23 24  0  0  0  0  0  0  0  0999 V2000
    0.2167   -0.3750    0.0000 C   0  0  0  0  0  0  0  0  0  0  0  0
    0.9292    0.0375    0.0000 N   0  0  0  0  0  0  0  0  0  0  0  0
    2.3583   -0.7875    0.0000 C   0  0  0  0  0  0  0  0  0  0  0  0
   -0.5000    0.0375    0.0000 C   0  0  0  0  0  0  0  0  0  0  0  0
    3.0750   -1.2000    0.0000 C   0  0  0  0  0  0  0  0  0  0  0  0
    1.6458   -0.3750    0.0000 C   0  0  0  0  0  0  0  0  0  0  0  0
    0.2167   -1.2000    0.0000 O   0  0  0  0  0  0  0  0  0  0  0  0
   -0.5000    0.8625    0.0000 C   0  0  0  0  0  0  0  0  0  0  0  0
   -1.2125   -0.3750    0.0000 C   0  0  0  0  0  0  0  0  0  0  0  0
    2.0583    0.3417    0.0000 C   0  0  0  0  0  0  0  0  0  0  0  0
    1.2333   -1.0875    0.0000 C   0  0  0  0  0  0  0  0  0  0  0  0
   -1.9292    0.0375    0.0000 C   0  0  0  0  0  0  0  0  0  0  0  0
   -1.2125   -1.2000    0.0000 C   0  0  0  0  0  0  0  0  0  0  0  0
   -1.2125    1.2750    0.0000 C   0  0  0  0  0  0  0  0  0  0  0  0
    0.2167    1.2750    0.0000 C   0  0  0  0  0  0  0  0  0  0  0  0
    2.8833    0.3417    0.0000 C   0  0  0  0  0  0  0  0  0  0  0  0
    0.4083   -1.0875    0.0000 C   0  0  0  0  0  0  0  0  0  0  0  0
   -1.9292   -1.6125    0.0000 C   0  0  0  0  0  0  0  0  0  0  0  0
   -1.2125    2.1000    0.0000 C   0  0  0  0  0  0  0  0  0  0  0  0
    0.2167    2.1000    0.0000 C   0  0  0  0  0  0  0  0  0  0  0  0
   -2.6417   -0.3750    0.0000 C   0  0  0  0  0  0  0  0  0  0  0  0
   -0.5000    2.5125    0.0000 C   0  0  0  0  0  0  0  0  0  0  0  0
   -2.6417   -1.2000    0.0000 C   0  0  0  0  0  0  0  0  0  0  0  0
  2  1  1  0  0  0  0
  3  6  1  0  0  0  0
  4  1  1  0  0  0  0
  5  3  3  0  0  0  0
  6  2  1  0  0  0  0
  7  1  2  0  0  0  0
  8  4  1  0  0  0  0
  9  4  1  0  0  0  0
 10  6  1  0  0  0  0
 11  6  1  0  0  0  0
 12  9  1  0  0  0  0
 13  9  2  0  0  0  0
 14  8  2  0  0  0  0
 15  8  1  0  0  0  0
 16 10  1  0  0  0  0
 17 11  1  0  0  0  0
 18 13  1  0  0  0  0
 19 14  1  0  0  0  0
 20 15  2  0  0  0  0
 21 12  2  0  0  0  0
 22 19  2  0  0  0  0
 22 20  1  0  0  0  0
 23 18  2  0  0  0  0
 23 21  1  0  0  0  0
M  END
> <CdId>
2792

> <Mol Weight>
305.4134

> <Formula>
C21H23NO

> <Click_ID>
CLK037H04 __ __ 

$$$$
