CLK042G10
 OpenBabel03181417552D

 18 20  0  0  0  0  0  0  0  0999 V2000
   -0.3585    0.8963    0.0000 C   0  0  0  0  0  0  0  0  0  0  0  0
   -0.8422    0.2293    0.0000 C   0  0  0  0  0  0  0  0  0  0  0  0
   -0.5086   -0.5253    0.0000 C   0  0  0  0  0  0  0  0  0  0  0  0
    0.4628    0.8130    0.0000 N   0  0  0  0  0  0  0  0  0  0  0  0
   -0.8422    1.5634    0.0000 S   0  0  0  0  0  0  0  0  0  0  0  0
   -1.6302    0.4836    0.0000 C   0  0  0  0  0  0  0  0  0  0  0  0
    0.3127   -0.6087    0.0000 N   0  0  0  0  0  0  0  0  0  0  0  0
   -1.6302    1.3091    0.0000 C   0  0  0  0  0  0  0  0  0  0  0  0
    0.8005    0.0583    0.0000 C   0  0  0  0  0  0  0  0  0  0  0  0
    3.1143   -1.6218    0.0000 C   0  0  0  0  0  0  0  0  0  0  0  0
    3.4478   -2.3764    0.0000 C   0  0  0  0  0  0  0  0  0  0  0  0
   -0.9923   -1.1924    0.0000 O   0  0  0  0  0  0  0  0  0  0  0  0
   -2.4139    0.2293    0.0000 C   0  0  0  0  0  0  0  0  0  0  0  0
   -2.4139    1.5634    0.0000 C   0  0  0  0  0  0  0  0  0  0  0  0
    1.9554   -0.7838    0.0000 N   0  0  0  0  0  0  0  0  0  0  0  0
    1.6218   -0.0292    0.0000 C   0  0  0  0  0  0  0  0  0  0  0  0
    2.7766   -0.8713    0.0000 C   0  0  0  0  0  0  0  0  0  0  0  0
   -2.8975    0.8963    0.0000 C   0  0  0  0  0  0  0  0  0  0  0  0
  2  1  2  0  0  0  0
  3  2  1  0  0  0  0
  4  1  1  0  0  0  0
  5  1  1  0  0  0  0
  6  2  1  0  0  0  0
  6  8  2  0  0  0  0
  7  3  1  0  0  0  0
  8  5  1  0  0  0  0
  9  4  2  0  0  0  0
  9  7  1  0  0  0  0
 10 17  1  0  0  0  0
 11 10  3  0  0  0  0
 12  3  2  0  0  0  0
 13  6  1  0  0  0  0
 14  8  1  0  0  0  0
 15 16  1  0  0  0  0
 16  9  1  0  0  0  0
 17 15  1  0  0  0  0
 18 13  1  0  0  0  0
 18 14  1  0  0  0  0
M  END
> <CdId>
3239

> <Mol Weight>
259.327

> <Formula>
C13H13N3OS

> <Click_ID>
CLK042G10 __ __ 

$$$$
