CLK011_A07
 OpenBabel03181417552D

 19 19  0  0  0  0  0  0  0  0999 V2000
   -0.3959   -0.4026    0.0000 C   0  0  0  0  0  0  0  0  0  0  0  0
    0.4291   -0.4026    0.0000 C   0  0  0  0  0  0  0  0  0  0  0  0
   -0.8250   -1.1078    0.0000 N   0  0  0  0  0  0  0  0  0  0  0  0
   -0.7984    0.2961    0.0000 C   0  0  0  0  0  0  0  0  0  0  0  0
    2.0792    0.9747    0.0000 C   0  0  0  0  0  0  0  0  0  0  0  0
    2.4984    1.6733    0.0000 C   0  0  0  0  0  0  0  0  0  0  0  0
   -0.4258   -1.8264    0.0000 C   0  0  0  0  0  0  0  0  0  0  0  0
    0.8284   -1.1078    0.0000 O   0  0  0  0  0  0  0  0  0  0  0  0
    0.3992   -1.8264    0.0000 O   0  0  0  0  0  0  0  0  0  0  0  0
   -1.6334    0.2961    0.0000 C   0  0  0  0  0  0  0  0  0  0  0  0
    0.8517    0.2961    0.0000 O   0  0  0  0  0  0  0  0  0  0  0  0
   -3.3001    0.2961    0.0000 C   0  0  0  0  0  0  0  0  0  0  0  0
   -4.1185    0.2961    0.0000 F   0  0  0  0  0  0  0  0  0  0  0  0
   -2.0526   -0.4225    0.0000 C   0  0  0  0  0  0  0  0  0  0  0  0
   -2.0459    1.0146    0.0000 C   0  0  0  0  0  0  0  0  0  0  0  0
   -2.8709    1.0146    0.0000 C   0  0  0  0  0  0  0  0  0  0  0  0
   -2.8743   -0.4225    0.0000 C   0  0  0  0  0  0  0  0  0  0  0  0
    1.6667    0.2794    0.0000 C   0  0  0  0  0  0  0  0  0  0  0  0
   -0.8350   -2.5383    0.0000 C   0  0  0  0  0  0  0  0  0  0  0  0
  2  1  1  0  0  0  0
  3  1  1  0  0  0  0
  4  1  2  0  0  0  0
  5 18  1  0  0  0  0
  6  5  3  0  0  0  0
  7  3  1  0  0  0  0
  8  2  2  0  0  0  0
  9  7  2  0  0  0  0
 10  4  1  0  0  0  0
 11  2  1  0  0  0  0
 12 16  1  0  0  0  0
 13 12  1  0  0  0  0
 14 10  2  0  0  0  0
 15 10  1  0  0  0  0
 16 15  2  0  0  0  0
 17 14  1  0  0  0  0
 17 12  2  0  0  0  0
 18 11  1  0  0  0  0
 19  7  1  0  0  0  0
M  END
> <CdId>
762

> <Mol Weight>
261.2484

> <Formula>
C14H12FNO3

> <Click_ID>
CLK011_A07 __ __ 

$$$$
