CLK051H07
 OpenBabel03181417552D

 19 20  0  0  0  0  0  0  0  0999 V2000
   -1.3833    1.9292    0.0000 C   0  0  0  0  0  0  0  0  0  0  0  0
   -1.4708    2.7500    0.0000 N   0  0  0  0  0  0  0  0  0  0  0  0
   -2.2750    2.9208    0.0000 N   0  0  0  0  0  0  0  0  0  0  0  0
   -2.1375    1.5917    0.0000 O   0  0  0  0  0  0  0  0  0  0  0  0
    2.1875   -3.4333    0.0000 C   0  0  0  0  0  0  0  0  0  0  0  0
   -2.6875    2.2083    0.0000 C   0  0  0  0  0  0  0  0  0  0  0  0
   -0.6708    1.5167    0.0000 C   0  0  0  0  0  0  0  0  0  0  0  0
    2.9042   -3.8458    0.0000 C   0  0  0  0  0  0  0  0  0  0  0  0
    0.7583   -1.7833    0.0000 C   0  0  0  0  0  0  0  0  0  0  0  0
   -0.6708    0.6917    0.0000 C   0  0  0  0  0  0  0  0  0  0  0  0
    0.0458   -2.1958    0.0000 O   0  0  0  0  0  0  0  0  0  0  0  0
    1.4750   -2.1958    0.0000 N   0  0  0  0  0  0  0  0  0  0  0  0
    0.0458   -0.5458    0.0000 O   0  0  0  0  0  0  0  0  0  0  0  0
    0.7583   -0.9583    0.0000 C   0  0  0  0  0  0  0  0  0  0  0  0
    0.0458    0.2792    0.0000 C   0  0  0  0  0  0  0  0  0  0  0  0
    1.4750   -3.0208    0.0000 C   0  0  0  0  0  0  0  0  0  0  0  0
    0.0458    1.9292    0.0000 C   0  0  0  0  0  0  0  0  0  0  0  0
    0.7583    1.5167    0.0000 C   0  0  0  0  0  0  0  0  0  0  0  0
    0.7583    0.6917    0.0000 C   0  0  0  0  0  0  0  0  0  0  0  0
  2  1  2  0  0  0  0
  3  2  1  0  0  0  0
  4  1  1  0  0  0  0
  5 16  1  0  0  0  0
  6  4  1  0  0  0  0
  6  3  2  0  0  0  0
  7  1  1  0  0  0  0
  8  5  3  0  0  0  0
  9 14  1  0  0  0  0
 10  7  1  0  0  0  0
 11  9  2  0  0  0  0
 12  9  1  0  0  0  0
 13 15  1  0  0  0  0
 14 13  1  0  0  0  0
 15 10  2  0  0  0  0
 16 12  1  0  0  0  0
 17  7  2  0  0  0  0
 18 17  1  0  0  0  0
 18 19  2  0  0  0  0
 19 15  1  0  0  0  0
M  END
> <CdId>
3936

> <Mol Weight>
257.2447

> <Formula>
C13H11N3O3

> <Click_ID>
CLK051H07 __ __ 

$$$$
