CLK024_F09
 OpenBabel03181417552D

 33 35  0  0  0  0  0  0  0  0999 V2000
   -1.1016   -0.5233    0.0000 N    0  0  0  0  0  0  0  0  0  0  0  0
   -0.4269   -1.0087    0.0000 C    0  0  0  0  0  0  0  0  0  0  0  0
   -0.8538    0.2651    0.0000 C    0  0  0  0  0  0  0  0  0  0  0  0
   -0.0275    0.2754    0.0000 C    0  0  0  0  0  0  0  0  0  0  0  0
    0.2341   -0.5095    0.0000 S    0  0  0  0  0  0  0  0  0  0  0  0
    0.4476    0.9640    0.0000 C    0  0  0  0  0  0  0  0  0  0  0  0
    2.9194    0.7161    0.0000 C    0  0  0  0  0  0  0  0  0  0  0  0
   -1.8900   -0.7849    0.0000 C    0  0  0  0  0  0  0  0  0  0  0  0
    2.5820    1.4666    0.0000 C    0  0  0  0  0  0  0  0  0  0  0  0
    2.4512    0.0378    0.0000 C    0  0  0  0  0  0  0  0  0  0  0  0
   -2.5097   -0.2444    0.0000 C    0  0  0  0  0  0  0  0  0  0  0  0
    1.2704    0.8676    0.0000 C    0  0  0  0  0  0  0  0  0  0  0  0
    4.9162   -0.1928    0.0000 C    0  0  0  0  0  0  0  0  0  0  0  0
    5.7390   -0.3098    0.0000 C    0  0  0  0  0  0  0  0  0  0  0  0
   -0.4269   -1.8316    0.0000 O    0  0  0  0  0  0  0  0  0  0  0  0
   -3.2981   -0.4992    0.0000 N    0  0  0  0  0  0  0  0  0  0  0  0
   -1.3495    0.9295    0.0000 O    0  0  0  0  0  0  0  0  0  0  0  0
    1.7593    1.5424    0.0000 C    0  0  0  0  0  0  0  0  0  0  0  0
    1.6215    0.1274    0.0000 C    0  0  0  0  0  0  0  0  0  0  0  0
   -2.3480    0.5646    0.0000 O    0  0  0  0  0  0  0  0  0  0  0  0
    3.0675    2.1345    0.0000 Br   0  0  0  0  0  0  0  0  0  0  0  0
   -3.9109    0.0516    0.0000 C    0  0  0  0  0  0  0  0  0  0  0  0
    3.7423    0.6403    0.0000 O    0  0  0  0  0  0  0  0  0  0  0  0
    2.7955   -0.7092    0.0000 O    0  0  0  0  0  0  0  0  0  0  0  0
   -5.1296    1.1499    0.0000 C    0  0  0  0  0  0  0  0  0  0  0  0
   -3.7353    0.8504    0.0000 C    0  0  0  0  0  0  0  0  0  0  0  0
   -4.6821   -0.2100    0.0000 C    0  0  0  0  0  0  0  0  0  0  0  0
   -5.2949    0.3374    0.0000 C    0  0  0  0  0  0  0  0  0  0  0  0
   -4.3447    1.4012    0.0000 C    0  0  0  0  0  0  0  0  0  0  0  0
    4.0934   -0.1101    0.0000 C    0  0  0  0  0  0  0  0  0  0  0  0
    2.3170   -1.3840    0.0000 C    0  0  0  0  0  0  0  0  0  0  0  0
   -5.7390    1.7007    0.0000 C    0  0  0  0  0  0  0  0  0  0  0  0
    2.6578   -2.1311    0.0000 C    0  0  0  0  0  0  0  0  0  0  0  0
  2  1  1  0  0  0  0
  3  1  1  0  0  0  0
  4  3  1  0  0  0  0
  4  5  1  0  0  0  0
  5  2  1  0  0  0  0
  6  4  2  0  0  0  0
  7 10  1  0  0  0  0
  7  9  2  0  0  0  0
  8  1  1  0  0  0  0
  9 18  1  0  0  0  0
 10 19  2  0  0  0  0
 11  8  1  0  0  0  0
 12  6  1  0  0  0  0
 13 30  1  0  0  0  0
 14 13  3  0  0  0  0
 15  2  2  0  0  0  0
 16 11  1  0  0  0  0
 17  3  2  0  0  0  0
 18 12  2  0  0  0  0
 19 12  1  0  0  0  0
 20 11  2  0  0  0  0
 21  9  1  0  0  0  0
 22 16  1  0  0  0  0
 23  7  1  0  0  0  0
 24 10  1  0  0  0  0
 25 28  1  0  0  0  0
 26 22  2  0  0  0  0
 27 22  1  0  0  0  0
 28 27  2  0  0  0  0
 29 26  1  0  0  0  0
 29 25  2  0  0  0  0
 30 23  1  0  0  0  0
 31 24  1  0  0  0  0
 32 25  1  0  0  0  0
 33 31  1  0  0  0  0
M  END
> <CdId>
1834

> <Mol Weight>
529.403

> <Formula>
C24H21BrN2O5S

> <Click_ID>
CLK024_F09 __ __ 

$$$$
