CLK039H06
 OpenBabel03181417552D

 16 16  0  0  0  0  0  0  0  0999 V2000
   -3.3500   -0.0250    0.0000 C    0  0  0  0  0  0  0  0  0  0  0  0
   -4.0667    0.3875    0.0000 C    0  0  0  0  0  0  0  0  0  0  0  0
    1.6500   -0.4375    0.0000 C    0  0  0  0  0  0  0  0  0  0  0  0
   -1.2083   -0.4375    0.0000 C    0  0  0  0  0  0  0  0  0  0  0  0
    0.9375   -0.0250    0.0000 C    0  0  0  0  0  0  0  0  0  0  0  0
    0.2208   -0.4375    0.0000 O    0  0  0  0  0  0  0  0  0  0  0  0
    2.3667   -0.0250    0.0000 C    0  0  0  0  0  0  0  0  0  0  0  0
   -1.2083   -1.2625    0.0000 O    0  0  0  0  0  0  0  0  0  0  0  0
    0.9375    0.8000    0.0000 C    0  0  0  0  0  0  0  0  0  0  0  0
   -0.4917   -0.0250    0.0000 C    0  0  0  0  0  0  0  0  0  0  0  0
   -1.9208   -0.0250    0.0000 N    0  0  0  0  0  0  0  0  0  0  0  0
    2.3667    0.8000    0.0000 C    0  0  0  0  0  0  0  0  0  0  0  0
    1.6500    1.2125    0.0000 C    0  0  0  0  0  0  0  0  0  0  0  0
    3.0792    1.2125    0.0000 Cl   0  0  0  0  0  0  0  0  0  0  0  0
   -2.6375   -0.4375    0.0000 C    0  0  0  0  0  0  0  0  0  0  0  0
    1.6500   -1.2625    0.0000 C    0  0  0  0  0  0  0  0  0  0  0  0
  2  1  3  0  0  0  0
  3  5  2  0  0  0  0
  4 11  1  0  0  0  0
  5  6  1  0  0  0  0
  6 10  1  0  0  0  0
  7  3  1  0  0  0  0
  8  4  2  0  0  0  0
  9  5  1  0  0  0  0
 10  4  1  0  0  0  0
 11 15  1  0  0  0  0
 12  7  2  0  0  0  0
 13  9  2  0  0  0  0
 13 12  1  0  0  0  0
 14 12  1  0  0  0  0
 15  1  1  0  0  0  0
 16  3  1  0  0  0  0
M  END
> <CdId>
2968

> <Mol Weight>
237.682

> <Formula>
C12H12ClNO2

> <Click_ID>
CLK039H06 __ __ 

$$$$
