CLK011_F03
 OpenBabel03181417552D

 27 29  0  0  0  0  0  0  0  0999 V2000
    3.1563   -0.8151    0.0000 N    0  0  0  0  0  0  0  0  0  0  0  0
    2.8985   -1.6011    0.0000 C    0  0  0  0  0  0  0  0  0  0  0  0
    2.4868   -0.3286    0.0000 C    0  0  0  0  0  0  0  0  0  0  0  0
    1.8256   -0.8151    0.0000 C    0  0  0  0  0  0  0  0  0  0  0  0
    2.0751   -1.6011    0.0000 S    0  0  0  0  0  0  0  0  0  0  0  0
    1.0397   -0.5614    0.0000 C    0  0  0  0  0  0  0  0  0  0  0  0
   -0.8067   -2.2124    0.0000 C    0  0  0  0  0  0  0  0  0  0  0  0
   -0.9689   -1.4097    0.0000 C    0  0  0  0  0  0  0  0  0  0  0  0
   -0.0208   -2.4744    0.0000 C    0  0  0  0  0  0  0  0  0  0  0  0
    0.4284   -1.1145    0.0000 C    0  0  0  0  0  0  0  0  0  0  0  0
   -2.8278   -3.0440    0.0000 C    0  0  0  0  0  0  0  0  0  0  0  0
    3.9423   -0.5614    0.0000 C    0  0  0  0  0  0  0  0  0  0  0  0
   -3.4515   -3.5972    0.0000 C    0  0  0  0  0  0  0  0  0  0  0  0
    3.3851   -2.2623    0.0000 O    0  0  0  0  0  0  0  0  0  0  0  0
   -0.3576   -0.8525    0.0000 C    0  0  0  0  0  0  0  0  0  0  0  0
    2.4868    0.4948    0.0000 O    0  0  0  0  0  0  0  0  0  0  0  0
    0.5988   -1.9254    0.0000 C    0  0  0  0  0  0  0  0  0  0  0  0
   -1.7549   -1.1478    0.0000 Br   0  0  0  0  0  0  0  0  0  0  0  0
   -1.4222   -2.7613    0.0000 O    0  0  0  0  0  0  0  0  0  0  0  0
    0.1414   -3.2728    0.0000 O    0  0  0  0  0  0  0  0  0  0  0  0
   -2.2082   -2.4993    0.0000 C    0  0  0  0  0  0  0  0  0  0  0  0
    4.1087    0.2453    0.0000 C    0  0  0  0  0  0  0  0  0  0  0  0
    4.5453   -1.1145    0.0000 C    0  0  0  0  0  0  0  0  0  0  0  0
    0.9149   -3.5306    0.0000 C    0  0  0  0  0  0  0  0  0  0  0  0
    5.3313   -0.8650    0.0000 C    0  0  0  0  0  0  0  0  0  0  0  0
    4.8946    0.4948    0.0000 C    0  0  0  0  0  0  0  0  0  0  0  0
    5.5059   -0.0624    0.0000 C    0  0  0  0  0  0  0  0  0  0  0  0
  2  1  1  0  0  0  0
  3  1  1  0  0  0  0
  4  3  1  0  0  0  0
  5  2  1  0  0  0  0
  5  4  1  0  0  0  0
  6  4  2  0  0  0  0
  7  9  2  0  0  0  0
  7  8  1  0  0  0  0
  8 15  2  0  0  0  0
  9 17  1  0  0  0  0
 10  6  1  0  0  0  0
 11 21  1  0  0  0  0
 12  1  1  0  0  0  0
 13 11  3  0  0  0  0
 14  2  2  0  0  0  0
 15 10  1  0  0  0  0
 16  3  2  0  0  0  0
 17 10  2  0  0  0  0
 18  8  1  0  0  0  0
 19  7  1  0  0  0  0
 20  9  1  0  0  0  0
 21 19  1  0  0  0  0
 22 12  1  0  0  0  0
 23 12  2  0  0  0  0
 24 20  1  0  0  0  0
 25 23  1  0  0  0  0
 26 22  2  0  0  0  0
 27 25  2  0  0  0  0
 27 26  1  0  0  0  0
M  END
> <CdId>
808

> <Mol Weight>
444.298

> <Formula>
C20H14BrNO4S

> <Click_ID>
CLK011_F03 __ __ 

$$$$
