CLK018_H08
 OpenBabel03181417552D

 29 31  0  0  0  0  0  0  0  0999 V2000
    1.5701   -0.8185    0.0000 N    0  0  0  0  0  0  0  0  0  0  0  0
    1.8290   -1.6077    0.0000 C    0  0  0  0  0  0  0  0  0  0  0  0
    2.9106   -0.8185    0.0000 C    0  0  0  0  0  0  0  0  0  0  0  0
    2.2424   -0.3299    0.0000 C    0  0  0  0  0  0  0  0  0  0  0  0
    2.6558   -1.6077    0.0000 S    0  0  0  0  0  0  0  0  0  0  0  0
    3.6998   -0.5637    0.0000 C    0  0  0  0  0  0  0  0  0  0  0  0
    3.8626    0.2380    0.0000 C    0  0  0  0  0  0  0  0  0  0  0  0
    8.4727   -1.9961    0.0000 C    0  0  0  0  0  0  0  0  0  0  0  0
    0.6138    0.2463    0.0000 C    0  0  0  0  0  0  0  0  0  0  0  0
    0.3926    1.0481    0.0000 C    0  0  0  0  0  0  0  0  0  0  0  0
    1.3404   -2.2717    0.0000 O    0  0  0  0  0  0  0  0  0  0  0  0
    4.6393    0.4969    0.0000 C    0  0  0  0  0  0  0  0  0  0  0  0
    2.2341    0.4969    0.0000 O    0  0  0  0  0  0  0  0  0  0  0  0
    7.8589   -1.4532    0.0000 C    0  0  0  0  0  0  0  0  0  0  0  0
    0.7892   -0.5637    0.0000 C    0  0  0  0  0  0  0  0  0  0  0  0
    3.2446    0.7892    0.0000 C    0  0  0  0  0  0  0  0  0  0  0  0
    5.2532   -0.0543    0.0000 O    0  0  0  0  0  0  0  0  0  0  0  0
    9.2619   -1.7455    0.0000 O    0  0  0  0  0  0  0  0  0  0  0  0
    4.8147    1.2986    0.0000 C    0  0  0  0  0  0  0  0  0  0  0  0
    8.0300   -0.6431    0.0000 C    0  0  0  0  0  0  0  0  0  0  0  0
    7.0696   -1.7037    0.0000 C    0  0  0  0  0  0  0  0  0  0  0  0
    3.4116    1.5910    0.0000 C    0  0  0  0  0  0  0  0  0  0  0  0
    8.2973   -2.7978    0.0000 O    0  0  0  0  0  0  0  0  0  0  0  0
    6.0299    0.2088    0.0000 C    0  0  0  0  0  0  0  0  0  0  0  0
    6.6437   -0.3424    0.0000 C    0  0  0  0  0  0  0  0  0  0  0  0
    4.2009    1.8498    0.0000 C    0  0  0  0  0  0  0  0  0  0  0  0
    7.4204   -0.0877    0.0000 C    0  0  0  0  0  0  0  0  0  0  0  0
    6.4641   -1.1567    0.0000 C    0  0  0  0  0  0  0  0  0  0  0  0
    2.8103    2.1505    0.0000 Br   0  0  0  0  0  0  0  0  0  0  0  0
  2  1  1  0  0  0  0
  3  4  1  0  0  0  0
  3  5  1  0  0  0  0
  4  1  1  0  0  0  0
  5  2  1  0  0  0  0
  6  3  2  0  0  0  0
  7  6  1  0  0  0  0
  8 14  1  0  0  0  0
  9 15  1  0  0  0  0
 10  9  3  0  0  0  0
 11  2  2  0  0  0  0
 12  7  1  0  0  0  0
 13  4  2  0  0  0  0
 14 21  2  0  0  0  0
 14 20  1  0  0  0  0
 15  1  1  0  0  0  0
 16  7  2  0  0  0  0
 17 12  1  0  0  0  0
 18  8  2  0  0  0  0
 19 12  2  0  0  0  0
 19 26  1  0  0  0  0
 20 27  2  0  0  0  0
 21 28  1  0  0  0  0
 22 16  1  0  0  0  0
 23  8  1  0  0  0  0
 24 17  1  0  0  0  0
 25 24  1  0  0  0  0
 26 22  2  0  0  0  0
 27 25  1  0  0  0  0
 28 25  2  0  0  0  0
 29 22  1  0  0  0  0
M  END
> <CdId>
1393

> <Mol Weight>
472.309

> <Formula>
C21H14BrNO5S

> <Click_ID>
CLK018_H08 __ __ 

$$$$
