CLK046F05
 OpenBabel03181417552D

 16 16  0  0  0  0  0  0  0  0999 V2000
   -0.0625   -0.0750    0.0000 C   0  0  0  0  0  0  0  0  0  0  0  0
    0.6958   -0.4000    0.0000 C   0  0  0  0  0  0  0  0  0  0  0  0
    1.2416    0.2250    0.0000 C   0  0  0  0  0  0  0  0  0  0  0  0
    0.0125    0.7500    0.0000 N   0  0  0  0  0  0  0  0  0  0  0  0
    0.8166    0.9332    0.0000 C   0  0  0  0  0  0  0  0  0  0  0  0
   -0.7708   -0.4958    0.0000 C   0  0  0  0  0  0  0  0  0  0  0  0
    2.0624    0.1500    0.0000 C   0  0  0  0  0  0  0  0  0  0  0  0
   -2.9165   -0.1167    0.0000 C   0  0  0  0  0  0  0  0  0  0  0  0
   -3.6373    0.2875    0.0000 C   0  0  0  0  0  0  0  0  0  0  0  0
   -0.7583   -1.3207    0.0000 O   0  0  0  0  0  0  0  0  0  0  0  0
    2.4081   -0.6000    0.0000 O   0  0  0  0  0  0  0  0  0  0  0  0
   -1.4916   -0.0958    0.0000 N   0  0  0  0  0  0  0  0  0  0  0  0
    0.8791   -1.2041    0.0000 C   0  0  0  0  0  0  0  0  0  0  0  0
    1.1416    1.6916    0.0000 C   0  0  0  0  0  0  0  0  0  0  0  0
   -2.1999   -0.5167    0.0000 C   0  0  0  0  0  0  0  0  0  0  0  0
    2.5373    0.8249    0.0000 C   0  0  0  0  0  0  0  0  0  0  0  0
  2  1  2  0  0  0  0
  3  2  1  0  0  0  0
  4  1  1  0  0  0  0
  5  4  1  0  0  0  0
  5  3  2  0  0  0  0
  6  1  1  0  0  0  0
  7  3  1  0  0  0  0
  8 15  1  0  0  0  0
  9  8  3  0  0  0  0
 10  6  2  0  0  0  0
 11  7  2  0  0  0  0
 12  6  1  0  0  0  0
 13  2  1  0  0  0  0
 14  5  1  0  0  0  0
 15 12  1  0  0  0  0
 16  7  1  0  0  0  0
M  END
> <CdId>
3518

> <Mol Weight>
218.2518

> <Formula>
C12H14N2O2

> <Click_ID>
CLK046F05 __ __ 

$$$$
