CLK006_E03
 OpenBabel03181417552D

 15 16  0  0  0  0  0  0  0  0999 V2000
    4.9969   -7.3243    0.0000 N   0  0  0  0  0  0  0  0  0  0  0  0
    4.9969   -5.9937    0.0000 C   0  0  0  0  0  0  0  0  0  0  0  0
    4.5172   -6.6569    0.0000 C   0  0  0  0  0  0  0  0  0  0  0  0
    5.7852   -7.0740    0.0000 C   0  0  0  0  0  0  0  0  0  0  0  0
    5.7852   -6.2482    0.0000 C   0  0  0  0  0  0  0  0  0  0  0  0
    3.9416   -8.2878    0.0000 C   0  0  0  0  0  0  0  0  0  0  0  0
    3.1324   -8.4630    0.0000 C   0  0  0  0  0  0  0  0  0  0  0  0
    4.7466   -5.2054    0.0000 C   0  0  0  0  0  0  0  0  0  0  0  0
    4.7466   -8.1126    0.0000 C   0  0  0  0  0  0  0  0  0  0  0  0
    3.9416   -5.0302    0.0000 O   0  0  0  0  0  0  0  0  0  0  0  0
    3.6913   -6.6486    0.0000 C   0  0  0  0  0  0  0  0  0  0  0  0
    6.4984   -7.4869    0.0000 C   0  0  0  0  0  0  0  0  0  0  0  0
    6.4984   -5.8352    0.0000 C   0  0  0  0  0  0  0  0  0  0  0  0
    7.2117   -7.0740    0.0000 C   0  0  0  0  0  0  0  0  0  0  0  0
    7.2117   -6.2482    0.0000 C   0  0  0  0  0  0  0  0  0  0  0  0
  2  3  2  0  0  0  0
  3  1  1  0  0  0  0
  4  1  1  0  0  0  0
  5  4  2  0  0  0  0
  5  2  1  0  0  0  0
  6  9  1  0  0  0  0
  7  6  3  0  0  0  0
  8  2  1  0  0  0  0
  9  1  1  0  0  0  0
 10  8  2  0  0  0  0
 11  3  1  0  0  0  0
 12  4  1  0  0  0  0
 13  5  1  0  0  0  0
 13 15  2  0  0  0  0
 14 12  2  0  0  0  0
 15 14  1  0  0  0  0
M  END
> <CdId>
442

> <Mol Weight>
197.2325

> <Formula>
C13H11NO

> <Click_ID>
CLK006_E03 __ __ 

$$$$
