CLK005_E10
 OpenBabel03181417552D

 18 18  0  0  0  0  0  0  0  0999 V2000
    0.2035    0.5804    0.0000 C   0  0  0  0  0  0  0  0  0  0  0  0
    0.2035    1.3991    0.0000 N   0  0  0  0  0  0  0  0  0  0  0  0
    0.9158    0.1642    0.0000 N   0  0  0  0  0  0  0  0  0  0  0  0
   -0.5203    0.1642    0.0000 N   0  0  0  0  0  0  0  0  0  0  0  0
   -0.5203    1.8153    0.0000 C   0  0  0  0  0  0  0  0  0  0  0  0
    0.9158    1.8153    0.0000 C   0  0  0  0  0  0  0  0  0  0  0  0
    0.9158   -0.6660    0.0000 C   0  0  0  0  0  0  0  0  0  0  0  0
   -0.5203   -0.6660    0.0000 C   0  0  0  0  0  0  0  0  0  0  0  0
   -1.2303    1.3991    0.0000 C   0  0  0  0  0  0  0  0  0  0  0  0
    1.6257    2.2293    0.0000 N   0  0  0  0  0  0  0  0  0  0  0  0
    0.2035   -1.0684    0.0000 N   0  0  0  0  0  0  0  0  0  0  0  0
    1.6396   -1.0823    0.0000 N   0  0  0  0  0  0  0  0  0  0  0  0
   -1.2442   -1.0823    0.0000 N   0  0  0  0  0  0  0  0  0  0  0  0
   -1.9426    0.9828    0.0000 C   0  0  0  0  0  0  0  0  0  0  0  0
    1.6396   -1.9148    0.0000 C   0  0  0  0  0  0  0  0  0  0  0  0
   -1.9680   -0.6660    0.0000 C   0  0  0  0  0  0  0  0  0  0  0  0
    2.3495   -2.3311    0.0000 C   0  0  0  0  0  0  0  0  0  0  0  0
   -2.6803   -1.0823    0.0000 C   0  0  0  0  0  0  0  0  0  0  0  0
  1  2  1  0  0  0  0
  1  3  1  0  0  0  0
  1  4  2  0  0  0  0
  2  5  1  0  0  0  0
  2  6  1  0  0  0  0
  3  7  2  0  0  0  0
  4  8  1  0  0  0  0
  5  9  1  0  0  0  0
  6 10  3  0  0  0  0
  7 11  1  0  0  0  0
  7 12  1  0  0  0  0
  8 13  1  0  0  0  0
  8 11  2  0  0  0  0
  9 14  3  0  0  0  0
 12 15  1  0  0  0  0
 13 16  1  0  0  0  0
 15 17  1  0  0  0  0
 16 18  1  0  0  0  0
M  END
> <CdId>
369

> <Mol Weight>
245.2837

> <Formula>
C11H15N7

> <Click_ID>
CLK005_E10 __ __ 

$$$$
