CLK023_G05
 OpenBabel03181417552D

 22 24  0  0  0  0  0  0  0  0999 V2000
   -2.1703    0.4252    0.0000 N   0  0  0  0  0  0  0  0  0  0  0  0
   -2.7292   -0.1920    0.0000 C   0  0  0  0  0  0  0  0  0  0  0  0
   -1.5120   -0.7303    0.0000 C   0  0  0  0  0  0  0  0  0  0  0  0
   -1.4160    0.0788    0.0000 C   0  0  0  0  0  0  0  0  0  0  0  0
   -2.3177   -0.9051    0.0000 S   0  0  0  0  0  0  0  0  0  0  0  0
    1.2103   -1.0491    0.0000 C   0  0  0  0  0  0  0  0  0  0  0  0
   -0.9017   -1.2892    0.0000 C   0  0  0  0  0  0  0  0  0  0  0  0
    0.5383   -1.5257    0.0000 O   0  0  0  0  0  0  0  0  0  0  0  0
   -0.1200   -1.0423    0.0000 C   0  0  0  0  0  0  0  0  0  0  0  0
    1.9920   -1.3097    0.0000 N   0  0  0  0  0  0  0  0  0  0  0  0
    0.9600   -0.2606    0.0000 C   0  0  0  0  0  0  0  0  0  0  0  0
   -1.7212    1.7760    0.0000 C   0  0  0  0  0  0  0  0  0  0  0  0
    0.1405   -0.2537    0.0000 C   0  0  0  0  0  0  0  0  0  0  0  0
   -1.1383    2.3725    0.0000 C   0  0  0  0  0  0  0  0  0  0  0  0
   -3.5486   -0.0926    0.0000 O   0  0  0  0  0  0  0  0  0  0  0  0
   -0.7063    0.4972    0.0000 O   0  0  0  0  0  0  0  0  0  0  0  0
   -2.3349    1.2240    0.0000 C   0  0  0  0  0  0  0  0  0  0  0  0
    2.1532   -2.1086    0.0000 C   0  0  0  0  0  0  0  0  0  0  0  0
    2.5988   -0.7680    0.0000 C   0  0  0  0  0  0  0  0  0  0  0  0
    3.3840   -1.0286    0.0000 C   0  0  0  0  0  0  0  0  0  0  0  0
    2.9314   -2.3692    0.0000 C   0  0  0  0  0  0  0  0  0  0  0  0
    3.5451   -1.8377    0.0000 C   0  0  0  0  0  0  0  0  0  0  0  0
  2  1  1  0  0  0  0
  3  4  1  0  0  0  0
  4  1  1  0  0  0  0
  5  2  1  0  0  0  0
  5  3  1  0  0  0  0
  6  8  1  0  0  0  0
  7  3  2  0  0  0  0
  8  9  1  0  0  0  0
  9  7  1  0  0  0  0
 10  6  1  0  0  0  0
 11 13  1  0  0  0  0
 11  6  2  0  0  0  0
 12 17  1  0  0  0  0
 13  9  2  0  0  0  0
 14 12  3  0  0  0  0
 15  2  2  0  0  0  0
 16  4  2  0  0  0  0
 17  1  1  0  0  0  0
 18 10  1  0  0  0  0
 19 10  1  0  0  0  0
 20 19  1  0  0  0  0
 21 18  1  0  0  0  0
 22 20  1  0  0  0  0
 22 21  1  0  0  0  0
M  END
> <CdId>
1760

> <Mol Weight>
316.375

> <Formula>
C16H16N2O3S

> <Click_ID>
CLK023_G05 __ __ 

$$$$
