CLK052B05
 OpenBabel03181417552D

 34 37  0  0  0  0  0  0  0  0999 V2000
   -1.2375    2.2917    0.0000 C   0  0  0  0  0  0  0  0  0  0  0  0
   -1.2375    1.4667    0.0000 C   0  0  0  0  0  0  0  0  0  0  0  0
   -0.5250    2.7042    0.0000 N   0  0  0  0  0  0  0  0  0  0  0  0
   -0.5250    1.0542    0.0000 C   0  0  2  0  0  0  0  0  0  0  0  0
   -2.0250    2.5458    0.0000 N   0  0  0  0  0  0  0  0  0  0  0  0
   -2.5083    1.8792    0.0000 N   0  0  0  0  0  0  0  0  0  0  0  0
    0.1917    1.4667    0.0000 C   0  0  1  0  0  0  0  0  0  0  0  0
   -2.0250    1.2125    0.0000 C   0  0  0  0  0  0  0  0  0  0  0  0
    0.1917    2.2917    0.0000 C   0  0  0  0  0  0  0  0  0  0  0  0
    0.9042    1.0542    0.0000 N   0  0  0  0  0  0  0  0  0  0  0  0
   -0.5250    0.2292    0.0000 C   0  0  0  0  0  0  0  0  0  0  0  0
    0.9042    0.2292    0.0000 C   0  0  0  0  0  0  0  0  0  0  0  0
    0.1917   -0.1833    0.0000 C   0  0  0  0  0  0  0  0  0  0  0  0
   -1.2375   -3.4833    0.0000 C   0  0  0  0  0  0  0  0  0  0  0  0
   -1.2375   -4.3083    0.0000 C   0  0  0  0  0  0  0  0  0  0  0  0
    0.1917   -1.0083    0.0000 C   0  0  0  0  0  0  0  0  0  0  0  0
    0.9042    2.7042    0.0000 O   0  0  0  0  0  0  0  0  0  0  0  0
   -1.2375   -0.1833    0.0000 C   0  0  0  0  0  0  0  0  0  0  0  0
   -0.5250   -1.4208    0.0000 C   0  0  0  0  0  0  0  0  0  0  0  0
    0.0792    0.2292    0.0000 O   0  0  0  0  0  0  0  0  0  0  0  0
    1.6208   -0.1833    0.0000 C   0  0  0  0  0  0  0  0  0  0  0  0
   -1.2375   -1.0083    0.0000 C   0  0  0  0  0  0  0  0  0  0  0  0
   -2.2792    3.3333    0.0000 C   0  0  0  0  0  0  0  0  0  0  0  0
   -2.2792    0.4292    0.0000 C   0  0  0  0  0  0  0  0  0  0  0  0
    0.9042   -1.4208    0.0000 O   0  0  0  0  0  0  0  0  0  0  0  0
   -0.5250   -2.2458    0.0000 O   0  0  0  0  0  0  0  0  0  0  0  0
   -1.2375   -2.6583    0.0000 C   0  0  0  0  0  0  0  0  0  0  0  0
    1.6208   -1.0083    0.0000 C   0  0  0  0  0  0  0  0  0  0  0  0
    2.3333    0.2292    0.0000 C   0  0  0  0  0  0  0  0  0  0  0  0
    1.7292   -1.4208    0.0000 C   0  0  0  0  0  0  0  0  0  0  0  0
    2.1417   -2.1333    0.0000 C   0  0  0  0  0  0  0  0  0  0  0  0
    3.0500   -0.1833    0.0000 C   0  0  0  0  0  0  0  0  0  0  0  0
    2.3333   -1.4208    0.0000 C   0  0  0  0  0  0  0  0  0  0  0  0
    3.0500   -1.0083    0.0000 C   0  0  0  0  0  0  0  0  0  0  0  0
  2  1  2  0  0  0  0
  3  1  1  0  0  0  0
  4  2  1  0  0  0  0
  4 11  1  6  0  0  0
  5  1  1  0  0  0  0
  6  5  1  0  0  0  0
  6  8  2  0  0  0  0
  7  4  1  0  0  0  0
  7 10  1  1  0  0  0
  8  2  1  0  0  0  0
  9  3  1  0  0  0  0
  9  7  1  0  0  0  0
 12 10  1  0  0  0  0
 13 11  2  0  0  0  0
 14 27  1  0  0  0  0
 15 14  3  0  0  0  0
 16 13  1  0  0  0  0
 17  9  2  0  0  0  0
 18 11  1  0  0  0  0
 19 22  1  0  0  0  0
 19 16  2  0  0  0  0
 20 12  2  0  0  0  0
 21 12  1  0  0  0  0
 22 18  2  0  0  0  0
 23  5  1  0  0  0  0
 24  8  1  0  0  0  0
 25 16  1  0  0  0  0
 26 19  1  0  0  0  0
 27 26  1  0  0  0  0
 28 21  1  0  0  0  0
 29 21  2  0  0  0  0
 30 25  1  0  0  0  0
 31 30  1  0  0  0  0
 32 29  1  0  0  0  0
 33 28  2  0  0  0  0
 34 32  2  0  0  0  0
 34 33  1  0  0  0  0
M  END
> <CdId>
3994

> <Mol Weight>
458.509

> <Formula>
C26H26N4O4

> <Click_ID>
CLK052B05 __ __ 

$$$$
