CLK035_E05
 OpenBabel03181417552D

 26 28  0  0  0  0  0  0  0  0999 V2000
   -4.5765    2.5462    0.0000 C   0  0  0  0  0  0  0  0  0  0  0  0
   -3.1536    5.0342    0.0000 N   0  0  0  0  0  0  0  0  0  0  0  0
   -4.6763    1.7307    0.0000 N   0  0  0  0  0  0  0  0  0  0  0  0
   -3.8650    2.9664    0.0000 N   0  0  0  0  0  0  0  0  0  0  0  0
   -5.3129    2.8915    0.0000 S   0  0  0  0  0  0  0  0  0  0  0  0
   -5.4793    1.5727    0.0000 C   0  0  0  0  0  0  0  0  0  0  0  0
   -5.8870    2.2924    0.0000 C   0  0  0  0  0  0  0  0  0  0  0  0
   -2.4796    5.5085    0.0000 C   0  0  0  0  0  0  0  0  0  0  0  0
   -3.8151    5.5085    0.0000 C   0  0  0  0  0  0  0  0  0  0  0  0
   -3.8650    3.7943    0.0000 C   0  0  0  0  0  0  0  0  0  0  0  0
   -3.1536    4.2062    0.0000 C   0  0  0  0  0  0  0  0  0  0  0  0
   -4.2437    0.3495    0.0000 C   0  0  0  0  0  0  0  0  0  0  0  0
   -4.4267   -0.4618    0.0000 C   0  0  0  0  0  0  0  0  0  0  0  0
   -5.9037    0.8695    0.0000 C   0  0  0  0  0  0  0  0  0  0  0  0
   -3.5655    6.2948    0.0000 C   0  0  0  0  0  0  0  0  0  0  0  0
   -2.7417    6.3031    0.0000 C   0  0  0  0  0  0  0  0  0  0  0  0
   -4.6014    5.2671    0.0000 O   0  0  0  0  0  0  0  0  0  0  0  0
   -1.6933    5.2547    0.0000 O   0  0  0  0  0  0  0  0  0  0  0  0
   -4.5890    4.1979    0.0000 O   0  0  0  0  0  0  0  0  0  0  0  0
   -4.0565    1.1566    0.0000 C   0  0  0  0  0  0  0  0  0  0  0  0
   -6.6942    2.3091    0.0000 C   0  0  0  0  0  0  0  0  0  0  0  0
   -5.5126    0.1373    0.0000 O   0  0  0  0  0  0  0  0  0  0  0  0
   -7.1311    1.6059    0.0000 C   0  0  0  0  0  0  0  0  0  0  0  0
   -6.7192    0.8820    0.0000 C   0  0  0  0  0  0  0  0  0  0  0  0
   -5.9369   -0.5659    0.0000 C   0  0  0  0  0  0  0  0  0  0  0  0
   -5.5542   -1.2773    0.0000 C   0  0  0  0  0  0  0  0  0  0  0  0
  2 11  1  0  0  0  0
  3  1  1  0  0  0  0
  4  1  2  0  0  0  0
  5  1  1  0  0  0  0
  6  3  1  0  0  0  0
  7  5  1  0  0  0  0
  7  6  2  0  0  0  0
  8  2  1  0  0  0  0
  9  2  1  0  0  0  0
 10  4  1  0  0  0  0
 11 10  1  0  0  0  0
 12 20  1  0  0  0  0
 13 12  3  0  0  0  0
 14  6  1  0  0  0  0
 15  9  1  0  0  0  0
 15 16  1  0  0  0  0
 16  8  1  0  0  0  0
 17  9  2  0  0  0  0
 18  8  2  0  0  0  0
 19 10  2  0  0  0  0
 20  3  1  0  0  0  0
 21  7  1  0  0  0  0
 22 14  1  0  0  0  0
 23 21  2  0  0  0  0
 24 14  2  0  0  0  0
 24 23  1  0  0  0  0
 25 22  1  0  0  0  0
 26 25  1  0  0  0  0
M  END
> <CdId>
2689

> <Mol Weight>
371.41

> <Formula>
C18H17N3O4S

> <Click_ID>
CLK035_E05 __ __ 

$$$$
