CLK014_C10
 OpenBabel03181417552D

 27 29  0  0  0  0  0  0  0  0999 V2000
    6.1728   -2.2644    0.0000 N    0  0  0  0  0  0  0  0  0  0  0  0
    5.6484   -2.9137    0.0000 C    0  0  0  0  0  0  0  0  0  0  0  0
    4.9241   -1.7857    0.0000 C    0  0  0  0  0  0  0  0  0  0  0  0
    5.7233   -1.5734    0.0000 C    0  0  0  0  0  0  0  0  0  0  0  0
    4.8742   -2.6140    0.0000 S    0  0  0  0  0  0  0  0  0  0  0  0
    4.2873   -1.2654    0.0000 C    0  0  0  0  0  0  0  0  0  0  0  0
    3.5089   -1.5651    0.0000 C    0  0  0  0  0  0  0  0  0  0  0  0
    6.9970   -2.3143    0.0000 C    0  0  0  0  0  0  0  0  0  0  0  0
    5.8606   -3.7087    0.0000 S    0  0  0  0  0  0  0  0  0  0  0  0
    2.4891    1.1072    0.0000 C    0  0  0  0  0  0  0  0  0  0  0  0
    2.6140    1.9188    0.0000 C    0  0  0  0  0  0  0  0  0  0  0  0
    6.0230   -0.8034    0.0000 O    0  0  0  0  0  0  0  0  0  0  0  0
    2.8637   -1.0406    0.0000 C    0  0  0  0  0  0  0  0  0  0  0  0
    3.3757   -2.3767    0.0000 C    0  0  0  0  0  0  0  0  0  0  0  0
    2.0978   -1.3361    0.0000 C    0  0  0  0  0  0  0  0  0  0  0  0
    2.6015   -2.6764    0.0000 C    0  0  0  0  0  0  0  0  0  0  0  0
    7.4465   -1.6275    0.0000 C    0  0  0  0  0  0  0  0  0  0  0  0
    1.9647   -2.1520    0.0000 C    0  0  0  0  0  0  0  0  0  0  0  0
    2.4766   -3.4881    0.0000 Br   0  0  0  0  0  0  0  0  0  0  0  0
    2.9969   -0.2290    0.0000 O    0  0  0  0  0  0  0  0  0  0  0  0
    8.2707   -1.6733    0.0000 C    0  0  0  0  0  0  0  0  0  0  0  0
    2.3601    0.2955    0.0000 C    0  0  0  0  0  0  0  0  0  0  0  0
    8.6328   -2.4100    0.0000 C    0  0  0  0  0  0  0  0  0  0  0  0
    8.7160   -0.9782    0.0000 C    0  0  0  0  0  0  0  0  0  0  0  0
    9.4569   -2.4517    0.0000 C    0  0  0  0  0  0  0  0  0  0  0  0
    9.5401   -1.0281    0.0000 C    0  0  0  0  0  0  0  0  0  0  0  0
    9.9065   -1.7649    0.0000 C    0  0  0  0  0  0  0  0  0  0  0  0
  2  1  1  0  0  0  0
  3  4  1  0  0  0  0
  4  1  1  0  0  0  0
  5  2  1  0  0  0  0
  5  3  1  0  0  0  0
  6  3  2  0  0  0  0
  7  6  1  0  0  0  0
  8  1  1  0  0  0  0
  9  2  2  0  0  0  0
 10 22  1  0  0  0  0
 11 10  3  0  0  0  0
 12  4  2  0  0  0  0
 13  7  2  0  0  0  0
 14  7  1  0  0  0  0
 15 13  1  0  0  0  0
 16 14  2  0  0  0  0
 17  8  1  0  0  0  0
 18 16  1  0  0  0  0
 18 15  2  0  0  0  0
 19 16  1  0  0  0  0
 20 13  1  0  0  0  0
 21 17  1  0  0  0  0
 22 20  1  0  0  0  0
 23 21  2  0  0  0  0
 24 21  1  0  0  0  0
 25 23  1  0  0  0  0
 26 24  2  0  0  0  0
 27 26  1  0  0  0  0
 27 25  2  0  0  0  0
M  END
> <CdId>
1025

> <Mol Weight>
458.391

> <Formula>
C21H16BrNO2S2

> <Click_ID>
CLK014_C10 __ __ 

$$$$
