CLK025_F02
 OpenBabel03181417552D

 26 29  0  0  0  0  0  0  0  0999 V2000
   -0.6022   -1.0608    0.0000 N    0  0  0  0  0  0  0  0  0  0  0  0
   -1.1771   -0.5270    0.0000 C    0  0  0  0  0  0  0  0  0  0  0  0
   -0.9376   -1.7725    0.0000 C    0  0  0  0  0  0  0  0  0  0  0  0
   -1.7143   -1.6801    0.0000 C    0  0  3  0  0  0  0  0  0  0  0  0
   -1.8718   -0.9136    0.0000 C    0  0  3  0  0  0  0  0  0  0  0  0
    0.1677   -0.9204    0.0000 N    0  0  0  0  0  0  0  0  0  0  0  0
    1.4612   -1.0847    0.0000 C    0  0  0  0  0  0  0  0  0  0  0  0
    0.7528   -1.4988    0.0000 C    0  0  0  0  0  0  0  0  0  0  0  0
   -3.4287   -0.9376    0.0000 C    0  0  0  0  0  0  0  0  0  0  0  0
   -3.3158   -1.6835    0.0000 C    0  0  0  0  0  0  0  0  0  0  0  0
   -2.4705   -1.3311    0.0000 C    0  0  3  0  0  0  0  0  0  0  0  0
   -2.6177   -0.5783    0.0000 C    0  0  3  0  0  0  0  0  0  0  0  0
    0.7151    1.6767    0.0000 C    0  0  0  0  0  0  0  0  0  0  0  0
    0.9273    2.4705    0.0000 C    0  0  0  0  0  0  0  0  0  0  0  0
   -0.5646   -2.4672    0.0000 O    0  0  0  0  0  0  0  0  0  0  0  0
   -1.0744    0.2498    0.0000 O    0  0  0  0  0  0  0  0  0  0  0  0
    1.6733   -0.2874    0.0000 C    0  0  0  0  0  0  0  0  0  0  0  0
    2.0428   -1.6596    0.0000 C    0  0  0  0  0  0  0  0  0  0  0  0
   -2.5835    0.3182    0.0000 C    0  0  0  0  0  0  0  0  0  0  0  0
   -2.3337   -0.2874    0.0000 C    0  0  0  0  0  0  0  0  0  0  0  0
    2.4705   -0.0684    0.0000 C    0  0  0  0  0  0  0  0  0  0  0  0
    2.8436   -1.4474    0.0000 C    0  0  0  0  0  0  0  0  0  0  0  0
    3.0557   -0.6502    0.0000 C    0  0  0  0  0  0  0  0  0  0  0  0
    3.4252   -2.0326    0.0000 Br   0  0  0  0  0  0  0  0  0  0  0  0
    1.0881    0.2943    0.0000 O    0  0  0  0  0  0  0  0  0  0  0  0
    1.3003    1.0916    0.0000 C    0  0  0  0  0  0  0  0  0  0  0  0
  2  1  1  0  0  0  0
  3  1  1  0  0  0  0
  4  3  1  0  0  0  0
  5  2  1  0  0  0  0
  5  4  1  0  0  0  0
  6  1  1  0  0  0  0
  7  8  1  0  0  0  0
  8  6  2  0  0  0  0
  9 12  1  0  0  0  0
 10 11  1  0  0  0  0
 10  9  2  0  0  0  0
 11  4  1  0  0  0  0
 12  5  1  0  0  0  0
 13 26  1  0  0  0  0
 14 13  3  0  0  0  0
 15  3  2  0  0  0  0
 16  2  2  0  0  0  0
 17  7  2  0  0  0  0
 18  7  1  0  0  0  0
 19 12  1  0  0  0  0
 20 11  1  0  0  0  0
 20 19  1  0  0  0  0
 21 17  1  0  0  0  0
 22 18  2  0  0  0  0
 23 22  1  0  0  0  0
 23 21  2  0  0  0  0
 24 22  1  0  0  0  0
 25 17  1  0  0  0  0
 26 25  1  0  0  0  0
M  END
> <CdId>
1907

> <Mol Weight>
413.265

> <Formula>
C20H17BrN2O3

> <Click_ID>
CLK025_F02 __ __ 

$$$$
