CLK015_H02
 OpenBabel03181417552D

 29 31  0  0  0  0  0  0  0  0999 V2000
    5.6173   -3.6508    0.0000 N    0  0  0  0  0  0  0  0  0  0  0  0
    4.9078   -4.0615    0.0000 C    0  0  0  0  0  0  0  0  0  0  0  0
    5.4555   -2.8418    0.0000 C    0  0  0  0  0  0  0  0  0  0  0  0
    4.6340   -2.7505    0.0000 C    0  0  0  0  0  0  0  0  0  0  0  0
    4.2980   -3.5015    0.0000 S    0  0  0  0  0  0  0  0  0  0  0  0
    1.7342   -2.0329    0.0000 C    0  0  0  0  0  0  0  0  0  0  0  0
    4.2233   -2.0329    0.0000 C    0  0  0  0  0  0  0  0  0  0  0  0
    2.1573   -2.7505    0.0000 C    0  0  0  0  0  0  0  0  0  0  0  0
    2.1573   -1.3193    0.0000 C    0  0  0  0  0  0  0  0  0  0  0  0
    3.3894   -2.0329    0.0000 C    0  0  0  0  0  0  0  0  0  0  0  0
    0.9127   -2.0411    0.0000 O    0  0  0  0  0  0  0  0  0  0  0  0
    6.4594   -4.8083    0.0000 C    0  0  0  0  0  0  0  0  0  0  0  0
    6.4511   -5.6297    0.0000 C    0  0  0  0  0  0  0  0  0  0  0  0
    4.8165   -4.8829    0.0000 O    0  0  0  0  0  0  0  0  0  0  0  0
    2.9787   -2.7505    0.0000 C    0  0  0  0  0  0  0  0  0  0  0  0
    6.0113   -2.2320    0.0000 O    0  0  0  0  0  0  0  0  0  0  0  0
    2.9787   -1.3193    0.0000 C    0  0  0  0  0  0  0  0  0  0  0  0
    6.3764   -3.9868    0.0000 C    0  0  0  0  0  0  0  0  0  0  0  0
    1.7424   -3.4599    0.0000 Br   0  0  0  0  0  0  0  0  0  0  0  0
    0.5020   -2.7505    0.0000 C    0  0  0  0  0  0  0  0  0  0  0  0
    1.7466   -0.6016    0.0000 O    0  0  0  0  0  0  0  0  0  0  0  0
   -0.7343   -2.0411    0.0000 C    0  0  0  0  0  0  0  0  0  0  0  0
   -1.5557   -2.0411    0.0000 C    0  0  0  0  0  0  0  0  0  0  0  0
   -0.3194   -2.7505    0.0000 C    0  0  0  0  0  0  0  0  0  0  0  0
   -1.9623   -1.3317    0.0000 Cl   0  0  0  0  0  0  0  0  0  0  0  0
   -1.5515   -3.4724    0.0000 C    0  0  0  0  0  0  0  0  0  0  0  0
   -1.9664   -2.7547    0.0000 C    0  0  0  0  0  0  0  0  0  0  0  0
   -0.7301   -3.4724    0.0000 C    0  0  0  0  0  0  0  0  0  0  0  0
    0.9127   -0.6016    0.0000 C    0  0  0  0  0  0  0  0  0  0  0  0
  2  1  1  0  0  0  0
  3  1  1  0  0  0  0
  4  3  1  0  0  0  0
  5  2  1  0  0  0  0
  5  4  1  0  0  0  0
  6  9  2  0  0  0  0
  7  4  2  0  0  0  0
  8 15  2  0  0  0  0
  8  6  1  0  0  0  0
  9 17  1  0  0  0  0
 10  7  1  0  0  0  0
 11  6  1  0  0  0  0
 12 18  1  0  0  0  0
 13 12  3  0  0  0  0
 14  2  2  0  0  0  0
 15 10  1  0  0  0  0
 16  3  2  0  0  0  0
 17 10  2  0  0  0  0
 18  1  1  0  0  0  0
 19  8  1  0  0  0  0
 20 11  1  0  0  0  0
 21  9  1  0  0  0  0
 22 24  2  0  0  0  0
 23 22  1  0  0  0  0
 24 20  1  0  0  0  0
 25 23  1  0  0  0  0
 26 28  2  0  0  0  0
 27 26  1  0  0  0  0
 27 23  2  0  0  0  0
 28 24  1  0  0  0  0
 29 21  1  0  0  0  0
M  END
> <CdId>
1147

> <Mol Weight>
492.77

> <Formula>
C21H15BrClNO4S

> <Click_ID>
CLK015_H02 __ __ 

$$$$
