CLK033_C11
 OpenBabel03181417552D

 26 28  0  0  0  0  0  0  0  0999 V2000
   -4.5918    2.5561    0.0000 C   0  0  0  0  0  0  0  0  0  0  0  0
   -3.8592    2.9807    0.0000 N   0  0  0  0  0  0  0  0  0  0  0  0
   -4.6792    1.7318    0.0000 N   0  0  0  0  0  0  0  0  0  0  0  0
   -5.3162    2.8933    0.0000 S   0  0  0  0  0  0  0  0  0  0  0  0
   -5.4828    1.5819    0.0000 C   0  0  0  0  0  0  0  0  0  0  0  0
   -5.8907    2.2981    0.0000 C   0  0  0  0  0  0  0  0  0  0  0  0
   -3.8675    3.7968    0.0000 C   0  0  0  0  0  0  0  0  0  0  0  0
   -4.2546    0.3580    0.0000 C   0  0  0  0  0  0  0  0  0  0  0  0
   -4.4420   -0.4538    0.0000 C   0  0  0  0  0  0  0  0  0  0  0  0
   -3.1556    4.2089    0.0000 C   0  0  0  0  0  0  0  0  0  0  0  0
   -5.9157    0.8826    0.0000 C   0  0  0  0  0  0  0  0  0  0  0  0
   -1.7110    5.0248    0.0000 C   0  0  0  0  0  0  0  0  0  0  0  0
   -0.9950    5.4453    0.0000 C   0  0  0  0  0  0  0  0  0  0  0  0
   -4.5793    4.2131    0.0000 O   0  0  0  0  0  0  0  0  0  0  0  0
   -4.0673    1.1615    0.0000 C   0  0  0  0  0  0  0  0  0  0  0  0
   -0.2830    5.0373    0.0000 O   0  0  0  0  0  0  0  0  0  0  0  0
   -2.4354    3.8051    0.0000 C   0  0  0  0  0  0  0  0  0  0  0  0
   -3.1473    5.0373    0.0000 C   0  0  0  0  0  0  0  0  0  0  0  0
   -1.7193    4.2089    0.0000 C   0  0  0  0  0  0  0  0  0  0  0  0
   -2.4312    5.4495    0.0000 C   0  0  0  0  0  0  0  0  0  0  0  0
   -6.6985    2.3188    0.0000 C   0  0  0  0  0  0  0  0  0  0  0  0
   -5.5161    0.1457    0.0000 O   0  0  0  0  0  0  0  0  0  0  0  0
   -7.1356    1.6194    0.0000 C   0  0  0  0  0  0  0  0  0  0  0  0
   -6.7234    0.8868    0.0000 C   0  0  0  0  0  0  0  0  0  0  0  0
   -0.9950    6.2738    0.0000 C   0  0  0  0  0  0  0  0  0  0  0  0
   -5.9532   -0.5537    0.0000 C   0  0  0  0  0  0  0  0  0  0  0  0
  2  1  2  0  0  0  0
  3  1  1  0  0  0  0
  4  1  1  0  0  0  0
  5  3  1  0  0  0  0
  6  4  1  0  0  0  0
  6  5  2  0  0  0  0
  7  2  1  0  0  0  0
  8 15  1  0  0  0  0
  9  8  3  0  0  0  0
 10  7  1  0  0  0  0
 11  5  1  0  0  0  0
 12 20  1  0  0  0  0
 12 19  2  0  0  0  0
 13 12  1  0  0  0  0
 14  7  2  0  0  0  0
 15  3  1  0  0  0  0
 16 13  2  0  0  0  0
 17 10  2  0  0  0  0
 18 10  1  0  0  0  0
 19 17  1  0  0  0  0
 20 18  2  0  0  0  0
 21  6  1  0  0  0  0
 22 11  1  0  0  0  0
 23 21  2  0  0  0  0
 24 11  2  0  0  0  0
 24 23  1  0  0  0  0
 25 13  1  0  0  0  0
 26 22  1  0  0  0  0
M  END
> <CdId>
2515

> <Mol Weight>
364.418

> <Formula>
C20H16N2O3S

> <Click_ID>
CLK033_C11 __ __ 

$$$$
