CLK021_A05
 OpenBabel03181417552D

 26 27  0  0  0  0  0  0  0  0999 V2000
    5.6696    2.4429    0.0000 C    0  0  0  0  0  0  0  0  0  0  0  0
    2.7821    1.7279    0.0000 C    0  0  0  0  0  0  0  0  0  0  0  0
    5.2571    1.7279    0.0000 C    0  0  0  0  0  0  0  0  0  0  0  0
    3.1946    1.0129    0.0000 C    0  0  0  0  0  0  0  0  0  0  0  0
    3.1946    2.4429    0.0000 C    0  0  0  0  0  0  0  0  0  0  0  0
    4.4321    1.7279    0.0000 C    0  0  0  0  0  0  0  0  0  0  0  0
    6.4946    2.4429    0.0000 C    0  0  0  0  0  0  0  0  0  0  0  0
    7.3196    2.4429    0.0000 N    0  0  0  0  0  0  0  0  0  0  0  0
    4.0196    5.2984    0.0000 C    0  0  0  0  0  0  0  0  0  0  0  0
    0.7196    2.4429    0.0000 C    0  0  0  0  0  0  0  0  0  0  0  0
   -0.1054    2.4429    0.0000 C    0  0  0  0  0  0  0  0  0  0  0  0
    5.2571    3.1579    0.0000 C    0  0  0  0  0  0  0  0  0  0  0  0
    4.0196    1.0129    0.0000 C    0  0  0  0  0  0  0  0  0  0  0  0
    4.0196    2.4429    0.0000 C    0  0  0  0  0  0  0  0  0  0  0  0
    4.4321    4.5834    0.0000 C    0  0  0  0  0  0  0  0  0  0  0  0
    4.4321    6.0134    0.0000 O    0  0  0  0  0  0  0  0  0  0  0  0
    4.4321    3.1579    0.0000 C    0  0  0  0  0  0  0  0  0  0  0  0
    5.6696    3.8729    0.0000 C    0  0  0  0  0  0  0  0  0  0  0  0
    4.0196    3.8729    0.0000 C    0  0  0  0  0  0  0  0  0  0  0  0
    5.2571    4.5834    0.0000 C    0  0  0  0  0  0  0  0  0  0  0  0
    2.7821    0.2979    0.0000 Br   0  0  0  0  0  0  0  0  0  0  0  0
    1.9571    1.7279    0.0000 O    0  0  0  0  0  0  0  0  0  0  0  0
    3.1946    5.2984    0.0000 O    0  0  0  0  0  0  0  0  0  0  0  0
    2.7821    3.1579    0.0000 O    0  0  0  0  0  0  0  0  0  0  0  0
    1.5446    2.4429    0.0000 C    0  0  0  0  0  0  0  0  0  0  0  0
    3.1946    3.8729    0.0000 C    0  0  0  0  0  0  0  0  0  0  0  0
  2  5  2  0  0  0  0
  3  1  2  0  0  0  0
  4 13  2  0  0  0  0
  4  2  1  0  0  0  0
  5 14  1  0  0  0  0
  6  3  1  0  0  0  0
  7  1  1  0  0  0  0
  8  7  3  0  0  0  0
  9 15  1  0  0  0  0
 10 25  1  0  0  0  0
 11 10  3  0  0  0  0
 12  1  1  0  0  0  0
 13  6  1  0  0  0  0
 14  6  2  0  0  0  0
 15 20  1  0  0  0  0
 15 19  2  0  0  0  0
 16  9  2  0  0  0  0
 17 12  2  0  0  0  0
 18 12  1  0  0  0  0
 19 17  1  0  0  0  0
 20 18  2  0  0  0  0
 21  4  1  0  0  0  0
 22  2  1  0  0  0  0
 23  9  1  0  0  0  0
 24  5  1  0  0  0  0
 25 22  1  0  0  0  0
 26 24  1  0  0  0  0
M  END
> <CdId>
1560

> <Mol Weight>
412.233

> <Formula>
C20H14BrNO4

> <Click_ID>
CLK021_A05 __ __ 

$$$$
