CLK015_B02
 OpenBabel03181417552D

 27 29  0  0  0  0  0  0  0  0999 V2000
    4.8959   -2.2212    0.0000 N   0  0  0  0  0  0  0  0  0  0  0  0
    4.8959   -3.0366    0.0000 C   0  0  0  0  0  0  0  0  0  0  0  0
    4.1097   -1.9592    0.0000 C   0  0  0  0  0  0  0  0  0  0  0  0
    3.6189   -2.6248    0.0000 C   0  0  0  0  0  0  0  0  0  0  0  0
    4.1056   -3.2944    0.0000 S   0  0  0  0  0  0  0  0  0  0  0  0
    2.7953   -2.6206    0.0000 C   0  0  0  0  0  0  0  0  0  0  0  0
    5.5573   -3.5357    0.0000 S   0  0  0  0  0  0  0  0  0  0  0  0
    1.1231   -6.9383    0.0000 C   0  0  0  0  0  0  0  0  0  0  0  0
    0.7030   -7.6537    0.0000 C   0  0  0  0  0  0  0  0  0  0  0  0
    3.8602   -1.1647    0.0000 O   0  0  0  0  0  0  0  0  0  0  0  0
    5.5698   -1.7263    0.0000 C   0  0  0  0  0  0  0  0  0  0  0  0
    2.3752   -3.3443    0.0000 C   0  0  0  0  0  0  0  0  0  0  0  0
    1.5349   -4.7836    0.0000 C   0  0  0  0  0  0  0  0  0  0  0  0
    2.7828   -4.0598    0.0000 C   0  0  0  0  0  0  0  0  0  0  0  0
    1.5391   -3.3361    0.0000 C   0  0  0  0  0  0  0  0  0  0  0  0
    2.3627   -4.7711    0.0000 C   0  0  0  0  0  0  0  0  0  0  0  0
    1.1231   -4.0474    0.0000 C   0  0  0  0  0  0  0  0  0  0  0  0
    1.5266   -6.2187    0.0000 C   0  0  0  0  0  0  0  0  0  0  0  0
    1.1231   -5.5032    0.0000 O   0  0  0  0  0  0  0  0  0  0  0  0
    6.3185   -2.0715    0.0000 C   0  0  0  0  0  0  0  0  0  0  0  0
    7.7411   -1.9259    0.0000 C   0  0  0  0  0  0  0  0  0  0  0  0
    6.9924   -1.5890    0.0000 C   0  0  0  0  0  0  0  0  0  0  0  0
    8.4025   -1.4393    0.0000 C   0  0  0  0  0  0  0  0  0  0  0  0
    7.8243   -2.7454    0.0000 C   0  0  0  0  0  0  0  0  0  0  0  0
    9.1595   -1.7887    0.0000 C   0  0  0  0  0  0  0  0  0  0  0  0
    8.5647   -3.0823    0.0000 C   0  0  0  0  0  0  0  0  0  0  0  0
    9.2386   -2.6081    0.0000 C   0  0  0  0  0  0  0  0  0  0  0  0
  2  1  1  0  0  0  0
  3  1  1  0  0  0  0
  4  3  1  0  0  0  0
  5  2  1  0  0  0  0
  5  4  1  0  0  0  0
  6  4  2  0  0  0  0
  7  2  2  0  0  0  0
  8 18  1  0  0  0  0
  9  8  3  0  0  0  0
 10  3  2  0  0  0  0
 11  1  1  0  0  0  0
 12  6  1  0  0  0  0
 13 17  2  0  0  0  0
 14 12  1  0  0  0  0
 15 12  2  0  0  0  0
 16 14  2  0  0  0  0
 16 13  1  0  0  0  0
 17 15  1  0  0  0  0
 18 19  1  0  0  0  0
 19 13  1  0  0  0  0
 20 11  1  0  0  0  0
 21 22  1  0  0  0  0
 22 20  1  0  0  0  0
 23 21  1  0  0  0  0
 24 21  2  0  0  0  0
 25 23  2  0  0  0  0
 25 27  1  0  0  0  0
 26 24  1  0  0  0  0
 27 26  2  0  0  0  0
M  END
> <CdId>
1087

> <Mol Weight>
393.522

> <Formula>
C22H19NO2S2

> <Click_ID>
CLK015_B02 __ __ 

$$$$
