CLK038H06
 OpenBabel03181417552D

 23 24  0  0  0  0  0  0  0  0999 V2000
    0.3083    0.7208    0.0000 S   0  0  0  0  0  0  0  0  0  0  0  0
    0.3083   -0.1042    0.0000 C   0  0  0  0  0  0  0  0  0  0  0  0
   -0.4042   -1.3417    0.0000 C   0  0  0  0  0  0  0  0  0  0  0  0
    0.3083    1.5458    0.0000 N   0  0  0  0  0  0  0  0  0  0  0  0
   -0.4042   -0.5167    0.0000 C   0  0  0  0  0  0  0  0  0  0  0  0
   -1.1208   -1.7542    0.0000 C   0  0  0  0  0  0  0  0  0  0  0  0
   -3.2625   -1.3417    0.0000 C   0  0  0  0  0  0  0  0  0  0  0  0
    1.1333    0.7208    0.0000 O   0  0  0  0  0  0  0  0  0  0  0  0
   -0.5167    0.7208    0.0000 O   0  0  0  0  0  0  0  0  0  0  0  0
   -3.9792   -0.9292    0.0000 C   0  0  0  0  0  0  0  0  0  0  0  0
    0.3083   -1.7542    0.0000 C   0  0  0  0  0  0  0  0  0  0  0  0
   -1.1208   -2.5792    0.0000 O   0  0  0  0  0  0  0  0  0  0  0  0
    1.0250   -0.5167    0.0000 C   0  0  0  0  0  0  0  0  0  0  0  0
    1.0250   -1.3417    0.0000 C   0  0  0  0  0  0  0  0  0  0  0  0
   -1.8333   -1.3417    0.0000 N   0  0  0  0  0  0  0  0  0  0  0  0
    1.0250    1.9583    0.0000 C   0  0  0  0  0  0  0  0  0  0  0  0
   -2.5500   -1.7542    0.0000 C   0  0  0  0  0  0  0  0  0  0  0  0
    0.3083   -2.5792    0.0000 C   0  0  0  0  0  0  0  0  0  0  0  0
    1.7375    1.5458    0.0000 C   0  0  0  0  0  0  0  0  0  0  0  0
    1.0250    2.7833    0.0000 C   0  0  0  0  0  0  0  0  0  0  0  0
    1.7375    3.1958    0.0000 C   0  0  0  0  0  0  0  0  0  0  0  0
    2.4500    1.9583    0.0000 C   0  0  0  0  0  0  0  0  0  0  0  0
    2.4500    2.7833    0.0000 C   0  0  0  0  0  0  0  0  0  0  0  0
  2  1  1  0  0  0  0
  3  5  1  0  0  0  0
  4  1  1  0  0  0  0
  5  2  2  0  0  0  0
  6  3  1  0  0  0  0
  7 17  1  0  0  0  0
  8  1  2  0  0  0  0
  9  1  2  0  0  0  0
 10  7  3  0  0  0  0
 11  3  2  0  0  0  0
 12  6  2  0  0  0  0
 13  2  1  0  0  0  0
 14 13  2  0  0  0  0
 14 11  1  0  0  0  0
 15  6  1  0  0  0  0
 16  4  1  0  0  0  0
 17 15  1  0  0  0  0
 18 11  1  0  0  0  0
 19 16  1  0  0  0  0
 20 16  1  0  0  0  0
 21 20  1  0  0  0  0
 22 19  1  0  0  0  0
 23 21  1  0  0  0  0
 23 22  1  0  0  0  0
M  END
> <CdId>
2888

> <Mol Weight>
334.433

> <Formula>
C17H22N2O3S

> <Click_ID>
CLK038H06 __ __ 

$$$$
