CLK037F09
 OpenBabel03181417552D

 21 22  0  0  0  0  0  0  0  0999 V2000
    0.0333   -0.3708    0.0000 C   0  0  0  0  0  0  0  0  0  0  0  0
    0.0333    0.4542    0.0000 C   0  0  0  0  0  0  0  0  0  0  0  0
   -0.6833    3.3417    0.0000 C   0  0  0  0  0  0  0  0  0  0  0  0
   -1.3958    3.7542    0.0000 C   0  0  0  0  0  0  0  0  0  0  0  0
   -0.6833   -0.7833    0.0000 C   0  0  0  0  0  0  0  0  0  0  0  0
   -0.6833   -1.6083    0.0000 C   0  0  0  0  0  0  0  0  0  0  0  0
    0.7458    0.8667    0.0000 C   0  0  0  0  0  0  0  0  0  0  0  0
   -1.3958   -0.3708    0.0000 O   0  0  0  0  0  0  0  0  0  0  0  0
    0.7458    1.6917    0.0000 C   0  0  0  0  0  0  0  0  0  0  0  0
    0.0333   -2.0208    0.0000 C   0  0  0  0  0  0  0  0  0  0  0  0
   -1.3958   -2.0208    0.0000 C   0  0  0  0  0  0  0  0  0  0  0  0
   -0.6833   -3.2583    0.0000 C   0  0  0  0  0  0  0  0  0  0  0  0
    0.0333   -2.8458    0.0000 C   0  0  0  0  0  0  0  0  0  0  0  0
   -1.3958   -2.8458    0.0000 C   0  0  0  0  0  0  0  0  0  0  0  0
   -0.6833   -4.0833    0.0000 F   0  0  0  0  0  0  0  0  0  0  0  0
    0.0333    2.1042    0.0000 O   0  0  0  0  0  0  0  0  0  0  0  0
    0.0333    2.9292    0.0000 C   0  0  0  0  0  0  0  0  0  0  0  0
    1.4625    0.4542    0.0000 C   0  0  0  0  0  0  0  0  0  0  0  0
    1.4625    2.1042    0.0000 C   0  0  0  0  0  0  0  0  0  0  0  0
    2.1750    0.8667    0.0000 C   0  0  0  0  0  0  0  0  0  0  0  0
    2.1750    1.6917    0.0000 C   0  0  0  0  0  0  0  0  0  0  0  0
  2  1  2  0  0  0  0
  3 17  1  0  0  0  0
  4  3  3  0  0  0  0
  5  1  1  0  0  0  0
  6  5  1  0  0  0  0
  7  2  1  0  0  0  0
  8  5  2  0  0  0  0
  9  7  2  0  0  0  0
 10  6  1  0  0  0  0
 11  6  2  0  0  0  0
 12 14  2  0  0  0  0
 13 10  2  0  0  0  0
 13 12  1  0  0  0  0
 14 11  1  0  0  0  0
 15 12  1  0  0  0  0
 16  9  1  0  0  0  0
 17 16  1  0  0  0  0
 18  7  1  0  0  0  0
 19  9  1  0  0  0  0
 20 18  2  0  0  0  0
 21 19  2  0  0  0  0
 21 20  1  0  0  0  0
M  END
> <CdId>
2830

> <Mol Weight>
280.293

> <Formula>
C18H13FO2

> <Click_ID>
CLK037F09 __ __ 

$$$$
