CLK026_F07
 OpenBabel03181417552D

 25 26  0  0  0  0  0  0  0  0999 V2000
   -2.7291   -0.8696    0.0000 N    0  0  0  0  0  0  0  0  0  0  0  0
   -2.3064   -1.5708    0.0000 C    0  0  0  0  0  0  0  0  0  0  0  0
   -1.4333   -0.5740    0.0000 C    0  0  0  0  0  0  0  0  0  0  0  0
   -2.1861   -0.2440    0.0000 C    0  0  0  0  0  0  0  0  0  0  0  0
   -1.5090   -1.3955    0.0000 S    0  0  0  0  0  0  0  0  0  0  0  0
   -0.7253   -0.1512    0.0000 C    0  0  0  0  0  0  0  0  0  0  0  0
   -0.7356    0.6771    0.0000 C    0  0  0  0  0  0  0  0  0  0  0  0
   -3.8910   -0.0447    0.0000 C    0  0  0  0  0  0  0  0  0  0  0  0
   -4.2862    0.6840    0.0000 C    0  0  0  0  0  0  0  0  0  0  0  0
   -2.6329   -2.3236    0.0000 O    0  0  0  0  0  0  0  0  0  0  0  0
   -0.0275    1.0965    0.0000 C    0  0  0  0  0  0  0  0  0  0  0  0
   -2.3785    0.5603    0.0000 O    0  0  0  0  0  0  0  0  0  0  0  0
    2.1277    0.7080    0.0000 C    0  0  0  0  0  0  0  0  0  0  0  0
   -3.5404   -0.7940    0.0000 C    0  0  0  0  0  0  0  0  0  0  0  0
   -1.4505    1.0827    0.0000 C    0  0  0  0  0  0  0  0  0  0  0  0
    0.6943    0.6874    0.0000 O    0  0  0  0  0  0  0  0  0  0  0  0
    2.1414   -0.1203    0.0000 O    0  0  0  0  0  0  0  0  0  0  0  0
   -0.0378    1.9283    0.0000 C    0  0  0  0  0  0  0  0  0  0  0  0
    1.4162    1.1068    0.0000 C    0  0  0  0  0  0  0  0  0  0  0  0
   -1.4608    1.9077    0.0000 C    0  0  0  0  0  0  0  0  0  0  0  0
   -0.7493    2.3270    0.0000 C    0  0  0  0  0  0  0  0  0  0  0  0
    2.8495    1.1240    0.0000 O    0  0  0  0  0  0  0  0  0  0  0  0
   -2.1792    2.3167    0.0000 Br   0  0  0  0  0  0  0  0  0  0  0  0
    3.5610    0.7218    0.0000 C    0  0  0  0  0  0  0  0  0  0  0  0
    4.2828    1.1446    0.0000 C    0  0  0  0  0  0  0  0  0  0  0  0
  2  1  1  0  0  0  0
  3  4  1  0  0  0  0
  4  1  1  0  0  0  0
  5  2  1  0  0  0  0
  5  3  1  0  0  0  0
  6  3  2  0  0  0  0
  7  6  1  0  0  0  0
  8 14  1  0  0  0  0
  9  8  3  0  0  0  0
 10  2  2  0  0  0  0
 11  7  1  0  0  0  0
 12  4  2  0  0  0  0
 13 19  1  0  0  0  0
 14  1  1  0  0  0  0
 15  7  2  0  0  0  0
 16 11  1  0  0  0  0
 17 13  2  0  0  0  0
 18 11  2  0  0  0  0
 19 16  1  0  0  0  0
 20 15  1  0  0  0  0
 21 20  2  0  0  0  0
 21 18  1  0  0  0  0
 22 13  1  0  0  0  0
 23 20  1  0  0  0  0
 24 22  1  0  0  0  0
 25 24  1  0  0  0  0
M  END
> <CdId>
1992

> <Mol Weight>
424.266

> <Formula>
C17H14BrNO5S

> <Click_ID>
CLK026_F07 __ __ 

$$$$
