CLK027_D06
 OpenBabel03181417552D

 23 23  0  0  0  0  0  0  0  0999 V2000
   -1.4402   -0.5981    0.0000 C    0  0  0  0  0  0  0  0  0  0  0  0
   -2.1655   -0.9968    0.0000 C    0  0  0  0  0  0  0  0  0  0  0  0
   -0.7321   -1.0243    0.0000 C    0  0  0  0  0  0  0  0  0  0  0  0
    1.4333    0.1856    0.0000 C    0  0  0  0  0  0  0  0  0  0  0  0
   -1.4402    0.2234    0.0000 C    0  0  0  0  0  0  0  0  0  0  0  0
    1.4230   -0.6359    0.0000 C    0  0  0  0  0  0  0  0  0  0  0  0
    0.7287    0.6015    0.0000 C    0  0  0  0  0  0  0  0  0  0  0  0
   -0.0068   -0.6187    0.0000 C    0  0  0  0  0  0  0  0  0  0  0  0
   -1.4299    1.0483    0.0000 N    0  0  0  0  0  0  0  0  0  0  0  0
   -2.8667   -0.5740    0.0000 N    0  0  0  0  0  0  0  0  0  0  0  0
    3.5816    0.5603    0.0000 C    0  0  0  0  0  0  0  0  0  0  0  0
    4.2931    0.9761    0.0000 C    0  0  0  0  0  0  0  0  0  0  0  0
    0.7012   -1.0449    0.0000 C    0  0  0  0  0  0  0  0  0  0  0  0
    0.0035    0.2028    0.0000 C    0  0  0  0  0  0  0  0  0  0  0  0
   -2.1758   -1.8217    0.0000 O    0  0  0  0  0  0  0  0  0  0  0  0
    2.1311   -1.0724    0.0000 Cl   0  0  0  0  0  0  0  0  0  0  0  0
    2.1620    0.5843    0.0000 O    0  0  0  0  0  0  0  0  0  0  0  0
    0.7390    1.4265    0.0000 O    0  0  0  0  0  0  0  0  0  0  0  0
    2.8598    0.1615    0.0000 C    0  0  0  0  0  0  0  0  0  0  0  0
   -3.5885   -0.9728    0.0000 C    0  0  0  0  0  0  0  0  0  0  0  0
    1.4643    1.8252    0.0000 C    0  0  0  0  0  0  0  0  0  0  0  0
   -4.2965   -0.5500    0.0000 C    0  0  0  0  0  0  0  0  0  0  0  0
   -3.6022   -1.8045    0.0000 C    0  0  0  0  0  0  0  0  0  0  0  0
  2  1  1  0  0  0  0
  3  1  2  0  0  0  0
  4  7  2  0  0  0  0
  5  1  1  0  0  0  0
  6 13  2  0  0  0  0
  6  4  1  0  0  0  0
  7 14  1  0  0  0  0
  8  3  1  0  0  0  0
  9  5  3  0  0  0  0
 10  2  1  0  0  0  0
 11 19  1  0  0  0  0
 12 11  3  0  0  0  0
 13  8  1  0  0  0  0
 14  8  2  0  0  0  0
 15  2  2  0  0  0  0
 16  6  1  0  0  0  0
 17  4  1  0  0  0  0
 18  7  1  0  0  0  0
 19 17  1  0  0  0  0
 20 10  1  0  0  0  0
 21 18  1  0  0  0  0
 22 20  1  0  0  0  0
 23 20  1  0  0  0  0
M  END
> <CdId>
2048

> <Mol Weight>
332.781

> <Formula>
C17H17ClN2O3

> <Click_ID>
CLK027_D06 __ __ 

$$$$
