CLK024_F11
 OpenBabel03181417552D

 29 32  0  0  0  0  0  0  0  0999 V2000
   -0.5981   -1.1962    0.0000 N   0  0  0  0  0  0  0  0  0  0  0  0
   -0.5121   -2.0073    0.0000 C   0  0  0  0  0  0  0  0  0  0  0  0
    0.1512   -0.8559    0.0000 C   0  0  0  0  0  0  0  0  0  0  0  0
    0.7080   -1.4711    0.0000 C   0  0  0  0  0  0  0  0  0  0  0  0
    1.8596   -0.6325    0.0000 C   0  0  0  0  0  0  0  0  0  0  0  0
    0.2887   -2.1826    0.0000 S   0  0  0  0  0  0  0  0  0  0  0  0
    2.0073    0.6977    0.0000 N   0  0  0  0  0  0  0  0  0  0  0  0
    1.5227   -1.3852    0.0000 C   0  0  0  0  0  0  0  0  0  0  0  0
    1.4539    0.0860    0.0000 C   0  0  0  0  0  0  0  0  0  0  0  0
   -1.3096   -0.7872    0.0000 C   0  0  0  0  0  0  0  0  0  0  0  0
   -2.0211   -1.1962    0.0000 C   0  0  0  0  0  0  0  0  0  0  0  0
    2.6707   -0.4606    0.0000 C   0  0  0  0  0  0  0  0  0  0  0  0
    2.7567    0.3609    0.0000 C   0  0  0  0  0  0  0  0  0  0  0  0
   -2.7429   -0.7802    0.0000 N   0  0  0  0  0  0  0  0  0  0  0  0
    2.4576    2.0589    0.0000 C   0  0  0  0  0  0  0  0  0  0  0  0
    3.1038    2.5608    0.0000 C   0  0  0  0  0  0  0  0  0  0  0  0
   -1.1274   -2.5573    0.0000 O   0  0  0  0  0  0  0  0  0  0  0  0
    0.3231   -0.0516    0.0000 O   0  0  0  0  0  0  0  0  0  0  0  0
   -2.0211   -2.0211    0.0000 O   0  0  0  0  0  0  0  0  0  0  0  0
    1.8423    1.5090    0.0000 C   0  0  0  0  0  0  0  0  0  0  0  0
   -4.1762    0.0550    0.0000 O   0  0  0  0  0  0  0  0  0  0  0  0
   -3.4544   -1.1927    0.0000 C   0  0  0  0  0  0  0  0  0  0  0  0
   -2.7361    0.0481    0.0000 C   0  0  0  0  0  0  0  0  0  0  0  0
    3.5128    0.6909    0.0000 C   0  0  0  0  0  0  0  0  0  0  0  0
    3.3307   -0.9555    0.0000 C   0  0  0  0  0  0  0  0  0  0  0  0
   -3.4544    0.4640    0.0000 C   0  0  0  0  0  0  0  0  0  0  0  0
   -4.1694   -0.7802    0.0000 C   0  0  0  0  0  0  0  0  0  0  0  0
    4.0869   -0.6119    0.0000 C   0  0  0  0  0  0  0  0  0  0  0  0
    4.1728    0.2028    0.0000 C   0  0  0  0  0  0  0  0  0  0  0  0
  2  1  1  0  0  0  0
  3  1  1  0  0  0  0
  4  3  1  0  0  0  0
  4  6  1  0  0  0  0
  5  8  1  0  0  0  0
  6  2  1  0  0  0  0
  7  9  1  0  0  0  0
  7 13  1  0  0  0  0
  8  4  2  0  0  0  0
  9  5  2  0  0  0  0
 10  1  1  0  0  0  0
 11 10  1  0  0  0  0
 12  5  1  0  0  0  0
 13 12  1  0  0  0  0
 14 11  1  0  0  0  0
 15 20  1  0  0  0  0
 16 15  3  0  0  0  0
 17  2  2  0  0  0  0
 18  3  2  0  0  0  0
 19 11  2  0  0  0  0
 20  7  1  0  0  0  0
 21 26  1  0  0  0  0
 21 27  1  0  0  0  0
 22 14  1  0  0  0  0
 23 14  1  0  0  0  0
 24 13  2  0  0  0  0
 24 29  1  0  0  0  0
 25 12  2  0  0  0  0
 26 23  1  0  0  0  0
 27 22  1  0  0  0  0
 28 25  1  0  0  0  0
 29 28  2  0  0  0  0
M  END
> <CdId>
1836

> <Mol Weight>
409.458

> <Formula>
C21H19N3O4S

> <Click_ID>
CLK024_F11 __ __ 

$$$$
