CLK009_G08
 OpenBabel03181417552D

 24 26  0  0  0  0  0  0  0  0999 V2000
   -0.6737    0.6021    0.0000 C    0  0  0  0  0  0  0  0  0  0  0  0
    0.1595    0.6347    0.0000 N    0  0  0  0  0  0  0  0  0  0  0  0
   -1.1684   -0.0619    0.0000 N    0  0  0  0  0  0  0  0  0  0  0  0
   -1.1684    1.2596    0.0000 S    0  0  0  0  0  0  0  0  0  0  0  0
   -1.9495    1.0122    0.0000 C    0  0  0  0  0  0  0  0  0  0  0  0
   -1.9495    0.1920    0.0000 C    0  0  0  0  0  0  0  0  0  0  0  0
    0.5761   -0.0716    0.0000 C    0  0  0  0  0  0  0  0  0  0  0  0
   -1.4549   -1.4679    0.0000 C    0  0  0  0  0  0  0  0  0  0  0  0
   -2.0016   -2.0733    0.0000 C    0  0  0  0  0  0  0  0  0  0  0  0
    1.4093   -0.0619    0.0000 N    0  0  0  0  0  0  0  0  0  0  0  0
   -2.6558   -0.2343    0.0000 C    0  0  0  0  0  0  0  0  0  0  0  0
   -2.6558    1.4223    0.0000 C    0  0  0  0  0  0  0  0  0  0  0  0
    0.1790   -0.7942    0.0000 O    0  0  0  0  0  0  0  0  0  0  0  0
   -0.8983   -0.8495    0.0000 C    0  0  0  0  0  0  0  0  0  0  0  0
    1.8259    0.6509    0.0000 C    0  0  0  0  0  0  0  0  0  0  0  0
   -3.3686    0.1920    0.0000 C    0  0  0  0  0  0  0  0  0  0  0  0
   -3.3686    1.0122    0.0000 C    0  0  0  0  0  0  0  0  0  0  0  0
    2.6461    2.0798    0.0000 C    0  0  0  0  0  0  0  0  0  0  0  0
    3.0497    2.7893    0.0000 Cl   0  0  0  0  0  0  0  0  0  0  0  0
    2.6461    0.6509    0.0000 C    0  0  0  0  0  0  0  0  0  0  0  0
    1.4093    1.3670    0.0000 C    0  0  0  0  0  0  0  0  0  0  0  0
    1.8194    2.0798    0.0000 C    0  0  0  0  0  0  0  0  0  0  0  0
    3.0692    1.3670    0.0000 C    0  0  0  0  0  0  0  0  0  0  0  0
   -4.1172    1.4060    0.0000 C    0  0  0  0  0  0  0  0  0  0  0  0
  2  1  2  0  0  0  0
  3  1  1  0  0  0  0
  4  1  1  0  0  0  0
  5  4  1  0  0  0  0
  5  6  2  0  0  0  0
  6  3  1  0  0  0  0
  7  2  1  0  0  0  0
  8 14  1  0  0  0  0
  9  8  3  0  0  0  0
 10  7  1  0  0  0  0
 11  6  1  0  0  0  0
 12  5  1  0  0  0  0
 13  7  2  0  0  0  0
 14  3  1  0  0  0  0
 15 10  1  0  0  0  0
 16 11  2  0  0  0  0
 17 12  2  0  0  0  0
 17 16  1  0  0  0  0
 18 22  1  0  0  0  0
 19 18  1  0  0  0  0
 20 15  2  0  0  0  0
 21 15  1  0  0  0  0
 22 21  2  0  0  0  0
 23 20  1  0  0  0  0
 23 18  2  0  0  0  0
 24 17  1  0  0  0  0
M  END
> <CdId>
663

> <Mol Weight>
355.841

> <Formula>
C18H14ClN3OS

> <Click_ID>
CLK009_G08 __ __ 

$$$$
