CLK045H03
 OpenBabel03181417552D

 30 32  0  0  0  0  0  0  0  0999 V2000
    1.1167   -3.0792    0.0000 S   0  0  0  0  0  0  0  0  0  0  0  0
   -1.7417    1.8708    0.0000 C   0  0  0  0  0  0  0  0  0  0  0  0
   -1.7417    2.6958    0.0000 C   0  0  0  0  0  0  0  0  0  0  0  0
   -2.5292    1.6167    0.0000 O   0  0  0  0  0  0  0  0  0  0  0  0
   -0.3125    1.8708    0.0000 C   0  0  0  0  0  0  0  0  0  0  0  0
    1.1167    0.2208    0.0000 C   0  0  0  0  0  0  0  0  0  0  0  0
    1.1167   -2.2542    0.0000 C   0  0  0  0  0  0  0  0  0  0  0  0
   -1.0292    1.4583    0.0000 C   0  0  0  0  0  0  0  0  0  0  0  0
   -0.3125    2.6958    0.0000 C   0  0  0  0  0  0  0  0  0  0  0  0
   -1.0292    3.1083    0.0000 C   0  0  0  0  0  0  0  0  0  0  0  0
    0.4000    0.6333    0.0000 N   0  0  0  0  0  0  0  0  0  0  0  0
    0.4000   -5.1417    0.0000 C   0  0  0  0  0  0  0  0  0  0  0  0
    0.4000   -5.9667    0.0000 C   0  0  0  0  0  0  0  0  0  0  0  0
    1.9417   -3.0792    0.0000 O   0  0  0  0  0  0  0  0  0  0  0  0
    0.2917   -3.0792    0.0000 O   0  0  0  0  0  0  0  0  0  0  0  0
    1.1167   -0.6042    0.0000 C   0  0  0  0  0  0  0  0  0  0  0  0
    1.1167   -3.9042    0.0000 N   0  0  0  0  0  0  0  0  0  0  0  0
    0.4000    1.4583    0.0000 C   0  0  0  0  0  0  0  0  0  0  0  0
   -2.5292    2.9500    0.0000 C   0  0  0  0  0  0  0  0  0  0  0  0
   -3.0125    2.2833    0.0000 C   0  0  3  0  0  0  0  0  0  0  0  0
    1.8292    0.6333    0.0000 O   0  0  0  0  0  0  0  0  0  0  0  0
    0.4000   -1.8417    0.0000 C   0  0  0  0  0  0  0  0  0  0  0  0
    1.8292   -1.8417    0.0000 C   0  0  0  0  0  0  0  0  0  0  0  0
    0.4000   -1.0167    0.0000 C   0  0  0  0  0  0  0  0  0  0  0  0
    1.8292   -1.0167    0.0000 C   0  0  0  0  0  0  0  0  0  0  0  0
    0.4000    3.1083    0.0000 O   0  0  0  0  0  0  0  0  0  0  0  0
    0.4000   -4.3167    0.0000 C   0  0  0  0  0  0  0  0  0  0  0  0
   -3.8375    2.2833    0.0000 C   0  0  0  0  0  0  0  0  0  0  0  0
    0.4000    3.9333    0.0000 C   0  0  0  0  0  0  0  0  0  0  0  0
    1.1167    4.3417    0.0000 C   0  0  0  0  0  0  0  0  0  0  0  0
  2  8  2  0  0  0  0
  2  3  1  0  0  0  0
  3 10  2  0  0  0  0
  4  2  1  0  0  0  0
  5 18  1  0  0  0  0
  6 16  1  0  0  0  0
  7  1  1  0  0  0  0
  8  5  1  0  0  0  0
  9  5  2  0  0  0  0
 10  9  1  0  0  0  0
 11  6  1  0  0  0  0
 12 27  1  0  0  0  0
 13 12  3  0  0  0  0
 14  1  2  0  0  0  0
 15  1  2  0  0  0  0
 16 25  2  0  0  0  0
 17  1  1  0  0  0  0
 18 11  1  0  0  0  0
 19  3  1  0  0  0  0
 20  4  1  0  0  0  0
 20 19  1  0  0  0  0
 21  6  2  0  0  0  0
 22  7  1  0  0  0  0
 23  7  2  0  0  0  0
 24 22  2  0  0  0  0
 24 16  1  0  0  0  0
 25 23  1  0  0  0  0
 26  9  1  0  0  0  0
 27 17  1  0  0  0  0
 28 20  1  0  0  0  0
 29 26  1  0  0  0  0
 30 29  1  0  0  0  0
M  END
> <CdId>
3424

> <Mol Weight>
428.501

> <Formula>
C22H24N2O5S

> <Click_ID>
CLK045H03 __ __ 

$$$$
