CLK042H11
 OpenBabel03181417552D

 24 25  0  0  0  0  0  0  0  0999 V2000
    0.1750   -0.7208    0.0000 S    0  0  0  0  0  0  0  0  0  0  0  0
    0.1750    0.1042    0.0000 C    0  0  0  0  0  0  0  0  0  0  0  0
    0.8917    0.5167    0.0000 C    0  0  0  0  0  0  0  0  0  0  0  0
   -0.5375    0.5167    0.0000 C    0  0  0  0  0  0  0  0  0  0  0  0
   -1.2542    0.9292    0.0000 N    0  0  0  0  0  0  0  0  0  0  0  0
    0.1750   -1.5458    0.0000 C    0  0  0  0  0  0  0  0  0  0  0  0
    0.8917    1.3417    0.0000 C    0  0  0  0  0  0  0  0  0  0  0  0
   -1.9667    1.3417    0.0000 C    0  0  0  0  0  0  0  0  0  0  0  0
   -2.6833    0.9292    0.0000 C    0  0  0  0  0  0  0  0  0  0  0  0
    1.0000   -0.7208    0.0000 O    0  0  0  0  0  0  0  0  0  0  0  0
   -0.6500   -0.7208    0.0000 O    0  0  0  0  0  0  0  0  0  0  0  0
    0.1750    1.7542    0.0000 C    0  0  0  0  0  0  0  0  0  0  0  0
   -0.5375   -1.9583    0.0000 C    0  0  0  0  0  0  0  0  0  0  0  0
    0.8917   -1.9583    0.0000 C    0  0  0  0  0  0  0  0  0  0  0  0
    0.1750   -3.1958    0.0000 C    0  0  0  0  0  0  0  0  0  0  0  0
   -0.5375   -2.7833    0.0000 C    0  0  0  0  0  0  0  0  0  0  0  0
    0.8917   -2.7833    0.0000 C    0  0  0  0  0  0  0  0  0  0  0  0
    0.1750   -4.0208    0.0000 Br   0  0  0  0  0  0  0  0  0  0  0  0
   -0.5375    1.3417    0.0000 O    0  0  0  0  0  0  0  0  0  0  0  0
   -1.2542    1.7542    0.0000 C    0  0  0  0  0  0  0  0  0  0  0  0
    1.6042    1.7542    0.0000 C    0  0  0  0  0  0  0  0  0  0  0  0
    0.1750    2.5792    0.0000 C    0  0  0  0  0  0  0  0  0  0  0  0
    1.6042    2.5792    0.0000 C    0  0  0  0  0  0  0  0  0  0  0  0
    0.8917    2.9917    0.0000 C    0  0  0  0  0  0  0  0  0  0  0  0
  2  1  1  0  0  0  0
  3  2  2  0  0  0  0
  4  2  1  0  0  0  0
  5  4  3  0  0  0  0
  6  1  1  0  0  0  0
  7  3  1  0  0  0  0
  8 20  1  0  0  0  0
  9  8  3  0  0  0  0
 10  1  2  0  0  0  0
 11  1  2  0  0  0  0
 12  7  2  0  0  0  0
 13  6  2  0  0  0  0
 14  6  1  0  0  0  0
 15 16  2  0  0  0  0
 16 13  1  0  0  0  0
 17 14  2  0  0  0  0
 17 15  1  0  0  0  0
 18 15  1  0  0  0  0
 19 12  1  0  0  0  0
 20 19  1  0  0  0  0
 21  7  1  0  0  0  0
 22 12  1  0  0  0  0
 23 21  2  0  0  0  0
 24 22  2  0  0  0  0
 24 23  1  0  0  0  0
M  END
> <CdId>
3248

> <Mol Weight>
402.262

> <Formula>
C18H12BrNO3S

> <Click_ID>
CLK042H11 __ __ 

$$$$
