CLK016_D05
 OpenBabel03181417552D

 32 34  0  0  0  0  0  0  0  0999 V2000
    2.5270   -2.1392    0.0000 N   0  0  0  0  0  0  0  0  0  0  0  0
    3.2401   -1.7306    0.0000 C   0  0  0  0  0  0  0  0  0  0  0  0
    1.8181   -0.9049    0.0000 C   0  0  0  0  0  0  0  0  0  0  0  0
    1.8181   -1.7306    0.0000 C   0  0  0  0  0  0  0  0  0  0  0  0
    3.2401   -0.9049    0.0000 N   0  0  0  0  0  0  0  0  0  0  0  0
    2.5270   -0.4879    0.0000 C   0  0  0  0  0  0  0  0  0  0  0  0
    1.1009   -0.4921    0.0000 C   0  0  0  0  0  0  0  0  0  0  0  0
    2.5270   -2.9648    0.0000 C   0  0  0  0  0  0  0  0  0  0  0  0
    0.3878   -0.9049    0.0000 C   0  0  0  0  0  0  0  0  0  0  0  0
   -0.3253   -2.1434    0.0000 C   0  0  0  0  0  0  0  0  0  0  0  0
   -1.0383   -1.7306    0.0000 C   0  0  0  0  0  0  0  0  0  0  0  0
   -1.0383   -0.9049    0.0000 C   0  0  0  0  0  0  0  0  0  0  0  0
    3.9573   -2.1434    0.0000 S   0  0  0  0  0  0  0  0  0  0  0  0
   -3.1858   -2.1309    0.0000 C   0  0  0  0  0  0  0  0  0  0  0  0
   -3.9031   -2.5437    0.0000 C   0  0  0  0  0  0  0  0  0  0  0  0
    1.1009   -2.1434    0.0000 O   0  0  0  0  0  0  0  0  0  0  0  0
    0.3878   -1.7306    0.0000 C   0  0  0  0  0  0  0  0  0  0  0  0
   -0.3336   -0.4921    0.0000 C   0  0  0  0  0  0  0  0  0  0  0  0
    2.5270    0.3378    0.0000 O   0  0  0  0  0  0  0  0  0  0  0  0
    3.2401   -3.3694    0.0000 C   0  0  0  0  0  0  0  0  0  0  0  0
    1.8056   -3.3694    0.0000 C   0  0  0  0  0  0  0  0  0  0  0  0
   -1.7639    0.3127    0.0000 C   0  0  0  0  0  0  0  0  0  0  0  0
   -2.4853    0.7214    0.0000 C   0  0  0  0  0  0  0  0  0  0  0  0
    2.5187   -4.6078    0.0000 C   0  0  0  0  0  0  0  0  0  0  0  0
   -0.3336   -2.9565    0.0000 O   0  0  0  0  0  0  0  0  0  0  0  0
   -1.7597   -2.1392    0.0000 O   0  0  0  0  0  0  0  0  0  0  0  0
    3.2317   -4.1950    0.0000 C   0  0  0  0  0  0  0  0  0  0  0  0
    1.8056   -4.1950    0.0000 C   0  0  0  0  0  0  0  0  0  0  0  0
   -1.7597   -0.5046    0.0000 C   0  0  0  0  0  0  0  0  0  0  0  0
    2.5062   -5.4335    0.0000 F   0  0  0  0  0  0  0  0  0  0  0  0
   -2.4727   -1.7306    0.0000 C   0  0  0  0  0  0  0  0  0  0  0  0
    0.3795   -3.3694    0.0000 C   0  0  0  0  0  0  0  0  0  0  0  0
  2  1  1  0  0  0  0
  3  4  1  0  0  0  0
  4  1  1  0  0  0  0
  5  2  1  0  0  0  0
  6  3  1  0  0  0  0
  6  5  1  0  0  0  0
  7  3  2  0  0  0  0
  8  1  1  0  0  0  0
  9  7  1  0  0  0  0
 10 17  1  0  0  0  0
 11 12  1  0  0  0  0
 11 10  2  0  0  0  0
 12 18  2  0  0  0  0
 13  2  2  0  0  0  0
 14 31  1  0  0  0  0
 15 14  3  0  0  0  0
 16  4  2  0  0  0  0
 17  9  2  0  0  0  0
 18  9  1  0  0  0  0
 19  6  2  0  0  0  0
 20  8  1  0  0  0  0
 21  8  2  0  0  0  0
 22 29  1  0  0  0  0
 23 22  2  0  0  0  0
 24 28  2  0  0  0  0
 24 27  1  0  0  0  0
 25 10  1  0  0  0  0
 26 11  1  0  0  0  0
 27 20  2  0  0  0  0
 28 21  1  0  0  0  0
 29 12  1  0  0  0  0
 30 24  1  0  0  0  0
 31 26  1  0  0  0  0
 32 25  1  0  0  0  0
M  END
> <CdId>
1190

> <Mol Weight>
450.482

> <Formula>
C24H19FN2O4S

> <Click_ID>
CLK016_D05 __ __ 

$$$$
