CLK006_H03
 OpenBabel03181417552D

 15 16  0  0  0  0  0  0  0  0999 V2000
   -0.6482    0.0897    0.0000 C   0  0  0  0  0  0  0  0  0  0  0  0
    0.1483   -0.1586    0.0000 N   0  0  0  0  0  0  0  0  0  0  0  0
   -0.6516    0.9240    0.0000 C   0  0  0  0  0  0  0  0  0  0  0  0
   -1.3689   -0.3172    0.0000 C   0  0  0  0  0  0  0  0  0  0  0  0
    0.6309    0.5207    0.0000 C   0  0  0  0  0  0  0  0  0  0  0  0
    0.5552   -0.8723    0.0000 C   0  0  0  0  0  0  0  0  0  0  0  0
    0.1345    1.1896    0.0000 N   0  0  0  0  0  0  0  0  0  0  0  0
   -1.3689    1.3378    0.0000 C   0  0  0  0  0  0  0  0  0  0  0  0
   -2.0826    0.0966    0.0000 C   0  0  0  0  0  0  0  0  0  0  0  0
    1.4551    0.5241    0.0000 C   0  0  0  0  0  0  0  0  0  0  0  0
    0.1517   -1.5827    0.0000 C   0  0  0  0  0  0  0  0  0  0  0  0
   -2.0826    0.9240    0.0000 C   0  0  0  0  0  0  0  0  0  0  0  0
    1.8722   -0.1897    0.0000 O   0  0  0  0  0  0  0  0  0  0  0  0
    0.5655   -2.2964    0.0000 C   0  0  0  0  0  0  0  0  0  0  0  0
    2.6929   -0.1897    0.0000 C   0  0  0  0  0  0  0  0  0  0  0  0
  1  2  1  0  0  0  0
  1  3  1  0  0  0  0
  1  4  2  0  0  0  0
  2  5  1  0  0  0  0
  2  6  1  0  0  0  0
  3  7  1  0  0  0  0
  3  8  2  0  0  0  0
  4  9  1  0  0  0  0
  5 10  1  0  0  0  0
  5  7  2  0  0  0  0
  6 11  1  0  0  0  0
  8 12  1  0  0  0  0
  9 12  2  0  0  0  0
 10 13  1  0  0  0  0
 11 14  3  0  0  0  0
 13 15  1  0  0  0  0
M  END
> <CdId>
472

> <Mol Weight>
200.2365

> <Formula>
C12H12N2O

> <Click_ID>
CLK006_H03 __ __ 

$$$$
