CLK049E08
 OpenBabel03181417552D

 20 21  0  0  0  0  0  0  0  0999 V2000
    0.9375    0.4083    0.0000 C   0  0  0  0  0  0  0  0  0  0  0  0
   -1.2083    0.8208    0.0000 C   0  0  0  0  0  0  0  0  0  0  0  0
   -0.4917    0.4083    0.0000 C   0  0  3  0  0  0  0  0  0  0  0  0
    0.2208    0.8208    0.0000 N   0  0  0  0  0  0  0  0  0  0  0  0
   -1.9625    0.4875    0.0000 S   0  0  0  0  0  0  0  0  0  0  0  0
    3.0792    0.8208    0.0000 C   0  0  0  0  0  0  0  0  0  0  0  0
    3.7917    1.2333    0.0000 C   0  0  0  0  0  0  0  0  0  0  0  0
   -0.4917   -0.4167    0.0000 C   0  0  0  0  0  0  0  0  0  0  0  0
   -1.2958    1.6417    0.0000 C   0  0  0  0  0  0  0  0  0  0  0  0
   -2.5125    1.1000    0.0000 C   0  0  0  0  0  0  0  0  0  0  0  0
    0.9375   -0.4167    0.0000 O   0  0  0  0  0  0  0  0  0  0  0  0
   -2.1000    1.8125    0.0000 C   0  0  0  0  0  0  0  0  0  0  0  0
    1.6500    0.8208    0.0000 N   0  0  0  0  0  0  0  0  0  0  0  0
    0.2208   -0.8292    0.0000 C   0  0  0  0  0  0  0  0  0  0  0  0
   -1.2083   -0.8292    0.0000 C   0  0  0  0  0  0  0  0  0  0  0  0
    0.2208   -1.6542    0.0000 C   0  0  0  0  0  0  0  0  0  0  0  0
   -1.2083   -1.6542    0.0000 C   0  0  0  0  0  0  0  0  0  0  0  0
   -0.4917   -2.0667    0.0000 C   0  0  0  0  0  0  0  0  0  0  0  0
    2.3667    0.4083    0.0000 C   0  0  0  0  0  0  0  0  0  0  0  0
   -0.4917   -2.8917    0.0000 C   0  0  0  0  0  0  0  0  0  0  0  0
  2  3  1  0  0  0  0
  3  4  1  0  0  0  0
  4  1  1  0  0  0  0
  5  2  1  0  0  0  0
  6 19  1  0  0  0  0
  7  6  3  0  0  0  0
  8  3  1  0  0  0  0
  9  2  2  0  0  0  0
 10  5  1  0  0  0  0
 10 12  2  0  0  0  0
 11  1  2  0  0  0  0
 12  9  1  0  0  0  0
 13  1  1  0  0  0  0
 14  8  1  0  0  0  0
 15  8  2  0  0  0  0
 16 14  2  0  0  0  0
 16 18  1  0  0  0  0
 17 15  1  0  0  0  0
 18 17  2  0  0  0  0
 19 13  1  0  0  0  0
 20 18  1  0  0  0  0
M  END
> <CdId>
3781

> <Mol Weight>
284.376

> <Formula>
C16H16N2OS

> <Click_ID>
CLK049E08 __ __ 

$$$$
