CLK028_G05
 OpenBabel03181417552D

 29 31  0  0  0  0  0  0  0  0999 V2000
   -2.1474    0.6494    0.0000 C   0  0  0  0  0  0  0  0  0  0  0  0
   -2.8620    0.2371    0.0000 C   0  0  0  0  0  0  0  0  0  0  0  0
    4.2879    1.8382    0.0000 C   0  0  0  0  0  0  0  0  0  0  0  0
    4.9991    2.2435    0.0000 C   0  0  0  0  0  0  0  0  0  0  0  0
   -0.7181    0.6494    0.0000 N   0  0  0  0  0  0  0  0  0  0  0  0
   -1.4327    0.2371    0.0000 N   0  0  0  0  0  0  0  0  0  0  0  0
   -2.1474    1.4774    0.0000 O   0  0  0  0  0  0  0  0  0  0  0  0
   -3.5767    0.6494    0.0000 C   0  0  0  0  0  0  0  0  0  0  0  0
   -2.8620   -0.5875    0.0000 C   0  0  0  0  0  0  0  0  0  0  0  0
   -0.0068    0.2371    0.0000 C   0  0  0  0  0  0  0  0  0  0  0  0
   -3.0751    1.0376    0.0000 O   0  0  0  0  0  0  0  0  0  0  0  0
    0.7077    0.6494    0.0000 C   0  0  0  0  0  0  0  0  0  0  0  0
    2.1439    1.4636    0.0000 C   0  0  0  0  0  0  0  0  0  0  0  0
    1.4224    0.2371    0.0000 C   0  0  0  0  0  0  0  0  0  0  0  0
    0.7215    1.4671    0.0000 C   0  0  0  0  0  0  0  0  0  0  0  0
    1.4327    1.8759    0.0000 C   0  0  0  0  0  0  0  0  0  0  0  0
    2.1439    0.6391    0.0000 C   0  0  0  0  0  0  0  0  0  0  0  0
    3.5698    1.4430    0.0000 C   0  0  0  0  0  0  0  0  0  0  0  0
    2.8586    1.8656    0.0000 O   0  0  0  0  0  0  0  0  0  0  0  0
   -2.1508   -0.9964    0.0000 C   0  0  0  0  0  0  0  0  0  0  0  0
   -3.5732    1.4774    0.0000 C   0  0  0  0  0  0  0  0  0  0  0  0
   -4.2913    0.2371    0.0000 C   0  0  0  0  0  0  0  0  0  0  0  0
   -3.5835   -0.9964    0.0000 C   0  0  0  0  0  0  0  0  0  0  0  0
   -4.9991    0.6528    0.0000 C   0  0  0  0  0  0  0  0  0  0  0  0
   -4.2844    1.8897    0.0000 C   0  0  0  0  0  0  0  0  0  0  0  0
   -2.1577   -1.8279    0.0000 C   0  0  0  0  0  0  0  0  0  0  0  0
   -3.5835   -1.8244    0.0000 C   0  0  0  0  0  0  0  0  0  0  0  0
   -4.9991    1.4808    0.0000 C   0  0  0  0  0  0  0  0  0  0  0  0
   -2.8723   -2.2402    0.0000 C   0  0  0  0  0  0  0  0  0  0  0  0
  2  1  1  0  0  0  0
  3 18  1  0  0  0  0
  4  3  3  0  0  0  0
  5  6  1  0  0  0  0
  6  1  1  0  0  0  0
  7  1  2  0  0  0  0
  8  2  1  0  0  0  0
  9  2  1  0  0  0  0
 10  5  2  0  0  0  0
 11  2  1  0  0  0  0
 12 10  1  0  0  0  0
 13 16  2  0  0  0  0
 13 17  1  0  0  0  0
 14 12  1  0  0  0  0
 15 12  2  0  0  0  0
 16 15  1  0  0  0  0
 17 14  2  0  0  0  0
 18 19  1  0  0  0  0
 19 13  1  0  0  0  0
 20  9  1  0  0  0  0
 21  8  2  0  0  0  0
 22  8  1  0  0  0  0
 23  9  2  0  0  0  0
 24 22  2  0  0  0  0
 25 21  1  0  0  0  0
 26 20  2  0  0  0  0
 27 23  1  0  0  0  0
 28 24  1  0  0  0  0
 28 25  2  0  0  0  0
 29 27  2  0  0  0  0
 29 26  1  0  0  0  0
M  END
> <CdId>
2149

> <Mol Weight>
384.4272

> <Formula>
C24H20N2O3

> <Click_ID>
CLK028_G05 __ __ 

$$$$
