CLK042B10
 OpenBabel03181417552D

 17 17  0  0  0  0  0  0  0  0999 V2000
   -0.6333    0.1708    0.0000 S   0  0  0  0  0  0  0  0  0  0  0  0
    0.0833   -0.2417    0.0000 C   0  0  0  0  0  0  0  0  0  0  0  0
    0.0833   -1.0667    0.0000 C   0  0  0  0  0  0  0  0  0  0  0  0
   -2.0625    1.8208    0.0000 C   0  0  0  0  0  0  0  0  0  0  0  0
   -2.7750    2.2333    0.0000 C   0  0  0  0  0  0  0  0  0  0  0  0
   -1.0458   -0.5417    0.0000 O   0  0  0  0  0  0  0  0  0  0  0  0
   -0.2208    0.8875    0.0000 O   0  0  0  0  0  0  0  0  0  0  0  0
    0.7958    0.1708    0.0000 C   0  0  0  0  0  0  0  0  0  0  0  0
   -1.3458    0.5833    0.0000 N   0  0  0  0  0  0  0  0  0  0  0  0
    1.5125   -0.2417    0.0000 C   0  0  0  0  0  0  0  0  0  0  0  0
    0.7958   -1.4792    0.0000 C   0  0  0  0  0  0  0  0  0  0  0  0
    1.5125   -1.0667    0.0000 C   0  0  0  0  0  0  0  0  0  0  0  0
   -1.3458    1.4083    0.0000 C   0  0  0  0  0  0  0  0  0  0  0  0
    0.7958    0.9958    0.0000 O   0  0  0  0  0  0  0  0  0  0  0  0
    0.7958   -2.3042    0.0000 O   0  0  0  0  0  0  0  0  0  0  0  0
    1.5125    1.4083    0.0000 C   0  0  0  0  0  0  0  0  0  0  0  0
    1.5125   -2.7167    0.0000 C   0  0  0  0  0  0  0  0  0  0  0  0
  2  1  1  0  0  0  0
  3  2  1  0  0  0  0
  4 13  1  0  0  0  0
  5  4  3  0  0  0  0
  6  1  2  0  0  0  0
  7  1  2  0  0  0  0
  8  2  2  0  0  0  0
  9  1  1  0  0  0  0
 10  8  1  0  0  0  0
 10 12  2  0  0  0  0
 11  3  2  0  0  0  0
 12 11  1  0  0  0  0
 13  9  1  0  0  0  0
 14  8  1  0  0  0  0
 15 11  1  0  0  0  0
 16 14  1  0  0  0  0
 17 15  1  0  0  0  0
M  END
> <CdId>
3234

> <Mol Weight>
255.29

> <Formula>
C11H13NO4S

> <Click_ID>
CLK042B10 __ __ 

$$$$
