CLK005_G10
 OpenBabel03181417552D

 18 19  0  0  0  0  0  0  0  0999 V2000
    0.0801    0.0946    0.0000 C   0  0  0  0  0  0  0  0  0  0  0  0
    0.7934    0.5071    0.0000 C   0  0  0  0  0  0  0  0  0  0  0  0
    1.5092    0.0946    0.0000 C   0  0  0  0  0  0  0  0  0  0  0  0
   -1.3515    0.0946    0.0000 C   0  0  0  0  0  0  0  0  0  0  0  0
   -0.6381    0.5071    0.0000 N   0  0  0  0  0  0  0  0  0  0  0  0
    0.7934   -1.1453    0.0000 N   0  0  0  0  0  0  0  0  0  0  0  0
   -3.4965    0.5071    0.0000 C   0  0  0  0  0  0  0  0  0  0  0  0
   -4.2026    0.9220    0.0000 C   0  0  0  0  0  0  0  0  0  0  0  0
    0.0801   -0.7304    0.0000 C   0  0  0  0  0  0  0  0  0  0  0  0
    1.5092   -0.7304    0.0000 C   0  0  0  0  0  0  0  0  0  0  0  0
   -1.3515   -0.7304    0.0000 O   0  0  0  0  0  0  0  0  0  0  0  0
   -2.0673    0.5071    0.0000 N   0  0  0  0  0  0  0  0  0  0  0  0
    0.7934    1.3297    0.0000 O   0  0  0  0  0  0  0  0  0  0  0  0
   -2.7855    0.0946    0.0000 C   0  0  0  0  0  0  0  0  0  0  0  0
    2.2226    0.5071    0.0000 C   0  0  0  0  0  0  0  0  0  0  0  0
    2.2226   -1.1453    0.0000 C   0  0  0  0  0  0  0  0  0  0  0  0
    2.9360    0.0946    0.0000 C   0  0  0  0  0  0  0  0  0  0  0  0
    2.9360   -0.7304    0.0000 C   0  0  0  0  0  0  0  0  0  0  0  0
  2  1  2  0  0  0  0
  3  2  1  0  0  0  0
  4  5  1  0  0  0  0
  5  1  1  0  0  0  0
  6  9  2  0  0  0  0
  7 14  1  0  0  0  0
  8  7  3  0  0  0  0
  9  1  1  0  0  0  0
 10  6  1  0  0  0  0
 10  3  1  0  0  0  0
 11  4  2  0  0  0  0
 12  4  1  0  0  0  0
 13  2  1  0  0  0  0
 14 12  1  0  0  0  0
 15  3  2  0  0  0  0
 16 10  2  0  0  0  0
 17 15  1  0  0  0  0
 18 16  1  0  0  0  0
 18 17  2  0  0  0  0
M  END
> <CdId>
389

> <Mol Weight>
241.2453

> <Formula>
C13H11N3O2

> <Click_ID>
CLK005_G10 __ __ 

$$$$
