CLK038D09
 OpenBabel03181417552D

 30 31  0  0  0  0  0  0  0  0999 V2000
   -0.6208    0.3667    0.0000 C   0  0  0  0  0  0  0  0  0  0  0  0
   -0.1333   -0.3000    0.0000 C   0  0  0  0  0  0  0  0  0  0  0  0
    0.6500   -0.0458    0.0000 N   0  0  0  0  0  0  0  0  0  0  0  0
    0.6500    0.7792    0.0000 N   0  0  0  0  0  0  0  0  0  0  0  0
   -0.1333    1.0333    0.0000 C   0  0  0  0  0  0  0  0  0  0  0  0
   -0.3917   -1.0875    0.0000 C   0  0  0  0  0  0  0  0  0  0  0  0
    6.4667    0.3583    0.0000 C   0  0  0  0  0  0  0  0  0  0  0  0
    6.0542   -0.3542    0.0000 C   0  0  0  0  0  0  0  0  0  0  0  0
   -3.0958    1.7958    0.0000 C   0  0  0  0  0  0  0  0  0  0  0  0
   -3.5083    2.5083    0.0000 C   0  0  0  0  0  0  0  0  0  0  0  0
   -1.1958   -1.2583    0.0000 C   0  0  0  0  0  0  0  0  0  0  0  0
    1.3167    1.2625    0.0000 C   0  0  0  0  0  0  0  0  0  0  0  0
    7.2917    0.3583    0.0000 O   0  0  0  0  0  0  0  0  0  0  0  0
    6.4667   -1.0708    0.0000 O   0  0  0  0  0  0  0  0  0  0  0  0
   -1.4458    0.3667    0.0000 C   0  0  0  0  0  0  0  0  0  0  0  0
    6.0542    1.0750    0.0000 O   0  0  0  0  0  0  0  0  0  0  0  0
    5.2292   -0.3542    0.0000 O   0  0  0  0  0  0  0  0  0  0  0  0
   -1.8583    1.0792    0.0000 N   0  0  0  0  0  0  0  0  0  0  0  0
   -1.4542   -2.0417    0.0000 C   0  0  0  0  0  0  0  0  0  0  0  0
    2.0708    0.9292    0.0000 C   0  0  0  0  0  0  0  0  0  0  0  0
   -2.6833    1.0792    0.0000 C   0  0  0  0  0  0  0  0  0  0  0  0
    0.1625   -1.7000    0.0000 C   0  0  0  0  0  0  0  0  0  0  0  0
   -0.0917   -2.4833    0.0000 C   0  0  0  0  0  0  0  0  0  0  0  0
   -0.9000   -2.6542    0.0000 C   0  0  0  0  0  0  0  0  0  0  0  0
   -2.2583   -2.2125    0.0000 C   0  0  0  0  0  0  0  0  0  0  0  0
    2.7375    1.4125    0.0000 C   0  0  0  0  0  0  0  0  0  0  0  0
    2.1583    0.1083    0.0000 C   0  0  0  0  0  0  0  0  0  0  0  0
    2.9083   -0.2292    0.0000 C   0  0  0  0  0  0  0  0  0  0  0  0
    3.4917    1.0792    0.0000 C   0  0  0  0  0  0  0  0  0  0  0  0
    3.5792    0.2583    0.0000 C   0  0  0  0  0  0  0  0  0  0  0  0
  2  1  1  0  0  0  0
  3  2  2  0  0  0  0
  4  5  1  0  0  0  0
  4  3  1  0  0  0  0
  5  1  2  0  0  0  0
  6  2  1  0  0  0  0
  8  7  1  0  0  0  0
  9 21  1  0  0  0  0
 10  9  3  0  0  0  0
 11  6  1  0  0  0  0
 12  4  1  0  0  0  0
 13  7  2  0  0  0  0
 14  8  2  0  0  0  0
 15  1  1  0  0  0  0
 16  7  1  0  0  0  0
 17  8  1  0  0  0  0
 18 15  1  0  0  0  0
 19 11  2  0  0  0  0
 20 12  1  0  0  0  0
 21 18  1  0  0  0  0
 22  6  2  0  0  0  0
 23 22  1  0  0  0  0
 23 24  2  0  0  0  0
 24 19  1  0  0  0  0
 25 19  1  0  0  0  0
 26 20  2  0  0  0  0
 27 20  1  0  0  0  0
 28 27  2  0  0  0  0
 29 26  1  0  0  0  0
 30 29  2  0  0  0  0
 30 28  1  0  0  0  0
M  END
> <CdId>
2908

> <Mol Weight>
405.4464

> <Formula>
C23H23N3O4

> <Click_ID>
CLK038D09 __ __ 

$$$$
