CLK037B02
 OpenBabel03181417552D

 16 17  0  0  0  0  0  0  0  0999 V2000
    0.2292   -0.3875    0.0000 C    0  0  0  0  0  0  0  0  0  0  0  0
   -0.2542    0.2792    0.0000 O    0  0  0  0  0  0  0  0  0  0  0  0
    1.0168   -0.1333    0.0000 N    0  0  0  0  0  0  0  0  0  0  0  0
    1.0168    0.6918    0.0000 N    0  0  0  0  0  0  0  0  0  0  0  0
    0.2292    0.9459    0.0000 C    0  0  0  0  0  0  0  0  0  0  0  0
   -0.0250   -1.1751    0.0000 C    0  0  0  0  0  0  0  0  0  0  0  0
    0.2708    3.1295    0.0000 C    0  0  0  0  0  0  0  0  0  0  0  0
    0.0167    3.9129    0.0000 C    0  0  0  0  0  0  0  0  0  0  0  0
   -0.8334   -1.3459    0.0000 C    0  0  0  0  0  0  0  0  0  0  0  0
   -0.0250    1.7294    0.0000 S    0  0  0  0  0  0  0  0  0  0  0  0
   -1.3834   -0.7334    0.0000 Br   0  0  0  0  0  0  0  0  0  0  0  0
    0.5293    2.3460    0.0000 C    0  0  0  0  0  0  0  0  0  0  0  0
    0.5293   -1.7877    0.0000 C    0  0  0  0  0  0  0  0  0  0  0  0
   -1.0876   -2.1294    0.0000 C    0  0  0  0  0  0  0  0  0  0  0  0
    0.2708   -2.5711    0.0000 C    0  0  0  0  0  0  0  0  0  0  0  0
   -0.5334   -2.7420    0.0000 C    0  0  0  0  0  0  0  0  0  0  0  0
  2  1  1  0  0  0  0
  3  1  2  0  0  0  0
  4  3  1  0  0  0  0
  5  2  1  0  0  0  0
  5  4  2  0  0  0  0
  6  1  1  0  0  0  0
  7 12  1  0  0  0  0
  8  7  3  0  0  0  0
  9  6  2  0  0  0  0
 10  5  1  0  0  0  0
 11  9  1  0  0  0  0
 12 10  1  0  0  0  0
 13  6  1  0  0  0  0
 14  9  1  0  0  0  0
 15 13  2  0  0  0  0
 15 16  1  0  0  0  0
 16 14  2  0  0  0  0
M  END
> <CdId>
2770

> <Mol Weight>
295.155

> <Formula>
C11H7BrN2OS

> <Click_ID>
CLK037B02 __ __ 

$$$$
