CLK009_H06
 OpenBabel03181417552D

 15 15  0  0  0  0  0  0  0  0999 V2000
    1.6107    0.7048    0.0000 C   0  0  0  0  0  0  0  0  0  0  0  0
    0.8967    1.1208    0.0000 N   0  0  0  0  0  0  0  0  0  0  0  0
   -1.9527    1.1208    0.0000 C   0  0  0  0  0  0  0  0  0  0  0  0
   -2.6529    0.7048    0.0000 C   0  0  0  0  0  0  0  0  0  0  0  0
    1.6107   -0.1133    0.0000 C   0  0  0  0  0  0  0  0  0  0  0  0
    2.3225    1.1092    0.0000 O   0  0  0  0  0  0  0  0  0  0  0  0
    0.1872    0.7048    0.0000 C   0  0  0  0  0  0  0  0  0  0  0  0
   -1.2386    0.7048    0.0000 C   0  0  0  0  0  0  0  0  0  0  0  0
   -0.5269    1.1208    0.0000 C   0  0  0  0  0  0  0  0  0  0  0  0
   -0.5269   -0.5362    0.0000 C   0  0  0  0  0  0  0  0  0  0  0  0
    1.6084   -0.9729    0.0000 C   0  0  0  0  0  0  0  0  0  0  0  0
    0.7765   -0.1133    0.0000 C   0  0  0  0  0  0  0  0  0  0  0  0
    2.4681   -0.1133    0.0000 C   0  0  0  0  0  0  0  0  0  0  0  0
    0.1872   -0.1202    0.0000 C   0  0  0  0  0  0  0  0  0  0  0  0
   -1.2386   -0.1202    0.0000 C   0  0  0  0  0  0  0  0  0  0  0  0
  2  1  1  0  0  0  0
  3  8  1  0  0  0  0
  4  3  3  0  0  0  0
  5  1  1  0  0  0  0
  6  1  2  0  0  0  0
  7  2  1  0  0  0  0
  8  9  2  0  0  0  0
  9  7  1  0  0  0  0
 10 14  1  0  0  0  0
 11  5  1  0  0  0  0
 12  5  1  0  0  0  0
 13  5  1  0  0  0  0
 14  7  2  0  0  0  0
 15 10  2  0  0  0  0
 15  8  1  0  0  0  0
M  END
> <CdId>
671

> <Mol Weight>
201.2643

> <Formula>
C13H15NO

> <Click_ID>
CLK009_H06 __ __ 

$$$$
