CLK006_F07
 OpenBabel03181417552D

 31 34  0  0  0  0  0  0  0  0999 V2000
   -2.2621   -0.2952    0.0000 C   0  0  3  0  0  0  0  0  0  0  0  0
   -1.5510    0.1954    0.0000 C   0  0  0  0  0  0  0  0  0  0  0  0
   -1.5551   -0.7235    0.0000 C   0  0  0  0  0  0  0  0  0  0  0  0
   -2.9191    0.2079    0.0000 C   0  0  0  0  0  0  0  0  0  0  0  0
   -1.8171    0.9730    0.0000 C   0  0  0  0  0  0  0  0  0  0  0  0
   -2.6446    0.9897    0.0000 N   0  0  0  0  0  0  0  0  0  0  0  0
   -1.5676   -1.5510    0.0000 C   0  0  0  0  0  0  0  0  0  0  0  0
   -0.7527    0.0374    0.0000 C   0  0  0  0  0  0  0  0  0  0  0  0
   -2.2911   -1.9502    0.0000 O   0  0  0  0  0  0  0  0  0  0  0  0
   -2.9856   -0.7028    0.0000 C   0  0  0  0  0  0  0  0  0  0  0  0
   -0.9024   -1.2308    0.0000 C   0  0  0  0  0  0  0  0  0  0  0  0
   -2.9981   -1.5302    0.0000 C   0  0  0  0  0  0  0  0  0  0  0  0
   -1.2807    1.5967    0.0000 C   0  0  0  0  0  0  0  0  0  0  0  0
   -2.7652    2.4076    0.0000 C   0  0  0  0  0  0  0  0  0  0  0  0
   -0.4740    1.4346    0.0000 C   0  0  0  0  0  0  0  0  0  0  0  0
   -0.2079    0.6570    0.0000 C   0  0  0  0  0  0  0  0  0  0  0  0
   -2.3868    3.1394    0.0000 C   0  0  0  0  0  0  0  0  0  0  0  0
   -3.7466    0.2163    0.0000 O   0  0  0  0  0  0  0  0  0  0  0  0
   -0.3077   -0.6529    0.0000 O   0  0  0  0  0  0  0  0  0  0  0  0
   -1.2475   -2.3245    0.0000 N   0  0  0  0  0  0  0  0  0  0  0  0
   -3.1145    1.6633    0.0000 C   0  0  0  0  0  0  0  0  0  0  0  0
   -0.6694   -2.0209    0.0000 O   0  0  0  0  0  0  0  0  0  0  0  0
   -0.0790   -1.2599    0.0000 O   0  0  0  0  0  0  0  0  0  0  0  0
   -3.6883   -0.2744    0.0000 C   0  0  0  0  0  0  0  0  0  0  0  0
   -3.7174   -1.9294    0.0000 C   0  0  0  0  0  0  0  0  0  0  0  0
    0.3119    1.2100    0.0000 C   0  0  0  0  0  0  0  0  0  0  0  0
   -0.6778    2.2412    0.0000 C   0  0  0  0  0  0  0  0  0  0  0  0
    0.4823   -1.8670    0.0000 C   0  0  0  0  0  0  0  0  0  0  0  0
   -4.4160   -0.6778    0.0000 C   0  0  0  0  0  0  0  0  0  0  0  0
   -4.4285   -1.5052    0.0000 C   0  0  0  0  0  0  0  0  0  0  0  0
    0.2328   -2.6529    0.0000 C   0  0  0  0  0  0  0  0  0  0  0  0
  2  1  1  0  0  0  0
  3  1  1  0  0  0  0
  4  1  1  0  0  0  0
  5  2  2  0  0  0  0
  6  4  1  0  0  0  0
  6  5  1  0  0  0  0
  7  3  2  0  0  0  0
  8  2  1  0  0  0  0
  9 12  1  0  0  0  0
  9  7  1  0  0  0  0
 10  1  1  0  0  0  0
 11  3  1  0  0  0  0
 12 10  1  0  0  0  0
 13  5  1  0  0  0  0
 14 21  1  0  0  0  0
 15 13  1  0  0  0  0
 15 16  1  0  0  0  0
 16  8  1  0  0  0  0
 17 14  3  0  0  0  0
 18  4  2  0  0  0  0
 19  8  2  0  0  0  0
 20  7  1  0  0  0  0
 21  6  1  0  0  0  0
 22 11  2  0  0  0  0
 23 11  1  0  0  0  0
 24 10  2  0  0  0  0
 25 12  2  0  0  0  0
 26 15  1  0  0  0  0
 27 15  1  0  0  0  0
 28 23  1  0  0  0  0
 29 24  1  0  0  0  0
 30 29  2  0  0  0  0
 30 25  1  0  0  0  0
 31 28  1  0  0  0  0
M  END
> <CdId>
456

> <Mol Weight>
420.4578

> <Formula>
C24H24N2O5

> <Click_ID>
CLK006_F07 __ __ 

$$$$
