CLK034_G09
 OpenBabel03181417552D

 27 29  0  0  0  0  0  0  0  0999 V2000
   -4.5934    2.5569    0.0000 C    0  0  0  0  0  0  0  0  0  0  0  0
   -3.8604    2.9817    0.0000 N    0  0  0  0  0  0  0  0  0  0  0  0
   -4.6808    1.7324    0.0000 N    0  0  0  0  0  0  0  0  0  0  0  0
   -3.1566    4.2103    0.0000 C    0  0  0  0  0  0  0  0  0  0  0  0
   -3.8687    3.7980    0.0000 C    0  0  0  0  0  0  0  0  0  0  0  0
   -5.3180    2.8943    0.0000 S    0  0  0  0  0  0  0  0  0  0  0  0
   -2.4362    2.9692    0.0000 N    0  0  0  0  0  0  0  0  0  0  0  0
   -5.4846    1.5825    0.0000 C    0  0  0  0  0  0  0  0  0  0  0  0
   -2.4362    3.8063    0.0000 C    0  0  0  0  0  0  0  0  0  0  0  0
   -5.8927    2.2988    0.0000 C    0  0  0  0  0  0  0  0  0  0  0  0
   -4.2560    0.3581    0.0000 C    0  0  0  0  0  0  0  0  0  0  0  0
   -4.4434   -0.4540    0.0000 C    0  0  0  0  0  0  0  0  0  0  0  0
   -1.7199    4.2103    0.0000 C    0  0  0  0  0  0  0  0  0  0  0  0
   -3.1483    5.0265    0.0000 C    0  0  0  0  0  0  0  0  0  0  0  0
   -3.1566    2.5569    0.0000 O    0  0  0  0  0  0  0  0  0  0  0  0
   -1.7324    2.5569    0.0000 O    0  0  0  0  0  0  0  0  0  0  0  0
   -4.5809    4.2145    0.0000 O    0  0  0  0  0  0  0  0  0  0  0  0
   -5.9176    0.8828    0.0000 C    0  0  0  0  0  0  0  0  0  0  0  0
   -4.0686    1.1619    0.0000 C    0  0  0  0  0  0  0  0  0  0  0  0
   -2.4320    5.4471    0.0000 C    0  0  0  0  0  0  0  0  0  0  0  0
   -1.7199    5.0265    0.0000 C    0  0  0  0  0  0  0  0  0  0  0  0
   -6.7006    2.3196    0.0000 C    0  0  0  0  0  0  0  0  0  0  0  0
   -2.4320    6.2759    0.0000 Cl   0  0  0  0  0  0  0  0  0  0  0  0
   -5.5179    0.1457    0.0000 O    0  0  0  0  0  0  0  0  0  0  0  0
   -7.1379    1.6199    0.0000 C    0  0  0  0  0  0  0  0  0  0  0  0
   -6.7256    0.8870    0.0000 C    0  0  0  0  0  0  0  0  0  0  0  0
   -5.9551   -0.5539    0.0000 C    0  0  0  0  0  0  0  0  0  0  0  0
  2  1  2  0  0  0  0
  3  1  1  0  0  0  0
  4  5  1  0  0  0  0
  5  2  1  0  0  0  0
  6  1  1  0  0  0  0
  7  9  1  0  0  0  0
  8  3  1  0  0  0  0
  9  4  2  0  0  0  0
 10  6  1  0  0  0  0
 10  8  2  0  0  0  0
 11 19  1  0  0  0  0
 12 11  3  0  0  0  0
 13  9  1  0  0  0  0
 13 21  2  0  0  0  0
 14  4  1  0  0  0  0
 15  7  1  0  0  0  0
 16  7  2  0  0  0  0
 17  5  2  0  0  0  0
 18  8  1  0  0  0  0
 19  3  1  0  0  0  0
 20 14  2  0  0  0  0
 21 20  1  0  0  0  0
 22 10  1  0  0  0  0
 23 20  1  0  0  0  0
 24 18  1  0  0  0  0
 25 22  2  0  0  0  0
 26 18  2  0  0  0  0
 26 25  1  0  0  0  0
 27 24  1  0  0  0  0
M  END
> <CdId>
2633

> <Mol Weight>
401.824

> <Formula>
C18H12ClN3O4S

> <Click_ID>
CLK034_G09 __ __ 

$$$$
