CLK045C04
 OpenBabel03181417552D

 18 19  0  0  0  0  0  0  0  0999 V2000
   -0.2417   -1.6042    0.0000 C   0  0  0  0  0  0  0  0  0  0  0  0
    1.1875   -3.2542    0.0000 C   0  0  0  0  0  0  0  0  0  0  0  0
    1.9042   -3.6667    0.0000 C   0  0  0  0  0  0  0  0  0  0  0  0
   -0.2417   -0.7792    0.0000 C   0  0  0  0  0  0  0  0  0  0  0  0
   -0.2417    0.8708    0.0000 C   0  0  0  0  0  0  0  0  0  0  0  0
   -0.9542   -2.0167    0.0000 O   0  0  0  0  0  0  0  0  0  0  0  0
    0.4750   -0.3667    0.0000 C   0  0  0  0  0  0  0  0  0  0  0  0
   -0.9542   -0.3667    0.0000 C   0  0  0  0  0  0  0  0  0  0  0  0
   -0.9542    0.4583    0.0000 C   0  0  0  0  0  0  0  0  0  0  0  0
    0.4750    0.4583    0.0000 C   0  0  0  0  0  0  0  0  0  0  0  0
    0.4750   -2.0167    0.0000 N   0  0  0  0  0  0  0  0  0  0  0  0
   -0.2417    1.6958    0.0000 C   0  0  0  0  0  0  0  0  0  0  0  0
    0.4750   -2.8417    0.0000 C   0  0  0  0  0  0  0  0  0  0  0  0
    0.4750    2.1083    0.0000 C   0  0  0  0  0  0  0  0  0  0  0  0
   -0.9542    2.1083    0.0000 C   0  0  0  0  0  0  0  0  0  0  0  0
   -0.9542    2.9333    0.0000 C   0  0  0  0  0  0  0  0  0  0  0  0
    0.4750    2.9333    0.0000 C   0  0  0  0  0  0  0  0  0  0  0  0
   -0.2417    3.3458    0.0000 C   0  0  0  0  0  0  0  0  0  0  0  0
  2 13  1  0  0  0  0
  3  2  3  0  0  0  0
  4  1  1  0  0  0  0
  5  9  2  0  0  0  0
  5 10  1  0  0  0  0
  6  1  2  0  0  0  0
  7  4  1  0  0  0  0
  8  4  2  0  0  0  0
  9  8  1  0  0  0  0
 10  7  2  0  0  0  0
 11  1  1  0  0  0  0
 12  5  1  0  0  0  0
 13 11  1  0  0  0  0
 14 12  1  0  0  0  0
 15 12  1  0  0  0  0
 16 15  1  0  0  0  0
 17 14  1  0  0  0  0
 18 16  1  0  0  0  0
 18 17  1  0  0  0  0
M  END
> <CdId>
3427

> <Mol Weight>
241.3282

> <Formula>
C16H19NO

> <Click_ID>
CLK045C04 __ __ 

$$$$
