CLK036_G06
 OpenBabel03181417552D

 17 17  0  0  0  0  0  0  0  0999 V2000
   -0.6403    2.3610    0.0000 C   0  0  0  0  0  0  0  0  0  0  0  0
   -0.0322    2.7223    0.0000 S   0  0  0  0  0  0  0  0  0  0  0  0
   -0.6403    1.6527    0.0000 N   0  0  0  0  0  0  0  0  0  0  0  0
    0.5831    2.3610    0.0000 C   0  0  0  0  0  0  0  0  0  0  0  0
    0.5831    1.6527    0.0000 N   0  0  0  0  0  0  0  0  0  0  0  0
   -1.4917    2.5506    0.0000 N   0  0  0  0  0  0  0  0  0  0  0  0
   -2.2001    2.5613    0.0000 C   0  0  0  0  0  0  0  0  0  0  0  0
    1.7422    1.2556    0.0000 C   0  0  0  0  0  0  0  0  0  0  0  0
   -3.0765    2.5506    0.0000 N   0  0  0  0  0  0  0  0  0  0  0  0
    1.6027    0.4471    0.0000 C   0  0  0  0  0  0  0  0  0  0  0  0
   -2.2072    3.2625    0.0000 O   0  0  0  0  0  0  0  0  0  0  0  0
   -3.4950    3.2696    0.0000 C   0  0  0  0  0  0  0  0  0  0  0  0
    1.2664    2.6043    0.0000 S   0  0  0  0  0  0  0  0  0  0  0  0
    1.8924    2.0713    0.0000 C   0  0  0  0  0  0  0  0  0  0  0  0
   -4.3214    2.9692    0.0000 C   0  0  0  0  0  0  0  0  0  0  0  0
   -2.8332    3.7669    0.0000 C   0  0  0  0  0  0  0  0  0  0  0  0
   -3.8384    3.9422    0.0000 C   0  0  0  0  0  0  0  0  0  0  0  0
  2  1  1  0  0  0  0
  3  1  2  0  0  0  0
  4  2  1  0  0  0  0
  5  3  1  0  0  0  0
  5  4  2  0  0  0  0
  6  1  1  0  0  0  0
  7  6  1  0  0  0  0
  8 14  1  0  0  0  0
  9  7  1  0  0  0  0
 10  8  3  0  0  0  0
 11  7  2  0  0  0  0
 12  9  1  0  0  0  0
 13  4  1  0  0  0  0
 14 13  1  0  0  0  0
 15 12  1  0  0  0  0
 16 12  1  0  0  0  0
 17 12  1  0  0  0  0
M  END
> <CdId>
2763

> <Mol Weight>
270.374

> <Formula>
C10H14N4OS2

> <Click_ID>
CLK036_G06 __ __ 

$$$$
