CLK039H07
 OpenBabel03181417552D

 20 21  0  0  0  0  0  0  0  0999 V2000
    0.3746   -0.3247    0.0000 C   0  0  0  0  0  0  0  0  0  0  0  0
    0.6327   -1.1114    0.0000 C   0  0  0  0  0  0  0  0  0  0  0  0
    0.1457   -1.7774    0.0000 N   0  0  0  0  0  0  0  0  0  0  0  0
    0.9283    0.2872    0.0000 C   0  0  0  0  0  0  0  0  0  0  0  0
    1.4153   -1.3653    0.0000 S   0  0  0  0  0  0  0  0  0  0  0  0
   -0.4288   -0.1540    0.0000 C   0  0  0  0  0  0  0  0  0  0  0  0
    0.6327   -2.4433    0.0000 C   0  0  0  0  0  0  0  0  0  0  0  0
   -1.2362    0.0167    0.0000 N   0  0  0  0  0  0  0  0  0  0  0  0
    1.4153   -2.1895    0.0000 C   0  0  0  0  0  0  0  0  0  0  0  0
    0.6743    1.0697    0.0000 C   0  0  0  0  0  0  0  0  0  0  0  0
   -2.0437    0.1873    0.0000 C   0  0  0  0  0  0  0  0  0  0  0  0
   -2.5932   -0.4246    0.0000 C   0  0  0  0  0  0  0  0  0  0  0  0
   -0.1332    1.2404    0.0000 C   0  0  0  0  0  0  0  0  0  0  0  0
   -0.6826    0.6286    0.0000 O   0  0  0  0  0  0  0  0  0  0  0  0
   -1.4902    0.7992    0.0000 C   0  0  0  0  0  0  0  0  0  0  0  0
    0.3746   -3.2259    0.0000 C   0  0  0  0  0  0  0  0  0  0  0  0
    1.2238    1.6816    0.0000 C   0  0  0  0  0  0  0  0  0  0  0  0
   -0.3871    2.0271    0.0000 C   0  0  0  0  0  0  0  0  0  0  0  0
    0.9698    2.4683    0.0000 C   0  0  0  0  0  0  0  0  0  0  0  0
    0.1623    2.6390    0.0000 C   0  0  0  0  0  0  0  0  0  0  0  0
  2  1  1  0  0  0  0
  3  2  2  0  0  0  0
  4  1  2  0  0  0  0
  5  2  1  0  0  0  0
  6  1  1  0  0  0  0
  7  3  1  0  0  0  0
  8  6  3  0  0  0  0
  9  5  1  0  0  0  0
  9  7  2  0  0  0  0
 10  4  1  0  0  0  0
 11 15  1  0  0  0  0
 12 11  3  0  0  0  0
 13 10  2  0  0  0  0
 14 13  1  0  0  0  0
 15 14  1  0  0  0  0
 16  7  1  0  0  0  0
 17 10  1  0  0  0  0
 18 13  1  0  0  0  0
 19 17  2  0  0  0  0
 20 18  2  0  0  0  0
 20 19  1  0  0  0  0
M  END
> <CdId>
2976

> <Mol Weight>
280.344

> <Formula>
C16H12N2OS

> <Click_ID>
CLK039H07 __ __ 

$$$$
