CLK034_F06
 OpenBabel03181417552D

 28 31  0  0  0  0  0  0  0  0999 V2000
   -4.5756    2.5457    0.0000 C   0  0  0  0  0  0  0  0  0  0  0  0
   -3.8643    2.9658    0.0000 N   0  0  0  0  0  0  0  0  0  0  0  0
   -4.6671    1.7304    0.0000 N   0  0  0  0  0  0  0  0  0  0  0  0
   -5.3118    2.8909    0.0000 S   0  0  0  0  0  0  0  0  0  0  0  0
   -5.4740    1.5681    0.0000 C   0  0  0  0  0  0  0  0  0  0  0  0
   -5.8734    2.2919    0.0000 C   0  0  0  0  0  0  0  0  0  0  0  0
   -3.1530    4.2054    0.0000 C   0  0  0  0  0  0  0  0  0  0  0  0
   -3.8643    3.7936    0.0000 C   0  0  0  0  0  0  0  0  0  0  0  0
   -3.1405    5.0332    0.0000 C   0  0  0  0  0  0  0  0  0  0  0  0
   -2.4417    3.8019    0.0000 O   0  0  0  0  0  0  0  0  0  0  0  0
   -2.4292    5.4408    0.0000 C   0  0  0  0  0  0  0  0  0  0  0  0
   -1.7096    5.0207    0.0000 C   0  0  0  0  0  0  0  0  0  0  0  0
   -1.7221    4.2054    0.0000 C   0  0  0  0  0  0  0  0  0  0  0  0
   -6.6929    2.3044    0.0000 C   0  0  0  0  0  0  0  0  0  0  0  0
   -4.2386    0.3494    0.0000 C   0  0  0  0  0  0  0  0  0  0  0  0
   -4.4133   -0.4534    0.0000 C   0  0  0  0  0  0  0  0  0  0  0  0
   -5.8983    0.8693    0.0000 C   0  0  0  0  0  0  0  0  0  0  0  0
   -7.1172    1.5973    0.0000 C   0  0  0  0  0  0  0  0  0  0  0  0
   -4.5880    4.2054    0.0000 O   0  0  0  0  0  0  0  0  0  0  0  0
   -2.4292    6.2686    0.0000 O   0  0  0  0  0  0  0  0  0  0  0  0
   -6.7054    0.8818    0.0000 C   0  0  0  0  0  0  0  0  0  0  0  0
   -4.0514    1.1605    0.0000 C   0  0  0  0  0  0  0  0  0  0  0  0
   -0.9941    5.4325    0.0000 C   0  0  0  0  0  0  0  0  0  0  0  0
   -1.0066    3.7936    0.0000 C   0  0  0  0  0  0  0  0  0  0  0  0
   -7.0922    3.0282    0.0000 C   0  0  0  0  0  0  0  0  0  0  0  0
   -7.1047    0.1580    0.0000 C   0  0  0  0  0  0  0  0  0  0  0  0
   -0.2828    5.0207    0.0000 C   0  0  0  0  0  0  0  0  0  0  0  0
   -0.2870    4.1971    0.0000 C   0  0  0  0  0  0  0  0  0  0  0  0
  2  1  2  0  0  0  0
  3  1  1  0  0  0  0
  4  1  1  0  0  0  0
  5  3  1  0  0  0  0
  6  4  1  0  0  0  0
  6  5  2  0  0  0  0
  7  8  1  0  0  0  0
  8  2  1  0  0  0  0
  9  7  2  0  0  0  0
 10  7  1  0  0  0  0
 11  9  1  0  0  0  0
 12 13  2  0  0  0  0
 12 11  1  0  0  0  0
 13 10  1  0  0  0  0
 14  6  1  0  0  0  0
 15 22  1  0  0  0  0
 16 15  3  0  0  0  0
 17  5  1  0  0  0  0
 18 14  2  0  0  0  0
 19  8  2  0  0  0  0
 20 11  2  0  0  0  0
 21 17  2  0  0  0  0
 21 18  1  0  0  0  0
 22  3  1  0  0  0  0
 23 12  1  0  0  0  0
 23 27  2  0  0  0  0
 24 13  1  0  0  0  0
 25 14  1  0  0  0  0
 26 21  1  0  0  0  0
 27 28  1  0  0  0  0
 28 24  2  0  0  0  0
M  END
> <CdId>
2620

> <Mol Weight>
388.439

> <Formula>
C22H16N2O3S

> <Click_ID>
CLK034_F06 __ __ 

$$$$
