CLK026_B04
 OpenBabel03181417552D

 27 29  0  0  0  0  0  0  0  0999 V2000
    2.4922    0.6669    0.0000 N    0  0  0  0  0  0  0  0  0  0  0  0
    1.8460    0.1685    0.0000 C    0  0  0  0  0  0  0  0  0  0  0  0
    2.2172    1.4438    0.0000 C    0  0  0  0  0  0  0  0  0  0  0  0
    1.3922    1.4128    0.0000 C    0  0  0  0  0  0  0  0  0  0  0  0
    1.1585    0.6256    0.0000 S    0  0  0  0  0  0  0  0  0  0  0  0
    0.9488    2.1176    0.0000 C    0  0  0  0  0  0  0  0  0  0  0  0
    3.2829    0.4297    0.0000 C    0  0  0  0  0  0  0  0  0  0  0  0
   -3.6232    2.6504    0.0000 C    0  0  0  0  0  0  0  0  0  0  0  0
   -4.4619    2.6263    0.0000 C    0  0  0  0  0  0  0  0  0  0  0  0
   -1.0897    1.3166    0.0000 C    0  0  0  0  0  0  0  0  0  0  0  0
    1.8735   -0.6565    0.0000 O    0  0  0  0  0  0  0  0  0  0  0  0
    2.6848    2.1382    0.0000 O    0  0  0  0  0  0  0  0  0  0  0  0
    0.1203    2.0866    0.0000 C    0  0  0  0  0  0  0  0  0  0  0  0
   -0.2647    1.3544    0.0000 C    0  0  0  0  0  0  0  0  0  0  0  0
   -1.5297    2.0144    0.0000 C    0  0  0  0  0  0  0  0  0  0  0  0
   -1.1516    2.7397    0.0000 C    0  0  0  0  0  0  0  0  0  0  0  0
    3.4789   -0.3713    0.0000 C    0  0  0  0  0  0  0  0  0  0  0  0
   -1.4747    0.5878    0.0000 Cl   0  0  0  0  0  0  0  0  0  0  0  0
   -0.3265    2.7741    0.0000 C    0  0  0  0  0  0  0  0  0  0  0  0
    3.8673   -1.9732    0.0000 C    0  0  0  0  0  0  0  0  0  0  0  0
    4.0597   -2.7707    0.0000 F    0  0  0  0  0  0  0  0  0  0  0  0
   -2.3616    1.9766    0.0000 O    0  0  0  0  0  0  0  0  0  0  0  0
    2.8841   -0.9453    0.0000 C    0  0  0  0  0  0  0  0  0  0  0  0
    4.2660   -0.6050    0.0000 C    0  0  0  0  0  0  0  0  0  0  0  0
    3.0800   -1.7429    0.0000 C    0  0  0  0  0  0  0  0  0  0  0  0
    4.4586   -1.4060    0.0000 C    0  0  0  0  0  0  0  0  0  0  0  0
   -2.8016    2.6745    0.0000 C    0  0  0  0  0  0  0  0  0  0  0  0
  2  1  1  0  0  0  0
  3  1  1  0  0  0  0
  4  3  1  0  0  0  0
  4  5  1  0  0  0  0
  5  2  1  0  0  0  0
  6  4  2  0  0  0  0
  7  1  1  0  0  0  0
  8 27  1  0  0  0  0
  9  8  3  0  0  0  0
 10 14  2  0  0  0  0
 10 15  1  0  0  0  0
 11  2  2  0  0  0  0
 12  3  2  0  0  0  0
 13  6  1  0  0  0  0
 14 13  1  0  0  0  0
 15 16  2  0  0  0  0
 16 19  1  0  0  0  0
 17  7  1  0  0  0  0
 18 10  1  0  0  0  0
 19 13  2  0  0  0  0
 20 26  1  0  0  0  0
 21 20  1  0  0  0  0
 22 15  1  0  0  0  0
 23 17  2  0  0  0  0
 24 17  1  0  0  0  0
 25 23  1  0  0  0  0
 25 20  2  0  0  0  0
 26 24  2  0  0  0  0
 27 22  1  0  0  0  0
M  END
> <CdId>
1949

> <Mol Weight>
401.839

> <Formula>
C20H13ClFNO3S

> <Click_ID>
CLK026_B04 __ __ 

$$$$
