CLK047G08
 OpenBabel03181417552D

 19 20  0  0  0  0  0  0  0  0999 V2000
    1.7750   -0.5083    0.0000 N   0  0  0  0  0  0  0  0  0  0  0  0
    0.4625    0.1583    0.0000 C   0  0  0  0  0  0  0  0  0  0  0  0
    1.2875    0.1583    0.0000 C   0  0  3  0  0  0  0  0  0  0  0  0
    1.5167   -1.2917    0.0000 C   0  0  0  0  0  0  0  0  0  0  0  0
    0.0500    0.8750    0.0000 N   0  0  0  0  0  0  0  0  0  0  0  0
   -2.4250   -0.5542    0.0000 C   0  0  0  0  0  0  0  0  0  0  0  0
   -2.8375   -1.2708    0.0000 C   0  0  0  0  0  0  0  0  0  0  0  0
    0.0500   -0.5542    0.0000 O   0  0  0  0  0  0  0  0  0  0  0  0
   -0.7750    0.8750    0.0000 C   0  0  0  0  0  0  0  0  0  0  0  0
    2.0708   -1.9042    0.0000 O   0  0  0  0  0  0  0  0  0  0  0  0
   -2.0125    0.1583    0.0000 C   0  0  0  0  0  0  0  0  0  0  0  0
    2.5583   -0.2542    0.0000 C   0  0  0  0  0  0  0  0  0  0  0  0
   -1.1875    0.1583    0.0000 C   0  0  0  0  0  0  0  0  0  0  0  0
    1.7750    0.8292    0.0000 C   0  0  0  0  0  0  0  0  0  0  0  0
    0.7125   -1.4625    0.0000 C   0  0  0  0  0  0  0  0  0  0  0  0
    2.5583    0.5708    0.0000 C   0  0  0  0  0  0  0  0  0  0  0  0
   -2.0125    1.5875    0.0000 C   0  0  0  0  0  0  0  0  0  0  0  0
   -1.1875    1.5875    0.0000 C   0  0  0  0  0  0  0  0  0  0  0  0
   -2.4250    0.8750    0.0000 C   0  0  0  0  0  0  0  0  0  0  0  0
  2  3  1  0  0  0  0
  3  1  1  0  0  0  0
  4  1  1  0  0  0  0
  5  2  1  0  0  0  0
  6 11  1  0  0  0  0
  7  6  3  0  0  0  0
  8  2  2  0  0  0  0
  9  5  1  0  0  0  0
 10  4  2  0  0  0  0
 11 13  1  0  0  0  0
 12  1  1  0  0  0  0
 13  9  2  0  0  0  0
 14  3  1  0  0  0  0
 14 16  1  0  0  0  0
 15  4  1  0  0  0  0
 16 12  1  0  0  0  0
 17 18  2  0  0  0  0
 18  9  1  0  0  0  0
 19 11  2  0  0  0  0
 19 17  1  0  0  0  0
M  END
> <CdId>
3623

> <Mol Weight>
256.2997

> <Formula>
C15H16N2O2

> <Click_ID>
CLK047G08 __ __ 

$$$$
