CLK042E04
 OpenBabel03181417552D

 22 24  0  0  0  0  0  0  0  0999 V2000
   -0.7333   -0.2375    0.0000 C   0  0  0  0  0  0  0  0  0  0  0  0
   -1.2208    0.4333    0.0000 N   0  0  0  0  0  0  0  0  0  0  0  0
   -1.2208   -0.9042    0.0000 N   0  0  0  0  0  0  0  0  0  0  0  0
   -2.0042   -0.6500    0.0000 C   0  0  0  0  0  0  0  0  0  0  0  0
   -2.0042    0.1750    0.0000 C   0  0  0  0  0  0  0  0  0  0  0  0
   -1.5167   -2.3000    0.0000 C   0  0  0  0  0  0  0  0  0  0  0  0
   -2.0708   -2.9125    0.0000 C   0  0  0  0  0  0  0  0  0  0  0  0
    0.0917   -0.2375    0.0000 S   0  0  0  0  0  0  0  0  0  0  0  0
   -0.9667   -1.6875    0.0000 C   0  0  0  0  0  0  0  0  0  0  0  0
    2.5667    1.1917    0.0000 C   0  0  0  0  0  0  0  0  0  0  0  0
   -2.7208   -1.0625    0.0000 C   0  0  0  0  0  0  0  0  0  0  0  0
   -2.7208    0.5875    0.0000 C   0  0  0  0  0  0  0  0  0  0  0  0
    1.7417    1.1917    0.0000 O   0  0  0  0  0  0  0  0  0  0  0  0
    0.5042    0.4792    0.0000 C   0  0  0  0  0  0  0  0  0  0  0  0
    1.3292    0.4792    0.0000 C   0  0  0  0  0  0  0  0  0  0  0  0
    2.9792    1.9083    0.0000 C   0  0  0  0  0  0  0  0  0  0  0  0
    2.9792    0.4792    0.0000 C   0  0  0  0  0  0  0  0  0  0  0  0
   -3.4333   -0.6500    0.0000 C   0  0  0  0  0  0  0  0  0  0  0  0
   -3.4333    0.1750    0.0000 C   0  0  0  0  0  0  0  0  0  0  0  0
    3.8042    0.4792    0.0000 C   0  0  0  0  0  0  0  0  0  0  0  0
    3.8042    1.9083    0.0000 C   0  0  0  0  0  0  0  0  0  0  0  0
    4.2167    1.1917    0.0000 C   0  0  0  0  0  0  0  0  0  0  0  0
  2  1  2  0  0  0  0
  3  1  1  0  0  0  0
  4  3  1  0  0  0  0
  4  5  2  0  0  0  0
  5  2  1  0  0  0  0
  6  9  1  0  0  0  0
  7  6  3  0  0  0  0
  8  1  1  0  0  0  0
  9  3  1  0  0  0  0
 10 13  1  0  0  0  0
 11  4  1  0  0  0  0
 12  5  1  0  0  0  0
 13 15  1  0  0  0  0
 14  8  1  0  0  0  0
 15 14  1  0  0  0  0
 16 10  2  0  0  0  0
 17 10  1  0  0  0  0
 18 11  2  0  0  0  0
 18 19  1  0  0  0  0
 19 12  2  0  0  0  0
 20 17  2  0  0  0  0
 21 16  1  0  0  0  0
 22 21  2  0  0  0  0
 22 20  1  0  0  0  0
M  END
> <CdId>
3189

> <Mol Weight>
308.397

> <Formula>
C18H16N2OS

> <Click_ID>
CLK042E04 __ __ 

$$$$
