CLK048F05
 OpenBabel03181417552D

 18 19  0  0  0  0  0  0  0  0999 V2000
    1.7042   -0.5250    0.0000 C   0  0  0  0  0  0  0  0  0  0  0  0
   -1.8667   -0.1125    0.0000 C   0  0  0  0  0  0  0  0  0  0  0  0
    3.8500   -0.1125    0.0000 C   0  0  0  0  0  0  0  0  0  0  0  0
    4.5625    0.3000    0.0000 C   0  0  0  0  0  0  0  0  0  0  0  0
   -1.8667    0.7125    0.0000 C   0  0  0  0  0  0  0  0  0  0  0  0
    0.9917   -0.1125    0.0000 N   0  0  0  0  0  0  0  0  0  0  0  0
   -2.5833   -0.5250    0.0000 O   0  0  0  0  0  0  0  0  0  0  0  0
    1.7042   -1.3500    0.0000 O   0  0  0  0  0  0  0  0  0  0  0  0
   -1.1542   -0.5250    0.0000 C   0  0  0  0  0  0  0  0  0  0  0  0
   -2.5833    1.1250    0.0000 O   0  0  0  0  0  0  0  0  0  0  0  0
    2.4208   -0.1125    0.0000 N   0  0  0  0  0  0  0  0  0  0  0  0
   -1.1542    1.1250    0.0000 C   0  0  0  0  0  0  0  0  0  0  0  0
   -0.4375   -0.1125    0.0000 C   0  0  0  0  0  0  0  0  0  0  0  0
    0.2750   -0.5250    0.0000 C   0  0  0  0  0  0  0  0  0  0  0  0
   -0.4375    0.7125    0.0000 C   0  0  0  0  0  0  0  0  0  0  0  0
    3.1333   -0.5250    0.0000 C   0  0  0  0  0  0  0  0  0  0  0  0
   -3.2958   -0.1125    0.0000 C   0  0  0  0  0  0  0  0  0  0  0  0
   -3.2958    0.7125    0.0000 C   0  0  0  0  0  0  0  0  0  0  0  0
  2  9  1  0  0  0  0
  3 16  1  0  0  0  0
  4  3  3  0  0  0  0
  5  2  2  0  0  0  0
  5 12  1  0  0  0  0
  6  1  1  0  0  0  0
  7  2  1  0  0  0  0
  8  1  2  0  0  0  0
  9 13  2  0  0  0  0
 10  5  1  0  0  0  0
 11  1  1  0  0  0  0
 12 15  2  0  0  0  0
 13 14  1  0  0  0  0
 14  6  1  0  0  0  0
 15 13  1  0  0  0  0
 16 11  1  0  0  0  0
 17  7  1  0  0  0  0
 17 18  1  0  0  0  0
 18 10  1  0  0  0  0
M  END
> <CdId>
3678

> <Mol Weight>
246.2619

> <Formula>
C13H14N2O3

> <Click_ID>
CLK048F05 __ __ 

$$$$
