CLK004_D02
 OpenBabel03181417552D

 31 34  0  0  0  0  0  0  0  0999 V2000
    0.5315    0.1761    0.0000 C    0  0  3  0  0  0  0  0  0  0  0  0
    0.9492   -0.5384    0.0000 C    0  0  0  0  0  0  0  0  0  0  0  0
    0.9492    0.8906    0.0000 C    0  0  0  0  0  0  0  0  0  0  0  0
   -0.2934    0.1864    0.0000 C    0  0  0  0  0  0  0  0  0  0  0  0
    1.7741   -0.5281    0.0000 C    0  0  0  0  0  0  0  0  0  0  0  0
    0.6973   -1.3254    0.0000 C    0  0  0  0  0  0  0  0  0  0  0  0
    1.7741    0.8906    0.0000 C    0  0  0  0  0  0  0  0  0  0  0  0
    0.5350    1.6118    0.0000 C    0  0  0  0  0  0  0  0  0  0  0  0
   -0.7041    0.8975    0.0000 C    0  0  0  0  0  0  0  0  0  0  0  0
   -0.7145   -0.5350    0.0000 C    0  0  0  0  0  0  0  0  0  0  0  0
    2.0330   -1.3151    0.0000 C    0  0  0  0  0  0  0  0  0  0  0  0
    2.1814    0.1761    0.0000 N    0  0  0  0  0  0  0  0  0  0  0  0
    1.3599   -1.8051    0.0000 C    0  0  0  0  0  0  0  0  0  0  0  0
   -0.0898   -1.5774    0.0000 O    0  0  0  0  0  0  0  0  0  0  0  0
    2.1883    1.6118    0.0000 C    0  0  0  0  0  0  0  0  0  0  0  0
    0.9492    2.3263    0.0000 O    0  0  0  0  0  0  0  0  0  0  0  0
   -0.2900    1.6118    0.0000 O    0  0  0  0  0  0  0  0  0  0  0  0
   -1.5291    0.8975    0.0000 C    0  0  0  0  0  0  0  0  0  0  0  0
   -1.5429   -0.5281    0.0000 C    0  0  0  0  0  0  0  0  0  0  0  0
    2.7889   -1.6499    0.0000 C    0  0  0  0  0  0  0  0  0  0  0  0
    1.4497   -2.6163    0.0000 C    0  0  0  0  0  0  0  0  0  0  0  0
    0.5453    3.0374    0.0000 C    0  0  0  0  0  0  0  0  0  0  0  0
   -1.9467    0.1864    0.0000 C    0  0  0  0  0  0  0  0  0  0  0  0
   -1.9329    1.6118    0.0000 Br   0  0  0  0  0  0  0  0  0  0  0  0
   -1.9571   -1.2391    0.0000 Br   0  0  0  0  0  0  0  0  0  0  0  0
    2.8752   -2.4679    0.0000 C    0  0  0  0  0  0  0  0  0  0  0  0
    2.2090   -2.9545    0.0000 C    0  0  0  0  0  0  0  0  0  0  0  0
   -2.7717    0.1968    0.0000 O    0  0  0  0  0  0  0  0  0  0  0  0
   -3.1790    0.9112    0.0000 C    0  0  0  0  0  0  0  0  0  0  0  0
   -4.0072    0.9250    0.0000 C    0  0  0  0  0  0  0  0  0  0  0  0
   -4.8322    0.9285    0.0000 C    0  0  0  0  0  0  0  0  0  0  0  0
  1  2  1  0  0  0  0
  1  3  1  0  0  0  0
  1  4  1  0  0  0  0
  2  5  2  0  0  0  0
  2  6  1  0  0  0  0
  3  7  2  0  0  0  0
  3  8  1  0  0  0  0
  4  9  1  0  0  0  0
  4 10  2  0  0  0  0
  5 11  1  0  0  0  0
  5 12  1  0  0  0  0
  6 13  1  0  0  0  0
  6 14  2  0  0  0  0
  7 15  1  0  0  0  0
  7 12  1  0  0  0  0
  8 16  1  0  0  0  0
  8 17  2  0  0  0  0
  9 18  2  0  0  0  0
 10 19  1  0  0  0  0
 11 20  1  0  0  0  0
 11 13  2  0  0  0  0
 13 21  1  0  0  0  0
 16 22  1  0  0  0  0
 18 23  1  0  0  0  0
 18 24  1  0  0  0  0
 19 25  1  0  0  0  0
 19 23  2  0  0  0  0
 20 26  2  0  0  0  0
 21 27  2  0  0  0  0
 23 28  1  0  0  0  0
 26 27  1  0  0  0  0
 28 29  1  0  0  0  0
 29 30  1  0  0  0  0
 30 31  3  0  0  0  0
M  END
> <CdId>
271

> <Mol Weight>
543.204

> <Formula>
C24H17Br2NO4

> <Click_ID>
CLK004_D02 __ __ 

$$$$
