CLK006_D03
 OpenBabel03181417552D

 12 12  0  0  0  0  0  0  0  0999 V2000
    7.2792  -14.7042    0.0000 C   0  0  0  0  0  0  0  0  0  0  0  0
    8.1042  -14.7042    0.0000 C   0  0  0  0  0  0  0  0  0  0  0  0
    2.3167  -14.7042    0.0000 O   0  0  0  0  0  0  0  0  0  0  0  0
    2.7292  -13.9917    0.0000 C   0  0  0  0  0  0  0  0  0  0  0  0
    3.5542  -13.9917    0.0000 C   0  0  0  0  0  0  0  0  0  0  0  0
    5.2125  -13.9917    0.0000 C   0  0  0  0  0  0  0  0  0  0  0  0
    3.9667  -13.2792    0.0000 C   0  0  0  0  0  0  0  0  0  0  0  0
    3.9667  -14.7042    0.0000 C   0  0  0  0  0  0  0  0  0  0  0  0
    4.8000  -13.2792    0.0000 C   0  0  0  0  0  0  0  0  0  0  0  0
    4.8000  -14.7042    0.0000 C   0  0  0  0  0  0  0  0  0  0  0  0
    6.4500  -14.7042    0.0000 C   0  0  0  0  0  0  0  0  0  0  0  0
    6.0375  -13.9917    0.0000 O   0  0  0  0  0  0  0  0  0  0  0  0
  2  1  3  0  0  0  0
  3  4  2  0  0  0  0
  4  5  1  0  0  0  0
  5  8  1  0  0  0  0
  5  7  2  0  0  0  0
  6 12  1  0  0  0  0
  7  9  1  0  0  0  0
  8 10  2  0  0  0  0
  9  6  2  0  0  0  0
 10  6  1  0  0  0  0
 11  1  1  0  0  0  0
 12 11  1  0  0  0  0
M  END
> <CdId>
432

> <Mol Weight>
160.1693

> <Formula>
C10H8O2

> <Click_ID>
CLK006_D03 __ __ 

$$$$
