CLK017_C10
 OpenBabel03181417552D

 16 17  0  0  0  0  0  0  0  0999 V2000
    5.7209   -9.2031    0.0000 O    0  0  0  0  0  0  0  0  0  0  0  0
    5.0535   -9.6799    0.0000 C    0  0  0  0  0  0  0  0  0  0  0  0
    5.3105  -10.4717    0.0000 N    0  0  0  0  0  0  0  0  0  0  0  0
    6.1313  -10.4717    0.0000 N    0  0  0  0  0  0  0  0  0  0  0  0
    6.3842   -9.6799    0.0000 C    0  0  0  0  0  0  0  0  0  0  0  0
    8.3865   -9.4312    0.0000 C    0  0  0  0  0  0  0  0  0  0  0  0
    9.0954   -9.0208    0.0000 C    0  0  0  0  0  0  0  0  0  0  0  0
    4.3404   -9.2695    0.0000 C    0  0  0  0  0  0  0  0  0  0  0  0
    7.0931   -9.2695    0.0000 S    0  0  0  0  0  0  0  0  0  0  0  0
    4.3404   -8.4445    0.0000 C    0  0  0  0  0  0  0  0  0  0  0  0
    3.6233   -9.6799    0.0000 C    0  0  0  0  0  0  0  0  0  0  0  0
    2.9102   -8.4445    0.0000 C    0  0  0  0  0  0  0  0  0  0  0  0
    2.9144   -9.2695    0.0000 C    0  0  0  0  0  0  0  0  0  0  0  0
    3.6233   -8.0258    0.0000 C    0  0  0  0  0  0  0  0  0  0  0  0
    2.1930   -8.0341    0.0000 Br   0  0  0  0  0  0  0  0  0  0  0  0
    7.6776   -9.8499    0.0000 C    0  0  0  0  0  0  0  0  0  0  0  0
  2  1  1  0  0  0  0
  3  2  2  0  0  0  0
  3  4  1  0  0  0  0
  4  5  2  0  0  0  0
  5  1  1  0  0  0  0
  6 16  1  0  0  0  0
  7  6  3  0  0  0  0
  8  2  1  0  0  0  0
  9  5  1  0  0  0  0
 10  8  2  0  0  0  0
 11  8  1  0  0  0  0
 12 13  1  0  0  0  0
 13 11  2  0  0  0  0
 14 10  1  0  0  0  0
 14 12  2  0  0  0  0
 15 12  1  0  0  0  0
 16  9  1  0  0  0  0
M  END
> <CdId>
1265

> <Mol Weight>
295.155

> <Formula>
C11H7BrN2OS

> <Click_ID>
CLK017_C10 __ __ 

$$$$
