CLK041H10
 OpenBabel03181417552D

 19 19  0  0  0  0  0  0  0  0999 V2000
   -0.7542    1.0458    0.0000 S   0  0  0  0  0  0  0  0  0  0  0  0
    0.6750   -1.4292    0.0000 C   0  0  0  0  0  0  0  0  0  0  0  0
   -0.0417    0.6333    0.0000 C   0  0  0  0  0  0  0  0  0  0  0  0
    1.3875   -1.8417    0.0000 N   0  0  0  0  0  0  0  0  0  0  0  0
    0.6750   -0.6042    0.0000 C   0  0  0  0  0  0  0  0  0  0  0  0
   -2.1833    2.6958    0.0000 C   0  0  0  0  0  0  0  0  0  0  0  0
   -0.0417   -0.1917    0.0000 C   0  0  0  0  0  0  0  0  0  0  0  0
   -2.8958    3.1083    0.0000 C   0  0  0  0  0  0  0  0  0  0  0  0
   -1.1667    0.3292    0.0000 O   0  0  0  0  0  0  0  0  0  0  0  0
   -0.3417    1.7583    0.0000 O   0  0  0  0  0  0  0  0  0  0  0  0
   -1.4667    1.4583    0.0000 N   0  0  0  0  0  0  0  0  0  0  0  0
   -0.0417   -1.8417    0.0000 O   0  0  0  0  0  0  0  0  0  0  0  0
   -1.4667    2.2833    0.0000 C   0  0  0  0  0  0  0  0  0  0  0  0
    1.3875   -2.6667    0.0000 C   0  0  0  0  0  0  0  0  0  0  0  0
    0.6750    1.0458    0.0000 C   0  0  0  0  0  0  0  0  0  0  0  0
    1.3875   -0.1917    0.0000 C   0  0  0  0  0  0  0  0  0  0  0  0
    1.3875    0.6333    0.0000 C   0  0  0  0  0  0  0  0  0  0  0  0
    0.6750   -3.0792    0.0000 C   0  0  0  0  0  0  0  0  0  0  0  0
    2.1042   -3.0792    0.0000 C   0  0  0  0  0  0  0  0  0  0  0  0
  2  5  1  0  0  0  0
  3  1  1  0  0  0  0
  4  2  1  0  0  0  0
  5  7  2  0  0  0  0
  6 13  1  0  0  0  0
  7  3  1  0  0  0  0
  8  6  3  0  0  0  0
  9  1  2  0  0  0  0
 10  1  2  0  0  0  0
 11  1  1  0  0  0  0
 12  2  2  0  0  0  0
 13 11  1  0  0  0  0
 14  4  1  0  0  0  0
 15  3  2  0  0  0  0
 16  5  1  0  0  0  0
 17 15  1  0  0  0  0
 17 16  2  0  0  0  0
 18 14  1  0  0  0  0
 19 14  1  0  0  0  0
M  END
> <CdId>
3160

> <Mol Weight>
280.343

> <Formula>
C13H16N2O3S

> <Click_ID>
CLK041H10 __ __ 

$$$$
