CLK023_B03
 OpenBabel03181417552D

 26 28  0  0  0  0  0  0  0  0999 V2000
   -1.6752    1.3037    0.0000 N   0  0  0  0  0  0  0  0  0  0  0  0
   -0.8600    1.3037    0.0000 C   0  0  0  0  0  0  0  0  0  0  0  0
   -1.9366    0.5160    0.0000 C   0  0  0  0  0  0  0  0  0  0  0  0
   -1.2761    0.0310    0.0000 C   0  0  0  0  0  0  0  0  0  0  0  0
   -0.6088    0.5160    0.0000 N   0  0  0  0  0  0  0  0  0  0  0  0
   -1.3690   -0.7911    0.0000 C   0  0  0  0  0  0  0  0  0  0  0  0
    0.6260   -2.2599    0.0000 C   0  0  0  0  0  0  0  0  0  0  0  0
    0.7155   -1.4412    0.0000 C   0  0  0  0  0  0  0  0  0  0  0  0
   -0.1238   -2.5902    0.0000 C   0  0  0  0  0  0  0  0  0  0  0  0
   -0.7017   -1.2865    0.0000 C   0  0  0  0  0  0  0  0  0  0  0  0
    2.7243   -2.9032    0.0000 C   0  0  0  0  0  0  0  0  0  0  0  0
   -2.1223    1.9916    0.0000 C   0  0  0  0  0  0  0  0  0  0  0  0
    3.3916   -3.3985    0.0000 C   0  0  0  0  0  0  0  0  0  0  0  0
   -0.3853    1.9813    0.0000 O   0  0  0  0  0  0  0  0  0  0  0  0
    0.0481   -0.9562    0.0000 C   0  0  0  0  0  0  0  0  0  0  0  0
   -0.7877   -2.1017    0.0000 C   0  0  0  0  0  0  0  0  0  0  0  0
   -2.7312    0.2683    0.0000 O   0  0  0  0  0  0  0  0  0  0  0  0
   -0.2029   -3.4122    0.0000 I   0  0  0  0  0  0  0  0  0  0  0  0
    1.4757   -1.1042    0.0000 I   0  0  0  0  0  0  0  0  0  0  0  0
    1.3002   -2.7518    0.0000 O   0  0  0  0  0  0  0  0  0  0  0  0
    2.0570   -2.4147    0.0000 C   0  0  0  0  0  0  0  0  0  0  0  0
   -1.7474    2.7278    0.0000 C   0  0  0  0  0  0  0  0  0  0  0  0
   -2.9479    1.9435    0.0000 C   0  0  0  0  0  0  0  0  0  0  0  0
   -3.3951    2.6383    0.0000 C   0  0  0  0  0  0  0  0  0  0  0  0
   -2.2049    3.4122    0.0000 C   0  0  0  0  0  0  0  0  0  0  0  0
   -3.0201    3.3710    0.0000 C   0  0  0  0  0  0  0  0  0  0  0  0
  2  1  1  0  0  0  0
  3  1  1  0  0  0  0
  4  3  1  0  0  0  0
  5  2  1  0  0  0  0
  5  4  1  0  0  0  0
  6  4  2  0  0  0  0
  7  9  2  0  0  0  0
  7  8  1  0  0  0  0
  8 15  2  0  0  0  0
  9 16  1  0  0  0  0
 10  6  1  0  0  0  0
 11 21  1  0  0  0  0
 12  1  1  0  0  0  0
 13 11  3  0  0  0  0
 14  2  2  0  0  0  0
 15 10  1  0  0  0  0
 16 10  2  0  0  0  0
 17  3  2  0  0  0  0
 18  9  1  0  0  0  0
 19  8  1  0  0  0  0
 20  7  1  0  0  0  0
 21 20  1  0  0  0  0
 22 12  2  0  0  0  0
 23 12  1  0  0  0  0
 24 23  2  0  0  0  0
 25 22  1  0  0  0  0
 26 24  1  0  0  0  0
 26 25  2  0  0  0  0
M  END
> <CdId>
1708

> <Mol Weight>
570.1191

> <Formula>
C19H12I2N2O3

> <Click_ID>
CLK023_B03 __ __ 

$$$$
