CLK039H11
 OpenBabel03181417552D

 18 19  0  0  0  0  0  0  0  0999 V2000
   -0.0583   -1.4417    0.0000 C   0  0  0  0  0  0  0  0  0  0  0  0
   -0.8417   -0.3583    0.0000 C   0  0  0  0  0  0  0  0  0  0  0  0
   -0.8417   -1.6958    0.0000 O   0  0  0  0  0  0  0  0  0  0  0  0
   -0.0583   -0.6167    0.0000 C   0  0  0  0  0  0  0  0  0  0  0  0
   -1.3292   -1.0292    0.0000 C   0  0  0  0  0  0  0  0  0  0  0  0
    0.6542   -1.8542    0.0000 C   0  0  0  0  0  0  0  0  0  0  0  0
   -0.5042    3.2208    0.0000 C   0  0  0  0  0  0  0  0  0  0  0  0
    0.6542   -0.2042    0.0000 C   0  0  0  0  0  0  0  0  0  0  0  0
   -0.7583    4.0000    0.0000 C   0  0  0  0  0  0  0  0  0  0  0  0
   -1.1000    0.4250    0.0000 C   0  0  0  0  0  0  0  0  0  0  0  0
   -0.5458    1.0375    0.0000 C   0  0  0  0  0  0  0  0  0  0  0  0
    1.3708   -1.4417    0.0000 C   0  0  0  0  0  0  0  0  0  0  0  0
    1.3708   -0.6167    0.0000 C   0  0  0  0  0  0  0  0  0  0  0  0
    0.2625    0.8667    0.0000 O   0  0  0  0  0  0  0  0  0  0  0  0
   -0.8000    1.8208    0.0000 N   0  0  0  0  0  0  0  0  0  0  0  0
   -0.2500    2.4375    0.0000 C   0  0  0  0  0  0  0  0  0  0  0  0
    0.6542   -2.6792    0.0000 C   0  0  0  0  0  0  0  0  0  0  0  0
    2.0833   -1.8542    0.0000 C   0  0  0  0  0  0  0  0  0  0  0  0
  2  4  1  0  0  0  0
  3  1  1  0  0  0  0
  4  1  2  0  0  0  0
  5  3  1  0  0  0  0
  5  2  2  0  0  0  0
  6  1  1  0  0  0  0
  7 16  1  0  0  0  0
  8  4  1  0  0  0  0
  8 13  2  0  0  0  0
  9  7  3  0  0  0  0
 10  2  1  0  0  0  0
 11 10  1  0  0  0  0
 12  6  2  0  0  0  0
 13 12  1  0  0  0  0
 14 11  2  0  0  0  0
 15 11  1  0  0  0  0
 16 15  1  0  0  0  0
 17  6  1  0  0  0  0
 18 12  1  0  0  0  0
M  END
> <CdId>
3008

> <Mol Weight>
241.2851

> <Formula>
C15H15NO2

> <Click_ID>
CLK039H11 __ __ 

$$$$
