CLK049A06
 OpenBabel03181417552D

 21 22  0  0  0  0  0  0  0  0999 V2000
    0.3081   -0.7121    0.0000 C   0  0  0  0  0  0  0  0  0  0  0  0
   -0.1749   -1.3784    0.0000 C   0  0  0  0  0  0  0  0  0  0  0  0
    0.3081   -2.0489    0.0000 C   0  0  0  0  0  0  0  0  0  0  0  0
    1.0952   -0.9662    0.0000 N   0  0  0  0  0  0  0  0  0  0  0  0
    1.0952   -1.7907    0.0000 C   0  0  0  0  0  0  0  0  0  0  0  0
    0.0542    0.0708    0.0000 C   0  0  0  0  0  0  0  0  0  0  0  0
    0.6080    0.6829    0.0000 N   0  0  0  0  0  0  0  0  0  0  0  0
   -1.5159    2.5944    0.0000 C   0  0  0  0  0  0  0  0  0  0  0  0
    0.0542   -2.8317    0.0000 C   0  0  0  0  0  0  0  0  0  0  0  0
   -2.3237    2.7652    0.0000 C   0  0  0  0  0  0  0  0  0  0  0  0
   -0.7496    0.2416    0.0000 O   0  0  0  0  0  0  0  0  0  0  0  0
    0.3498    1.4700    0.0000 C   0  0  0  0  0  0  0  0  0  0  0  0
   -0.7496   -3.0025    0.0000 O   0  0  0  0  0  0  0  0  0  0  0  0
   -0.7079    2.4236    0.0000 C   0  0  0  0  0  0  0  0  0  0  0  0
   -0.9994   -1.3784    0.0000 C   0  0  0  0  0  0  0  0  0  0  0  0
   -0.4539    1.6408    0.0000 C   0  0  0  0  0  0  0  0  0  0  0  0
    1.7615   -2.2779    0.0000 C   0  0  0  0  0  0  0  0  0  0  0  0
    0.6496    2.8651    0.0000 C   0  0  0  0  0  0  0  0  0  0  0  0
    0.6080   -3.4439    0.0000 C   0  0  0  0  0  0  0  0  0  0  0  0
    0.9037    2.0821    0.0000 C   0  0  0  0  0  0  0  0  0  0  0  0
   -0.1582    3.0358    0.0000 C   0  0  0  0  0  0  0  0  0  0  0  0
  2  1  2  0  0  0  0
  3  2  1  0  0  0  0
  4  1  1  0  0  0  0
  5  4  1  0  0  0  0
  5  3  2  0  0  0  0
  6  1  1  0  0  0  0
  7  6  1  0  0  0  0
  8 14  1  0  0  0  0
  9  3  1  0  0  0  0
 10  8  3  0  0  0  0
 11  6  2  0  0  0  0
 12  7  1  0  0  0  0
 13  9  2  0  0  0  0
 14 16  1  0  0  0  0
 15  2  1  0  0  0  0
 16 12  2  0  0  0  0
 17  5  1  0  0  0  0
 18 20  2  0  0  0  0
 19  9  1  0  0  0  0
 20 12  1  0  0  0  0
 21 14  2  0  0  0  0
 21 18  1  0  0  0  0
M  END
> <CdId>
3761

> <Mol Weight>
280.3211

> <Formula>
C17H16N2O2

> <Click_ID>
CLK049A06 __ __ 

$$$$
