CLK019_H07
 OpenBabel03181417552D

 23 24  0  0  0  0  0  0  0  0999 V2000
    3.4196    0.3841    0.0000 C    0  0  0  0  0  0  0  0  0  0  0  0
    1.2693    2.4175    0.0000 C    0  0  0  0  0  0  0  0  0  0  0  0
    3.4113    1.2108    0.0000 C    0  0  0  0  0  0  0  0  0  0  0  0
    1.9708    2.8392    0.0000 C    0  0  0  0  0  0  0  0  0  0  0  0
    1.2693    1.6116    0.0000 C    0  0  0  0  0  0  0  0  0  0  0  0
    2.6973    1.6116    0.0000 C    0  0  0  0  0  0  0  0  0  0  0  0
    4.1378   -0.0293    0.0000 C    0  0  0  0  0  0  0  0  0  0  0  0
    4.8517   -0.4426    0.0000 N    0  0  0  0  0  0  0  0  0  0  0  0
   -0.1586    4.0709    0.0000 C    0  0  0  0  0  0  0  0  0  0  0  0
   -0.8643    4.4760    0.0000 C    0  0  0  0  0  0  0  0  0  0  0  0
    2.7056   -0.0293    0.0000 C    0  0  0  0  0  0  0  0  0  0  0  0
    1.9833    1.1983    0.0000 C    0  0  0  0  0  0  0  0  0  0  0  0
    2.6931    2.4258    0.0000 C    0  0  0  0  0  0  0  0  0  0  0  0
    2.7056   -0.8685    0.0000 C    0  0  0  0  0  0  0  0  0  0  0  0
    1.9833    0.3758    0.0000 C    0  0  0  0  0  0  0  0  0  0  0  0
    1.9708    3.6534    0.0000 Cl   0  0  0  0  0  0  0  0  0  0  0  0
    0.5553    1.1983    0.0000 Cl   0  0  0  0  0  0  0  0  0  0  0  0
    0.5553    2.8392    0.0000 O    0  0  0  0  0  0  0  0  0  0  0  0
    1.2693   -0.8685    0.0000 C    0  0  0  0  0  0  0  0  0  0  0  0
    1.2693   -0.0293    0.0000 C    0  0  0  0  0  0  0  0  0  0  0  0
    1.9833   -1.2819    0.0000 C    0  0  0  0  0  0  0  0  0  0  0  0
    0.5553   -1.2819    0.0000 Cl   0  0  0  0  0  0  0  0  0  0  0  0
    0.5553    3.6576    0.0000 C    0  0  0  0  0  0  0  0  0  0  0  0
  2  4  1  0  0  0  0
  3  1  2  0  0  0  0
  4 13  2  0  0  0  0
  5 12  1  0  0  0  0
  5  2  2  0  0  0  0
  6  3  1  0  0  0  0
  7  1  1  0  0  0  0
  8  7  3  0  0  0  0
  9 23  1  0  0  0  0
 10  9  3  0  0  0  0
 11  1  1  0  0  0  0
 12  6  2  0  0  0  0
 13  6  1  0  0  0  0
 14 11  1  0  0  0  0
 15 11  2  0  0  0  0
 16  4  1  0  0  0  0
 17  5  1  0  0  0  0
 18  2  1  0  0  0  0
 19 20  2  0  0  0  0
 20 15  1  0  0  0  0
 21 14  2  0  0  0  0
 21 19  1  0  0  0  0
 22 19  1  0  0  0  0
 23 18  1  0  0  0  0
M  END
> <CdId>
1472

> <Mol Weight>
362.637

> <Formula>
C18H10Cl3NO

> <Click_ID>
CLK019_H07 __ __ 

$$$$
