CLK001_H06
 OpenBabel03181417552D

 14 15  0  0  0  0  0  0  0  0999 V2000
   -0.5651    0.4996    0.0000 C    0  0  0  0  0  0  0  0  0  0  0  0
    0.8752    0.5030    0.0000 N    0  0  0  0  0  0  0  0  0  0  0  0
   -0.5617   -0.3376    0.0000 C    0  0  0  0  0  0  0  0  0  0  0  0
   -1.2852    0.9131    0.0000 C    0  0  0  0  0  0  0  0  0  0  0  0
    0.8752   -0.3239    0.0000 C    0  0  0  0  0  0  0  0  0  0  0  0
    1.5885    0.9269    0.0000 C    0  0  0  0  0  0  0  0  0  0  0  0
    0.1551   -0.7477    0.0000 O    0  0  0  0  0  0  0  0  0  0  0  0
   -1.2852   -0.7442    0.0000 C    0  0  0  0  0  0  0  0  0  0  0  0
   -1.9951    0.4927    0.0000 C    0  0  0  0  0  0  0  0  0  0  0  0
    1.5885   -0.7373    0.0000 O    0  0  0  0  0  0  0  0  0  0  0  0
    2.3017    0.5168    0.0000 C    0  0  0  0  0  0  0  0  0  0  0  0
   -1.9951   -0.3307    0.0000 C    0  0  0  0  0  0  0  0  0  0  0  0
    3.0115    0.1033    0.0000 C    0  0  0  0  0  0  0  0  0  0  0  0
   -2.7082   -0.7373    0.0000 Cl   0  0  0  0  0  0  0  0  0  0  0  0
  1  2  1  0  0  0  0
  1  3  1  0  0  0  0
  1  4  2  0  0  0  0
  2  5  1  0  0  0  0
  2  6  1  0  0  0  0
  3  7  1  0  0  0  0
  3  8  2  0  0  0  0
  4  9  1  0  0  0  0
  5 10  2  0  0  0  0
  5  7  1  0  0  0  0
  6 11  1  0  0  0  0
  8 12  1  0  0  0  0
  9 12  2  0  0  0  0
 11 13  3  0  0  0  0
 12 14  1  0  0  0  0
M  END
> <CdId>
75

> <Mol Weight>
207.613

> <Formula>
C10H6ClNO2

> <Click_ID>
CLK001_H06 __ __ 

$$$$
