CLK035_G07
 OpenBabel03181417552D

 36 38  0  0  0  0  0  0  0  0999 V2000
   -4.5711    2.5432    0.0000 C   0  0  0  0  0  0  0  0  0  0  0  0
   -0.9931    5.4355    0.0000 S   0  0  0  0  0  0  0  0  0  0  0  0
   -3.8605    2.9629    0.0000 N   0  0  0  0  0  0  0  0  0  0  0  0
   -4.6708    1.7287    0.0000 N   0  0  0  0  0  0  0  0  0  0  0  0
   -5.3066    2.8881    0.0000 S   0  0  0  0  0  0  0  0  0  0  0  0
   -5.4729    1.5708    0.0000 C   0  0  0  0  0  0  0  0  0  0  0  0
   -5.8801    2.2897    0.0000 C   0  0  0  0  0  0  0  0  0  0  0  0
   -3.8605    3.7899    0.0000 C   0  0  0  0  0  0  0  0  0  0  0  0
   -0.2867    5.8386    0.0000 N   0  0  0  0  0  0  0  0  0  0  0  0
   -1.7079    5.0158    0.0000 C   0  0  0  0  0  0  0  0  0  0  0  0
   -4.2387    0.3491    0.0000 C   0  0  0  0  0  0  0  0  0  0  0  0
   -0.5817    4.7166    0.0000 O   0  0  0  0  0  0  0  0  0  0  0  0
   -1.4170    6.1585    0.0000 O   0  0  0  0  0  0  0  0  0  0  0  0
   -4.4215   -0.4613    0.0000 C   0  0  0  0  0  0  0  0  0  0  0  0
   -3.1499    4.2013    0.0000 C   0  0  0  0  0  0  0  0  0  0  0  0
   -5.8967    0.8685    0.0000 C   0  0  0  0  0  0  0  0  0  0  0  0
   -4.5835    4.1930    0.0000 O   0  0  0  0  0  0  0  0  0  0  0  0
   -4.0517    1.1552    0.0000 C   0  0  0  0  0  0  0  0  0  0  0  0
   -1.7162    4.1930    0.0000 C   0  0  0  0  0  0  0  0  0  0  0  0
   -2.4310    5.4355    0.0000 C   0  0  0  0  0  0  0  0  0  0  0  0
   -2.4310    3.7857    0.0000 C   0  0  0  0  0  0  0  0  0  0  0  0
   -3.1499    5.0158    0.0000 C   0  0  0  0  0  0  0  0  0  0  0  0
    0.4281    5.4396    0.0000 C   0  0  0  0  0  0  0  0  0  0  0  0
   -0.2825    6.6738    0.0000 C   0  0  0  0  0  0  0  0  0  0  0  0
   -6.6863    2.3063    0.0000 C   0  0  0  0  0  0  0  0  0  0  0  0
   -5.5061    0.1371    0.0000 O   0  0  0  0  0  0  0  0  0  0  0  0
   -7.1226    1.6040    0.0000 C   0  0  0  0  0  0  0  0  0  0  0  0
    1.8575    5.4396    0.0000 O   0  0  0  0  0  0  0  0  0  0  0  0
   -0.9931    7.9080    0.0000 O   0  0  0  0  0  0  0  0  0  0  0  0
   -6.7112    0.8809    0.0000 C   0  0  0  0  0  0  0  0  0  0  0  0
   -0.9973    7.0852    0.0000 C   0  0  0  0  0  0  0  0  0  0  0  0
    1.1511    5.8510    0.0000 C   0  0  0  0  0  0  0  0  0  0  0  0
   -5.9299   -0.5652    0.0000 C   0  0  0  0  0  0  0  0  0  0  0  0
    2.5723    5.8510    0.0000 C   0  0  0  0  0  0  0  0  0  0  0  0
   -1.6955    8.3153    0.0000 C   0  0  0  0  0  0  0  0  0  0  0  0
   -5.5477   -1.2758    0.0000 C   0  0  0  0  0  0  0  0  0  0  0  0
  2 10  1  0  0  0  0
  3  1  2  0  0  0  0
  4  1  1  0  0  0  0
  5  1  1  0  0  0  0
  6  4  1  0  0  0  0
  7  5  1  0  0  0  0
  7  6  2  0  0  0  0
  8  3  1  0  0  0  0
  9  2  1  0  0  0  0
 10 20  1  0  0  0  0
 10 19  2  0  0  0  0
 11 18  1  0  0  0  0
 12  2  2  0  0  0  0
 13  2  2  0  0  0  0
 14 11  3  0  0  0  0
 15  8  1  0  0  0  0
 16  6  1  0  0  0  0
 17  8  2  0  0  0  0
 18  4  1  0  0  0  0
 19 21  1  0  0  0  0
 20 22  2  0  0  0  0
 21 15  2  0  0  0  0
 22 15  1  0  0  0  0
 23  9  1  0  0  0  0
 24  9  1  0  0  0  0
 25  7  1  0  0  0  0
 26 16  1  0  0  0  0
 27 25  2  0  0  0  0
 28 32  1  0  0  0  0
 29 31  1  0  0  0  0
 30 16  2  0  0  0  0
 30 27  1  0  0  0  0
 31 24  1  0  0  0  0
 32 23  1  0  0  0  0
 33 26  1  0  0  0  0
 34 28  1  0  0  0  0
 35 29  1  0  0  0  0
 36 33  1  0  0  0  0
M  END
> <CdId>
2711

> <Mol Weight>
531.644

> <Formula>
C25H29N3O6S2

> <Click_ID>
CLK035_G07 __ __ 

$$$$
