CLK022_C05
 OpenBabel03181417552D

 25 27  0  0  0  0  0  0  0  0999 V2000
    7.4846    3.1625    0.0000 C   0  0  0  0  0  0  0  0  0  0  0  0
    6.7696    3.5750    0.0000 N   0  0  0  0  0  0  0  0  0  0  0  0
    5.3396    4.4000    0.0000 N   0  0  0  0  0  0  0  0  0  0  0  0
    4.6338    4.8034    0.0000 C   0  0  0  0  0  0  0  0  0  0  0  0
   11.7746    4.8034    0.0000 C   0  0  0  0  0  0  0  0  0  0  0  0
   12.4896    5.2159    0.0000 C   0  0  0  0  0  0  0  0  0  0  0  0
    8.1996    3.5750    0.0000 C   0  0  0  0  0  0  0  0  0  0  0  0
    6.0546    3.1625    0.0000 C   0  0  0  0  0  0  0  0  0  0  0  0
    6.7696    4.4000    0.0000 C   0  0  0  0  0  0  0  0  0  0  0  0
    5.3396    3.5750    0.0000 C   0  0  0  0  0  0  0  0  0  0  0  0
    6.0546    4.8034    0.0000 C   0  0  0  0  0  0  0  0  0  0  0  0
    7.4846    2.3375    0.0000 O   0  0  0  0  0  0  0  0  0  0  0  0
    4.6338    5.6284    0.0000 C   0  0  0  0  0  0  0  0  0  0  0  0
    8.9146    3.1625    0.0000 C   0  0  0  0  0  0  0  0  0  0  0  0
    8.1996    4.4000    0.0000 C   0  0  0  0  0  0  0  0  0  0  0  0
    5.3396    6.0409    0.0000 F   0  0  0  0  0  0  0  0  0  0  0  0
    9.6296    4.4000    0.0000 C   0  0  0  0  0  0  0  0  0  0  0  0
    8.9146    4.8034    0.0000 C   0  0  0  0  0  0  0  0  0  0  0  0
    9.6296    3.5750    0.0000 C   0  0  0  0  0  0  0  0  0  0  0  0
   11.0596    4.4000    0.0000 C   0  0  0  0  0  0  0  0  0  0  0  0
   10.3446    4.8034    0.0000 O   0  0  0  0  0  0  0  0  0  0  0  0
    3.9187    4.4000    0.0000 C   0  0  0  0  0  0  0  0  0  0  0  0
    3.9187    6.0409    0.0000 C   0  0  0  0  0  0  0  0  0  0  0  0
    3.2037    4.8034    0.0000 C   0  0  0  0  0  0  0  0  0  0  0  0
    3.2037    5.6284    0.0000 C   0  0  0  0  0  0  0  0  0  0  0  0
  2  1  1  0  0  0  0
  3 11  1  0  0  0  0
  4  3  1  0  0  0  0
  5 20  1  0  0  0  0
  6  5  3  0  0  0  0
  7  1  1  0  0  0  0
  8  2  1  0  0  0  0
  9  2  1  0  0  0  0
 10  8  1  0  0  0  0
 10  3  1  0  0  0  0
 11  9  1  0  0  0  0
 12  1  2  0  0  0  0
 13  4  2  0  0  0  0
 14  7  1  0  0  0  0
 15  7  2  0  0  0  0
 16 13  1  0  0  0  0
 17 18  2  0  0  0  0
 18 15  1  0  0  0  0
 19 14  2  0  0  0  0
 19 17  1  0  0  0  0
 20 21  1  0  0  0  0
 21 17  1  0  0  0  0
 22  4  1  0  0  0  0
 23 13  1  0  0  0  0
 23 25  2  0  0  0  0
 24 22  2  0  0  0  0
 25 24  1  0  0  0  0
M  END
> <CdId>
1656

> <Mol Weight>
338.3755

> <Formula>
C20H19FN2O2

> <Click_ID>
CLK022_C05 __ __ 

$$$$
