CLK038C06
 OpenBabel03181417552D

 21 21  0  0  0  0  0  0  0  0999 V2000
    1.1542   -3.2208    0.0000 C    0  0  0  0  0  0  0  0  0  0  0  0
    1.1542   -4.0458    0.0000 C    0  0  0  0  0  0  0  0  0  0  0  0
    0.4417   -1.1583    0.0000 C    0  0  0  0  0  0  0  0  0  0  0  0
    1.1542   -1.5708    0.0000 N    0  0  0  0  0  0  0  0  0  0  0  0
    1.1542   -2.3958    0.0000 C    0  0  0  0  0  0  0  0  0  0  0  0
   -0.2750   -1.5708    0.0000 O    0  0  0  0  0  0  0  0  0  0  0  0
   -1.7042    2.5542    0.0000 C    0  0  0  0  0  0  0  0  0  0  0  0
   -1.7042    3.3792    0.0000 C    0  0  0  0  0  0  0  0  0  0  0  0
   -0.9875    2.1417    0.0000 C    0  0  0  0  0  0  0  0  0  0  0  0
   -2.4167    3.7917    0.0000 Br   0  0  0  0  0  0  0  0  0  0  0  0
   -0.9875    1.3167    0.0000 O    0  0  0  0  0  0  0  0  0  0  0  0
   -0.2750    3.3792    0.0000 C    0  0  0  0  0  0  0  0  0  0  0  0
    0.4417   -0.3333    0.0000 C    0  0  0  0  0  0  0  0  0  0  0  0
    1.9792   -2.3958    0.0000 C    0  0  0  0  0  0  0  0  0  0  0  0
    0.3292   -2.3958    0.0000 C    0  0  0  0  0  0  0  0  0  0  0  0
   -0.9875    3.7917    0.0000 C    0  0  0  0  0  0  0  0  0  0  0  0
   -0.2750    2.5542    0.0000 C    0  0  0  0  0  0  0  0  0  0  0  0
   -0.2750    0.9042    0.0000 C    0  0  0  0  0  0  0  0  0  0  0  0
   -0.2750    0.0792    0.0000 C    0  0  0  0  0  0  0  0  0  0  0  0
    2.3917   -3.1083    0.0000 C    0  0  0  0  0  0  0  0  0  0  0  0
   -0.0833   -1.6792    0.0000 C    0  0  0  0  0  0  0  0  0  0  0  0
  2  1  3  0  0  0  0
  3  4  1  0  0  0  0
  4  5  1  0  0  0  0
  5  1  1  0  0  0  0
  6  3  2  0  0  0  0
  7  9  2  0  0  0  0
  8  7  1  0  0  0  0
  9 11  1  0  0  0  0
 10  8  1  0  0  0  0
 11 18  1  0  0  0  0
 12 17  2  0  0  0  0
 13  3  1  0  0  0  0
 14  5  1  0  0  0  0
 15  5  1  0  0  0  0
 16  8  2  0  0  0  0
 16 12  1  0  0  0  0
 17  9  1  0  0  0  0
 18 19  1  0  0  0  0
 19 13  1  0  0  0  0
 20 14  1  0  0  0  0
 21 15  1  0  0  0  0
M  END
> <CdId>
2883

> <Mol Weight>
352.266

> <Formula>
C17H22BrNO2

> <Click_ID>
CLK038C06 __ __ 

$$$$
