CLK011_E07
 OpenBabel03181417552D

 14 14  0  0  0  0  0  0  0  0999 V2000
    1.5149    2.5556    0.0000 C    0  0  0  0  0  0  0  0  0  0  0  0
    0.8099    2.1485    0.0000 C    0  0  0  0  0  0  0  0  0  0  0  0
    2.2283    2.1485    0.0000 C    0  0  0  0  0  0  0  0  0  0  0  0
    2.2451    4.6202    0.0000 C    0  0  0  0  0  0  0  0  0  0  0  0
    2.2577    5.4427    0.0000 C    0  0  0  0  0  0  0  0  0  0  0  0
    0.8057    1.3176    0.0000 C    0  0  0  0  0  0  0  0  0  0  0  0
    2.2325    1.3176    0.0000 C    0  0  0  0  0  0  0  0  0  0  0  0
    1.5275    0.9064    0.0000 C    0  0  0  0  0  0  0  0  0  0  0  0
    0.8099   -0.3399    0.0000 O    0  0  0  0  0  0  0  0  0  0  0  0
    2.9458    2.5556    0.0000 Cl   0  0  0  0  0  0  0  0  0  0  0  0
    0.0924    2.5682    0.0000 Cl   0  0  0  0  0  0  0  0  0  0  0  0
    1.5275    0.0755    0.0000 C    0  0  0  0  0  0  0  0  0  0  0  0
    1.5233    3.3864    0.0000 O    0  0  0  0  0  0  0  0  0  0  0  0
    2.2408    3.7977    0.0000 C    0  0  0  0  0  0  0  0  0  0  0  0
  2  1  2  0  0  0  0
  3  1  1  0  0  0  0
  4 14  1  0  0  0  0
  5  4  3  0  0  0  0
  6  2  1  0  0  0  0
  7  3  2  0  0  0  0
  8  7  1  0  0  0  0
  8  6  2  0  0  0  0
  9 12  2  0  0  0  0
 10  3  1  0  0  0  0
 11  2  1  0  0  0  0
 12  8  1  0  0  0  0
 13  1  1  0  0  0  0
 14 13  1  0  0  0  0
M  END
> <CdId>
802

> <Mol Weight>
229.059

> <Formula>
C10H6Cl2O2

> <Click_ID>
CLK011_E07 __ __ 

$$$$
