CLK043D10
 OpenBabel03181417552D

 31 34  0  0  0  0  0  0  0  0999 V2000
    3.9333    0.4167    0.0000 S   0  0  0  0  0  0  0  0  0  0  0  0
   -3.2625    0.1208    0.0000 C   0  0  0  0  0  0  0  0  0  0  0  0
   -3.7500    0.7875    0.0000 N   0  0  0  0  0  0  0  0  0  0  0  0
   -3.7500   -0.5458    0.0000 S   0  0  0  0  0  0  0  0  0  0  0  0
   -2.4375    0.1208    0.0000 C   0  0  0  0  0  0  0  0  0  0  0  0
   -1.9542   -0.5458    0.0000 O   0  0  0  0  0  0  0  0  0  0  0  0
   -4.5333    0.5333    0.0000 C   0  0  0  0  0  0  0  0  0  0  0  0
   -1.9542    0.7875    0.0000 C   0  0  0  0  0  0  0  0  0  0  0  0
    0.9208   -0.9250    0.0000 C   0  0  0  0  0  0  0  0  0  0  0  0
   -4.5333   -0.2917    0.0000 C   0  0  0  0  0  0  0  0  0  0  0  0
    3.1792    0.0792    0.0000 C   0  0  0  0  0  0  0  0  0  0  0  0
   -1.1708   -0.2917    0.0000 C   0  0  0  0  0  0  0  0  0  0  0  0
    6.1083    0.6000    0.0000 C   0  0  0  0  0  0  0  0  0  0  0  0
    6.8625    0.9375    0.0000 C   0  0  0  0  0  0  0  0  0  0  0  0
    0.2500   -0.4417    0.0000 N   0  0  0  0  0  0  0  0  0  0  0  0
   -1.1708    0.5333    0.0000 C   0  0  0  0  0  0  0  0  0  0  0  0
    3.6000    1.1708    0.0000 O   0  0  0  0  0  0  0  0  0  0  0  0
    4.2708   -0.3375    0.0000 O   0  0  0  0  0  0  0  0  0  0  0  0
    1.6708   -0.5917    0.0000 C   0  0  0  0  0  0  0  0  0  0  0  0
    4.6875    0.7500    0.0000 N   0  0  0  0  0  0  0  0  0  0  0  0
    0.8333   -1.7458    0.0000 O   0  0  0  0  0  0  0  0  0  0  0  0
    3.0958   -0.7417    0.0000 C   0  0  0  0  0  0  0  0  0  0  0  0
    2.5125    0.5667    0.0000 C   0  0  0  0  0  0  0  0  0  0  0  0
    2.3417   -1.0750    0.0000 C   0  0  0  0  0  0  0  0  0  0  0  0
    1.7583    0.2292    0.0000 C   0  0  0  0  0  0  0  0  0  0  0  0
   -0.5000   -0.7792    0.0000 C   0  0  0  0  0  0  0  0  0  0  0  0
    5.3542    0.2667    0.0000 C   0  0  0  0  0  0  0  0  0  0  0  0
   -5.2500    0.9458    0.0000 C   0  0  0  0  0  0  0  0  0  0  0  0
   -5.2500   -0.7042    0.0000 C   0  0  0  0  0  0  0  0  0  0  0  0
   -5.9625    0.5333    0.0000 C   0  0  0  0  0  0  0  0  0  0  0  0
   -5.9625   -0.2917    0.0000 C   0  0  0  0  0  0  0  0  0  0  0  0
  2  5  1  0  0  0  0
  3  2  2  0  0  0  0
  4  2  1  0  0  0  0
  5  6  1  0  0  0  0
  5  8  2  0  0  0  0
  6 12  1  0  0  0  0
  7  3  1  0  0  0  0
  8 16  1  0  0  0  0
  9 19  1  0  0  0  0
 10  4  1  0  0  0  0
 10  7  2  0  0  0  0
 11  1  1  0  0  0  0
 12 26  1  0  0  0  0
 13 27  1  0  0  0  0
 14 13  3  0  0  0  0
 15  9  1  0  0  0  0
 16 12  2  0  0  0  0
 17  1  2  0  0  0  0
 18  1  2  0  0  0  0
 19 25  2  0  0  0  0
 20  1  1  0  0  0  0
 21  9  2  0  0  0  0
 22 11  1  0  0  0  0
 23 11  2  0  0  0  0
 24 22  2  0  0  0  0
 24 19  1  0  0  0  0
 25 23  1  0  0  0  0
 26 15  1  0  0  0  0
 27 20  1  0  0  0  0
 28  7  1  0  0  0  0
 29 10  1  0  0  0  0
 30 28  2  0  0  0  0
 31 29  2  0  0  0  0
 31 30  1  0  0  0  0
M  END
> <CdId>
3316

> <Mol Weight>
451.518

> <Formula>
C22H17N3O4S2

> <Click_ID>
CLK043D10 __ __ 

$$$$
