CLK043F09
 OpenBabel03181417552D

 34 38  0  0  0  0  0  0  0  0999 V2000
   -0.3792   -0.7083    0.0000 N   0  0  0  0  0  0  0  0  0  0  0  0
    3.1917    0.5292    0.0000 S   0  0  0  0  0  0  0  0  0  0  0  0
   -1.8083   -0.7083    0.0000 C   0  0  0  0  0  0  0  0  0  0  0  0
    0.3333   -1.1208    0.0000 C   0  0  0  0  0  0  0  0  0  0  0  0
   -1.8083    0.1167    0.0000 C   0  0  0  0  0  0  0  0  0  0  0  0
   -1.0958   -1.1208    0.0000 C   0  0  3  0  0  0  0  0  0  0  0  0
   -0.3792    0.1167    0.0000 C   0  0  0  0  0  0  0  0  0  0  0  0
   -1.0958    0.5292    0.0000 C   0  0  0  0  0  0  0  0  0  0  0  0
   -2.5250   -1.1208    0.0000 C   0  0  0  0  0  0  0  0  0  0  0  0
   -2.5250    0.5292    0.0000 C   0  0  0  0  0  0  0  0  0  0  0  0
   -3.2375   -0.7083    0.0000 C   0  0  0  0  0  0  0  0  0  0  0  0
   -3.2375    0.1167    0.0000 C   0  0  0  0  0  0  0  0  0  0  0  0
    2.4792    0.1167    0.0000 C   0  0  0  0  0  0  0  0  0  0  0  0
    5.3375    0.9417    0.0000 C   0  0  0  0  0  0  0  0  0  0  0  0
    1.0500   -0.7083    0.0000 C   0  0  0  0  0  0  0  0  0  0  0  0
    6.0500    1.3542    0.0000 C   0  0  0  0  0  0  0  0  0  0  0  0
    2.7792    1.2458    0.0000 O   0  0  0  0  0  0  0  0  0  0  0  0
    3.6042   -0.1833    0.0000 O   0  0  0  0  0  0  0  0  0  0  0  0
    3.9083    0.9417    0.0000 N   0  0  0  0  0  0  0  0  0  0  0  0
    0.3333   -1.9458    0.0000 O   0  0  0  0  0  0  0  0  0  0  0  0
   -3.9542   -1.1208    0.0000 O   0  0  0  0  0  0  0  0  0  0  0  0
   -3.9542    0.5292    0.0000 O   0  0  0  0  0  0  0  0  0  0  0  0
    2.4792   -0.7083    0.0000 C   0  0  0  0  0  0  0  0  0  0  0  0
    1.7625    0.5292    0.0000 C   0  0  0  0  0  0  0  0  0  0  0  0
    1.7625   -1.1208    0.0000 C   0  0  0  0  0  0  0  0  0  0  0  0
    1.0500    0.1167    0.0000 C   0  0  0  0  0  0  0  0  0  0  0  0
    4.6208    0.5292    0.0000 C   0  0  0  0  0  0  0  0  0  0  0  0
   -1.7625    1.0167    0.0000 C   0  0  0  0  0  0  0  0  0  0  0  0
   -0.4292    1.0167    0.0000 C   0  0  0  0  0  0  0  0  0  0  0  0
   -1.0958   -1.9458    0.0000 C   0  0  0  0  0  0  0  0  0  0  0  0
   -4.6667   -0.7083    0.0000 C   0  0  0  0  0  0  0  0  0  0  0  0
   -4.6667    0.1167    0.0000 C   0  0  0  0  0  0  0  0  0  0  0  0
   -0.6833    1.8000    0.0000 C   0  0  0  0  0  0  0  0  0  0  0  0
   -1.5083    1.8000    0.0000 C   0  0  0  0  0  0  0  0  0  0  0  0
  2 13  1  0  0  0  0
  3  6  1  0  0  0  0
  3  5  2  0  0  0  0
  4  1  1  0  0  0  0
  5  8  1  0  0  0  0
  6  1  1  0  0  0  0
  7  1  1  0  0  0  0
  8  7  1  0  0  0  0
  9  3  1  0  0  0  0
 10  5  1  0  0  0  0
 11  9  2  0  0  0  0
 11 12  1  0  0  0  0
 12 10  2  0  0  0  0
 13 24  2  0  0  0  0
 13 23  1  0  0  0  0
 14 27  1  0  0  0  0
 15  4  1  0  0  0  0
 16 14  3  0  0  0  0
 17  2  2  0  0  0  0
 18  2  2  0  0  0  0
 19  2  1  0  0  0  0
 20  4  2  0  0  0  0
 21 11  1  0  0  0  0
 22 12  1  0  0  0  0
 23 25  2  0  0  0  0
 24 26  1  0  0  0  0
 25 15  1  0  0  0  0
 26 15  2  0  0  0  0
 27 19  1  0  0  0  0
 28  8  1  0  0  0  0
 29  8  1  0  0  0  0
 30  6  1  0  0  0  0
 31 21  1  0  0  0  0
 31 32  1  0  0  0  0
 32 22  1  0  0  0  0
 33 29  1  0  0  0  0
 34 28  1  0  0  0  0
 34 33  1  0  0  0  0
M  END
> <CdId>
3310

> <Mol Weight>
480.576

> <Formula>
C26H28N2O5S

> <Click_ID>
CLK043F09 __ __ 

$$$$
