CLK044C02
 OpenBabel03181417552D

 25 26  0  0  0  0  0  0  0  0999 V2000
    0.6250    0.7625    0.0000 C   0  0  0  0  0  0  0  0  0  0  0  0
   -4.3750   -0.4750    0.0000 C   0  0  0  0  0  0  0  0  0  0  0  0
   -5.0875   -0.8875    0.0000 C   0  0  0  0  0  0  0  0  0  0  0  0
    1.3417    1.1750    0.0000 C   0  0  0  0  0  0  0  0  0  0  0  0
   -1.5167   -0.4750    0.0000 C   0  0  0  0  0  0  0  0  0  0  0  0
   -0.0875    1.1750    0.0000 C   0  0  0  0  0  0  0  0  0  0  0  0
    2.0542    0.7625    0.0000 C   0  0  0  0  0  0  0  0  0  0  0  0
   -2.2292   -0.0625    0.0000 C   0  0  0  0  0  0  0  0  0  0  0  0
   -0.8042   -0.0625    0.0000 C   0  0  0  0  0  0  0  0  0  0  0  0
    1.3417    2.0000    0.0000 O   0  0  0  0  0  0  0  0  0  0  0  0
   -0.8042    0.7625    0.0000 C   0  0  0  0  0  0  0  0  0  0  0  0
    2.7708    1.1750    0.0000 C   0  0  0  0  0  0  0  0  0  0  0  0
    2.0542   -0.0625    0.0000 C   0  0  0  0  0  0  0  0  0  0  0  0
   -2.2292    0.7625    0.0000 C   0  0  0  0  0  0  0  0  0  0  0  0
    3.4833   -0.0625    0.0000 C   0  0  0  0  0  0  0  0  0  0  0  0
   -1.5167    1.1750    0.0000 C   0  0  0  0  0  0  0  0  0  0  0  0
    2.7708   -0.4750    0.0000 C   0  0  0  0  0  0  0  0  0  0  0  0
    3.4833    0.7625    0.0000 C   0  0  0  0  0  0  0  0  0  0  0  0
   -1.5167   -1.3000    0.0000 O   0  0  0  0  0  0  0  0  0  0  0  0
   -2.9458   -0.4750    0.0000 O   0  0  0  0  0  0  0  0  0  0  0  0
   -3.6583   -0.0625    0.0000 C   0  0  0  0  0  0  0  0  0  0  0  0
    4.2000   -0.4750    0.0000 O   0  0  0  0  0  0  0  0  0  0  0  0
   -0.8042   -1.7125    0.0000 C   0  0  0  0  0  0  0  0  0  0  0  0
    4.2000   -1.3000    0.0000 C   0  0  0  0  0  0  0  0  0  0  0  0
   -0.8042   -2.5375    0.0000 C   0  0  0  0  0  0  0  0  0  0  0  0
  2 21  1  0  0  0  0
  3  2  3  0  0  0  0
  4  1  1  0  0  0  0
  5  9  1  0  0  0  0
  6  1  2  0  0  0  0
  7  4  1  0  0  0  0
  8 14  1  0  0  0  0
  8  5  2  0  0  0  0
  9 11  2  0  0  0  0
 10  4  2  0  0  0  0
 11  6  1  0  0  0  0
 12  7  2  0  0  0  0
 13  7  1  0  0  0  0
 14 16  2  0  0  0  0
 15 18  2  0  0  0  0
 15 17  1  0  0  0  0
 16 11  1  0  0  0  0
 17 13  2  0  0  0  0
 18 12  1  0  0  0  0
 19  5  1  0  0  0  0
 20  8  1  0  0  0  0
 21 20  1  0  0  0  0
 22 15  1  0  0  0  0
 23 19  1  0  0  0  0
 24 22  1  0  0  0  0
 25 23  1  0  0  0  0
M  END
> <CdId>
3331

> <Mol Weight>
336.3811

> <Formula>
C21H20O4

> <Click_ID>
CLK044C02 __ __ 

$$$$
