CLK015_G08
 OpenBabel03181417552D

 32 34  0  0  0  0  0  0  0  0999 V2000
    1.5791   -0.8232    0.0000 N    0  0  0  0  0  0  0  0  0  0  0  0
    1.8395   -1.6169    0.0000 C    0  0  0  0  0  0  0  0  0  0  0  0
    2.2552   -0.3318    0.0000 C    0  0  0  0  0  0  0  0  0  0  0  0
    2.9272   -0.8232    0.0000 C    0  0  0  0  0  0  0  0  0  0  0  0
    2.6710   -1.6169    0.0000 S    0  0  0  0  0  0  0  0  0  0  0  0
    5.9594    6.0770    0.0000 N    0  0  0  0  0  0  0  0  0  0  0  0
    4.2459    1.8478    0.0000 C    0  0  0  0  0  0  0  0  0  0  0  0
    3.7210   -0.5670    0.0000 C    0  0  0  0  0  0  0  0  0  0  0  0
    4.8423    1.2809    0.0000 C    0  0  0  0  0  0  0  0  0  0  0  0
    3.4647    1.5958    0.0000 C    0  0  0  0  0  0  0  0  0  0  0  0
    3.8931    0.2351    0.0000 C    0  0  0  0  0  0  0  0  0  0  0  0
    4.4265    2.6416    0.0000 O    0  0  0  0  0  0  0  0  0  0  0  0
    0.6174    0.2477    0.0000 C    0  0  0  0  0  0  0  0  0  0  0  0
    5.7704    5.2706    0.0000 C    0  0  0  0  0  0  0  0  0  0  0  0
    0.3948    1.0541    0.0000 C    0  0  0  0  0  0  0  0  0  0  0  0
    6.7447    6.3164    0.0000 O    0  0  0  0  0  0  0  0  0  0  0  0
    1.3481   -2.2847    0.0000 O    0  0  0  0  0  0  0  0  0  0  0  0
    4.6659    0.4871    0.0000 C    0  0  0  0  0  0  0  0  0  0  0  0
    5.3546    6.6439    0.0000 O    0  0  0  0  0  0  0  0  0  0  0  0
    2.2469    0.4997    0.0000 O    0  0  0  0  0  0  0  0  0  0  0  0
    3.2800    0.7895    0.0000 C    0  0  0  0  0  0  0  0  0  0  0  0
    0.7937   -0.5670    0.0000 C    0  0  0  0  0  0  0  0  0  0  0  0
    6.3668    4.7037    0.0000 C    0  0  0  0  0  0  0  0  0  0  0  0
    4.9809    5.0396    0.0000 C    0  0  0  0  0  0  0  0  0  0  0  0
    5.6318    1.5329    0.0000 Cl   0  0  0  0  0  0  0  0  0  0  0  0
    5.2076    2.8809    0.0000 C    0  0  0  0  0  0  0  0  0  0  0  0
    2.8600    2.1418    0.0000 O    0  0  0  0  0  0  0  0  0  0  0  0
    5.3966    3.6873    0.0000 C    0  0  0  0  0  0  0  0  0  0  0  0
    4.7919    4.2333    0.0000 C    0  0  0  0  0  0  0  0  0  0  0  0
    6.1861    3.9267    0.0000 C    0  0  0  0  0  0  0  0  0  0  0  0
    2.0831    1.8982    0.0000 C    0  0  0  0  0  0  0  0  0  0  0  0
    1.4783    2.4526    0.0000 C    0  0  0  0  0  0  0  0  0  0  0  0
  2  1  1  0  0  0  0
  3  1  1  0  0  0  0
  4  3  1  0  0  0  0
  4  5  1  0  0  0  0
  5  2  1  0  0  0  0
  6 14  1  0  0  0  0
  7 10  2  0  0  0  0
  7  9  1  0  0  0  0
  8  4  2  0  0  0  0
  9 18  2  0  0  0  0
 10 21  1  0  0  0  0
 11  8  1  0  0  0  0
 12  7  1  0  0  0  0
 13 22  1  0  0  0  0
 14 23  2  0  0  0  0
 14 24  1  0  0  0  0
 15 13  3  0  0  0  0
 16  6  1  0  0  0  0
 17  2  2  0  0  0  0
 18 11  1  0  0  0  0
 19  6  2  0  0  0  0
 20  3  2  0  0  0  0
 21 11  2  0  0  0  0
 22  1  1  0  0  0  0
 23 30  1  0  0  0  0
 24 29  2  0  0  0  0
 25  9  1  0  0  0  0
 26 12  1  0  0  0  0
 27 10  1  0  0  0  0
 28 26  1  0  0  0  0
 29 28  1  0  0  0  0
 30 28  2  0  0  0  0
 31 27  1  0  0  0  0
 32 31  1  0  0  0  0
M  END
> <CdId>
1143

> <Mol Weight>
472.898

> <Formula>
C22H17ClN2O6S

> <Click_ID>
CLK015_G08 __ __ 

$$$$
