CLK032_H10
 OpenBabel03181417552D

 24 26  0  0  0  0  0  0  0  0999 V2000
   -1.8964    2.1589    0.0000 C   0  0  0  0  0  0  0  0  0  0  0  0
   -1.0711    2.1589    0.0000 N   0  0  0  0  0  0  0  0  0  0  0  0
   -2.3756    2.8215    0.0000 N   0  0  0  0  0  0  0  0  0  0  0  0
   -2.3756    1.4837    0.0000 S   0  0  0  0  0  0  0  0  0  0  0  0
   -0.6585    1.4462    0.0000 C   0  0  0  0  0  0  0  0  0  0  0  0
   -3.1634    2.5590    0.0000 C   0  0  0  0  0  0  0  0  0  0  0  0
   -3.1592    1.7337    0.0000 C   0  0  0  0  0  0  0  0  0  0  0  0
    0.1667    1.4462    0.0000 C   0  0  0  0  0  0  0  0  0  0  0  0
   -1.3211    3.7718    0.0000 C   0  0  0  0  0  0  0  0  0  0  0  0
   -0.5209    3.9468    0.0000 C   0  0  0  0  0  0  0  0  0  0  0  0
   -3.8760    2.9841    0.0000 C   0  0  0  0  0  0  0  0  0  0  0  0
   -1.0628    0.7252    0.0000 O   0  0  0  0  0  0  0  0  0  0  0  0
    0.5751    2.1589    0.0000 C   0  0  0  0  0  0  0  0  0  0  0  0
   -2.1256    3.6093    0.0000 C   0  0  0  0  0  0  0  0  0  0  0  0
   -3.8760    3.8010    0.0000 F   0  0  0  0  0  0  0  0  0  0  0  0
   -3.8760    1.3254    0.0000 C   0  0  0  0  0  0  0  0  0  0  0  0
    0.5793    0.7377    0.0000 C   0  0  0  0  0  0  0  0  0  0  0  0
    0.1542    2.8715    0.0000 O   0  0  0  0  0  0  0  0  0  0  0  0
   -4.5846    1.7337    0.0000 C   0  0  0  0  0  0  0  0  0  0  0  0
   -4.5846    2.5590    0.0000 C   0  0  0  0  0  0  0  0  0  0  0  0
    1.3921    2.1631    0.0000 C   0  0  0  0  0  0  0  0  0  0  0  0
    0.2918    3.6718    0.0000 C   0  0  0  0  0  0  0  0  0  0  0  0
    1.4004    0.7252    0.0000 C   0  0  0  0  0  0  0  0  0  0  0  0
    1.8130    1.4504    0.0000 C   0  0  0  0  0  0  0  0  0  0  0  0
  2  1  2  0  0  0  0
  3  1  1  0  0  0  0
  4  1  1  0  0  0  0
  5  2  1  0  0  0  0
  6  3  1  0  0  0  0
  7  4  1  0  0  0  0
  7  6  2  0  0  0  0
  8  5  1  0  0  0  0
  9 14  1  0  0  0  0
 10  9  3  0  0  0  0
 11  6  1  0  0  0  0
 12  5  2  0  0  0  0
 13  8  1  0  0  0  0
 14  3  1  0  0  0  0
 15 11  1  0  0  0  0
 16  7  1  0  0  0  0
 17  8  2  0  0  0  0
 18 13  1  0  0  0  0
 19 16  2  0  0  0  0
 19 20  1  0  0  0  0
 20 11  2  0  0  0  0
 21 13  2  0  0  0  0
 22 18  1  0  0  0  0
 23 17  1  0  0  0  0
 24 23  2  0  0  0  0
 24 21  1  0  0  0  0
M  END
> <CdId>
2484

> <Mol Weight>
340.371

> <Formula>
C18H13FN2O2S

> <Click_ID>
CLK032_H10 __ __ 

$$$$
