CLK041G06
 OpenBabel03181417552D

 24 25  0  0  0  0  0  0  0  0999 V2000
    0.3833   -1.2542    0.0000 S   0  0  0  0  0  0  0  0  0  0  0  0
    1.1000   -1.6667    0.0000 C   0  0  0  0  0  0  0  0  0  0  0  0
   -0.3292   -0.8417    0.0000 N   0  0  0  0  0  0  0  0  0  0  0  0
   -1.7583    1.6333    0.0000 C   0  0  0  0  0  0  0  0  0  0  0  0
   -0.0292   -1.9667    0.0000 O   0  0  0  0  0  0  0  0  0  0  0  0
    0.7958   -0.5375    0.0000 O   0  0  0  0  0  0  0  0  0  0  0  0
   -2.4750    3.6958    0.0000 C   0  0  0  0  0  0  0  0  0  0  0  0
   -2.4750    4.5167    0.0000 C   0  0  0  0  0  0  0  0  0  0  0  0
   -1.0458    1.2208    0.0000 C   0  0  0  0  0  0  0  0  0  0  0  0
    1.8125   -1.2542    0.0000 C   0  0  0  0  0  0  0  0  0  0  0  0
    1.1000   -2.4917    0.0000 C   0  0  0  0  0  0  0  0  0  0  0  0
   -0.3292   -0.0167    0.0000 C   0  0  0  0  0  0  0  0  0  0  0  0
   -1.0458    0.3958    0.0000 C   0  0  0  0  0  0  0  0  0  0  0  0
   -2.4750    1.2208    0.0000 O   0  0  0  0  0  0  0  0  0  0  0  0
   -1.7583    2.4583    0.0000 N   0  0  0  0  0  0  0  0  0  0  0  0
    2.5292   -1.6667    0.0000 C   0  0  0  0  0  0  0  0  0  0  0  0
    1.8125   -2.9042    0.0000 C   0  0  0  0  0  0  0  0  0  0  0  0
    2.5292   -2.4917    0.0000 C   0  0  0  0  0  0  0  0  0  0  0  0
   -2.4750    2.8708    0.0000 C   0  0  0  0  0  0  0  0  0  0  0  0
   -0.3292    1.6333    0.0000 C   0  0  0  0  0  0  0  0  0  0  0  0
    0.3833    1.2208    0.0000 C   0  0  0  0  0  0  0  0  0  0  0  0
    0.3833    0.3958    0.0000 C   0  0  0  0  0  0  0  0  0  0  0  0
    1.8125   -0.4292    0.0000 C   0  0  0  0  0  0  0  0  0  0  0  0
    1.8125   -3.7292    0.0000 C   0  0  0  0  0  0  0  0  0  0  0  0
  2  1  1  0  0  0  0
  3  1  1  0  0  0  0
  4  9  1  0  0  0  0
  5  1  2  0  0  0  0
  6  1  2  0  0  0  0
  7 19  1  0  0  0  0
  8  7  3  0  0  0  0
  9 13  1  0  0  0  0
 10  2  2  0  0  0  0
 11  2  1  0  0  0  0
 12  3  1  0  0  0  0
 13 12  2  0  0  0  0
 14  4  2  0  0  0  0
 15  4  1  0  0  0  0
 16 10  1  0  0  0  0
 16 18  2  0  0  0  0
 17 11  2  0  0  0  0
 18 17  1  0  0  0  0
 19 15  1  0  0  0  0
 20  9  2  0  0  0  0
 20 21  1  0  0  0  0
 21 22  2  0  0  0  0
 22 12  1  0  0  0  0
 23 10  1  0  0  0  0
 24 17  1  0  0  0  0
M  END
> <CdId>
3127

> <Mol Weight>
342.412

> <Formula>
C18H18N2O3S

> <Click_ID>
CLK041G06 __ __ 

$$$$
