CLK014_F10
 OpenBabel03181417552D

 22 23  0  0  0  0  0  0  0  0999 V2000
    2.6293    0.4228    0.0000 N    0  0  0  0  0  0  0  0  0  0  0  0
    2.8888   -0.3685    0.0000 C    0  0  0  0  0  0  0  0  0  0  0  0
    3.9732    0.4228    0.0000 C    0  0  0  0  0  0  0  0  0  0  0  0
    3.3033    0.9043    0.0000 C    0  0  0  0  0  0  0  0  0  0  0  0
    3.7178   -0.3685    0.0000 N    0  0  0  0  0  0  0  0  0  0  0  0
    5.2669    3.0981    0.0000 C    0  0  0  0  0  0  0  0  0  0  0  0
    4.7645    0.6740    0.0000 C    0  0  0  0  0  0  0  0  0  0  0  0
    5.8782    2.5372    0.0000 C    0  0  0  0  0  0  0  0  0  0  0  0
    4.4882    2.8469    0.0000 C    0  0  0  0  0  0  0  0  0  0  0  0
    4.9278    1.4779    0.0000 C    0  0  0  0  0  0  0  0  0  0  0  0
    6.4099    4.9404    0.0000 C    0  0  0  0  0  0  0  0  0  0  0  0
    6.5857    5.7568    0.0000 C    0  0  0  0  0  0  0  0  0  0  0  0
    5.7065    1.7333    0.0000 C    0  0  0  0  0  0  0  0  0  0  0  0
    4.3124    2.0347    0.0000 C    0  0  0  0  0  0  0  0  0  0  0  0
    2.3906   -1.0425    0.0000 O    0  0  0  0  0  0  0  0  0  0  0  0
    3.2950    1.7333    0.0000 O    0  0  0  0  0  0  0  0  0  0  0  0
    6.6611    2.7884    0.0000 Br   0  0  0  0  0  0  0  0  0  0  0  0
    5.4428    3.9020    0.0000 O    0  0  0  0  0  0  0  0  0  0  0  0
    3.8853    3.3912    0.0000 O    0  0  0  0  0  0  0  0  0  0  0  0
    6.2298    4.1448    0.0000 C    0  0  0  0  0  0  0  0  0  0  0  0
    3.1024    3.1358    0.0000 C    0  0  0  0  0  0  0  0  0  0  0  0
    2.4911    3.6885    0.0000 C    0  0  0  0  0  0  0  0  0  0  0  0
  2  1  1  0  0  0  0
  3  4  1  0  0  0  0
  3  5  1  0  0  0  0
  4  1  1  0  0  0  0
  5  2  1  0  0  0  0
  6  9  2  0  0  0  0
  6  8  1  0  0  0  0
  7  3  2  0  0  0  0
  8 13  2  0  0  0  0
  9 14  1  0  0  0  0
 10  7  1  0  0  0  0
 11 20  1  0  0  0  0
 12 11  3  0  0  0  0
 13 10  1  0  0  0  0
 14 10  2  0  0  0  0
 15  2  2  0  0  0  0
 16  4  2  0  0  0  0
 17  8  1  0  0  0  0
 18  6  1  0  0  0  0
 19  9  1  0  0  0  0
 20 18  1  0  0  0  0
 21 19  1  0  0  0  0
 22 21  1  0  0  0  0
M  END
> <CdId>
1055

> <Mol Weight>
365.179

> <Formula>
C15H13BrN2O4

> <Click_ID>
CLK014_F10 __ __ 

$$$$
