CLK042H08
 OpenBabel03181417552D

 34 37  0  0  0  0  0  0  0  0999 V2000
    0.9333   -0.4458    0.0000 N   0  0  0  0  0  0  0  0  0  0  0  0
    1.4208    0.2208    0.0000 N   0  0  0  0  0  0  0  0  0  0  0  0
    2.2042   -0.0333    0.0000 C   0  0  0  0  0  0  0  0  0  0  0  0
    1.4208   -1.1125    0.0000 C   0  0  3  0  0  0  0  0  0  0  0  0
    2.2042   -0.8583    0.0000 C   0  0  0  0  0  0  0  0  0  0  0  0
    0.1083   -0.4458    0.0000 C   0  0  0  0  0  0  0  0  0  0  0  0
   -4.8417    2.4125    0.0000 C   0  0  0  0  0  0  0  0  0  0  0  0
   -5.6667    2.4125    0.0000 C   0  0  0  0  0  0  0  0  0  0  0  0
   -1.5417    0.9833    0.0000 C   0  0  0  0  0  0  0  0  0  0  0  0
    1.1667   -1.8958    0.0000 C   0  0  0  0  0  0  0  0  0  0  0  0
   -2.3667    0.9833    0.0000 N   0  0  0  0  0  0  0  0  0  0  0  0
    2.8708    0.4500    0.0000 C   0  0  0  0  0  0  0  0  0  0  0  0
   -0.3042   -1.1583    0.0000 O   0  0  0  0  0  0  0  0  0  0  0  0
   -0.3042    0.2667    0.0000 C   0  0  0  0  0  0  0  0  0  0  0  0
   -2.7792    1.6958    0.0000 C   0  0  0  0  0  0  0  0  0  0  0  0
   -1.1292    1.6958    0.0000 O   0  0  0  0  0  0  0  0  0  0  0  0
    0.3583   -2.0708    0.0000 C   0  0  0  0  0  0  0  0  0  0  0  0
    1.7167   -2.5125    0.0000 C   0  0  0  0  0  0  0  0  0  0  0  0
   -4.0167    2.4125    0.0000 C   0  0  0  0  0  0  0  0  0  0  0  0
   -1.1292    0.2667    0.0000 C   0  0  0  0  0  0  0  0  0  0  0  0
   -3.6042    1.6958    0.0000 C   0  0  0  0  0  0  0  0  0  0  0  0
    0.6542   -3.4667    0.0000 C   0  0  0  0  0  0  0  0  0  0  0  0
    1.4625   -3.2958    0.0000 C   0  0  0  0  0  0  0  0  0  0  0  0
    0.1042   -2.8542    0.0000 C   0  0  0  0  0  0  0  0  0  0  0  0
    0.4000   -4.2500    0.0000 O   0  0  0  0  0  0  0  0  0  0  0  0
   -2.7792    3.1250    0.0000 C   0  0  0  0  0  0  0  0  0  0  0  0
   -2.3667    2.4125    0.0000 C   0  0  0  0  0  0  0  0  0  0  0  0
    3.6250    0.1167    0.0000 C   0  0  0  0  0  0  0  0  0  0  0  0
    2.7875    1.2708    0.0000 C   0  0  0  0  0  0  0  0  0  0  0  0
   -3.6042    3.1250    0.0000 C   0  0  0  0  0  0  0  0  0  0  0  0
    0.9542   -4.8667    0.0000 C   0  0  0  0  0  0  0  0  0  0  0  0
    3.4542    1.7583    0.0000 C   0  0  0  0  0  0  0  0  0  0  0  0
    4.2917    0.6000    0.0000 C   0  0  0  0  0  0  0  0  0  0  0  0
    4.2083    1.4208    0.0000 C   0  0  0  0  0  0  0  0  0  0  0  0
  2  1  1  0  0  0  0
  3  2  2  0  0  0  0
  3  5  1  0  0  0  0
  4  1  1  0  0  0  0
  5  4  1  0  0  0  0
  6  1  1  0  0  0  0
  7 19  1  0  0  0  0
  8  7  3  0  0  0  0
  9 20  1  0  0  0  0
 10  4  1  0  0  0  0
 11  9  1  0  0  0  0
 12  3  1  0  0  0  0
 13  6  2  0  0  0  0
 14  6  1  0  0  0  0
 15 11  1  0  0  0  0
 16  9  2  0  0  0  0
 17 10  2  0  0  0  0
 18 10  1  0  0  0  0
 19 21  1  0  0  0  0
 20 14  1  0  0  0  0
 21 15  2  0  0  0  0
 22 24  2  0  0  0  0
 23 18  2  0  0  0  0
 23 22  1  0  0  0  0
 24 17  1  0  0  0  0
 25 22  1  0  0  0  0
 26 27  2  0  0  0  0
 27 15  1  0  0  0  0
 28 12  1  0  0  0  0
 29 12  2  0  0  0  0
 30 19  2  0  0  0  0
 30 26  1  0  0  0  0
 31 25  1  0  0  0  0
 32 29  1  0  0  0  0
 33 28  2  0  0  0  0
 34 32  2  0  0  0  0
 34 33  1  0  0  0  0
M  END
> <CdId>
3224

> <Mol Weight>
451.5164

> <Formula>
C28H25N3O3

> <Click_ID>
CLK042H08 __ __ 

$$$$
