CLK012_D07
 OpenBabel03181417552D

 29 31  0  0  0  0  0  0  0  0999 V2000
    3.9344    0.5471    0.0000 N   0  0  0  0  0  0  0  0  0  0  0  0
    3.6755   -0.2423    0.0000 C   0  0  0  0  0  0  0  0  0  0  0  0
    3.2620    1.0275    0.0000 C   0  0  0  0  0  0  0  0  0  0  0  0
    2.5979    0.5471    0.0000 C   0  0  0  0  0  0  0  0  0  0  0  0
    2.8485   -0.2423    0.0000 S   0  0  0  0  0  0  0  0  0  0  0  0
    1.8085    0.7977    0.0000 C   0  0  0  0  0  0  0  0  0  0  0  0
    4.7238    0.7977    0.0000 C   0  0  0  0  0  0  0  0  0  0  0  0
    5.3295    0.2464    0.0000 C   0  0  0  0  0  0  0  0  0  0  0  0
   -2.0257   -1.6456    0.0000 C   0  0  0  0  0  0  0  0  0  0  0  0
   -2.6438   -2.1844    0.0000 C   0  0  0  0  0  0  0  0  0  0  0  0
    4.1642   -0.9147    0.0000 O   0  0  0  0  0  0  0  0  0  0  0  0
    6.1189    0.4970    0.0000 N   0  0  0  0  0  0  0  0  0  0  0  0
    3.2620    1.8544    0.0000 O   0  0  0  0  0  0  0  0  0  0  0  0
    5.1624   -0.5681    0.0000 O   0  0  0  0  0  0  0  0  0  0  0  0
    1.2029    0.2589    0.0000 C   0  0  0  0  0  0  0  0  0  0  0  0
    6.7329   -0.0543    0.0000 C   0  0  0  0  0  0  0  0  0  0  0  0
   -0.0209   -0.8395    0.0000 C   0  0  0  0  0  0  0  0  0  0  0  0
    7.9566   -1.1695    0.0000 C   0  0  0  0  0  0  0  0  0  0  0  0
    0.4302    0.5095    0.0000 C   0  0  0  0  0  0  0  0  0  0  0  0
    1.3658   -0.5555    0.0000 C   0  0  0  0  0  0  0  0  0  0  0  0
    7.5180    0.1963    0.0000 C   0  0  0  0  0  0  0  0  0  0  0  0
    6.5574   -0.8688    0.0000 C   0  0  0  0  0  0  0  0  0  0  0  0
    0.7560   -1.0943    0.0000 C   0  0  0  0  0  0  0  0  0  0  0  0
   -0.1963   -0.0293    0.0000 C   0  0  0  0  0  0  0  0  0  0  0  0
    8.1320   -0.3634    0.0000 C   0  0  0  0  0  0  0  0  0  0  0  0
    7.1672   -1.4201    0.0000 C   0  0  0  0  0  0  0  0  0  0  0  0
   -1.4117   -1.1152    0.0000 C   0  0  0  0  0  0  0  0  0  0  0  0
   -0.6348   -1.3700    0.0000 O   0  0  0  0  0  0  0  0  0  0  0  0
    8.5706   -1.7291    0.0000 C   0  0  0  0  0  0  0  0  0  0  0  0
  2  1  1  0  0  0  0
  3  1  1  0  0  0  0
  4  3  1  0  0  0  0
  5  2  1  0  0  0  0
  5  4  1  0  0  0  0
  6  4  2  0  0  0  0
  7  1  1  0  0  0  0
  8  7  1  0  0  0  0
  9 27  1  0  0  0  0
 10  9  3  0  0  0  0
 11  2  2  0  0  0  0
 12  8  1  0  0  0  0
 13  3  2  0  0  0  0
 14  8  2  0  0  0  0
 15  6  1  0  0  0  0
 16 12  1  0  0  0  0
 17 23  2  0  0  0  0
 17 24  1  0  0  0  0
 18 26  2  0  0  0  0
 18 25  1  0  0  0  0
 19 15  1  0  0  0  0
 20 15  2  0  0  0  0
 21 16  1  0  0  0  0
 22 16  2  0  0  0  0
 23 20  1  0  0  0  0
 24 19  2  0  0  0  0
 25 21  2  0  0  0  0
 26 22  1  0  0  0  0
 27 28  1  0  0  0  0
 28 17  1  0  0  0  0
 29 18  1  0  0  0  0
M  END
> <CdId>
872

> <Mol Weight>
406.454

> <Formula>
C22H18N2O4S

> <Click_ID>
CLK012_D07 __ __ 

$$$$
