CLK017_C08
 OpenBabel03181417552D

 26 28  0  0  0  0  0  0  0  0999 V2000
    6.4479   -2.6132    0.0000 N   0  0  0  0  0  0  0  0  0  0  0  0
    6.0380   -3.3213    0.0000 C   0  0  0  0  0  0  0  0  0  0  0  0
    5.1434   -2.3274    0.0000 C   0  0  0  0  0  0  0  0  0  0  0  0
    5.9013   -2.0002    0.0000 C   0  0  0  0  0  0  0  0  0  0  0  0
    5.2304   -3.1474    0.0000 S   0  0  0  0  0  0  0  0  0  0  0  0
    4.4270   -1.9174    0.0000 C   0  0  0  0  0  0  0  0  0  0  0  0
    7.7442   -3.1971    0.0000 C   0  0  0  0  0  0  0  0  0  0  0  0
    3.7189   -2.3274    0.0000 C   0  0  0  0  0  0  0  0  0  0  0  0
    8.1500   -3.9052    0.0000 C   0  0  0  0  0  0  0  0  0  0  0  0
    6.3651   -4.0792    0.0000 O   0  0  0  0  0  0  0  0  0  0  0  0
    6.0752   -1.1927    0.0000 O   0  0  0  0  0  0  0  0  0  0  0  0
    7.2679   -2.5262    0.0000 C   0  0  0  0  0  0  0  0  0  0  0  0
    2.9983   -1.9050    0.0000 C   0  0  0  0  0  0  0  0  0  0  0  0
    2.9983   -1.0850    0.0000 O   0  0  0  0  0  0  0  0  0  0  0  0
    2.2901   -0.6709    0.0000 C   0  0  0  0  0  0  0  0  0  0  0  0
    1.5820    0.5673    0.0000 C   0  0  0  0  0  0  0  0  0  0  0  0
    2.2901    0.1573    0.0000 C   0  0  0  0  0  0  0  0  0  0  0  0
    1.5902    1.3997    0.0000 C   0  0  0  0  0  0  0  0  0  0  0  0
    3.0190    1.3873    0.0000 C   0  0  0  0  0  0  0  0  0  0  0  0
    3.7147   -3.1474    0.0000 C   0  0  0  0  0  0  0  0  0  0  0  0
    2.2860   -2.3150    0.0000 C   0  0  0  0  0  0  0  0  0  0  0  0
    3.0107    0.5591    0.0000 C   0  0  0  0  0  0  0  0  0  0  0  0
    2.3026    1.8014    0.0000 C   0  0  0  0  0  0  0  0  0  0  0  0
    0.8821    1.8097    0.0000 C   0  0  0  0  0  0  0  0  0  0  0  0
    2.9983   -3.5574    0.0000 C   0  0  0  0  0  0  0  0  0  0  0  0
    2.2901   -3.1474    0.0000 C   0  0  0  0  0  0  0  0  0  0  0  0
  2  1  1  0  0  0  0
  3  4  1  0  0  0  0
  4  1  1  0  0  0  0
  5  2  1  0  0  0  0
  5  3  1  0  0  0  0
  6  3  2  0  0  0  0
  7 12  1  0  0  0  0
  8  6  1  0  0  0  0
  9  7  3  0  0  0  0
 10  2  2  0  0  0  0
 11  4  2  0  0  0  0
 12  1  1  0  0  0  0
 13  8  2  0  0  0  0
 14 13  1  0  0  0  0
 15 14  1  0  0  0  0
 16 17  1  0  0  0  0
 17 15  1  0  0  0  0
 18 16  2  0  0  0  0
 19 22  1  0  0  0  0
 20  8  1  0  0  0  0
 21 13  1  0  0  0  0
 21 26  2  0  0  0  0
 22 17  2  0  0  0  0
 23 19  2  0  0  0  0
 23 18  1  0  0  0  0
 24 18  1  0  0  0  0
 25 20  2  0  0  0  0
 26 25  1  0  0  0  0
M  END
> <CdId>
1263

> <Mol Weight>
363.43

> <Formula>
C21H17NO3S

> <Click_ID>
CLK017_C08 __ __ 

$$$$
