CLK017_C04
 OpenBabel03181417552D

 23 25  0  0  0  0  0  0  0  0999 V2000
    1.8573   -0.8714    0.0000 N   0  0  0  0  0  0  0  0  0  0  0  0
    1.6006   -1.6556    0.0000 C   0  0  0  0  0  0  0  0  0  0  0  0
    2.6691   -0.8714    0.0000 C   0  0  0  0  0  0  0  0  0  0  0  0
    2.2701   -2.1371    0.0000 O   0  0  0  0  0  0  0  0  0  0  0  0
    2.9213   -1.6418    0.0000 C   0  0  0  0  0  0  0  0  0  0  0  0
    3.1552   -0.1972    0.0000 C   0  0  0  0  0  0  0  0  0  0  0  0
    5.3244   -3.2928    0.0000 C   0  0  0  0  0  0  0  0  0  0  0  0
    5.6592   -4.0495    0.0000 C   0  0  0  0  0  0  0  0  0  0  0  0
    0.8117   -1.9032    0.0000 C   0  0  0  0  0  0  0  0  0  0  0  0
    3.7055   -1.8895    0.0000 O   0  0  0  0  0  0  0  0  0  0  0  0
    3.9761   -0.2798    0.0000 C   0  0  0  0  0  0  0  0  0  0  0  0
    4.3109   -1.0365    0.0000 C   0  0  0  0  0  0  0  0  0  0  0  0
    5.1364   -1.1190    0.0000 C   0  0  0  0  0  0  0  0  0  0  0  0
    4.9850   -2.5452    0.0000 C   0  0  0  0  0  0  0  0  0  0  0  0
    5.4666   -1.8757    0.0000 O   0  0  0  0  0  0  0  0  0  0  0  0
    5.2740    0.2981    0.0000 C   0  0  0  0  0  0  0  0  0  0  0  0
    4.4576    0.3852    0.0000 C   0  0  0  0  0  0  0  0  0  0  0  0
    0.6375   -2.7150    0.0000 C   0  0  0  0  0  0  0  0  0  0  0  0
    0.1972   -1.3620    0.0000 C   0  0  0  0  0  0  0  0  0  0  0  0
    5.6179   -0.4540    0.0000 C   0  0  0  0  0  0  0  0  0  0  0  0
   -0.1467   -2.9717    0.0000 C   0  0  0  0  0  0  0  0  0  0  0  0
   -0.5870   -1.6143    0.0000 C   0  0  0  0  0  0  0  0  0  0  0  0
   -0.7567   -2.4123    0.0000 C   0  0  0  0  0  0  0  0  0  0  0  0
  2  1  2  0  0  0  0
  3  1  1  0  0  0  0
  4  2  1  0  0  0  0
  4  5  1  0  0  0  0
  5  3  1  0  0  0  0
  6  3  2  0  0  0  0
  7 14  1  0  0  0  0
  8  7  3  0  0  0  0
  9  2  1  0  0  0  0
 10  5  2  0  0  0  0
 11  6  1  0  0  0  0
 12 11  1  0  0  0  0
 13 12  2  0  0  0  0
 13 20  1  0  0  0  0
 14 15  1  0  0  0  0
 15 13  1  0  0  0  0
 16 17  1  0  0  0  0
 17 11  2  0  0  0  0
 18  9  2  0  0  0  0
 19  9  1  0  0  0  0
 20 16  2  0  0  0  0
 21 18  1  0  0  0  0
 22 19  2  0  0  0  0
 23 22  1  0  0  0  0
 23 21  2  0  0  0  0
M  END
> <CdId>
1259

> <Mol Weight>
303.3114

> <Formula>
C19H13NO3

> <Click_ID>
CLK017_C04 __ __ 

$$$$
