CLK049H05
 OpenBabel03181417552D

 16 17  0  0  0  0  0  0  0  0999 V2000
   -0.7492   -0.1041    0.0000 C   0  0  0  0  0  0  0  0  0  0  0  0
    0.0375    0.9739    0.0000 C   0  0  0  0  0  0  0  0  0  0  0  0
   -1.2319    0.5619    0.0000 N   0  0  0  0  0  0  0  0  0  0  0  0
    0.0375    0.1498    0.0000 C   0  0  0  0  0  0  0  0  0  0  0  0
   -0.7492    1.2278    0.0000 N   0  0  0  0  0  0  0  0  0  0  0  0
    0.7034    1.4609    0.0000 C   0  0  0  0  0  0  0  0  0  0  0  0
   -1.0031   -0.8865    0.0000 C   0  0  0  0  0  0  0  0  0  0  0  0
   -0.1540   -2.8968    0.0000 C   0  0  0  0  0  0  0  0  0  0  0  0
    0.3954   -3.5086    0.0000 C   0  0  0  0  0  0  0  0  0  0  0  0
    0.7034    2.2849    0.0000 O   0  0  0  0  0  0  0  0  0  0  0  0
    1.4858    1.2029    0.0000 C   0  0  0  0  0  0  0  0  0  0  0  0
   -1.8105   -1.0571    0.0000 O   0  0  0  0  0  0  0  0  0  0  0  0
    1.4858    2.5389    0.0000 C   0  0  0  0  0  0  0  0  0  0  0  0
    1.9728    1.8729    0.0000 C   0  0  0  0  0  0  0  0  0  0  0  0
   -0.4495   -1.4983    0.0000 N   0  0  0  0  0  0  0  0  0  0  0  0
   -0.7075   -2.2849    0.0000 C   0  0  0  0  0  0  0  0  0  0  0  0
  2  4  2  0  0  0  0
  3  1  2  0  0  0  0
  4  1  1  0  0  0  0
  5  3  1  0  0  0  0
  5  2  1  0  0  0  0
  6  2  1  0  0  0  0
  7  1  1  0  0  0  0
  8 16  1  0  0  0  0
  9  8  3  0  0  0  0
 10  6  1  0  0  0  0
 11  6  2  0  0  0  0
 12  7  2  0  0  0  0
 13 10  1  0  0  0  0
 13 14  2  0  0  0  0
 14 11  1  0  0  0  0
 15  7  1  0  0  0  0
 16 15  1  0  0  0  0
M  END
> <CdId>
3760

> <Mol Weight>
215.2081

> <Formula>
C11H9N3O2

> <Click_ID>
CLK049H05 __ __ 

$$$$
