CLK017_F11
 OpenBabel03181417552D

 17 17  0  0  0  0  0  0  0  0999 V2000
    1.7325    0.0000    0.0000 Cl   0  0  0  0  0  0  0  0  0  0  0  0
    0.1535    0.0809    0.0000 N    0  0  0  0  0  0  0  0  0  0  0  0
    0.6361   -0.5942    0.0000 C    0  0  0  0  0  0  0  0  0  0  0  0
    0.1535   -1.2583    0.0000 N    0  0  0  0  0  0  0  0  0  0  0  0
   -0.6361   -0.1786    0.0000 C    0  0  0  0  0  0  0  0  0  0  0  0
   -0.6361   -1.0072    0.0000 C    0  0  0  0  0  0  0  0  0  0  0  0
    2.6895   -1.3085    0.0000 C    0  0  0  0  0  0  0  0  0  0  0  0
   -1.3363    0.2344    0.0000 C    0  0  0  0  0  0  0  0  0  0  0  0
    3.5069   -1.3085    0.0000 C    0  0  0  0  0  0  0  0  0  0  0  0
    1.4508   -0.6054    0.0000 S    0  0  0  0  0  0  0  0  0  0  0  0
   -1.3363   -1.4089    0.0000 C    0  0  0  0  0  0  0  0  0  0  0  0
   -2.0506   -0.1786    0.0000 C    0  0  0  0  0  0  0  0  0  0  0  0
   -2.0506   -0.9960    0.0000 C    0  0  0  0  0  0  0  0  0  0  0  0
    1.8609   -1.3085    0.0000 C    0  0  0  0  0  0  0  0  0  0  0  0
   -2.7759    0.2092    0.0000 O    0  0  0  0  0  0  0  0  0  0  0  0
   -2.8010    1.0267    0.0000 C    0  0  0  0  0  0  0  0  0  0  0  0
   -3.5292    1.4145    0.0000 C    0  0  0  0  0  0  0  0  0  0  0  0
  3  2  2  0  0  0  0
  4  3  1  0  0  0  0
  5  2  1  0  0  0  0
  6  5  2  0  0  0  0
  6  4  1  0  0  0  0
  7 14  1  0  0  0  0
  8  5  1  0  0  0  0
  9  7  3  0  0  0  0
 10  3  1  0  0  0  0
 11  6  1  0  0  0  0
 11 13  2  0  0  0  0
 12  8  2  0  0  0  0
 13 12  1  0  0  0  0
 14 10  1  0  0  0  0
 15 12  1  0  0  0  0
 16 15  1  0  0  0  0
 17 16  1  0  0  0  0
M  END
> <CdId>
1296

> <Mol Weight>
268.762

> <Formula>
C12H13ClN2OS

> <Click_ID>
CLK017_F11 __ __ 

$$$$
