CLK026_E08
 OpenBabel03181417552D

 24 26  0  0  0  0  0  0  0  0999 V2000
   -1.9490   -0.5431    0.0000 N   0  0  0  0  0  0  0  0  0  0  0  0
   -2.2034   -1.3235    0.0000 C   0  0  0  0  0  0  0  0  0  0  0  0
   -0.8731   -1.3268    0.0000 C   0  0  0  0  0  0  0  0  0  0  0  0
   -1.1137   -0.5431    0.0000 C   0  0  0  0  0  0  0  0  0  0  0  0
    1.2134    0.1066    0.0000 N   0  0  0  0  0  0  0  0  0  0  0  0
    0.5328   -1.0416    0.0000 C   0  0  0  0  0  0  0  0  0  0  0  0
   -1.5400   -1.8150    0.0000 S   0  0  0  0  0  0  0  0  0  0  0  0
    0.4572   -0.2234    0.0000 C   0  0  0  0  0  0  0  0  0  0  0  0
   -0.0860   -1.5916    0.0000 C   0  0  0  0  0  0  0  0  0  0  0  0
    1.7600   -0.5259    0.0000 C   0  0  0  0  0  0  0  0  0  0  0  0
    1.3441   -1.2272    0.0000 C   0  0  0  0  0  0  0  0  0  0  0  0
    1.3990    0.9075    0.0000 C   0  0  0  0  0  0  0  0  0  0  0  0
   -2.0866    0.8834    0.0000 C   0  0  0  0  0  0  0  0  0  0  0  0
   -1.7840    1.6568    0.0000 C   0  0  0  0  0  0  0  0  0  0  0  0
    2.1862    1.1585    0.0000 C   0  0  0  0  0  0  0  0  0  0  0  0
   -2.9906   -1.5675    0.0000 O   0  0  0  0  0  0  0  0  0  0  0  0
   -0.6359    0.1237    0.0000 O   0  0  0  0  0  0  0  0  0  0  0  0
   -2.4234    0.1341    0.0000 C   0  0  0  0  0  0  0  0  0  0  0  0
    2.7947    0.5947    0.0000 O   0  0  0  0  0  0  0  0  0  0  0  0
    2.3615    1.9559    0.0000 O   0  0  0  0  0  0  0  0  0  0  0  0
    2.5849   -0.5294    0.0000 C   0  0  0  0  0  0  0  0  0  0  0  0
    1.7359   -1.9525    0.0000 C   0  0  0  0  0  0  0  0  0  0  0  0
    2.9871   -1.2546    0.0000 C   0  0  0  0  0  0  0  0  0  0  0  0
    2.5609   -1.9525    0.0000 C   0  0  0  0  0  0  0  0  0  0  0  0
  2  1  1  0  0  0  0
  3  4  1  0  0  0  0
  4  1  1  0  0  0  0
  5  8  1  0  0  0  0
  6  9  1  0  0  0  0
  7  2  1  0  0  0  0
  7  3  1  0  0  0  0
  8  6  2  0  0  0  0
  9  3  2  0  0  0  0
 10 11  1  0  0  0  0
 10  5  1  0  0  0  0
 11  6  1  0  0  0  0
 12  5  1  0  0  0  0
 13 18  1  0  0  0  0
 14 13  3  0  0  0  0
 15 12  1  0  0  0  0
 16  2  2  0  0  0  0
 17  4  2  0  0  0  0
 18  1  1  0  0  0  0
 19 15  2  0  0  0  0
 20 15  1  0  0  0  0
 21 10  2  0  0  0  0
 22 11  2  0  0  0  0
 23 24  2  0  0  0  0
 23 21  1  0  0  0  0
 24 22  1  0  0  0  0
M  END
> <CdId>
1983

> <Mol Weight>
340.353

> <Formula>
C17H12N2O4S

> <Click_ID>
CLK026_E08 __ __ 

$$$$
