CLK041E04
 OpenBabel03181417552D

 31 33  0  0  0  0  0  0  0  0999 V2000
   -0.6458   -2.4458    0.0000 S    0  0  0  0  0  0  0  0  0  0  0  0
    0.7833    3.3292    0.0000 S    0  0  0  0  0  0  0  0  0  0  0  0
   -0.6458   -1.6208    0.0000 N    0  0  0  0  0  0  0  0  0  0  0  0
   -0.6458    0.8542    0.0000 C    0  0  0  0  0  0  0  0  0  0  0  0
   -0.6458    0.0292    0.0000 N    0  0  0  0  0  0  0  0  0  0  0  0
    0.7833    2.5042    0.0000 C    0  0  0  0  0  0  0  0  0  0  0  0
    0.0667    1.2667    0.0000 C    0  0  0  0  0  0  0  0  0  0  0  0
   -0.6458   -3.2708    0.0000 C    0  0  0  0  0  0  0  0  0  0  0  0
    0.0667    2.0917    0.0000 C    0  0  0  0  0  0  0  0  0  0  0  0
    0.1792   -2.4458    0.0000 O    0  0  0  0  0  0  0  0  0  0  0  0
   -1.4708   -2.4458    0.0000 O    0  0  0  0  0  0  0  0  0  0  0  0
   -1.3625   -1.2083    0.0000 C    0  0  0  0  0  0  0  0  0  0  0  0
    0.0667   -1.2083    0.0000 C    0  0  0  0  0  0  0  0  0  0  0  0
    1.4958    5.3875    0.0000 C    0  0  0  0  0  0  0  0  0  0  0  0
    1.4958    6.2125    0.0000 C    0  0  0  0  0  0  0  0  0  0  0  0
   -0.0417    3.3292    0.0000 O    0  0  0  0  0  0  0  0  0  0  0  0
    1.6083    3.3292    0.0000 O    0  0  0  0  0  0  0  0  0  0  0  0
    0.7833    4.1500    0.0000 N    0  0  0  0  0  0  0  0  0  0  0  0
   -1.3625   -0.3833    0.0000 C    0  0  0  0  0  0  0  0  0  0  0  0
    0.0667   -0.3833    0.0000 C    0  0  0  0  0  0  0  0  0  0  0  0
   -1.3625    1.2667    0.0000 O    0  0  0  0  0  0  0  0  0  0  0  0
    0.0667   -3.6833    0.0000 C    0  0  0  0  0  0  0  0  0  0  0  0
   -1.3625   -3.6833    0.0000 C    0  0  0  0  0  0  0  0  0  0  0  0
   -0.6458   -4.9208    0.0000 C    0  0  0  0  0  0  0  0  0  0  0  0
    0.0667   -4.5083    0.0000 C    0  0  0  0  0  0  0  0  0  0  0  0
   -1.3625   -4.5083    0.0000 C    0  0  0  0  0  0  0  0  0  0  0  0
    1.4958    4.5625    0.0000 C    0  0  0  0  0  0  0  0  0  0  0  0
   -0.6458   -5.7458    0.0000 Cl   0  0  0  0  0  0  0  0  0  0  0  0
    0.7833    0.8542    0.0000 C    0  0  0  0  0  0  0  0  0  0  0  0
    1.4958    2.0917    0.0000 C    0  0  0  0  0  0  0  0  0  0  0  0
    1.4958    1.2667    0.0000 C    0  0  0  0  0  0  0  0  0  0  0  0
  2  6  1  0  0  0  0
  3  1  1  0  0  0  0
  4  5  1  0  0  0  0
  5 19  1  0  0  0  0
  5 20  1  0  0  0  0
  6  9  1  0  0  0  0
  7  4  1  0  0  0  0
  8  1  1  0  0  0  0
  9  7  2  0  0  0  0
 10  1  2  0  0  0  0
 11  1  2  0  0  0  0
 12  3  1  0  0  0  0
 13  3  1  0  0  0  0
 14 27  1  0  0  0  0
 15 14  3  0  0  0  0
 16  2  2  0  0  0  0
 17  2  2  0  0  0  0
 18  2  1  0  0  0  0
 19 12  1  0  0  0  0
 20 13  1  0  0  0  0
 21  4  2  0  0  0  0
 22  8  1  0  0  0  0
 23  8  2  0  0  0  0
 24 26  2  0  0  0  0
 25 22  2  0  0  0  0
 25 24  1  0  0  0  0
 26 23  1  0  0  0  0
 27 18  1  0  0  0  0
 28 24  1  0  0  0  0
 29  7  1  0  0  0  0
 30  6  2  0  0  0  0
 30 31  1  0  0  0  0
 31 29  2  0  0  0  0
M  END
> <CdId>
3109

> <Mol Weight>
481.973

> <Formula>
C20H20ClN3O5S2

> <Click_ID>
CLK041E04 __ __ 

$$$$
