CLK015_D08
 OpenBabel03181417552D

 25 27  0  0  0  0  0  0  0  0999 V2000
    1.5629   -0.8147    0.0000 N   0  0  0  0  0  0  0  0  0  0  0  0
    1.8205   -1.6003    0.0000 C   0  0  0  0  0  0  0  0  0  0  0  0
    2.8971   -0.8147    0.0000 C   0  0  0  0  0  0  0  0  0  0  0  0
    2.2320   -0.3284    0.0000 C   0  0  0  0  0  0  0  0  0  0  0  0
    2.6435   -1.6003    0.0000 S   0  0  0  0  0  0  0  0  0  0  0  0
    3.6827   -0.5611    0.0000 C   0  0  0  0  0  0  0  0  0  0  0  0
    5.5115   -1.6751    0.0000 C   0  0  0  0  0  0  0  0  0  0  0  0
    5.1042   -0.9519    0.0000 O   0  0  0  0  0  0  0  0  0  0  0  0
    4.2936   -1.1098    0.0000 C   0  0  0  0  0  0  0  0  0  0  0  0
    4.9545   -2.2861    0.0000 C   0  0  0  0  0  0  0  0  0  0  0  0
    8.1467   -0.5487    0.0000 C   0  0  0  0  0  0  0  0  0  0  0  0
    6.3262   -1.7706    0.0000 C   0  0  0  0  0  0  0  0  0  0  0  0
    0.6110    0.2452    0.0000 C   0  0  0  0  0  0  0  0  0  0  0  0
    4.2064   -1.9577    0.0000 C   0  0  0  0  0  0  0  0  0  0  0  0
    7.6562   -1.2095    0.0000 C   0  0  0  0  0  0  0  0  0  0  0  0
    0.3907    1.0432    0.0000 C   0  0  0  0  0  0  0  0  0  0  0  0
    6.8249   -1.1140    0.0000 C   0  0  0  0  0  0  0  0  0  0  0  0
    1.3342   -2.2611    0.0000 O   0  0  0  0  0  0  0  0  0  0  0  0
    2.2237    0.4946    0.0000 O   0  0  0  0  0  0  0  0  0  0  0  0
    0.7856   -0.5611    0.0000 C   0  0  0  0  0  0  0  0  0  0  0  0
    7.8225    0.2203    0.0000 O   0  0  0  0  0  0  0  0  0  0  0  0
    8.9779   -0.6359    0.0000 O   0  0  0  0  0  0  0  0  0  0  0  0
    6.6628   -2.5437    0.0000 C   0  0  0  0  0  0  0  0  0  0  0  0
    7.9721   -1.9702    0.0000 C   0  0  0  0  0  0  0  0  0  0  0  0
    7.4858   -2.6352    0.0000 C   0  0  0  0  0  0  0  0  0  0  0  0
  2  1  1  0  0  0  0
  3  4  1  0  0  0  0
  3  5  1  0  0  0  0
  4  1  1  0  0  0  0
  5  2  1  0  0  0  0
  6  3  2  0  0  0  0
  7  8  1  0  0  0  0
  7 10  2  0  0  0  0
  8  9  1  0  0  0  0
  9  6  1  0  0  0  0
 10 14  1  0  0  0  0
 11 15  1  0  0  0  0
 12  7  1  0  0  0  0
 13 20  1  0  0  0  0
 14  9  2  0  0  0  0
 15 17  2  0  0  0  0
 15 24  1  0  0  0  0
 16 13  3  0  0  0  0
 17 12  1  0  0  0  0
 18  2  2  0  0  0  0
 19  4  2  0  0  0  0
 20  1  1  0  0  0  0
 21 11  2  0  0  0  0
 22 11  1  0  0  0  0
 23 12  2  0  0  0  0
 24 25  2  0  0  0  0
 25 23  1  0  0  0  0
M  END
> <CdId>
1113

> <Mol Weight>
353.349

> <Formula>
C18H11NO5S

> <Click_ID>
CLK015_D08 __ __ 

$$$$
