CLK043G04
 OpenBabel03181417552D

 19 20  0  0  0  0  0  0  0  0999 V2000
   -1.9208    2.8917    0.0000 C   0  0  0  0  0  0  0  0  0  0  0  0
   -2.6333    3.3000    0.0000 C   0  0  0  0  0  0  0  0  0  0  0  0
    0.2250    0.0000    0.0000 C   0  0  0  0  0  0  0  0  0  0  0  0
   -0.4917    0.4125    0.0000 N   0  0  0  0  0  0  0  0  0  0  0  0
   -0.4917    1.2375    0.0000 C   0  0  0  0  0  0  0  0  0  0  0  0
    0.9375    0.4125    0.0000 O   0  0  0  0  0  0  0  0  0  0  0  0
   -1.2042    2.4750    0.0000 C   0  0  0  0  0  0  0  0  0  0  0  0
   -1.2042    1.6500    0.0000 C   0  0  0  0  0  0  0  0  0  0  0  0
    0.2250   -0.8250    0.0000 C   0  0  0  0  0  0  0  0  0  0  0  0
    0.9375   -1.2375    0.0000 C   0  0  0  0  0  0  0  0  0  0  0  0
    0.9375   -2.0625    0.0000 C   0  0  0  0  0  0  0  0  0  0  0  0
    0.2250    2.4750    0.0000 C   0  0  0  0  0  0  0  0  0  0  0  0
    0.2250    1.6500    0.0000 C   0  0  0  0  0  0  0  0  0  0  0  0
   -0.4917    2.8917    0.0000 C   0  0  0  0  0  0  0  0  0  0  0  0
    1.6542   -2.4750    0.0000 C   0  0  0  0  0  0  0  0  0  0  0  0
    0.2250   -2.4750    0.0000 C   0  0  0  0  0  0  0  0  0  0  0  0
    0.2250   -3.3000    0.0000 C   0  0  0  0  0  0  0  0  0  0  0  0
    1.6542   -3.3000    0.0000 C   0  0  0  0  0  0  0  0  0  0  0  0
    0.9375   -3.7125    0.0000 C   0  0  0  0  0  0  0  0  0  0  0  0
  2  1  3  0  0  0  0
  3  4  1  0  0  0  0
  4  5  1  0  0  0  0
  5  8  2  0  0  0  0
  6  3  2  0  0  0  0
  7  1  1  0  0  0  0
  8  7  1  0  0  0  0
  9  3  1  0  0  0  0
 10  9  1  0  0  0  0
 11 10  1  0  0  0  0
 12 14  1  0  0  0  0
 12 13  2  0  0  0  0
 13  5  1  0  0  0  0
 14  7  2  0  0  0  0
 15 11  2  0  0  0  0
 16 11  1  0  0  0  0
 17 16  2  0  0  0  0
 18 15  1  0  0  0  0
 19 18  2  0  0  0  0
 19 17  1  0  0  0  0
M  END
> <CdId>
3271

> <Mol Weight>
249.3071

> <Formula>
C17H15NO

> <Click_ID>
CLK043G04 __ __ 

$$$$
