CLK029_A04
 OpenBabel03181417552D

 31 34  0  0  0  0  0  0  0  0999 V2000
   -1.1795    0.9696    0.0000 C   0  0  0  0  0  0  0  0  0  0  0  0
   -1.6706    0.2980    0.0000 N   0  0  0  0  0  0  0  0  0  0  0  0
   -0.3484    0.9696    0.0000 N   0  0  0  0  0  0  0  0  0  0  0  0
   -1.6706    1.6454    0.0000 S   0  0  0  0  0  0  0  0  0  0  0  0
    2.0526    1.6497    0.0000 N   0  0  0  0  0  0  0  0  0  0  0  0
   -2.4640    0.5541    0.0000 C   0  0  0  0  0  0  0  0  0  0  0  0
   -2.4640    1.3852    0.0000 C   0  0  0  0  0  0  0  0  0  0  0  0
    2.6361    1.0788    0.0000 C   0  0  0  0  0  0  0  0  0  0  0  0
    2.2667    2.4430    0.0000 C   0  0  0  0  0  0  0  0  0  0  0  0
   -0.1343    1.7756    0.0000 C   0  0  0  0  0  0  0  0  0  0  0  0
   -0.6045   -0.6591    0.0000 C   0  0  0  0  0  0  0  0  0  0  0  0
   -0.0504   -0.0420    0.0000 C   0  0  0  0  0  0  0  0  0  0  0  0
    2.4221    0.2728    0.0000 C   0  0  0  0  0  0  0  0  0  0  0  0
    3.1608    2.6949    0.0000 O   0  0  0  0  0  0  0  0  0  0  0  0
   -1.4104   -0.4828    0.0000 C   0  0  0  0  0  0  0  0  0  0  0  0
   -0.7262    2.3632    0.0000 O   0  0  0  0  0  0  0  0  0  0  0  0
    0.8731    2.8040    0.0000 S   0  0  0  0  0  0  0  0  0  0  0  0
    1.2635    1.4439    0.0000 C   0  0  0  0  0  0  0  0  0  0  0  0
    1.6748    3.0223    0.0000 C   0  0  0  0  0  0  0  0  0  0  0  0
    0.6591    1.9980    0.0000 C   0  0  0  0  0  0  0  0  0  0  0  0
   -3.1818    0.1469    0.0000 C   0  0  0  0  0  0  0  0  0  0  0  0
    3.4253    1.2802    0.0000 C   0  0  0  0  0  0  0  0  0  0  0  0
   -3.1818    1.8091    0.0000 C   0  0  0  0  0  0  0  0  0  0  0  0
    1.0452    0.6548    0.0000 C   0  0  0  0  0  0  0  0  0  0  0  0
    1.6245    0.0713    0.0000 C   0  0  0  0  0  0  0  0  0  0  0  0
    2.9971   -0.3065    0.0000 C   0  0  0  0  0  0  0  0  0  0  0  0
   -3.8912    0.5541    0.0000 C   0  0  0  0  0  0  0  0  0  0  0  0
    4.0088    0.7010    0.0000 C   0  0  0  0  0  0  0  0  0  0  0  0
   -3.8912    1.3852    0.0000 C   0  0  0  0  0  0  0  0  0  0  0  0
    3.7904   -0.0924    0.0000 C   0  0  0  0  0  0  0  0  0  0  0  0
   -4.6173    1.7965    0.0000 H   0  0  0  0  0  0  0  0  0  0  0  0
  2  1  1  0  0  0  0
  3  1  2  0  0  0  0
  4  1  1  0  0  0  0
  5  9  1  0  0  0  0
  6  2  1  0  0  0  0
  7  4  1  0  0  0  0
  7  6  2  0  0  0  0
  8  5  1  0  0  0  0
  9 19  1  0  0  0  0
 10  3  1  0  0  0  0
 11 15  1  0  0  0  0
 12 11  3  0  0  0  0
 13  8  2  0  0  0  0
 14  9  2  0  0  0  0
 15  2  1  0  0  0  0
 16 10  2  0  0  0  0
 17 20  1  0  0  0  0
 18  5  1  0  0  0  0
 19 17  1  0  0  0  0
 20 10  1  0  0  0  0
 21  6  1  0  0  0  0
 22  8  1  0  0  0  0
 23  7  1  0  0  0  0
 24 18  1  0  0  0  0
 25 24  1  0  0  0  0
 25 13  1  0  0  0  0
 26 13  1  0  0  0  0
 26 30  2  0  0  0  0
 27 21  2  0  0  0  0
 28 22  2  0  0  0  0
 29 23  2  0  0  0  0
 29 27  1  0  0  0  0
 30 28  1  0  0  0  0
 31 29  1  0  0  0  0
M  END
> <CdId>
2168

> <Mol Weight>
435.562

> <Formula>
C23H21N3O2S2

> <Click_ID>
CLK029_A04 __ __ 

$$$$
