CLK024_A06
 OpenBabel03181417552D

 30 33  0  0  0  0  0  0  0  0999 V2000
   -3.1038    0.9487    0.0000 N   0  0  0  0  0  0  0  0  0  0  0  0
   -2.6845    0.2372    0.0000 C   0  0  0  0  0  0  0  0  0  0  0  0
   -2.5539    1.5502    0.0000 C   0  0  0  0  0  0  0  0  0  0  0  0
   -1.7942    1.2236    0.0000 C   0  0  0  0  0  0  0  0  0  0  0  0
   -1.8836    0.3987    0.0000 S   0  0  0  0  0  0  0  0  0  0  0  0
   -1.0827    1.6361    0.0000 C   0  0  0  0  0  0  0  0  0  0  0  0
   -4.2519    1.7839    0.0000 C   0  0  0  0  0  0  0  0  0  0  0  0
   -4.6300    2.5195    0.0000 C   0  0  0  0  0  0  0  0  0  0  0  0
    1.0586    1.2030    0.0000 C   0  0  0  0  0  0  0  0  0  0  0  0
   -3.0282   -0.5224    0.0000 O   0  0  0  0  0  0  0  0  0  0  0  0
   -2.7223    2.3579    0.0000 O   0  0  0  0  0  0  0  0  0  0  0  0
    1.0483    0.3884    0.0000 C   0  0  0  0  0  0  0  0  0  0  0  0
   -0.3747    1.2236    0.0000 C   0  0  0  0  0  0  0  0  0  0  0  0
    3.1932   -0.8697    0.0000 C   0  0  0  0  0  0  0  0  0  0  0  0
   -3.9185    1.0380    0.0000 C   0  0  0  0  0  0  0  0  0  0  0  0
    1.7668   -0.0344    0.0000 O   0  0  0  0  0  0  0  0  0  0  0  0
    0.3506    1.6224    0.0000 C   0  0  0  0  0  0  0  0  0  0  0  0
    2.4680   -1.2787    0.0000 C   0  0  0  0  0  0  0  0  0  0  0  0
    1.7565   -0.8662    0.0000 C   0  0  0  0  0  0  0  0  0  0  0  0
    0.3368   -0.0309    0.0000 C   0  0  0  0  0  0  0  0  0  0  0  0
    3.8910   -1.2958    0.0000 C   0  0  0  0  0  0  0  0  0  0  0  0
    1.7839    1.6121    0.0000 I   0  0  0  0  0  0  0  0  0  0  0  0
   -0.3747    0.3884    0.0000 C   0  0  0  0  0  0  0  0  0  0  0  0
    3.1657   -2.5161    0.0000 C   0  0  0  0  0  0  0  0  0  0  0  0
    2.4542   -2.1036    0.0000 C   0  0  0  0  0  0  0  0  0  0  0  0
    3.1932   -0.0447    0.0000 C   0  0  0  0  0  0  0  0  0  0  0  0
    3.8910   -2.1174    0.0000 C   0  0  0  0  0  0  0  0  0  0  0  0
    4.6128   -0.8903    0.0000 C   0  0  0  0  0  0  0  0  0  0  0  0
    3.9150    0.3541    0.0000 C   0  0  0  0  0  0  0  0  0  0  0  0
    4.6265   -0.0619    0.0000 C   0  0  0  0  0  0  0  0  0  0  0  0
  2  1  1  0  0  0  0
  3  1  1  0  0  0  0
  4  3  1  0  0  0  0
  5  2  1  0  0  0  0
  5  4  1  0  0  0  0
  6  4  2  0  0  0  0
  7 15  1  0  0  0  0
  8  7  3  0  0  0  0
  9 17  1  0  0  0  0
  9 12  2  0  0  0  0
 10  2  2  0  0  0  0
 11  3  2  0  0  0  0
 12 20  1  0  0  0  0
 13  6  1  0  0  0  0
 14 18  1  0  0  0  0
 15  1  1  0  0  0  0
 16 12  1  0  0  0  0
 17 13  2  0  0  0  0
 18 19  1  0  0  0  0
 19 16  1  0  0  0  0
 20 23  2  0  0  0  0
 21 14  1  0  0  0  0
 21 27  1  0  0  0  0
 22  9  1  0  0  0  0
 23 13  1  0  0  0  0
 24 25  1  0  0  0  0
 25 18  2  0  0  0  0
 26 14  2  0  0  0  0
 27 24  2  0  0  0  0
 28 21  2  0  0  0  0
 28 30  1  0  0  0  0
 29 26  1  0  0  0  0
 30 29  2  0  0  0  0
M  END
> <CdId>
1781

> <Mol Weight>
525.358

> <Formula>
C24H16INO3S

> <Click_ID>
CLK024_A06 __ __ 

$$$$
