CLK049A11
 OpenBabel03181417552D

 20 21  0  0  0  0  0  0  0  0999 V2000
    0.2125   -1.6792    0.0000 C   0  0  0  0  0  0  0  0  0  0  0  0
    0.2125   -2.5042    0.0000 C   0  0  0  0  0  0  0  0  0  0  0  0
   -0.5042    2.0333    0.0000 C   0  0  0  0  0  0  0  0  0  0  0  0
   -0.5042   -1.2667    0.0000 N   0  0  0  0  0  0  0  0  0  0  0  0
    0.8792   -2.9875    0.0000 S   0  0  0  0  0  0  0  0  0  0  0  0
    0.9250    3.6833    0.0000 C   0  0  0  0  0  0  0  0  0  0  0  0
    1.6417    4.0917    0.0000 C   0  0  0  0  0  0  0  0  0  0  0  0
   -0.5042    1.2083    0.0000 C   0  0  0  0  0  0  0  0  0  0  0  0
   -0.4542   -2.9875    0.0000 C   0  0  0  0  0  0  0  0  0  0  0  0
    0.9250   -1.2667    0.0000 O   0  0  0  0  0  0  0  0  0  0  0  0
    0.6250   -3.7750    0.0000 C   0  0  0  0  0  0  0  0  0  0  0  0
   -1.2167    2.4458    0.0000 O   0  0  0  0  0  0  0  0  0  0  0  0
   -0.2000   -3.7750    0.0000 C   0  0  0  0  0  0  0  0  0  0  0  0
    0.2125    2.4458    0.0000 N   0  0  0  0  0  0  0  0  0  0  0  0
   -0.5042   -0.4417    0.0000 C   0  0  0  0  0  0  0  0  0  0  0  0
    0.2125    0.7958    0.0000 C   0  0  0  0  0  0  0  0  0  0  0  0
   -1.2167    0.7958    0.0000 C   0  0  0  0  0  0  0  0  0  0  0  0
    0.2125   -0.0292    0.0000 C   0  0  0  0  0  0  0  0  0  0  0  0
   -1.2167   -0.0292    0.0000 C   0  0  0  0  0  0  0  0  0  0  0  0
    0.2125    3.2708    0.0000 C   0  0  0  0  0  0  0  0  0  0  0  0
  2  1  1  0  0  0  0
  3  8  1  0  0  0  0
  4  1  1  0  0  0  0
  5  2  1  0  0  0  0
  6 20  1  0  0  0  0
  7  6  3  0  0  0  0
  8 17  2  0  0  0  0
  8 16  1  0  0  0  0
  9  2  2  0  0  0  0
 10  1  2  0  0  0  0
 11  5  1  0  0  0  0
 11 13  2  0  0  0  0
 12  3  2  0  0  0  0
 13  9  1  0  0  0  0
 14  3  1  0  0  0  0
 15  4  1  0  0  0  0
 16 18  2  0  0  0  0
 17 19  1  0  0  0  0
 18 15  1  0  0  0  0
 19 15  2  0  0  0  0
 20 14  1  0  0  0  0
M  END
> <CdId>
3801

> <Mol Weight>
284.333

> <Formula>
C15H12N2O2S

> <Click_ID>
CLK049A11 __ __ 

$$$$
