CLK012_B05
 OpenBabel03181417552D

 24 25  0  0  0  0  0  0  0  0999 V2000
    1.5761   -0.8216    0.0000 N    0  0  0  0  0  0  0  0  0  0  0  0
    1.8360   -1.6138    0.0000 C    0  0  0  0  0  0  0  0  0  0  0  0
    2.2509   -0.3312    0.0000 C    0  0  0  0  0  0  0  0  0  0  0  0
    2.9216   -0.8216    0.0000 C    0  0  0  0  0  0  0  0  0  0  0  0
    2.6659   -1.6138    0.0000 S    0  0  0  0  0  0  0  0  0  0  0  0
    3.7139   -0.5659    0.0000 C    0  0  0  0  0  0  0  0  0  0  0  0
    4.2169    1.8611    0.0000 C    0  0  0  0  0  0  0  0  0  0  0  0
    4.8288    1.3078    0.0000 C    0  0  0  0  0  0  0  0  0  0  0  0
    3.4372    1.6054    0.0000 C    0  0  0  0  0  0  0  0  0  0  0  0
    3.8773    0.2389    0.0000 C    0  0  0  0  0  0  0  0  0  0  0  0
    0.6162    0.2473    0.0000 C    0  0  0  0  0  0  0  0  0  0  0  0
    0.3941    1.0521    0.0000 C    0  0  0  0  0  0  0  0  0  0  0  0
    1.3455   -2.2803    0.0000 O    0  0  0  0  0  0  0  0  0  0  0  0
    4.6570    0.4988    0.0000 C    0  0  0  0  0  0  0  0  0  0  0  0
    2.2426    0.4988    0.0000 O    0  0  0  0  0  0  0  0  0  0  0  0
    3.2612    0.8006    0.0000 C    0  0  0  0  0  0  0  0  0  0  0  0
    0.7922   -0.5659    0.0000 C    0  0  0  0  0  0  0  0  0  0  0  0
    5.6127    1.5593    0.0000 Cl   0  0  0  0  0  0  0  0  0  0  0  0
    4.4013    2.6743    0.0000 O    0  0  0  0  0  0  0  0  0  0  0  0
    2.8294    2.1587    0.0000 O    0  0  0  0  0  0  0  0  0  0  0  0
    5.1809    2.9132    0.0000 C    0  0  0  0  0  0  0  0  0  0  0  0
    2.0497    1.9072    0.0000 C    0  0  0  0  0  0  0  0  0  0  0  0
    1.4378    2.4479    0.0000 C    0  0  0  0  0  0  0  0  0  0  0  0
    5.3612    3.7180    0.0000 C    0  0  0  0  0  0  0  0  0  0  0  0
  2  1  1  0  0  0  0
  3  1  1  0  0  0  0
  4  3  1  0  0  0  0
  4  5  1  0  0  0  0
  5  2  1  0  0  0  0
  6  4  2  0  0  0  0
  7  9  2  0  0  0  0
  7  8  1  0  0  0  0
  8 14  2  0  0  0  0
  9 16  1  0  0  0  0
 10  6  1  0  0  0  0
 11 17  1  0  0  0  0
 12 11  3  0  0  0  0
 13  2  2  0  0  0  0
 14 10  1  0  0  0  0
 15  3  2  0  0  0  0
 16 10  2  0  0  0  0
 17  1  1  0  0  0  0
 18  8  1  0  0  0  0
 19  7  1  0  0  0  0
 20  9  1  0  0  0  0
 21 19  1  0  0  0  0
 22 20  1  0  0  0  0
 23 22  1  0  0  0  0
 24 21  1  0  0  0  0
M  END
> <CdId>
850

> <Mol Weight>
365.831

> <Formula>
C17H16ClNO4S

> <Click_ID>
CLK012_B05 __ __ 

$$$$
