CLK008_A06
 OpenBabel03181417552D

 55 62  0  0  0  0  0  0  0  0999 V2000
   -4.4807    0.7232    0.0000 C   0  0  0  0  0  0  0  0  0  0  0  0
   -3.8994    1.2954    0.0000 C   0  0  0  0  0  0  0  0  0  0  0  0
   -5.1993    1.1269    0.0000 C   0  0  0  0  0  0  0  0  0  0  0  0
   -4.2988   -0.0710    0.0000 C   0  0  0  0  0  0  0  0  0  0  0  0
   -4.2499    2.0274    0.0000 C   0  0  0  0  0  0  0  0  0  0  0  0
   -3.1143    1.0602    0.0000 C   0  0  0  0  0  0  0  0  0  0  0  0
   -5.0042    1.9387    0.0000 N   0  0  0  0  0  0  0  0  0  0  0  0
   -5.9446    0.8029    0.0000 O   0  0  0  0  0  0  0  0  0  0  0  0
   -3.5135   -0.3061    0.0000 C   0  0  0  0  0  0  0  0  0  0  0  0
   -3.8817    2.7816    0.0000 O   0  0  0  0  0  0  0  0  0  0  0  0
   -2.9191    0.2662    0.0000 C   0  0  0  0  0  0  0  0  0  0  0  0
   -5.4922    2.6174    0.0000 C   0  0  0  0  0  0  0  0  0  0  0  0
   -3.3051   -1.1135    0.0000 O   0  0  0  0  0  0  0  0  0  0  0  0
   -5.1505    3.3538    0.0000 C   0  0  0  0  0  0  0  0  0  0  0  0
   -6.3083    2.5243    0.0000 C   0  0  0  0  0  0  0  0  0  0  0  0
   -2.4977   -1.3398    0.0000 C   0  0  0  0  0  0  0  0  0  0  0  0
   -5.6386    4.0326    0.0000 C   0  0  0  0  0  0  0  0  0  0  0  0
   -6.8053    3.2119    0.0000 C   0  0  0  0  0  0  0  0  0  0  0  0
   -2.3424   -2.1427    0.0000 C   0  0  0  0  0  0  0  0  0  0  0  0
   -1.8899   -0.7763    0.0000 C   0  0  0  0  0  0  0  0  0  0  0  0
   -6.4547    3.9395    0.0000 C   0  0  0  0  0  0  0  0  0  0  0  0
   -5.3146    4.7911    0.0000 C   0  0  0  0  0  0  0  0  0  0  0  0
   -1.5660   -2.4134    0.0000 C   0  0  0  0  0  0  0  0  0  0  0  0
   -1.1135   -1.0336    0.0000 C   0  0  0  0  0  0  0  0  0  0  0  0
   -4.9776    5.5764    0.0000 C   0  0  0  0  0  0  0  0  0  0  0  0
   -0.9538   -1.8499    0.0000 C   0  0  0  0  0  0  0  0  0  0  0  0
   -0.1685   -2.1072    0.0000 C   0  0  0  0  0  0  0  0  0  0  0  0
    0.6211   -2.3645    0.0000 C   0  0  0  0  0  0  0  0  0  0  0  0
    0.0888   -1.3175    0.0000 C   0  0  0  0  0  0  0  0  0  0  0  0
   -0.4258   -2.9014    0.0000 C   0  0  0  0  0  0  0  0  0  0  0  0
    0.7453   -3.1853    0.0000 C   0  0  0  0  0  0  0  0  0  0  0  0
    1.2644   -1.8233    0.0000 C   0  0  0  0  0  0  0  0  0  0  0  0
    1.5217   -3.4647    0.0000 C   0  0  0  0  0  0  0  0  0  0  0  0
    2.0363   -2.1294    0.0000 C   0  0  0  0  0  0  0  0  0  0  0  0
    2.1605   -2.9501    0.0000 C   0  0  0  0  0  0  0  0  0  0  0  0
    2.9369   -3.2651    0.0000 O   0  0  0  0  0  0  0  0  0  0  0  0
    3.5979   -2.7327    0.0000 C   0  0  0  0  0  0  0  0  0  0  0  0
    3.5135   -1.9120    0.0000 C   0  0  0  0  0  0  0  0  0  0  0  0
    4.3520   -3.0699    0.0000 C   0  0  0  0  0  0  0  0  0  0  0  0
    4.1923   -1.4195    0.0000 C   0  0  0  0  0  0  0  0  0  0  0  0
    5.0131   -2.5642    0.0000 C   0  0  0  0  0  0  0  0  0  0  0  0
    4.9287   -1.7435    0.0000 C   0  0  0  0  0  0  0  0  0  0  0  0
    4.2588   -0.6123    0.0000 C   0  0  0  0  0  0  0  0  0  0  0  0
    5.4610   -1.1401    0.0000 C   0  0  0  0  0  0  0  0  0  0  0  0
    5.0618   -0.4392    0.0000 N   0  0  0  0  0  0  0  0  0  0  0  0
    3.6466   -0.0710    0.0000 O   0  0  0  0  0  0  0  0  0  0  0  0
    6.2818   -1.2066    0.0000 O   0  0  0  0  0  0  0  0  0  0  0  0
    5.4922    0.2751    0.0000 C   0  0  0  0  0  0  0  0  0  0  0  0
    5.0928    0.9805    0.0000 C   0  0  0  0  0  0  0  0  0  0  0  0
    6.3172    0.2662    0.0000 C   0  0  0  0  0  0  0  0  0  0  0  0
    5.5099    1.6902    0.0000 C   0  0  0  0  0  0  0  0  0  0  0  0
    6.7120    0.9760    0.0000 C   0  0  0  0  0  0  0  0  0  0  0  0
    6.3438    1.6814    0.0000 C   0  0  0  0  0  0  0  0  0  0  0  0
    5.0928    2.3956    0.0000 C   0  0  0  0  0  0  0  0  0  0  0  0
    4.6759    3.1320    0.0000 C   0  0  0  0  0  0  0  0  0  0  0  0
  1  2  2  0  0  0  0
  1  3  1  0  0  0  0
  1  4  1  0  0  0  0
  2  5  1  0  0  0  0
  2  6  1  0  0  0  0
  3  7  1  0  0  0  0
  3  8  2  0  0  0  0
  4  9  2  0  0  0  0
  5 10  2  0  0  0  0
  5  7  1  0  0  0  0
  6 11  2  0  0  0  0
  7 12  1  0  0  0  0
  9 13  1  0  0  0  0
  9 11  1  0  0  0  0
 12 14  2  0  0  0  0
 12 15  1  0  0  0  0
 13 16  1  0  0  0  0
 14 17  1  0  0  0  0
 15 18  2  0  0  0  0
 16 19  2  0  0  0  0
 16 20  1  0  0  0  0
 17 21  2  0  0  0  0
 17 22  1  0  0  0  0
 18 21  1  0  0  0  0
 19 23  1  0  0  0  0
 20 24  2  0  0  0  0
 22 25  3  0  0  0  0
 23 26  2  0  0  0  0
 24 26  1  0  0  0  0
 26 27  1  0  0  0  0
 27 28  1  0  0  0  0
 27 29  1  0  0  0  0
 27 30  1  0  0  0  0
 28 31  1  0  0  0  0
 28 32  2  0  0  0  0
 31 33  2  0  0  0  0
 32 34  1  0  0  0  0
 33 35  1  0  0  0  0
 34 35  2  0  0  0  0
 35 36  1  0  0  0  0
 36 37  1  0  0  0  0
 37 38  2  0  0  0  0
 37 39  1  0  0  0  0
 38 40  1  0  0  0  0
 39 41  2  0  0  0  0
 40 42  2  0  0  0  0
 40 43  1  0  0  0  0
 41 42  1  0  0  0  0
 42 44  1  0  0  0  0
 43 45  1  0  0  0  0
 43 46  2  0  0  0  0
 44 47  2  0  0  0  0
 44 45  1  0  0  0  0
 45 48  1  0  0  0  0
 48 49  1  0  0  0  0
 48 50  2  0  0  0  0
 49 51  2  0  0  0  0
 50 52  1  0  0  0  0
 51 53  1  0  0  0  0
 51 54  1  0  0  0  0
 52 53  2  0  0  0  0
 54 55  3  0  0  0  0
M  END
> <CdId>
565

> <Mol Weight>
718.7509

> <Formula>
C47H30N2O6

> <Click_ID>
CLK008_A06 __ __ 

$$$$
