CLK045F09
 OpenBabel03181417552D

 22 23  0  0  0  0  0  0  0  0999 V2000
   -0.1958   -1.0125    0.0000 S    0  0  0  0  0  0  0  0  0  0  0  0
   -0.1958   -0.1875    0.0000 N    0  0  0  0  0  0  0  0  0  0  0  0
   -0.1958    2.2875    0.0000 C    0  0  0  0  0  0  0  0  0  0  0  0
   -0.1958    1.4625    0.0000 N    0  0  0  0  0  0  0  0  0  0  0  0
   -0.1958   -1.8375    0.0000 C    0  0  0  0  0  0  0  0  0  0  0  0
    0.6292   -1.0125    0.0000 O    0  0  0  0  0  0  0  0  0  0  0  0
   -1.0208   -1.0125    0.0000 O    0  0  0  0  0  0  0  0  0  0  0  0
   -0.9125    0.2250    0.0000 C    0  0  0  0  0  0  0  0  0  0  0  0
    0.5167    0.2250    0.0000 C    0  0  0  0  0  0  0  0  0  0  0  0
    1.2333    3.9375    0.0000 C    0  0  0  0  0  0  0  0  0  0  0  0
    1.9458    4.3458    0.0000 C    0  0  0  0  0  0  0  0  0  0  0  0
    0.5167    1.0500    0.0000 C    0  0  0  0  0  0  0  0  0  0  0  0
   -0.9125    1.0500    0.0000 C    0  0  0  0  0  0  0  0  0  0  0  0
   -0.9125    2.7042    0.0000 O    0  0  0  0  0  0  0  0  0  0  0  0
    0.5167    2.7042    0.0000 N    0  0  0  0  0  0  0  0  0  0  0  0
    0.5167   -2.2500    0.0000 C    0  0  0  0  0  0  0  0  0  0  0  0
   -0.9125   -2.2500    0.0000 C    0  0  0  0  0  0  0  0  0  0  0  0
   -0.1958   -3.4875    0.0000 C    0  0  0  0  0  0  0  0  0  0  0  0
    0.5167   -3.0750    0.0000 C    0  0  0  0  0  0  0  0  0  0  0  0
   -0.9125   -3.0750    0.0000 C    0  0  0  0  0  0  0  0  0  0  0  0
   -0.1958   -4.3125    0.0000 Cl   0  0  0  0  0  0  0  0  0  0  0  0
    0.5167    3.5250    0.0000 C    0  0  0  0  0  0  0  0  0  0  0  0
  2  1  1  0  0  0  0
  3  4  1  0  0  0  0
  4 13  1  0  0  0  0
  4 12  1  0  0  0  0
  5  1  1  0  0  0  0
  6  1  2  0  0  0  0
  7  1  2  0  0  0  0
  8  2  1  0  0  0  0
  9  2  1  0  0  0  0
 10 22  1  0  0  0  0
 11 10  3  0  0  0  0
 12  9  1  0  0  0  0
 13  8  1  0  0  0  0
 14  3  2  0  0  0  0
 15  3  1  0  0  0  0
 16  5  1  0  0  0  0
 17  5  2  0  0  0  0
 18 20  2  0  0  0  0
 19 16  2  0  0  0  0
 19 18  1  0  0  0  0
 20 17  1  0  0  0  0
 21 18  1  0  0  0  0
 22 15  1  0  0  0  0
M  END
> <CdId>
3470

> <Mol Weight>
341.813

> <Formula>
C14H16ClN3O3S

> <Click_ID>
CLK045F09 __ __ 

$$$$
