CLK034_H06
 OpenBabel03181417552D

 29 32  0  0  0  0  0  0  0  0999 V2000
   -4.5756    2.5457    0.0000 C   0  0  0  0  0  0  0  0  0  0  0  0
   -3.8643    2.9658    0.0000 N   0  0  0  0  0  0  0  0  0  0  0  0
   -4.6754    1.7304    0.0000 N   0  0  0  0  0  0  0  0  0  0  0  0
   -5.3118    2.8909    0.0000 S   0  0  0  0  0  0  0  0  0  0  0  0
   -3.1530    4.2054    0.0000 C   0  0  0  0  0  0  0  0  0  0  0  0
   -5.4782    1.5723    0.0000 C   0  0  0  0  0  0  0  0  0  0  0  0
   -3.8643    3.7936    0.0000 C   0  0  0  0  0  0  0  0  0  0  0  0
   -3.1405    5.0332    0.0000 C   0  0  0  0  0  0  0  0  0  0  0  0
   -5.8858    2.2919    0.0000 C   0  0  0  0  0  0  0  0  0  0  0  0
   -2.4417    3.8019    0.0000 O   0  0  0  0  0  0  0  0  0  0  0  0
   -2.4292    5.4408    0.0000 C   0  0  0  0  0  0  0  0  0  0  0  0
   -1.7096    5.0207    0.0000 C   0  0  0  0  0  0  0  0  0  0  0  0
   -1.7221    4.2054    0.0000 C   0  0  0  0  0  0  0  0  0  0  0  0
   -4.2428    0.3494    0.0000 C   0  0  0  0  0  0  0  0  0  0  0  0
   -4.4258   -0.4617    0.0000 C   0  0  0  0  0  0  0  0  0  0  0  0
   -5.9025    0.8693    0.0000 C   0  0  0  0  0  0  0  0  0  0  0  0
   -4.5880    4.1971    0.0000 O   0  0  0  0  0  0  0  0  0  0  0  0
   -2.4292    6.2686    0.0000 O   0  0  0  0  0  0  0  0  0  0  0  0
   -4.0556    1.1563    0.0000 C   0  0  0  0  0  0  0  0  0  0  0  0
   -6.6929    2.3086    0.0000 C   0  0  0  0  0  0  0  0  0  0  0  0
   -5.5115    0.1373    0.0000 O   0  0  0  0  0  0  0  0  0  0  0  0
   -0.9941    5.4325    0.0000 C   0  0  0  0  0  0  0  0  0  0  0  0
   -1.0066    3.7936    0.0000 C   0  0  0  0  0  0  0  0  0  0  0  0
   -7.1296    1.6056    0.0000 C   0  0  0  0  0  0  0  0  0  0  0  0
   -6.7178    0.8818    0.0000 C   0  0  0  0  0  0  0  0  0  0  0  0
   -5.9358   -0.5657    0.0000 C   0  0  0  0  0  0  0  0  0  0  0  0
   -0.2828    5.0207    0.0000 C   0  0  0  0  0  0  0  0  0  0  0  0
   -0.2870    4.1971    0.0000 C   0  0  0  0  0  0  0  0  0  0  0  0
   -5.5531   -1.2770    0.0000 C   0  0  0  0  0  0  0  0  0  0  0  0
  2  1  2  0  0  0  0
  3  1  1  0  0  0  0
  4  1  1  0  0  0  0
  5  7  1  0  0  0  0
  6  3  1  0  0  0  0
  7  2  1  0  0  0  0
  8  5  2  0  0  0  0
  9  4  1  0  0  0  0
  9  6  2  0  0  0  0
 10  5  1  0  0  0  0
 11  8  1  0  0  0  0
 12 13  2  0  0  0  0
 12 11  1  0  0  0  0
 13 10  1  0  0  0  0
 14 19  1  0  0  0  0
 15 14  3  0  0  0  0
 16  6  1  0  0  0  0
 17  7  2  0  0  0  0
 18 11  2  0  0  0  0
 19  3  1  0  0  0  0
 20  9  1  0  0  0  0
 21 16  1  0  0  0  0
 22 12  1  0  0  0  0
 23 13  1  0  0  0  0
 24 20  2  0  0  0  0
 25 16  2  0  0  0  0
 25 24  1  0  0  0  0
 26 21  1  0  0  0  0
 27 28  1  0  0  0  0
 27 22  2  0  0  0  0
 28 23  2  0  0  0  0
 29 26  1  0  0  0  0
M  END
> <CdId>
2640

> <Mol Weight>
404.438

> <Formula>
C22H16N2O4S

> <Click_ID>
CLK034_H06 __ __ 

$$$$
