CLK042C03
 OpenBabel03181417552D

 26 27  0  0  0  0  0  0  0  0999 V2000
    2.1417   -0.3167    0.0000 C    0  0  0  0  0  0  0  0  0  0  0  0
    2.1417    0.5083    0.0000 C    0  0  3  0  0  0  0  0  0  0  0  0
    2.8542    0.9208    0.0000 C    0  0  0  0  0  0  0  0  0  0  0  0
    3.5708    0.5083    0.0000 C    0  0  0  0  0  0  0  0  0  0  0  0
    2.8542   -0.7292    0.0000 O    0  0  0  0  0  0  0  0  0  0  0  0
   -2.1458   -0.3167    0.0000 C    0  0  0  0  0  0  0  0  0  0  0  0
    3.5708   -0.3167    0.0000 C    0  0  0  0  0  0  0  0  0  0  0  0
   -2.1458    0.5083    0.0000 C    0  0  0  0  0  0  0  0  0  0  0  0
   -1.4292   -0.7292    0.0000 C    0  0  0  0  0  0  0  0  0  0  0  0
    1.4250    0.9208    0.0000 C    0  0  0  0  0  0  0  0  0  0  0  0
    0.7125    0.5083    0.0000 C    0  0  0  0  0  0  0  0  0  0  0  0
   -4.2875   -0.7292    0.0000 C    0  0  0  0  0  0  0  0  0  0  0  0
   -5.0042   -1.1417    0.0000 C    0  0  0  0  0  0  0  0  0  0  0  0
    0.0000    0.9208    0.0000 C    0  0  0  0  0  0  0  0  0  0  0  0
    1.4250   -0.7292    0.0000 O    0  0  0  0  0  0  0  0  0  0  0  0
   -0.7167    0.5083    0.0000 C    0  0  0  0  0  0  0  0  0  0  0  0
    2.8542    1.7458    0.0000 O    0  0  0  0  0  0  0  0  0  0  0  0
   -1.4292    0.9208    0.0000 C    0  0  0  0  0  0  0  0  0  0  0  0
   -0.7167   -0.3167    0.0000 C    0  0  0  0  0  0  0  0  0  0  0  0
    1.4250    1.7458    0.0000 O    0  0  0  0  0  0  0  0  0  0  0  0
   -2.8583    0.9208    0.0000 Cl   0  0  0  0  0  0  0  0  0  0  0  0
   -2.8583   -0.7292    0.0000 O    0  0  0  0  0  0  0  0  0  0  0  0
   -1.4292   -1.5542    0.0000 O    0  0  0  0  0  0  0  0  0  0  0  0
   -3.5750   -0.3167    0.0000 C    0  0  0  0  0  0  0  0  0  0  0  0
    4.2833   -0.7292    0.0000 C    0  0  0  0  0  0  0  0  0  0  0  0
   -0.7167   -1.9667    0.0000 C    0  0  0  0  0  0  0  0  0  0  0  0
  2  1  1  0  0  0  0
  3  2  1  0  0  0  0
  3  4  1  0  0  0  0
  4  7  2  0  0  0  0
  5  1  1  0  0  0  0
  6  8  1  0  0  0  0
  6  9  2  0  0  0  0
  7  5  1  0  0  0  0
  8 18  2  0  0  0  0
  9 19  1  0  0  0  0
 10  2  1  0  0  0  0
 11 10  1  0  0  0  0
 12 24  1  0  0  0  0
 13 12  3  0  0  0  0
 14 11  2  0  0  0  0
 15  1  2  0  0  0  0
 16 14  1  0  0  0  0
 17  3  2  0  0  0  0
 18 16  1  0  0  0  0
 19 16  2  0  0  0  0
 20 10  2  0  0  0  0
 21  8  1  0  0  0  0
 22  6  1  0  0  0  0
 23  9  1  0  0  0  0
 24 22  1  0  0  0  0
 25  7  1  0  0  0  0
 26 23  1  0  0  0  0
M  END
> <CdId>
3179

> <Mol Weight>
374.772

> <Formula>
C19H15ClO6

> <Click_ID>
CLK042C03 __ __ 

$$$$
