CLK010_C03
 OpenBabel03181417552D

 26 28  0  0  0  0  0  0  0  0999 V2000
    0.1907   -0.8912    0.0000 C   0  0  0  0  0  0  0  0  0  0  0  0
    0.1907   -1.7162    0.0000 C   0  0  0  0  0  0  0  0  0  0  0  0
   -0.5137   -2.1171    0.0000 N   0  0  0  0  0  0  0  0  0  0  0  0
   -0.5137   -0.4709    0.0000 C   0  0  0  0  0  0  0  0  0  0  0  0
   -1.2259   -1.7162    0.0000 C   0  0  0  0  0  0  0  0  0  0  0  0
   -1.2259   -0.8912    0.0000 C   0  0  0  0  0  0  0  0  0  0  0  0
    0.9029   -0.4709    0.0000 C   0  0  0  0  0  0  0  0  0  0  0  0
    1.6151   -0.0623    0.0000 N   0  0  0  0  0  0  0  0  0  0  0  0
    2.3233   -2.1288    0.0000 C   0  0  0  0  0  0  0  0  0  0  0  0
    3.0355   -2.5257    0.0000 C   0  0  0  0  0  0  0  0  0  0  0  0
   -0.5137    0.3269    0.0000 C   0  0  0  0  0  0  0  0  0  0  0  0
   -1.9147   -2.1171    0.0000 C   0  0  0  0  0  0  0  0  0  0  0  0
    0.9029   -2.1288    0.0000 S   0  0  0  0  0  0  0  0  0  0  0  0
    0.2024    0.7472    0.0000 C   0  0  0  0  0  0  0  0  0  0  0  0
   -1.2259    0.7472    0.0000 C   0  0  0  0  0  0  0  0  0  0  0  0
   -0.5137    1.9925    0.0000 C   0  0  0  0  0  0  0  0  0  0  0  0
   -1.2259    1.5722    0.0000 C   0  0  0  0  0  0  0  0  0  0  0  0
    0.2024    1.5722    0.0000 C   0  0  0  0  0  0  0  0  0  0  0  0
    1.6034   -1.7279    0.0000 C   0  0  0  0  0  0  0  0  0  0  0  0
   -0.5137    2.7981    0.0000 O   0  0  0  0  0  0  0  0  0  0  0  0
   -1.9147   -2.9421    0.0000 C   0  0  0  0  0  0  0  0  0  0  0  0
   -2.6346   -1.7162    0.0000 C   0  0  0  0  0  0  0  0  0  0  0  0
   -1.2142    3.1950    0.0000 C   0  0  0  0  0  0  0  0  0  0  0  0
   -2.6346   -3.3313    0.0000 C   0  0  0  0  0  0  0  0  0  0  0  0
   -3.3351   -2.1171    0.0000 C   0  0  0  0  0  0  0  0  0  0  0  0
   -3.3351   -2.9421    0.0000 C   0  0  0  0  0  0  0  0  0  0  0  0
  2  1  2  0  0  0  0
  3  2  1  0  0  0  0
  3  5  2  0  0  0  0
  4  1  1  0  0  0  0
  5  6  1  0  0  0  0
  6  4  2  0  0  0  0
  7  1  1  0  0  0  0
  8  7  3  0  0  0  0
  9 19  1  0  0  0  0
 10  9  3  0  0  0  0
 11  4  1  0  0  0  0
 12  5  1  0  0  0  0
 13  2  1  0  0  0  0
 14 11  1  0  0  0  0
 15 11  2  0  0  0  0
 16 17  2  0  0  0  0
 16 18  1  0  0  0  0
 17 15  1  0  0  0  0
 18 14  2  0  0  0  0
 19 13  1  0  0  0  0
 20 16  1  0  0  0  0
 21 12  2  0  0  0  0
 22 12  1  0  0  0  0
 23 20  1  0  0  0  0
 24 21  1  0  0  0  0
 25 22  2  0  0  0  0
 26 25  1  0  0  0  0
 26 24  2  0  0  0  0
M  END
> <CdId>
698

> <Mol Weight>
356.44

> <Formula>
C22H16N2OS

> <Click_ID>
CLK010_C03 __ __ 

$$$$
