CLK015_F10
 OpenBabel03181417552D

 30 33  0  0  0  0  0  0  0  0999 V2000
    2.0217   -1.0775    0.0000 N   0  0  0  0  0  0  0  0  0  0  0  0
    2.2713   -1.8637    0.0000 C   0  0  0  0  0  0  0  0  0  0  0  0
    2.6832   -0.5907    0.0000 C   0  0  0  0  0  0  0  0  0  0  0  0
    3.3488   -1.0775    0.0000 C   0  0  0  0  0  0  0  0  0  0  0  0
    4.3098   -0.0167    0.0000 C   0  0  0  0  0  0  0  0  0  0  0  0
    3.0950   -1.8637    0.0000 S   0  0  0  0  0  0  0  0  0  0  0  0
    4.1808    1.3187    0.0000 N   0  0  0  0  0  0  0  0  0  0  0  0
   -1.5558   -1.4019    0.0000 N   0  3  0  0  0  0  0  0  0  0  0  0
    4.1350   -0.8237    0.0000 C   0  0  0  0  0  0  0  0  0  0  0  0
    3.7606    0.5990    0.0000 C   0  0  0  0  0  0  0  0  0  0  0  0
    5.0710    0.3203    0.0000 C   0  0  0  0  0  0  0  0  0  0  0  0
    4.9837    1.1357    0.0000 C   0  0  0  0  0  0  0  0  0  0  0  0
    1.2397   -0.8237    0.0000 C   0  0  0  0  0  0  0  0  0  0  0  0
   -0.7696   -1.6640    0.0000 C   0  0  0  0  0  0  0  0  0  0  0  0
    4.3347    2.7331    0.0000 C   0  0  0  0  0  0  0  0  0  0  0  0
    4.8714    3.3654    0.0000 C   0  0  0  0  0  0  0  0  0  0  0  0
   -1.7222   -0.5990    0.0000 O   0  5  0  0  0  0  0  0  0  0  0  0
    1.7888   -2.5251    0.0000 O   0  0  0  0  0  0  0  0  0  0  0  0
   -2.1673   -1.9511    0.0000 O   0  0  0  0  0  0  0  0  0  0  0  0
    2.6832    0.2329    0.0000 O   0  0  0  0  0  0  0  0  0  0  0  0
   -0.1580   -1.1149    0.0000 C   0  0  0  0  0  0  0  0  0  0  0  0
    0.6240   -1.3770    0.0000 C   0  0  0  0  0  0  0  0  0  0  0  0
    3.8480    2.0800    0.0000 C   0  0  0  0  0  0  0  0  0  0  0  0
    5.6576    1.6182    0.0000 C   0  0  0  0  0  0  0  0  0  0  0  0
    5.8198   -0.0292    0.0000 C   0  0  0  0  0  0  0  0  0  0  0  0
   -0.6073   -2.4627    0.0000 C   0  0  0  0  0  0  0  0  0  0  0  0
    0.1789   -2.7248    0.0000 C   0  0  0  0  0  0  0  0  0  0  0  0
    0.7987   -2.1757    0.0000 C   0  0  0  0  0  0  0  0  0  0  0  0
    6.4813    0.4576    0.0000 C   0  0  0  0  0  0  0  0  0  0  0  0
    6.4064    1.2812    0.0000 C   0  0  0  0  0  0  0  0  0  0  0  0
  2  1  1  0  0  0  0
  3  1  1  0  0  0  0
  4  3  1  0  0  0  0
  4  6  1  0  0  0  0
  5  9  1  0  0  0  0
  6  2  1  0  0  0  0
  7 10  1  0  0  0  0
  7 12  1  0  0  0  0
  8 14  1  0  0  0  0
  9  4  2  0  0  0  0
 10  5  2  0  0  0  0
 11  5  1  0  0  0  0
 12 11  1  0  0  0  0
 13  1  1  0  0  0  0
 14 21  1  0  0  0  0
 15 23  1  0  0  0  0
 16 15  3  0  0  0  0
 17  8  1  0  0  0  0
 18  2  2  0  0  0  0
 19  8  2  0  0  0  0
 20  3  2  0  0  0  0
 21 22  2  0  0  0  0
 22 13  1  0  0  0  0
 23  7  1  0  0  0  0
 24 12  2  0  0  0  0
 24 30  1  0  0  0  0
 25 11  2  0  0  0  0
 26 27  1  0  0  0  0
 26 14  2  0  0  0  0
 27 28  2  0  0  0  0
 28 22  1  0  0  0  0
 29 25  1  0  0  0  0
 30 29  2  0  0  0  0
M  END
> <CdId>
1135

> <Mol Weight>
417.437

> <Formula>
C22H15N3O4S

> <Click_ID>
CLK015_F10 __ __ 

$$$$
