CLK029_E09
 OpenBabel03181417552D

 24 26  0  0  0  0  0  0  0  0999 V2000
   -1.1625    2.3833    0.0000 C   0  0  0  0  0  0  0  0  0  0  0  0
   -0.3375    2.3750    0.0000 N   0  0  0  0  0  0  0  0  0  0  0  0
   -1.6458    1.7208    0.0000 N   0  0  0  0  0  0  0  0  0  0  0  0
   -1.6458    3.0500    0.0000 S   0  0  0  0  0  0  0  0  0  0  0  0
    0.0750    3.0875    0.0000 C   0  0  0  0  0  0  0  0  0  0  0  0
   -2.4333    1.9708    0.0000 C   0  0  0  0  0  0  0  0  0  0  0  0
   -2.4333    2.7958    0.0000 C   0  0  0  0  0  0  0  0  0  0  0  0
    4.2167    3.0583    0.0000 N   0  0  0  0  0  0  0  0  0  0  0  0
   -1.9458    0.3208    0.0000 C   0  0  0  0  0  0  0  0  0  0  0  0
   -2.4958   -0.2917    0.0000 C   0  0  0  0  0  0  0  0  0  0  0  0
    3.3875    3.0625    0.0000 C   0  0  0  0  0  0  0  0  0  0  0  0
    0.9000    3.0875    0.0000 C   0  0  0  0  0  0  0  0  0  0  0  0
   -0.3375    3.8000    0.0000 O   0  0  0  0  0  0  0  0  0  0  0  0
   -1.3958    0.9333    0.0000 C   0  0  0  0  0  0  0  0  0  0  0  0
    1.3250    3.8000    0.0000 C   0  0  0  0  0  0  0  0  0  0  0  0
    1.3250    2.3708    0.0000 C   0  0  0  0  0  0  0  0  0  0  0  0
    2.5542    3.0708    0.0000 C   0  0  0  0  0  0  0  0  0  0  0  0
    2.1292    2.3625    0.0000 C   0  0  0  0  0  0  0  0  0  0  0  0
    2.1500    3.7958    0.0000 C   0  0  0  0  0  0  0  0  0  0  0  0
   -3.1458    1.5583    0.0000 C   0  0  0  0  0  0  0  0  0  0  0  0
   -3.1458    3.2083    0.0000 C   0  0  0  0  0  0  0  0  0  0  0  0
   -3.8583    1.9708    0.0000 C   0  0  0  0  0  0  0  0  0  0  0  0
   -3.8583    2.7958    0.0000 C   0  0  0  0  0  0  0  0  0  0  0  0
   -4.5833    3.2125    0.0000 H   0  0  0  0  0  0  0  0  0  0  0  0
  2  1  2  0  0  0  0
  3  1  1  0  0  0  0
  4  1  1  0  0  0  0
  5  2  1  0  0  0  0
  6  3  1  0  0  0  0
  7  4  1  0  0  0  0
  7  6  2  0  0  0  0
  8 11  3  0  0  0  0
  9 14  1  0  0  0  0
 10  9  3  0  0  0  0
 11 17  1  0  0  0  0
 12  5  1  0  0  0  0
 13  5  2  0  0  0  0
 14  3  1  0  0  0  0
 15 12  1  0  0  0  0
 16 12  2  0  0  0  0
 17 18  2  0  0  0  0
 17 19  1  0  0  0  0
 18 16  1  0  0  0  0
 19 15  2  0  0  0  0
 20  6  1  0  0  0  0
 21  7  1  0  0  0  0
 22 20  2  0  0  0  0
 23 21  2  0  0  0  0
 23 22  1  0  0  0  0
 24 23  1  0  0  0  0
M  END
> <CdId>
2213

> <Mol Weight>
317.364

> <Formula>
C18H11N3OS

> <Click_ID>
CLK029_E09 __ __ 

$$$$
