CLK026_F11
 OpenBabel03181417552D

 13 14  0  0  0  0  0  0  0  0999 V2000
    0.6383   -0.0937    0.0000 C   0  0  3  0  0  0  0  0  0  0  0  0
   -0.1665    0.3677    0.0000 C   0  0  3  0  0  0  0  0  0  0  0  0
   -1.3493   -0.3885    0.0000 C   0  0  0  0  0  0  0  0  0  0  0  0
   -0.3781    0.0000    0.0000 C   0  0  3  0  0  0  0  0  0  0  0  0
   -1.1066    0.0000    0.0000 C   0  0  3  0  0  0  0  0  0  0  0  0
   -0.2983    1.1447    0.0000 C   0  0  0  0  0  0  0  0  0  0  0  0
    1.4465   -0.5515    0.0000 C   0  0  0  0  0  0  0  0  0  0  0  0
    0.4336   -0.4371    0.0000 C   0  0  0  0  0  0  0  0  0  0  0  0
    2.0917   -0.9366    0.0000 C   0  0  0  0  0  0  0  0  0  0  0  0
    1.4846    0.2012    0.0000 O   0  0  0  0  0  0  0  0  0  0  0  0
   -1.3493   -1.1412    0.0000 C   0  0  0  0  0  0  0  0  0  0  0  0
   -2.0952   -0.6521    0.0000 C   0  0  0  0  0  0  0  0  0  0  0  0
   -1.8940   -0.2463    0.0000 C   0  0  0  0  0  0  0  0  0  0  0  0
  2  1  1  0  0  0  0
  3  4  1  0  0  0  0
  3  5  1  0  0  0  0
  4  8  1  0  0  0  0
  4  6  1  0  0  0  0
  5  2  1  0  0  0  0
  6  2  1  0  0  0  0
  7  1  1  0  0  0  0
  8  1  1  0  0  0  0
  9  7  3  0  0  0  0
 10  1  1  0  0  0  0
 11  3  1  0  0  0  0
 12  3  1  0  0  0  0
 13  5  1  0  0  0  0
M  END
> <CdId>
1996

> <Mol Weight>
178.2707

> <Formula>
C12H18O

> <Click_ID>
CLK026_F11 __ __ 

$$$$
