CLK011_A02
 OpenBabel03181417552D

 24 26  0  0  0  0  0  0  0  0999 V2000
    2.8414   -1.9067    0.0000 C   0  0  0  0  0  0  0  0  0  0  0  0
    2.8414   -0.2534    0.0000 C   0  0  0  0  0  0  0  0  0  0  0  0
    3.5559   -0.6730    0.0000 N   0  0  0  0  0  0  0  0  0  0  0  0
    2.1352   -0.6730    0.0000 N   0  0  0  0  0  0  0  0  0  0  0  0
    2.1352   -1.4996    0.0000 C   0  0  0  0  0  0  0  0  0  0  0  0
    3.5559   -1.4996    0.0000 C   0  0  0  0  0  0  0  0  0  0  0  0
    3.5559   -3.1446    0.0000 C   0  0  0  0  0  0  0  0  0  0  0  0
    2.8414   -2.7334    0.0000 C   0  0  0  0  0  0  0  0  0  0  0  0
    4.8644   -3.4188    0.0000 N   0  0  0  0  0  0  0  0  0  0  0  0
    4.3161   -2.8082    0.0000 C   0  0  0  0  0  0  0  0  0  0  0  0
    3.6431   -3.9629    0.0000 C   0  0  0  0  0  0  0  0  0  0  0  0
    4.4531   -4.1374    0.0000 C   0  0  0  0  0  0  0  0  0  0  0  0
    2.8414    0.5733    0.0000 S   0  0  0  0  0  0  0  0  0  0  0  0
    6.1729   -4.0045    0.0000 C   0  0  0  0  0  0  0  0  0  0  0  0
    6.6174   -4.7024    0.0000 C   0  0  0  0  0  0  0  0  0  0  0  0
    1.4124   -1.9109    0.0000 O   0  0  0  0  0  0  0  0  0  0  0  0
    4.2745   -1.9109    0.0000 O   0  0  0  0  0  0  0  0  0  0  0  0
    5.6869   -3.3398    0.0000 C   0  0  0  0  0  0  0  0  0  0  0  0
    4.2662   -0.2617    0.0000 C   0  0  0  0  0  0  0  0  0  0  0  0
    1.4207   -0.2617    0.0000 C   0  0  0  0  0  0  0  0  0  0  0  0
    4.7024   -4.9225    0.0000 C   0  0  0  0  0  0  0  0  0  0  0  0
    3.0906   -4.5778    0.0000 C   0  0  0  0  0  0  0  0  0  0  0  0
    4.1541   -5.5332    0.0000 C   0  0  0  0  0  0  0  0  0  0  0  0
    3.3440   -5.3629    0.0000 C   0  0  0  0  0  0  0  0  0  0  0  0
  2  3  1  0  0  0  0
  3  6  1  0  0  0  0
  4  5  1  0  0  0  0
  4  2  1  0  0  0  0
  5  1  1  0  0  0  0
  6  1  1  0  0  0  0
  7  8  1  0  0  0  0
  8  1  2  0  0  0  0
  9 10  1  0  0  0  0
 10  7  2  0  0  0  0
 11  7  1  0  0  0  0
 12 11  1  0  0  0  0
 12  9  1  0  0  0  0
 13  2  2  0  0  0  0
 14 18  1  0  0  0  0
 15 14  3  0  0  0  0
 16  5  2  0  0  0  0
 17  6  2  0  0  0  0
 18  9  1  0  0  0  0
 19  3  1  0  0  0  0
 20  4  1  0  0  0  0
 21 12  2  0  0  0  0
 22 11  2  0  0  0  0
 23 24  2  0  0  0  0
 23 21  1  0  0  0  0
 24 22  1  0  0  0  0
M  END
> <CdId>
757

> <Mol Weight>
337.396

> <Formula>
C18H15N3O2S

> <Click_ID>
CLK011_A02 __ __ 

$$$$
