CLK002_H04
 OpenBabel03181417552D

 21 21  0  0  0  0  0  0  0  0999 V2000
   -1.8533    0.1455    0.0000 C    0  0  0  0  0  0  0  0  0  0  0  0
   -2.5566    0.5473    0.0000 C    0  0  0  0  0  0  0  0  0  0  0  0
   -1.8533   -0.6963    0.0000 C    0  0  0  0  0  0  0  0  0  0  0  0
   -1.1154    0.5716    0.0000 N    0  0  0  0  0  0  0  0  0  0  0  0
   -3.2598    0.1455    0.0000 C    0  0  0  0  0  0  0  0  0  0  0  0
   -2.5566    1.3753    0.0000 Cl   0  0  0  0  0  0  0  0  0  0  0  0
   -2.5566   -1.0982    0.0000 C    0  0  0  0  0  0  0  0  0  0  0  0
   -1.1501   -1.1362    0.0000 Cl   0  0  0  0  0  0  0  0  0  0  0  0
   -0.4122    0.1455    0.0000 C    0  0  0  0  0  0  0  0  0  0  0  0
   -3.2598   -0.6963    0.0000 C    0  0  0  0  0  0  0  0  0  0  0  0
    0.3083    0.5473    0.0000 C    0  0  0  0  0  0  0  0  0  0  0  0
   -0.4122   -0.6963    0.0000 O    0  0  0  0  0  0  0  0  0  0  0  0
   -3.9630   -1.1362    0.0000 Cl   0  0  0  0  0  0  0  0  0  0  0  0
    1.0116    0.1247    0.0000 C    0  0  0  0  0  0  0  0  0  0  0  0
    1.7425    0.5265    0.0000 C    0  0  0  0  0  0  0  0  0  0  0  0
    2.4665    0.1074    0.0000 C    0  0  0  0  0  0  0  0  0  0  0  0
    3.1698    0.5092    0.0000 O    0  0  0  0  0  0  0  0  0  0  0  0
    2.4665   -0.7482    0.0000 O    0  0  0  0  0  0  0  0  0  0  0  0
    3.8869    0.0866    0.0000 C    0  0  0  0  0  0  0  0  0  0  0  0
    4.5901    0.4884    0.0000 C    0  0  0  0  0  0  0  0  0  0  0  0
    5.3142    0.8903    0.0000 C    0  0  0  0  0  0  0  0  0  0  0  0
  1  2  1  0  0  0  0
  1  3  2  0  0  0  0
  1  4  1  0  0  0  0
  2  5  2  0  0  0  0
  2  6  1  0  0  0  0
  3  7  1  0  0  0  0
  3  8  1  0  0  0  0
  4  9  1  0  0  0  0
  5 10  1  0  0  0  0
  7 10  2  0  0  0  0
  9 11  1  0  0  0  0
  9 12  2  0  0  0  0
 10 13  1  0  0  0  0
 11 14  1  0  0  0  0
 14 15  1  0  0  0  0
 15 16  1  0  0  0  0
 16 17  1  0  0  0  0
 16 18  2  0  0  0  0
 17 19  1  0  0  0  0
 19 20  1  0  0  0  0
 20 21  3  0  0  0  0
M  END
> <CdId>
153

> <Mol Weight>
348.609

> <Formula>
C14H12Cl3NO3

> <Click_ID>
CLK002_H04 __ __ 

$$$$
