CLK033_A07
 OpenBabel03181417552D

 23 25  0  0  0  0  0  0  0  0999 V2000
   -4.5956    2.5568    0.0000 C   0  0  0  0  0  0  0  0  0  0  0  0
   -3.8812    2.9787    0.0000 N   0  0  0  0  0  0  0  0  0  0  0  0
   -4.6958    1.7379    0.0000 N   0  0  0  0  0  0  0  0  0  0  0  0
   -5.3350    2.9035    0.0000 S   0  0  0  0  0  0  0  0  0  0  0  0
   -5.5022    1.5792    0.0000 C   0  0  0  0  0  0  0  0  0  0  0  0
   -3.8812    3.8102    0.0000 C   0  0  0  0  0  0  0  0  0  0  0  0
   -5.9116    2.3019    0.0000 C   0  0  0  0  0  0  0  0  0  0  0  0
   -3.1667    4.2238    0.0000 C   0  0  0  0  0  0  0  0  0  0  0  0
   -4.2614    0.3509    0.0000 C   0  0  0  0  0  0  0  0  0  0  0  0
   -2.3939    3.8937    0.0000 S   0  0  0  0  0  0  0  0  0  0  0  0
   -4.4452   -0.4637    0.0000 C   0  0  0  0  0  0  0  0  0  0  0  0
   -5.9283    0.8731    0.0000 C   0  0  0  0  0  0  0  0  0  0  0  0
   -4.6081    4.2154    0.0000 O   0  0  0  0  0  0  0  0  0  0  0  0
   -3.0665    5.0427    0.0000 C   0  0  0  0  0  0  0  0  0  0  0  0
   -1.8507    4.5037    0.0000 C   0  0  0  0  0  0  0  0  0  0  0  0
   -4.0734    1.1614    0.0000 C   0  0  0  0  0  0  0  0  0  0  0  0
   -2.2643    5.2139    0.0000 C   0  0  0  0  0  0  0  0  0  0  0  0
   -6.7221    2.3187    0.0000 C   0  0  0  0  0  0  0  0  0  0  0  0
   -5.5356    0.1379    0.0000 O   0  0  0  0  0  0  0  0  0  0  0  0
   -7.1608    1.6126    0.0000 C   0  0  0  0  0  0  0  0  0  0  0  0
   -6.7472    0.8857    0.0000 C   0  0  0  0  0  0  0  0  0  0  0  0
   -5.9617   -0.5682    0.0000 C   0  0  0  0  0  0  0  0  0  0  0  0
   -5.5774   -1.2826    0.0000 C   0  0  0  0  0  0  0  0  0  0  0  0
  2  1  2  0  0  0  0
  3  1  1  0  0  0  0
  4  1  1  0  0  0  0
  5  3  1  0  0  0  0
  6  2  1  0  0  0  0
  7  4  1  0  0  0  0
  7  5  2  0  0  0  0
  8  6  1  0  0  0  0
  9 16  1  0  0  0  0
 10  8  1  0  0  0  0
 11  9  3  0  0  0  0
 12  5  1  0  0  0  0
 13  6  2  0  0  0  0
 14  8  2  0  0  0  0
 15 10  1  0  0  0  0
 15 17  2  0  0  0  0
 16  3  1  0  0  0  0
 17 14  1  0  0  0  0
 18  7  1  0  0  0  0
 19 12  1  0  0  0  0
 20 18  2  0  0  0  0
 21 12  2  0  0  0  0
 21 20  1  0  0  0  0
 22 19  1  0  0  0  0
 23 22  1  0  0  0  0
M  END
> <CdId>
2491

> <Mol Weight>
342.435

> <Formula>
C17H14N2O2S2

> <Click_ID>
CLK033_A07 __ __ 

$$$$
