CLK031_H04
 OpenBabel03181417552D

 30 33  0  0  0  0  0  0  0  0999 V2000
   -1.1625    2.3833    0.0000 C   0  0  0  0  0  0  0  0  0  0  0  0
    0.9000    3.0875    0.0000 C   0  0  0  0  0  0  0  0  0  0  0  0
   -0.3375    2.3750    0.0000 N   0  0  0  0  0  0  0  0  0  0  0  0
   -4.5833    3.2125    0.0000 S   0  0  0  0  0  0  0  0  0  0  0  0
   -1.6458    1.7208    0.0000 N   0  0  0  0  0  0  0  0  0  0  0  0
    0.0750    3.0875    0.0000 C   0  0  0  0  0  0  0  0  0  0  0  0
    1.3125    2.3750    0.0000 C   0  0  0  0  0  0  0  0  0  0  0  0
   -1.6458    3.0500    0.0000 S   0  0  0  0  0  0  0  0  0  0  0  0
    1.3167    3.8083    0.0000 C   0  0  0  0  0  0  0  0  0  0  0  0
   -2.4333    2.7958    0.0000 C   0  0  0  0  0  0  0  0  0  0  0  0
   -2.4333    1.9708    0.0000 C   0  0  0  0  0  0  0  0  0  0  0  0
    2.1292    2.3750    0.0000 O   0  0  0  0  0  0  0  0  0  0  0  0
   -3.8583    2.7958    0.0000 C   0  0  0  0  0  0  0  0  0  0  0  0
   -3.1458    3.2083    0.0000 C   0  0  0  0  0  0  0  0  0  0  0  0
    2.1417    3.8083    0.0000 C   0  0  0  0  0  0  0  0  0  0  0  0
    2.5500    3.0958    0.0000 C   0  0  0  0  0  0  0  0  0  0  0  0
   -1.9458    0.3208    0.0000 C   0  0  0  0  0  0  0  0  0  0  0  0
   -3.1458    1.5583    0.0000 C   0  0  0  0  0  0  0  0  0  0  0  0
   -2.4958   -0.2917    0.0000 C   0  0  0  0  0  0  0  0  0  0  0  0
   -4.1458    3.9083    0.0000 O   0  0  0  0  0  0  0  0  0  0  0  0
   -5.0208    2.5083    0.0000 O   0  0  0  0  0  0  0  0  0  0  0  0
    0.8917    1.6458    0.0000 O   0  0  0  0  0  0  0  0  0  0  0  0
   -0.3375    3.8000    0.0000 O   0  0  0  0  0  0  0  0  0  0  0  0
   -5.2833    3.6458    0.0000 N   0  0  0  0  0  0  0  0  0  0  0  0
   -3.8583    1.9708    0.0000 C   0  0  0  0  0  0  0  0  0  0  0  0
   -1.3958    0.9333    0.0000 C   0  0  0  0  0  0  0  0  0  0  0  0
    2.5542    4.5250    0.0000 C   0  0  0  0  0  0  0  0  0  0  0  0
    3.3750    3.0958    0.0000 C   0  0  0  0  0  0  0  0  0  0  0  0
    3.3792    4.5292    0.0000 C   0  0  0  0  0  0  0  0  0  0  0  0
    3.7875    3.8083    0.0000 C   0  0  0  0  0  0  0  0  0  0  0  0
  2  6  1  0  0  0  0
  3  1  2  0  0  0  0
  4 13  1  0  0  0  0
  5  1  1  0  0  0  0
  6  3  1  0  0  0  0
  7  2  1  0  0  0  0
  8  1  1  0  0  0  0
  9  2  2  0  0  0  0
 10  8  1  0  0  0  0
 10 11  2  0  0  0  0
 11  5  1  0  0  0  0
 12  7  1  0  0  0  0
 12 16  1  0  0  0  0
 13 14  2  0  0  0  0
 13 25  1  0  0  0  0
 14 10  1  0  0  0  0
 15  9  1  0  0  0  0
 16 15  2  0  0  0  0
 17 26  1  0  0  0  0
 18 11  1  0  0  0  0
 19 17  3  0  0  0  0
 20  4  2  0  0  0  0
 21  4  2  0  0  0  0
 22  7  2  0  0  0  0
 23  6  2  0  0  0  0
 24  4  1  0  0  0  0
 25 18  2  0  0  0  0
 26  5  1  0  0  0  0
 27 15  1  0  0  0  0
 28 16  1  0  0  0  0
 28 30  2  0  0  0  0
 29 27  2  0  0  0  0
 30 29  1  0  0  0  0
M  END
> <CdId>
2398

> <Mol Weight>
439.464

> <Formula>
C20H13N3O5S2

> <Click_ID>
CLK031_H04 __ __ 

$$$$
