CLK042G04
 OpenBabel03181417552D

 24 26  0  0  0  0  0  0  0  0999 V2000
   -0.9667   -0.1875    0.0000 C   0  0  0  0  0  0  0  0  0  0  0  0
   -1.4500    0.4792    0.0000 N   0  0  0  0  0  0  0  0  0  0  0  0
   -1.4500   -0.8542    0.0000 N   0  0  0  0  0  0  0  0  0  0  0  0
   -2.2375   -0.6000    0.0000 C   0  0  0  0  0  0  0  0  0  0  0  0
   -2.2375    0.2250    0.0000 C   0  0  0  0  0  0  0  0  0  0  0  0
   -1.7500   -2.2500    0.0000 C   0  0  0  0  0  0  0  0  0  0  0  0
   -2.3000   -2.8625    0.0000 C   0  0  0  0  0  0  0  0  0  0  0  0
   -0.1417   -0.1875    0.0000 S   0  0  0  0  0  0  0  0  0  0  0  0
   -1.1958   -1.6375    0.0000 C   0  0  0  0  0  0  0  0  0  0  0  0
    2.7458    0.5292    0.0000 C   0  0  0  0  0  0  0  0  0  0  0  0
    2.3333    1.2417    0.0000 C   0  0  0  0  0  0  0  0  0  0  0  0
    2.3333   -0.1875    0.0000 O   0  0  0  0  0  0  0  0  0  0  0  0
    1.5083    1.2417    0.0000 O   0  0  0  0  0  0  0  0  0  0  0  0
   -2.9500   -1.0125    0.0000 C   0  0  0  0  0  0  0  0  0  0  0  0
   -2.9500    0.6375    0.0000 C   0  0  0  0  0  0  0  0  0  0  0  0
    0.2708    0.5292    0.0000 C   0  0  0  0  0  0  0  0  0  0  0  0
    3.5708    0.5292    0.0000 C   0  0  0  0  0  0  0  0  0  0  0  0
    2.7458    1.9583    0.0000 C   0  0  0  0  0  0  0  0  0  0  0  0
    1.0958    0.5292    0.0000 C   0  0  0  0  0  0  0  0  0  0  0  0
    2.7458   -0.9000    0.0000 C   0  0  0  0  0  0  0  0  0  0  0  0
   -3.6667   -0.6000    0.0000 C   0  0  0  0  0  0  0  0  0  0  0  0
   -3.6667    0.2250    0.0000 C   0  0  0  0  0  0  0  0  0  0  0  0
    3.9833    1.2417    0.0000 C   0  0  0  0  0  0  0  0  0  0  0  0
    3.5708    1.9583    0.0000 C   0  0  0  0  0  0  0  0  0  0  0  0
  2  1  2  0  0  0  0
  3  1  1  0  0  0  0
  4  3  1  0  0  0  0
  4  5  2  0  0  0  0
  5  2  1  0  0  0  0
  6  9  1  0  0  0  0
  7  6  3  0  0  0  0
  8  1  1  0  0  0  0
  9  3  1  0  0  0  0
 10 11  2  0  0  0  0
 11 13  1  0  0  0  0
 12 10  1  0  0  0  0
 13 19  1  0  0  0  0
 14  4  1  0  0  0  0
 15  5  1  0  0  0  0
 16  8  1  0  0  0  0
 17 10  1  0  0  0  0
 18 11  1  0  0  0  0
 19 16  1  0  0  0  0
 20 12  1  0  0  0  0
 21 14  2  0  0  0  0
 21 22  1  0  0  0  0
 22 15  2  0  0  0  0
 23 17  2  0  0  0  0
 24 18  2  0  0  0  0
 24 23  1  0  0  0  0
M  END
> <CdId>
3191

> <Mol Weight>
338.423

> <Formula>
C19H18N2O2S

> <Click_ID>
CLK042G04 __ __ 

$$$$
