CLK043B06
 OpenBabel03181417552D

 20 21  0  0  0  0  0  0  0  0999 V2000
   -1.8958    1.0542    0.0000 C   0  0  0  0  0  0  0  0  0  0  0  0
   -2.6083    3.1167    0.0000 C   0  0  0  0  0  0  0  0  0  0  0  0
   -2.6083    3.9417    0.0000 C   0  0  0  0  0  0  0  0  0  0  0  0
    0.9625   -0.5958    0.0000 C   0  0  0  0  0  0  0  0  0  0  0  0
    0.9625   -1.4208    0.0000 C   0  0  0  0  0  0  0  0  0  0  0  0
   -1.1792    0.6417    0.0000 N   0  0  0  0  0  0  0  0  0  0  0  0
   -2.6083    0.6417    0.0000 O   0  0  0  0  0  0  0  0  0  0  0  0
    0.2500   -0.1833    0.0000 C   0  0  0  0  0  0  0  0  0  0  0  0
    1.6750   -1.8333    0.0000 C   0  0  0  0  0  0  0  0  0  0  0  0
   -1.8958    1.8792    0.0000 N   0  0  0  0  0  0  0  0  0  0  0  0
    1.6750   -0.1833    0.0000 C   0  0  0  0  0  0  0  0  0  0  0  0
    0.2500   -1.8333    0.0000 C   0  0  0  0  0  0  0  0  0  0  0  0
   -0.4667   -0.5958    0.0000 C   0  0  0  0  0  0  0  0  0  0  0  0
    2.3917   -1.4208    0.0000 C   0  0  0  0  0  0  0  0  0  0  0  0
   -1.1792   -0.1833    0.0000 C   0  0  0  0  0  0  0  0  0  0  0  0
   -0.4667   -1.4208    0.0000 C   0  0  0  0  0  0  0  0  0  0  0  0
    2.3917   -0.5958    0.0000 C   0  0  0  0  0  0  0  0  0  0  0  0
   -2.6083    2.2917    0.0000 C   0  0  0  0  0  0  0  0  0  0  0  0
    3.1042   -1.8333    0.0000 O   0  0  0  0  0  0  0  0  0  0  0  0
    3.8208   -1.4208    0.0000 C   0  0  0  0  0  0  0  0  0  0  0  0
  2 18  1  0  0  0  0
  3  2  3  0  0  0  0
  4  8  1  0  0  0  0
  5 12  1  0  0  0  0
  5  4  2  0  0  0  0
  6  1  1  0  0  0  0
  7  1  2  0  0  0  0
  8 13  2  0  0  0  0
  9  5  1  0  0  0  0
 10  1  1  0  0  0  0
 11  4  1  0  0  0  0
 12 16  2  0  0  0  0
 13 15  1  0  0  0  0
 14  9  2  0  0  0  0
 15  6  1  0  0  0  0
 16 13  1  0  0  0  0
 17 11  2  0  0  0  0
 17 14  1  0  0  0  0
 18 10  1  0  0  0  0
 19 14  1  0  0  0  0
 20 19  1  0  0  0  0
M  END
> <CdId>
3282

> <Mol Weight>
268.3104

> <Formula>
C16H16N2O2

> <Click_ID>
CLK043B06 __ __ 

$$$$
