CLK023_D02
 OpenBabel03181417552D

 28 30  0  0  0  0  0  0  0  0999 V2000
   -1.5673    1.3336    0.0000 N    0  0  0  0  0  0  0  0  0  0  0  0
   -1.3163    0.5396    0.0000 C    0  0  0  0  0  0  0  0  0  0  0  0
   -0.8970    1.8147    0.0000 C    0  0  0  0  0  0  0  0  0  0  0  0
   -0.2337    1.3198    0.0000 C    0  0  0  0  0  0  0  0  0  0  0  0
   -0.4846    0.5396    0.0000 N    0  0  0  0  0  0  0  0  0  0  0  0
   -2.3612    1.5569    0.0000 C    0  0  0  0  0  0  0  0  0  0  0  0
    0.5603    1.5673    0.0000 C    0  0  0  0  0  0  0  0  0  0  0  0
   -2.9489    0.9898    0.0000 C    0  0  0  0  0  0  0  0  0  0  0  0
    3.3751   -2.0587    0.0000 C    0  0  0  0  0  0  0  0  0  0  0  0
    3.9559   -2.6396    0.0000 C    0  0  0  0  0  0  0  0  0  0  0  0
   -1.8044   -0.1237    0.0000 O    0  0  0  0  0  0  0  0  0  0  0  0
    2.5536    0.6908    0.0000 C    0  0  0  0  0  0  0  0  0  0  0  0
   -0.8867    2.6431    0.0000 O    0  0  0  0  0  0  0  0  0  0  0  0
    1.1651    1.0036    0.0000 C    0  0  0  0  0  0  0  0  0  0  0  0
    1.9556    1.2545    0.0000 C    0  0  0  0  0  0  0  0  0  0  0  0
    2.3750   -0.1203    0.0000 C    0  0  0  0  0  0  0  0  0  0  0  0
    1.5913   -0.3609    0.0000 C    0  0  0  0  0  0  0  0  0  0  0  0
   -3.7394    1.2167    0.0000 C    0  0  0  0  0  0  0  0  0  0  0  0
    0.9864    0.2028    0.0000 C    0  0  0  0  0  0  0  0  0  0  0  0
    3.3510    0.9280    0.0000 O    0  0  0  0  0  0  0  0  0  0  0  0
   -2.5640    2.3577    0.0000 C    0  0  0  0  0  0  0  0  0  0  0  0
   -4.3306    0.6324    0.0000 Cl   0  0  0  0  0  0  0  0  0  0  0  0
    2.9695   -0.6874    0.0000 O    0  0  0  0  0  0  0  0  0  0  0  0
    2.7805   -1.4882    0.0000 C    0  0  0  0  0  0  0  0  0  0  0  0
   -3.3510    2.5846    0.0000 C    0  0  0  0  0  0  0  0  0  0  0  0
   -3.9422    2.0072    0.0000 C    0  0  0  0  0  0  0  0  0  0  0  0
    3.5401    1.7322    0.0000 C    0  0  0  0  0  0  0  0  0  0  0  0
    4.3271    1.9797    0.0000 C    0  0  0  0  0  0  0  0  0  0  0  0
  2  1  1  0  0  0  0
  3  1  1  0  0  0  0
  4  3  1  0  0  0  0
  5  2  1  0  0  0  0
  5  4  1  0  0  0  0
  6  1  1  0  0  0  0
  7  4  2  0  0  0  0
  8  6  1  0  0  0  0
  9 24  1  0  0  0  0
 10  9  3  0  0  0  0
 11  2  2  0  0  0  0
 12 15  1  0  0  0  0
 12 16  2  0  0  0  0
 13  3  2  0  0  0  0
 14  7  1  0  0  0  0
 15 14  2  0  0  0  0
 16 17  1  0  0  0  0
 17 19  2  0  0  0  0
 18  8  2  0  0  0  0
 18 26  1  0  0  0  0
 19 14  1  0  0  0  0
 20 12  1  0  0  0  0
 21  6  2  0  0  0  0
 22 18  1  0  0  0  0
 23 16  1  0  0  0  0
 24 23  1  0  0  0  0
 25 21  1  0  0  0  0
 26 25  2  0  0  0  0
 27 20  1  0  0  0  0
 28 27  1  0  0  0  0
M  END
> <CdId>
1727

> <Mol Weight>
396.824

> <Formula>
C21H17ClN2O4

> <Click_ID>
CLK023_D02 __ __ 

$$$$
