CLK038F06
 OpenBabel03181417552D

 21 21  0  0  0  0  0  0  0  0999 V2000
   -0.0667    0.0375    0.0000 C   0  0  0  0  0  0  0  0  0  0  0  0
    0.5167   -0.5458    0.0000 C   0  0  0  0  0  0  0  0  0  0  0  0
   -0.8833   -0.0958    0.0000 S   0  0  0  0  0  0  0  0  0  0  0  0
    1.2500   -0.1667    0.0000 C   0  0  0  0  0  0  0  0  0  0  0  0
    0.3042    0.7708    0.0000 S   0  0  0  0  0  0  0  0  0  0  0  0
    1.1208    0.6458    0.0000 C   0  0  0  0  0  0  0  0  0  0  0  0
    0.3917   -1.3625    0.0000 C   0  0  0  0  0  0  0  0  0  0  0  0
    1.7000    1.2333    0.0000 C   0  0  0  0  0  0  0  0  0  0  0  0
   -3.0333    0.2792    0.0000 C   0  0  0  0  0  0  0  0  0  0  0  0
   -3.8458    0.1500    0.0000 C   0  0  0  0  0  0  0  0  0  0  0  0
   -0.7500   -0.9083    0.0000 O   0  0  0  0  0  0  0  0  0  0  0  0
   -1.0125    0.7167    0.0000 O   0  0  0  0  0  0  0  0  0  0  0  0
   -1.6958   -0.2292    0.0000 N   0  0  0  0  0  0  0  0  0  0  0  0
    1.0333   -1.8792    0.0000 O   0  0  0  0  0  0  0  0  0  0  0  0
    2.5000    1.0208    0.0000 O   0  0  0  0  0  0  0  0  0  0  0  0
    1.9875   -0.5417    0.0000 C   0  0  0  0  0  0  0  0  0  0  0  0
   -0.3792   -1.6583    0.0000 O   0  0  0  0  0  0  0  0  0  0  0  0
    1.4833    2.0292    0.0000 O   0  0  0  0  0  0  0  0  0  0  0  0
   -2.2167    0.4125    0.0000 C   0  0  0  0  0  0  0  0  0  0  0  0
   -0.5042   -2.4750    0.0000 C   0  0  0  0  0  0  0  0  0  0  0  0
    2.0667    2.6125    0.0000 C   0  0  0  0  0  0  0  0  0  0  0  0
  2  1  2  0  0  0  0
  3  1  1  0  0  0  0
  4  2  1  0  0  0  0
  4  6  2  0  0  0  0
  5  1  1  0  0  0  0
  6  5  1  0  0  0  0
  7  2  1  0  0  0  0
  8  6  1  0  0  0  0
  9 19  1  0  0  0  0
 10  9  3  0  0  0  0
 11  3  2  0  0  0  0
 12  3  2  0  0  0  0
 13  3  1  0  0  0  0
 14  7  2  0  0  0  0
 15  8  2  0  0  0  0
 16  4  1  0  0  0  0
 17  7  1  0  0  0  0
 18  8  1  0  0  0  0
 19 13  1  0  0  0  0
 20 17  1  0  0  0  0
 21 18  1  0  0  0  0
M  END
> <CdId>
2886

> <Mol Weight>
331.365

> <Formula>
C12H13NO6S2

> <Click_ID>
CLK038F06 __ __ 

$$$$
