CLK020_B08
 OpenBabel03181417552D

 24 26  0  0  0  0  0  0  0  0999 V2000
    4.2390   -2.4884    0.0000 C   0  0  0  0  0  0  0  0  0  0  0  0
    5.4626   -3.2171    0.0000 N   0  0  0  0  0  0  0  0  0  0  0  0
    5.0593   -2.4930    0.0000 C   0  0  0  0  0  0  0  0  0  0  0  0
    4.2207   -3.9091    0.0000 N   0  0  0  0  0  0  0  0  0  0  0  0
    3.8128   -3.1942    0.0000 C   0  0  0  0  0  0  0  0  0  0  0  0
    3.8357   -1.7644    0.0000 C   0  0  0  0  0  0  0  0  0  0  0  0
    3.0108   -1.7506    0.0000 C   0  0  0  0  0  0  0  0  0  0  0  0
    3.0567    1.0998    0.0000 C   0  0  0  0  0  0  0  0  0  0  0  0
    2.6534    1.8239    0.0000 C   0  0  0  0  0  0  0  0  0  0  0  0
    6.2600   -3.4416    0.0000 C   0  0  0  0  0  0  0  0  0  0  0  0
    5.4764   -1.7873    0.0000 O   0  0  0  0  0  0  0  0  0  0  0  0
    2.6121   -1.0357    0.0000 C   0  0  0  0  0  0  0  0  0  0  0  0
    2.9880   -3.1804    0.0000 C   0  0  0  0  0  0  0  0  0  0  0  0
    3.0292   -0.3208    0.0000 O   0  0  0  0  0  0  0  0  0  0  0  0
    2.6305    0.3941    0.0000 C   0  0  0  0  0  0  0  0  0  0  0  0
    2.5893   -2.4655    0.0000 C   0  0  0  0  0  0  0  0  0  0  0  0
    6.4616   -4.2390    0.0000 C   0  0  0  0  0  0  0  0  0  0  0  0
    6.8512   -2.8642    0.0000 C   0  0  0  0  0  0  0  0  0  0  0  0
    1.7873   -1.0220    0.0000 C   0  0  0  0  0  0  0  0  0  0  0  0
    1.7644   -2.4518    0.0000 C   0  0  0  0  0  0  0  0  0  0  0  0
    7.2499   -4.4590    0.0000 C   0  0  0  0  0  0  0  0  0  0  0  0
    7.6439   -3.0842    0.0000 C   0  0  0  0  0  0  0  0  0  0  0  0
    1.3657   -1.7323    0.0000 C   0  0  0  0  0  0  0  0  0  0  0  0
    7.8410   -3.8907    0.0000 C   0  0  0  0  0  0  0  0  0  0  0  0
  2  3  1  0  0  0  0
  3  1  1  0  0  0  0
  4  5  2  0  0  0  0
  4  2  1  0  0  0  0
  5  1  1  0  0  0  0
  6  1  2  0  0  0  0
  7  6  1  0  0  0  0
  8 15  1  0  0  0  0
  9  8  3  0  0  0  0
 10  2  1  0  0  0  0
 11  3  2  0  0  0  0
 12  7  1  0  0  0  0
 13  5  1  0  0  0  0
 14 12  1  0  0  0  0
 15 14  1  0  0  0  0
 16  7  2  0  0  0  0
 17 10  2  0  0  0  0
 18 10  1  0  0  0  0
 19 12  2  0  0  0  0
 19 23  1  0  0  0  0
 20 16  1  0  0  0  0
 21 17  1  0  0  0  0
 22 18  2  0  0  0  0
 23 20  2  0  0  0  0
 24 22  1  0  0  0  0
 24 21  2  0  0  0  0
M  END
> <CdId>
1493

> <Mol Weight>
316.3532

> <Formula>
C20H16N2O2

> <Click_ID>
CLK020_B08 __ __ 

$$$$
