CLK045G03
 OpenBabel03181417552D

 34 37  0  0  0  0  0  0  0  0999 V2000
    0.0208   -0.3208    0.0000 C   0  0  0  0  0  0  0  0  0  0  0  0
   -1.4083    0.5042    0.0000 C   0  0  0  0  0  0  0  0  0  0  0  0
   -1.4083   -0.3208    0.0000 N   0  0  0  0  0  0  0  0  0  0  0  0
   -0.6958   -0.7333    0.0000 C   0  0  0  0  0  0  0  0  0  0  0  0
    0.0208    0.5042    0.0000 C   0  0  3  0  0  0  0  0  0  0  0  0
   -0.6958    0.9167    0.0000 N   0  0  0  0  0  0  0  0  0  0  0  0
    0.7333   -0.7333    0.0000 C   0  0  0  0  0  0  0  0  0  0  0  0
    2.1625   -0.7333    0.0000 C   0  0  0  0  0  0  0  0  0  0  0  0
    1.4500   -0.3208    0.0000 N   0  0  0  0  0  0  0  0  0  0  0  0
   -2.1250   -0.7333    0.0000 C   0  0  0  0  0  0  0  0  0  0  0  0
    2.9167   -0.3958    0.0000 N   0  0  0  0  0  0  0  0  0  0  0  0
    0.7333    0.9167    0.0000 C   0  0  0  0  0  0  0  0  0  0  0  0
    2.2500   -1.5542    0.0000 C   0  0  0  0  0  0  0  0  0  0  0  0
    3.4667   -1.0083    0.0000 O   0  0  0  0  0  0  0  0  0  0  0  0
   -2.1250    0.9167    0.0000 S   0  0  0  0  0  0  0  0  0  0  0  0
    3.0542   -1.7250    0.0000 C   0  0  0  0  0  0  0  0  0  0  0  0
   -0.6958    3.3917    0.0000 C   0  0  0  0  0  0  0  0  0  0  0  0
   -1.4083    3.8042    0.0000 C   0  0  0  0  0  0  0  0  0  0  0  0
    0.7333   -1.5583    0.0000 O   0  0  0  0  0  0  0  0  0  0  0  0
   -2.1250   -1.5583    0.0000 C   0  0  0  0  0  0  0  0  0  0  0  0
    0.7333    1.7417    0.0000 C   0  0  0  0  0  0  0  0  0  0  0  0
   -0.6958   -1.5583    0.0000 C   0  0  0  0  0  0  0  0  0  0  0  0
   -2.8375   -1.9708    0.0000 C   0  0  0  0  0  0  0  0  0  0  0  0
   -2.8375   -0.3208    0.0000 C   0  0  0  0  0  0  0  0  0  0  0  0
    0.0208    2.1542    0.0000 O   0  0  0  0  0  0  0  0  0  0  0  0
    1.4500    0.5042    0.0000 C   0  0  0  0  0  0  0  0  0  0  0  0
    0.0208    2.9792    0.0000 C   0  0  0  0  0  0  0  0  0  0  0  0
   -3.5542   -0.7333    0.0000 C   0  0  0  0  0  0  0  0  0  0  0  0
    3.3917   -2.4792    0.0000 C   0  0  0  0  0  0  0  0  0  0  0  0
    1.4500    2.1542    0.0000 C   0  0  0  0  0  0  0  0  0  0  0  0
   -3.5542   -1.5583    0.0000 C   0  0  0  0  0  0  0  0  0  0  0  0
   -2.8375   -2.7958    0.0000 C   0  0  0  0  0  0  0  0  0  0  0  0
    2.1625    0.9167    0.0000 C   0  0  0  0  0  0  0  0  0  0  0  0
    2.1625    1.7417    0.0000 C   0  0  0  0  0  0  0  0  0  0  0  0
  2  6  1  0  0  0  0
  3  4  1  0  0  0  0
  3  2  1  0  0  0  0
  4  1  2  0  0  0  0
  5  1  1  0  0  0  0
  6  5  1  0  0  0  0
  7  1  1  0  0  0  0
  8  9  1  0  0  0  0
  9  7  1  0  0  0  0
 10  3  1  0  0  0  0
 11  8  2  0  0  0  0
 12  5  1  0  0  0  0
 13  8  1  0  0  0  0
 14 11  1  0  0  0  0
 14 16  1  0  0  0  0
 15  2  2  0  0  0  0
 16 13  2  0  0  0  0
 17 27  1  0  0  0  0
 18 17  3  0  0  0  0
 19  7  2  0  0  0  0
 20 10  2  0  0  0  0
 21 12  2  0  0  0  0
 22  4  1  0  0  0  0
 23 20  1  0  0  0  0
 24 10  1  0  0  0  0
 25 21  1  0  0  0  0
 26 12  1  0  0  0  0
 27 25  1  0  0  0  0
 28 24  2  0  0  0  0
 29 16  1  0  0  0  0
 30 21  1  0  0  0  0
 31 23  2  0  0  0  0
 31 28  1  0  0  0  0
 32 23  1  0  0  0  0
 33 26  2  0  0  0  0
 34 30  2  0  0  0  0
 34 33  1  0  0  0  0
M  END
> <CdId>
3423

> <Mol Weight>
472.559

> <Formula>
C26H24N4O3S

> <Click_ID>
CLK045G03 __ __ 

$$$$
