CLK045D06
 OpenBabel03181417552D

 26 27  0  0  0  0  0  0  0  0999 V2000
    2.5542   -3.3792    0.0000 C   0  0  0  0  0  0  0  0  0  0  0  0
   -1.0208    1.1583    0.0000 C   0  0  0  0  0  0  0  0  0  0  0  0
    3.2667   -3.7917    0.0000 C   0  0  0  0  0  0  0  0  0  0  0  0
   -0.3042   -0.0792    0.0000 C   0  0  0  0  0  0  0  0  0  0  0  0
   -0.3042    0.7458    0.0000 C   0  0  0  0  0  0  0  0  0  0  0  0
   -1.7333    2.3958    0.0000 C   0  0  0  0  0  0  0  0  0  0  0  0
    1.1250   -1.7292    0.0000 C   0  0  0  0  0  0  0  0  0  0  0  0
    1.1250   -2.5542    0.0000 N   0  0  0  0  0  0  0  0  0  0  0  0
    1.8375   -2.9667    0.0000 C   0  0  0  0  0  0  0  0  0  0  0  0
   -2.4458    1.9833    0.0000 N   0  0  0  0  0  0  0  0  0  0  0  0
   -1.0208    1.9833    0.0000 C   0  0  0  0  0  0  0  0  0  0  0  0
   -1.0208   -0.4917    0.0000 O   0  0  0  0  0  0  0  0  0  0  0  0
    1.8375   -1.3167    0.0000 O   0  0  0  0  0  0  0  0  0  0  0  0
    0.4083   -0.4917    0.0000 O   0  0  0  0  0  0  0  0  0  0  0  0
   -1.7333    3.2208    0.0000 C   0  0  0  0  0  0  0  0  0  0  0  0
    0.4083   -1.3167    0.0000 C   0  0  0  0  0  0  0  0  0  0  0  0
   -0.3042    3.2208    0.0000 C   0  0  0  0  0  0  0  0  0  0  0  0
   -3.1625    2.3958    0.0000 C   0  0  0  0  0  0  0  0  0  0  0  0
   -0.3042    2.3958    0.0000 C   0  0  0  0  0  0  0  0  0  0  0  0
    2.2500   -2.2500    0.0000 C   0  0  0  0  0  0  0  0  0  0  0  0
    1.4250   -3.6792    0.0000 C   0  0  0  0  0  0  0  0  0  0  0  0
   -1.0208    3.6333    0.0000 C   0  0  0  0  0  0  0  0  0  0  0  0
   -2.4458    3.6333    0.0000 C   0  0  0  0  0  0  0  0  0  0  0  0
   -3.1625    3.2208    0.0000 C   0  0  0  0  0  0  0  0  0  0  0  0
    0.6000   -3.6792    0.0000 C   0  0  0  0  0  0  0  0  0  0  0  0
    3.0750   -2.2500    0.0000 C   0  0  0  0  0  0  0  0  0  0  0  0
  2  5  2  0  0  0  0
  3  1  3  0  0  0  0
  4 14  1  0  0  0  0
  5  4  1  0  0  0  0
  6 11  2  0  0  0  0
  7  8  1  0  0  0  0
  8  9  1  0  0  0  0
  9  1  1  0  0  0  0
 10  6  1  0  0  0  0
 11  2  1  0  0  0  0
 12  4  2  0  0  0  0
 13  7  2  0  0  0  0
 14 16  1  0  0  0  0
 15  6  1  0  0  0  0
 16  7  1  0  0  0  0
 17 19  2  0  0  0  0
 18 10  2  0  0  0  0
 18 24  1  0  0  0  0
 19 11  1  0  0  0  0
 20  9  1  0  0  0  0
 21  9  1  0  0  0  0
 22 15  2  0  0  0  0
 22 17  1  0  0  0  0
 23 15  1  0  0  0  0
 24 23  2  0  0  0  0
 25 21  1  0  0  0  0
 26 20  1  0  0  0  0
M  END
> <CdId>
3444

> <Mol Weight>
350.411

> <Formula>
C21H22N2O3

> <Click_ID>
CLK045D06 __ __ 

$$$$
