CLK021_E04
 OpenBabel03181417552D

 27 29  0  0  0  0  0  0  0  0999 V2000
    2.2079    1.9468    0.0000 C    0  0  3  0  0  0  0  0  0  0  0  0
    2.8768    1.4567    0.0000 C    0  0  0  0  0  0  0  0  0  0  0  0
    2.4645    2.7301    0.0000 C    0  0  0  0  0  0  0  0  0  0  0  0
    3.5501    1.9468    0.0000 N    0  0  0  0  0  0  0  0  0  0  0  0
    3.2890    2.7301    0.0000 C    0  0  0  0  0  0  0  0  0  0  0  0
    1.4613    2.2766    0.0000 C    0  0  0  0  0  0  0  0  0  0  0  0
    0.0871    1.8827    0.0000 C    0  0  0  0  0  0  0  0  0  0  0  0
    0.8841    1.6857    0.0000 C    0  0  0  0  0  0  0  0  0  0  0  0
   -0.4901    1.2918    0.0000 C    0  0  0  0  0  0  0  0  0  0  0  0
   -0.1374    2.6798    0.0000 C    0  0  0  0  0  0  0  0  0  0  0  0
    4.8419    2.3362    0.0000 C    0  0  0  0  0  0  0  0  0  0  0  0
   -1.2872    1.4933    0.0000 C    0  0  0  0  0  0  0  0  0  0  0  0
   -0.9436    2.8813    0.0000 C    0  0  0  0  0  0  0  0  0  0  0  0
    3.7013    3.4447    0.0000 C    0  0  0  0  0  0  0  0  0  0  0  0
    5.3458    2.9912    0.0000 C    0  0  0  0  0  0  0  0  0  0  0  0
   -1.5117    2.2904    0.0000 C    0  0  0  0  0  0  0  0  0  0  0  0
    2.0522    3.4447    0.0000 C    0  0  0  0  0  0  0  0  0  0  0  0
    2.8768    0.6321    0.0000 O    0  0  0  0  0  0  0  0  0  0  0  0
    1.0490    1.1360    0.0000 O    0  0  0  0  0  0  0  0  0  0  0  0
    4.3335    1.6903    0.0000 C    0  0  0  0  0  0  0  0  0  0  0  0
    1.8003    1.2322    0.0000 O    0  0  0  0  0  0  0  0  0  0  0  0
    2.4645    4.1593    0.0000 C    0  0  0  0  0  0  0  0  0  0  0  0
    3.2890    4.1593    0.0000 C    0  0  0  0  0  0  0  0  0  0  0  0
    2.0522    4.8602    0.0000 Br   0  0  0  0  0  0  0  0  0  0  0  0
    0.4306    3.2753    0.0000 C    0  0  0  0  0  0  0  0  0  0  0  0
   -1.8552    0.9024    0.0000 C    0  0  0  0  0  0  0  0  0  0  0  0
   -2.3178    2.4828    0.0000 C    0  0  0  0  0  0  0  0  0  0  0  0
  2  1  1  0  0  0  0
  3  1  1  0  0  0  0
  4  2  1  0  0  0  0
  4  5  1  0  0  0  0
  5  3  2  0  0  0  0
  6  1  1  0  0  0  0
  7  8  1  0  0  0  0
  8  6  1  0  0  0  0
  9  7  1  0  0  0  0
 10  7  2  0  0  0  0
 11 20  1  0  0  0  0
 12  9  2  0  0  0  0
 13 10  1  0  0  0  0
 14  5  1  0  0  0  0
 14 23  2  0  0  0  0
 15 11  3  0  0  0  0
 16 13  2  0  0  0  0
 16 12  1  0  0  0  0
 17  3  1  0  0  0  0
 18  2  2  0  0  0  0
 19  8  2  0  0  0  0
 20  4  1  0  0  0  0
 21  1  1  0  0  0  0
 22 17  2  0  0  0  0
 23 22  1  0  0  0  0
 24 22  1  0  0  0  0
 25 10  1  0  0  0  0
 26 12  1  0  0  0  0
 27 16  1  0  0  0  0
M  END
> <CdId>
1599

> <Mol Weight>
426.303

> <Formula>
C22H20BrNO3

> <Click_ID>
CLK021_E04 __ __ 

$$$$
