CLK002_E10
 OpenBabel03181417552D

 18 19  0  0  0  0  0  0  0  0999 V2000
    0.0308   -0.2616    0.0000 C   0  0  0  0  0  0  0  0  0  0  0  0
    0.0308    0.5616    0.0000 C   0  0  0  0  0  0  0  0  0  0  0  0
    0.7501   -0.6656    0.0000 C   0  0  3  0  0  0  0  0  0  0  0  0
   -0.6579   -0.6656    0.0000 C   0  0  0  0  0  0  0  0  0  0  0  0
   -0.6579    0.9655    0.0000 C   0  0  0  0  0  0  0  0  0  0  0  0
    0.7501    0.9655    0.0000 C   0  0  0  0  0  0  0  0  0  0  0  0
    1.4618   -0.2423    0.0000 N   0  0  0  0  0  0  0  0  0  0  0  0
    0.7501   -1.4888    0.0000 C   0  0  0  0  0  0  0  0  0  0  0  0
   -1.3695   -0.2423    0.0000 C   0  0  0  0  0  0  0  0  0  0  0  0
   -1.3695    0.5386    0.0000 C   0  0  0  0  0  0  0  0  0  0  0  0
    1.4618    0.5386    0.0000 C   0  0  0  0  0  0  0  0  0  0  0  0
    2.2004   -0.6386    0.0000 C   0  0  0  0  0  0  0  0  0  0  0  0
   -2.1081   -0.6386    0.0000 O   0  0  0  0  0  0  0  0  0  0  0  0
   -2.1081    0.9425    0.0000 O   0  0  0  0  0  0  0  0  0  0  0  0
    2.8891   -0.1923    0.0000 C   0  0  0  0  0  0  0  0  0  0  0  0
   -2.8275   -0.1923    0.0000 C   0  0  0  0  0  0  0  0  0  0  0  0
   -2.8275    0.4962    0.0000 C   0  0  0  0  0  0  0  0  0  0  0  0
    3.6007    0.2269    0.0000 C   0  0  0  0  0  0  0  0  0  0  0  0
  1  2  1  0  0  0  0
  1  3  1  0  0  0  0
  1  4  2  0  0  0  0
  2  5  2  0  0  0  0
  2  6  1  0  0  0  0
  3  7  1  0  0  0  0
  3  8  1  0  0  0  0
  4  9  1  0  0  0  0
  5 10  1  0  0  0  0
  6 11  1  0  0  0  0
  7 12  1  0  0  0  0
  7 11  1  0  0  0  0
  9 13  1  0  0  0  0
  9 10  2  0  0  0  0
 10 14  1  0  0  0  0
 12 15  1  0  0  0  0
 13 16  1  0  0  0  0
 14 17  1  0  0  0  0
 15 18  3  0  0  0  0
M  END
> <CdId>
129

> <Mol Weight>
245.3169

> <Formula>
C15H19NO2

> <Click_ID>
CLK002_E10 __ __ 

$$$$
