CLK005_G06
 OpenBabel03181417552D

 31 34  0  0  0  0  0  0  0  0999 V2000
   -0.8406   -0.1421    0.0000 C   0  0  3  0  0  0  0  0  0  0  0  0
   -0.8406    0.6701    0.0000 N   0  0  0  0  0  0  0  0  0  0  0  0
   -0.1218   -0.5644    0.0000 C   0  0  0  0  0  0  0  0  0  0  0  0
   -1.5472   -0.5644    0.0000 N   0  0  0  0  0  0  0  0  0  0  0  0
   -0.1259    1.0842    0.0000 C   0  0  0  0  0  0  0  0  0  0  0  0
   -1.5512    1.0801    0.0000 C   0  0  0  0  0  0  0  0  0  0  0  0
   -0.1218   -1.3929    0.0000 C   0  0  0  0  0  0  0  0  0  0  0  0
    0.6009   -0.1421    0.0000 C   0  0  0  0  0  0  0  0  0  0  0  0
   -2.2700   -0.1543    0.0000 C   0  0  0  0  0  0  0  0  0  0  0  0
    0.5807    0.6822    0.0000 C   0  0  0  0  0  0  0  0  0  0  0  0
   -0.1259    1.9086    0.0000 C   0  0  0  0  0  0  0  0  0  0  0  0
   -2.2577    0.6701    0.0000 C   0  0  0  0  0  0  0  0  0  0  0  0
   -1.5512    1.9044    0.0000 O   0  0  0  0  0  0  0  0  0  0  0  0
    0.6009   -1.8192    0.0000 C   0  0  0  0  0  0  0  0  0  0  0  0
    1.3319   -0.5644    0.0000 C   0  0  0  0  0  0  0  0  0  0  0  0
   -2.9643   -0.5644    0.0000 C   0  0  0  0  0  0  0  0  0  0  0  0
    1.2914    1.0924    0.0000 C   0  0  0  0  0  0  0  0  0  0  0  0
    0.5807    2.3187    0.0000 C   0  0  0  0  0  0  0  0  0  0  0  0
   -2.9766    1.0801    0.0000 C   0  0  0  0  0  0  0  0  0  0  0  0
    1.3238   -1.4050    0.0000 C   0  0  0  0  0  0  0  0  0  0  0  0
    0.6172   -2.6720    0.0000 O   0  0  0  0  0  0  0  0  0  0  0  0
   -3.6831   -0.1584    0.0000 C   0  0  0  0  0  0  0  0  0  0  0  0
    1.2914    1.9086    0.0000 C   0  0  0  0  0  0  0  0  0  0  0  0
   -3.6831    0.6659    0.0000 C   0  0  0  0  0  0  0  0  0  0  0  0
    2.0547   -1.8192    0.0000 O   0  0  0  0  0  0  0  0  0  0  0  0
   -0.1096   -3.0862    0.0000 C   0  0  0  0  0  0  0  0  0  0  0  0
    1.9980    2.3187    0.0000 O   0  0  0  0  0  0  0  0  0  0  0  0
    2.7735   -1.4050    0.0000 C   0  0  0  0  0  0  0  0  0  0  0  0
    1.9980    3.1389    0.0000 C   0  0  0  0  0  0  0  0  0  0  0  0
    3.5004   -1.8192    0.0000 C   0  0  0  0  0  0  0  0  0  0  0  0
    4.2232   -2.2415    0.0000 C   0  0  0  0  0  0  0  0  0  0  0  0
  1  2  1  0  0  0  0
  1  3  1  0  0  0  0
  1  4  1  0  0  0  0
  2  5  1  0  0  0  0
  2  6  1  0  0  0  0
  3  7  2  0  0  0  0
  3  8  1  0  0  0  0
  4  9  1  0  0  0  0
  5 10  2  0  0  0  0
  5 11  1  0  0  0  0
  6 12  1  0  0  0  0
  6 13  2  0  0  0  0
  7 14  1  0  0  0  0
  8 15  2  0  0  0  0
  9 16  2  0  0  0  0
  9 12  1  0  0  0  0
 10 17  1  0  0  0  0
 11 18  2  0  0  0  0
 12 19  2  0  0  0  0
 14 20  2  0  0  0  0
 14 21  1  0  0  0  0
 15 20  1  0  0  0  0
 16 22  1  0  0  0  0
 17 23  2  0  0  0  0
 18 23  1  0  0  0  0
 19 24  1  0  0  0  0
 20 25  1  0  0  0  0
 21 26  1  0  0  0  0
 22 24  2  0  0  0  0
 23 27  1  0  0  0  0
 25 28  1  0  0  0  0
 27 29  1  0  0  0  0
 28 30  1  0  0  0  0
 30 31  3  0  0  0  0
M  END
> <CdId>
385

> <Mol Weight>
414.4532

> <Formula>
C25H22N2O4

> <Click_ID>
CLK005_G06 __ __ 

$$$$
