CLK011_A04
 OpenBabel03181417552D

 19 21  0  0  0  0  0  0  0  0999 V2000
   -1.7664   -0.5299    0.0000 C   0  0  0  0  0  0  0  0  0  0  0  0
   -2.0193    0.3011    0.0000 C   0  0  0  0  0  0  0  0  0  0  0  0
   -2.4569   -1.0117    0.0000 N   0  0  0  0  0  0  0  0  0  0  0  0
   -0.9635   -0.7106    0.0000 N   0  0  0  0  0  0  0  0  0  0  0  0
   -2.8423    0.3011    0.0000 C   0  0  0  0  0  0  0  0  0  0  0  0
   -1.4453    0.8992    0.0000 N   0  0  0  0  0  0  0  0  0  0  0  0
   -3.1314   -0.4697    0.0000 C   0  0  0  0  0  0  0  0  0  0  0  0
   -0.3854   -0.1245    0.0000 C   0  0  0  0  0  0  0  0  0  0  0  0
   -0.6263    0.6945    0.0000 N   0  0  0  0  0  0  0  0  0  0  0  0
    1.7865    0.0120    0.0000 C   0  0  0  0  0  0  0  0  0  0  0  0
    2.5814   -0.2088    0.0000 C   0  0  0  0  0  0  0  0  0  0  0  0
    0.4135   -0.3413    0.0000 S   0  0  0  0  0  0  0  0  0  0  0  0
   -2.4690   -1.8347    0.0000 C   0  0  0  0  0  0  0  0  0  0  0  0
   -3.3682    0.9595    0.0000 C   0  0  0  0  0  0  0  0  0  0  0  0
    0.9996    0.2368    0.0000 C   0  0  0  0  0  0  0  0  0  0  0  0
   -3.9504   -0.5942    0.0000 C   0  0  0  0  0  0  0  0  0  0  0  0
   -1.7664   -2.2522    0.0000 C   0  0  0  0  0  0  0  0  0  0  0  0
   -4.1913    0.8190    0.0000 C   0  0  0  0  0  0  0  0  0  0  0  0
   -4.4924    0.0602    0.0000 C   0  0  0  0  0  0  0  0  0  0  0  0
  2  1  1  0  0  0  0
  3  1  1  0  0  0  0
  4  1  2  0  0  0  0
  5  2  1  0  0  0  0
  5  7  1  0  0  0  0
  6  2  2  0  0  0  0
  7  3  1  0  0  0  0
  8  4  1  0  0  0  0
  9  8  2  0  0  0  0
  9  6  1  0  0  0  0
 10 15  1  0  0  0  0
 11 10  3  0  0  0  0
 12  8  1  0  0  0  0
 13  3  1  0  0  0  0
 14  5  2  0  0  0  0
 15 12  1  0  0  0  0
 16  7  2  0  0  0  0
 17 13  1  0  0  0  0
 18 14  1  0  0  0  0
 18 19  2  0  0  0  0
 19 16  1  0  0  0  0
M  END
> <CdId>
759

> <Mol Weight>
268.337

> <Formula>
C14H12N4S

> <Click_ID>
CLK011_A04 __ __ 

$$$$
