CLK048H09
 OpenBabel03181417552D

 16 17  0  0  0  0  0  0  0  0999 V2000
    0.4458   -0.3083    0.0000 C   0  0  0  0  0  0  0  0  0  0  0  0
   -0.2708    0.1042    0.0000 C   0  0  0  0  0  0  0  0  0  0  0  0
    1.1583    0.1042    0.0000 C   0  0  0  0  0  0  0  0  0  0  0  0
   -0.2708   -1.5458    0.0000 O   0  0  0  0  0  0  0  0  0  0  0  0
   -0.9833   -0.3083    0.0000 C   0  0  0  0  0  0  0  0  0  0  0  0
    1.8750    2.1667    0.0000 C   0  0  0  0  0  0  0  0  0  0  0  0
    0.4458   -1.1333    0.0000 C   0  0  0  0  0  0  0  0  0  0  0  0
    1.8750    2.9917    0.0000 C   0  0  0  0  0  0  0  0  0  0  0  0
   -0.9833   -1.1333    0.0000 C   0  0  0  0  0  0  0  0  0  0  0  0
    1.8750   -0.3083    0.0000 O   0  0  0  0  0  0  0  0  0  0  0  0
    1.1583    0.9292    0.0000 N   0  0  0  0  0  0  0  0  0  0  0  0
    1.8750    1.3417    0.0000 C   0  0  0  0  0  0  0  0  0  0  0  0
   -1.7000    0.1042    0.0000 C   0  0  0  0  0  0  0  0  0  0  0  0
   -1.7000   -1.5458    0.0000 C   0  0  0  0  0  0  0  0  0  0  0  0
   -2.4125   -0.3083    0.0000 C   0  0  0  0  0  0  0  0  0  0  0  0
   -2.4125   -1.1333    0.0000 C   0  0  0  0  0  0  0  0  0  0  0  0
  2  1  2  0  0  0  0
  3  1  1  0  0  0  0
  4  7  1  0  0  0  0
  5  2  1  0  0  0  0
  6 12  1  0  0  0  0
  7  1  1  0  0  0  0
  8  6  3  0  0  0  0
  9  4  1  0  0  0  0
  9  5  2  0  0  0  0
 10  3  2  0  0  0  0
 11  3  1  0  0  0  0
 12 11  1  0  0  0  0
 13  5  1  0  0  0  0
 14  9  1  0  0  0  0
 15 13  2  0  0  0  0
 16 14  2  0  0  0  0
 16 15  1  0  0  0  0
M  END
> <CdId>
3712

> <Mol Weight>
213.2319

> <Formula>
C13H11NO2

> <Click_ID>
CLK048H09 __ __ 

$$$$
