CLK044H10
 OpenBabel03181417552D

 21 23  0  0  0  0  0  0  0  0999 V2000
   -0.3500   -0.3583    0.0000 C   0  0  0  0  0  0  0  0  0  0  0  0
   -0.3500    1.2917    0.0000 N   0  0  0  0  0  0  0  0  0  0  0  0
    0.3625    0.8792    0.0000 C   0  0  0  0  0  0  0  0  0  0  0  0
    0.3625    0.0542    0.0000 C   0  0  0  0  0  0  0  0  0  0  0  0
    1.0792    1.2917    0.0000 C   0  0  0  0  0  0  0  0  0  0  0  0
   -0.3500   -1.1833    0.0000 C   0  0  0  0  0  0  0  0  0  0  0  0
   -1.0667    0.0542    0.0000 C   0  0  0  0  0  0  0  0  0  0  0  0
   -1.0667    0.8792    0.0000 C   0  0  0  0  0  0  0  0  0  0  0  0
    1.1625    2.1125    0.0000 S   0  0  0  0  0  0  0  0  0  0  0  0
    1.0792   -2.8333    0.0000 C   0  0  0  0  0  0  0  0  0  0  0  0
    1.7917   -3.2458    0.0000 C   0  0  0  0  0  0  0  0  0  0  0  0
    1.8333    0.9583    0.0000 C   0  0  0  0  0  0  0  0  0  0  0  0
    1.9708    2.2875    0.0000 C   0  0  0  0  0  0  0  0  0  0  0  0
   -1.0667   -1.5958    0.0000 O   0  0  0  0  0  0  0  0  0  0  0  0
    2.3833    1.5708    0.0000 C   0  0  0  0  0  0  0  0  0  0  0  0
    0.3625   -1.5958    0.0000 N   0  0  0  0  0  0  0  0  0  0  0  0
    0.3625   -2.4208    0.0000 C   0  0  0  0  0  0  0  0  0  0  0  0
   -1.7792   -0.3583    0.0000 C   0  0  0  0  0  0  0  0  0  0  0  0
   -1.7792    1.2917    0.0000 C   0  0  0  0  0  0  0  0  0  0  0  0
   -2.4958    0.0542    0.0000 C   0  0  0  0  0  0  0  0  0  0  0  0
   -2.4958    0.8792    0.0000 C   0  0  0  0  0  0  0  0  0  0  0  0
  2  8  2  0  0  0  0
  2  3  1  0  0  0  0
  3  4  2  0  0  0  0
  4  1  1  0  0  0  0
  5  3  1  0  0  0  0
  6  1  1  0  0  0  0
  7  1  2  0  0  0  0
  8  7  1  0  0  0  0
  9  5  1  0  0  0  0
 10 17  1  0  0  0  0
 11 10  3  0  0  0  0
 12  5  2  0  0  0  0
 13  9  1  0  0  0  0
 13 15  2  0  0  0  0
 14  6  2  0  0  0  0
 15 12  1  0  0  0  0
 16  6  1  0  0  0  0
 17 16  1  0  0  0  0
 18  7  1  0  0  0  0
 19  8  1  0  0  0  0
 20 18  2  0  0  0  0
 20 21  1  0  0  0  0
 21 19  2  0  0  0  0
M  END
> <CdId>
3400

> <Mol Weight>
292.355

> <Formula>
C17H12N2OS

> <Click_ID>
CLK044H10 __ __ 

$$$$
