CLK047E10
 OpenBabel03181417552D

 14 14  0  0  0  0  0  0  0  0999 V2000
    0.2000   -0.2333    0.0000 C   0  0  0  0  0  0  0  0  0  0  0  0
    0.2000   -1.0583    0.0000 C   0  0  0  0  0  0  0  0  0  0  0  0
   -0.5125    0.1792    0.0000 C   0  0  0  0  0  0  0  0  0  0  0  0
   -1.2250    2.2417    0.0000 C   0  0  0  0  0  0  0  0  0  0  0  0
   -1.2250    3.0667    0.0000 C   0  0  0  0  0  0  0  0  0  0  0  0
   -1.2250   -0.2333    0.0000 O   0  0  0  0  0  0  0  0  0  0  0  0
    0.9167   -1.4708    0.0000 C   0  0  0  0  0  0  0  0  0  0  0  0
   -0.5125    1.0042    0.0000 N   0  0  0  0  0  0  0  0  0  0  0  0
   -0.5125   -1.4708    0.0000 O   0  0  0  0  0  0  0  0  0  0  0  0
    0.9167    0.1792    0.0000 C   0  0  0  0  0  0  0  0  0  0  0  0
   -1.2250    1.4167    0.0000 C   0  0  0  0  0  0  0  0  0  0  0  0
    1.6292   -0.2333    0.0000 C   0  0  0  0  0  0  0  0  0  0  0  0
    1.6292   -1.0583    0.0000 C   0  0  0  0  0  0  0  0  0  0  0  0
    0.9167   -2.2958    0.0000 C   0  0  0  0  0  0  0  0  0  0  0  0
  2  1  1  0  0  0  0
  3  1  1  0  0  0  0
  4 11  1  0  0  0  0
  5  4  3  0  0  0  0
  6  3  2  0  0  0  0
  7  2  2  0  0  0  0
  8  3  1  0  0  0  0
  9  2  1  0  0  0  0
 10  1  2  0  0  0  0
 11  8  1  0  0  0  0
 12 10  1  0  0  0  0
 12 13  2  0  0  0  0
 13  7  1  0  0  0  0
 14  7  1  0  0  0  0
M  END
> <CdId>
3637

> <Mol Weight>
189.2105

> <Formula>
C11H11NO2

> <Click_ID>
CLK047E10 __ __ 

$$$$
