CLK046A06
 OpenBabel03181417552D

 24 26  0  0  0  0  0  0  0  0999 V2000
    0.8000   -3.3750    0.0000 N   0  0  0  0  0  0  0  0  0  0  0  0
   -2.0542    4.0458    0.0000 C   0  0  0  0  0  0  0  0  0  0  0  0
   -2.7708    4.4583    0.0000 C   0  0  0  0  0  0  0  0  0  0  0  0
    0.0875    0.3375    0.0000 C   0  0  0  0  0  0  0  0  0  0  0  0
    0.8000   -2.5500    0.0000 C   0  0  0  0  0  0  0  0  0  0  0  0
    0.8000   -0.0750    0.0000 N   0  0  0  0  0  0  0  0  0  0  0  0
   -0.6292    1.5750    0.0000 N   0  0  0  0  0  0  0  0  0  0  0  0
   -0.6292   -0.0750    0.0000 O   0  0  0  0  0  0  0  0  0  0  0  0
    1.5167   -2.1375    0.0000 C   0  0  0  0  0  0  0  0  0  0  0  0
    0.0875   -2.1375    0.0000 C   0  0  0  0  0  0  0  0  0  0  0  0
   -1.3417    3.6375    0.0000 C   0  0  0  0  0  0  0  0  0  0  0  0
    0.0875    1.1625    0.0000 C   0  0  0  0  0  0  0  0  0  0  0  0
    0.8000   -0.9000    0.0000 C   0  0  0  0  0  0  0  0  0  0  0  0
   -0.6292    2.4000    0.0000 C   0  0  0  0  0  0  0  0  0  0  0  0
   -1.3417    2.8125    0.0000 C   0  0  0  0  0  0  0  0  0  0  0  0
    1.5167   -1.3125    0.0000 C   0  0  0  0  0  0  0  0  0  0  0  0
    0.0875   -1.3125    0.0000 C   0  0  0  0  0  0  0  0  0  0  0  0
    0.1333   -3.8583    0.0000 C   0  0  0  0  0  0  0  0  0  0  0  0
    1.4708   -3.8583    0.0000 C   0  0  0  0  0  0  0  0  0  0  0  0
    0.0875    3.6375    0.0000 C   0  0  0  0  0  0  0  0  0  0  0  0
   -0.6292    4.0458    0.0000 C   0  0  0  0  0  0  0  0  0  0  0  0
    0.0875    2.8125    0.0000 C   0  0  0  0  0  0  0  0  0  0  0  0
    1.2125   -4.6458    0.0000 C   0  0  0  0  0  0  0  0  0  0  0  0
    0.3875   -4.6458    0.0000 C   0  0  0  0  0  0  0  0  0  0  0  0
  2 11  1  0  0  0  0
  3  2  3  0  0  0  0
  4  6  1  0  0  0  0
  5  1  1  0  0  0  0
  6 13  1  0  0  0  0
  7 12  1  0  0  0  0
  8  4  2  0  0  0  0
  9  5  2  0  0  0  0
 10  5  1  0  0  0  0
 11 15  1  0  0  0  0
 12  4  1  0  0  0  0
 13 16  2  0  0  0  0
 14  7  1  0  0  0  0
 15 14  2  0  0  0  0
 16  9  1  0  0  0  0
 17 10  2  0  0  0  0
 17 13  1  0  0  0  0
 18  1  1  0  0  0  0
 19  1  1  0  0  0  0
 20 22  2  0  0  0  0
 21 11  2  0  0  0  0
 21 20  1  0  0  0  0
 22 14  1  0  0  0  0
 23 19  1  0  0  0  0
 23 24  1  0  0  0  0
 24 18  1  0  0  0  0
M  END
> <CdId>
3521

> <Mol Weight>
319.4002

> <Formula>
C20H21N3O

> <Click_ID>
CLK046A06 __ __ 

$$$$
