CLK015_G06
 OpenBabel03181417552D

 18 18  0  0  0  0  0  0  0  0999 V2000
   -0.3833    0.0708    0.0000 N   0  3  0  0  0  0  0  0  0  0  0  0
    3.1871   -1.1791    0.0000 C   0  0  0  0  0  0  0  0  0  0  0  0
    3.1996   -0.3542    0.0000 C   0  0  0  0  0  0  0  0  0  0  0  0
    2.4872   -1.5873    0.0000 C   0  0  0  0  0  0  0  0  0  0  0  0
    0.3375   -0.3417    0.0000 C   0  0  0  0  0  0  0  0  0  0  0  0
    4.8869   -3.2538    0.0000 C   0  0  0  0  0  0  0  0  0  0  0  0
    5.8618   -3.8038    0.0000 C   0  0  0  0  0  0  0  0  0  0  0  0
    1.0499    0.0708    0.0000 C   0  0  0  0  0  0  0  0  0  0  0  0
   -0.3833    0.8957    0.0000 O   0  5  0  0  0  0  0  0  0  0  0  0
    1.7665   -0.3417    0.0000 C   0  0  0  0  0  0  0  0  0  0  0  0
   -1.0957   -0.3417    0.0000 O   0  0  0  0  0  0  0  0  0  0  0  0
    2.4789    0.0583    0.0000 C   0  0  0  0  0  0  0  0  0  0  0  0
    1.7748   -1.1666    0.0000 C   0  0  0  0  0  0  0  0  0  0  0  0
    3.9121    0.0458    0.0000 I   0  0  0  0  0  0  0  0  0  0  0  0
    3.9038   -1.5915    0.0000 O   0  0  0  0  0  0  0  0  0  0  0  0
    2.4872   -2.4122    0.0000 O   0  0  0  0  0  0  0  0  0  0  0  0
    4.8661   -2.1415    0.0000 C   0  0  0  0  0  0  0  0  0  0  0  0
    1.7748   -2.8122    0.0000 C   0  0  0  0  0  0  0  0  0  0  0  0
  2  4  1  0  0  0  0
  2  3  2  0  0  0  0
  3 12  1  0  0  0  0
  4 13  2  0  0  0  0
  5  1  1  0  0  0  0
  6 17  1  0  0  0  0
  7  6  3  0  0  0  0
  8  5  2  0  0  0  0
  9  1  1  0  0  0  0
 10  8  1  0  0  0  0
 11  1  2  0  0  0  0
 12 10  2  0  0  0  0
 13 10  1  0  0  0  0
 14  3  1  0  0  0  0
 15  2  1  0  0  0  0
 16  4  1  0  0  0  0
 17 15  1  0  0  0  0
 18 16  1  0  0  0  0
M  END
> <CdId>
1141

> <Mol Weight>
359.1166

> <Formula>
C12H10INO4

> <Click_ID>
CLK015_G06 __ __ 

$$$$
