CLK023_E07
 OpenBabel03181417552D

 26 27  0  0  0  0  0  0  0  0999 V2000
    3.1722   -0.8896    0.0000 N   0  0  0  0  0  0  0  0  0  0  0  0
    2.4584   -1.2999    0.0000 C   0  0  0  0  0  0  0  0  0  0  0  0
    3.0066   -0.0759    0.0000 C   0  0  0  0  0  0  0  0  0  0  0  0
    2.1826    0.0172    0.0000 C   0  0  0  0  0  0  0  0  0  0  0  0
    1.8447   -0.7379    0.0000 S   0  0  0  0  0  0  0  0  0  0  0  0
    1.7688    0.7379    0.0000 C   0  0  0  0  0  0  0  0  0  0  0  0
    4.0170   -2.0516    0.0000 C   0  0  0  0  0  0  0  0  0  0  0  0
    4.0100   -2.8757    0.0000 C   0  0  0  0  0  0  0  0  0  0  0  0
    2.3653   -2.1274    0.0000 O   0  0  0  0  0  0  0  0  0  0  0  0
   -0.2931    1.4550    0.0000 C   0  0  0  0  0  0  0  0  0  0  0  0
    3.5652    0.5379    0.0000 O   0  0  0  0  0  0  0  0  0  0  0  0
   -0.7069    0.7379    0.0000 C   0  0  0  0  0  0  0  0  0  0  0  0
    0.9448    0.7379    0.0000 C   0  0  0  0  0  0  0  0  0  0  0  0
   -2.7687    0.0172    0.0000 C   0  0  0  0  0  0  0  0  0  0  0  0
    3.9342   -1.2275    0.0000 C   0  0  0  0  0  0  0  0  0  0  0  0
    0.5310    1.4550    0.0000 C   0  0  0  0  0  0  0  0  0  0  0  0
   -1.5309    0.7379    0.0000 O   0  0  0  0  0  0  0  0  0  0  0  0
   -3.1825   -0.6999    0.0000 O   0  0  0  0  0  0  0  0  0  0  0  0
   -0.2931    0.0242    0.0000 C   0  0  0  0  0  0  0  0  0  0  0  0
   -1.9447    0.0172    0.0000 C   0  0  0  0  0  0  0  0  0  0  0  0
    0.5310    0.0242    0.0000 C   0  0  0  0  0  0  0  0  0  0  0  0
   -0.7172    2.1688    0.0000 O   0  0  0  0  0  0  0  0  0  0  0  0
   -3.1963    0.7276    0.0000 O   0  0  0  0  0  0  0  0  0  0  0  0
   -1.5447    2.1688    0.0000 C   0  0  0  0  0  0  0  0  0  0  0  0
   -4.0204    0.7241    0.0000 C   0  0  0  0  0  0  0  0  0  0  0  0
   -1.9550    2.8791    0.0000 C   0  0  0  0  0  0  0  0  0  0  0  0
  2  1  1  0  0  0  0
  3  1  1  0  0  0  0
  4  3  1  0  0  0  0
  5  2  1  0  0  0  0
  5  4  1  0  0  0  0
  6  4  2  0  0  0  0
  7 15  1  0  0  0  0
  8  7  3  0  0  0  0
  9  2  2  0  0  0  0
 10 16  1  0  0  0  0
 11  3  2  0  0  0  0
 12 19  1  0  0  0  0
 12 10  2  0  0  0  0
 13  6  1  0  0  0  0
 14 20  1  0  0  0  0
 15  1  1  0  0  0  0
 16 13  2  0  0  0  0
 17 12  1  0  0  0  0
 18 14  2  0  0  0  0
 19 21  2  0  0  0  0
 20 17  1  0  0  0  0
 21 13  1  0  0  0  0
 22 10  1  0  0  0  0
 23 14  1  0  0  0  0
 24 22  1  0  0  0  0
 25 23  1  0  0  0  0
 26 24  1  0  0  0  0
M  END
> <CdId>
1742

> <Mol Weight>
375.396

> <Formula>
C18H17NO6S

> <Click_ID>
CLK023_E07 __ __ 

$$$$
