CLK052H03
 OpenBabel03181417552D

 30 32  0  0  0  0  0  0  0  0999 V2000
   -0.9542    1.6250    0.0000 C   0  0  0  0  0  0  0  0  0  0  0  0
   -0.2417    2.0375    0.0000 N   0  3  0  0  0  0  0  0  0  0  0  0
    0.4750   -0.8500    0.0000 C   0  0  0  0  0  0  0  0  0  0  0  0
   -0.9542    0.8000    0.0000 C   0  0  0  0  0  0  0  0  0  0  0  0
   -0.2417   -0.4375    0.0000 C   0  0  0  0  0  0  0  0  0  0  0  0
   -1.6708    2.0375    0.0000 C   0  0  0  0  0  0  0  0  0  0  0  0
    0.4750   -1.6750    0.0000 C   0  0  0  0  0  0  0  0  0  0  0  0
   -0.2417    0.3875    0.0000 N   0  0  0  0  0  0  0  0  0  0  0  0
   -1.6708    0.3875    0.0000 C   0  0  0  0  0  0  0  0  0  0  0  0
   -2.3833    1.6250    0.0000 C   0  0  0  0  0  0  0  0  0  0  0  0
    1.1875   -0.4375    0.0000 C   0  0  0  0  0  0  0  0  0  0  0  0
   -2.3833    0.8000    0.0000 C   0  0  0  0  0  0  0  0  0  0  0  0
    1.9042   -0.0250    0.0000 N   0  0  0  0  0  0  0  0  0  0  0  0
    1.1875   -2.0875    0.0000 C   0  0  0  0  0  0  0  0  0  0  0  0
    2.6167    0.3875    0.0000 C   0  0  0  0  0  0  0  0  0  0  0  0
    2.6167    1.2125    0.0000 C   0  0  0  0  0  0  0  0  0  0  0  0
    0.4750    1.6250    0.0000 O   0  5  0  0  0  0  0  0  0  0  0  0
   -0.2417    2.8625    0.0000 O   0  0  0  0  0  0  0  0  0  0  0  0
   -3.1000    2.0375    0.0000 O   0  0  0  0  0  0  0  0  0  0  0  0
   -0.9542   -0.8500    0.0000 O   0  0  0  0  0  0  0  0  0  0  0  0
   -3.1000    0.3875    0.0000 O   0  0  0  0  0  0  0  0  0  0  0  0
    1.9042   -1.6750    0.0000 C   0  0  0  0  0  0  0  0  0  0  0  0
    1.9042   -0.8500    0.0000 O   0  0  0  0  0  0  0  0  0  0  0  0
    2.6167   -0.4375    0.0000 C   0  0  0  0  0  0  0  0  0  0  0  0
    1.1875   -2.9125    0.0000 C   0  0  0  0  0  0  0  0  0  0  0  0
   -3.8125    1.6250    0.0000 C   0  0  0  0  0  0  0  0  0  0  0  0
   -3.8125    0.8000    0.0000 C   0  0  0  0  0  0  0  0  0  0  0  0
    2.6167   -2.0875    0.0000 C   0  0  0  0  0  0  0  0  0  0  0  0
    1.9042   -3.3250    0.0000 C   0  0  0  0  0  0  0  0  0  0  0  0
    2.6167   -2.9125    0.0000 C   0  0  0  0  0  0  0  0  0  0  0  0
  2  1  1  0  0  0  0
  3  5  1  0  0  0  0
  4  1  2  0  0  0  0
  5  8  1  0  0  0  0
  6  1  1  0  0  0  0
  7  3  2  0  0  0  0
  8  4  1  0  0  0  0
  9  4  1  0  0  0  0
 10  6  2  0  0  0  0
 11  3  1  0  0  0  0
 12  9  2  0  0  0  0
 12 10  1  0  0  0  0
 13 11  3  0  0  0  0
 14  7  1  0  0  0  0
 15 24  1  0  0  0  0
 16 15  3  0  0  0  0
 17  2  1  0  0  0  0
 18  2  2  0  0  0  0
 19 10  1  0  0  0  0
 20  5  2  0  0  0  0
 21 12  1  0  0  0  0
 22 14  2  0  0  0  0
 23 22  1  0  0  0  0
 24 23  1  0  0  0  0
 25 14  1  0  0  0  0
 26 19  1  0  0  0  0
 27 21  1  0  0  0  0
 27 26  1  0  0  0  0
 28 22  1  0  0  0  0
 29 25  2  0  0  0  0
 30 28  2  0  0  0  0
 30 29  1  0  0  0  0
M  END
> <CdId>
3984

> <Mol Weight>
405.3603

> <Formula>
C21H15N3O6

> <Click_ID>
CLK052H03 __ __ 

$$$$
