CLK003_G11
 OpenBabel03181417552D

 25 27  0  0  0  0  0  0  0  0999 V2000
   -1.3439   -0.3407    0.0000 C    0  0  0  0  0  0  0  0  0  0  0  0
   -1.3439   -1.1736    0.0000 C    0  0  0  0  0  0  0  0  0  0  0  0
   -0.5641   -0.0871    0.0000 C    0  0  3  0  0  0  0  0  0  0  0  0
   -2.0631    0.0719    0.0000 C    0  0  0  0  0  0  0  0  0  0  0  0
   -0.5641   -1.4234    0.0000 N    0  0  0  0  0  0  0  0  0  0  0  0
   -2.0631   -1.5824    0.0000 C    0  0  0  0  0  0  0  0  0  0  0  0
   -0.0946   -0.7193    0.0000 C    0  0  0  0  0  0  0  0  0  0  0  0
    0.2839    0.6890    0.0000 C    0  0  0  0  0  0  0  0  0  0  0  0
   -0.9502    0.7874    0.0000 O    0  0  0  0  0  0  0  0  0  0  0  0
   -2.7710   -0.3407    0.0000 C    0  0  0  0  0  0  0  0  0  0  0  0
   -0.2877   -2.1994    0.0000 C    0  0  0  0  0  0  0  0  0  0  0  0
   -2.7710   -1.1736    0.0000 C    0  0  0  0  0  0  0  0  0  0  0  0
    0.6966   -0.7874    0.0000 O    0  0  0  0  0  0  0  0  0  0  0  0
    1.2455    0.5110    0.0000 C    0  0  0  0  0  0  0  0  0  0  0  0
   -3.4903    0.0719    0.0000 Br   0  0  0  0  0  0  0  0  0  0  0  0
   -0.8139   -2.8241    0.0000 C    0  0  0  0  0  0  0  0  0  0  0  0
    1.7414    1.1697    0.0000 C    0  0  0  0  0  0  0  0  0  0  0  0
    1.5181   -0.0643    0.0000 O    0  0  0  0  0  0  0  0  0  0  0  0
   -1.3477   -3.4563    0.0000 C    0  0  0  0  0  0  0  0  0  0  0  0
    2.5629    1.0600    0.0000 C    0  0  0  0  0  0  0  0  0  0  0  0
    1.4272    1.9231    0.0000 C    0  0  0  0  0  0  0  0  0  0  0  0
    3.0588    1.7035    0.0000 C    0  0  0  0  0  0  0  0  0  0  0  0
    1.9345    2.5818    0.0000 C    0  0  0  0  0  0  0  0  0  0  0  0
    2.7521    2.4720    0.0000 C    0  0  0  0  0  0  0  0  0  0  0  0
    3.2519    3.1194    0.0000 C    0  0  0  0  0  0  0  0  0  0  0  0
  1  2  2  0  0  0  0
  1  3  1  0  0  0  0
  1  4  1  0  0  0  0
  2  5  1  0  0  0  0
  2  6  1  0  0  0  0
  3  7  1  0  0  0  0
  3  8  1  0  0  0  0
  3  9  1  0  0  0  0
  4 10  2  0  0  0  0
  5 11  1  0  0  0  0
  5  7  1  0  0  0  0
  6 12  2  0  0  0  0
  7 13  2  0  0  0  0
  8 14  1  0  0  0  0
 10 15  1  0  0  0  0
 10 12  1  0  0  0  0
 11 16  1  0  0  0  0
 14 17  1  0  0  0  0
 14 18  2  0  0  0  0
 16 19  3  0  0  0  0
 17 20  1  0  0  0  0
 17 21  2  0  0  0  0
 20 22  2  0  0  0  0
 21 23  1  0  0  0  0
 22 24  1  0  0  0  0
 23 24  2  0  0  0  0
 24 25  1  0  0  0  0
M  END
> <CdId>
230

> <Mol Weight>
398.25

> <Formula>
C20H16BrNO3

> <Click_ID>
CLK003_G11 __ __ 

$$$$
