CLK018_D04
 OpenBabel03181417552D

 24 26  0  0  0  0  0  0  0  0999 V2000
    8.5970   -3.2609    0.0000 N   0  0  0  0  0  0  0  0  0  0  0  0
    8.1836   -3.9749    0.0000 C   0  0  0  0  0  0  0  0  0  0  0  0
    7.2901   -2.9854    0.0000 C   0  0  0  0  0  0  0  0  0  0  0  0
    8.0416   -2.6472    0.0000 C   0  0  0  0  0  0  0  0  0  0  0  0
    7.3778   -3.8121    0.0000 S   0  0  0  0  0  0  0  0  0  0  0  0
    6.5678   -2.5803    0.0000 C   0  0  0  0  0  0  0  0  0  0  0  0
    3.7077   -4.2380    0.0000 N   0  0  0  0  0  0  0  0  0  0  0  0
    5.8538   -2.9979    0.0000 C   0  0  0  0  0  0  0  0  0  0  0  0
    4.4259   -3.8246    0.0000 C   0  0  0  0  0  0  0  0  0  0  0  0
    9.9080   -3.8497    0.0000 C   0  0  0  0  0  0  0  0  0  0  0  0
    4.4259   -2.9979    0.0000 C   0  0  0  0  0  0  0  0  0  0  0  0
   10.7264   -3.7620    0.0000 C   0  0  0  0  0  0  0  0  0  0  0  0
    5.1398   -2.5845    0.0000 C   0  0  0  0  0  0  0  0  0  0  0  0
    8.5301   -4.7348    0.0000 O   0  0  0  0  0  0  0  0  0  0  0  0
    8.2087   -1.8413    0.0000 O   0  0  0  0  0  0  0  0  0  0  0  0
    9.4237   -3.1733    0.0000 C   0  0  0  0  0  0  0  0  0  0  0  0
    5.1398   -4.2380    0.0000 C   0  0  0  0  0  0  0  0  0  0  0  0
    5.8538   -3.8246    0.0000 C   0  0  0  0  0  0  0  0  0  0  0  0
    2.2797   -5.0647    0.0000 O   0  0  0  0  0  0  0  0  0  0  0  0
    2.9937   -3.8246    0.0000 C   0  0  0  0  0  0  0  0  0  0  0  0
    3.7119   -5.0647    0.0000 C   0  0  0  0  0  0  0  0  0  0  0  0
    5.1356   -1.7578    0.0000 C   0  0  0  0  0  0  0  0  0  0  0  0
    2.9979   -5.4780    0.0000 C   0  0  0  0  0  0  0  0  0  0  0  0
    2.2797   -4.2380    0.0000 C   0  0  0  0  0  0  0  0  0  0  0  0
  2  1  1  0  0  0  0
  3  4  1  0  0  0  0
  4  1  1  0  0  0  0
  5  2  1  0  0  0  0
  5  3  1  0  0  0  0
  6  3  2  0  0  0  0
  7  9  1  0  0  0  0
  8  6  1  0  0  0  0
  9 17  1  0  0  0  0
  9 11  2  0  0  0  0
 10 16  1  0  0  0  0
 11 13  1  0  0  0  0
 12 10  3  0  0  0  0
 13  8  2  0  0  0  0
 14  2  2  0  0  0  0
 15  4  2  0  0  0  0
 16  1  1  0  0  0  0
 17 18  2  0  0  0  0
 18  8  1  0  0  0  0
 19 23  1  0  0  0  0
 19 24  1  0  0  0  0
 20  7  1  0  0  0  0
 21  7  1  0  0  0  0
 22 13  1  0  0  0  0
 23 21  1  0  0  0  0
 24 20  1  0  0  0  0
M  END
> <CdId>
1349

> <Mol Weight>
342.412

> <Formula>
C18H18N2O3S

> <Click_ID>
CLK018_D04 __ __ 

$$$$
