CLK051D02
 OpenBabel03181417552D

 23 25  0  0  0  0  0  0  0  0999 V2000
   -0.8208    0.8708    0.0000 N   0  0  0  0  0  0  0  0  0  0  0  0
   -1.3042    1.5375    0.0000 C   0  0  0  0  0  0  0  0  0  0  0  0
   -1.3042    0.2042    0.0000 C   0  0  0  0  0  0  0  0  0  0  0  0
   -2.0917    0.4583    0.0000 C   0  0  3  0  0  0  0  0  0  0  0  0
   -2.0917    1.2833    0.0000 C   0  0  3  0  0  0  0  0  0  0  0  0
    0.0042    0.8708    0.0000 C   0  0  0  0  0  0  0  0  0  0  0  0
    0.4167    0.1583    0.0000 C   0  0  0  0  0  0  0  0  0  0  0  0
    3.7167   -1.2708    0.0000 C   0  0  0  0  0  0  0  0  0  0  0  0
    4.5417   -1.2708    0.0000 C   0  0  0  0  0  0  0  0  0  0  0  0
    1.2417    0.1583    0.0000 N   0  0  0  0  0  0  0  0  0  0  0  0
   -1.0500   -0.5792    0.0000 O   0  0  0  0  0  0  0  0  0  0  0  0
   -1.0500    2.3250    0.0000 O   0  0  0  0  0  0  0  0  0  0  0  0
    0.0042   -0.5583    0.0000 O   0  0  0  0  0  0  0  0  0  0  0  0
    1.6542   -0.5583    0.0000 C   0  0  0  0  0  0  0  0  0  0  0  0
    2.8917   -1.2708    0.0000 C   0  0  0  0  0  0  0  0  0  0  0  0
    2.4792   -0.5583    0.0000 C   0  0  0  0  0  0  0  0  0  0  0  0
   -2.8042    0.0458    0.0000 C   0  0  0  0  0  0  0  0  0  0  0  0
   -2.8042    1.6958    0.0000 C   0  0  0  0  0  0  0  0  0  0  0  0
    1.6542   -1.9875    0.0000 C   0  0  0  0  0  0  0  0  0  0  0  0
    1.2417   -1.2708    0.0000 C   0  0  0  0  0  0  0  0  0  0  0  0
    2.4792   -1.9875    0.0000 C   0  0  0  0  0  0  0  0  0  0  0  0
   -3.5208    0.4583    0.0000 C   0  0  0  0  0  0  0  0  0  0  0  0
   -3.5208    1.2833    0.0000 C   0  0  0  0  0  0  0  0  0  0  0  0
  2  1  1  0  0  0  0
  3  1  1  0  0  0  0
  4  3  1  0  0  0  0
  4  5  1  0  0  0  0
  5  2  1  0  0  0  0
  6  1  1  0  0  0  0
  7  6  1  0  0  0  0
  8 15  1  0  0  0  0
  9  8  3  0  0  0  0
 10  7  1  0  0  0  0
 11  3  2  0  0  0  0
 12  2  2  0  0  0  0
 13  7  2  0  0  0  0
 14 10  1  0  0  0  0
 15 16  1  0  0  0  0
 16 14  2  0  0  0  0
 17  4  1  0  0  0  0
 18  5  1  0  0  0  0
 19 20  2  0  0  0  0
 20 14  1  0  0  0  0
 21 15  2  0  0  0  0
 21 19  1  0  0  0  0
 22 17  1  0  0  0  0
 22 23  1  0  0  0  0
 23 18  1  0  0  0  0
M  END
> <CdId>
3892

> <Mol Weight>
310.3471

> <Formula>
C18H18N2O3

> <Click_ID>
CLK051D02 __ __ 

$$$$
