CLK024_A09
 OpenBabel03181417552D

 33 35  0  0  0  0  0  0  0  0999 V2000
   -2.2766   -2.8751    0.0000 N    0  0  0  0  0  0  0  0  0  0  0  0
   -2.0257   -3.6695    0.0000 C    0  0  0  0  0  0  0  0  0  0  0  0
   -1.6060   -2.3936    0.0000 C    0  0  0  0  0  0  0  0  0  0  0  0
   -0.9630   -2.9060    0.0000 C    0  0  0  0  0  0  0  0  0  0  0  0
   -1.1933   -3.6695    0.0000 S    0  0  0  0  0  0  0  0  0  0  0  0
   -0.1926   -2.6000    0.0000 C    0  0  0  0  0  0  0  0  0  0  0  0
    0.1822   -0.1582    0.0000 C    0  0  0  0  0  0  0  0  0  0  0  0
   -0.5881   -0.4505    0.0000 C    0  0  0  0  0  0  0  0  0  0  0  0
   -0.0757   -1.7952    0.0000 C    0  0  0  0  0  0  0  0  0  0  0  0
    0.8219   -0.6741    0.0000 C    0  0  0  0  0  0  0  0  0  0  0  0
    0.3061    0.6603    0.0000 O    0  0  0  0  0  0  0  0  0  0  0  0
    1.7849    2.1976    0.0000 C    0  0  0  0  0  0  0  0  0  0  0  0
   -2.9989   -1.6370    0.0000 C    0  0  0  0  0  0  0  0  0  0  0  0
    1.0695    1.7849    0.0000 C    0  0  0  0  0  0  0  0  0  0  0  0
   -2.9989   -0.8116    0.0000 C    0  0  0  0  0  0  0  0  0  0  0  0
    1.7849    3.0230    0.0000 C    0  0  0  0  0  0  0  0  0  0  0  0
   -2.6171   -4.2576    0.0000 O    0  0  0  0  0  0  0  0  0  0  0  0
   -1.4788   -1.5717    0.0000 O    0  0  0  0  0  0  0  0  0  0  0  0
   -0.7154   -1.2759    0.0000 C    0  0  0  0  0  0  0  0  0  0  0  0
    0.6981   -1.4857    0.0000 C    0  0  0  0  0  0  0  0  0  0  0  0
   -2.9920   -2.4624    0.0000 C    0  0  0  0  0  0  0  0  0  0  0  0
    1.0730    0.9630    0.0000 C    0  0  0  0  0  0  0  0  0  0  0  0
    0.3576    2.1976    0.0000 C    0  0  0  0  0  0  0  0  0  0  0  0
    2.1976   -1.0489    0.0000 C    0  0  0  0  0  0  0  0  0  0  0  0
    1.0695    3.4322    0.0000 C    0  0  0  0  0  0  0  0  0  0  0  0
    2.9955   -0.8392    0.0000 C    0  0  0  0  0  0  0  0  0  0  0  0
    2.4968    1.7849    0.0000 Cl   0  0  0  0  0  0  0  0  0  0  0  0
   -1.3138   -0.0378    0.0000 O    0  0  0  0  0  0  0  0  0  0  0  0
    0.3576    3.0230    0.0000 C    0  0  0  0  0  0  0  0  0  0  0  0
    1.0592    4.2576    0.0000 Cl   0  0  0  0  0  0  0  0  0  0  0  0
    1.6233   -0.4643    0.0000 C    0  0  0  0  0  0  0  0  0  0  0  0
   -2.1116   -0.2511    0.0000 C    0  0  0  0  0  0  0  0  0  0  0  0
   -2.6997    0.3370    0.0000 C    0  0  0  0  0  0  0  0  0  0  0  0
  2  1  1  0  0  0  0
  3  1  1  0  0  0  0
  4  3  1  0  0  0  0
  4  5  1  0  0  0  0
  5  2  1  0  0  0  0
  6  4  2  0  0  0  0
  7 10  1  0  0  0  0
  7  8  2  0  0  0  0
  8 19  1  0  0  0  0
  9  6  1  0  0  0  0
 10 20  2  0  0  0  0
 11  7  1  0  0  0  0
 12 14  2  0  0  0  0
 13 21  1  0  0  0  0
 14 22  1  0  0  0  0
 15 13  3  0  0  0  0
 16 12  1  0  0  0  0
 17  2  2  0  0  0  0
 18  3  2  0  0  0  0
 19  9  2  0  0  0  0
 20  9  1  0  0  0  0
 21  1  1  0  0  0  0
 22 11  1  0  0  0  0
 23 14  1  0  0  0  0
 24 31  1  0  0  0  0
 25 29  1  0  0  0  0
 25 16  2  0  0  0  0
 26 24  2  0  0  0  0
 27 12  1  0  0  0  0
 28  8  1  0  0  0  0
 29 23  2  0  0  0  0
 30 25  1  0  0  0  0
 31 10  1  0  0  0  0
 32 28  1  0  0  0  0
 33 32  1  0  0  0  0
M  END
> <CdId>
1784

> <Mol Weight>
502.41

> <Formula>
C25H21Cl2NO4S

> <Click_ID>
CLK024_A09 __ __ 

$$$$
