CLK026_H03
 OpenBabel03181417552D

 15 16  0  0  0  0  0  0  0  0999 V2000
    0.3642    0.0000    0.0000 C    0  0  0  0  0  0  0  0  0  0  0  0
    1.0754    0.4226    0.0000 C    0  0  0  0  0  0  0  0  0  0  0  0
   -1.7900   -1.2403    0.0000 C    0  0  0  0  0  0  0  0  0  0  0  0
   -2.5012   -1.6457    0.0000 C    0  0  0  0  0  0  0  0  0  0  0  0
    0.3642   -0.8281    0.0000 C    0  0  0  0  0  0  0  0  0  0  0  0
    1.7900    0.0068    0.0000 C    0  0  0  0  0  0  0  0  0  0  0  0
    1.0754   -1.2403    0.0000 C    0  0  0  0  0  0  0  0  0  0  0  0
    1.7900   -0.8281    0.0000 C    0  0  0  0  0  0  0  0  0  0  0  0
   -0.3505    0.4226    0.0000 Br   0  0  0  0  0  0  0  0  0  0  0  0
   -0.3539   -1.2403    0.0000 O    0  0  0  0  0  0  0  0  0  0  0  0
   -1.0685   -0.8281    0.0000 C    0  0  0  0  0  0  0  0  0  0  0  0
    1.0720    1.2334    0.0000 C    0  0  0  0  0  0  0  0  0  0  0  0
    2.4978    0.4226    0.0000 C    0  0  0  0  0  0  0  0  0  0  0  0
    1.7763    1.6492    0.0000 C    0  0  0  0  0  0  0  0  0  0  0  0
    2.4978    1.2403    0.0000 C    0  0  0  0  0  0  0  0  0  0  0  0
  2  1  1  0  0  0  0
  3 11  1  0  0  0  0
  4  3  3  0  0  0  0
  5  1  2  0  0  0  0
  6  2  1  0  0  0  0
  7  5  1  0  0  0  0
  8  7  2  0  0  0  0
  8  6  1  0  0  0  0
  9  1  1  0  0  0  0
 10  5  1  0  0  0  0
 11 10  1  0  0  0  0
 12  2  2  0  0  0  0
 13  6  2  0  0  0  0
 13 15  1  0  0  0  0
 14 12  1  0  0  0  0
 15 14  2  0  0  0  0
M  END
> <CdId>
2008

> <Mol Weight>
261.114

> <Formula>
C13H9BrO

> <Click_ID>
CLK026_H03 __ __ 

$$$$
