CLK021_B07
 OpenBabel03181417552D

 20 19  0  0  0  0  0  0  0  0999 V2000
    1.7453    4.8236    0.0000 C    0  0  0  0  0  0  0  0  0  0  0  0
    1.0307    5.2358    0.0000 C    0  0  0  0  0  0  0  0  0  0  0  0
    3.1745    2.3591    0.0000 C    0  0  0  0  0  0  0  0  0  0  0  0
    3.1745    3.1836    0.0000 C    0  0  0  0  0  0  0  0  0  0  0  0
    3.8800    1.9468    0.0000 C    0  0  0  0  0  0  0  0  0  0  0  0
    3.8800    3.5959    0.0000 C    0  0  0  0  0  0  0  0  0  0  0  0
    4.5946    2.3591    0.0000 C    0  0  0  0  0  0  0  0  0  0  0  0
    4.5946    3.1836    0.0000 C    0  0  0  0  0  0  0  0  0  0  0  0
    2.4599    1.9468    0.0000 O    0  0  0  0  0  0  0  0  0  0  0  0
    6.0238    2.3591    0.0000 N    0  0  0  0  0  0  0  0  0  0  0  0
    2.4599    3.5959    0.0000 O    0  0  0  0  0  0  0  0  0  0  0  0
    2.4599    4.4113    0.0000 C    0  0  0  0  0  0  0  0  0  0  0  0
    7.4530    2.3591    0.0000 C    0  0  0  0  0  0  0  0  0  0  0  0
    8.8822    2.3591    0.0000 O    0  0  0  0  0  0  0  0  0  0  0  0
    5.3092    1.9468    0.0000 C    0  0  0  0  0  0  0  0  0  0  0  0
    6.7384    1.9468    0.0000 C    0  0  0  0  0  0  0  0  0  0  0  0
    8.1676    1.9468    0.0000 C    0  0  0  0  0  0  0  0  0  0  0  0
    2.4599    1.1223    0.0000 C    0  0  0  0  0  0  0  0  0  0  0  0
    1.7453    0.7100    0.0000 C    0  0  0  0  0  0  0  0  0  0  0  0
    9.7067    0.7100    0.0000 Cl   0  0  0  0  0  0  0  0  0  0  0  0
  2  1  3  0  0  0  0
  3  4  2  0  0  0  0
  4 11  1  0  0  0  0
  5  3  1  0  0  0  0
  5  7  2  0  0  0  0
  6  4  1  0  0  0  0
  7  8  1  0  0  0  0
  8  6  2  0  0  0  0
  9  3  1  0  0  0  0
 10 15  1  0  0  0  0
 11 12  1  0  0  0  0
 12  1  1  0  0  0  0
 13 16  1  0  0  0  0
 14 17  1  0  0  0  0
 15  7  1  0  0  0  0
 16 10  1  0  0  0  0
 17 13  1  0  0  0  0
 18  9  1  0  0  0  0
 19 18  1  0  0  0  0
M  END
> <CdId>
1572

> <Mol Weight>
299.793

> <Formula>
C15H22ClNO3

> <Click_ID>
CLK021_B07 __ __ 

$$$$
