CLK027_B10
 OpenBabel03181417552D

 21 23  0  0  0  0  0  0  0  0999 V2000
   -1.3588   -0.2167    0.0000 N   0  0  0  0  0  0  0  0  0  0  0  0
   -1.9127   -0.8291    0.0000 C   0  0  0  0  0  0  0  0  0  0  0  0
   -0.6124   -0.5435    0.0000 C   0  0  0  0  0  0  0  0  0  0  0  0
   -1.4964   -1.5480    0.0000 N   0  0  0  0  0  0  0  0  0  0  0  0
   -0.6846   -1.3657    0.0000 O   0  0  0  0  0  0  0  0  0  0  0  0
   -2.7314   -0.7431    0.0000 C   0  0  0  0  0  0  0  0  0  0  0  0
    3.6602    1.1421    0.0000 C   0  0  0  0  0  0  0  0  0  0  0  0
    4.3723    1.5515    0.0000 C   0  0  0  0  0  0  0  0  0  0  0  0
    0.0997   -0.1273    0.0000 C   0  0  0  0  0  0  0  0  0  0  0  0
   -4.0387   -1.3278    0.0000 N   0  0  0  0  0  0  0  0  0  0  0  0
    0.8188   -0.5401    0.0000 C   0  0  0  0  0  0  0  0  0  0  0  0
    0.0997    0.7052    0.0000 C   0  0  0  0  0  0  0  0  0  0  0  0
   -3.2164   -1.4104    0.0000 C   0  0  0  0  0  0  0  0  0  0  0  0
    1.5309    0.7086    0.0000 C   0  0  0  0  0  0  0  0  0  0  0  0
    0.8118    1.1146    0.0000 C   0  0  0  0  0  0  0  0  0  0  0  0
    1.5342   -0.1204    0.0000 C   0  0  0  0  0  0  0  0  0  0  0  0
    2.9516    0.7224    0.0000 C   0  0  0  0  0  0  0  0  0  0  0  0
    2.2326    1.1284    0.0000 O   0  0  0  0  0  0  0  0  0  0  0  0
   -3.0651    0.0103    0.0000 C   0  0  0  0  0  0  0  0  0  0  0  0
   -4.3758   -0.5676    0.0000 C   0  0  0  0  0  0  0  0  0  0  0  0
   -3.8907    0.0963    0.0000 C   0  0  0  0  0  0  0  0  0  0  0  0
  2  1  1  0  0  0  0
  3  1  2  0  0  0  0
  4  2  2  0  0  0  0
  4  5  1  0  0  0  0
  5  3  1  0  0  0  0
  6  2  1  0  0  0  0
  7 17  1  0  0  0  0
  8  7  3  0  0  0  0
  9  3  1  0  0  0  0
 10 13  2  0  0  0  0
 10 20  1  0  0  0  0
 11  9  2  0  0  0  0
 12  9  1  0  0  0  0
 13  6  1  0  0  0  0
 14 15  1  0  0  0  0
 15 12  2  0  0  0  0
 16 11  1  0  0  0  0
 16 14  2  0  0  0  0
 17 18  1  0  0  0  0
 18 14  1  0  0  0  0
 19  6  2  0  0  0  0
 20 21  2  0  0  0  0
 21 19  1  0  0  0  0
M  END
> <CdId>
2034

> <Mol Weight>
277.2774

> <Formula>
C16H11N3O2

> <Click_ID>
CLK027_B10 __ __ 

$$$$
