CLK050D07
 OpenBabel03181417552D

 16 16  0  0  0  0  0  0  0  0999 V2000
   -1.3875    0.0292    0.0000 C   0  0  0  0  0  0  0  0  0  0  0  0
   -3.5292   -0.3833    0.0000 C   0  0  0  0  0  0  0  0  0  0  0  0
   -4.2458   -0.7958    0.0000 C   0  0  0  0  0  0  0  0  0  0  0  0
   -1.3875    0.8542    0.0000 O   0  0  0  0  0  0  0  0  0  0  0  0
   -0.6708   -0.3833    0.0000 N   0  0  0  0  0  0  0  0  0  0  0  0
    2.1875   -0.3833    0.0000 C   0  0  0  0  0  0  0  0  0  0  0  0
   -2.1000   -0.3833    0.0000 N   0  0  0  0  0  0  0  0  0  0  0  0
    1.4708    0.0292    0.0000 C   0  0  0  0  0  0  0  0  0  0  0  0
    2.1875   -1.2083    0.0000 F   0  0  0  0  0  0  0  0  0  0  0  0
   -2.8167    0.0292    0.0000 C   0  0  0  0  0  0  0  0  0  0  0  0
    0.0417    0.0292    0.0000 C   0  0  0  0  0  0  0  0  0  0  0  0
    0.7583   -0.3833    0.0000 C   0  0  0  0  0  0  0  0  0  0  0  0
    2.9000    0.0292    0.0000 C   0  0  0  0  0  0  0  0  0  0  0  0
    1.4708    0.8542    0.0000 C   0  0  0  0  0  0  0  0  0  0  0  0
    2.1875    1.2667    0.0000 C   0  0  0  0  0  0  0  0  0  0  0  0
    2.9000    0.8542    0.0000 C   0  0  0  0  0  0  0  0  0  0  0  0
  2 10  1  0  0  0  0
  3  2  3  0  0  0  0
  4  1  2  0  0  0  0
  5  1  1  0  0  0  0
  6  8  2  0  0  0  0
  7  1  1  0  0  0  0
  8 12  1  0  0  0  0
  9  6  1  0  0  0  0
 10  7  1  0  0  0  0
 11  5  1  0  0  0  0
 12 11  1  0  0  0  0
 13  6  1  0  0  0  0
 14  8  1  0  0  0  0
 15 14  2  0  0  0  0
 15 16  1  0  0  0  0
 16 13  2  0  0  0  0
M  END
> <CdId>
3852

> <Mol Weight>
220.2428

> <Formula>
C12H13FN2O

> <Click_ID>
CLK050D07 __ __ 

$$$$
