CLK029_G03
 OpenBabel03181417552D

 28 30  0  0  0  0  0  0  0  0999 V2000
   -1.1750    0.9659    0.0000 C   0  0  0  0  0  0  0  0  0  0  0  0
   -1.6642    0.2969    0.0000 N   0  0  0  0  0  0  0  0  0  0  0  0
   -0.3470    0.9659    0.0000 N   0  0  0  0  0  0  0  0  0  0  0  0
   -1.6642    1.6391    0.0000 S   0  0  0  0  0  0  0  0  0  0  0  0
   -2.4545    0.5520    0.0000 C   0  0  0  0  0  0  0  0  0  0  0  0
   -2.4545    1.3799    0.0000 C   0  0  0  0  0  0  0  0  0  0  0  0
   -0.1338    1.7688    0.0000 C   0  0  0  0  0  0  0  0  0  0  0  0
   -0.6021   -0.6565    0.0000 C   0  0  0  0  0  0  0  0  0  0  0  0
   -0.0502   -0.0418    0.0000 C   0  0  0  0  0  0  0  0  0  0  0  0
    2.2580    2.4337    0.0000 C   0  0  0  0  0  0  0  0  0  0  0  0
    3.0526    2.6553    0.0000 N   0  0  0  0  0  0  0  0  0  0  0  0
   -1.4050   -0.4809    0.0000 C   0  0  0  0  0  0  0  0  0  0  0  0
   -0.7234    2.3542    0.0000 O   0  0  0  0  0  0  0  0  0  0  0  0
    2.0448    1.6308    0.0000 O   0  0  0  0  0  0  0  0  0  0  0  0
    0.8698    2.7933    0.0000 S   0  0  0  0  0  0  0  0  0  0  0  0
    0.6565    1.9904    0.0000 C   0  0  0  0  0  0  0  0  0  0  0  0
    3.6422    2.0699    0.0000 C   0  0  0  0  0  0  0  0  0  0  0  0
    1.6684    3.0107    0.0000 C   0  0  0  0  0  0  0  0  0  0  0  0
   -3.1696    0.1463    0.0000 C   0  0  0  0  0  0  0  0  0  0  0  0
   -3.1696    1.8022    0.0000 C   0  0  0  0  0  0  0  0  0  0  0  0
    3.4289    1.2796    0.0000 C   0  0  0  0  0  0  0  0  0  0  0  0
    4.4325    2.3040    0.0000 C   0  0  0  0  0  0  0  0  0  0  0  0
   -3.8763    0.5520    0.0000 C   0  0  0  0  0  0  0  0  0  0  0  0
   -3.8763    1.3799    0.0000 C   0  0  0  0  0  0  0  0  0  0  0  0
    5.0179    1.7270    0.0000 C   0  0  0  0  0  0  0  0  0  0  0  0
    4.0143    0.7025    0.0000 C   0  0  0  0  0  0  0  0  0  0  0  0
    4.8172    0.9241    0.0000 C   0  0  0  0  0  0  0  0  0  0  0  0
   -4.5997    1.7897    0.0000 H   0  0  0  0  0  0  0  0  0  0  0  0
  2  1  1  0  0  0  0
  3  1  2  0  0  0  0
  4  1  1  0  0  0  0
  5  2  1  0  0  0  0
  6  4  1  0  0  0  0
  6  5  2  0  0  0  0
  7  3  1  0  0  0  0
  8 12  1  0  0  0  0
  9  8  3  0  0  0  0
 10 18  1  0  0  0  0
 11 10  1  0  0  0  0
 12  2  1  0  0  0  0
 13  7  2  0  0  0  0
 14 10  2  0  0  0  0
 15 16  1  0  0  0  0
 16  7  1  0  0  0  0
 17 11  1  0  0  0  0
 18 15  1  0  0  0  0
 19  5  1  0  0  0  0
 20  6  1  0  0  0  0
 21 17  1  0  0  0  0
 22 17  1  0  0  0  0
 23 19  2  0  0  0  0
 24 20  2  0  0  0  0
 24 23  1  0  0  0  0
 25 22  1  0  0  0  0
 26 21  1  0  0  0  0
 26 27  1  0  0  0  0
 27 25  1  0  0  0  0
 28 24  1  0  0  0  0
M  END
> <CdId>
2227

> <Mol Weight>
401.546

> <Formula>
C20H23N3O2S2

> <Click_ID>
CLK029_G03 __ __ 

$$$$
