CLK023_E08
 OpenBabel03181417552D

 31 32  0  0  0  0  0  0  0  0999 V2000
   -0.6119   -0.7116    0.0000 C   0  0  0  0  0  0  0  0  0  0  0  0
   -1.4369   -0.7116    0.0000 C   0  0  0  0  0  0  0  0  0  0  0  0
   -0.1994    0.0000    0.0000 C   0  0  0  0  0  0  0  0  0  0  0  0
   -0.1994   -1.4266    0.0000 C   0  0  0  0  0  0  0  0  0  0  0  0
   -1.8494    0.0000    0.0000 N   0  0  0  0  0  0  0  0  0  0  0  0
    1.8528    0.7150    0.0000 C   0  0  0  0  0  0  0  0  0  0  0  0
    0.6256    0.0000    0.0000 C   0  0  0  0  0  0  0  0  0  0  0  0
    2.2653    0.0000    0.0000 C   0  0  0  0  0  0  0  0  0  0  0  0
    1.8528   -0.7116    0.0000 C   0  0  0  0  0  0  0  0  0  0  0  0
    0.2063   -2.1382    0.0000 N   0  0  0  0  0  0  0  0  0  0  0  0
    4.3278    0.7150    0.0000 C   0  0  0  0  0  0  0  0  0  0  0  0
    5.1528    0.7150    0.0000 C   0  0  0  0  0  0  0  0  0  0  0  0
    1.0313    0.7116    0.0000 C   0  0  0  0  0  0  0  0  0  0  0  0
    1.0313   -0.7116    0.0000 C   0  0  0  0  0  0  0  0  0  0  0  0
   -2.6812    0.0000    0.0000 C   0  0  0  0  0  0  0  0  0  0  0  0
   -1.8494   -1.4266    0.0000 O   0  0  0  0  0  0  0  0  0  0  0  0
   -3.0938   -0.7116    0.0000 C   0  0  0  0  0  0  0  0  0  0  0  0
    1.8528   -2.1450    0.0000 C   0  0  0  0  0  0  0  0  0  0  0  0
    2.2653   -2.8600    0.0000 C   0  0  0  0  0  0  0  0  0  0  0  0
   -3.9188   -0.7116    0.0000 C   0  0  0  0  0  0  0  0  0  0  0  0
    2.2550    1.4300    0.0000 O   0  0  0  0  0  0  0  0  0  0  0  0
    3.0903    0.0000    0.0000 O   0  0  0  0  0  0  0  0  0  0  0  0
    2.2653   -1.4266    0.0000 C   0  0  0  0  0  0  0  0  0  0  0  0
    3.5028    0.7150    0.0000 C   0  0  0  0  0  0  0  0  0  0  0  0
   -4.3313   -1.4266    0.0000 O   0  0  0  0  0  0  0  0  0  0  0  0
   -3.9188    0.7253    0.0000 C   0  0  0  0  0  0  0  0  0  0  0  0
   -3.0938    0.7253    0.0000 C   0  0  0  0  0  0  0  0  0  0  0  0
   -4.3381    0.0138    0.0000 C   0  0  0  0  0  0  0  0  0  0  0  0
    1.8425    2.1415    0.0000 C   0  0  0  0  0  0  0  0  0  0  0  0
   -5.1528   -1.4266    0.0000 C   0  0  0  0  0  0  0  0  0  0  0  0
    2.2550    2.8634    0.0000 C   0  0  0  0  0  0  0  0  0  0  0  0
  2  1  1  0  0  0  0
  3  1  2  0  0  0  0
  4  1  1  0  0  0  0
  5  2  1  0  0  0  0
  6 13  2  0  0  0  0
  6  8  1  0  0  0  0
  7  3  1  0  0  0  0
  8  9  2  0  0  0  0
  9 14  1  0  0  0  0
 10  4  3  0  0  0  0
 11 24  1  0  0  0  0
 12 11  3  0  0  0  0
 13  7  1  0  0  0  0
 14  7  2  0  0  0  0
 15  5  1  0  0  0  0
 16  2  2  0  0  0  0
 17 15  1  0  0  0  0
 18 23  1  0  0  0  0
 19 18  2  0  0  0  0
 20 17  2  0  0  0  0
 21  6  1  0  0  0  0
 22  8  1  0  0  0  0
 23  9  1  0  0  0  0
 24 22  1  0  0  0  0
 25 20  1  0  0  0  0
 26 27  1  0  0  0  0
 27 15  2  0  0  0  0
 28 26  2  0  0  0  0
 28 20  1  0  0  0  0
 29 21  1  0  0  0  0
 30 25  1  0  0  0  0
 31 29  1  0  0  0  0
M  END
> <CdId>
1743

> <Mol Weight>
416.4691

> <Formula>
C25H24N2O4

> <Click_ID>
CLK023_E08 __ __ 

$$$$
