CLK033_B07
 OpenBabel03181417552D

 21 23  0  0  0  0  0  0  0  0999 V2000
   -4.5943    2.5561    0.0000 C    0  0  0  0  0  0  0  0  0  0  0  0
   -3.8801    2.9779    0.0000 N    0  0  0  0  0  0  0  0  0  0  0  0
   -4.6862    1.7375    0.0000 N    0  0  0  0  0  0  0  0  0  0  0  0
   -5.3336    2.9028    0.0000 S    0  0  0  0  0  0  0  0  0  0  0  0
   -5.4965    1.5746    0.0000 C    0  0  0  0  0  0  0  0  0  0  0  0
   -3.8801    3.8091    0.0000 C    0  0  0  0  0  0  0  0  0  0  0  0
   -5.8975    2.3013    0.0000 C    0  0  0  0  0  0  0  0  0  0  0  0
   -3.1659    4.2226    0.0000 C    0  0  0  0  0  0  0  0  0  0  0  0
   -4.2560    0.3508    0.0000 C    0  0  0  0  0  0  0  0  0  0  0  0
   -2.3932    3.8926    0.0000 S    0  0  0  0  0  0  0  0  0  0  0  0
   -4.4314   -0.4553    0.0000 C    0  0  0  0  0  0  0  0  0  0  0  0
   -5.9225    0.8729    0.0000 C    0  0  0  0  0  0  0  0  0  0  0  0
   -4.6069    4.2226    0.0000 O    0  0  0  0  0  0  0  0  0  0  0  0
   -3.0657    5.0413    0.0000 C    0  0  0  0  0  0  0  0  0  0  0  0
   -1.8502    4.5025    0.0000 C    0  0  0  0  0  0  0  0  0  0  0  0
   -4.0681    1.1611    0.0000 C    0  0  0  0  0  0  0  0  0  0  0  0
   -2.2637    5.2125    0.0000 C    0  0  0  0  0  0  0  0  0  0  0  0
   -5.5215    0.1462    0.0000 Cl   0  0  0  0  0  0  0  0  0  0  0  0
   -6.7203    2.3139    0.0000 C    0  0  0  0  0  0  0  0  0  0  0  0
   -7.1463    1.6038    0.0000 C    0  0  0  0  0  0  0  0  0  0  0  0
   -6.7329    0.8771    0.0000 C    0  0  0  0  0  0  0  0  0  0  0  0
  2  1  2  0  0  0  0
  3  1  1  0  0  0  0
  4  1  1  0  0  0  0
  5  3  1  0  0  0  0
  6  2  1  0  0  0  0
  7  4  1  0  0  0  0
  7  5  2  0  0  0  0
  8  6  1  0  0  0  0
  9 16  1  0  0  0  0
 10  8  1  0  0  0  0
 11  9  3  0  0  0  0
 12  5  1  0  0  0  0
 13  6  2  0  0  0  0
 14  8  2  0  0  0  0
 15 10  1  0  0  0  0
 15 17  2  0  0  0  0
 16  3  1  0  0  0  0
 17 14  1  0  0  0  0
 18 12  1  0  0  0  0
 19  7  1  0  0  0  0
 20 19  2  0  0  0  0
 21 12  2  0  0  0  0
 21 20  1  0  0  0  0
M  END
> <CdId>
2501

> <Mol Weight>
332.828

> <Formula>
C15H9ClN2OS2

> <Click_ID>
CLK033_B07 __ __ 

$$$$
