CLK039C10
 OpenBabel03181417552D

 19 20  0  0  0  0  0  0  0  0999 V2000
    1.3375   -0.0292    0.0000 C   0  0  0  0  0  0  0  0  0  0  0  0
    1.3375    0.7958    0.0000 C   0  0  0  0  0  0  0  0  0  0  0  0
    0.6250   -0.4417    0.0000 C   0  0  0  0  0  0  0  0  0  0  0  0
   -0.0917   -0.0292    0.0000 N   0  0  0  0  0  0  0  0  0  0  0  0
    0.6250    1.2083    0.0000 N   0  0  0  0  0  0  0  0  0  0  0  0
    2.1208    1.0500    0.0000 S   0  0  0  0  0  0  0  0  0  0  0  0
    2.1208   -0.2833    0.0000 C   0  0  0  0  0  0  0  0  0  0  0  0
    2.6083    0.3833    0.0000 C   0  0  0  0  0  0  0  0  0  0  0  0
   -0.0917    0.7958    0.0000 C   0  0  0  0  0  0  0  0  0  0  0  0
   -0.8042   -0.4417    0.0000 C   0  0  0  0  0  0  0  0  0  0  0  0
   -3.6625   -0.4417    0.0000 C   0  0  0  0  0  0  0  0  0  0  0  0
   -4.3792   -0.8542    0.0000 C   0  0  0  0  0  0  0  0  0  0  0  0
   -1.5208   -0.0292    0.0000 C   0  0  0  0  0  0  0  0  0  0  0  0
    0.6250   -1.2667    0.0000 O   0  0  0  0  0  0  0  0  0  0  0  0
   -1.5208    0.7958    0.0000 O   0  0  0  0  0  0  0  0  0  0  0  0
   -2.2333   -0.4417    0.0000 N   0  0  0  0  0  0  0  0  0  0  0  0
    2.3792   -1.0708    0.0000 C   0  0  0  0  0  0  0  0  0  0  0  0
    3.4333    0.3833    0.0000 C   0  0  0  0  0  0  0  0  0  0  0  0
   -2.9500   -0.0292    0.0000 C   0  0  0  0  0  0  0  0  0  0  0  0
  2  1  2  0  0  0  0
  3  1  1  0  0  0  0
  4  3  1  0  0  0  0
  4  9  1  0  0  0  0
  5  2  1  0  0  0  0
  6  2  1  0  0  0  0
  6  8  1  0  0  0  0
  7  1  1  0  0  0  0
  8  7  2  0  0  0  0
  9  5  2  0  0  0  0
 10  4  1  0  0  0  0
 11 19  1  0  0  0  0
 12 11  3  0  0  0  0
 13 10  1  0  0  0  0
 14  3  2  0  0  0  0
 15 13  2  0  0  0  0
 16 13  1  0  0  0  0
 17  7  1  0  0  0  0
 18  8  1  0  0  0  0
 19 16  1  0  0  0  0
M  END
> <CdId>
2995

> <Mol Weight>
275.326

> <Formula>
C13H13N3O2S

> <Click_ID>
CLK039C10 __ __ 

$$$$
