CLK049H08
 OpenBabel03181417552D

 17 18  0  0  0  0  0  0  0  0999 V2000
   -0.2547    1.8865    0.0000 N   0  0  0  0  0  0  0  0  0  0  0  0
   -0.2547   -1.4192    0.0000 C   0  0  0  0  0  0  0  0  0  0  0  0
    1.1770   -3.0720    0.0000 C   0  0  0  0  0  0  0  0  0  0  0  0
    1.8907   -3.4853    0.0000 C   0  0  0  0  0  0  0  0  0  0  0  0
   -0.2547    1.0601    0.0000 C   0  0  0  0  0  0  0  0  0  0  0  0
   -0.2547   -0.5927    0.0000 C   0  0  0  0  0  0  0  0  0  0  0  0
    0.4133    2.3708    0.0000 C   0  0  0  0  0  0  0  0  0  0  0  0
   -0.9224    2.3708    0.0000 C   0  0  0  0  0  0  0  0  0  0  0  0
   -0.9684   -1.8323    0.0000 O   0  0  0  0  0  0  0  0  0  0  0  0
   -0.6678    3.1555    0.0000 C   0  0  0  0  0  0  0  0  0  0  0  0
    0.1586    3.1555    0.0000 C   0  0  0  0  0  0  0  0  0  0  0  0
   -0.9684    0.6469    0.0000 C   0  0  0  0  0  0  0  0  0  0  0  0
    0.4591    0.6469    0.0000 C   0  0  0  0  0  0  0  0  0  0  0  0
   -0.9684   -0.1795    0.0000 C   0  0  0  0  0  0  0  0  0  0  0  0
    0.4591   -0.1795    0.0000 C   0  0  0  0  0  0  0  0  0  0  0  0
    0.4591   -1.8323    0.0000 N   0  0  0  0  0  0  0  0  0  0  0  0
    0.4591   -2.6588    0.0000 C   0  0  0  0  0  0  0  0  0  0  0  0
  2  6  1  0  0  0  0
  3 17  1  0  0  0  0
  4  3  3  0  0  0  0
  5  1  1  0  0  0  0
  6 14  2  0  0  0  0
  7  1  1  0  0  0  0
  8  1  1  0  0  0  0
  9  2  2  0  0  0  0
 10  8  2  0  0  0  0
 10 11  1  0  0  0  0
 11  7  2  0  0  0  0
 12  5  2  0  0  0  0
 13  5  1  0  0  0  0
 14 12  1  0  0  0  0
 15 13  2  0  0  0  0
 15  6  1  0  0  0  0
 16  2  1  0  0  0  0
 17 16  1  0  0  0  0
M  END
> <CdId>
3784

> <Mol Weight>
224.2579

> <Formula>
C14H12N2O

> <Click_ID>
CLK049H08 __ __ 

$$$$
