CLK021_H05
 OpenBabel03181417552D

 28 29  0  0  0  0  0  0  0  0999 V2000
    1.6908    2.5797    0.0000 C   0  0  0  0  0  0  0  0  0  0  0  0
    1.6908    4.0093    0.0000 C   0  0  0  0  0  0  0  0  0  0  0  0
    2.1032    3.2945    0.0000 C   0  0  3  0  0  0  0  0  0  0  0  0
    0.8660    2.5797    0.0000 C   0  0  0  0  0  0  0  0  0  0  0  0
    0.8660    4.0093    0.0000 C   0  0  0  0  0  0  0  0  0  0  0  0
    0.4536    3.2945    0.0000 N   0  0  0  0  0  0  0  0  0  0  0  0
    2.9279    3.2945    0.0000 C   0  0  0  0  0  0  0  0  0  0  0  0
    2.1032    1.8649    0.0000 C   0  0  0  0  0  0  0  0  0  0  0  0
    2.1032    4.7196    0.0000 C   0  0  0  0  0  0  0  0  0  0  0  0
    3.3403    2.5797    0.0000 C   0  0  0  0  0  0  0  0  0  0  0  0
    6.6394    4.0093    0.0000 C   0  0  0  0  0  0  0  0  0  0  0  0
    7.4642    4.0093    0.0000 C   0  0  0  0  0  0  0  0  0  0  0  0
    4.1651    2.5797    0.0000 C   0  0  0  0  0  0  0  0  0  0  0  0
    3.3403    4.0093    0.0000 C   0  0  0  0  0  0  0  0  0  0  0  0
    4.5775    3.2945    0.0000 C   0  0  0  0  0  0  0  0  0  0  0  0
    2.9279    1.8649    0.0000 O   0  0  0  0  0  0  0  0  0  0  0  0
    2.9279    4.7196    0.0000 O   0  0  0  0  0  0  0  0  0  0  0  0
    4.1651    4.0093    0.0000 C   0  0  0  0  0  0  0  0  0  0  0  0
    1.6908    1.1501    0.0000 O   0  0  0  0  0  0  0  0  0  0  0  0
    1.6908    5.4344    0.0000 O   0  0  0  0  0  0  0  0  0  0  0  0
    0.4536    1.8649    0.0000 C   0  0  0  0  0  0  0  0  0  0  0  0
    0.4536    4.7196    0.0000 C   0  0  0  0  0  0  0  0  0  0  0  0
    4.5775    1.8649    0.0000 O   0  0  0  0  0  0  0  0  0  0  0  0
    5.4022    3.2945    0.0000 O   0  0  0  0  0  0  0  0  0  0  0  0
    5.8146    4.0093    0.0000 C   0  0  0  0  0  0  0  0  0  0  0  0
    2.1032    0.4353    0.0000 C   0  0  0  0  0  0  0  0  0  0  0  0
    2.1032    6.1445    0.0000 C   0  0  0  0  0  0  0  0  0  0  0  0
    4.1651    1.1501    0.0000 C   0  0  0  0  0  0  0  0  0  0  0  0
  2  3  1  0  0  0  0
  3  1  1  0  0  0  0
  4  1  2  0  0  0  0
  5  6  1  0  0  0  0
  5  2  2  0  0  0  0
  6  4  1  0  0  0  0
  7  3  1  0  0  0  0
  8  1  1  0  0  0  0
  9  2  1  0  0  0  0
 10  7  2  0  0  0  0
 11 25  1  0  0  0  0
 12 11  3  0  0  0  0
 13 10  1  0  0  0  0
 14  7  1  0  0  0  0
 15 18  1  0  0  0  0
 15 13  2  0  0  0  0
 16  8  2  0  0  0  0
 17  9  2  0  0  0  0
 18 14  2  0  0  0  0
 19  8  1  0  0  0  0
 20  9  1  0  0  0  0
 21  4  1  0  0  0  0
 22  5  1  0  0  0  0
 23 13  1  0  0  0  0
 24 15  1  0  0  0  0
 25 24  1  0  0  0  0
 26 19  1  0  0  0  0
 27 20  1  0  0  0  0
 28 23  1  0  0  0  0
M  END
> <CdId>
1630

> <Mol Weight>
385.4104

> <Formula>
C21H23NO6

> <Click_ID>
CLK021_H05 __ __ 

$$$$
