CLK028_A03
 OpenBabel03181417552D

 27 28  0  0  0  0  0  0  0  0999 V2000
   -0.3678    0.6187    0.0000 C    0  0  0  0  0  0  0  0  0  0  0  0
   -1.0828    1.0381    0.0000 C    0  0  0  0  0  0  0  0  0  0  0  0
   -1.7978    0.6187    0.0000 N    0  0  0  0  0  0  0  0  0  0  0  0
    0.3506    1.0381    0.0000 C    0  0  0  0  0  0  0  0  0  0  0  0
    2.4991   -0.2062    0.0000 C    0  0  0  0  0  0  0  0  0  0  0  0
   -2.5094    1.0381    0.0000 C    0  0  0  0  0  0  0  0  0  0  0  0
   -3.2210    0.6256    0.0000 C    0  0  0  0  0  0  0  0  0  0  0  0
   -0.3678   -0.2062    0.0000 C    0  0  0  0  0  0  0  0  0  0  0  0
    1.7875   -0.6187    0.0000 C    0  0  0  0  0  0  0  0  0  0  0  0
    2.4991    0.6153    0.0000 C    0  0  0  0  0  0  0  0  0  0  0  0
    1.0657    0.6187    0.0000 C    0  0  0  0  0  0  0  0  0  0  0  0
   -0.3678   -1.0312    0.0000 N    0  0  0  0  0  0  0  0  0  0  0  0
    3.9291   -1.8597    0.0000 C    0  0  0  0  0  0  0  0  0  0  0  0
    4.6406   -2.2722    0.0000 C    0  0  0  0  0  0  0  0  0  0  0  0
    1.0725   -0.2062    0.0000 C    0  0  0  0  0  0  0  0  0  0  0  0
    1.7875    1.0381    0.0000 C    0  0  0  0  0  0  0  0  0  0  0  0
   -1.0828    1.8597    0.0000 O    0  0  0  0  0  0  0  0  0  0  0  0
   -3.9325    1.0381    0.0000 C    0  0  0  0  0  0  0  0  0  0  0  0
    1.7875   -1.4403    0.0000 Cl   0  0  0  0  0  0  0  0  0  0  0  0
    3.2210    1.0244    0.0000 Cl   0  0  0  0  0  0  0  0  0  0  0  0
    3.2072   -0.6187    0.0000 O    0  0  0  0  0  0  0  0  0  0  0  0
   -4.6441    0.6256    0.0000 Cl   0  0  0  0  0  0  0  0  0  0  0  0
    3.2210   -1.4403    0.0000 C    0  0  0  0  0  0  0  0  0  0  0  0
   -2.5094    1.8631    0.0000 C    0  0  0  0  0  0  0  0  0  0  0  0
   -3.2210   -0.1959    0.0000 C    0  0  0  0  0  0  0  0  0  0  0  0
   -3.2210    2.2756    0.0000 C    0  0  0  0  0  0  0  0  0  0  0  0
   -3.9428    1.8631    0.0000 C    0  0  0  0  0  0  0  0  0  0  0  0
  2  1  1  0  0  0  0
  3  2  1  0  0  0  0
  4  1  2  0  0  0  0
  5 10  2  0  0  0  0
  5  9  1  0  0  0  0
  6  3  1  0  0  0  0
  7  6  1  0  0  0  0
  8  1  1  0  0  0  0
  9 15  2  0  0  0  0
 10 16  1  0  0  0  0
 11  4  1  0  0  0  0
 12  8  3  0  0  0  0
 13 23  1  0  0  0  0
 14 13  3  0  0  0  0
 15 11  1  0  0  0  0
 16 11  2  0  0  0  0
 17  2  2  0  0  0  0
 18  7  2  0  0  0  0
 19  9  1  0  0  0  0
 20 10  1  0  0  0  0
 21  5  1  0  0  0  0
 22 18  1  0  0  0  0
 23 21  1  0  0  0  0
 24  6  2  0  0  0  0
 25  7  1  0  0  0  0
 26 24  1  0  0  0  0
 27 26  2  0  0  0  0
 27 18  1  0  0  0  0
M  END
> <CdId>
2087

> <Mol Weight>
419.688

> <Formula>
C20H13Cl3N2O2

> <Click_ID>
CLK028_A03 __ __ 

$$$$
