CLK050F03
 OpenBabel03181417552D

 17 18  0  0  0  0  0  0  0  0999 V2000
   -0.1292   -0.1667    0.0000 N   0  0  0  0  0  0  0  0  0  0  0  0
    3.4458   -0.5792    0.0000 C   0  0  0  0  0  0  0  0  0  0  0  0
    4.1583   -0.9917    0.0000 C   0  0  0  0  0  0  0  0  0  0  0  0
   -1.5583   -0.1667    0.0000 C   0  0  0  0  0  0  0  0  0  0  0  0
   -0.8417   -0.5792    0.0000 C   0  0  0  0  0  0  0  0  0  0  0  0
    1.3000   -0.1667    0.0000 C   0  0  0  0  0  0  0  0  0  0  0  0
   -1.5583    0.6583    0.0000 C   0  0  0  0  0  0  0  0  0  0  0  0
    0.5875   -0.5792    0.0000 C   0  0  0  0  0  0  0  0  0  0  0  0
    1.3000    0.6583    0.0000 O   0  0  0  0  0  0  0  0  0  0  0  0
   -0.1292    0.6583    0.0000 C   0  0  0  0  0  0  0  0  0  0  0  0
   -0.8417    1.0708    0.0000 C   0  0  0  0  0  0  0  0  0  0  0  0
    2.0167   -0.5792    0.0000 N   0  0  0  0  0  0  0  0  0  0  0  0
    2.7292   -0.1667    0.0000 C   0  0  0  0  0  0  0  0  0  0  0  0
   -2.2708   -0.5792    0.0000 C   0  0  0  0  0  0  0  0  0  0  0  0
   -2.2708    1.0708    0.0000 C   0  0  0  0  0  0  0  0  0  0  0  0
   -2.9875   -0.1667    0.0000 C   0  0  0  0  0  0  0  0  0  0  0  0
   -2.9875    0.6583    0.0000 C   0  0  0  0  0  0  0  0  0  0  0  0
  2 13  1  0  0  0  0
  3  2  3  0  0  0  0
  4  5  1  0  0  0  0
  5  1  1  0  0  0  0
  6  8  1  0  0  0  0
  7  4  2  0  0  0  0
  7 11  1  0  0  0  0
  8  1  1  0  0  0  0
  9  6  2  0  0  0  0
 10  1  1  0  0  0  0
 11 10  1  0  0  0  0
 12  6  1  0  0  0  0
 13 12  1  0  0  0  0
 14  4  1  0  0  0  0
 15  7  1  0  0  0  0
 16 14  2  0  0  0  0
 16 17  1  0  0  0  0
 17 15  2  0  0  0  0
M  END
> <CdId>
3822

> <Mol Weight>
228.2896

> <Formula>
C14H16N2O

> <Click_ID>
CLK050F03 __ __ 

$$$$
