CLK034_G05
 OpenBabel03181417552D

 34 37  0  0  0  0  0  0  0  0999 V2000
   -4.5935    2.5570    0.0000 C   0  0  0  0  0  0  0  0  0  0  0  0
   -0.9995    5.4515    0.0000 S   0  0  0  0  0  0  0  0  0  0  0  0
   -0.2874    5.8638    0.0000 N   0  0  0  0  0  0  0  0  0  0  0  0
   -3.8606    2.9818    0.0000 N   0  0  0  0  0  0  0  0  0  0  0  0
   -4.6810    1.7324    0.0000 N   0  0  0  0  0  0  0  0  0  0  0  0
   -5.3182    2.8944    0.0000 S   0  0  0  0  0  0  0  0  0  0  0  0
   -5.4848    1.5825    0.0000 C   0  0  0  0  0  0  0  0  0  0  0  0
   -5.8929    2.2989    0.0000 C   0  0  0  0  0  0  0  0  0  0  0  0
   -3.8689    3.7981    0.0000 C   0  0  0  0  0  0  0  0  0  0  0  0
   -0.2874    6.6884    0.0000 C   0  0  0  0  0  0  0  0  0  0  0  0
    0.4290    5.4473    0.0000 C   0  0  0  0  0  0  0  0  0  0  0  0
   -1.7200    5.0267    0.0000 C   0  0  0  0  0  0  0  0  0  0  0  0
   -1.4118    6.1637    0.0000 O   0  0  0  0  0  0  0  0  0  0  0  0
   -0.5872    4.7269    0.0000 O   0  0  0  0  0  0  0  0  0  0  0  0
   -4.2562    0.3581    0.0000 C   0  0  0  0  0  0  0  0  0  0  0  0
    1.1494    6.6884    0.0000 O   0  0  0  0  0  0  0  0  0  0  0  0
   -4.4436   -0.4540    0.0000 C   0  0  0  0  0  0  0  0  0  0  0  0
   -3.1567    4.2104    0.0000 C   0  0  0  0  0  0  0  0  0  0  0  0
   -5.9179    0.8829    0.0000 C   0  0  0  0  0  0  0  0  0  0  0  0
    1.1411    5.8638    0.0000 C   0  0  3  0  0  0  0  0  0  0  0  0
    0.4290    7.1007    0.0000 C   0  0  3  0  0  0  0  0  0  0  0  0
   -4.5810    4.2146    0.0000 O   0  0  0  0  0  0  0  0  0  0  0  0
   -4.0688    1.1619    0.0000 C   0  0  0  0  0  0  0  0  0  0  0  0
   -2.4363    5.4473    0.0000 C   0  0  0  0  0  0  0  0  0  0  0  0
   -1.7200    4.2021    0.0000 C   0  0  0  0  0  0  0  0  0  0  0  0
   -2.4321    3.8064    0.0000 C   0  0  0  0  0  0  0  0  0  0  0  0
   -3.1485    5.0267    0.0000 C   0  0  0  0  0  0  0  0  0  0  0  0
   -6.7009    2.3197    0.0000 C   0  0  0  0  0  0  0  0  0  0  0  0
   -5.5181    0.1457    0.0000 O   0  0  0  0  0  0  0  0  0  0  0  0
   -7.1382    1.6200    0.0000 C   0  0  0  0  0  0  0  0  0  0  0  0
   -6.7259    0.8871    0.0000 C   0  0  0  0  0  0  0  0  0  0  0  0
    0.4290    7.9253    0.0000 C   0  0  0  0  0  0  0  0  0  0  0  0
    1.8658    5.4390    0.0000 C   0  0  0  0  0  0  0  0  0  0  0  0
   -5.9554   -0.5539    0.0000 C   0  0  0  0  0  0  0  0  0  0  0  0
  2 12  1  0  0  0  0
  3  2  1  0  0  0  0
  4  1  2  0  0  0  0
  5  1  1  0  0  0  0
  6  1  1  0  0  0  0
  7  5  1  0  0  0  0
  8  6  1  0  0  0  0
  8  7  2  0  0  0  0
  9  4  1  0  0  0  0
 10  3  1  0  0  0  0
 11  3  1  0  0  0  0
 12 24  1  0  0  0  0
 12 25  2  0  0  0  0
 13  2  2  0  0  0  0
 14  2  2  0  0  0  0
 15 23  1  0  0  0  0
 16 20  1  0  0  0  0
 16 21  1  0  0  0  0
 17 15  3  0  0  0  0
 18  9  1  0  0  0  0
 19  7  1  0  0  0  0
 20 11  1  0  0  0  0
 21 10  1  0  0  0  0
 22  9  2  0  0  0  0
 23  5  1  0  0  0  0
 24 27  2  0  0  0  0
 25 26  1  0  0  0  0
 26 18  2  0  0  0  0
 27 18  1  0  0  0  0
 28  8  1  0  0  0  0
 29 19  1  0  0  0  0
 30 28  2  0  0  0  0
 31 19  2  0  0  0  0
 31 30  1  0  0  0  0
 32 21  1  0  0  0  0
 33 20  1  0  0  0  0
 34 29  1  0  0  0  0
M  END
> <CdId>
2629

> <Mol Weight>
499.602

> <Formula>
C24H25N3O5S2

> <Click_ID>
CLK034_G05 __ __ 

$$$$
