CLK019_A10
 OpenBabel03181417552D

 27 28  0  0  0  0  0  0  0  0999 V2000
    2.8417   -2.2125    0.0000 C    0  0  0  0  0  0  0  0  0  0  0  0
    2.4292   -2.9250    0.0000 C    0  0  0  0  0  0  0  0  0  0  0  0
    2.8417   -3.6375    0.0000 N    0  0  0  0  0  0  0  0  0  0  0  0
    3.6667   -2.2125    0.0000 C    0  0  0  0  0  0  0  0  0  0  0  0
    2.4292   -1.4917    0.0000 N    0  0  0  0  0  0  0  0  0  0  0  0
    3.6667   -3.6292    0.0000 C    0  0  0  0  0  0  0  0  0  0  0  0
    4.0792   -2.9167    0.0000 N    0  0  0  0  0  0  0  0  0  0  0  0
    6.1417    0.6458    0.0000 C    0  0  0  0  0  0  0  0  0  0  0  0
    4.0792   -1.5000    0.0000 C    0  0  0  0  0  0  0  0  0  0  0  0
    6.5542   -0.0667    0.0000 C    0  0  0  0  0  0  0  0  0  0  0  0
    5.3167    0.6500    0.0000 C    0  0  0  0  0  0  0  0  0  0  0  0
    7.8000    2.0708    0.0000 C    0  0  0  0  0  0  0  0  0  0  0  0
    8.2250    2.7833    0.0000 C    0  0  0  0  0  0  0  0  0  0  0  0
    4.9042   -1.5000    0.0000 C    0  0  0  0  0  0  0  0  0  0  0  0
    2.8417   -0.7792    0.0000 O    0  0  0  0  0  0  0  0  0  0  0  0
    1.6042   -2.9250    0.0000 O    0  0  0  0  0  0  0  0  0  0  0  0
    1.6042   -1.4917    0.0000 O    0  0  0  0  0  0  0  0  0  0  0  0
    5.3167   -0.7792    0.0000 C    0  0  0  0  0  0  0  0  0  0  0  0
    4.0875   -4.3417    0.0000 O    0  0  0  0  0  0  0  0  0  0  0  0
    6.1417   -0.7792    0.0000 C    0  0  0  0  0  0  0  0  0  0  0  0
    4.9042   -0.0625    0.0000 C    0  0  0  0  0  0  0  0  0  0  0  0
    7.3792   -0.0750    0.0000 Br   0  0  0  0  0  0  0  0  0  0  0  0
    6.5625    1.3583    0.0000 O    0  0  0  0  0  0  0  0  0  0  0  0
    4.9125    1.3625    0.0000 O    0  0  0  0  0  0  0  0  0  0  0  0
    7.3875    1.3583    0.0000 C    0  0  0  0  0  0  0  0  0  0  0  0
    4.0875    1.3708    0.0000 C    0  0  0  0  0  0  0  0  0  0  0  0
    3.6750    0.6583    0.0000 C    0  0  0  0  0  0  0  0  0  0  0  0
  2  1  1  0  0  0  0
  3  2  1  0  0  0  0
  3  6  1  0  0  0  0
  4  1  2  0  0  0  0
  5  1  1  0  0  0  0
  6  7  1  0  0  0  0
  7  4  1  0  0  0  0
  8 11  1  0  0  0  0
  9  4  1  0  0  0  0
 10 20  1  0  0  0  0
 10  8  2  0  0  0  0
 11 21  2  0  0  0  0
 12 25  1  0  0  0  0
 13 12  3  0  0  0  0
 14  9  2  0  0  0  0
 15  5  1  0  0  0  0
 16  2  2  0  0  0  0
 17  5  2  0  0  0  0
 18 14  1  0  0  0  0
 19  6  2  0  0  0  0
 20 18  2  0  0  0  0
 21 18  1  0  0  0  0
 22 10  1  0  0  0  0
 23  8  1  0  0  0  0
 24 11  1  0  0  0  0
 25 23  1  0  0  0  0
 26 24  1  0  0  0  0
 27 26  1  0  0  0  0
M  END
> <CdId>
1405

> <Mol Weight>
436.214

> <Formula>
C17H14BrN3O6

> <Click_ID>
CLK019_A10 __ __ 

$$$$
