CLK005_G07
 OpenBabel03181417552D

 22 23  0  0  0  0  0  0  0  0999 V2000
    0.0379   -0.7318    0.0000 C   0  0  3  0  0  0  0  0  0  0  0  0
    0.0310    0.0932    0.0000 C   0  0  0  0  0  0  0  0  0  0  0  0
   -0.6766   -1.1426    0.0000 C   0  0  0  0  0  0  0  0  0  0  0  0
    0.7491   -1.1426    0.0000 N   0  0  0  0  0  0  0  0  0  0  0  0
    0.7456    0.5074    0.0000 C   0  0  0  0  0  0  0  0  0  0  0  0
   -0.6800    0.5005    0.0000 C   0  0  0  0  0  0  0  0  0  0  0  0
   -0.6766   -1.9711    0.0000 C   0  0  0  0  0  0  0  0  0  0  0  0
   -1.3946   -0.7318    0.0000 C   0  0  0  0  0  0  0  0  0  0  0  0
    0.7491   -1.9711    0.0000 C   0  0  0  0  0  0  0  0  0  0  0  0
    0.7456    1.3324    0.0000 C   0  0  0  0  0  0  0  0  0  0  0  0
   -0.6904    1.3221    0.0000 C   0  0  0  0  0  0  0  0  0  0  0  0
    0.0379   -2.3818    0.0000 N   0  0  0  0  0  0  0  0  0  0  0  0
   -1.3946   -2.3818    0.0000 C   0  0  0  0  0  0  0  0  0  0  0  0
   -2.1091   -1.1426    0.0000 O   0  0  0  0  0  0  0  0  0  0  0  0
   -1.3946    0.0932    0.0000 O   0  0  0  0  0  0  0  0  0  0  0  0
    1.4706   -2.3818    0.0000 O   0  0  0  0  0  0  0  0  0  0  0  0
    0.0241    1.7466    0.0000 C   0  0  0  0  0  0  0  0  0  0  0  0
    1.4601    1.7466    0.0000 O   0  0  0  0  0  0  0  0  0  0  0  0
   -2.8306   -0.7318    0.0000 C   0  0  0  0  0  0  0  0  0  0  0  0
    1.4601    2.5717    0.0000 C   0  0  0  0  0  0  0  0  0  0  0  0
    2.1713    2.9860    0.0000 C   0  0  0  0  0  0  0  0  0  0  0  0
    2.1644    3.8109    0.0000 C   0  0  0  0  0  0  0  0  0  0  0  0
  1  2  1  0  0  0  0
  1  3  1  0  0  0  0
  1  4  1  0  0  0  0
  2  5  2  0  0  0  0
  2  6  1  0  0  0  0
  3  7  2  0  0  0  0
  3  8  1  0  0  0  0
  4  9  1  0  0  0  0
  5 10  1  0  0  0  0
  6 11  2  0  0  0  0
  7 12  1  0  0  0  0
  7 13  1  0  0  0  0
  8 14  1  0  0  0  0
  8 15  2  0  0  0  0
  9 16  2  0  0  0  0
  9 12  1  0  0  0  0
 10 17  2  0  0  0  0
 10 18  1  0  0  0  0
 11 17  1  0  0  0  0
 14 19  1  0  0  0  0
 18 20  1  0  0  0  0
 20 21  1  0  0  0  0
 21 22  3  0  0  0  0
M  END
> <CdId>
386

> <Mol Weight>
300.3092

> <Formula>
C16H16N2O4

> <Click_ID>
CLK005_G07 __ __ 

$$$$
