CLK026_G04
 OpenBabel03181417552D

 27 28  0  0  0  0  0  0  0  0999 V2000
   -2.6984    0.1650    0.0000 N   0  0  0  0  0  0  0  0  0  0  0  0
   -3.1109   -0.5500    0.0000 C   0  0  0  0  0  0  0  0  0  0  0  0
   -1.8975    0.0000    0.0000 C   0  0  0  0  0  0  0  0  0  0  0  0
   -1.8081   -0.8250    0.0000 C   0  0  0  0  0  0  0  0  0  0  0  0
   -2.5575   -1.1618    0.0000 S   0  0  0  0  0  0  0  0  0  0  0  0
   -1.0897   -1.2375    0.0000 C   0  0  0  0  0  0  0  0  0  0  0  0
   -0.3781   -0.8250    0.0000 C   0  0  0  0  0  0  0  0  0  0  0  0
    0.3368    0.4160    0.0000 C   0  0  0  0  0  0  0  0  0  0  0  0
    1.0484    0.0000    0.0000 C   0  0  0  0  0  0  0  0  0  0  0  0
    1.0484   -0.8250    0.0000 C   0  0  0  0  0  0  0  0  0  0  0  0
   -2.5506    1.5846    0.0000 C   0  0  0  0  0  0  0  0  0  0  0  0
    3.2072    0.3781    0.0000 C   0  0  0  0  0  0  0  0  0  0  0  0
   -2.1106    2.2825    0.0000 C   0  0  0  0  0  0  0  0  0  0  0  0
    3.9290    0.7906    0.0000 C   0  0  0  0  0  0  0  0  0  0  0  0
   -3.9325   -0.6325    0.0000 O   0  0  0  0  0  0  0  0  0  0  0  0
   -1.2856    0.5534    0.0000 O   0  0  0  0  0  0  0  0  0  0  0  0
   -0.3747    0.0138    0.0000 C   0  0  0  0  0  0  0  0  0  0  0  0
    0.3335   -1.2375    0.0000 C   0  0  0  0  0  0  0  0  0  0  0  0
   -3.0318    0.9143    0.0000 C   0  0  0  0  0  0  0  0  0  0  0  0
    1.7737   -2.0590    0.0000 C   0  0  0  0  0  0  0  0  0  0  0  0
    2.4853   -2.4681    0.0000 C   0  0  0  0  0  0  0  0  0  0  0  0
    0.3506    1.2340    0.0000 O   0  0  0  0  0  0  0  0  0  0  0  0
    1.7737    0.4125    0.0000 O   0  0  0  0  0  0  0  0  0  0  0  0
    1.7669   -1.2237    0.0000 C   0  0  0  0  0  0  0  0  0  0  0  0
    2.4921   -0.0206    0.0000 C   0  0  0  0  0  0  0  0  0  0  0  0
   -0.3541    1.6465    0.0000 C   0  0  0  0  0  0  0  0  0  0  0  0
   -0.3506    2.4715    0.0000 C   0  0  0  0  0  0  0  0  0  0  0  0
  2  1  1  0  0  0  0
  3  1  1  0  0  0  0
  4  3  1  0  0  0  0
  5  2  1  0  0  0  0
  5  4  1  0  0  0  0
  6  4  2  0  0  0  0
  7  6  1  0  0  0  0
  8 17  1  0  0  0  0
  8  9  2  0  0  0  0
  9 10  1  0  0  0  0
 10 18  2  0  0  0  0
 11 19  1  0  0  0  0
 12 25  1  0  0  0  0
 13 11  3  0  0  0  0
 14 12  3  0  0  0  0
 15  2  2  0  0  0  0
 16  3  2  0  0  0  0
 17  7  2  0  0  0  0
 18  7  1  0  0  0  0
 19  1  1  0  0  0  0
 20 24  1  0  0  0  0
 21 20  2  0  0  0  0
 22  8  1  0  0  0  0
 23  9  1  0  0  0  0
 24 10  1  0  0  0  0
 25 23  1  0  0  0  0
 26 22  1  0  0  0  0
 27 26  1  0  0  0  0
M  END
> <CdId>
1999

> <Mol Weight>
381.445

> <Formula>
C21H19NO4S

> <Click_ID>
CLK026_G04 __ __ 

$$$$
