CLK015_E06
 OpenBabel03181417552D

 15 15  0  0  0  0  0  0  0  0999 V2000
   -1.4658   -2.8172    0.0000 C    0  0  0  0  0  0  0  0  0  0  0  0
   -0.7512   -3.2295    0.0000 C    0  0  0  0  0  0  0  0  0  0  0  0
   -1.4658   -1.9926    0.0000 C    0  0  0  0  0  0  0  0  0  0  0  0
   -2.8950   -4.4709    0.0000 C    0  0  0  0  0  0  0  0  0  0  0  0
   -2.8950   -5.2954    0.0000 C    0  0  0  0  0  0  0  0  0  0  0  0
   -0.0366   -2.8172    0.0000 C    0  0  0  0  0  0  0  0  0  0  0  0
   -0.7512   -1.5850    0.0000 C    0  0  0  0  0  0  0  0  0  0  0  0
   -0.0366   -1.9973    0.0000 C    0  0  0  0  0  0  0  0  0  0  0  0
    1.3926   -1.9973    0.0000 N    0  0  0  0  0  0  0  0  0  0  0  0
    0.6780   -1.5850    0.0000 C    0  0  0  0  0  0  0  0  0  0  0  0
   -2.1804   -1.5804    0.0000 Cl   0  0  0  0  0  0  0  0  0  0  0  0
   -0.7512   -4.0540    0.0000 Cl   0  0  0  0  0  0  0  0  0  0  0  0
   -2.1804   -3.2295    0.0000 O    0  0  0  0  0  0  0  0  0  0  0  0
    2.1072   -1.5850    0.0000 O    0  0  0  0  0  0  0  0  0  0  0  0
   -2.1804   -4.0586    0.0000 C    0  0  0  0  0  0  0  0  0  0  0  0
  2  1  2  0  0  0  0
  3  1  1  0  0  0  0
  4 15  1  0  0  0  0
  5  4  3  0  0  0  0
  6  2  1  0  0  0  0
  7  3  2  0  0  0  0
  8  7  1  0  0  0  0
  8  6  2  0  0  0  0
  9 10  2  0  0  0  0
 10  8  1  0  0  0  0
 11  3  1  0  0  0  0
 12  2  1  0  0  0  0
 13  1  1  0  0  0  0
 14  9  1  0  0  0  0
 15 13  1  0  0  0  0
M  END
> <CdId>
1121

> <Mol Weight>
244.074

> <Formula>
C10H7Cl2NO2

> <Click_ID>
CLK015_E06 __ __ 

$$$$
