CLK005_A03
 OpenBabel03181417552D

 29 31  0  0  0  0  0  0  0  0999 V2000
    0.4450    0.7634    0.0000 C    0  0  3  0  0  0  0  0  0  0  0  0
    1.1570    0.3491    0.0000 C    0  0  0  0  0  0  0  0  0  0  0  0
   -0.2739    0.3491    0.0000 C    0  0  0  0  0  0  0  0  0  0  0  0
    0.4450    1.5917    0.0000 C    0  0  0  0  0  0  0  0  0  0  0  0
    1.8725    0.7703    0.0000 C    0  0  0  0  0  0  0  0  0  0  0  0
    1.1570   -0.4690    0.0000 C    0  0  0  0  0  0  0  0  0  0  0  0
   -0.2739   -0.4690    0.0000 C    0  0  0  0  0  0  0  0  0  0  0  0
   -0.9893    0.7703    0.0000 C    0  0  0  0  0  0  0  0  0  0  0  0
    1.1570    1.9991    0.0000 C    0  0  0  0  0  0  0  0  0  0  0  0
   -0.2739    1.9991    0.0000 C    0  0  0  0  0  0  0  0  0  0  0  0
    1.8725    1.5917    0.0000 O    0  0  0  0  0  0  0  0  0  0  0  0
    2.5845    0.3628    0.0000 C    0  0  0  0  0  0  0  0  0  0  0  0
    1.8760   -0.8798    0.0000 C    0  0  0  0  0  0  0  0  0  0  0  0
    0.4450   -0.8866    0.0000 O    0  0  0  0  0  0  0  0  0  0  0  0
   -0.9825   -0.8798    0.0000 C    0  0  0  0  0  0  0  0  0  0  0  0
   -1.6979    0.3628    0.0000 C    0  0  0  0  0  0  0  0  0  0  0  0
    1.1570    2.8241    0.0000 N    0  0  0  0  0  0  0  0  0  0  0  0
   -0.9893    2.4099    0.0000 N    0  0  0  0  0  0  0  0  0  0  0  0
    2.5913   -0.4656    0.0000 C    0  0  0  0  0  0  0  0  0  0  0  0
   -1.7013   -0.4758    0.0000 C    0  0  0  0  0  0  0  0  0  0  0  0
   -0.9893   -1.6979    0.0000 O    0  0  0  0  0  0  0  0  0  0  0  0
   -2.4065    0.7634    0.0000 Cl   0  0  0  0  0  0  0  0  0  0  0  0
    2.5913   -1.2872    0.0000 C    0  0  0  0  0  0  0  0  0  0  0  0
    3.3034   -0.0479    0.0000 C    0  0  0  0  0  0  0  0  0  0  0  0
   -2.4168   -0.8866    0.0000 O    0  0  0  0  0  0  0  0  0  0  0  0
   -0.2704   -2.1086    0.0000 C    0  0  0  0  0  0  0  0  0  0  0  0
   -2.4168   -1.7047    0.0000 C    0  0  0  0  0  0  0  0  0  0  0  0
   -3.1185   -2.1190    0.0000 C    0  0  0  0  0  0  0  0  0  0  0  0
   -3.8340   -2.5298    0.0000 C    0  0  0  0  0  0  0  0  0  0  0  0
  1  2  1  0  0  0  0
  1  3  1  0  0  0  0
  1  4  1  0  0  0  0
  2  5  2  0  0  0  0
  2  6  1  0  0  0  0
  3  7  1  0  0  0  0
  3  8  2  0  0  0  0
  4  9  2  0  0  0  0
  4 10  1  0  0  0  0
  5 11  1  0  0  0  0
  5 12  1  0  0  0  0
  6 13  1  0  0  0  0
  6 14  2  0  0  0  0
  7 15  2  0  0  0  0
  8 16  1  0  0  0  0
  9 17  1  0  0  0  0
  9 11  1  0  0  0  0
 10 18  3  0  0  0  0
 12 19  1  0  0  0  0
 13 19  1  0  0  0  0
 15 20  1  0  0  0  0
 15 21  1  0  0  0  0
 16 22  1  0  0  0  0
 16 20  2  0  0  0  0
 19 23  1  0  0  0  0
 19 24  1  0  0  0  0
 20 25  1  0  0  0  0
 21 26  1  0  0  0  0
 25 27  1  0  0  0  0
 27 28  1  0  0  0  0
 28 29  3  0  0  0  0
M  END
> <CdId>
322

> <Mol Weight>
412.866

> <Formula>
C22H21ClN2O4

> <Click_ID>
CLK005_A03 __ __ 

$$$$
