CLK029_D11
 OpenBabel03181417552D

 26 29  0  0  0  0  0  0  0  0999 V2000
   -1.1649    2.3882    0.0000 C    0  0  0  0  0  0  0  0  0  0  0  0
   -0.3382    2.3799    0.0000 N    0  0  0  0  0  0  0  0  0  0  0  0
   -1.6492    1.7244    0.0000 N    0  0  0  0  0  0  0  0  0  0  0  0
   -1.6492    3.0563    0.0000 S    0  0  0  0  0  0  0  0  0  0  0  0
   -2.4383    2.8016    0.0000 C    0  0  0  0  0  0  0  0  0  0  0  0
   -2.4383    1.9749    0.0000 C    0  0  0  0  0  0  0  0  0  0  0  0
    0.0752    3.0939    0.0000 C    0  0  0  0  0  0  0  0  0  0  0  0
    0.9019    3.0939    0.0000 C    0  0  0  0  0  0  0  0  0  0  0  0
    2.1336    2.3757    0.0000 C    0  0  0  0  0  0  0  0  0  0  0  0
   -3.1523    3.2149    0.0000 C    0  0  0  0  0  0  0  0  0  0  0  0
   -1.9498    0.3215    0.0000 C    0  0  0  0  0  0  0  0  0  0  0  0
    1.3152    2.3882    0.0000 C    0  0  0  0  0  0  0  0  0  0  0  0
   -2.5010   -0.2923    0.0000 C    0  0  0  0  0  0  0  0  0  0  0  0
   -3.1523    1.5615    0.0000 C    0  0  0  0  0  0  0  0  0  0  0  0
    2.5595    3.0772    0.0000 C    0  0  0  0  0  0  0  0  0  0  0  0
   -0.3382    3.8079    0.0000 O    0  0  0  0  0  0  0  0  0  0  0  0
    2.5470    1.6492    0.0000 O    0  0  0  0  0  0  0  0  0  0  0  0
    3.3862    3.0688    0.0000 O    0  0  0  0  0  0  0  0  0  0  0  0
   -1.3987    0.9352    0.0000 C    0  0  0  0  0  0  0  0  0  0  0  0
    1.3277    3.8204    0.0000 C    0  0  0  0  0  0  0  0  0  0  0  0
    2.1545    3.8162    0.0000 C    0  0  0  0  0  0  0  0  0  0  0  0
   -3.8663    2.8016    0.0000 C    0  0  0  0  0  0  0  0  0  0  0  0
   -3.8663    1.9749    0.0000 C    0  0  0  0  0  0  0  0  0  0  0  0
   -4.5928    3.2192    0.0000 Cl   0  0  0  0  0  0  0  0  0  0  0  0
    3.3737    1.6409    0.0000 C    0  0  0  0  0  0  0  0  0  0  0  0
    3.7996    2.3632    0.0000 C    0  0  0  0  0  0  0  0  0  0  0  0
  2  1  2  0  0  0  0
  3  1  1  0  0  0  0
  4  1  1  0  0  0  0
  5  4  1  0  0  0  0
  5  6  2  0  0  0  0
  6  3  1  0  0  0  0
  7  2  1  0  0  0  0
  8  7  1  0  0  0  0
  9 12  1  0  0  0  0
 10  5  1  0  0  0  0
 11 19  1  0  0  0  0
 12  8  2  0  0  0  0
 13 11  3  0  0  0  0
 14  6  1  0  0  0  0
 15 21  1  0  0  0  0
 15  9  2  0  0  0  0
 16  7  2  0  0  0  0
 17  9  1  0  0  0  0
 18 15  1  0  0  0  0
 19  3  1  0  0  0  0
 20  8  1  0  0  0  0
 21 20  2  0  0  0  0
 22 10  2  0  0  0  0
 22 23  1  0  0  0  0
 23 14  2  0  0  0  0
 24 22  1  0  0  0  0
 25 17  1  0  0  0  0
 25 26  1  0  0  0  0
 26 18  1  0  0  0  0
M  END
> <CdId>
2205

> <Mol Weight>
384.836

> <Formula>
C19H13ClN2O3S

> <Click_ID>
CLK029_D11 __ __ 

$$$$
