CLK021_A04
 OpenBabel03181417552D

 29 32  0  0  0  0  0  0  0  0999 V2000
    3.4906    4.0769    0.0000 N   0  0  0  0  0  0  0  0  0  0  0  0
    3.9762    3.4127    0.0000 C   0  0  0  0  0  0  0  0  0  0  0  0
    3.9762    4.7411    0.0000 C   0  0  0  0  0  0  0  0  0  0  0  0
    4.7595    3.6646    0.0000 C   0  0  0  0  0  0  0  0  0  0  0  0
    4.7595    4.4846    0.0000 C   0  0  0  0  0  0  0  0  0  0  0  0
    6.8987    3.2523    0.0000 C   0  0  0  0  0  0  0  0  0  0  0  0
    5.4741    3.2523    0.0000 C   0  0  0  0  0  0  0  0  0  0  0  0
    6.1887    3.6646    0.0000 C   0  0  0  0  0  0  0  0  0  0  0  0
    2.6660    4.0769    0.0000 C   0  0  0  0  0  0  0  0  0  0  0  0
    7.6133    3.6646    0.0000 N   0  0  0  0  0  0  0  0  0  0  0  0
    9.0425    1.1910    0.0000 C   0  0  0  0  0  0  0  0  0  0  0  0
    5.4741    4.8969    0.0000 C   0  0  0  0  0  0  0  0  0  0  0  0
    9.0425    0.3664    0.0000 C   0  0  0  0  0  0  0  0  0  0  0  0
    3.7151    2.6294    0.0000 O   0  0  0  0  0  0  0  0  0  0  0  0
    3.7151    5.5244    0.0000 O   0  0  0  0  0  0  0  0  0  0  0  0
    6.8987    2.4278    0.0000 O   0  0  0  0  0  0  0  0  0  0  0  0
    6.1887    4.4846    0.0000 C   0  0  0  0  0  0  0  0  0  0  0  0
    8.3279    3.2523    0.0000 C   0  0  0  0  0  0  0  0  0  0  0  0
    1.0169    2.6477    0.0000 N   0  0  0  0  0  0  0  0  0  0  0  0
    2.2537    3.3623    0.0000 C   0  0  0  0  0  0  0  0  0  0  0  0
    9.0425    2.0155    0.0000 C   0  0  0  0  0  0  0  0  0  0  0  0
    8.3279    2.4278    0.0000 C   0  0  0  0  0  0  0  0  0  0  0  0
    1.4292    3.3623    0.0000 C   0  0  0  0  0  0  0  0  0  0  0  0
    9.7571    3.2523    0.0000 C   0  0  0  0  0  0  0  0  0  0  0  0
    1.4292    1.9331    0.0000 C   0  0  0  0  0  0  0  0  0  0  0  0
    9.0425    3.6646    0.0000 C   0  0  0  0  0  0  0  0  0  0  0  0
    2.6660    2.6477    0.0000 C   0  0  0  0  0  0  0  0  0  0  0  0
    9.7571    2.4278    0.0000 C   0  0  0  0  0  0  0  0  0  0  0  0
    2.2537    1.9331    0.0000 C   0  0  0  0  0  0  0  0  0  0  0  0
  2  1  1  0  0  0  0
  3  1  1  0  0  0  0
  4  2  1  0  0  0  0
  4  5  2  0  0  0  0
  5  3  1  0  0  0  0
  6  8  1  0  0  0  0
  7  4  1  0  0  0  0
  8  7  2  0  0  0  0
  8 17  1  0  0  0  0
  9  1  1  0  0  0  0
 10  6  1  0  0  0  0
 11 21  1  0  0  0  0
 12  5  1  0  0  0  0
 13 11  3  0  0  0  0
 14  2  2  0  0  0  0
 15  3  2  0  0  0  0
 16  6  2  0  0  0  0
 17 12  2  0  0  0  0
 18 10  1  0  0  0  0
 19 23  1  0  0  0  0
 19 25  2  0  0  0  0
 20  9  1  0  0  0  0
 21 22  2  0  0  0  0
 21 28  1  0  0  0  0
 22 18  1  0  0  0  0
 23 20  2  0  0  0  0
 24 26  1  0  0  0  0
 25 29  1  0  0  0  0
 26 18  2  0  0  0  0
 27 20  1  0  0  0  0
 28 24  2  0  0  0  0
 29 27  2  0  0  0  0
M  END
> <CdId>
1559

> <Mol Weight>
381.3835

> <Formula>
C23H15N3O3

> <Click_ID>
CLK021_A04 __ __ 

$$$$
