CLK051C09
 OpenBabel03181417552D

 29 31  0  0  0  0  0  0  0  0999 V2000
    2.9708    1.3042    0.0000 S    0  0  0  0  0  0  0  0  0  0  0  0
   -3.2292   -0.0375    0.0000 N    0  0  0  0  0  0  0  0  0  0  0  0
   -2.7458   -0.7083    0.0000 C    0  0  0  0  0  0  0  0  0  0  0  0
   -1.9625   -0.4500    0.0000 C    0  0  0  0  0  0  0  0  0  0  0  0
   -1.9625    0.3750    0.0000 C    0  0  0  0  0  0  0  0  0  0  0  0
   -2.7458    0.6292    0.0000 O    0  0  0  0  0  0  0  0  0  0  0  0
    2.3042    0.8208    0.0000 C    0  0  0  0  0  0  0  0  0  0  0  0
    0.1292    1.0083    0.0000 C    0  0  0  0  0  0  0  0  0  0  0  0
    5.0583    1.9417    0.0000 C    0  0  0  0  0  0  0  0  0  0  0  0
    0.8833    0.6708    0.0000 C    0  0  0  0  0  0  0  0  0  0  0  0
    1.5500    1.1583    0.0000 C    0  0  0  0  0  0  0  0  0  0  0  0
    5.7250    2.4250    0.0000 C    0  0  0  0  0  0  0  0  0  0  0  0
    2.4875    1.9750    0.0000 O    0  0  0  0  0  0  0  0  0  0  0  0
    3.4542    0.6375    0.0000 O    0  0  0  0  0  0  0  0  0  0  0  0
   -3.0000   -1.4917    0.0000 C    0  0  0  0  0  0  0  0  0  0  0  0
    3.6375    1.7917    0.0000 N    0  0  0  0  0  0  0  0  0  0  0  0
   -0.5375    0.5208    0.0000 O    0  0  0  0  0  0  0  0  0  0  0  0
    0.0417    1.8292    0.0000 O    0  0  0  0  0  0  0  0  0  0  0  0
   -1.2917    0.8583    0.0000 C    0  0  0  0  0  0  0  0  0  0  0  0
   -2.4500   -2.1042    0.0000 C    0  0  0  0  0  0  0  0  0  0  0  0
   -3.8083   -1.6625    0.0000 C    0  0  0  0  0  0  0  0  0  0  0  0
   -3.5083   -3.0625    0.0000 C    0  0  0  0  0  0  0  0  0  0  0  0
   -2.7042   -2.8875    0.0000 C    0  0  0  0  0  0  0  0  0  0  0  0
   -4.0625   -2.4458    0.0000 C    0  0  0  0  0  0  0  0  0  0  0  0
    4.3917    1.4542    0.0000 C    0  0  0  0  0  0  0  0  0  0  0  0
   -3.7667   -3.8458    0.0000 Cl   0  0  0  0  0  0  0  0  0  0  0  0
    2.3875    0.0000    0.0000 C    0  0  0  0  0  0  0  0  0  0  0  0
    0.9667   -0.1500    0.0000 C    0  0  0  0  0  0  0  0  0  0  0  0
    1.7208   -0.4833    0.0000 C    0  0  0  0  0  0  0  0  0  0  0  0
  2  6  1  0  0  0  0
  2  3  2  0  0  0  0
  3  4  1  0  0  0  0
  4  5  2  0  0  0  0
  5 19  1  0  0  0  0
  6  5  1  0  0  0  0
  7  1  1  0  0  0  0
  8 10  1  0  0  0  0
  9 25  1  0  0  0  0
 10 11  2  0  0  0  0
 11  7  1  0  0  0  0
 12  9  3  0  0  0  0
 13  1  2  0  0  0  0
 14  1  2  0  0  0  0
 15  3  1  0  0  0  0
 16  1  1  0  0  0  0
 17  8  1  0  0  0  0
 18  8  2  0  0  0  0
 19 17  1  0  0  0  0
 20 15  1  0  0  0  0
 21 15  2  0  0  0  0
 22 24  2  0  0  0  0
 23 20  2  0  0  0  0
 23 22  1  0  0  0  0
 24 21  1  0  0  0  0
 25 16  1  0  0  0  0
 26 22  1  0  0  0  0
 27  7  2  0  0  0  0
 28 10  1  0  0  0  0
 29 27  1  0  0  0  0
 29 28  2  0  0  0  0
M  END
> <CdId>
3947

> <Mol Weight>
430.862

> <Formula>
C20H15ClN2O5S

> <Click_ID>
CLK051C09 __ __ 

$$$$
