CLK044D07
 OpenBabel03181417552D

 20 21  0  0  0  0  0  0  0  0999 V2000
    0.5958   -1.9917    0.0000 C   0  0  0  0  0  0  0  0  0  0  0  0
    1.3125   -2.4042    0.0000 C   0  0  0  0  0  0  0  0  0  0  0  0
   -2.2625    2.9583    0.0000 C   0  0  0  0  0  0  0  0  0  0  0  0
    0.5958   -1.1667    0.0000 N   0  0  0  0  0  0  0  0  0  0  0  0
   -2.9750    3.3708    0.0000 C   0  0  0  0  0  0  0  0  0  0  0  0
   -0.1167    0.0708    0.0000 C   0  0  0  0  0  0  0  0  0  0  0  0
    2.0625   -2.0708    0.0000 O   0  0  0  0  0  0  0  0  0  0  0  0
   -0.8333    0.4833    0.0000 N   0  0  0  0  0  0  0  0  0  0  0  0
    1.3958   -3.2250    0.0000 C   0  0  0  0  0  0  0  0  0  0  0  0
   -0.1167   -2.4042    0.0000 O   0  0  0  0  0  0  0  0  0  0  0  0
    2.6167   -2.6833    0.0000 C   0  0  0  0  0  0  0  0  0  0  0  0
   -0.8333    1.3083    0.0000 C   0  0  0  0  0  0  0  0  0  0  0  0
    2.2042   -3.3958    0.0000 C   0  0  0  0  0  0  0  0  0  0  0  0
    0.5958    0.4833    0.0000 O   0  0  0  0  0  0  0  0  0  0  0  0
   -0.1167   -0.7542    0.0000 C   0  0  0  0  0  0  0  0  0  0  0  0
   -1.5458    2.5458    0.0000 C   0  0  0  0  0  0  0  0  0  0  0  0
   -1.5458    1.7208    0.0000 C   0  0  0  0  0  0  0  0  0  0  0  0
   -0.1167    2.5458    0.0000 C   0  0  0  0  0  0  0  0  0  0  0  0
   -0.1167    1.7208    0.0000 C   0  0  0  0  0  0  0  0  0  0  0  0
   -0.8333    2.9583    0.0000 C   0  0  0  0  0  0  0  0  0  0  0  0
  2  1  1  0  0  0  0
  3 16  1  0  0  0  0
  4  1  1  0  0  0  0
  5  3  3  0  0  0  0
  6 15  1  0  0  0  0
  7  2  1  0  0  0  0
  8  6  1  0  0  0  0
  9  2  2  0  0  0  0
 10  1  2  0  0  0  0
 11  7  1  0  0  0  0
 11 13  2  0  0  0  0
 12  8  1  0  0  0  0
 13  9  1  0  0  0  0
 14  6  2  0  0  0  0
 15  4  1  0  0  0  0
 16 17  1  0  0  0  0
 17 12  2  0  0  0  0
 18 19  2  0  0  0  0
 19 12  1  0  0  0  0
 20 16  2  0  0  0  0
 20 18  1  0  0  0  0
M  END
> <CdId>
3372

> <Mol Weight>
268.2674

> <Formula>
C15H12N2O3

> <Click_ID>
CLK044D07 __ __ 

$$$$
