CLK041F11
 OpenBabel03181417552D

 24 26  0  0  0  0  0  0  0  0999 V2000
   -0.5958    1.2750    0.0000 N    0  0  0  0  0  0  0  0  0  0  0  0
   -1.3125    1.6875    0.0000 C    0  0  0  0  0  0  0  0  0  0  0  0
   -0.5958    0.4500    0.0000 C    0  0  3  0  0  0  0  0  0  0  0  0
   -1.3125    0.0375    0.0000 N    0  0  0  0  0  0  0  0  0  0  0  0
   -2.0250    1.2750    0.0000 C    0  0  0  0  0  0  0  0  0  0  0  0
   -2.0250    0.4500    0.0000 C    0  0  0  0  0  0  0  0  0  0  0  0
    0.1167    0.0375    0.0000 C    0  0  0  0  0  0  0  0  0  0  0  0
    1.5458   -0.7875    0.0000 C    0  0  0  0  0  0  0  0  0  0  0  0
    0.8333   -1.2000    0.0000 C    0  0  0  0  0  0  0  0  0  0  0  0
    1.5458    0.0375    0.0000 C    0  0  0  0  0  0  0  0  0  0  0  0
    0.1167   -0.7875    0.0000 C    0  0  0  0  0  0  0  0  0  0  0  0
    0.8333    0.4500    0.0000 C    0  0  0  0  0  0  0  0  0  0  0  0
    2.9750   -2.4375    0.0000 C    0  0  0  0  0  0  0  0  0  0  0  0
    3.6875   -2.8500    0.0000 C    0  0  0  0  0  0  0  0  0  0  0  0
   -1.3125    2.5125    0.0000 O    0  0  0  0  0  0  0  0  0  0  0  0
    0.8333   -2.0250    0.0000 Cl   0  0  0  0  0  0  0  0  0  0  0  0
    2.2583   -1.2000    0.0000 O    0  0  0  0  0  0  0  0  0  0  0  0
    2.2583    0.4500    0.0000 O    0  0  0  0  0  0  0  0  0  0  0  0
   -2.7417    1.6875    0.0000 C    0  0  0  0  0  0  0  0  0  0  0  0
    2.2583   -2.0250    0.0000 C    0  0  0  0  0  0  0  0  0  0  0  0
   -2.7417    0.0375    0.0000 C    0  0  0  0  0  0  0  0  0  0  0  0
    2.2583    1.2750    0.0000 C    0  0  0  0  0  0  0  0  0  0  0  0
   -3.4542    1.2750    0.0000 C    0  0  0  0  0  0  0  0  0  0  0  0
   -3.4542    0.4500    0.0000 C    0  0  0  0  0  0  0  0  0  0  0  0
  2  1  1  0  0  0  0
  3  1  1  0  0  0  0
  4  3  1  0  0  0  0
  4  6  1  0  0  0  0
  5  2  1  0  0  0  0
  6  5  2  0  0  0  0
  7  3  1  0  0  0  0
  8  9  1  0  0  0  0
  8 10  2  0  0  0  0
  9 11  2  0  0  0  0
 10 12  1  0  0  0  0
 11  7  1  0  0  0  0
 12  7  2  0  0  0  0
 13 20  1  0  0  0  0
 14 13  3  0  0  0  0
 15  2  2  0  0  0  0
 16  9  1  0  0  0  0
 17  8  1  0  0  0  0
 18 10  1  0  0  0  0
 19  5  1  0  0  0  0
 20 17  1  0  0  0  0
 21  6  1  0  0  0  0
 22 18  1  0  0  0  0
 23 19  2  0  0  0  0
 24 21  2  0  0  0  0
 24 23  1  0  0  0  0
M  END
> <CdId>
3166

> <Mol Weight>
342.776

> <Formula>
C18H15ClN2O3

> <Click_ID>
CLK041F11 __ __ 

$$$$
