CLK037D03
 OpenBabel03181417552D

 28 30  0  0  0  0  0  0  0  0999 V2000
   -0.1542    1.2083    0.0000 C    0  0  0  0  0  0  0  0  0  0  0  0
   -0.8708    0.7958    0.0000 C    0  0  0  0  0  0  0  0  0  0  0  0
    0.5583    0.7958    0.0000 N    0  0  0  0  0  0  0  0  0  0  0  0
    1.9875   -0.0292    0.0000 N    0  0  0  0  0  0  0  0  0  0  0  0
   -2.3000   -0.0292    0.0000 C    0  0  0  0  0  0  0  0  0  0  0  0
   -2.3000    0.7958    0.0000 C    0  0  0  0  0  0  0  0  0  0  0  0
   -1.5833   -0.4417    0.0000 C    0  0  0  0  0  0  0  0  0  0  0  0
   -1.5833    1.2083    0.0000 C    0  0  0  0  0  0  0  0  0  0  0  0
   -0.8708   -0.0292    0.0000 C    0  0  0  0  0  0  0  0  0  0  0  0
    2.7042   -0.4417    0.0000 C    0  0  0  0  0  0  0  0  0  0  0  0
   -4.4417   -0.4417    0.0000 C    0  0  0  0  0  0  0  0  0  0  0  0
   -5.1583   -0.8542    0.0000 C    0  0  0  0  0  0  0  0  0  0  0  0
   -0.1542    2.0333    0.0000 S    0  0  0  0  0  0  0  0  0  0  0  0
    1.2750    1.2083    0.0000 C    0  0  0  0  0  0  0  0  0  0  0  0
    0.5583   -0.0292    0.0000 C    0  0  0  0  0  0  0  0  0  0  0  0
    1.2750   -0.4417    0.0000 C    0  0  0  0  0  0  0  0  0  0  0  0
    1.9875    0.7958    0.0000 C    0  0  0  0  0  0  0  0  0  0  0  0
    3.4167   -0.0292    0.0000 C    0  0  0  0  0  0  0  0  0  0  0  0
   -3.0125    1.2083    0.0000 Cl   0  0  0  0  0  0  0  0  0  0  0  0
   -3.0125   -0.4417    0.0000 O    0  0  0  0  0  0  0  0  0  0  0  0
   -1.5833   -1.2667    0.0000 O    0  0  0  0  0  0  0  0  0  0  0  0
    3.4167    0.7958    0.0000 Cl   0  0  0  0  0  0  0  0  0  0  0  0
   -3.7292   -0.0292    0.0000 C    0  0  0  0  0  0  0  0  0  0  0  0
    2.7042   -1.2667    0.0000 C    0  0  0  0  0  0  0  0  0  0  0  0
    4.1333   -0.4417    0.0000 C    0  0  0  0  0  0  0  0  0  0  0  0
   -0.8708   -1.6792    0.0000 C    0  0  0  0  0  0  0  0  0  0  0  0
    3.4167   -1.6792    0.0000 C    0  0  0  0  0  0  0  0  0  0  0  0
    4.1333   -1.2667    0.0000 C    0  0  0  0  0  0  0  0  0  0  0  0
  2  1  1  0  0  0  0
  3  1  1  0  0  0  0
  4 17  1  0  0  0  0
  4 16  1  0  0  0  0
  5  6  1  0  0  0  0
  5  7  2  0  0  0  0
  6  8  2  0  0  0  0
  7  9  1  0  0  0  0
  8  2  1  0  0  0  0
  9  2  2  0  0  0  0
 10  4  1  0  0  0  0
 11 23  1  0  0  0  0
 12 11  3  0  0  0  0
 13  1  2  0  0  0  0
 14  3  1  0  0  0  0
 15  3  1  0  0  0  0
 16 15  1  0  0  0  0
 17 14  1  0  0  0  0
 18 10  2  0  0  0  0
 19  6  1  0  0  0  0
 20  5  1  0  0  0  0
 21  7  1  0  0  0  0
 22 18  1  0  0  0  0
 23 20  1  0  0  0  0
 24 10  1  0  0  0  0
 25 18  1  0  0  0  0
 26 21  1  0  0  0  0
 27 24  2  0  0  0  0
 28 25  2  0  0  0  0
 28 27  1  0  0  0  0
M  END
> <CdId>
2780

> <Mol Weight>
435.367

> <Formula>
C21H20Cl2N2O2S

> <Click_ID>
CLK037D03 __ __ 

$$$$
