CLK044H02
 OpenBabel03181417552D

 26 29  0  0  0  0  0  0  0  0999 V2000
   -0.9125   -0.0125    0.0000 C   0  0  0  0  0  0  0  0  0  0  0  0
    1.1792    0.4000    0.0000 N   0  0  0  0  0  0  0  0  0  0  0  0
   -1.4000    0.6542    0.0000 N   0  0  0  0  0  0  0  0  0  0  0  0
   -1.4000   -0.6792    0.0000 N   0  0  0  0  0  0  0  0  0  0  0  0
   -0.0875   -0.0125    0.0000 C   0  0  3  0  0  0  0  0  0  0  0  0
    1.1792   -0.4250    0.0000 C   0  0  0  0  0  0  0  0  0  0  0  0
    0.3958    0.6542    0.0000 C   0  0  0  0  0  0  0  0  0  0  0  0
   -2.1833   -0.4250    0.0000 C   0  0  0  0  0  0  0  0  0  0  0  0
   -2.1833    0.4000    0.0000 C   0  0  0  0  0  0  0  0  0  0  0  0
    1.8500    0.8875    0.0000 C   0  0  0  0  0  0  0  0  0  0  0  0
    0.3958   -0.6792    0.0000 C   0  0  0  0  0  0  0  0  0  0  0  0
   -1.6958   -2.0750    0.0000 C   0  0  0  0  0  0  0  0  0  0  0  0
   -2.2500   -2.6875    0.0000 C   0  0  0  0  0  0  0  0  0  0  0  0
    1.8500   -0.9083    0.0000 O   0  0  0  0  0  0  0  0  0  0  0  0
    2.6000    0.5500    0.0000 C   0  0  0  0  0  0  0  0  0  0  0  0
   -1.1458   -1.4625    0.0000 C   0  0  0  0  0  0  0  0  0  0  0  0
    2.6875   -0.2708    0.0000 O   0  0  0  0  0  0  0  0  0  0  0  0
   -2.9000   -0.8375    0.0000 C   0  0  0  0  0  0  0  0  0  0  0  0
    1.7625    1.7083    0.0000 C   0  0  0  0  0  0  0  0  0  0  0  0
   -2.9000    0.8125    0.0000 C   0  0  0  0  0  0  0  0  0  0  0  0
    3.2708    1.0375    0.0000 C   0  0  0  0  0  0  0  0  0  0  0  0
    3.4417   -0.6042    0.0000 C   0  0  0  0  0  0  0  0  0  0  0  0
   -3.6125   -0.4250    0.0000 C   0  0  0  0  0  0  0  0  0  0  0  0
    2.4292    2.1917    0.0000 C   0  0  0  0  0  0  0  0  0  0  0  0
   -3.6125    0.4000    0.0000 C   0  0  0  0  0  0  0  0  0  0  0  0
    3.1833    1.8542    0.0000 C   0  0  0  0  0  0  0  0  0  0  0  0
  2  7  1  0  0  0  0
  3  1  2  0  0  0  0
  4  1  1  0  0  0  0
  5  1  1  0  0  0  0
  6 11  1  0  0  0  0
  6  2  1  0  0  0  0
  7  5  1  0  0  0  0
  8  4  1  0  0  0  0
  8  9  2  0  0  0  0
  9  3  1  0  0  0  0
 10  2  1  0  0  0  0
 11  5  1  0  0  0  0
 12 16  1  0  0  0  0
 13 12  3  0  0  0  0
 14  6  2  0  0  0  0
 15 10  2  0  0  0  0
 16  4  1  0  0  0  0
 17 15  1  0  0  0  0
 18  8  1  0  0  0  0
 19 10  1  0  0  0  0
 20  9  1  0  0  0  0
 21 15  1  0  0  0  0
 22 17  1  0  0  0  0
 23 18  2  0  0  0  0
 23 25  1  0  0  0  0
 24 19  2  0  0  0  0
 24 26  1  0  0  0  0
 25 20  2  0  0  0  0
 26 21  2  0  0  0  0
M  END
> <CdId>
3336

> <Mol Weight>
345.3945

> <Formula>
C21H19N3O2

> <Click_ID>
CLK044H02 __ __ 

$$$$
