CLK009_B02
 OpenBabel03181417552D

 15 15  0  0  0  0  0  0  0  0999 V2000
   -0.0550   -2.0946    0.0000 Br   0  0  0  0  0  0  0  0  0  0  0  0
   -1.6316   -0.5362    0.0000 N    0  0  0  0  0  0  0  0  0  0  0  0
   -0.8250   -0.0046    0.0000 C    0  0  0  0  0  0  0  0  0  0  0  0
   -0.0550   -1.1550    0.0000 N    0  0  0  0  0  0  0  0  0  0  0  0
   -0.0550   -0.4950    0.0000 C    0  0  0  0  0  0  0  0  0  0  0  0
   -1.6454   -1.1550    0.0000 C    0  0  0  0  0  0  0  0  0  0  0  0
   -0.8250    0.8204    0.0000 C    0  0  0  0  0  0  0  0  0  0  0  0
   -0.8938   -1.6500    0.0000 C    0  0  0  0  0  0  0  0  0  0  0  0
   -2.4429   -0.0046    0.0000 C    0  0  0  0  0  0  0  0  0  0  0  0
   -2.4429    0.8204    0.0000 C    0  0  0  0  0  0  0  0  0  0  0  0
    1.2146   -1.1321    0.0000 C    0  0  0  0  0  0  0  0  0  0  0  0
    2.0350   -1.1321    0.0000 C    0  0  0  0  0  0  0  0  0  0  0  0
    0.5821   -1.4346    0.0000 C    0  0  0  0  0  0  0  0  0  0  0  0
    0.5821   -0.1513    0.0000 C    0  0  0  0  0  0  0  0  0  0  0  0
   -3.0616   -0.3162    0.0000 C    0  0  0  0  0  0  0  0  0  0  0  0
  3  2  1  0  0  0  0
  4  8  1  0  0  0  0
  4  5  2  0  0  0  0
  5  3  1  0  0  0  0
  6  2  1  0  0  0  0
  7  3  2  0  0  0  0
  8  6  2  0  0  0  0
  9  2  1  0  0  0  0
 10  9  2  0  0  0  0
 10  7  1  0  0  0  0
 11 13  1  0  0  0  0
 12 11  3  0  0  0  0
 13  4  1  0  0  0  0
 14  5  1  0  0  0  0
 15  9  1  0  0  0  0
M  END
> <CdId>
607

> <Mol Weight>
265.149

> <Formula>
C12H13BrN2

> <Click_ID>
CLK009_B02 __ __ 

$$$$
