CLK028_F04
 OpenBabel03181417552D

 30 33  0  0  0  0  0  0  0  0999 V2000
    1.7913    0.1132    0.0000 N   0  0  0  0  0  0  0  0  0  0  0  0
    0.3775    0.1132    0.0000 C   0  0  0  0  0  0  0  0  0  0  0  0
    1.7913   -0.7138    0.0000 C   0  0  0  0  0  0  0  0  0  0  0  0
    1.0844    0.5285    0.0000 C   0  0  0  0  0  0  0  0  0  0  0  0
    1.0844   -1.1153    0.0000 N   0  0  0  0  0  0  0  0  0  0  0  0
    0.3775   -0.7138    0.0000 C   0  0  0  0  0  0  0  0  0  0  0  0
   -1.0535    0.1132    0.0000 C   0  0  0  0  0  0  0  0  0  0  0  0
   -0.3432    0.5216    0.0000 C   0  0  0  0  0  0  0  0  0  0  0  0
   -1.9595   -0.8785    0.0000 N   0  0  0  0  0  0  0  0  0  0  0  0
   -1.1496   -0.7069    0.0000 C   0  0  0  0  0  0  0  0  0  0  0  0
    2.5119    0.5216    0.0000 C   0  0  0  0  0  0  0  0  0  0  0  0
   -1.8187    0.4530    0.0000 C   0  0  0  0  0  0  0  0  0  0  0  0
   -2.3713   -0.1613    0.0000 C   0  0  0  0  0  0  0  0  0  0  0  0
    2.4982   -1.1153    0.0000 S   0  0  0  0  0  0  0  0  0  0  0  0
   -3.1228   -1.7124    0.0000 C   0  0  0  0  0  0  0  0  0  0  0  0
    1.0844    1.3555    0.0000 O   0  0  0  0  0  0  0  0  0  0  0  0
   -3.9429   -1.7467    0.0000 C   0  0  0  0  0  0  0  0  0  0  0  0
   -0.3432   -1.1221    0.0000 O   0  0  0  0  0  0  0  0  0  0  0  0
    3.2188    0.1064    0.0000 C   0  0  0  0  0  0  0  0  0  0  0  0
   -2.3026   -1.6334    0.0000 C   0  0  0  0  0  0  0  0  0  0  0  0
    3.2155   -0.7138    0.0000 O   0  0  0  0  0  0  0  0  0  0  0  0
   -3.1743    0.0138    0.0000 C   0  0  0  0  0  0  0  0  0  0  0  0
   -2.0590    1.2422    0.0000 C   0  0  0  0  0  0  0  0  0  0  0  0
    2.5085    1.3418    0.0000 C   0  0  0  0  0  0  0  0  0  0  0  0
    3.9361    0.5147    0.0000 C   0  0  0  0  0  0  0  0  0  0  0  0
    3.9223   -1.1290    0.0000 C   0  0  0  0  0  0  0  0  0  0  0  0
   -2.8757    1.4036    0.0000 C   0  0  0  0  0  0  0  0  0  0  0  0
   -3.4247    0.7962    0.0000 C   0  0  0  0  0  0  0  0  0  0  0  0
    3.2188    1.7501    0.0000 C   0  0  0  0  0  0  0  0  0  0  0  0
    3.9395    1.3418    0.0000 C   0  0  0  0  0  0  0  0  0  0  0  0
  2  4  1  0  0  0  0
  3  1  1  0  0  0  0
  4  1  1  0  0  0  0
  5  3  1  0  0  0  0
  6  2  1  0  0  0  0
  6  5  1  0  0  0  0
  7  8  1  0  0  0  0
  8  2  2  0  0  0  0
  9 10  1  0  0  0  0
 10  7  2  0  0  0  0
 11  1  1  0  0  0  0
 12  7  1  0  0  0  0
 13 12  1  0  0  0  0
 13  9  1  0  0  0  0
 14  3  2  0  0  0  0
 15 20  1  0  0  0  0
 16  4  2  0  0  0  0
 17 15  3  0  0  0  0
 18  6  2  0  0  0  0
 19 11  2  0  0  0  0
 20  9  1  0  0  0  0
 21 19  1  0  0  0  0
 22 13  2  0  0  0  0
 23 12  2  0  0  0  0
 24 11  1  0  0  0  0
 25 19  1  0  0  0  0
 25 30  2  0  0  0  0
 26 21  1  0  0  0  0
 27 23  1  0  0  0  0
 28 27  2  0  0  0  0
 28 22  1  0  0  0  0
 29 24  2  0  0  0  0
 30 29  1  0  0  0  0
M  END
> <CdId>
2138

> <Mol Weight>
415.464

> <Formula>
C23H17N3O3S

> <Click_ID>
CLK028_F04 __ __ 

$$$$
