CLK043G10
 OpenBabel03181417552D

 33 36  0  0  0  0  0  0  0  0999 V2000
   -2.0750    2.7083    0.0000 N   0  0  0  0  0  0  0  0  0  0  0  0
    2.6250   -2.7375    0.0000 S   0  0  0  0  0  0  0  0  0  0  0  0
   -1.2917    2.4542    0.0000 C   0  0  0  0  0  0  0  0  0  0  0  0
   -0.8083    3.1167    0.0000 N   0  0  0  0  0  0  0  0  0  0  0  0
   -1.2917    3.7875    0.0000 N   0  0  0  0  0  0  0  0  0  0  0  0
   -2.0750    3.5333    0.0000 C   0  0  0  0  0  0  0  0  0  0  0  0
    0.5875   -0.8500    0.0000 C   0  0  0  0  0  0  0  0  0  0  0  0
    1.8083   -2.6417    0.0000 C   0  0  0  0  0  0  0  0  0  0  0  0
   -0.2083   -0.6500    0.0000 N   0  0  0  0  0  0  0  0  0  0  0  0
    0.7542   -1.6708    0.0000 C   0  0  0  0  0  0  0  0  0  0  0  0
    4.6000   -3.9667    0.0000 C   0  0  0  0  0  0  0  0  0  0  0  0
   -1.0458    1.6750    0.0000 C   0  0  0  0  0  0  0  0  0  0  0  0
    1.5542   -1.8500    0.0000 C   0  0  0  0  0  0  0  0  0  0  0  0
    5.4042   -4.1167    0.0000 C   0  0  0  0  0  0  0  0  0  0  0  0
    2.8250   -1.9333    0.0000 O   0  0  0  0  0  0  0  0  0  0  0  0
    2.5125   -3.5625    0.0000 O   0  0  0  0  0  0  0  0  0  0  0  0
    3.4042   -3.0333    0.0000 N   0  0  0  0  0  0  0  0  0  0  0  0
    1.1167   -0.2125    0.0000 O   0  0  0  0  0  0  0  0  0  0  0  0
   -0.2375    1.5000    0.0000 C   0  0  0  0  0  0  0  0  0  0  0  0
   -1.6042    1.0625    0.0000 C   0  0  0  0  0  0  0  0  0  0  0  0
   -0.5458    0.0958    0.0000 C   0  0  0  0  0  0  0  0  0  0  0  0
   -2.6625    2.1250    0.0000 C   0  0  0  0  0  0  0  0  0  0  0  0
   -1.3542    0.2792    0.0000 C   0  0  0  0  0  0  0  0  0  0  0  0
    0.0083    0.7083    0.0000 C   0  0  0  0  0  0  0  0  0  0  0  0
    3.8000   -3.7667    0.0000 C   0  0  0  0  0  0  0  0  0  0  0  0
   -2.6583    4.1125    0.0000 C   0  0  0  0  0  0  0  0  0  0  0  0
    1.2458   -3.2458    0.0000 C   0  0  0  0  0  0  0  0  0  0  0  0
    0.1917   -2.2792    0.0000 C   0  0  0  0  0  0  0  0  0  0  0  0
    0.4417   -3.0667    0.0000 C   0  0  0  0  0  0  0  0  0  0  0  0
   -3.4875    2.1250    0.0000 C   0  0  0  0  0  0  0  0  0  0  0  0
   -3.4833    4.1125    0.0000 C   0  0  0  0  0  0  0  0  0  0  0  0
   -4.0667    3.5375    0.0000 C   0  0  0  0  0  0  0  0  0  0  0  0
   -4.0667    2.7125    0.0000 C   0  0  0  0  0  0  0  0  0  0  0  0
  2  8  1  0  0  0  0
  3  1  1  0  0  0  0
  4  3  2  0  0  0  0
  5  6  2  0  0  0  0
  5  4  1  0  0  0  0
  6  1  1  0  0  0  0
  7  9  1  0  0  0  0
  8 13  1  0  0  0  0
  9 21  1  0  0  0  0
 10  7  1  0  0  0  0
 11 25  1  0  0  0  0
 12  3  1  0  0  0  0
 13 10  2  0  0  0  0
 14 11  3  0  0  0  0
 15  2  2  0  0  0  0
 16  2  2  0  0  0  0
 17  2  1  0  0  0  0
 18  7  2  0  0  0  0
 19 12  1  0  0  0  0
 20 12  2  0  0  0  0
 21 23  2  0  0  0  0
 22  1  1  0  0  0  0
 23 20  1  0  0  0  0
 24 19  2  0  0  0  0
 24 21  1  0  0  0  0
 25 17  1  0  0  0  0
 26  6  1  0  0  0  0
 27  8  2  0  0  0  0
 27 29  1  0  0  0  0
 28 10  1  0  0  0  0
 29 28  2  0  0  0  0
 30 22  1  0  0  0  0
 31 26  1  0  0  0  0
 32 31  1  0  0  0  0
 33 30  1  0  0  0  0
 33 32  1  0  0  0  0
M  END
> <CdId>
3319

> <Mol Weight>
463.552

> <Formula>
C24H25N5O3S

> <Click_ID>
CLK043G10 __ __ 

$$$$
