CLK045F02
 OpenBabel03181417552D

 29 31  0  0  0  0  0  0  0  0999 V2000
    3.0042    0.6583    0.0000 S   0  0  0  0  0  0  0  0  0  0  0  0
    0.1458   -0.9917    0.0000 C   0  0  0  0  0  0  0  0  0  0  0  0
   -0.5667   -0.5792    0.0000 N   0  0  0  0  0  0  0  0  0  0  0  0
    2.2875    0.2458    0.0000 C   0  0  0  0  0  0  0  0  0  0  0  0
   -3.4250   -0.5792    0.0000 C   0  0  0  0  0  0  0  0  0  0  0  0
    5.1458    1.0708    0.0000 C   0  0  0  0  0  0  0  0  0  0  0  0
    5.8625    1.4833    0.0000 C   0  0  0  0  0  0  0  0  0  0  0  0
    2.5917    1.3708    0.0000 O   0  0  0  0  0  0  0  0  0  0  0  0
    3.4167   -0.0583    0.0000 O   0  0  0  0  0  0  0  0  0  0  0  0
    0.8583   -0.5792    0.0000 C   0  0  0  0  0  0  0  0  0  0  0  0
   -3.4250    0.2458    0.0000 C   0  0  0  0  0  0  0  0  0  0  0  0
    3.7167    1.0708    0.0000 N   0  0  0  0  0  0  0  0  0  0  0  0
   -1.2833   -0.9917    0.0000 C   0  0  0  0  0  0  0  0  0  0  0  0
    0.1458   -1.8167    0.0000 O   0  0  0  0  0  0  0  0  0  0  0  0
   -2.7125   -0.9917    0.0000 C   0  0  0  0  0  0  0  0  0  0  0  0
   -4.1417   -0.9917    0.0000 O   0  0  0  0  0  0  0  0  0  0  0  0
   -1.9958   -0.5792    0.0000 C   0  0  0  0  0  0  0  0  0  0  0  0
   -4.1417    0.6583    0.0000 O   0  0  0  0  0  0  0  0  0  0  0  0
    2.2875   -0.5792    0.0000 C   0  0  0  0  0  0  0  0  0  0  0  0
    1.5750    0.6583    0.0000 C   0  0  0  0  0  0  0  0  0  0  0  0
    1.5750   -0.9917    0.0000 C   0  0  0  0  0  0  0  0  0  0  0  0
    0.8583    0.2458    0.0000 C   0  0  0  0  0  0  0  0  0  0  0  0
   -2.7125    0.6583    0.0000 C   0  0  0  0  0  0  0  0  0  0  0  0
   -1.9958    0.2458    0.0000 C   0  0  0  0  0  0  0  0  0  0  0  0
    4.4333    0.6583    0.0000 C   0  0  0  0  0  0  0  0  0  0  0  0
   -0.5667    0.2458    0.0000 C   0  0  0  0  0  0  0  0  0  0  0  0
   -4.8542   -0.5792    0.0000 C   0  0  0  0  0  0  0  0  0  0  0  0
   -4.8542    0.2458    0.0000 C   0  0  0  0  0  0  0  0  0  0  0  0
   -1.2833    0.6583    0.0000 C   0  0  0  0  0  0  0  0  0  0  0  0
  2 10  1  0  0  0  0
  3  2  1  0  0  0  0
  4  1  1  0  0  0  0
  5 15  1  0  0  0  0
  6 25  1  0  0  0  0
  7  6  3  0  0  0  0
  8  1  2  0  0  0  0
  9  1  2  0  0  0  0
 10 22  2  0  0  0  0
 11  5  2  0  0  0  0
 11 23  1  0  0  0  0
 12  1  1  0  0  0  0
 13  3  1  0  0  0  0
 14  2  2  0  0  0  0
 15 17  2  0  0  0  0
 16  5  1  0  0  0  0
 17 13  1  0  0  0  0
 18 11  1  0  0  0  0
 19  4  1  0  0  0  0
 20  4  2  0  0  0  0
 21 19  2  0  0  0  0
 21 10  1  0  0  0  0
 22 20  1  0  0  0  0
 23 24  2  0  0  0  0
 24 17  1  0  0  0  0
 25 12  1  0  0  0  0
 26  3  1  0  0  0  0
 27 16  1  0  0  0  0
 27 28  1  0  0  0  0
 28 18  1  0  0  0  0
 29 26  1  0  0  0  0
M  END
> <CdId>
3414

> <Mol Weight>
414.475

> <Formula>
C21H22N2O5S

> <Click_ID>
CLK045F02 __ __ 

$$$$
