CLK004_A03
 OpenBabel03181417552D

 28 30  0  0  0  0  0  0  0  0999 V2000
   -0.1600    0.5131    0.0000 C    0  0  0  0  0  0  0  0  0  0  0  0
    0.6654    0.4851    0.0000 N    0  0  0  0  0  0  0  0  0  0  0  0
   -0.5968   -0.1829    0.0000 C    0  0  0  0  0  0  0  0  0  0  0  0
   -0.5486    1.2420    0.0000 C    0  0  0  0  0  0  0  0  0  0  0  0
    1.0998    1.1861    0.0000 C    0  0  0  0  0  0  0  0  0  0  0  0
    1.0515   -0.2336    0.0000 C    0  0  0  0  0  0  0  0  0  0  0  0
   -1.4223   -0.1549    0.0000 C    0  0  0  0  0  0  0  0  0  0  0  0
   -0.2057   -0.9067    0.0000 Cl   0  0  0  0  0  0  0  0  0  0  0  0
   -1.3741    1.2699    0.0000 C    0  0  0  0  0  0  0  0  0  0  0  0
    1.9252    1.1607    0.0000 C    0  0  0  0  0  0  0  0  0  0  0  0
    1.8770   -0.2616    0.0000 C    0  0  0  0  0  0  0  0  0  0  0  0
   -1.8058    0.5689    0.0000 C    0  0  0  0  0  0  0  0  0  0  0  0
    2.3163    0.4344    0.0000 C    0  0  0  0  0  0  0  0  0  0  0  0
   -2.6313    0.5968    0.0000 S    0  0  0  0  0  0  0  0  0  0  0  0
    3.1367    0.4089    0.0000 C    0  0  0  0  0  0  0  0  0  0  0  0
   -2.8726   -0.1931    0.0000 N    0  0  0  0  0  0  0  0  0  0  0  0
   -3.4441    0.7620    0.0000 O    0  0  0  0  0  0  0  0  0  0  0  0
   -2.5348    1.4147    0.0000 O    0  0  0  0  0  0  0  0  0  0  0  0
    3.5279   -0.3150    0.0000 N    0  0  0  0  0  0  0  0  0  0  0  0
    3.5736    1.1073    0.0000 O    0  0  0  0  0  0  0  0  0  0  0  0
   -2.3088   -0.7899    0.0000 C    0  0  0  0  0  0  0  0  0  0  0  0
   -3.6777   -0.3784    0.0000 C    0  0  0  0  0  0  0  0  0  0  0  0
    4.3533   -0.3429    0.0000 C    0  0  0  0  0  0  0  0  0  0  0  0
   -2.5501   -1.5798    0.0000 C    0  0  0  0  0  0  0  0  0  0  0  0
   -3.9139   -1.1683    0.0000 C    0  0  0  0  0  0  0  0  0  0  0  0
    4.7419   -1.0668    0.0000 C    0  0  0  0  0  0  0  0  0  0  0  0
   -3.3501   -1.7703    0.0000 O    0  0  0  0  0  0  0  0  0  0  0  0
    5.1280   -1.7982    0.0000 C    0  0  0  0  0  0  0  0  0  0  0  0
  1  2  1  0  0  0  0
  1  3  1  0  0  0  0
  1  4  2  0  0  0  0
  2  5  1  0  0  0  0
  2  6  1  0  0  0  0
  3  7  2  0  0  0  0
  3  8  1  0  0  0  0
  4  9  1  0  0  0  0
  5 10  1  0  0  0  0
  6 11  1  0  0  0  0
  7 12  1  0  0  0  0
  9 12  2  0  0  0  0
 10 13  1  0  0  0  0
 11 13  1  0  0  0  0
 12 14  1  0  0  0  0
 13 15  1  0  0  0  0
 14 16  1  0  0  0  0
 14 17  2  0  0  0  0
 14 18  2  0  0  0  0
 15 19  1  0  0  0  0
 15 20  2  0  0  0  0
 16 21  1  0  0  0  0
 16 22  1  0  0  0  0
 19 23  1  0  0  0  0
 21 24  1  0  0  0  0
 22 25  1  0  0  0  0
 23 26  1  0  0  0  0
 24 27  1  0  0  0  0
 25 27  1  0  0  0  0
 26 28  3  0  0  0  0
M  END
> <CdId>
242

> <Mol Weight>
425.93

> <Formula>
C19H24ClN3O4S

> <Click_ID>
CLK004_A03 __ __ 

$$$$
