CLK046E07
 OpenBabel03181417552D

 25 25  0  0  0  0  0  0  0  0999 V2000
    0.1207    0.1665    0.0000 S   0  0  0  0  0  0  0  0  0  0  0  0
    0.6118    0.8283    0.0000 C   0  0  0  0  0  0  0  0  0  0  0  0
   -0.3704   -0.4953    0.0000 N   0  0  0  0  0  0  0  0  0  0  0  0
    1.6981    1.6024    0.0000 N   0  0  0  0  0  0  0  0  0  0  0  0
    0.3621    1.6149    0.0000 C   0  0  0  0  0  0  0  0  0  0  0  0
    1.4359    0.8199    0.0000 C   0  0  0  0  0  0  0  0  0  0  0  0
    1.0322    2.0935    0.0000 O   0  0  0  0  0  0  0  0  0  0  0  0
   -0.0417   -1.2528    0.0000 C   0  0  0  0  0  0  0  0  0  0  0  0
   -1.1904   -0.4038    0.0000 C   0  0  0  0  0  0  0  0  0  0  0  0
   -0.5411    0.6576    0.0000 O   0  0  0  0  0  0  0  0  0  0  0  0
    0.7824   -0.3246    0.0000 O   0  0  0  0  0  0  0  0  0  0  0  0
    0.7741   -1.3443    0.0000 C   0  0  0  0  0  0  0  0  0  0  0  0
   -1.5191    0.3538    0.0000 C   0  0  0  0  0  0  0  0  0  0  0  0
    2.2517   -2.9510    0.0000 C   0  0  0  0  0  0  0  0  0  0  0  0
   -3.4837    1.2986    0.0000 C   0  0  0  0  0  0  0  0  0  0  0  0
    2.5805   -3.7084    0.0000 C   0  0  0  0  0  0  0  0  0  0  0  0
   -4.3036    1.3902    0.0000 C   0  0  0  0  0  0  0  0  0  0  0  0
    1.2653   -0.6826    0.0000 O   0  0  0  0  0  0  0  0  0  0  0  0
   -1.0281    1.0156    0.0000 O   0  0  0  0  0  0  0  0  0  0  0  0
    1.1030   -2.1019    0.0000 N   0  0  0  0  0  0  0  0  0  0  0  0
   -2.3349    0.4495    0.0000 N   0  0  0  0  0  0  0  0  0  0  0  0
    1.9229   -2.1976    0.0000 C   0  0  0  0  0  0  0  0  0  0  0  0
   -2.6638    1.2029    0.0000 C   0  0  0  0  0  0  0  0  0  0  0  0
   -0.4203    1.8771    0.0000 C   0  0  0  0  0  0  0  0  0  0  0  0
    1.9104    0.1498    0.0000 C   0  0  0  0  0  0  0  0  0  0  0  0
  2  1  1  0  0  0  0
  3  1  1  0  0  0  0
  4  6  2  0  0  0  0
  5  2  2  0  0  0  0
  6  2  1  0  0  0  0
  7  5  1  0  0  0  0
  7  4  1  0  0  0  0
  8  3  1  0  0  0  0
  9  3  1  0  0  0  0
 10  1  2  0  0  0  0
 11  1  2  0  0  0  0
 12  8  1  0  0  0  0
 13  9  1  0  0  0  0
 14 22  1  0  0  0  0
 15 23  1  0  0  0  0
 16 14  3  0  0  0  0
 17 15  3  0  0  0  0
 18 12  2  0  0  0  0
 19 13  2  0  0  0  0
 20 12  1  0  0  0  0
 21 13  1  0  0  0  0
 22 20  1  0  0  0  0
 23 21  1  0  0  0  0
 24  5  1  0  0  0  0
 25  6  1  0  0  0  0
M  END
> <CdId>
3533

> <Mol Weight>
366.392

> <Formula>
C15H18N4O5S

> <Click_ID>
CLK046E07 __ __ 

$$$$
