CLK038C09
 OpenBabel03181417552D

 31 32  0  0  0  0  0  0  0  0999 V2000
   -0.0542   -0.3294    0.0000 C   0  0  0  0  0  0  0  0  0  0  0  0
   -0.5378    0.3377    0.0000 C   0  0  0  0  0  0  0  0  0  0  0  0
    0.7296   -0.0750    0.0000 N   0  0  0  0  0  0  0  0  0  0  0  0
    0.7296    0.7504    0.0000 N   0  0  0  0  0  0  0  0  0  0  0  0
   -0.0542    1.0047    0.0000 C   0  0  0  0  0  0  0  0  0  0  0  0
   -0.3085   -1.1173    0.0000 C   0  0  0  0  0  0  0  0  0  0  0  0
    6.5493    0.3585    0.0000 C   0  0  0  0  0  0  0  0  0  0  0  0
    6.1365   -0.3544    0.0000 C   0  0  0  0  0  0  0  0  0  0  0  0
   -3.0141    1.7676    0.0000 C   0  0  0  0  0  0  0  0  0  0  0  0
   -3.4268    2.4805    0.0000 C   0  0  0  0  0  0  0  0  0  0  0  0
   -1.1173   -1.2882    0.0000 C   0  0  0  0  0  0  0  0  0  0  0  0
    1.4007    1.2340    0.0000 C   0  0  0  0  0  0  0  0  0  0  0  0
    7.3747    0.3585    0.0000 O   0  0  0  0  0  0  0  0  0  0  0  0
    6.5493   -1.0714    0.0000 O   0  0  0  0  0  0  0  0  0  0  0  0
   -1.3632    0.3377    0.0000 C   0  0  0  0  0  0  0  0  0  0  0  0
    6.1365    1.0756    0.0000 O   0  0  0  0  0  0  0  0  0  0  0  0
    5.3111   -0.3544    0.0000 O   0  0  0  0  0  0  0  0  0  0  0  0
   -1.7759    1.0506    0.0000 N   0  0  0  0  0  0  0  0  0  0  0  0
    2.1553    0.9005    0.0000 C   0  0  0  0  0  0  0  0  0  0  0  0
   -2.6014    1.0506    0.0000 C   0  0  0  0  0  0  0  0  0  0  0  0
   -1.6676   -0.6754    0.0000 O   0  0  0  0  0  0  0  0  0  0  0  0
    0.2418   -1.7301    0.0000 C   0  0  0  0  0  0  0  0  0  0  0  0
   -1.3715   -2.0719    0.0000 C   0  0  0  0  0  0  0  0  0  0  0  0
    2.8223    1.3840    0.0000 C   0  0  0  0  0  0  0  0  0  0  0  0
    2.2387    0.0792    0.0000 C   0  0  0  0  0  0  0  0  0  0  0  0
   -2.4763   -0.8462    0.0000 C   0  0  0  0  0  0  0  0  0  0  0  0
   -0.0125   -2.5138    0.0000 C   0  0  0  0  0  0  0  0  0  0  0  0
   -0.8171   -2.6847    0.0000 C   0  0  0  0  0  0  0  0  0  0  0  0
    2.9933   -0.2584    0.0000 C   0  0  0  0  0  0  0  0  0  0  0  0
    3.5769    1.0464    0.0000 C   0  0  0  0  0  0  0  0  0  0  0  0
    3.6602    0.2251    0.0000 C   0  0  0  0  0  0  0  0  0  0  0  0
  2  1  1  0  0  0  0
  3  1  2  0  0  0  0
  4  3  1  0  0  0  0
  5  2  2  0  0  0  0
  5  4  1  0  0  0  0
  6  1  1  0  0  0  0
  8  7  1  0  0  0  0
  9 20  1  0  0  0  0
 10  9  3  0  0  0  0
 11  6  2  0  0  0  0
 12  4  1  0  0  0  0
 13  7  2  0  0  0  0
 14  8  2  0  0  0  0
 15  2  1  0  0  0  0
 16  7  1  0  0  0  0
 17  8  1  0  0  0  0
 18 15  1  0  0  0  0
 19 12  1  0  0  0  0
 20 18  1  0  0  0  0
 21 11  1  0  0  0  0
 22  6  1  0  0  0  0
 23 11  1  0  0  0  0
 24 19  2  0  0  0  0
 25 19  1  0  0  0  0
 26 21  1  0  0  0  0
 27 22  2  0  0  0  0
 27 28  1  0  0  0  0
 28 23  2  0  0  0  0
 29 25  2  0  0  0  0
 30 24  1  0  0  0  0
 31 30  2  0  0  0  0
 31 29  1  0  0  0  0
M  END
> <CdId>
2907

> <Mol Weight>
421.4458

> <Formula>
C23H23N3O5

> <Click_ID>
CLK038C09 __ __ 

$$$$
