CLK014_H03
 OpenBabel03181417552D

 26 28  0  0  0  0  0  0  0  0999 V2000
    1.5629   -0.8147    0.0000 N    0  0  0  0  0  0  0  0  0  0  0  0
    1.8205   -1.6003    0.0000 C    0  0  0  0  0  0  0  0  0  0  0  0
    2.2320   -0.3284    0.0000 C    0  0  0  0  0  0  0  0  0  0  0  0
    2.8971   -0.8147    0.0000 C    0  0  0  0  0  0  0  0  0  0  0  0
    2.6435   -1.6003    0.0000 S    0  0  0  0  0  0  0  0  0  0  0  0
    3.6827   -0.5611    0.0000 C    0  0  0  0  0  0  0  0  0  0  0  0
    0.6110    0.2452    0.0000 C    0  0  0  0  0  0  0  0  0  0  0  0
    0.3907    1.0432    0.0000 C    0  0  0  0  0  0  0  0  0  0  0  0
    1.3342   -2.2611    0.0000 O    0  0  0  0  0  0  0  0  0  0  0  0
    5.3535    3.7241    0.0000 C    0  0  0  0  0  0  0  0  0  0  0  0
    2.2237    0.4946    0.0000 O    0  0  0  0  0  0  0  0  0  0  0  0
    0.7856   -0.5611    0.0000 C    0  0  0  0  0  0  0  0  0  0  0  0
    4.7425    4.2687    0.0000 C    0  0  0  0  0  0  0  0  0  0  0  0
    5.1665    2.9178    0.0000 C    0  0  0  0  0  0  0  0  0  0  0  0
    3.8530    0.2494    0.0000 C    0  0  0  0  0  0  0  0  0  0  0  0
    4.3934    2.6643    0.0000 O    0  0  0  0  0  0  0  0  0  0  0  0
    4.2064    1.8662    0.0000 C    0  0  0  0  0  0  0  0  0  0  0  0
    3.9570    4.0151    0.0000 Cl   0  0  0  0  0  0  0  0  0  0  0  0
    3.2420    0.8105    0.0000 C    0  0  0  0  0  0  0  0  0  0  0  0
    4.6303    0.5071    0.0000 C    0  0  0  0  0  0  0  0  0  0  0  0
    4.8049    1.3051    0.0000 C    0  0  0  0  0  0  0  0  0  0  0  0
    3.4166    1.6168    0.0000 C    0  0  0  0  0  0  0  0  0  0  0  0
    6.1391    3.9611    0.0000 C    0  0  0  0  0  0  0  0  0  0  0  0
    4.9296    5.0750    0.0000 C    0  0  0  0  0  0  0  0  0  0  0  0
    6.3220    4.7550    0.0000 C    0  0  0  0  0  0  0  0  0  0  0  0
    5.7152    5.3161    0.0000 C    0  0  0  0  0  0  0  0  0  0  0  0
  2  1  1  0  0  0  0
  3  1  1  0  0  0  0
  4  3  1  0  0  0  0
  4  5  1  0  0  0  0
  5  2  1  0  0  0  0
  6  4  2  0  0  0  0
  7 12  1  0  0  0  0
  8  7  3  0  0  0  0
  9  2  2  0  0  0  0
 10 14  1  0  0  0  0
 11  3  2  0  0  0  0
 12  1  1  0  0  0  0
 13 10  1  0  0  0  0
 14 16  1  0  0  0  0
 15  6  1  0  0  0  0
 16 17  1  0  0  0  0
 17 21  1  0  0  0  0
 17 22  2  0  0  0  0
 18 13  1  0  0  0  0
 19 15  2  0  0  0  0
 20 15  1  0  0  0  0
 21 20  2  0  0  0  0
 22 19  1  0  0  0  0
 23 10  2  0  0  0  0
 24 13  2  0  0  0  0
 24 26  1  0  0  0  0
 25 23  1  0  0  0  0
 26 25  2  0  0  0  0
M  END
> <CdId>
1068

> <Mol Weight>
383.848

> <Formula>
C20H14ClNO3S

> <Click_ID>
CLK014_H03 __ __ 

$$$$
