CLK037G02
 OpenBabel03181417552D

 23 24  0  0  0  0  0  0  0  0999 V2000
    0.0583   -1.2875    0.0000 C   0  0  0  0  0  0  0  0  0  0  0  0
    1.4875   -2.9375    0.0000 C   0  0  0  0  0  0  0  0  0  0  0  0
    2.2042   -3.3500    0.0000 C   0  0  0  0  0  0  0  0  0  0  0  0
    0.0583   -2.1125    0.0000 N   0  0  0  0  0  0  0  0  0  0  0  0
    0.7750   -2.5250    0.0000 C   0  0  0  0  0  0  0  0  0  0  0  0
   -0.6542    1.6000    0.0000 C   0  0  0  0  0  0  0  0  0  0  0  0
    0.7750   -0.8750    0.0000 O   0  0  0  0  0  0  0  0  0  0  0  0
   -0.6542   -0.8750    0.0000 C   0  0  0  0  0  0  0  0  0  0  0  0
   -0.6542    2.4250    0.0000 C   0  0  0  0  0  0  0  0  0  0  0  0
   -1.3708    1.1875    0.0000 C   0  0  0  0  0  0  0  0  0  0  0  0
    0.0583    1.1875    0.0000 C   0  0  0  0  0  0  0  0  0  0  0  0
   -0.6542   -0.0500    0.0000 C   0  0  0  0  0  0  0  0  0  0  0  0
   -1.3708    0.3625    0.0000 C   0  0  0  0  0  0  0  0  0  0  0  0
    0.0583    0.3625    0.0000 C   0  0  0  0  0  0  0  0  0  0  0  0
    0.3625   -3.2417    0.0000 C   0  0  0  0  0  0  0  0  0  0  0  0
    1.1875   -1.8125    0.0000 C   0  0  0  0  0  0  0  0  0  0  0  0
    0.0583    2.8375    0.0000 C   0  0  0  0  0  0  0  0  0  0  0  0
   -1.3708    2.8375    0.0000 C   0  0  0  0  0  0  0  0  0  0  0  0
   -0.4625   -3.2417    0.0000 C   0  0  0  0  0  0  0  0  0  0  0  0
    2.0125   -1.8125    0.0000 C   0  0  0  0  0  0  0  0  0  0  0  0
   -1.3708    3.6625    0.0000 C   0  0  0  0  0  0  0  0  0  0  0  0
    0.0583    3.6625    0.0000 C   0  0  0  0  0  0  0  0  0  0  0  0
   -0.6542    4.0708    0.0000 C   0  0  0  0  0  0  0  0  0  0  0  0
  2  5  1  0  0  0  0
  3  2  3  0  0  0  0
  4  1  1  0  0  0  0
  5  4  1  0  0  0  0
  6 10  2  0  0  0  0
  6 11  1  0  0  0  0
  7  1  2  0  0  0  0
  8  1  1  0  0  0  0
  9  6  1  0  0  0  0
 10 13  1  0  0  0  0
 11 14  2  0  0  0  0
 12  8  1  0  0  0  0
 13 12  2  0  0  0  0
 14 12  1  0  0  0  0
 15  5  1  0  0  0  0
 16  5  1  0  0  0  0
 17  9  1  0  0  0  0
 18  9  2  0  0  0  0
 19 15  1  0  0  0  0
 20 16  1  0  0  0  0
 21 18  1  0  0  0  0
 22 17  2  0  0  0  0
 23 21  2  0  0  0  0
 23 22  1  0  0  0  0
M  END
> <CdId>
2775

> <Mol Weight>
305.4134

> <Formula>
C21H23NO

> <Click_ID>
CLK037G02 __ __ 

$$$$
