CLK027_G06
 OpenBabel03181417552D

 29 30  0  0  0  0  0  0  0  0999 V2000
   -0.3506   -0.4090    0.0000 C    0  0  0  0  0  0  0  0  0  0  0  0
   -0.3506   -1.2340    0.0000 C    0  0  0  0  0  0  0  0  0  0  0  0
    0.3609    0.0000    0.0000 C    0  0  0  0  0  0  0  0  0  0  0  0
    0.3609    2.4750    0.0000 C    0  0  0  0  0  0  0  0  0  0  0  0
   -1.0690    0.0000    0.0000 C    0  0  0  0  0  0  0  0  0  0  0  0
    1.0725    2.0625    0.0000 C    0  0  0  0  0  0  0  0  0  0  0  0
   -0.3575    2.0625    0.0000 C    0  0  0  0  0  0  0  0  0  0  0  0
    0.3609    0.8250    0.0000 C    0  0  0  0  0  0  0  0  0  0  0  0
   -1.0587   -1.6432    0.0000 N    0  0  0  0  0  0  0  0  0  0  0  0
   -1.7772    0.4125    0.0000 N    0  0  0  0  0  0  0  0  0  0  0  0
   -1.0690   -4.9465    0.0000 C    0  0  0  0  0  0  0  0  0  0  0  0
   -0.3506    4.5375    0.0000 C    0  0  0  0  0  0  0  0  0  0  0  0
   -0.3506    5.3590    0.0000 C    0  0  0  0  0  0  0  0  0  0  0  0
    1.0725    1.2375    0.0000 C    0  0  0  0  0  0  0  0  0  0  0  0
   -0.3575    1.2375    0.0000 C    0  0  0  0  0  0  0  0  0  0  0  0
   -1.0587   -4.1250    0.0000 C    0  0  0  0  0  0  0  0  0  0  0  0
    0.3644   -1.6432    0.0000 O    0  0  0  0  0  0  0  0  0  0  0  0
   -1.7841   -5.3557    0.0000 O    0  0  0  0  0  0  0  0  0  0  0  0
   -1.0587   -2.4750    0.0000 C    0  0  0  0  0  0  0  0  0  0  0  0
   -1.7703   -3.7125    0.0000 C    0  0  0  0  0  0  0  0  0  0  0  0
   -0.3438   -3.7125    0.0000 C    0  0  0  0  0  0  0  0  0  0  0  0
    1.7875    2.4818    0.0000 Cl   0  0  0  0  0  0  0  0  0  0  0  0
    0.3609    3.2965    0.0000 O    0  0  0  0  0  0  0  0  0  0  0  0
   -0.3575   -5.3590    0.0000 O    0  0  0  0  0  0  0  0  0  0  0  0
   -1.0725    2.4818    0.0000 O    0  0  0  0  0  0  0  0  0  0  0  0
   -0.3438   -2.8772    0.0000 C    0  0  0  0  0  0  0  0  0  0  0  0
   -1.7703   -2.8772    0.0000 C    0  0  0  0  0  0  0  0  0  0  0  0
   -0.3506    3.7057    0.0000 C    0  0  0  0  0  0  0  0  0  0  0  0
   -1.7909    2.0763    0.0000 C    0  0  0  0  0  0  0  0  0  0  0  0
  2  1  1  0  0  0  0
  3  1  2  0  0  0  0
  4  7  2  0  0  0  0
  4  6  1  0  0  0  0
  5  1  1  0  0  0  0
  6 14  2  0  0  0  0
  7 15  1  0  0  0  0
  8  3  1  0  0  0  0
  9  2  1  0  0  0  0
 10  5  3  0  0  0  0
 11 16  1  0  0  0  0
 12 28  1  0  0  0  0
 13 12  3  0  0  0  0
 14  8  1  0  0  0  0
 15  8  2  0  0  0  0
 16 20  1  0  0  0  0
 16 21  2  0  0  0  0
 17  2  2  0  0  0  0
 18 11  2  0  0  0  0
 19  9  1  0  0  0  0
 20 27  2  0  0  0  0
 21 26  1  0  0  0  0
 22  6  1  0  0  0  0
 23  4  1  0  0  0  0
 24 11  1  0  0  0  0
 25  7  1  0  0  0  0
 26 19  2  0  0  0  0
 27 19  1  0  0  0  0
 28 23  1  0  0  0  0
 29 25  1  0  0  0  0
M  END
> <CdId>
2074

> <Mol Weight>
410.807

> <Formula>
C21H15ClN2O5

> <Click_ID>
CLK027_G06 __ __ 

$$$$
