CLK038B03
 OpenBabel03181417552D

 24 26  0  0  0  0  0  0  0  0999 V2000
   -2.5333    0.7583    0.0000 N   0  0  0  0  0  0  0  0  0  0  0  0
   -1.8208    1.1708    0.0000 C   0  0  0  0  0  0  0  0  0  0  0  0
   -1.1042    0.7583    0.0000 C   0  0  0  0  0  0  0  0  0  0  0  0
   -1.8208   -0.4792    0.0000 N   0  0  0  0  0  0  0  0  0  0  0  0
   -2.5333   -0.0667    0.0000 C   0  0  0  0  0  0  0  0  0  0  0  0
   -1.1042   -0.0667    0.0000 C   0  0  0  0  0  0  0  0  0  0  0  0
    1.0375   -0.4792    0.0000 C   0  0  0  0  0  0  0  0  0  0  0  0
    1.7542   -0.0667    0.0000 N   0  0  0  0  0  0  0  0  0  0  0  0
    0.3250   -0.0667    0.0000 C   0  0  0  0  0  0  0  0  0  0  0  0
   -0.3917   -0.4792    0.0000 C   0  0  0  0  0  0  0  0  0  0  0  0
    3.1833   -0.8917    0.0000 C   0  0  0  0  0  0  0  0  0  0  0  0
   -0.3917    1.1708    0.0000 C   0  0  0  0  0  0  0  0  0  0  0  0
    3.8958   -1.3042    0.0000 C   0  0  0  0  0  0  0  0  0  0  0  0
   -1.8208    1.9958    0.0000 O   0  0  0  0  0  0  0  0  0  0  0  0
    2.4667   -0.4792    0.0000 C   0  0  0  0  0  0  0  0  0  0  0  0
    1.0375   -1.3042    0.0000 O   0  0  0  0  0  0  0  0  0  0  0  0
    0.3250    0.7583    0.0000 C   0  0  0  0  0  0  0  0  0  0  0  0
   -3.3167    1.0125    0.0000 C   0  0  0  0  0  0  0  0  0  0  0  0
   -3.3167   -0.3208    0.0000 C   0  0  0  0  0  0  0  0  0  0  0  0
   -3.8042    0.3458    0.0000 C   0  0  0  0  0  0  0  0  0  0  0  0
    2.0542   -1.1917    0.0000 C   0  0  0  0  0  0  0  0  0  0  0  0
    2.8792    0.2333    0.0000 C   0  0  0  0  0  0  0  0  0  0  0  0
    1.2292   -1.1917    0.0000 C   0  0  0  0  0  0  0  0  0  0  0  0
    3.7042    0.2333    0.0000 C   0  0  0  0  0  0  0  0  0  0  0  0
  2  1  1  0  0  0  0
  3  2  1  0  0  0  0
  4  5  2  0  0  0  0
  5  1  1  0  0  0  0
  6  4  1  0  0  0  0
  6  3  2  0  0  0  0
  7  9  1  0  0  0  0
  8  7  1  0  0  0  0
  9 10  2  0  0  0  0
 10  6  1  0  0  0  0
 11 15  1  0  0  0  0
 12  3  1  0  0  0  0
 13 11  3  0  0  0  0
 14  2  2  0  0  0  0
 15  8  1  0  0  0  0
 16  7  2  0  0  0  0
 17 12  2  0  0  0  0
 17  9  1  0  0  0  0
 18  1  1  0  0  0  0
 19  5  1  0  0  0  0
 19 20  1  0  0  0  0
 20 18  1  0  0  0  0
 21 15  1  0  0  0  0
 22 15  1  0  0  0  0
 23 21  1  0  0  0  0
 24 22  1  0  0  0  0
M  END
> <CdId>
2858

> <Mol Weight>
323.3889

> <Formula>
C19H21N3O2

> <Click_ID>
CLK038B03 __ __ 

$$$$
