CLK034_E02
 OpenBabel03181417552D

 22 24  0  0  0  0  0  0  0  0999 V2000
   -4.5761    2.5460    0.0000 C   0  0  0  0  0  0  0  0  0  0  0  0
   -3.8648    2.9662    0.0000 N   0  0  0  0  0  0  0  0  0  0  0  0
   -4.6677    1.7306    0.0000 N   0  0  0  0  0  0  0  0  0  0  0  0
   -5.3125    2.8913    0.0000 S   0  0  0  0  0  0  0  0  0  0  0  0
   -5.4747    1.5683    0.0000 C   0  0  0  0  0  0  0  0  0  0  0  0
   -5.8741    2.2923    0.0000 C   0  0  0  0  0  0  0  0  0  0  0  0
   -3.8648    3.7941    0.0000 C   0  0  0  0  0  0  0  0  0  0  0  0
   -3.1533    4.2059    0.0000 C   0  0  0  0  0  0  0  0  0  0  0  0
   -6.6938    2.3047    0.0000 C   0  0  0  0  0  0  0  0  0  0  0  0
   -4.2392    0.3494    0.0000 C   0  0  0  0  0  0  0  0  0  0  0  0
   -4.4139   -0.4535    0.0000 C   0  0  0  0  0  0  0  0  0  0  0  0
   -5.8991    0.8695    0.0000 C   0  0  0  0  0  0  0  0  0  0  0  0
   -2.3963    3.8773    0.0000 O   0  0  0  0  0  0  0  0  0  0  0  0
   -7.1181    1.5975    0.0000 C   0  0  0  0  0  0  0  0  0  0  0  0
   -4.5886    4.2059    0.0000 O   0  0  0  0  0  0  0  0  0  0  0  0
   -3.0660    5.0339    0.0000 C   0  0  0  0  0  0  0  0  0  0  0  0
   -6.7062    0.8820    0.0000 C   0  0  0  0  0  0  0  0  0  0  0  0
   -1.8429    4.4847    0.0000 C   0  0  0  0  0  0  0  0  0  0  0  0
   -4.0520    1.1607    0.0000 C   0  0  0  0  0  0  0  0  0  0  0  0
   -2.2548    5.1919    0.0000 C   0  0  0  0  0  0  0  0  0  0  0  0
   -7.0931    3.0285    0.0000 C   0  0  0  0  0  0  0  0  0  0  0  0
   -7.1056    0.1580    0.0000 C   0  0  0  0  0  0  0  0  0  0  0  0
  2  1  2  0  0  0  0
  3  1  1  0  0  0  0
  4  1  1  0  0  0  0
  5  3  1  0  0  0  0
  6  4  1  0  0  0  0
  6  5  2  0  0  0  0
  7  2  1  0  0  0  0
  8  7  1  0  0  0  0
  9  6  1  0  0  0  0
 10 19  1  0  0  0  0
 11 10  3  0  0  0  0
 12  5  1  0  0  0  0
 13  8  1  0  0  0  0
 14  9  2  0  0  0  0
 15  7  2  0  0  0  0
 16  8  2  0  0  0  0
 17 12  2  0  0  0  0
 17 14  1  0  0  0  0
 18 13  1  0  0  0  0
 18 20  2  0  0  0  0
 19  3  1  0  0  0  0
 20 16  1  0  0  0  0
 21  9  1  0  0  0  0
 22 17  1  0  0  0  0
M  END
> <CdId>
2606

> <Mol Weight>
310.37

> <Formula>
C17H14N2O2S

> <Click_ID>
CLK034_E02 __ __ 

$$$$
