CLK048G06
 OpenBabel03181417552D

 21 22  0  0  0  0  0  0  0  0999 V2000
    0.8125    0.0875    0.0000 C    0  0  0  0  0  0  0  0  0  0  0  0
   -0.4583    0.5000    0.0000 N    0  0  0  0  0  0  0  0  0  0  0  0
    0.0292   -0.1667    0.0000 C    0  0  0  0  0  0  0  0  0  0  0  0
    0.0292    1.1667    0.0000 N    0  0  0  0  0  0  0  0  0  0  0  0
    0.8125    0.9125    0.0000 C    0  0  0  0  0  0  0  0  0  0  0  0
    1.4792   -0.3958    0.0000 C    0  0  0  0  0  0  0  0  0  0  0  0
   -1.2833    0.5000    0.0000 C    0  0  0  0  0  0  0  0  0  0  0  0
    3.6542   -0.2125    0.0000 C    0  0  0  0  0  0  0  0  0  0  0  0
    4.4083    0.1250    0.0000 C    0  0  0  0  0  0  0  0  0  0  0  0
    1.3917   -1.2167    0.0000 O    0  0  0  0  0  0  0  0  0  0  0  0
   -0.2292   -0.9542    0.0000 C    0  0  0  0  0  0  0  0  0  0  0  0
    2.2333   -0.0625    0.0000 N    0  0  0  0  0  0  0  0  0  0  0  0
   -1.6958   -0.2167    0.0000 C    0  0  0  0  0  0  0  0  0  0  0  0
   -1.6958    1.2125    0.0000 C    0  0  0  0  0  0  0  0  0  0  0  0
   -2.9333    0.5000    0.0000 C    0  0  0  0  0  0  0  0  0  0  0  0
   -2.5208    1.2125    0.0000 C    0  0  0  0  0  0  0  0  0  0  0  0
   -2.5208   -0.2167    0.0000 C    0  0  0  0  0  0  0  0  0  0  0  0
   -3.7583    0.5000    0.0000 Cl   0  0  0  0  0  0  0  0  0  0  0  0
    2.9000   -0.5458    0.0000 C    0  0  0  0  0  0  0  0  0  0  0  0
   -1.0333   -1.1250    0.0000 C    0  0  0  0  0  0  0  0  0  0  0  0
    0.3250   -1.5667    0.0000 C    0  0  0  0  0  0  0  0  0  0  0  0
  2  3  1  0  0  0  0
  2  4  1  0  0  0  0
  3  1  2  0  0  0  0
  4  5  2  0  0  0  0
  5  1  1  0  0  0  0
  6  1  1  0  0  0  0
  7  2  1  0  0  0  0
  8 19  1  0  0  0  0
  9  8  3  0  0  0  0
 10  6  2  0  0  0  0
 11  3  1  0  0  0  0
 12  6  1  0  0  0  0
 13  7  2  0  0  0  0
 14  7  1  0  0  0  0
 15 17  2  0  0  0  0
 15 16  1  0  0  0  0
 16 14  2  0  0  0  0
 17 13  1  0  0  0  0
 18 15  1  0  0  0  0
 19 12  1  0  0  0  0
 20 11  1  0  0  0  0
 21 11  1  0  0  0  0
M  END
> <CdId>
3687

> <Mol Weight>
301.771

> <Formula>
C16H16ClN3O

> <Click_ID>
CLK048G06 __ __ 

$$$$
