CLK023_E09
 OpenBabel03181417552D

 23 25  0  0  0  0  0  0  0  0999 V2000
   -1.6309    0.2621    0.0000 N   0  0  0  0  0  0  0  0  0  0  0  0
   -2.0413   -0.4620    0.0000 C   0  0  0  0  0  0  0  0  0  0  0  0
   -0.7206   -0.7379    0.0000 C   0  0  0  0  0  0  0  0  0  0  0  0
   -0.8103    0.0862    0.0000 C   0  0  0  0  0  0  0  0  0  0  0  0
   -1.4827   -1.0758    0.0000 S   0  0  0  0  0  0  0  0  0  0  0  0
   -0.0069   -1.1482    0.0000 C   0  0  0  0  0  0  0  0  0  0  0  0
    0.7137   -0.7379    0.0000 C   0  0  0  0  0  0  0  0  0  0  0  0
    1.4171   -1.1482    0.0000 C   0  0  0  0  0  0  0  0  0  0  0  0
    2.1309   -0.7379    0.0000 C   0  0  0  0  0  0  0  0  0  0  0  0
   -1.4792    1.6861    0.0000 C   0  0  0  0  0  0  0  0  0  0  0  0
   -1.0309    2.3895    0.0000 C   0  0  0  0  0  0  0  0  0  0  0  0
   -2.8584   -0.5517    0.0000 O   0  0  0  0  0  0  0  0  0  0  0  0
   -0.2069    0.6482    0.0000 O   0  0  0  0  0  0  0  0  0  0  0  0
    2.1309    0.0862    0.0000 C   0  0  0  0  0  0  0  0  0  0  0  0
   -1.9688    1.0102    0.0000 C   0  0  0  0  0  0  0  0  0  0  0  0
    0.7137    0.0862    0.0000 C   0  0  0  0  0  0  0  0  0  0  0  0
    1.4275    0.5000    0.0000 C   0  0  0  0  0  0  0  0  0  0  0  0
    2.8515    0.5000    0.0000 O   0  0  0  0  0  0  0  0  0  0  0  0
    1.4068   -1.9722    0.0000 C   0  0  0  0  0  0  0  0  0  0  0  0
    2.8515   -1.1585    0.0000 C   0  0  0  0  0  0  0  0  0  0  0  0
    2.8550    1.3379    0.0000 C   0  0  0  0  0  0  0  0  0  0  0  0
    2.1274   -2.3860    0.0000 C   0  0  0  0  0  0  0  0  0  0  0  0
    2.8515   -1.9757    0.0000 C   0  0  0  0  0  0  0  0  0  0  0  0
  2  1  1  0  0  0  0
  3  4  1  0  0  0  0
  4  1  1  0  0  0  0
  5  2  1  0  0  0  0
  5  3  1  0  0  0  0
  6  3  2  0  0  0  0
  7  6  1  0  0  0  0
  8  7  1  0  0  0  0
  9  8  1  0  0  0  0
 10 15  1  0  0  0  0
 11 10  3  0  0  0  0
 12  2  2  0  0  0  0
 13  4  2  0  0  0  0
 14 17  2  0  0  0  0
 14  9  1  0  0  0  0
 15  1  1  0  0  0  0
 16  7  2  0  0  0  0
 17 16  1  0  0  0  0
 18 14  1  0  0  0  0
 19  8  2  0  0  0  0
 20  9  2  0  0  0  0
 20 23  1  0  0  0  0
 21 18  1  0  0  0  0
 22 19  1  0  0  0  0
 23 22  2  0  0  0  0
M  END
> <CdId>
1744

> <Mol Weight>
323.366

> <Formula>
C18H13NO3S

> <Click_ID>
CLK023_E09 __ __ 

$$$$
