CLK027_D10
 OpenBabel03181417552D

 35 38  0  0  0  0  0  0  0  0999 V2000
    1.9662   -0.7631    0.0000 N   0  0  0  0  0  0  0  0  0  0  0  0
    2.4269   -0.0825    0.0000 C   0  0  0  0  0  0  0  0  0  0  0  0
    1.1825   -0.5431    0.0000 C   0  0  0  0  0  0  0  0  0  0  0  0
    1.9147    0.5603    0.0000 N   0  0  0  0  0  0  0  0  0  0  0  0
   -0.8903   -1.2547    0.0000 C   0  0  0  0  0  0  0  0  0  0  0  0
   -0.2407   -0.7425    0.0000 N   0  0  0  0  0  0  0  0  0  0  0  0
    1.1447    0.2681    0.0000 O   0  0  0  0  0  0  0  0  0  0  0  0
    3.2519   -0.0825    0.0000 C   0  0  0  0  0  0  0  0  0  0  0  0
    0.5191   -1.0553    0.0000 C   0  0  0  0  0  0  0  0  0  0  0  0
   -5.3625   -0.2510    0.0000 C   0  0  0  0  0  0  0  0  0  0  0  0
   -6.1359    0.0481    0.0000 C   0  0  0  0  0  0  0  0  0  0  0  0
    3.6644    0.6325    0.0000 C   0  0  0  0  0  0  0  0  0  0  0  0
   -1.6500   -0.9419    0.0000 C   0  0  0  0  0  0  0  0  0  0  0  0
    4.4894    0.6325    0.0000 C   0  0  0  0  0  0  0  0  0  0  0  0
   -0.7700   -2.0728    0.0000 O   0  0  0  0  0  0  0  0  0  0  0  0
    4.8984   -0.0825    0.0000 C   0  0  0  0  0  0  0  0  0  0  0  0
   -0.3541    0.0722    0.0000 C   0  0  0  0  0  0  0  0  0  0  0  0
    3.6644   -0.7941    0.0000 C   0  0  0  0  0  0  0  0  0  0  0  0
    4.4894   -0.7941    0.0000 C   0  0  0  0  0  0  0  0  0  0  0  0
   -2.2997   -1.4541    0.0000 C   0  0  0  0  0  0  0  0  0  0  0  0
   -1.7634   -0.1272    0.0000 C   0  0  0  0  0  0  0  0  0  0  0  0
   -3.1763   -0.3300    0.0000 C   0  0  0  0  0  0  0  0  0  0  0  0
    4.9122    1.3544    0.0000 O   0  0  0  0  0  0  0  0  0  0  0  0
   -2.5334    0.1822    0.0000 C   0  0  0  0  0  0  0  0  0  0  0  0
   -3.0593   -1.1412    0.0000 C   0  0  0  0  0  0  0  0  0  0  0  0
    5.7234   -0.0825    0.0000 O   0  0  0  0  0  0  0  0  0  0  0  0
   -4.5994   -0.5500    0.0000 C   0  0  0  0  0  0  0  0  0  0  0  0
   -3.9565   -0.0309    0.0000 O   0  0  0  0  0  0  0  0  0  0  0  0
    0.2956    0.5843    0.0000 C   0  0  0  0  0  0  0  0  0  0  0  0
   -1.1172    0.3816    0.0000 C   0  0  0  0  0  0  0  0  0  0  0  0
    4.4997    2.0763    0.0000 C   0  0  0  0  0  0  0  0  0  0  0  0
    6.1359   -0.7941    0.0000 C   0  0  0  0  0  0  0  0  0  0  0  0
    0.1788    1.4025    0.0000 C   0  0  0  0  0  0  0  0  0  0  0  0
   -1.2375    1.2031    0.0000 C   0  0  0  0  0  0  0  0  0  0  0  0
   -0.5913    1.7084    0.0000 C   0  0  0  0  0  0  0  0  0  0  0  0
  2  1  1  0  0  0  0
  3  1  2  0  0  0  0
  4  2  2  0  0  0  0
  4  7  1  0  0  0  0
  5  6  1  0  0  0  0
  6  9  1  0  0  0  0
  7  3  1  0  0  0  0
  8  2  1  0  0  0  0
  9  3  1  0  0  0  0
 10 27  1  0  0  0  0
 11 10  3  0  0  0  0
 12  8  1  0  0  0  0
 13  5  1  0  0  0  0
 14 12  2  0  0  0  0
 15  5  2  0  0  0  0
 16 19  2  0  0  0  0
 16 14  1  0  0  0  0
 17  6  1  0  0  0  0
 18  8  2  0  0  0  0
 19 18  1  0  0  0  0
 20 13  1  0  0  0  0
 21 13  2  0  0  0  0
 22 24  2  0  0  0  0
 23 14  1  0  0  0  0
 24 21  1  0  0  0  0
 25 20  2  0  0  0  0
 25 22  1  0  0  0  0
 26 16  1  0  0  0  0
 27 28  1  0  0  0  0
 28 22  1  0  0  0  0
 29 17  1  0  0  0  0
 30 17  1  0  0  0  0
 31 23  1  0  0  0  0
 32 26  1  0  0  0  0
 33 29  1  0  0  0  0
 34 30  1  0  0  0  0
 35 34  1  0  0  0  0
 35 33  1  0  0  0  0
M  END
> <CdId>
2052

> <Mol Weight>
475.5363

> <Formula>
C27H29N3O5

> <Click_ID>
CLK027_D10 __ __ 

$$$$
