CLK002_E04
 OpenBabel03181417552D

  9  9  0  0  0  0  0  0  0  0999 V2000
    0.1374    0.2444    0.0000 N   0  0  0  0  0  0  0  0  0  0  0  0
   -0.2788   -0.4736    0.0000 C   0  0  0  0  0  0  0  0  0  0  0  0
   -0.2788    0.9433    0.0000 C   0  0  0  0  0  0  0  0  0  0  0  0
    0.9624    0.2444    0.0000 C   0  0  0  0  0  0  0  0  0  0  0  0
   -1.0999   -0.4736    0.0000 C   0  0  0  0  0  0  0  0  0  0  0  0
   -1.0999    0.9433    0.0000 C   0  0  0  0  0  0  0  0  0  0  0  0
    1.3825   -0.4736    0.0000 C   0  0  0  0  0  0  0  0  0  0  0  0
   -1.5239    0.2444    0.0000 O   0  0  0  0  0  0  0  0  0  0  0  0
    1.7987   -1.2030    0.0000 C   0  0  0  0  0  0  0  0  0  0  0  0
  1  2  1  0  0  0  0
  1  3  1  0  0  0  0
  1  4  1  0  0  0  0
  2  5  1  0  0  0  0
  3  6  1  0  0  0  0
  4  7  1  0  0  0  0
  5  8  1  0  0  0  0
  6  8  1  0  0  0  0
  7  9  3  0  0  0  0
M  END
> <CdId>
123

> <Mol Weight>
125.1683

> <Formula>
C7H11NO

> <Click_ID>
CLK002_E04 __ __ 

$$$$
