CLK008_D05
 OpenBabel03181417552D

 50 56  0  0  0  0  0  0  0  0999 V2000
    2.6162   -0.9919    0.0000 C   0  0  0  0  0  0  0  0  0  0  0  0
    3.0231   -1.7032    0.0000 C   0  0  0  0  0  0  0  0  0  0  0  0
    3.1655   -0.3754    0.0000 C   0  0  0  0  0  0  0  0  0  0  0  0
    1.7902   -0.9919    0.0000 C   0  0  0  0  0  0  0  0  0  0  0  0
    3.8253   -1.5215    0.0000 C   0  0  0  0  0  0  0  0  0  0  0  0
    2.6162   -2.4106    0.0000 C   0  0  0  0  0  0  0  0  0  0  0  0
    3.8965   -0.7193    0.0000 N   0  0  0  0  0  0  0  0  0  0  0  0
    3.0231    0.4545    0.0000 O   0  0  0  0  0  0  0  0  0  0  0  0
    1.3752   -1.7032    0.0000 C   0  0  0  0  0  0  0  0  0  0  0  0
    4.4695   -2.0470    0.0000 O   0  0  0  0  0  0  0  0  0  0  0  0
    1.7902   -2.4106    0.0000 C   0  0  0  0  0  0  0  0  0  0  0  0
    4.5644   -0.2331    0.0000 C   0  0  0  0  0  0  0  0  0  0  0  0
    0.5533   -1.7032    0.0000 C   0  0  0  0  0  0  0  0  0  0  0  0
    4.4695    0.5888    0.0000 C   0  0  0  0  0  0  0  0  0  0  0  0
    5.2955   -0.5769    0.0000 C   0  0  0  0  0  0  0  0  0  0  0  0
    0.1383   -2.4106    0.0000 O   0  0  0  0  0  0  0  0  0  0  0  0
    0.1383   -0.9919    0.0000 O   0  0  0  0  0  0  0  0  0  0  0  0
    5.1374    1.0710    0.0000 C   0  0  0  0  0  0  0  0  0  0  0  0
    5.9594   -0.0988    0.0000 C   0  0  0  0  0  0  0  0  0  0  0  0
   -0.6876   -2.4106    0.0000 C   0  0  0  0  0  0  0  0  0  0  0  0
    5.8882    0.7113    0.0000 C   0  0  0  0  0  0  0  0  0  0  0  0
    5.0425    1.8929    0.0000 C   0  0  0  0  0  0  0  0  0  0  0  0
   -1.1026   -3.1259    0.0000 C   0  0  0  0  0  0  0  0  0  0  0  0
   -1.1026   -1.6795    0.0000 C   0  0  0  0  0  0  0  0  0  0  0  0
    4.9714    2.7188    0.0000 C   0  0  0  0  0  0  0  0  0  0  0  0
   -1.9245   -3.0982    0.0000 C   0  0  0  0  0  0  0  0  0  0  0  0
   -1.9245   -1.6795    0.0000 C   0  0  0  0  0  0  0  0  0  0  0  0
   -2.3355   -2.3909    0.0000 C   0  0  0  0  0  0  0  0  0  0  0  0
   -3.1655   -2.3909    0.0000 C   0  0  0  0  0  0  0  0  0  0  0  0
   -3.5724   -1.6795    0.0000 O   0  0  0  0  0  0  0  0  0  0  0  0
   -3.5724   -3.0982    0.0000 O   0  0  0  0  0  0  0  0  0  0  0  0
   -3.1655   -0.9722    0.0000 C   0  0  0  0  0  0  0  0  0  0  0  0
   -3.5724   -0.2608    0.0000 C   0  0  0  0  0  0  0  0  0  0  0  0
   -2.3355   -0.9722    0.0000 C   0  0  0  0  0  0  0  0  0  0  0  0
   -3.1655    0.4742    0.0000 C   0  0  0  0  0  0  0  0  0  0  0  0
   -1.9245   -0.2608    0.0000 C   0  0  0  0  0  0  0  0  0  0  0  0
   -2.3355    0.4545    0.0000 C   0  0  0  0  0  0  0  0  0  0  0  0
   -3.4144    1.2567    0.0000 C   0  0  0  0  0  0  0  0  0  0  0  0
   -2.0826    1.2567    0.0000 C   0  0  0  0  0  0  0  0  0  0  0  0
   -2.7505    1.7349    0.0000 N   0  0  0  0  0  0  0  0  0  0  0  0
   -4.1969    1.5294    0.0000 O   0  0  0  0  0  0  0  0  0  0  0  0
   -1.2803    1.5057    0.0000 O   0  0  0  0  0  0  0  0  0  0  0  0
   -2.6793    2.5371    0.0000 C   0  0  0  0  0  0  0  0  0  0  0  0
   -3.3432    3.0192    0.0000 C   0  0  0  0  0  0  0  0  0  0  0  0
   -1.9245    2.8809    0.0000 C   0  0  0  0  0  0  0  0  0  0  0  0
   -3.2523    3.8491    0.0000 C   0  0  0  0  0  0  0  0  0  0  0  0
   -1.8337    3.7068    0.0000 C   0  0  0  0  0  0  0  0  0  0  0  0
   -2.4975    4.1850    0.0000 C   0  0  0  0  0  0  0  0  0  0  0  0
   -3.9677    4.3075    0.0000 C   0  0  0  0  0  0  0  0  0  0  0  0
   -4.6553    4.7817    0.0000 C   0  0  0  0  0  0  0  0  0  0  0  0
  1  2  2  0  0  0  0
  1  3  1  0  0  0  0
  1  4  1  0  0  0  0
  2  5  1  0  0  0  0
  2  6  1  0  0  0  0
  3  7  1  0  0  0  0
  3  8  2  0  0  0  0
  4  9  2  0  0  0  0
  5 10  2  0  0  0  0
  5  7  1  0  0  0  0
  6 11  2  0  0  0  0
  7 12  1  0  0  0  0
  9 13  1  0  0  0  0
  9 11  1  0  0  0  0
 12 14  2  0  0  0  0
 12 15  1  0  0  0  0
 13 16  1  0  0  0  0
 13 17  2  0  0  0  0
 14 18  1  0  0  0  0
 15 19  2  0  0  0  0
 16 20  1  0  0  0  0
 18 21  2  0  0  0  0
 18 22  1  0  0  0  0
 19 21  1  0  0  0  0
 20 23  1  0  0  0  0
 20 24  2  0  0  0  0
 22 25  3  0  0  0  0
 23 26  2  0  0  0  0
 24 27  1  0  0  0  0
 26 28  1  0  0  0  0
 27 28  2  0  0  0  0
 28 29  1  0  0  0  0
 29 30  1  0  0  0  0
 29 31  2  0  0  0  0
 30 32  1  0  0  0  0
 32 33  2  0  0  0  0
 32 34  1  0  0  0  0
 33 35  1  0  0  0  0
 34 36  2  0  0  0  0
 35 37  2  0  0  0  0
 35 38  1  0  0  0  0
 36 37  1  0  0  0  0
 37 39  1  0  0  0  0
 38 40  1  0  0  0  0
 38 41  2  0  0  0  0
 39 42  2  0  0  0  0
 39 40  1  0  0  0  0
 40 43  1  0  0  0  0
 43 44  1  0  0  0  0
 43 45  2  0  0  0  0
 44 46  2  0  0  0  0
 45 47  1  0  0  0  0
 46 48  1  0  0  0  0
 46 49  1  0  0  0  0
 47 48  2  0  0  0  0
 49 50  3  0  0  0  0
M  END
> <CdId>
579

> <Mol Weight>
656.5954

> <Formula>
C40H20N2O8

> <Click_ID>
CLK008_D05 __ __ 

$$$$
