CLK044B05
 OpenBabel03181417552D

 21 21  0  0  0  0  0  0  0  0999 V2000
   -0.4458    1.8292    0.0000 S   0  0  0  0  0  0  0  0  0  0  0  0
    0.9833   -3.1208    0.0000 C   0  0  0  0  0  0  0  0  0  0  0  0
   -0.4458   -1.4708    0.0000 C   0  0  0  0  0  0  0  0  0  0  0  0
   -0.4458    1.0042    0.0000 C   0  0  0  0  0  0  0  0  0  0  0  0
    0.2708    3.8917    0.0000 C   0  0  0  0  0  0  0  0  0  0  0  0
    0.2708   -1.8833    0.0000 N   0  0  0  0  0  0  0  0  0  0  0  0
    0.2708    4.7125    0.0000 C   0  0  0  0  0  0  0  0  0  0  0  0
   -1.2708    1.8292    0.0000 O   0  0  0  0  0  0  0  0  0  0  0  0
    0.3792    1.8292    0.0000 O   0  0  0  0  0  0  0  0  0  0  0  0
   -0.4458   -0.6458    0.0000 C   0  0  0  0  0  0  0  0  0  0  0  0
   -0.4458    2.6542    0.0000 N   0  0  0  0  0  0  0  0  0  0  0  0
   -1.1583   -1.8833    0.0000 O   0  0  0  0  0  0  0  0  0  0  0  0
    0.2708   -2.7083    0.0000 C   0  0  0  0  0  0  0  0  0  0  0  0
    0.2708    0.5917    0.0000 C   0  0  0  0  0  0  0  0  0  0  0  0
   -1.1583    0.5917    0.0000 C   0  0  0  0  0  0  0  0  0  0  0  0
    0.2708   -0.2333    0.0000 C   0  0  0  0  0  0  0  0  0  0  0  0
   -1.1583   -0.2333    0.0000 C   0  0  0  0  0  0  0  0  0  0  0  0
    0.5708   -3.8375    0.0000 F   0  0  0  0  0  0  0  0  0  0  0  0
    1.7000   -3.5333    0.0000 F   0  0  0  0  0  0  0  0  0  0  0  0
    1.3958   -2.4083    0.0000 F   0  0  0  0  0  0  0  0  0  0  0  0
    0.2708    3.0667    0.0000 C   0  0  0  0  0  0  0  0  0  0  0  0
  2 13  1  0  0  0  0
  3 10  1  0  0  0  0
  4  1  1  0  0  0  0
  5 21  1  0  0  0  0
  6  3  1  0  0  0  0
  7  5  3  0  0  0  0
  8  1  2  0  0  0  0
  9  1  2  0  0  0  0
 10 17  2  0  0  0  0
 11  1  1  0  0  0  0
 12  3  2  0  0  0  0
 13  6  1  0  0  0  0
 14  4  1  0  0  0  0
 15  4  2  0  0  0  0
 16 14  2  0  0  0  0
 16 10  1  0  0  0  0
 17 15  1  0  0  0  0
 18  2  1  0  0  0  0
 19  2  1  0  0  0  0
 20  2  1  0  0  0  0
 21 11  1  0  0  0  0
M  END
> <CdId>
3354

> <Mol Weight>
320.288

> <Formula>
C12H11F3N2O3S

> <Click_ID>
CLK044B05 __ __ 

$$$$
