CLK047H08
 OpenBabel03181417552D

 16 17  0  0  0  0  0  0  0  0999 V2000
    0.5792   -0.7333    0.0000 C   0  0  0  0  0  0  0  0  0  0  0  0
   -0.1375   -0.3208    0.0000 N   0  0  0  0  0  0  0  0  0  0  0  0
   -1.5667    2.1542    0.0000 C   0  0  0  0  0  0  0  0  0  0  0  0
   -2.2792    2.5667    0.0000 C   0  0  0  0  0  0  0  0  0  0  0  0
    0.5792   -1.5583    0.0000 C   0  0  3  0  0  0  0  0  0  0  0  0
    1.2917   -0.3208    0.0000 O   0  0  0  0  0  0  0  0  0  0  0  0
   -0.1375    0.5042    0.0000 C   0  0  0  0  0  0  0  0  0  0  0  0
    1.2458   -2.0417    0.0000 O   0  0  0  0  0  0  0  0  0  0  0  0
   -0.8500    1.7417    0.0000 C   0  0  0  0  0  0  0  0  0  0  0  0
   -0.8500    0.9167    0.0000 C   0  0  0  0  0  0  0  0  0  0  0  0
    0.5792    1.7417    0.0000 C   0  0  0  0  0  0  0  0  0  0  0  0
    0.5792    0.9167    0.0000 C   0  0  0  0  0  0  0  0  0  0  0  0
    0.9917   -2.8250    0.0000 C   0  0  0  0  0  0  0  0  0  0  0  0
   -0.1375    2.1542    0.0000 C   0  0  0  0  0  0  0  0  0  0  0  0
   -0.0875   -2.0417    0.0000 C   0  0  0  0  0  0  0  0  0  0  0  0
    0.1667   -2.8250    0.0000 C   0  0  0  0  0  0  0  0  0  0  0  0
  2  1  1  0  0  0  0
  3  9  1  0  0  0  0
  4  3  3  0  0  0  0
  5  1  1  0  0  0  0
  6  1  2  0  0  0  0
  7  2  1  0  0  0  0
  8  5  1  0  0  0  0
  9 10  1  0  0  0  0
 10  7  2  0  0  0  0
 11 12  2  0  0  0  0
 12  7  1  0  0  0  0
 13  8  1  0  0  0  0
 13 16  1  0  0  0  0
 14  9  2  0  0  0  0
 14 11  1  0  0  0  0
 15  5  1  0  0  0  0
 16 15  1  0  0  0  0
M  END
> <CdId>
3624

> <Mol Weight>
215.2478

> <Formula>
C13H13NO2

> <Click_ID>
CLK047H08 __ __ 

$$$$
