CLK004_G11
 OpenBabel03181417552D

 25 27  0  0  0  0  0  0  0  0999 V2000
    0.1208   -0.2036    0.0000 C   0  0  0  0  0  0  0  0  0  0  0  0
    0.5704    0.4831    0.0000 C   0  0  0  0  0  0  0  0  0  0  0  0
   -0.6755    0.0090    0.0000 N   0  0  0  0  0  0  0  0  0  0  0  0
    0.4944   -0.9372    0.0000 N   0  0  0  0  0  0  0  0  0  0  0  0
    1.3958    0.4429    0.0000 C   0  0  0  0  0  0  0  0  0  0  0  0
    0.0514    1.1274    0.0000 N   0  0  0  0  0  0  0  0  0  0  0  0
   -1.3198   -0.5078    0.0000 C   0  0  0  0  0  0  0  0  0  0  0  0
   -0.7180    0.8343    0.0000 N   0  0  0  0  0  0  0  0  0  0  0  0
    1.3175   -0.9775    0.0000 C   0  0  0  0  0  0  0  0  0  0  0  0
    1.7671   -0.2930    0.0000 N   0  0  0  0  0  0  0  0  0  0  0  0
    1.8432    1.1341    0.0000 N   0  0  0  0  0  0  0  0  0  0  0  0
   -2.0892   -0.2102    0.0000 C   0  0  0  0  0  0  0  0  0  0  0  0
    1.6911   -1.7134    0.0000 C   0  0  0  0  0  0  0  0  0  0  0  0
    2.6663    1.0893    0.0000 C   0  0  0  0  0  0  0  0  0  0  0  0
   -2.2167    0.6062    0.0000 C   0  0  0  0  0  0  0  0  0  0  0  0
   -2.7290   -0.7247    0.0000 C   0  0  0  0  0  0  0  0  0  0  0  0
    1.0759   -2.2682    0.0000 F   0  0  0  0  0  0  0  0  0  0  0  0
    2.1854   -2.3778    0.0000 F   0  0  0  0  0  0  0  0  0  0  0  0
    2.3912   -1.2817    0.0000 F   0  0  0  0  0  0  0  0  0  0  0  0
    3.1182    1.7805    0.0000 C   0  0  0  0  0  0  0  0  0  0  0  0
   -2.9840    0.9015    0.0000 C   0  0  0  0  0  0  0  0  0  0  0  0
   -3.4984   -0.4384    0.0000 C   0  0  0  0  0  0  0  0  0  0  0  0
    3.5678    2.4695    0.0000 C   0  0  0  0  0  0  0  0  0  0  0  0
   -3.6304    0.3803    0.0000 C   0  0  0  0  0  0  0  0  0  0  0  0
   -4.3954    0.6755    0.0000 F   0  0  0  0  0  0  0  0  0  0  0  0
  1  2  1  0  0  0  0
  1  3  1  0  0  0  0
  1  4  2  0  0  0  0
  2  5  2  0  0  0  0
  2  6  1  0  0  0  0
  3  7  1  0  0  0  0
  3  8  1  0  0  0  0
  4  9  1  0  0  0  0
  5 10  1  0  0  0  0
  5 11  1  0  0  0  0
  6  8  2  0  0  0  0
  7 12  1  0  0  0  0
  9 13  1  0  0  0  0
  9 10  2  0  0  0  0
 11 14  1  0  0  0  0
 12 15  1  0  0  0  0
 12 16  2  0  0  0  0
 13 17  1  0  0  0  0
 13 18  1  0  0  0  0
 13 19  1  0  0  0  0
 14 20  1  0  0  0  0
 15 21  2  0  0  0  0
 16 22  1  0  0  0  0
 20 23  3  0  0  0  0
 21 24  1  0  0  0  0
 22 24  2  0  0  0  0
 24 25  1  0  0  0  0
M  END
> <CdId>
310

> <Mol Weight>
350.2737

> <Formula>
C15H10F4N6

> <Click_ID>
CLK004_G11 __ __ 

$$$$
