CLK016_A08
 OpenBabel03181417552D

 26 28  0  0  0  0  0  0  0  0999 V2000
    1.5748   -0.8209    0.0000 N   0  0  0  0  0  0  0  0  0  0  0  0
    1.8345   -1.6125    0.0000 C   0  0  0  0  0  0  0  0  0  0  0  0
    2.2491   -0.3309    0.0000 C   0  0  0  0  0  0  0  0  0  0  0  0
    2.9193   -0.8209    0.0000 C   0  0  0  0  0  0  0  0  0  0  0  0
    2.6638   -1.6125    0.0000 S   0  0  0  0  0  0  0  0  0  0  0  0
    3.7109   -0.5654    0.0000 C   0  0  0  0  0  0  0  0  0  0  0  0
    0.6157    0.2471    0.0000 C   0  0  0  0  0  0  0  0  0  0  0  0
    0.3937    1.0512    0.0000 C   0  0  0  0  0  0  0  0  0  0  0  0
    1.3445   -2.2785    0.0000 O   0  0  0  0  0  0  0  0  0  0  0  0
    2.2408    0.4984    0.0000 O   0  0  0  0  0  0  0  0  0  0  0  0
    0.7916   -0.5654    0.0000 C   0  0  0  0  0  0  0  0  0  0  0  0
    3.8868    0.2471    0.0000 C   0  0  0  0  0  0  0  0  0  0  0  0
    4.4103    2.6721    0.0000 O   0  0  0  0  0  0  0  0  0  0  0  0
    4.2344    1.8554    0.0000 C   0  0  0  0  0  0  0  0  0  0  0  0
    5.7297    5.3024    0.0000 C   0  0  0  0  0  0  0  0  0  0  0  0
    5.3778    3.7276    0.0000 C   0  0  0  0  0  0  0  0  0  0  0  0
    5.1936    2.9234    0.0000 C   0  0  0  0  0  0  0  0  0  0  0  0
    5.9098    6.1108    0.0000 F   0  0  0  0  0  0  0  0  0  0  0  0
    3.2711    0.7916    0.0000 C   0  0  0  0  0  0  0  0  0  0  0  0
    4.6658    0.4858    0.0000 C   0  0  0  0  0  0  0  0  0  0  0  0
    4.8418    1.3025    0.0000 C   0  0  0  0  0  0  0  0  0  0  0  0
    3.4470    1.6041    0.0000 C   0  0  0  0  0  0  0  0  0  0  0  0
    6.3244    4.7538    0.0000 C   0  0  0  0  0  0  0  0  0  0  0  0
    4.9548    5.0554    0.0000 C   0  0  0  0  0  0  0  0  0  0  0  0
    4.7664    4.2638    0.0000 C   0  0  0  0  0  0  0  0  0  0  0  0
    6.1485    3.9663    0.0000 C   0  0  0  0  0  0  0  0  0  0  0  0
  2  1  1  0  0  0  0
  3  1  1  0  0  0  0
  4  3  1  0  0  0  0
  4  5  1  0  0  0  0
  5  2  1  0  0  0  0
  6  4  2  0  0  0  0
  7 11  1  0  0  0  0
  8  7  3  0  0  0  0
  9  2  2  0  0  0  0
 10  3  2  0  0  0  0
 11  1  1  0  0  0  0
 12  6  1  0  0  0  0
 13 14  1  0  0  0  0
 14 21  2  0  0  0  0
 14 22  1  0  0  0  0
 15 23  2  0  0  0  0
 16 17  1  0  0  0  0
 17 13  1  0  0  0  0
 18 15  1  0  0  0  0
 19 12  1  0  0  0  0
 20 12  2  0  0  0  0
 21 20  1  0  0  0  0
 22 19  2  0  0  0  0
 23 26  1  0  0  0  0
 24 25  2  0  0  0  0
 24 15  1  0  0  0  0
 25 16  1  0  0  0  0
 26 16  2  0  0  0  0
M  END
> <CdId>
1163

> <Mol Weight>
367.393

> <Formula>
C20H14FNO3S

> <Click_ID>
CLK016_A08 __ __ 

$$$$
