CLK017_G07
 OpenBabel03181417552D

 27 29  0  0  0  0  0  0  0  0999 V2000
    5.6044   -3.6425    0.0000 N    0  0  0  0  0  0  0  0  0  0  0  0
    4.8966   -4.0522    0.0000 C    0  0  0  0  0  0  0  0  0  0  0  0
    5.4430   -2.8353    0.0000 C    0  0  0  0  0  0  0  0  0  0  0  0
    4.6234   -2.7442    0.0000 C    0  0  0  0  0  0  0  0  0  0  0  0
    4.2882   -3.4935    0.0000 S    0  0  0  0  0  0  0  0  0  0  0  0
    4.2137   -2.0282    0.0000 C    0  0  0  0  0  0  0  0  0  0  0  0
    6.4446   -4.7973    0.0000 C    0  0  0  0  0  0  0  0  0  0  0  0
    6.4364   -5.6168    0.0000 C    0  0  0  0  0  0  0  0  0  0  0  0
    2.1400   -2.7360    0.0000 C    0  0  0  0  0  0  0  0  0  0  0  0
    4.8055   -4.8718    0.0000 O    0  0  0  0  0  0  0  0  0  0  0  0
    5.9976   -2.2269    0.0000 O    0  0  0  0  0  0  0  0  0  0  0  0
    1.7178   -2.0240    0.0000 C    0  0  0  0  0  0  0  0  0  0  0  0
    3.3817   -2.0282    0.0000 C    0  0  0  0  0  0  0  0  0  0  0  0
    6.3619   -3.9777    0.0000 C    0  0  0  0  0  0  0  0  0  0  0  0
    2.9678   -2.7360    0.0000 C    0  0  0  0  0  0  0  0  0  0  0  0
    0.8982   -2.0158    0.0000 O    0  0  0  0  0  0  0  0  0  0  0  0
    2.1482   -1.2956    0.0000 C    0  0  0  0  0  0  0  0  0  0  0  0
    1.7260   -3.4438    0.0000 Cl   0  0  0  0  0  0  0  0  0  0  0  0
    2.9719   -1.3038    0.0000 C    0  0  0  0  0  0  0  0  0  0  0  0
    0.4843   -2.7318    0.0000 C    0  0  0  0  0  0  0  0  0  0  0  0
   -0.7533   -2.0158    0.0000 C    0  0  0  0  0  0  0  0  0  0  0  0
   -1.5728   -2.0158    0.0000 C    0  0  0  0  0  0  0  0  0  0  0  0
   -0.3435   -2.7360    0.0000 C    0  0  0  0  0  0  0  0  0  0  0  0
   -1.9826   -1.2956    0.0000 F    0  0  0  0  0  0  0  0  0  0  0  0
   -1.5853   -3.4438    0.0000 C    0  0  0  0  0  0  0  0  0  0  0  0
   -1.9950   -2.7236    0.0000 C    0  0  0  0  0  0  0  0  0  0  0  0
   -0.7533   -3.4520    0.0000 C    0  0  0  0  0  0  0  0  0  0  0  0
  2  1  1  0  0  0  0
  3  1  1  0  0  0  0
  4  3  1  0  0  0  0
  5  2  1  0  0  0  0
  5  4  1  0  0  0  0
  6  4  2  0  0  0  0
  7 14  1  0  0  0  0
  8  7  3  0  0  0  0
  9 15  2  0  0  0  0
 10  2  2  0  0  0  0
 11  3  2  0  0  0  0
 12 17  2  0  0  0  0
 12  9  1  0  0  0  0
 13  6  1  0  0  0  0
 14  1  1  0  0  0  0
 15 13  1  0  0  0  0
 16 12  1  0  0  0  0
 17 19  1  0  0  0  0
 18  9  1  0  0  0  0
 19 13  2  0  0  0  0
 20 16  1  0  0  0  0
 21 23  2  0  0  0  0
 22 21  1  0  0  0  0
 22 26  2  0  0  0  0
 23 20  1  0  0  0  0
 24 22  1  0  0  0  0
 25 27  2  0  0  0  0
 26 25  1  0  0  0  0
 27 23  1  0  0  0  0
M  END
> <CdId>
1302

> <Mol Weight>
401.839

> <Formula>
C20H13ClFNO3S

> <Click_ID>
CLK017_G07 __ __ 

$$$$
