CLK026_G07
 OpenBabel03181417552D

 28 30  0  0  0  0  0  0  0  0999 V2000
   -3.4199   -0.3677    0.0000 N    0  0  0  0  0  0  0  0  0  0  0  0
   -3.8186   -1.0861    0.0000 C    0  0  0  0  0  0  0  0  0  0  0  0
   -2.6053   -0.5327    0.0000 C    0  0  0  0  0  0  0  0  0  0  0  0
   -2.5125   -1.3473    0.0000 C    0  0  0  0  0  0  0  0  0  0  0  0
   -3.2618   -1.6979    0.0000 S    0  0  0  0  0  0  0  0  0  0  0  0
    0.3506   -0.4984    0.0000 C    0  0  0  0  0  0  0  0  0  0  0  0
   -1.7942   -1.7598    0.0000 C    0  0  0  0  0  0  0  0  0  0  0  0
    0.3403   -1.3198    0.0000 C    0  0  0  0  0  0  0  0  0  0  0  0
   -0.3712   -0.0860    0.0000 C    0  0  0  0  0  0  0  0  0  0  0  0
   -1.0827   -1.3336    0.0000 C    0  0  0  0  0  0  0  0  0  0  0  0
    1.0655   -0.0928    0.0000 O    0  0  0  0  0  0  0  0  0  0  0  0
   -3.2825    1.0552    0.0000 C    0  0  0  0  0  0  0  0  0  0  0  0
   -2.8425    1.7632    0.0000 C    0  0  0  0  0  0  0  0  0  0  0  0
   -4.6435   -1.1823    0.0000 O    0  0  0  0  0  0  0  0  0  0  0  0
   -0.3712   -1.7358    0.0000 C    0  0  0  0  0  0  0  0  0  0  0  0
   -1.0827   -0.5121    0.0000 C    0  0  0  0  0  0  0  0  0  0  0  0
   -2.0072    0.0378    0.0000 O    0  0  0  0  0  0  0  0  0  0  0  0
   -3.7568    0.3781    0.0000 C    0  0  0  0  0  0  0  0  0  0  0  0
   -0.3574    0.7389    0.0000 Cl   0  0  0  0  0  0  0  0  0  0  0  0
    1.0621   -1.7323    0.0000 Cl   0  0  0  0  0  0  0  0  0  0  0  0
    1.7770   -0.4949    0.0000 C    0  0  0  0  0  0  0  0  0  0  0  0
    3.9218    0.7321    0.0000 C    0  0  0  0  0  0  0  0  0  0  0  0
    2.5022   -0.0860    0.0000 C    0  0  0  0  0  0  0  0  0  0  0  0
    4.6401    1.1377    0.0000 F    0  0  0  0  0  0  0  0  0  0  0  0
    3.9218   -0.0996    0.0000 C    0  0  0  0  0  0  0  0  0  0  0  0
    3.2033    1.1377    0.0000 C    0  0  0  0  0  0  0  0  0  0  0  0
    2.4919    0.7389    0.0000 C    0  0  0  0  0  0  0  0  0  0  0  0
    3.2103   -0.4984    0.0000 C    0  0  0  0  0  0  0  0  0  0  0  0
  2  1  1  0  0  0  0
  3  1  1  0  0  0  0
  4  3  1  0  0  0  0
  5  2  1  0  0  0  0
  5  4  1  0  0  0  0
  6  9  2  0  0  0  0
  7  4  2  0  0  0  0
  8 15  2  0  0  0  0
  8  6  1  0  0  0  0
  9 16  1  0  0  0  0
 10  7  1  0  0  0  0
 11  6  1  0  0  0  0
 12 18  1  0  0  0  0
 13 12  3  0  0  0  0
 14  2  2  0  0  0  0
 15 10  1  0  0  0  0
 16 10  2  0  0  0  0
 17  3  2  0  0  0  0
 18  1  1  0  0  0  0
 19  9  1  0  0  0  0
 20  8  1  0  0  0  0
 21 11  1  0  0  0  0
 22 25  2  0  0  0  0
 22 26  1  0  0  0  0
 23 21  1  0  0  0  0
 24 22  1  0  0  0  0
 25 28  1  0  0  0  0
 26 27  2  0  0  0  0
 27 23  1  0  0  0  0
 28 23  2  0  0  0  0
M  END
> <CdId>
2002

> <Mol Weight>
436.284

> <Formula>
C20H12Cl2FNO3S

> <Click_ID>
CLK026_G07 __ __ 

$$$$
