CLK019_G09
 OpenBabel03181417552D

 19 19  0  0  0  0  0  0  0  0999 V2000
   -0.6917   -0.3676    0.0000 C   0  0  0  0  0  0  0  0  0  0  0  0
   -2.3583    1.0842    0.0000 C   0  0  0  0  0  0  0  0  0  0  0  0
   -1.5086   -0.3676    0.0000 N   0  0  0  0  0  0  0  0  0  0  0  0
   -2.7872    1.7963    0.0000 C   0  0  0  0  0  0  0  0  0  0  0  0
   -0.2841   -1.0611    0.0000 N   0  0  0  0  0  0  0  0  0  0  0  0
   -1.9295    0.3543    0.0000 C   0  0  0  0  0  0  0  0  0  0  0  0
   -0.2788    0.3454    0.0000 O   0  0  0  0  0  0  0  0  0  0  0  0
    0.5363   -1.0611    0.0000 C   0  0  0  0  0  0  0  0  0  0  0  0
    2.1772   -1.0797    0.0000 C   0  0  0  0  0  0  0  0  0  0  0  0
    0.9439   -0.3578    0.0000 C   0  0  0  0  0  0  0  0  0  0  0  0
    0.9306   -1.7821    0.0000 C   0  0  0  0  0  0  0  0  0  0  0  0
    1.7554   -1.7963    0.0000 C   0  0  0  0  0  0  0  0  0  0  0  0
    1.7696   -0.3676    0.0000 C   0  0  0  0  0  0  0  0  0  0  0  0
    2.9923   -1.0984    0.0000 O   0  0  0  0  0  0  0  0  0  0  0  0
   -2.6691   -0.0835    0.0000 C   0  0  0  0  0  0  0  0  0  0  0  0
   -1.3452    0.7290    0.0000 C   0  0  0  0  0  0  0  0  0  0  0  0
    3.4096   -0.4005    0.0000 C   0  0  0  0  0  0  0  0  0  0  0  0
   -1.3452    1.5317    0.0000 C   0  0  0  0  0  0  0  0  0  0  0  0
   -3.4096    0.3188    0.0000 C   0  0  0  0  0  0  0  0  0  0  0  0
  2  6  1  0  0  0  0
  3  1  1  0  0  0  0
  4  2  3  0  0  0  0
  5  1  1  0  0  0  0
  6  3  1  0  0  0  0
  7  1  2  0  0  0  0
  8  5  1  0  0  0  0
  9 12  1  0  0  0  0
  9 13  2  0  0  0  0
 10  8  2  0  0  0  0
 11  8  1  0  0  0  0
 12 11  2  0  0  0  0
 13 10  1  0  0  0  0
 14  9  1  0  0  0  0
 15  6  1  0  0  0  0
 16  6  1  0  0  0  0
 17 14  1  0  0  0  0
 18 16  1  0  0  0  0
 19 15  1  0  0  0  0
M  END
> <CdId>
1464

> <Mol Weight>
260.3315

> <Formula>
C15H20N2O2

> <Click_ID>
CLK019_G09 __ __ 

$$$$
