CLK015_D04
 OpenBabel03181417552D

 32 34  0  0  0  0  0  0  0  0999 V2000
    1.6949   -1.6079    0.0000 N    0  0  0  0  0  0  0  0  0  0  0  0
    0.2657   -1.6079    0.0000 C    0  0  0  0  0  0  0  0  0  0  0  0
    0.9803   -1.1956    0.0000 C    0  0  0  0  0  0  0  0  0  0  0  0
    1.6949   -2.4324    0.0000 C    0  0  0  0  0  0  0  0  0  0  0  0
    0.9803   -2.8447    0.0000 N    0  0  0  0  0  0  0  0  0  0  0  0
    0.2657   -2.4324    0.0000 C    0  0  0  0  0  0  0  0  0  0  0  0
   -0.4489   -1.1956    0.0000 C    0  0  0  0  0  0  0  0  0  0  0  0
   -2.5927   -2.4233    0.0000 C    0  0  0  0  0  0  0  0  0  0  0  0
   -2.5927   -1.5987    0.0000 C    0  0  0  0  0  0  0  0  0  0  0  0
   -1.8781   -2.8355    0.0000 C    0  0  0  0  0  0  0  0  0  0  0  0
    2.4095   -1.1956    0.0000 C    0  0  0  0  0  0  0  0  0  0  0  0
   -1.1635   -1.6079    0.0000 C    0  0  0  0  0  0  0  0  0  0  0  0
    4.5533    0.0412    0.0000 C    0  0  0  0  0  0  0  0  0  0  0  0
   -4.0219   -4.0815    0.0000 C    0  0  0  0  0  0  0  0  0  0  0  0
    2.4095   -2.8447    0.0000 O    0  0  0  0  0  0  0  0  0  0  0  0
   -4.0219   -4.9060    0.0000 C    0  0  0  0  0  0  0  0  0  0  0  0
    0.9803   -0.3710    0.0000 O    0  0  0  0  0  0  0  0  0  0  0  0
   -1.1635   -2.4233    0.0000 C    0  0  0  0  0  0  0  0  0  0  0  0
   -1.8781   -1.1956    0.0000 C    0  0  0  0  0  0  0  0  0  0  0  0
   -0.4489   -2.8447    0.0000 O    0  0  0  0  0  0  0  0  0  0  0  0
    3.8387   -0.3710    0.0000 C    0  0  0  0  0  0  0  0  0  0  0  0
    4.5533    0.8658    0.0000 O    0  0  0  0  0  0  0  0  0  0  0  0
    2.4095   -0.3710    0.0000 C    0  0  0  0  0  0  0  0  0  0  0  0
    3.1241   -1.6079    0.0000 C    0  0  0  0  0  0  0  0  0  0  0  0
    3.1241    0.0412    0.0000 C    0  0  0  0  0  0  0  0  0  0  0  0
    3.8387   -1.1956    0.0000 C    0  0  0  0  0  0  0  0  0  0  0  0
   -3.3073   -1.1865    0.0000 Cl   0  0  0  0  0  0  0  0  0  0  0  0
   -1.8781   -3.6601    0.0000 Cl   0  0  0  0  0  0  0  0  0  0  0  0
   -3.3073   -2.8355    0.0000 O    0  0  0  0  0  0  0  0  0  0  0  0
    5.2679   -0.3710    0.0000 O    0  0  0  0  0  0  0  0  0  0  0  0
   -3.3073   -3.6692    0.0000 C    0  0  0  0  0  0  0  0  0  0  0  0
    5.9825    0.0412    0.0000 C    0  0  0  0  0  0  0  0  0  0  0  0
  2  3  1  0  0  0  0
  2  6  1  0  0  0  0
  3  1  1  0  0  0  0
  4  1  1  0  0  0  0
  5  4  1  0  0  0  0
  6  5  1  0  0  0  0
  7  2  2  0  0  0  0
  8  9  1  0  0  0  0
  9 19  2  0  0  0  0
 10 18  1  0  0  0  0
 10  8  2  0  0  0  0
 11  1  1  0  0  0  0
 12  7  1  0  0  0  0
 13 21  1  0  0  0  0
 14 31  1  0  0  0  0
 15  4  2  0  0  0  0
 16 14  3  0  0  0  0
 17  3  2  0  0  0  0
 18 12  2  0  0  0  0
 19 12  1  0  0  0  0
 20  6  2  0  0  0  0
 21 26  1  0  0  0  0
 22 13  2  0  0  0  0
 23 11  2  0  0  0  0
 24 11  1  0  0  0  0
 25 23  1  0  0  0  0
 25 21  2  0  0  0  0
 26 24  2  0  0  0  0
 27  9  1  0  0  0  0
 28 10  1  0  0  0  0
 29  8  1  0  0  0  0
 30 13  1  0  0  0  0
 31 29  1  0  0  0  0
 32 30  1  0  0  0  0
M  END
> <CdId>
1109

> <Mol Weight>
473.262

> <Formula>
C22H14Cl2N2O6

> <Click_ID>
CLK015_D04 __ __ 

$$$$
