CLK001_B02
 OpenBabel03181417552D

 21 23  0  0  0  0  0  0  0  0999 V2000
   -0.1963    0.2651    0.0000 C   0  0  0  0  0  0  0  0  0  0  0  0
   -1.0054    0.4338    0.0000 C   0  0  0  0  0  0  0  0  0  0  0  0
   -0.1170   -0.5509    0.0000 C   0  0  0  0  0  0  0  0  0  0  0  0
    0.4132    0.8228    0.0000 C   0  0  0  0  0  0  0  0  0  0  0  0
   -1.4150   -0.2755    0.0000 C   0  0  0  0  0  0  0  0  0  0  0  0
   -1.4150    1.1499    0.0000 C   0  0  0  0  0  0  0  0  0  0  0  0
   -0.8677   -0.8883    0.0000 N   0  0  0  0  0  0  0  0  0  0  0  0
    1.1913    0.5646    0.0000 C   0  0  0  0  0  0  0  0  0  0  0  0
   -2.2413   -0.2755    0.0000 C   0  0  0  0  0  0  0  0  0  0  0  0
   -2.2413    1.1465    0.0000 C   0  0  0  0  0  0  0  0  0  0  0  0
   -1.0432   -1.6940    0.0000 C   0  0  0  0  0  0  0  0  0  0  0  0
    1.8626    1.0467    0.0000 C   0  0  0  0  0  0  0  0  0  0  0  0
    1.4495   -0.2204    0.0000 S   0  0  0  0  0  0  0  0  0  0  0  0
   -2.6511    0.4338    0.0000 C   0  0  0  0  0  0  0  0  0  0  0  0
   -1.8213   -1.9487    0.0000 C   0  0  0  0  0  0  0  0  0  0  0  0
    2.5271    0.5646    0.0000 N   0  0  0  0  0  0  0  0  0  0  0  0
    1.8523    1.8695    0.0000 O   0  0  0  0  0  0  0  0  0  0  0  0
    2.2655   -0.2204    0.0000 C   0  0  0  0  0  0  0  0  0  0  0  0
   -2.6201   -2.1553    0.0000 C   0  0  0  0  0  0  0  0  0  0  0  0
    3.3156    0.8228    0.0000 C   0  0  0  0  0  0  0  0  0  0  0  0
    2.7510   -0.8883    0.0000 O   0  0  0  0  0  0  0  0  0  0  0  0
  1  2  1  0  0  0  0
  1  3  2  0  0  0  0
  1  4  1  0  0  0  0
  2  5  1  0  0  0  0
  2  6  2  0  0  0  0
  3  7  1  0  0  0  0
  4  8  2  0  0  0  0
  5  9  2  0  0  0  0
  5  7  1  0  0  0  0
  6 10  1  0  0  0  0
  7 11  1  0  0  0  0
  8 12  1  0  0  0  0
  8 13  1  0  0  0  0
  9 14  1  0  0  0  0
 10 14  2  0  0  0  0
 11 15  1  0  0  0  0
 12 16  1  0  0  0  0
 12 17  2  0  0  0  0
 13 18  1  0  0  0  0
 15 19  3  0  0  0  0
 16 20  1  0  0  0  0
 16 18  1  0  0  0  0
 18 21  2  0  0  0  0
M  END
> <CdId>
11

> <Mol Weight>
296.344

> <Formula>
C16H12N2O2S

> <Click_ID>
CLK001_B02 __ __ 

$$$$
