CLK007_G10
 OpenBabel03181417552D

 23 25  0  0  0  0  0  0  0  0999 V2000
    0.2174   -0.4521    0.0000 C   0  0  0  0  0  0  0  0  0  0  0  0
    0.9285   -0.0414    0.0000 C   0  0  3  0  0  0  0  0  0  0  0  0
    0.2174   -1.2702    0.0000 C   0  0  0  0  0  0  0  0  0  0  0  0
   -0.4971   -0.0310    0.0000 C   0  0  0  0  0  0  0  0  0  0  0  0
    0.9285    0.7870    0.0000 C   0  0  0  0  0  0  0  0  0  0  0  0
    1.6430   -0.4452    0.0000 C   0  0  0  0  0  0  0  0  0  0  0  0
   -0.4971   -1.6844    0.0000 N   0  0  0  0  0  0  0  0  0  0  0  0
    0.9285   -1.6844    0.0000 N   0  0  0  0  0  0  0  0  0  0  0  0
   -1.2012   -0.4521    0.0000 N   0  0  0  0  0  0  0  0  0  0  0  0
   -0.4971    0.7939    0.0000 O   0  0  0  0  0  0  0  0  0  0  0  0
    1.6430    1.1978    0.0000 C   0  0  0  0  0  0  0  0  0  0  0  0
    0.2140    1.1978    0.0000 C   0  0  0  0  0  0  0  0  0  0  0  0
    1.6430   -1.2702    0.0000 C   0  0  0  0  0  0  0  0  0  0  0  0
   -1.2012   -1.2805    0.0000 C   0  0  0  0  0  0  0  0  0  0  0  0
    1.6430    2.0330    0.0000 C   0  0  0  0  0  0  0  0  0  0  0  0
    0.2174    2.0330    0.0000 C   0  0  0  0  0  0  0  0  0  0  0  0
    2.3575   -1.6844    0.0000 O   0  0  0  0  0  0  0  0  0  0  0  0
   -1.9226   -1.6913    0.0000 S   0  0  0  0  0  0  0  0  0  0  0  0
    0.9250    2.4438    0.0000 C   0  0  0  0  0  0  0  0  0  0  0  0
   -2.6371   -1.2805    0.0000 C   0  0  0  0  0  0  0  0  0  0  0  0
    0.9250    3.2722    0.0000 O   0  0  0  0  0  0  0  0  0  0  0  0
   -2.6371   -0.4521    0.0000 C   0  0  0  0  0  0  0  0  0  0  0  0
   -3.3480   -0.0414    0.0000 C   0  0  0  0  0  0  0  0  0  0  0  0
  1  2  1  0  0  0  0
  1  3  2  0  0  0  0
  1  4  1  0  0  0  0
  2  5  1  0  0  0  0
  2  6  1  0  0  0  0
  3  7  1  0  0  0  0
  3  8  1  0  0  0  0
  4  9  1  0  0  0  0
  4 10  2  0  0  0  0
  5 11  2  0  0  0  0
  5 12  1  0  0  0  0
  6 13  1  0  0  0  0
  7 14  2  0  0  0  0
  8 13  1  0  0  0  0
  9 14  1  0  0  0  0
 11 15  1  0  0  0  0
 12 16  2  0  0  0  0
 13 17  2  0  0  0  0
 14 18  1  0  0  0  0
 15 19  2  0  0  0  0
 16 19  1  0  0  0  0
 18 20  1  0  0  0  0
 19 21  1  0  0  0  0
 20 22  1  0  0  0  0
 22 23  3  0  0  0  0
M  END
> <CdId>
549

> <Mol Weight>
327.358

> <Formula>
C16H13N3O3S

> <Click_ID>
CLK007_G10 __ __ 

$$$$
