CLK004_A11
 OpenBabel03181417552D

 24 26  0  0  0  0  0  0  0  0999 V2000
    0.8937    0.2174    0.0000 C    0  0  3  0  0  0  0  0  0  0  0  0
    1.2975   -0.4934    0.0000 C    0  0  0  0  0  0  0  0  0  0  0  0
    0.0690    0.2174    0.0000 C    0  0  0  0  0  0  0  0  0  0  0  0
    1.3078    0.9213    0.0000 C    0  0  0  0  0  0  0  0  0  0  0  0
    2.1256   -0.5038    0.0000 C    0  0  0  0  0  0  0  0  0  0  0  0
    1.0455   -1.2837    0.0000 C    0  0  0  0  0  0  0  0  0  0  0  0
   -0.3519   -0.4831    0.0000 C    0  0  0  0  0  0  0  0  0  0  0  0
   -0.3450    0.9421    0.0000 C    0  0  0  0  0  0  0  0  0  0  0  0
    2.1256    0.9178    0.0000 C    0  0  0  0  0  0  0  0  0  0  0  0
    0.8972    1.6426    0.0000 C    0  0  0  0  0  0  0  0  0  0  0  0
    2.5363    0.2070    0.0000 O    0  0  0  0  0  0  0  0  0  0  0  0
    2.3741   -1.2906    0.0000 N    0  0  0  0  0  0  0  0  0  0  0  0
    1.7081   -1.7702    0.0000 N    0  0  0  0  0  0  0  0  0  0  0  0
    0.2554   -1.5321    0.0000 C    0  0  0  0  0  0  0  0  0  0  0  0
   -1.1767   -0.4831    0.0000 C    0  0  0  0  0  0  0  0  0  0  0  0
   -1.1767    0.9490    0.0000 C    0  0  0  0  0  0  0  0  0  0  0  0
    2.5466    1.6322    0.0000 N    0  0  0  0  0  0  0  0  0  0  0  0
    0.4970    2.3569    0.0000 N    0  0  0  0  0  0  0  0  0  0  0  0
   -1.5942    0.2312    0.0000 C    0  0  0  0  0  0  0  0  0  0  0  0
   -1.6045   -1.1939    0.0000 Cl   0  0  0  0  0  0  0  0  0  0  0  0
   -2.4224    0.2312    0.0000 O    0  0  0  0  0  0  0  0  0  0  0  0
   -2.8434   -0.4831    0.0000 C    0  0  0  0  0  0  0  0  0  0  0  0
   -3.6681   -0.4796    0.0000 C    0  0  0  0  0  0  0  0  0  0  0  0
   -4.4929   -0.4693    0.0000 C    0  0  0  0  0  0  0  0  0  0  0  0
  1  2  1  0  0  0  0
  1  3  1  0  0  0  0
  1  4  1  0  0  0  0
  2  5  2  0  0  0  0
  2  6  1  0  0  0  0
  3  7  1  0  0  0  0
  3  8  2  0  0  0  0
  4  9  2  0  0  0  0
  4 10  1  0  0  0  0
  5 11  1  0  0  0  0
  5 12  1  0  0  0  0
  6 13  2  0  0  0  0
  6 14  1  0  0  0  0
  7 15  2  0  0  0  0
  8 16  1  0  0  0  0
  9 17  1  0  0  0  0
  9 11  1  0  0  0  0
 10 18  3  0  0  0  0
 12 13  1  0  0  0  0
 15 19  1  0  0  0  0
 15 20  1  0  0  0  0
 16 19  2  0  0  0  0
 19 21  1  0  0  0  0
 21 22  1  0  0  0  0
 22 23  1  0  0  0  0
 23 24  3  0  0  0  0
M  END
> <CdId>
250

> <Mol Weight>
340.764

> <Formula>
C17H13ClN4O2

> <Click_ID>
CLK004_A11 __ __ 

$$$$
