CLK027_C06
 OpenBabel03181417552D

 29 30  0  0  0  0  0  0  0  0999 V2000
   -0.3609   -0.8285    0.0000 C    0  0  0  0  0  0  0  0  0  0  0  0
    0.3609   -1.2410    0.0000 C    0  0  0  0  0  0  0  0  0  0  0  0
    2.5059    0.0068    0.0000 C    0  0  0  0  0  0  0  0  0  0  0  0
   -1.0725   -1.2410    0.0000 C    0  0  0  0  0  0  0  0  0  0  0  0
    2.5059   -0.8147    0.0000 C    0  0  0  0  0  0  0  0  0  0  0  0
   -0.3609   -0.0035    0.0000 C    0  0  0  0  0  0  0  0  0  0  0  0
    1.7978    0.4193    0.0000 C    0  0  0  0  0  0  0  0  0  0  0  0
    1.0828   -0.8147    0.0000 C    0  0  0  0  0  0  0  0  0  0  0  0
   -0.3644    0.8182    0.0000 N    0  0  0  0  0  0  0  0  0  0  0  0
    4.6475    0.4228    0.0000 C    0  0  0  0  0  0  0  0  0  0  0  0
    5.3590    0.8422    0.0000 C    0  0  0  0  0  0  0  0  0  0  0  0
    1.7978   -1.2272    0.0000 C    0  0  0  0  0  0  0  0  0  0  0  0
    1.0828    0.0068    0.0000 C    0  0  0  0  0  0  0  0  0  0  0  0
   -1.0725   -2.0625    0.0000 O    0  0  0  0  0  0  0  0  0  0  0  0
   -1.7841   -0.8285    0.0000 N    0  0  0  0  0  0  0  0  0  0  0  0
    3.2278   -1.2410    0.0000 Cl   0  0  0  0  0  0  0  0  0  0  0  0
    3.2278    0.4193    0.0000 O    0  0  0  0  0  0  0  0  0  0  0  0
    1.7978    1.2443    0.0000 O    0  0  0  0  0  0  0  0  0  0  0  0
   -2.4991   -1.2410    0.0000 C    0  0  0  0  0  0  0  0  0  0  0  0
    3.9394    0.0138    0.0000 C    0  0  0  0  0  0  0  0  0  0  0  0
   -3.9291   -1.2410    0.0000 C    0  0  0  0  0  0  0  0  0  0  0  0
   -3.2175   -0.8285    0.0000 C    0  0  0  0  0  0  0  0  0  0  0  0
    2.5059    1.6535    0.0000 C    0  0  0  0  0  0  0  0  0  0  0  0
   -3.9291   -2.0625    0.0000 C    0  0  0  0  0  0  0  0  0  0  0  0
   -4.6441   -0.8285    0.0000 C    0  0  0  0  0  0  0  0  0  0  0  0
    2.5059    2.4785    0.0000 C    0  0  0  0  0  0  0  0  0  0  0  0
   -4.6406   -2.4750    0.0000 C    0  0  0  0  0  0  0  0  0  0  0  0
   -5.3590   -1.2410    0.0000 C    0  0  0  0  0  0  0  0  0  0  0  0
   -5.3590   -2.0625    0.0000 C    0  0  0  0  0  0  0  0  0  0  0  0
  2  1  2  0  0  0  0
  3  7  2  0  0  0  0
  4  1  1  0  0  0  0
  5 12  2  0  0  0  0
  5  3  1  0  0  0  0
  6  1  1  0  0  0  0
  7 13  1  0  0  0  0
  8  2  1  0  0  0  0
  9  6  3  0  0  0  0
 10 20  1  0  0  0  0
 11 10  3  0  0  0  0
 12  8  1  0  0  0  0
 13  8  2  0  0  0  0
 14  4  2  0  0  0  0
 15  4  1  0  0  0  0
 16  5  1  0  0  0  0
 17  3  1  0  0  0  0
 18  7  1  0  0  0  0
 19 15  1  0  0  0  0
 20 17  1  0  0  0  0
 21 22  1  0  0  0  0
 22 19  1  0  0  0  0
 23 18  1  0  0  0  0
 24 21  2  0  0  0  0
 25 21  1  0  0  0  0
 26 23  1  0  0  0  0
 27 24  1  0  0  0  0
 28 25  2  0  0  0  0
 29 28  1  0  0  0  0
 29 27  2  0  0  0  0
M  END
> <CdId>
2039

> <Mol Weight>
408.877

> <Formula>
C23H21ClN2O3

> <Click_ID>
CLK027_C06 __ __ 

$$$$
