CLK040H08
 OpenBabel03181417552D

 25 26  0  0  0  0  0  0  0  0999 V2000
    0.5130   -0.5255    0.0000 S   0  0  0  0  0  0  0  0  0  0  0  0
    1.2263   -0.9385    0.0000 C   0  0  0  0  0  0  0  0  0  0  0  0
   -0.2044   -0.1126    0.0000 N   0  0  0  0  0  0  0  0  0  0  0  0
   -2.3482    1.1262    0.0000 C   0  0  0  0  0  0  0  0  0  0  0  0
   -1.6309    0.7132    0.0000 N   0  0  0  0  0  0  0  0  0  0  0  0
    1.2263   -1.7643    0.0000 C   0  0  0  0  0  0  0  0  0  0  0  0
    0.9260    0.1877    0.0000 O   0  0  0  0  0  0  0  0  0  0  0  0
    0.1001   -1.2430    0.0000 O   0  0  0  0  0  0  0  0  0  0  0  0
   -0.9176   -0.5255    0.0000 C   0  0  0  0  0  0  0  0  0  0  0  0
   -0.2044    0.7132    0.0000 C   0  0  0  0  0  0  0  0  0  0  0  0
   -3.0615    3.1908    0.0000 C   0  0  0  0  0  0  0  0  0  0  0  0
    1.9437   -0.5255    0.0000 C   0  0  0  0  0  0  0  0  0  0  0  0
   -3.0615    4.0124    0.0000 C   0  0  0  0  0  0  0  0  0  0  0  0
   -0.9176    1.1262    0.0000 C   0  0  0  0  0  0  0  0  0  0  0  0
   -1.6309   -0.1126    0.0000 C   0  0  0  0  0  0  0  0  0  0  0  0
   -3.0615    0.7132    0.0000 O   0  0  0  0  0  0  0  0  0  0  0  0
   -2.3482    1.9520    0.0000 N   0  0  0  0  0  0  0  0  0  0  0  0
    2.6569   -0.9385    0.0000 C   0  0  0  0  0  0  0  0  0  0  0  0
    1.9437   -2.1773    0.0000 C   0  0  0  0  0  0  0  0  0  0  0  0
    2.6569   -1.7643    0.0000 C   0  0  0  0  0  0  0  0  0  0  0  0
   -3.0615    2.3649    0.0000 C   0  0  0  0  0  0  0  0  0  0  0  0
    1.9437    0.3003    0.0000 O   0  0  0  0  0  0  0  0  0  0  0  0
    1.9437   -3.0031    0.0000 O   0  0  0  0  0  0  0  0  0  0  0  0
    2.6569    0.7132    0.0000 C   0  0  0  0  0  0  0  0  0  0  0  0
    2.6569   -3.4160    0.0000 C   0  0  0  0  0  0  0  0  0  0  0  0
  2  1  1  0  0  0  0
  3  1  1  0  0  0  0
  4  5  1  0  0  0  0
  5 15  1  0  0  0  0
  5 14  1  0  0  0  0
  6  2  1  0  0  0  0
  7  1  2  0  0  0  0
  8  1  2  0  0  0  0
  9  3  1  0  0  0  0
 10  3  1  0  0  0  0
 11 21  1  0  0  0  0
 12  2  2  0  0  0  0
 13 11  3  0  0  0  0
 14 10  1  0  0  0  0
 15  9  1  0  0  0  0
 16  4  2  0  0  0  0
 17  4  1  0  0  0  0
 18 12  1  0  0  0  0
 18 20  2  0  0  0  0
 19  6  2  0  0  0  0
 20 19  1  0  0  0  0
 21 17  1  0  0  0  0
 22 12  1  0  0  0  0
 23 19  1  0  0  0  0
 24 22  1  0  0  0  0
 25 23  1  0  0  0  0
M  END
> <CdId>
3064

> <Mol Weight>
367.42

> <Formula>
C16H21N3O5S

> <Click_ID>
CLK040H08 __ __ 

$$$$
