CLK031_E11
 OpenBabel03181417552D

 31 34  0  0  0  0  0  0  0  0999 V2000
   -1.1625    2.3833    0.0000 C   0  0  0  0  0  0  0  0  0  0  0  0
   -0.3375    2.3750    0.0000 N   0  0  0  0  0  0  0  0  0  0  0  0
   -4.5833    3.2125    0.0000 S   0  0  0  0  0  0  0  0  0  0  0  0
   -1.6458    1.7208    0.0000 N   0  0  0  0  0  0  0  0  0  0  0  0
    0.9000    3.0875    0.0000 C   0  0  0  0  0  0  0  0  0  0  0  0
   -1.6458    3.0500    0.0000 S   0  0  0  0  0  0  0  0  0  0  0  0
    0.0750    3.0875    0.0000 C   0  0  0  0  0  0  0  0  0  0  0  0
   -2.4333    2.7958    0.0000 C   0  0  0  0  0  0  0  0  0  0  0  0
   -2.4333    1.9708    0.0000 C   0  0  0  0  0  0  0  0  0  0  0  0
   -3.8583    2.7958    0.0000 C   0  0  0  0  0  0  0  0  0  0  0  0
    1.3167    2.3625    0.0000 C   0  0  0  0  0  0  0  0  0  0  0  0
    1.3167    3.8000    0.0000 C   0  0  0  0  0  0  0  0  0  0  0  0
   -3.1458    3.2083    0.0000 C   0  0  0  0  0  0  0  0  0  0  0  0
   -1.9458    0.3208    0.0000 C   0  0  0  0  0  0  0  0  0  0  0  0
   -3.1458    1.5583    0.0000 C   0  0  0  0  0  0  0  0  0  0  0  0
    2.1417    3.7958    0.0000 C   0  0  0  0  0  0  0  0  0  0  0  0
   -2.4958   -0.2917    0.0000 C   0  0  0  0  0  0  0  0  0  0  0  0
   -4.1458    3.9083    0.0000 O   0  0  0  0  0  0  0  0  0  0  0  0
   -5.0208    2.5083    0.0000 O   0  0  0  0  0  0  0  0  0  0  0  0
    2.1417    2.3708    0.0000 C   0  0  0  0  0  0  0  0  0  0  0  0
    2.5542    3.0833    0.0000 C   0  0  0  0  0  0  0  0  0  0  0  0
   -0.3375    3.8000    0.0000 O   0  0  0  0  0  0  0  0  0  0  0  0
   -5.2833    3.6458    0.0000 N   0  0  0  0  0  0  0  0  0  0  0  0
   -3.8583    1.9708    0.0000 C   0  0  0  0  0  0  0  0  0  0  0  0
   -1.3958    0.9333    0.0000 C   0  0  0  0  0  0  0  0  0  0  0  0
    0.9000    4.5125    0.0000 O   0  0  0  0  0  0  0  0  0  0  0  0
    2.5542    1.6500    0.0000 C   0  0  0  0  0  0  0  0  0  0  0  0
    3.3792    3.0833    0.0000 C   0  0  0  0  0  0  0  0  0  0  0  0
    1.3167    5.2292    0.0000 C   0  0  0  0  0  0  0  0  0  0  0  0
    3.3792    1.6500    0.0000 C   0  0  0  0  0  0  0  0  0  0  0  0
    3.7917    2.3625    0.0000 C   0  0  0  0  0  0  0  0  0  0  0  0
  2  1  2  0  0  0  0
  3 10  1  0  0  0  0
  4  1  1  0  0  0  0
  5  7  1  0  0  0  0
  6  1  1  0  0  0  0
  7  2  1  0  0  0  0
  8  6  1  0  0  0  0
  8  9  2  0  0  0  0
  9  4  1  0  0  0  0
 10 13  2  0  0  0  0
 10 24  1  0  0  0  0
 11  5  2  0  0  0  0
 12  5  1  0  0  0  0
 13  8  1  0  0  0  0
 14 25  1  0  0  0  0
 15  9  1  0  0  0  0
 16 12  2  0  0  0  0
 17 14  3  0  0  0  0
 18  3  2  0  0  0  0
 19  3  2  0  0  0  0
 20 11  1  0  0  0  0
 20 21  1  0  0  0  0
 21 16  1  0  0  0  0
 22  7  2  0  0  0  0
 23  3  1  0  0  0  0
 24 15  2  0  0  0  0
 25  4  1  0  0  0  0
 26 12  1  0  0  0  0
 27 20  2  0  0  0  0
 28 21  2  0  0  0  0
 29 26  1  0  0  0  0
 30 27  1  0  0  0  0
 31 28  1  0  0  0  0
 31 30  2  0  0  0  0
M  END
> <CdId>
2375

> <Mol Weight>
451.518

> <Formula>
C22H17N3O4S2

> <Click_ID>
CLK031_E11 __ __ 

$$$$
