CLK051C11
 OpenBabel03181417552D

 27 28  0  0  0  0  0  0  0  0999 V2000
    1.1875   -0.7792    0.0000 S    0  0  0  0  0  0  0  0  0  0  0  0
    0.4750    1.2833    0.0000 C    0  0  0  0  0  0  0  0  0  0  0  0
   -1.6708   -1.6042    0.0000 C    0  0  0  0  0  0  0  0  0  0  0  0
    1.1875    0.0458    0.0000 C    0  0  0  0  0  0  0  0  0  0  0  0
    0.4750    0.4583    0.0000 C    0  0  0  0  0  0  0  0  0  0  0  0
    1.1875   -1.6042    0.0000 N    0  0  0  0  0  0  0  0  0  0  0  0
   -0.2417    1.6958    0.0000 C    0  0  0  0  0  0  0  0  0  0  0  0
   -0.9542   -2.0167    0.0000 C    0  0  0  0  0  0  0  0  0  0  0  0
   -0.9542    3.7583    0.0000 C    0  0  0  0  0  0  0  0  0  0  0  0
    0.3625   -0.7792    0.0000 O    0  0  0  0  0  0  0  0  0  0  0  0
    2.0125   -0.7792    0.0000 O    0  0  0  0  0  0  0  0  0  0  0  0
   -0.9542    4.5792    0.0000 C    0  0  0  0  0  0  0  0  0  0  0  0
    1.1875    1.6958    0.0000 C    0  0  0  0  0  0  0  0  0  0  0  0
    0.4750   -2.0167    0.0000 C    0  0  0  0  0  0  0  0  0  0  0  0
   -0.2417   -1.6042    0.0000 C    0  0  0  0  0  0  0  0  0  0  0  0
   -0.9542    1.2833    0.0000 O    0  0  0  0  0  0  0  0  0  0  0  0
    1.9042    0.4583    0.0000 C    0  0  0  0  0  0  0  0  0  0  0  0
    1.9042    1.2833    0.0000 C    0  0  0  0  0  0  0  0  0  0  0  0
   -2.3833   -1.1917    0.0000 F    0  0  0  0  0  0  0  0  0  0  0  0
   -2.0833   -2.3167    0.0000 F    0  0  0  0  0  0  0  0  0  0  0  0
   -1.2583   -0.8875    0.0000 F    0  0  0  0  0  0  0  0  0  0  0  0
   -0.2417    2.5208    0.0000 N    0  0  0  0  0  0  0  0  0  0  0  0
    1.1875    2.5208    0.0000 Cl   0  0  0  0  0  0  0  0  0  0  0  0
   -0.9542    2.9333    0.0000 C    0  0  0  0  0  0  0  0  0  0  0  0
   -0.9542   -2.8417    0.0000 C    0  0  0  0  0  0  0  0  0  0  0  0
   -0.2417   -3.2542    0.0000 C    0  0  0  0  0  0  0  0  0  0  0  0
    0.4750   -2.8417    0.0000 C    0  0  0  0  0  0  0  0  0  0  0  0
  2  5  1  0  0  0  0
  3  8  1  0  0  0  0
  4  1  1  0  0  0  0
  5  4  2  0  0  0  0
  6  1  1  0  0  0  0
  7  2  1  0  0  0  0
  8 15  2  0  0  0  0
  9 24  1  0  0  0  0
 10  1  2  0  0  0  0
 11  1  2  0  0  0  0
 12  9  3  0  0  0  0
 13  2  2  0  0  0  0
 13 18  1  0  0  0  0
 14  6  1  0  0  0  0
 15 14  1  0  0  0  0
 16  7  2  0  0  0  0
 17  4  1  0  0  0  0
 18 17  2  0  0  0  0
 19  3  1  0  0  0  0
 20  3  1  0  0  0  0
 21  3  1  0  0  0  0
 22  7  1  0  0  0  0
 23 13  1  0  0  0  0
 24 22  1  0  0  0  0
 25  8  1  0  0  0  0
 26 27  1  0  0  0  0
 26 25  2  0  0  0  0
 27 14  2  0  0  0  0
M  END
> <CdId>
3963

> <Mol Weight>
416.802

> <Formula>
C17H12ClF3N2O3S

> <Click_ID>
CLK051C11 __ __ 

$$$$
