CLK012_D09
 OpenBabel03181417552D

 22 23  0  0  0  0  0  0  0  0999 V2000
    1.5518   -0.8089    0.0000 N   0  0  0  0  0  0  0  0  0  0  0  0
    1.8076   -1.5889    0.0000 C   0  0  0  0  0  0  0  0  0  0  0  0
    2.2162   -0.3261    0.0000 C   0  0  0  0  0  0  0  0  0  0  0  0
    2.8766   -0.8089    0.0000 C   0  0  0  0  0  0  0  0  0  0  0  0
    2.6248   -1.5889    0.0000 S   0  0  0  0  0  0  0  0  0  0  0  0
    3.6566   -0.5572    0.0000 C   0  0  0  0  0  0  0  0  0  0  0  0
    0.6067    0.2435    0.0000 C   0  0  0  0  0  0  0  0  0  0  0  0
    0.3880    1.0359    0.0000 C   0  0  0  0  0  0  0  0  0  0  0  0
    1.3248   -2.2451    0.0000 O   0  0  0  0  0  0  0  0  0  0  0  0
    2.2080    0.4911    0.0000 O   0  0  0  0  0  0  0  0  0  0  0  0
    0.7800   -0.5572    0.0000 C   0  0  0  0  0  0  0  0  0  0  0  0
    4.1766    1.8778    0.0000 C   0  0  0  0  0  0  0  0  0  0  0  0
    4.3499    2.6825    0.0000 N   0  0  0  0  0  0  0  0  0  0  0  0
    3.8382    0.2476    0.0000 C   0  0  0  0  0  0  0  0  0  0  0  0
    4.8039    1.3206    0.0000 C   0  0  0  0  0  0  0  0  0  0  0  0
    3.3842    1.6178    0.0000 C   0  0  0  0  0  0  0  0  0  0  0  0
    3.2191    0.8006    0.0000 C   0  0  0  0  0  0  0  0  0  0  0  0
    4.6305    0.5035    0.0000 C   0  0  0  0  0  0  0  0  0  0  0  0
    5.1423    2.9426    0.0000 C   0  0  0  0  0  0  0  0  0  0  0  0
    3.7433    3.2273    0.0000 C   0  0  0  0  0  0  0  0  0  0  0  0
    5.3157    3.7473    0.0000 C   0  0  0  0  0  0  0  0  0  0  0  0
    3.9042    4.0404    0.0000 C   0  0  0  0  0  0  0  0  0  0  0  0
  2  1  1  0  0  0  0
  3  1  1  0  0  0  0
  4  3  1  0  0  0  0
  4  5  1  0  0  0  0
  5  2  1  0  0  0  0
  6  4  2  0  0  0  0
  7 11  1  0  0  0  0
  8  7  3  0  0  0  0
  9  2  2  0  0  0  0
 10  3  2  0  0  0  0
 11  1  1  0  0  0  0
 12 15  1  0  0  0  0
 12 16  2  0  0  0  0
 13 12  1  0  0  0  0
 14  6  1  0  0  0  0
 15 18  2  0  0  0  0
 16 17  1  0  0  0  0
 17 14  2  0  0  0  0
 18 14  1  0  0  0  0
 19 13  1  0  0  0  0
 20 13  1  0  0  0  0
 21 19  1  0  0  0  0
 22 20  1  0  0  0  0
M  END
> <CdId>
874

> <Mol Weight>
314.402

> <Formula>
C17H18N2O2S

> <Click_ID>
CLK012_D09 __ __ 

$$$$
