CLK032_F03
 OpenBabel03181417552D

 31 33  0  0  0  0  0  0  0  0999 V2000
   -1.1625    2.3833    0.0000 C   0  0  0  0  0  0  0  0  0  0  0  0
    3.3917    3.0833    0.0000 S   0  0  0  0  0  0  0  0  0  0  0  0
   -0.3375    2.3750    0.0000 N   0  0  0  0  0  0  0  0  0  0  0  0
   -1.6458    1.7208    0.0000 N   0  0  0  0  0  0  0  0  0  0  0  0
   -1.6458    3.0500    0.0000 S   0  0  0  0  0  0  0  0  0  0  0  0
   -2.4333    2.7958    0.0000 C   0  0  0  0  0  0  0  0  0  0  0  0
   -2.4333    1.9708    0.0000 C   0  0  0  0  0  0  0  0  0  0  0  0
    0.0750    3.0875    0.0000 C   0  0  0  0  0  0  0  0  0  0  0  0
    2.5625    3.0833    0.0000 C   0  0  0  0  0  0  0  0  0  0  0  0
    4.2167    3.0833    0.0000 N   0  0  0  0  0  0  0  0  0  0  0  0
   -3.1458    3.2083    0.0000 C   0  0  0  0  0  0  0  0  0  0  0  0
   -1.9458    0.3208    0.0000 C   0  0  0  0  0  0  0  0  0  0  0  0
    3.3917    2.2458    0.0000 O   0  0  0  0  0  0  0  0  0  0  0  0
    3.3917    3.9083    0.0000 O   0  0  0  0  0  0  0  0  0  0  0  0
   -2.4958   -0.2917    0.0000 C   0  0  0  0  0  0  0  0  0  0  0  0
   -3.1458    1.5583    0.0000 C   0  0  0  0  0  0  0  0  0  0  0  0
    0.9000    3.0875    0.0000 C   0  0  0  0  0  0  0  0  0  0  0  0
   -5.2875    2.8000    0.0000 C   0  0  0  0  0  0  0  0  0  0  0  0
   -4.5833    3.2125    0.0000 N   0  0  0  0  0  0  0  0  0  0  0  0
   -3.8583    2.7958    0.0000 C   0  0  0  0  0  0  0  0  0  0  0  0
   -0.3375    3.8000    0.0000 O   0  0  0  0  0  0  0  0  0  0  0  0
   -1.3958    0.9333    0.0000 C   0  0  0  0  0  0  0  0  0  0  0  0
   -6.0000    3.2125    0.0000 O   0  0  0  0  0  0  0  0  0  0  0  0
    2.1292    2.3708    0.0000 C   0  0  0  0  0  0  0  0  0  0  0  0
    2.1417    3.8000    0.0000 C   0  0  0  0  0  0  0  0  0  0  0  0
    1.3167    2.3708    0.0000 C   0  0  0  0  0  0  0  0  0  0  0  0
    1.3167    3.8083    0.0000 C   0  0  0  0  0  0  0  0  0  0  0  0
   -3.8583    1.9708    0.0000 C   0  0  0  0  0  0  0  0  0  0  0  0
    4.6375    3.7958    0.0000 C   0  0  0  0  0  0  0  0  0  0  0  0
    4.6292    2.3625    0.0000 C   0  0  0  0  0  0  0  0  0  0  0  0
   -5.2958    1.9750    0.0000 C   0  0  0  0  0  0  0  0  0  0  0  0
  2  9  1  0  0  0  0
  3  1  2  0  0  0  0
  4  1  1  0  0  0  0
  5  1  1  0  0  0  0
  6  5  1  0  0  0  0
  6  7  2  0  0  0  0
  7  4  1  0  0  0  0
  8  3  1  0  0  0  0
  9 25  1  0  0  0  0
 10  2  1  0  0  0  0
 11  6  1  0  0  0  0
 12 22  1  0  0  0  0
 13  2  2  0  0  0  0
 14  2  2  0  0  0  0
 15 12  3  0  0  0  0
 16  7  1  0  0  0  0
 17  8  1  0  0  0  0
 18 19  1  0  0  0  0
 19 20  1  0  0  0  0
 20 11  2  0  0  0  0
 20 28  1  0  0  0  0
 21  8  2  0  0  0  0
 22  4  1  0  0  0  0
 23 18  2  0  0  0  0
 24 26  1  0  0  0  0
 24  9  2  0  0  0  0
 25 27  2  0  0  0  0
 26 17  2  0  0  0  0
 27 17  1  0  0  0  0
 28 16  2  0  0  0  0
 29 10  1  0  0  0  0
 30 10  1  0  0  0  0
 31 18  1  0  0  0  0
M  END
> <CdId>
2457

> <Mol Weight>
456.538

> <Formula>
C21H20N4O4S2

> <Click_ID>
CLK032_F03 __ __ 

$$$$
