CLK017_B05
 OpenBabel03181417552D

 30 32  0  0  0  0  0  0  0  0999 V2000
    5.3380   -3.0238    0.0000 N    0  0  0  0  0  0  0  0  0  0  0  0
    5.3462   -1.6006    0.0000 C    0  0  0  0  0  0  0  0  0  0  0  0
    4.9254   -2.3184    0.0000 C    0  0  0  0  0  0  0  0  0  0  0  0
    6.1672   -3.0320    0.0000 C    0  0  0  0  0  0  0  0  0  0  0  0
    6.5755   -2.3184    0.0000 N    0  0  0  0  0  0  0  0  0  0  0  0
    6.1672   -1.6006    0.0000 C    0  0  0  0  0  0  0  0  0  0  0  0
    4.9378   -0.8828    0.0000 C    0  0  0  0  0  0  0  0  0  0  0  0
    2.4751   -0.8828    0.0000 C    0  0  0  0  0  0  0  0  0  0  0  0
    2.8876   -0.1774    0.0000 C    0  0  0  0  0  0  0  0  0  0  0  0
    2.8753   -1.5882    0.0000 C    0  0  0  0  0  0  0  0  0  0  0  0
    4.9296   -3.7374    0.0000 C    0  0  0  0  0  0  0  0  0  0  0  0
    4.1128   -0.8828    0.0000 C    0  0  0  0  0  0  0  0  0  0  0  0
    0.4249   -0.1403    0.0000 C    0  0  0  0  0  0  0  0  0  0  0  0
    6.5755   -3.7416    0.0000 O    0  0  0  0  0  0  0  0  0  0  0  0
   -0.3960   -0.1279    0.0000 C    0  0  0  0  0  0  0  0  0  0  0  0
    4.1004   -2.3142    0.0000 O    0  0  0  0  0  0  0  0  0  0  0  0
    3.7126   -0.1774    0.0000 C    0  0  0  0  0  0  0  0  0  0  0  0
    3.7003   -1.5964    0.0000 C    0  0  0  0  0  0  0  0  0  0  0  0
    6.5879   -0.8910    0.0000 O    0  0  0  0  0  0  0  0  0  0  0  0
    4.1004   -3.7292    0.0000 C    0  0  0  0  0  0  0  0  0  0  0  0
    5.3380   -4.4470    0.0000 C    0  0  0  0  0  0  0  0  0  0  0  0
    2.4793    0.5404    0.0000 Cl   0  0  0  0  0  0  0  0  0  0  0  0
    2.4545   -2.2936    0.0000 Cl   0  0  0  0  0  0  0  0  0  0  0  0
    1.6501   -0.8704    0.0000 O    0  0  0  0  0  0  0  0  0  0  0  0
    3.6879   -4.4346    0.0000 C    0  0  0  0  0  0  0  0  0  0  0  0
    4.9172   -5.1606    0.0000 C    0  0  0  0  0  0  0  0  0  0  0  0
    4.0963   -5.1524    0.0000 C    0  0  0  0  0  0  0  0  0  0  0  0
    1.2499   -0.1527    0.0000 C    0  0  0  0  0  0  0  0  0  0  0  0
    3.6797   -5.8660    0.0000 C    0  0  0  0  0  0  0  0  0  0  0  0
    2.8505   -5.8660    0.0000 C    0  0  0  0  0  0  0  0  0  0  0  0
  2  3  1  0  0  0  0
  2  6  1  0  0  0  0
  3  1  1  0  0  0  0
  4  1  1  0  0  0  0
  5  4  1  0  0  0  0
  6  5  1  0  0  0  0
  7  2  2  0  0  0  0
  8 10  2  0  0  0  0
  9 17  2  0  0  0  0
  9  8  1  0  0  0  0
 10 18  1  0  0  0  0
 11  1  1  0  0  0  0
 12  7  1  0  0  0  0
 13 28  1  0  0  0  0
 14  4  2  0  0  0  0
 15 13  3  0  0  0  0
 16  3  2  0  0  0  0
 17 12  1  0  0  0  0
 18 12  2  0  0  0  0
 19  6  2  0  0  0  0
 20 11  2  0  0  0  0
 21 11  1  0  0  0  0
 22  9  1  0  0  0  0
 23 10  1  0  0  0  0
 24  8  1  0  0  0  0
 25 20  1  0  0  0  0
 25 27  2  0  0  0  0
 26 21  2  0  0  0  0
 27 26  1  0  0  0  0
 28 24  1  0  0  0  0
 29 27  1  0  0  0  0
 30 29  1  0  0  0  0
M  END
> <CdId>
1250

> <Mol Weight>
443.279

> <Formula>
C22H16Cl2N2O4

> <Click_ID>
CLK017_B05 __ __ 

$$$$
