CLK011_G05
 OpenBabel03181417552D

 29 31  0  0  0  0  0  0  0  0999 V2000
    6.5170   -3.8745    0.0000 N    0  0  0  0  0  0  0  0  0  0  0  0
    5.8553   -4.3572    0.0000 C    0  0  0  0  0  0  0  0  0  0  0  0
    7.1829   -4.3572    0.0000 C    0  0  0  0  0  0  0  0  0  0  0  0
    6.9290   -5.1437    0.0000 C    0  0  0  0  0  0  0  0  0  0  0  0
    6.1050   -5.1437    0.0000 S    0  0  0  0  0  0  0  0  0  0  0  0
    6.3964   -8.0693    0.0000 C    0  0  0  0  0  0  0  0  0  0  0  0
    7.4159   -5.8096    0.0000 C    0  0  0  0  0  0  0  0  0  0  0  0
    5.9177   -7.3951    0.0000 C    0  0  0  0  0  0  0  0  0  0  0  0
    7.2204   -7.9819    0.0000 C    0  0  0  0  0  0  0  0  0  0  0  0
    7.0788   -6.5587    0.0000 C    0  0  0  0  0  0  0  0  0  0  0  0
    5.0730   -4.0992    0.0000 N    0  0  0  0  0  0  0  0  0  0  0  0
    4.8982   -9.6549    0.0000 C    0  0  0  0  0  0  0  0  0  0  0  0
    4.5611  -10.4040    0.0000 C    0  0  0  0  0  0  0  0  0  0  0  0
    3.9452   -2.2390    0.0000 C    0  0  0  0  0  0  0  0  0  0  0  0
    6.2590   -6.6461    0.0000 C    0  0  0  0  0  0  0  0  0  0  0  0
    7.5574   -7.2286    0.0000 C    0  0  0  0  0  0  0  0  0  0  0  0
    7.9694   -4.0992    0.0000 O    0  0  0  0  0  0  0  0  0  0  0  0
    4.8982   -3.3002    0.0000 C    0  0  0  0  0  0  0  0  0  0  0  0
    4.1200   -3.0463    0.0000 C    0  0  0  0  0  0  0  0  0  0  0  0
    4.5569   -1.6854    0.0000 C    0  0  0  0  0  0  0  0  0  0  0  0
    5.3435   -1.9393    0.0000 C    0  0  0  0  0  0  0  0  0  0  0  0
    5.0938   -7.4783    0.0000 Br   0  0  0  0  0  0  0  0  0  0  0  0
    6.0593   -8.8184    0.0000 O    0  0  0  0  0  0  0  0  0  0  0  0
    5.5099   -2.7466    0.0000 C    0  0  0  0  0  0  0  0  0  0  0  0
    7.7031   -8.6561    0.0000 O    0  0  0  0  0  0  0  0  0  0  0  0
    5.2353   -8.9016    0.0000 C    0  0  0  0  0  0  0  0  0  0  0  0
    3.1586   -1.9893    0.0000 C    0  0  0  0  0  0  0  0  0  0  0  0
    4.3863   -0.8781    0.0000 C    0  0  0  0  0  0  0  0  0  0  0  0
    7.3660   -9.4052    0.0000 C    0  0  0  0  0  0  0  0  0  0  0  0
  2  1  2  0  0  0  0
  3  1  1  0  0  0  0
  4  3  1  0  0  0  0
  5  2  1  0  0  0  0
  5  4  1  0  0  0  0
  6  9  2  0  0  0  0
  6  8  1  0  0  0  0
  7  4  2  0  0  0  0
  8 15  2  0  0  0  0
  9 16  1  0  0  0  0
 10  7  1  0  0  0  0
 11  2  1  0  0  0  0
 12 26  1  0  0  0  0
 13 12  3  0  0  0  0
 14 19  2  0  0  0  0
 15 10  1  0  0  0  0
 16 10  2  0  0  0  0
 17  3  2  0  0  0  0
 18 11  1  0  0  0  0
 19 18  1  0  0  0  0
 20 21  2  0  0  0  0
 20 14  1  0  0  0  0
 21 24  1  0  0  0  0
 22  8  1  0  0  0  0
 23  6  1  0  0  0  0
 24 18  2  0  0  0  0
 25  9  1  0  0  0  0
 26 23  1  0  0  0  0
 27 14  1  0  0  0  0
 28 20  1  0  0  0  0
 29 25  1  0  0  0  0
M  END
> <CdId>
820

> <Mol Weight>
471.367

> <Formula>
C22H19BrN2O3S

> <Click_ID>
CLK011_G05 __ __ 

$$$$
