CLK038C05
 OpenBabel03181417552D

 22 24  0  0  0  0  0  0  0  0999 V2000
   -0.3995   -0.7699    0.0000 C    0  0  0  0  0  0  0  0  0  0  0  0
   -0.8823   -1.4359    0.0000 C    0  0  0  0  0  0  0  0  0  0  0  0
   -0.3995   -2.1018    0.0000 N    0  0  0  0  0  0  0  0  0  0  0  0
    0.3871   -1.8479    0.0000 C    0  0  0  0  0  0  0  0  0  0  0  0
   -0.6535    0.0167    0.0000 C    0  0  0  0  0  0  0  0  0  0  0  0
    0.3871   -1.0238    0.0000 C    0  0  0  0  0  0  0  0  0  0  0  0
   -0.0999    0.6285    0.0000 C    0  0  0  0  0  0  0  0  0  0  0  0
    1.0987   -2.2599    0.0000 C    0  0  0  0  0  0  0  0  0  0  0  0
   -2.2225    2.5388    0.0000 C    0  0  0  0  0  0  0  0  0  0  0  0
   -3.0298    2.7094    0.0000 C    0  0  0  0  0  0  0  0  0  0  0  0
    1.0987   -0.6118    0.0000 C    0  0  0  0  0  0  0  0  0  0  0  0
   -1.7063   -1.4359    0.0000 O    0  0  0  0  0  0  0  0  0  0  0  0
   -0.3579    1.4109    0.0000 C    0  0  0  0  0  0  0  0  0  0  0  0
    1.8146   -1.8479    0.0000 C    0  0  0  0  0  0  0  0  0  0  0  0
    1.8146   -1.0238    0.0000 C    0  0  0  0  0  0  0  0  0  0  0  0
    2.5263   -2.2599    0.0000 Cl   0  0  0  0  0  0  0  0  0  0  0  0
   -1.1612    1.5815    0.0000 O    0  0  0  0  0  0  0  0  0  0  0  0
   -1.4151    2.3681    0.0000 C    0  0  0  0  0  0  0  0  0  0  0  0
    0.7034    0.4578    0.0000 C    0  0  0  0  0  0  0  0  0  0  0  0
    0.1956    2.0227    0.0000 C    0  0  0  0  0  0  0  0  0  0  0  0
    1.2569    1.0696    0.0000 C    0  0  0  0  0  0  0  0  0  0  0  0
    1.0031    1.8521    0.0000 C    0  0  0  0  0  0  0  0  0  0  0  0
  2  1  1  0  0  0  0
  3  2  1  0  0  0  0
  4  6  2  0  0  0  0
  4  3  1  0  0  0  0
  5  1  2  0  0  0  0
  6  1  1  0  0  0  0
  7  5  1  0  0  0  0
  8  4  1  0  0  0  0
  9 18  1  0  0  0  0
 10  9  3  0  0  0  0
 11  6  1  0  0  0  0
 12  2  2  0  0  0  0
 13  7  2  0  0  0  0
 14  8  2  0  0  0  0
 15 11  2  0  0  0  0
 15 14  1  0  0  0  0
 16 14  1  0  0  0  0
 17 13  1  0  0  0  0
 18 17  1  0  0  0  0
 19  7  1  0  0  0  0
 20 13  1  0  0  0  0
 21 19  2  0  0  0  0
 22 20  2  0  0  0  0
 22 21  1  0  0  0  0
M  END
> <CdId>
2875

> <Mol Weight>
309.746

> <Formula>
C18H12ClNO2

> <Click_ID>
CLK038C05 __ __ 

$$$$
