CLK039F06
 OpenBabel03181417552D

 18 18  0  0  0  0  0  0  0  0999 V2000
   -0.2417   -1.7875    0.0000 S   0  0  0  0  0  0  0  0  0  0  0  0
   -0.2417   -2.6125    0.0000 C   0  0  0  0  0  0  0  0  0  0  0  0
   -0.2417    1.5125    0.0000 C   0  0  0  0  0  0  0  0  0  0  0  0
   -0.2417   -0.9625    0.0000 C   0  0  0  0  0  0  0  0  0  0  0  0
    1.1875    3.1667    0.0000 C   0  0  0  0  0  0  0  0  0  0  0  0
    1.9042    3.5792    0.0000 C   0  0  0  0  0  0  0  0  0  0  0  0
    0.5833   -1.7875    0.0000 O   0  0  0  0  0  0  0  0  0  0  0  0
   -1.0667   -1.7875    0.0000 O   0  0  0  0  0  0  0  0  0  0  0  0
   -0.2417    0.6875    0.0000 C   0  0  0  0  0  0  0  0  0  0  0  0
   -0.9542    1.9250    0.0000 O   0  0  0  0  0  0  0  0  0  0  0  0
    0.4750   -0.5500    0.0000 C   0  0  0  0  0  0  0  0  0  0  0  0
   -0.9542   -0.5500    0.0000 C   0  0  0  0  0  0  0  0  0  0  0  0
   -0.9542    0.2750    0.0000 C   0  0  0  0  0  0  0  0  0  0  0  0
    0.4750    0.2750    0.0000 C   0  0  0  0  0  0  0  0  0  0  0  0
    0.4750    1.9250    0.0000 N   0  0  0  0  0  0  0  0  0  0  0  0
    0.4750   -3.0250    0.0000 F   0  0  0  0  0  0  0  0  0  0  0  0
   -0.9542   -3.0250    0.0000 F   0  0  0  0  0  0  0  0  0  0  0  0
    0.4750    2.7500    0.0000 C   0  0  0  0  0  0  0  0  0  0  0  0
  2  1  1  0  0  0  0
  3  9  1  0  0  0  0
  4  1  1  0  0  0  0
  5 18  1  0  0  0  0
  6  5  3  0  0  0  0
  7  1  2  0  0  0  0
  8  1  2  0  0  0  0
  9 13  2  0  0  0  0
  9 14  1  0  0  0  0
 10  3  2  0  0  0  0
 11  4  1  0  0  0  0
 12  4  2  0  0  0  0
 13 12  1  0  0  0  0
 14 11  2  0  0  0  0
 15  3  1  0  0  0  0
 16  2  1  0  0  0  0
 17  2  1  0  0  0  0
 18 15  1  0  0  0  0
M  END
> <CdId>
2966

> <Mol Weight>
273.256

> <Formula>
C11H9F2NO3S

> <Click_ID>
CLK039F06 __ __ 

$$$$
