CLK045A03
 OpenBabel03181417552D

 20 21  0  0  0  0  0  0  0  0999 V2000
   -0.1083   -3.2375    0.0000 N   0  3  0  0  0  0  0  0  0  0  0  0
   -0.1083    0.0625    0.0000 C   0  0  0  0  0  0  0  0  0  0  0  0
    0.6042    0.4750    0.0000 N   0  0  0  0  0  0  0  0  0  0  0  0
   -0.8250    2.9500    0.0000 C   0  0  0  0  0  0  0  0  0  0  0  0
   -0.1083   -2.4125    0.0000 C   0  0  0  0  0  0  0  0  0  0  0  0
   -1.5375    3.3625    0.0000 C   0  0  0  0  0  0  0  0  0  0  0  0
   -0.8250   -3.6500    0.0000 O   0  5  0  0  0  0  0  0  0  0  0  0
   -0.1083   -0.7625    0.0000 C   0  0  0  0  0  0  0  0  0  0  0  0
    0.6042   -3.6500    0.0000 O   0  0  0  0  0  0  0  0  0  0  0  0
   -0.8250    0.4750    0.0000 O   0  0  0  0  0  0  0  0  0  0  0  0
    0.6042    1.3000    0.0000 C   0  0  0  0  0  0  0  0  0  0  0  0
    0.6042   -2.0000    0.0000 C   0  0  0  0  0  0  0  0  0  0  0  0
   -0.8250   -2.0000    0.0000 C   0  0  0  0  0  0  0  0  0  0  0  0
   -0.8250   -1.1750    0.0000 C   0  0  0  0  0  0  0  0  0  0  0  0
    0.6042   -1.1750    0.0000 C   0  0  0  0  0  0  0  0  0  0  0  0
   -0.1083    2.5375    0.0000 C   0  0  0  0  0  0  0  0  0  0  0  0
   -0.1083    1.7125    0.0000 C   0  0  0  0  0  0  0  0  0  0  0  0
    1.3208    2.5375    0.0000 C   0  0  0  0  0  0  0  0  0  0  0  0
    1.3208    1.7125    0.0000 C   0  0  0  0  0  0  0  0  0  0  0  0
    0.6042    2.9500    0.0000 C   0  0  0  0  0  0  0  0  0  0  0  0
  2  8  1  0  0  0  0
  3  2  1  0  0  0  0
  4 16  1  0  0  0  0
  5  1  1  0  0  0  0
  6  4  3  0  0  0  0
  7  1  1  0  0  0  0
  8 14  2  0  0  0  0
  8 15  1  0  0  0  0
  9  1  2  0  0  0  0
 10  2  2  0  0  0  0
 11  3  1  0  0  0  0
 12  5  1  0  0  0  0
 13  5  2  0  0  0  0
 14 13  1  0  0  0  0
 15 12  2  0  0  0  0
 16 17  1  0  0  0  0
 17 11  2  0  0  0  0
 18 19  2  0  0  0  0
 19 11  1  0  0  0  0
 20 16  2  0  0  0  0
 20 18  1  0  0  0  0
M  END
> <CdId>
3417

> <Mol Weight>
266.2515

> <Formula>
C15H10N2O3

> <Click_ID>
CLK045A03 __ __ 

$$$$
