CLK016_B07
 OpenBabel03181417552D

 28 30  0  0  0  0  0  0  0  0999 V2000
    2.0372   -1.0857    0.0000 N   0  0  0  0  0  0  0  0  0  0  0  0
    2.2887   -1.8779    0.0000 C   0  0  0  0  0  0  0  0  0  0  0  0
    2.7036   -0.5953    0.0000 C   0  0  0  0  0  0  0  0  0  0  0  0
    3.3743   -1.0857    0.0000 C   0  0  0  0  0  0  0  0  0  0  0  0
    3.1186   -1.8779    0.0000 S   0  0  0  0  0  0  0  0  0  0  0  0
   -1.5677   -1.4126    0.0000 N   0  3  0  0  0  0  0  0  0  0  0  0
    4.1666   -0.8300    0.0000 C   0  0  0  0  0  0  0  0  0  0  0  0
    1.2492   -0.8300    0.0000 C   0  0  0  0  0  0  0  0  0  0  0  0
   -0.7754   -1.6767    0.0000 C   0  0  0  0  0  0  0  0  0  0  0  0
    5.8474    3.4162    0.0000 C   0  0  0  0  0  0  0  0  0  0  0  0
    6.0277    4.2043    0.0000 C   0  0  0  0  0  0  0  0  0  0  0  0
   -1.7354   -0.6036    0.0000 O   0  5  0  0  0  0  0  0  0  0  0  0
    1.8025   -2.5444    0.0000 O   0  0  0  0  0  0  0  0  0  0  0  0
   -2.1838   -1.9659    0.0000 O   0  0  0  0  0  0  0  0  0  0  0  0
    2.7036    0.2347    0.0000 O   0  0  0  0  0  0  0  0  0  0  0  0
   -0.1592   -1.1234    0.0000 C   0  0  0  0  0  0  0  0  0  0  0  0
    0.6288   -1.3875    0.0000 C   0  0  0  0  0  0  0  0  0  0  0  0
    4.3426   -0.0294    0.0000 C   0  0  0  0  0  0  0  0  0  0  0  0
    4.6947    1.5802    0.0000 C   0  0  0  0  0  0  0  0  0  0  0  0
    5.1180    0.2221    0.0000 C   0  0  0  0  0  0  0  0  0  0  0  0
    3.7348    0.5282    0.0000 C   0  0  0  0  0  0  0  0  0  0  0  0
    3.9151    1.3287    0.0000 C   0  0  0  0  0  0  0  0  0  0  0  0
    5.3067    1.0269    0.0000 C   0  0  0  0  0  0  0  0  0  0  0  0
    5.6630    2.6240    0.0000 C   0  0  0  0  0  0  0  0  0  0  0  0
    4.8791    2.3725    0.0000 O   0  0  0  0  0  0  0  0  0  0  0  0
   -0.6120   -2.4815    0.0000 C   0  0  0  0  0  0  0  0  0  0  0  0
    0.1803   -2.7456    0.0000 C   0  0  0  0  0  0  0  0  0  0  0  0
    0.8048   -2.1923    0.0000 C   0  0  0  0  0  0  0  0  0  0  0  0
  2  1  1  0  0  0  0
  3  1  1  0  0  0  0
  4  3  1  0  0  0  0
  5  2  1  0  0  0  0
  5  4  1  0  0  0  0
  6  9  1  0  0  0  0
  7  4  2  0  0  0  0
  8  1  1  0  0  0  0
  9 16  1  0  0  0  0
  9 26  2  0  0  0  0
 10 24  1  0  0  0  0
 11 10  3  0  0  0  0
 12  6  1  0  0  0  0
 13  2  2  0  0  0  0
 14  6  2  0  0  0  0
 15  3  2  0  0  0  0
 16 17  2  0  0  0  0
 17  8  1  0  0  0  0
 18  7  1  0  0  0  0
 19 22  2  0  0  0  0
 20 18  1  0  0  0  0
 21 18  2  0  0  0  0
 22 21  1  0  0  0  0
 23 20  2  0  0  0  0
 23 19  1  0  0  0  0
 24 25  1  0  0  0  0
 25 19  1  0  0  0  0
 26 27  1  0  0  0  0
 27 28  2  0  0  0  0
 28 17  1  0  0  0  0
M  END
> <CdId>
1172

> <Mol Weight>
394.401

> <Formula>
C20H14N2O5S

> <Click_ID>
CLK016_B07 __ __ 

$$$$
