CLK011_G11
 OpenBabel03181417552D

 21 22  0  0  0  0  0  0  0  0999 V2000
    3.3448   -1.9560    0.0000 S   0  0  0  0  0  0  0  0  0  0  0  0
    0.4922   -3.6159    0.0000 N   0  3  0  0  0  0  0  0  0  0  0  0
    4.1080   -2.2688    0.0000 N   0  0  0  0  0  0  0  0  0  0  0  0
    2.6400   -2.3689    0.0000 C   0  0  0  0  0  0  0  0  0  0  0  0
    5.8597   -4.5292    0.0000 C   0  0  0  0  0  0  0  0  0  0  0  0
    1.2053   -3.2030    0.0000 C   0  0  0  0  0  0  0  0  0  0  0  0
    3.3448   -1.1303    0.0000 O   0  0  0  0  0  0  0  0  0  0  0  0
    2.5524   -1.7433    0.0000 O   0  0  0  0  0  0  0  0  0  0  0  0
    5.9723   -5.3467    0.0000 C   0  0  0  0  0  0  0  0  0  0  0  0
   -0.2252   -3.2072    0.0000 O   0  5  0  0  0  0  0  0  0  0  0  0
    0.4922   -4.4458    0.0000 O   0  0  0  0  0  0  0  0  0  0  0  0
    4.2206   -3.0904    0.0000 C   0  0  0  0  0  0  0  0  0  0  0  0
    2.6400   -3.2030    0.0000 C   0  0  0  0  0  0  0  0  0  0  0  0
    1.9185   -1.9560    0.0000 C   0  0  0  0  0  0  0  0  0  0  0  0
    1.9185   -3.6159    0.0000 C   0  0  0  0  0  0  0  0  0  0  0  0
    1.2053   -2.3689    0.0000 C   0  0  0  0  0  0  0  0  0  0  0  0
    5.0964   -4.2164    0.0000 C   0  0  0  0  0  0  0  0  0  0  0  0
    4.9838   -3.3949    0.0000 C   0  0  0  0  0  0  0  0  0  0  0  0
    3.6784   -4.4083    0.0000 C   0  0  0  0  0  0  0  0  0  0  0  0
    3.5700   -3.5908    0.0000 C   0  0  0  0  0  0  0  0  0  0  0  0
    4.4416   -4.7211    0.0000 C   0  0  0  0  0  0  0  0  0  0  0  0
  2  6  1  0  0  0  0
  3  1  1  0  0  0  0
  4  1  1  0  0  0  0
  5 17  1  0  0  0  0
  6 16  2  0  0  0  0
  7  1  2  0  0  0  0
  8  1  2  0  0  0  0
  9  5  3  0  0  0  0
 10  2  1  0  0  0  0
 11  2  2  0  0  0  0
 12  3  1  0  0  0  0
 13  4  1  0  0  0  0
 14  4  2  0  0  0  0
 15 13  2  0  0  0  0
 15  6  1  0  0  0  0
 16 14  1  0  0  0  0
 17 18  2  0  0  0  0
 17 21  1  0  0  0  0
 18 12  1  0  0  0  0
 19 20  1  0  0  0  0
 20 12  2  0  0  0  0
 21 19  2  0  0  0  0
M  END
> <CdId>
826

> <Mol Weight>
302.305

> <Formula>
C14H10N2O4S

> <Click_ID>
CLK011_G11 __ __ 

$$$$
