CLK043C11
 OpenBabel03181417552D

 33 35  0  0  0  0  0  0  0  0999 V2000
    0.3333    2.2042    0.0000 N   0  0  0  0  0  0  0  0  0  0  0  0
   -0.3833    0.9667    0.0000 C   0  0  0  0  0  0  0  0  0  0  0  0
    0.3333    1.3792    0.0000 C   0  0  0  0  0  0  0  0  0  0  0  0
   -0.3833    2.6167    0.0000 C   0  0  0  0  0  0  0  0  0  0  0  0
   -1.0958    2.2042    0.0000 N   0  0  0  0  0  0  0  0  0  0  0  0
   -1.0958    1.3792    0.0000 C   0  0  0  0  0  0  0  0  0  0  0  0
   -0.3833    0.1417    0.0000 N   0  0  0  0  0  0  0  0  0  0  0  0
   -1.0958   -0.2708    0.0000 C   0  0  0  0  0  0  0  0  0  0  0  0
    1.0458    2.6167    0.0000 C   0  0  0  0  0  0  0  0  0  0  0  0
   -0.3833   -3.9833    0.0000 C   0  0  0  0  0  0  0  0  0  0  0  0
    0.3333   -4.3958    0.0000 C   0  0  0  0  0  0  0  0  0  0  0  0
   -0.3833    3.4417    0.0000 O   0  0  0  0  0  0  0  0  0  0  0  0
   -1.8125    0.9667    0.0000 O   0  0  0  0  0  0  0  0  0  0  0  0
    0.3333   -0.2708    0.0000 C   0  0  0  0  0  0  0  0  0  0  0  0
    1.0458    0.9667    0.0000 N   0  0  0  0  0  0  0  0  0  0  0  0
   -1.0958   -1.0958    0.0000 C   0  0  0  0  0  0  0  0  0  0  0  0
   -1.8125    0.1417    0.0000 O   0  0  0  0  0  0  0  0  0  0  0  0
   -1.8125   -1.5083    0.0000 N   0  0  0  0  0  0  0  0  0  0  0  0
   -1.0958   -3.5708    0.0000 C   0  0  0  0  0  0  0  0  0  0  0  0
   -1.8125   -2.3333    0.0000 C   0  0  0  0  0  0  0  0  0  0  0  0
   -1.0958   -2.7458    0.0000 C   0  0  0  0  0  0  0  0  0  0  0  0
    1.7625    2.2042    0.0000 C   0  0  0  0  0  0  0  0  0  0  0  0
    1.0458    0.1417    0.0000 C   0  0  0  0  0  0  0  0  0  0  0  0
   -2.5250   -3.5708    0.0000 C   0  0  0  0  0  0  0  0  0  0  0  0
   -1.8125   -3.9833    0.0000 C   0  0  0  0  0  0  0  0  0  0  0  0
   -2.5250   -2.7458    0.0000 C   0  0  0  0  0  0  0  0  0  0  0  0
    2.4750    2.6167    0.0000 C   0  0  0  0  0  0  0  0  0  0  0  0
    1.7625    1.3792    0.0000 C   0  0  0  0  0  0  0  0  0  0  0  0
    1.7625   -0.2708    0.0000 C   0  0  0  0  0  0  0  0  0  0  0  0
    1.4583    0.8583    0.0000 C   0  0  0  0  0  0  0  0  0  0  0  0
    2.4750    0.9667    0.0000 C   0  0  0  0  0  0  0  0  0  0  0  0
    3.1917    2.2042    0.0000 C   0  0  0  0  0  0  0  0  0  0  0  0
    3.1917    1.3792    0.0000 C   0  0  0  0  0  0  0  0  0  0  0  0
  2  3  2  0  0  0  0
  3  1  1  0  0  0  0
  4  1  1  0  0  0  0
  5  4  1  0  0  0  0
  6  5  1  0  0  0  0
  6  2  1  0  0  0  0
  7  2  1  0  0  0  0
  8  7  1  0  0  0  0
  9  1  1  0  0  0  0
 10 19  1  0  0  0  0
 11 10  3  0  0  0  0
 12  4  2  0  0  0  0
 13  6  2  0  0  0  0
 14  7  1  0  0  0  0
 15  3  1  0  0  0  0
 16  8  1  0  0  0  0
 17  8  2  0  0  0  0
 18 16  1  0  0  0  0
 19 21  1  0  0  0  0
 20 18  1  0  0  0  0
 21 20  2  0  0  0  0
 22  9  1  0  0  0  0
 23 14  1  0  0  0  0
 24 26  2  0  0  0  0
 25 19  2  0  0  0  0
 25 24  1  0  0  0  0
 26 20  1  0  0  0  0
 27 22  2  0  0  0  0
 28 22  1  0  0  0  0
 29 23  1  0  0  0  0
 30 23  1  0  0  0  0
 31 28  2  0  0  0  0
 32 27  1  0  0  0  0
 33 32  2  0  0  0  0
 33 31  1  0  0  0  0
M  END
> <CdId>
3323

> <Mol Weight>
445.5136

> <Formula>
C25H27N5O3

> <Click_ID>
CLK043C11 __ __ 

$$$$
