CLK002_H06
 OpenBabel03181417552D

 18 20  0  0  0  0  0  0  0  0999 V2000
   -0.3763   -0.2961    0.0000 C   0  0  3  0  0  0  0  0  0  0  0  0
    0.4333   -0.0324    0.0000 C   0  0  3  0  0  0  0  0  0  0  0  0
    0.7155    0.1958    0.0000 C   0  0  3  0  0  0  0  0  0  0  0  0
   -0.9453   -0.0324    0.0000 C   0  0  0  0  0  0  0  0  0  0  0  0
   -0.3716   -1.0563    0.0000 O   0  0  0  0  0  0  0  0  0  0  0  0
    1.7302   -0.2961    0.0000 C   0  0  3  0  0  0  0  0  0  0  0  0
    0.4333    0.7926    0.0000 C   0  0  0  0  0  0  0  0  0  0  0  0
    0.7155    1.0332    0.0000 C   0  0  0  0  0  0  0  0  0  0  0  0
   -1.4434   -0.3146    0.0000 C   0  0  0  0  0  0  0  0  0  0  0  0
   -0.9453    0.5259    0.0000 C   0  0  0  0  0  0  0  0  0  0  0  0
    0.3578   -1.4865    0.0000 C   0  0  0  0  0  0  0  0  0  0  0  0
    2.4858    0.1110    0.0000 I   0  0  0  0  0  0  0  0  0  0  0  0
   -0.4364    1.3293    0.0000 C   0  0  0  0  0  0  0  0  0  0  0  0
   -1.9215   -0.0493    0.0000 C   0  0  0  0  0  0  0  0  0  0  0  0
   -1.4434    0.8312    0.0000 C   0  0  0  0  0  0  0  0  0  0  0  0
    1.1273   -1.0748    0.0000 C   0  0  0  0  0  0  0  0  0  0  0  0
   -1.9215    0.5259    0.0000 C   0  0  0  0  0  0  0  0  0  0  0  0
    1.8058   -0.7063    0.0000 C   0  0  0  0  0  0  0  0  0  0  0  0
  1  2  1  0  0  0  0
  1  3  1  0  0  0  0
  1  4  1  0  0  0  0
  1  5  1  0  0  0  0
  2  6  1  0  0  0  0
  2  7  1  0  0  0  0
  3  8  1  0  0  0  0
  3  6  1  0  0  0  0
  4  9  1  0  0  0  0
  4 10  2  0  0  0  0
  5 11  1  0  0  0  0
  6 12  1  0  0  0  0
  7 13  1  0  0  0  0
  8 13  1  0  0  0  0
  9 14  2  0  0  0  0
 10 15  1  0  0  0  0
 11 16  1  0  0  0  0
 14 17  1  0  0  0  0
 15 17  2  0  0  0  0
 16 18  3  0  0  0  0
M  END
> <CdId>
155

> <Mol Weight>
352.21

> <Formula>
C16H17IO

> <Click_ID>
CLK002_H06 __ __ 

$$$$
