CLK007_B02
 OpenBabel03181417552D

 32 36  0  0  0  0  0  0  0  0999 V2000
    6.2492  -19.1999    0.0000 C   0  0  3  0  0  0  0  0  0  0  0  0
    5.8384  -19.9094    0.0000 C   0  0  0  0  0  0  0  0  0  0  0  0
    5.0168  -19.9177    0.0000 C   0  0  0  0  0  0  0  0  0  0  0  0
    5.8301  -18.4861    0.0000 C   0  0  0  0  0  0  0  0  0  0  0  0
    6.9380  -18.7393    0.0000 C   0  0  0  0  0  0  0  0  0  0  0  0
    4.5935  -19.1957    0.0000 N   0  0  0  0  0  0  0  0  0  0  0  0
    5.0085  -18.4819    0.0000 C   0  0  0  0  0  0  0  0  0  0  0  0
    7.5936  -19.2497    0.0000 N   0  0  0  0  0  0  0  0  0  0  0  0
    6.4733  -19.9882    0.0000 C   0  0  0  0  0  0  0  0  0  0  0  0
    7.3031  -20.0297    0.0000 C   0  0  0  0  0  0  0  0  0  0  0  0
    5.6516  -20.7144    0.0000 C   0  0  0  0  0  0  0  0  0  0  0  0
    6.2409  -17.7683    0.0000 C   0  0  0  0  0  0  0  0  0  0  0  0
    5.4691  -21.5153    0.0000 N   0  0  0  0  0  0  0  0  0  0  0  0
    9.0169  -19.2786    0.0000 C   0  0  0  0  0  0  0  0  0  0  0  0
    9.7016  -19.7310    0.0000 C   0  0  0  0  0  0  0  0  0  0  0  0
    7.3862  -18.0380    0.0000 O   0  0  0  0  0  0  0  0  0  0  0  0
    3.7719  -19.1957    0.0000 C   0  0  0  0  0  0  0  0  0  0  0  0
    4.5188  -20.5733    0.0000 N   0  0  0  0  0  0  0  0  0  0  0  0
    8.3198  -18.8513    0.0000 C   0  0  0  0  0  0  0  0  0  0  0  0
    6.9712  -17.3657    0.0000 O   0  0  0  0  0  0  0  0  0  0  0  0
    4.5935  -17.7765    0.0000 C   0  0  0  0  0  0  0  0  0  0  0  0
    6.0293  -20.6853    0.0000 C   0  0  0  0  0  0  0  0  0  0  0  0
    7.6849  -20.7559    0.0000 C   0  0  0  0  0  0  0  0  0  0  0  0
    5.8259  -17.0587    0.0000 C   0  0  0  0  0  0  0  0  0  0  0  0
    5.0043  -17.0628    0.0000 C   0  0  0  0  0  0  0  0  0  0  0  0
    3.3611  -19.9177    0.0000 C   0  0  0  0  0  0  0  0  0  0  0  0
    3.3653  -18.4778    0.0000 C   0  0  0  0  0  0  0  0  0  0  0  0
    6.4110  -21.4240    0.0000 C   0  0  0  0  0  0  0  0  0  0  0  0
    7.2368  -21.4571    0.0000 C   0  0  0  0  0  0  0  0  0  0  0  0
    2.5437  -18.4778    0.0000 C   0  0  0  0  0  0  0  0  0  0  0  0
    2.5395  -19.9094    0.0000 C   0  0  0  0  0  0  0  0  0  0  0  0
    2.1245  -19.1957    0.0000 C   0  0  0  0  0  0  0  0  0  0  0  0
  2  1  1  0  0  0  0
  3  2  2  0  0  0  0
  4  1  1  0  0  0  0
  5  1  1  0  0  0  0
  6  7  1  0  0  0  0
  6  3  1  0  0  0  0
  7  4  2  0  0  0  0
  8  5  1  0  0  0  0
  8 10  1  0  0  0  0
  9  1  1  0  0  0  0
 10  9  2  0  0  0  0
 11  2  1  0  0  0  0
 12  4  1  0  0  0  0
 13 11  3  0  0  0  0
 14 19  1  0  0  0  0
 15 14  3  0  0  0  0
 16  5  2  0  0  0  0
 17  6  1  0  0  0  0
 18  3  1  0  0  0  0
 19  8  1  0  0  0  0
 20 12  2  0  0  0  0
 21  7  1  0  0  0  0
 22  9  1  0  0  0  0
 23 10  1  0  0  0  0
 24 12  1  0  0  0  0
 25 24  1  0  0  0  0
 25 21  1  0  0  0  0
 26 17  1  0  0  0  0
 27 17  2  0  0  0  0
 28 22  2  0  0  0  0
 29 28  1  0  0  0  0
 29 23  2  0  0  0  0
 30 27  1  0  0  0  0
 31 26  2  0  0  0  0
 32 30  2  0  0  0  0
 32 31  1  0  0  0  0
M  END
> <CdId>
491

> <Mol Weight>
420.4626

> <Formula>
C26H20N4O2

> <Click_ID>
CLK007_B02 __ __ 

$$$$
