CLK038A05
 OpenBabel03181417552D

 22 23  0  0  0  0  0  0  0  0999 V2000
   -0.7158    0.9531    0.0000 N   0  0  0  0  0  0  0  0  0  0  0  0
   -0.2289    1.6189    0.0000 C   0  0  0  0  0  0  0  0  0  0  0  0
    0.5535    1.3651    0.0000 S   0  0  0  0  0  0  0  0  0  0  0  0
   -0.2289    0.2871    0.0000 C   0  0  0  0  0  0  0  0  0  0  0  0
    0.0666   -1.1112    0.0000 C   0  0  0  0  0  0  0  0  0  0  0  0
   -0.4869   -0.4994    0.0000 C   0  0  0  0  0  0  0  0  0  0  0  0
    0.9157   -3.1214    0.0000 C   0  0  0  0  0  0  0  0  0  0  0  0
    0.5535    0.5410    0.0000 C   0  0  0  0  0  0  0  0  0  0  0  0
    1.4650   -3.7331    0.0000 C   0  0  0  0  0  0  0  0  0  0  0  0
   -0.1873   -1.8936    0.0000 N   0  0  0  0  0  0  0  0  0  0  0  0
    0.3621   -2.5054    0.0000 C   0  0  0  0  0  0  0  0  0  0  0  0
   -0.4869    2.4015    0.0000 C   0  0  0  0  0  0  0  0  0  0  0  0
    0.8740   -0.9406    0.0000 O   0  0  0  0  0  0  0  0  0  0  0  0
    0.9739   -1.9560    0.0000 C   0  0  0  0  0  0  0  0  0  0  0  0
   -0.2497   -3.0590    0.0000 C   0  0  0  0  0  0  0  0  0  0  0  0
    0.0666    3.0132    0.0000 C   0  0  0  0  0  0  0  0  0  0  0  0
   -1.2902    2.5720    0.0000 C   0  0  0  0  0  0  0  0  0  0  0  0
    1.7604   -2.2099    0.0000 C   0  0  0  0  0  0  0  0  0  0  0  0
   -1.0321   -2.8051    0.0000 C   0  0  0  0  0  0  0  0  0  0  0  0
   -1.5440    3.3586    0.0000 C   0  0  0  0  0  0  0  0  0  0  0  0
   -0.1873    3.7997    0.0000 C   0  0  0  0  0  0  0  0  0  0  0  0
   -0.9947    3.9704    0.0000 C   0  0  0  0  0  0  0  0  0  0  0  0
  2  1  2  0  0  0  0
  3  2  1  0  0  0  0
  3  8  1  0  0  0  0
  4  1  1  0  0  0  0
  5  6  1  0  0  0  0
  6  4  1  0  0  0  0
  7 11  1  0  0  0  0
  8  4  2  0  0  0  0
  9  7  3  0  0  0  0
 10  5  1  0  0  0  0
 11 10  1  0  0  0  0
 12  2  1  0  0  0  0
 13  5  2  0  0  0  0
 14 11  1  0  0  0  0
 15 11  1  0  0  0  0
 16 12  1  0  0  0  0
 17 12  2  0  0  0  0
 18 14  1  0  0  0  0
 19 15  1  0  0  0  0
 20 17  1  0  0  0  0
 21 16  2  0  0  0  0
 22 20  2  0  0  0  0
 22 21  1  0  0  0  0
M  END
> <CdId>
2873

> <Mol Weight>
312.429

> <Formula>
C18H20N2OS

> <Click_ID>
CLK038A05 __ __ 

$$$$
