CLK048G02
 OpenBabel03181417552D

 18 19  0  0  0  0  0  0  0  0999 V2000
    0.5542    0.1375    0.0000 C   0  0  0  0  0  0  0  0  0  0  0  0
   -0.1625    1.3750    0.0000 N   0  0  0  0  0  0  0  0  0  0  0  0
    0.5542    0.9625    0.0000 C   0  0  0  0  0  0  0  0  0  0  0  0
   -0.1625   -0.2750    0.0000 C   0  0  0  0  0  0  0  0  0  0  0  0
    1.2667   -0.2750    0.0000 C   0  0  0  0  0  0  0  0  0  0  0  0
   -0.8750    0.9625    0.0000 C   0  0  0  0  0  0  0  0  0  0  0  0
   -0.8750    0.1375    0.0000 C   0  0  0  0  0  0  0  0  0  0  0  0
    1.9833   -2.3375    0.0000 C   0  0  0  0  0  0  0  0  0  0  0  0
    1.9833   -3.1625    0.0000 C   0  0  0  0  0  0  0  0  0  0  0  0
   -1.5917    1.3750    0.0000 C   0  0  0  0  0  0  0  0  0  0  0  0
    1.9833    0.1375    0.0000 O   0  0  0  0  0  0  0  0  0  0  0  0
    1.2667   -1.1000    0.0000 N   0  0  0  0  0  0  0  0  0  0  0  0
   -1.5917   -0.2750    0.0000 C   0  0  0  0  0  0  0  0  0  0  0  0
   -2.3042    0.9625    0.0000 C   0  0  0  0  0  0  0  0  0  0  0  0
   -2.3042    0.1375    0.0000 C   0  0  0  0  0  0  0  0  0  0  0  0
   -3.0208    1.3750    0.0000 F   0  0  0  0  0  0  0  0  0  0  0  0
    1.9833   -1.5125    0.0000 C   0  0  0  0  0  0  0  0  0  0  0  0
    1.2667    1.3750    0.0000 C   0  0  0  0  0  0  0  0  0  0  0  0
  2  3  1  0  0  0  0
  3  1  2  0  0  0  0
  4  1  1  0  0  0  0
  5  1  1  0  0  0  0
  6  2  2  0  0  0  0
  7  4  2  0  0  0  0
  7  6  1  0  0  0  0
  8 17  1  0  0  0  0
  9  8  3  0  0  0  0
 10  6  1  0  0  0  0
 11  5  2  0  0  0  0
 12  5  1  0  0  0  0
 13  7  1  0  0  0  0
 14 10  2  0  0  0  0
 15 13  2  0  0  0  0
 15 14  1  0  0  0  0
 16 14  1  0  0  0  0
 17 12  1  0  0  0  0
 18  3  1  0  0  0  0
M  END
> <CdId>
3655

> <Mol Weight>
242.2483

> <Formula>
C14H11FN2O

> <Click_ID>
CLK048G02 __ __ 

$$$$
