CLK043G02
 OpenBabel03181417552D

 31 34  0  0  0  0  0  0  0  0999 V2000
    0.9544   -2.9007    0.0000 S   0  0  0  0  0  0  0  0  0  0  0  0
    0.8835    0.8794    0.0000 N   0  0  0  0  0  0  0  0  0  0  0  0
    0.2668    0.3251    0.0000 C   0  0  0  0  0  0  0  0  0  0  0  0
    0.7960    1.7004    0.0000 C   0  0  3  0  0  0  0  0  0  0  0  0
    0.0792    2.1130    0.0000 C   0  0  0  0  0  0  0  0  0  0  0  0
    0.7835   -2.0963    0.0000 C   0  0  0  0  0  0  0  0  0  0  0  0
   -1.3503    2.1130    0.0000 C   0  0  0  0  0  0  0  0  0  0  0  0
   -0.6335    1.7004    0.0000 C   0  0  0  0  0  0  0  0  0  0  0  0
    0.6835   -5.0680    0.0000 C   0  0  0  0  0  0  0  0  0  0  0  0
    0.8544   -5.8765    0.0000 C   0  0  0  0  0  0  0  0  0  0  0  0
    0.4418   -0.4793    0.0000 C   0  0  0  0  0  0  0  0  0  0  0  0
    1.7629   -2.7299    0.0000 O   0  0  0  0  0  0  0  0  0  0  0  0
    0.1458   -3.0758    0.0000 O   0  0  0  0  0  0  0  0  0  0  0  0
   -1.3503    2.9382    0.0000 C   0  0  0  0  0  0  0  0  0  0  0  0
    1.1253   -3.7092    0.0000 N   0  0  0  0  0  0  0  0  0  0  0  0
   -0.5168    0.5793    0.0000 O   0  0  0  0  0  0  0  0  0  0  0  0
   -1.9922    1.5962    0.0000 O   0  0  0  0  0  0  0  0  0  0  0  0
   -1.9922    3.4509    0.0000 O   0  0  0  0  0  0  0  0  0  0  0  0
    0.0792    2.9382    0.0000 C   0  0  0  0  0  0  0  0  0  0  0  0
    0.0000   -1.8422    0.0000 C   0  0  0  0  0  0  0  0  0  0  0  0
    1.3962   -1.5421    0.0000 C   0  0  0  0  0  0  0  0  0  0  0  0
   -0.6335    3.3509    0.0000 C   0  0  0  0  0  0  0  0  0  0  0  0
   -0.1750   -1.0336    0.0000 C   0  0  0  0  0  0  0  0  0  0  0  0
    1.2253   -0.7377    0.0000 C   0  0  0  0  0  0  0  0  0  0  0  0
    1.6879    0.7085    0.0000 C   0  0  0  0  0  0  0  0  0  0  0  0
    0.5126   -4.2636    0.0000 C   0  0  0  0  0  0  0  0  0  0  0  0
    1.5504    2.0338    0.0000 C   0  0  0  0  0  0  0  0  0  0  0  0
   -3.1550    2.5256    0.0000 C   0  0  0  0  0  0  0  0  0  0  0  0
    2.1005    1.4212    0.0000 C   0  0  0  0  0  0  0  0  0  0  0  0
   -2.7965    1.7797    0.0000 C   0  0  0  0  0  0  0  0  0  0  0  0
   -2.7965    3.2675    0.0000 C   0  0  0  0  0  0  0  0  0  0  0  0
  2  3  1  0  0  0  0
  3 11  1  0  0  0  0
  4  2  1  0  0  0  0
  5  4  1  0  0  0  0
  6  1  1  0  0  0  0
  7  8  1  0  0  0  0
  8  5  2  0  0  0  0
  9 26  1  0  0  0  0
 10  9  3  0  0  0  0
 11 24  2  0  0  0  0
 12  1  2  0  0  0  0
 13  1  2  0  0  0  0
 14  7  2  0  0  0  0
 14 22  1  0  0  0  0
 15  1  1  0  0  0  0
 16  3  2  0  0  0  0
 17  7  1  0  0  0  0
 18 14  1  0  0  0  0
 19  5  1  0  0  0  0
 20  6  1  0  0  0  0
 21  6  2  0  0  0  0
 22 19  2  0  0  0  0
 23 20  2  0  0  0  0
 23 11  1  0  0  0  0
 24 21  1  0  0  0  0
 25  2  1  0  0  0  0
 26 15  1  0  0  0  0
 27  4  1  0  0  0  0
 27 29  1  0  0  0  0
 28 30  1  0  0  0  0
 28 31  1  0  0  0  0
 29 25  1  0  0  0  0
 30 17  1  0  0  0  0
 31 18  1  0  0  0  0
M  END
> <CdId>
3255

> <Mol Weight>
440.512

> <Formula>
C23H24N2O5S

> <Click_ID>
CLK043G02 __ __ 

$$$$
