CLK046G06
 OpenBabel03181417552D

 24 25  0  0  0  0  0  0  0  0999 V2000
    0.1750    0.5875    0.0000 S   0  0  0  0  0  0  0  0  0  0  0  0
    0.1750   -0.2375    0.0000 C   0  0  0  0  0  0  0  0  0  0  0  0
   -0.5375   -1.4750    0.0000 C   0  0  0  0  0  0  0  0  0  0  0  0
    0.1750    1.4125    0.0000 N   0  0  0  0  0  0  0  0  0  0  0  0
   -0.5375   -0.6500    0.0000 C   0  0  0  0  0  0  0  0  0  0  0  0
   -1.2542   -1.8875    0.0000 C   0  0  0  0  0  0  0  0  0  0  0  0
   -3.3958   -1.4750    0.0000 C   0  0  0  0  0  0  0  0  0  0  0  0
    1.0000    0.5875    0.0000 O   0  0  0  0  0  0  0  0  0  0  0  0
   -0.6500    0.5875    0.0000 O   0  0  0  0  0  0  0  0  0  0  0  0
   -4.1083   -1.0625    0.0000 C   0  0  0  0  0  0  0  0  0  0  0  0
    0.1750   -1.8875    0.0000 C   0  0  0  0  0  0  0  0  0  0  0  0
   -1.2542   -2.7125    0.0000 O   0  0  0  0  0  0  0  0  0  0  0  0
    0.8917   -0.6500    0.0000 C   0  0  0  0  0  0  0  0  0  0  0  0
    0.8917   -1.4750    0.0000 C   0  0  0  0  0  0  0  0  0  0  0  0
   -1.9667   -1.4750    0.0000 N   0  0  0  0  0  0  0  0  0  0  0  0
    0.8917    1.8250    0.0000 C   0  0  0  0  0  0  0  0  0  0  0  0
    2.3208    2.6500    0.0000 C   0  0  0  0  0  0  0  0  0  0  0  0
    3.0333    3.0625    0.0000 F   0  0  0  0  0  0  0  0  0  0  0  0
   -2.6833   -1.8875    0.0000 C   0  0  0  0  0  0  0  0  0  0  0  0
    1.6042    1.4125    0.0000 C   0  0  0  0  0  0  0  0  0  0  0  0
    0.8917    2.6500    0.0000 C   0  0  0  0  0  0  0  0  0  0  0  0
    1.6042    3.0625    0.0000 C   0  0  0  0  0  0  0  0  0  0  0  0
    2.3208    1.8250    0.0000 C   0  0  0  0  0  0  0  0  0  0  0  0
    0.1750   -2.7125    0.0000 C   0  0  0  0  0  0  0  0  0  0  0  0
  2  1  1  0  0  0  0
  3  5  1  0  0  0  0
  4  1  1  0  0  0  0
  5  2  2  0  0  0  0
  6  3  1  0  0  0  0
  7 19  1  0  0  0  0
  8  1  2  0  0  0  0
  9  1  2  0  0  0  0
 10  7  3  0  0  0  0
 11  3  2  0  0  0  0
 12  6  2  0  0  0  0
 13  2  1  0  0  0  0
 14 13  2  0  0  0  0
 14 11  1  0  0  0  0
 15  6  1  0  0  0  0
 16  4  1  0  0  0  0
 17 22  2  0  0  0  0
 17 23  1  0  0  0  0
 18 17  1  0  0  0  0
 19 15  1  0  0  0  0
 20 16  1  0  0  0  0
 21 16  2  0  0  0  0
 22 21  1  0  0  0  0
 23 20  2  0  0  0  0
 24 11  1  0  0  0  0
M  END
> <CdId>
3527

> <Mol Weight>
346.376

> <Formula>
C17H15FN2O3S

> <Click_ID>
CLK046G06 __ __ 

$$$$
