CLK026_E03
 OpenBabel03181417552D

 29 31  0  0  0  0  0  0  0  0999 V2000
   -1.2402    1.4538    0.0000 N   0  0  0  0  0  0  0  0  0  0  0  0
   -0.8303    2.1635    0.0000 C   0  0  0  0  0  0  0  0  0  0  0  0
   -2.0635    1.4538    0.0000 C   0  0  0  0  0  0  0  0  0  0  0  0
   -2.4839    2.1635    0.0000 C   0  0  0  0  0  0  0  0  0  0  0  0
   -1.2402    2.8800    0.0000 N   0  0  0  0  0  0  0  0  0  0  0  0
   -0.8233    0.7303    0.0000 N   0  0  0  0  0  0  0  0  0  0  0  0
   -2.0705    2.8800    0.0000 C   0  0  0  0  0  0  0  0  0  0  0  0
    1.2333   -1.4159    0.0000 C   0  0  0  0  0  0  0  0  0  0  0  0
    0.4169   -1.4159    0.0000 C   0  0  0  0  0  0  0  0  0  0  0  0
    1.6536   -0.6993    0.0000 C   0  0  0  0  0  0  0  0  0  0  0  0
    2.8800   -2.8697    0.0000 C   0  0  0  0  0  0  0  0  0  0  0  0
    3.2934   -3.5897    0.0000 C   0  0  0  0  0  0  0  0  0  0  0  0
   -0.0069    2.1635    0.0000 O   0  0  0  0  0  0  0  0  0  0  0  0
   -2.4769    0.7200    0.0000 O   0  0  0  0  0  0  0  0  0  0  0  0
    0.0000    0.7303    0.0000 C   0  0  0  0  0  0  0  0  0  0  0  0
    0.4099    0.0138    0.0000 C   0  0  0  0  0  0  0  0  0  0  0  0
    0.0000   -0.6993    0.0000 C   0  0  0  0  0  0  0  0  0  0  0  0
    1.2402    0.0138    0.0000 C   0  0  0  0  0  0  0  0  0  0  0  0
    2.8870   -1.4056    0.0000 C   0  0  0  0  0  0  0  0  0  0  0  0
    3.7138   -1.4056    0.0000 C   0  0  0  0  0  0  0  0  0  0  0  0
    0.0069   -2.1394    0.0000 O   0  0  0  0  0  0  0  0  0  0  0  0
    1.6468   -2.1394    0.0000 O   0  0  0  0  0  0  0  0  0  0  0  0
   -3.3072    2.1635    0.0000 C   0  0  0  0  0  0  0  0  0  0  0  0
    2.4769   -0.6993    0.0000 C   0  0  0  0  0  0  0  0  0  0  0  0
    2.4769   -2.1497    0.0000 C   0  0  0  0  0  0  0  0  0  0  0  0
   -2.4839    3.5897    0.0000 C   0  0  0  0  0  0  0  0  0  0  0  0
   -0.8233   -2.1497    0.0000 C   0  0  0  0  0  0  0  0  0  0  0  0
   -3.7172    2.8800    0.0000 C   0  0  0  0  0  0  0  0  0  0  0  0
   -3.3072    3.5897    0.0000 C   0  0  0  0  0  0  0  0  0  0  0  0
  2  1  1  0  0  0  0
  3  1  1  0  0  0  0
  4  3  1  0  0  0  0
  5  2  1  0  0  0  0
  6  1  1  0  0  0  0
  7  4  1  0  0  0  0
  7  5  1  0  0  0  0
  8 10  1  0  0  0  0
  8  9  2  0  0  0  0
  9 17  1  0  0  0  0
 10 18  2  0  0  0  0
 11 25  1  0  0  0  0
 12 11  3  0  0  0  0
 13  2  2  0  0  0  0
 14  3  2  0  0  0  0
 15  6  2  0  0  0  0
 16 15  1  0  0  0  0
 17 16  2  0  0  0  0
 18 16  1  0  0  0  0
 19 24  1  0  0  0  0
 20 19  2  0  0  0  0
 21  9  1  0  0  0  0
 22  8  1  0  0  0  0
 23  4  2  0  0  0  0
 24 10  1  0  0  0  0
 25 22  1  0  0  0  0
 26  7  2  0  0  0  0
 26 29  1  0  0  0  0
 27 21  1  0  0  0  0
 28 23  1  0  0  0  0
 29 28  2  0  0  0  0
M  END
> <CdId>
1978

> <Mol Weight>
389.404

> <Formula>
C22H19N3O4

> <Click_ID>
CLK026_E03 __ __ 

$$$$
