CLK041G07
 OpenBabel03181417552D

 21 22  0  0  0  0  0  0  0  0999 V2000
   -2.1833   -0.1753    0.0000 C   0  0  0  0  0  0  0  0  0  0  0  0
   -0.7514   -0.1753    0.0000 N   0  0  0  0  0  0  0  0  0  0  0  0
   -1.4695   -0.5886    0.0000 C   0  0  0  0  0  0  0  0  0  0  0  0
   -1.4695    1.0645    0.0000 N   0  0  0  0  0  0  0  0  0  0  0  0
   -2.1833    0.6512    0.0000 C   0  0  0  0  0  0  0  0  0  0  0  0
   -0.7514    0.6512    0.0000 C   0  0  0  0  0  0  0  0  0  0  0  0
   -2.9723   -0.4300    0.0000 S   0  0  0  0  0  0  0  0  0  0  0  0
    0.6805   -0.1753    0.0000 C   0  0  0  0  0  0  0  0  0  0  0  0
   -0.0376   -0.5886    0.0000 C   0  0  0  0  0  0  0  0  0  0  0  0
    2.8261    0.2379    0.0000 C   0  0  0  0  0  0  0  0  0  0  0  0
   -2.9723    0.9059    0.0000 C   0  0  0  0  0  0  0  0  0  0  0  0
    3.5400    0.6512    0.0000 C   0  0  0  0  0  0  0  0  0  0  0  0
   -3.4565    0.2379    0.0000 C   0  0  0  0  0  0  0  0  0  0  0  0
    1.3943   -0.5886    0.0000 N   0  0  0  0  0  0  0  0  0  0  0  0
   -1.4695   -1.4152    0.0000 O   0  0  0  0  0  0  0  0  0  0  0  0
    2.1123   -0.1753    0.0000 C   0  0  0  0  0  0  0  0  0  0  0  0
    0.6805    0.6512    0.0000 O   0  0  0  0  0  0  0  0  0  0  0  0
    1.6990    0.5427    0.0000 C   0  0  0  0  0  0  0  0  0  0  0  0
    2.5255   -0.8892    0.0000 C   0  0  0  0  0  0  0  0  0  0  0  0
    2.1123    1.2566    0.0000 C   0  0  0  0  0  0  0  0  0  0  0  0
    2.1123   -1.6072    0.0000 C   0  0  0  0  0  0  0  0  0  0  0  0
  2  3  1  0  0  0  0
  3  1  1  0  0  0  0
  4  5  1  0  0  0  0
  4  6  2  0  0  0  0
  5  1  2  0  0  0  0
  6  2  1  0  0  0  0
  7  1  1  0  0  0  0
  8  9  1  0  0  0  0
  9  2  1  0  0  0  0
 10 16  1  0  0  0  0
 11  5  1  0  0  0  0
 12 10  3  0  0  0  0
 13  7  1  0  0  0  0
 13 11  2  0  0  0  0
 14  8  1  0  0  0  0
 15  3  2  0  0  0  0
 16 14  1  0  0  0  0
 17  8  2  0  0  0  0
 18 16  1  0  0  0  0
 19 16  1  0  0  0  0
 20 18  1  0  0  0  0
 21 19  1  0  0  0  0
M  END
> <CdId>
3135

> <Mol Weight>
303.379

> <Formula>
C15H17N3O2S

> <Click_ID>
CLK041G07 __ __ 

$$$$
