CLK025_A04
 OpenBabel03181417552D

 29 31  0  0  0  0  0  0  0  0999 V2000
    1.3097   -0.5225    0.0000 C   0  0  0  0  0  0  0  0  0  0  0  0
    1.4093   -1.3303    0.0000 C   0  0  0  0  0  0  0  0  0  0  0  0
    2.2034   -1.5056    0.0000 N   0  0  0  0  0  0  0  0  0  0  0  0
   -2.2756    3.1900    0.0000 N   0  3  0  0  0  0  0  0  0  0  0  0
    2.0693   -0.1753    0.0000 C   0  0  0  0  0  0  0  0  0  0  0  0
   -2.2756    2.3616    0.0000 C   0  0  0  0  0  0  0  0  0  0  0  0
    2.6228   -0.7941    0.0000 C   0  0  0  0  0  0  0  0  0  0  0  0
    0.5913   -0.0963    0.0000 N   0  0  0  0  0  0  0  0  0  0  0  0
   -0.1237    1.1344    0.0000 C   0  0  0  0  0  0  0  0  0  0  0  0
    0.5913    0.7287    0.0000 N   0  0  0  0  0  0  0  0  0  0  0  0
   -1.5572    1.9594    0.0000 C   0  0  0  0  0  0  0  0  0  0  0  0
    2.0487   -2.9287    0.0000 C   0  0  0  0  0  0  0  0  0  0  0  0
    1.5743   -3.6059    0.0000 C   0  0  0  0  0  0  0  0  0  0  0  0
   -1.5572    3.6059    0.0000 O   0  5  0  0  0  0  0  0  0  0  0  0
    0.7803   -1.8837    0.0000 O   0  0  0  0  0  0  0  0  0  0  0  0
   -2.9906    1.9594    0.0000 C   0  0  0  0  0  0  0  0  0  0  0  0
   -2.9906    3.6059    0.0000 O   0  0  0  0  0  0  0  0  0  0  0  0
   -0.8422    2.3616    0.0000 O   0  0  0  0  0  0  0  0  0  0  0  0
    2.5334   -2.2653    0.0000 C   0  0  0  0  0  0  0  0  0  0  0  0
   -0.8422    0.7287    0.0000 O   0  0  0  0  0  0  0  0  0  0  0  0
   -0.1237    1.9594    0.0000 C   0  0  0  0  0  0  0  0  0  0  0  0
   -1.5572    1.1344    0.0000 C   0  0  0  0  0  0  0  0  0  0  0  0
   -2.9906    1.1344    0.0000 C   0  0  0  0  0  0  0  0  0  0  0  0
    2.3272    0.5981    0.0000 C   0  0  0  0  0  0  0  0  0  0  0  0
   -2.2756    0.7081    0.0000 C   0  0  0  0  0  0  0  0  0  0  0  0
    3.4272   -0.6325    0.0000 C   0  0  0  0  0  0  0  0  0  0  0  0
   -3.6850    0.7081    0.0000 C   0  0  0  0  0  0  0  0  0  0  0  0
    3.1315    0.7597    0.0000 C   0  0  0  0  0  0  0  0  0  0  0  0
    3.6816    0.1547    0.0000 C   0  0  0  0  0  0  0  0  0  0  0  0
  2  1  1  0  0  0  0
  3  2  1  0  0  0  0
  3  7  1  0  0  0  0
  4  6  1  0  0  0  0
  5  1  1  0  0  0  0
  6 11  1  0  0  0  0
  7  5  2  0  0  0  0
  8  1  2  0  0  0  0
  9 10  1  0  0  0  0
 10  8  1  0  0  0  0
 11 18  1  0  0  0  0
 12 19  1  0  0  0  0
 13 12  3  0  0  0  0
 14  4  1  0  0  0  0
 15  2  2  0  0  0  0
 16  6  2  0  0  0  0
 16 23  1  0  0  0  0
 17  4  2  0  0  0  0
 18 21  1  0  0  0  0
 19  3  1  0  0  0  0
 20  9  2  0  0  0  0
 21  9  1  0  0  0  0
 22 11  2  0  0  0  0
 23 25  2  0  0  0  0
 24  5  1  0  0  0  0
 25 22  1  0  0  0  0
 26  7  1  0  0  0  0
 26 29  2  0  0  0  0
 27 23  1  0  0  0  0
 28 24  2  0  0  0  0
 29 28  1  0  0  0  0
M  END
> <CdId>
1859

> <Mol Weight>
392.3648

> <Formula>
C20H16N4O5

> <Click_ID>
CLK025_A04 __ __ 

$$$$
