CLK037D04
 OpenBabel03181417552D

 24 26  0  0  0  0  0  0  0  0999 V2000
    0.0583   -0.5500    0.0000 N   0  0  0  0  0  0  0  0  0  0  0  0
    0.0583    0.2750    0.0000 C   0  0  0  0  0  0  0  0  0  0  0  0
   -0.6583    0.6875    0.0000 C   0  0  0  0  0  0  0  0  0  0  0  0
   -0.6583   -0.9625    0.0000 C   0  0  0  0  0  0  0  0  0  0  0  0
   -1.3708    0.2750    0.0000 C   0  0  0  0  0  0  0  0  0  0  0  0
   -1.3708   -0.5500    0.0000 C   0  0  0  0  0  0  0  0  0  0  0  0
    0.7708   -0.9625    0.0000 C   0  0  0  0  0  0  0  0  0  0  0  0
   -0.6583    1.5125    0.0000 C   0  0  0  0  0  0  0  0  0  0  0  0
    0.7708    3.1667    0.0000 C   0  0  0  0  0  0  0  0  0  0  0  0
    1.4875    3.5792    0.0000 C   0  0  0  0  0  0  0  0  0  0  0  0
    0.7708    0.6875    0.0000 O   0  0  0  0  0  0  0  0  0  0  0  0
   -0.6583   -1.7875    0.0000 O   0  0  0  0  0  0  0  0  0  0  0  0
    0.7708   -1.7875    0.0000 C   0  0  0  0  0  0  0  0  0  0  0  0
    1.4875   -0.5500    0.0000 C   0  0  0  0  0  0  0  0  0  0  0  0
    0.0583    1.9250    0.0000 N   0  0  0  0  0  0  0  0  0  0  0  0
    2.2000   -0.9625    0.0000 C   0  0  0  0  0  0  0  0  0  0  0  0
    1.4875   -2.2000    0.0000 C   0  0  0  0  0  0  0  0  0  0  0  0
    2.2000   -1.7875    0.0000 C   0  0  0  0  0  0  0  0  0  0  0  0
    0.0583    2.7500    0.0000 C   0  0  0  0  0  0  0  0  0  0  0  0
   -2.0875    0.6875    0.0000 C   0  0  0  0  0  0  0  0  0  0  0  0
   -2.0875   -0.9625    0.0000 C   0  0  0  0  0  0  0  0  0  0  0  0
    2.9167   -2.2000    0.0000 C   0  0  0  0  0  0  0  0  0  0  0  0
   -2.8000    0.2750    0.0000 C   0  0  0  0  0  0  0  0  0  0  0  0
   -2.8000   -0.5500    0.0000 C   0  0  0  0  0  0  0  0  0  0  0  0
  2  1  1  0  0  0  0
  3  2  1  0  0  0  0
  4  1  1  0  0  0  0
  5  6  2  0  0  0  0
  5  3  1  0  0  0  0
  6  4  1  0  0  0  0
  7  1  1  0  0  0  0
  8  3  2  0  0  0  0
  9 19  1  0  0  0  0
 10  9  3  0  0  0  0
 11  2  2  0  0  0  0
 12  4  2  0  0  0  0
 13  7  2  0  0  0  0
 14  7  1  0  0  0  0
 15  8  1  0  0  0  0
 16 14  2  0  0  0  0
 16 18  1  0  0  0  0
 17 13  1  0  0  0  0
 18 17  2  0  0  0  0
 19 15  1  0  0  0  0
 20  5  1  0  0  0  0
 21  6  1  0  0  0  0
 22 18  1  0  0  0  0
 23 20  2  0  0  0  0
 24 21  2  0  0  0  0
 24 23  1  0  0  0  0
M  END
> <CdId>
2788

> <Mol Weight>
316.3532

> <Formula>
C20H16N2O2

> <Click_ID>
CLK037D04 __ __ 

$$$$
