CLK047F10
 OpenBabel03181417552D

 24 26  0  0  0  0  0  0  0  0999 V2000
    0.6542   -1.4333    0.0000 N   0  0  0  0  0  0  0  0  0  0  0  0
    1.3667   -1.8458    0.0000 C   0  0  0  0  0  0  0  0  0  0  0  0
   -0.0625    0.6292    0.0000 C   0  0  0  0  0  0  0  0  0  0  0  0
   -0.0625   -0.1958    0.0000 C   0  0  3  0  0  0  0  0  0  0  0  0
    1.3667   -2.6708    0.0000 C   0  0  0  0  0  0  0  0  0  0  0  0
    0.6542   -0.6083    0.0000 C   0  0  0  0  0  0  0  0  0  0  0  0
   -0.7750    1.0417    0.0000 N   0  0  0  0  0  0  0  0  0  0  0  0
   -2.2042    3.5167    0.0000 C   0  0  0  0  0  0  0  0  0  0  0  0
   -2.9208    3.9292    0.0000 C   0  0  0  0  0  0  0  0  0  0  0  0
    2.0333   -3.1542    0.0000 O   0  0  0  0  0  0  0  0  0  0  0  0
    2.0833   -1.4333    0.0000 O   0  0  0  0  0  0  0  0  0  0  0  0
    0.6542    1.0417    0.0000 O   0  0  0  0  0  0  0  0  0  0  0  0
    0.7000   -3.1542    0.0000 C   0  0  0  0  0  0  0  0  0  0  0  0
   -0.7750    1.8667    0.0000 C   0  0  0  0  0  0  0  0  0  0  0  0
    1.7792   -3.9417    0.0000 C   0  0  0  0  0  0  0  0  0  0  0  0
    0.9542   -3.9417    0.0000 C   0  0  0  0  0  0  0  0  0  0  0  0
   -1.4917    3.1042    0.0000 C   0  0  0  0  0  0  0  0  0  0  0  0
   -1.4917    2.2792    0.0000 C   0  0  0  0  0  0  0  0  0  0  0  0
   -0.0625   -1.8458    0.0000 C   0  0  0  0  0  0  0  0  0  0  0  0
   -0.7750   -0.6083    0.0000 C   0  0  0  0  0  0  0  0  0  0  0  0
   -0.7750   -1.4333    0.0000 C   0  0  0  0  0  0  0  0  0  0  0  0
   -0.0625    3.1042    0.0000 C   0  0  0  0  0  0  0  0  0  0  0  0
   -0.0625    2.2792    0.0000 C   0  0  0  0  0  0  0  0  0  0  0  0
   -0.7750    3.5167    0.0000 C   0  0  0  0  0  0  0  0  0  0  0  0
  2  1  1  0  0  0  0
  3  4  1  0  0  0  0
  4  6  1  0  0  0  0
  5  2  1  0  0  0  0
  6  1  1  0  0  0  0
  7  3  1  0  0  0  0
  8 17  1  0  0  0  0
  9  8  3  0  0  0  0
 10  5  1  0  0  0  0
 11  2  2  0  0  0  0
 12  3  2  0  0  0  0
 13  5  2  0  0  0  0
 14  7  1  0  0  0  0
 15 10  1  0  0  0  0
 15 16  2  0  0  0  0
 16 13  1  0  0  0  0
 17 18  1  0  0  0  0
 18 14  2  0  0  0  0
 19  1  1  0  0  0  0
 20  4  1  0  0  0  0
 21 19  1  0  0  0  0
 21 20  1  0  0  0  0
 22 23  2  0  0  0  0
 23 14  1  0  0  0  0
 24 17  2  0  0  0  0
 24 22  1  0  0  0  0
M  END
> <CdId>
3638

> <Mol Weight>
322.3578

> <Formula>
C19H18N2O3

> <Click_ID>
CLK047F10 __ __ 

$$$$
