CLK024_C10
 OpenBabel03181417552D

 30 32  0  0  0  0  0  0  0  0999 V2000
   -0.8496   -1.6647    0.0000 C    0  0  0  0  0  0  0  0  0  0  0  0
   -0.5950   -2.4593    0.0000 N    0  0  0  0  0  0  0  0  0  0  0  0
    0.2202   -2.4593    0.0000 C    0  0  0  0  0  0  0  0  0  0  0  0
    0.4815   -1.6819    0.0000 C    0  0  0  0  0  0  0  0  0  0  0  0
   -0.1823   -1.1901    0.0000 S    0  0  0  0  0  0  0  0  0  0  0  0
   -1.6338   -1.4068    0.0000 N    0  0  0  0  0  0  0  0  0  0  0  0
    1.2726   -1.4308    0.0000 C    0  0  0  0  0  0  0  0  0  0  0  0
    1.8092    0.9837    0.0000 C    0  0  0  0  0  0  0  0  0  0  0  0
    2.4180    0.4196    0.0000 C    0  0  0  0  0  0  0  0  0  0  0  0
    1.0181    0.7326    0.0000 C    0  0  0  0  0  0  0  0  0  0  0  0
    1.4481   -0.6260    0.0000 C    0  0  0  0  0  0  0  0  0  0  0  0
    1.5581    3.1506    0.0000 C    0  0  0  0  0  0  0  0  0  0  0  0
    0.9458    3.7112    0.0000 C    0  0  0  0  0  0  0  0  0  0  0  0
    2.2357   -0.3818    0.0000 C    0  0  0  0  0  0  0  0  0  0  0  0
    0.8427   -0.0757    0.0000 C    0  0  0  0  0  0  0  0  0  0  0  0
    0.7051   -3.1197    0.0000 O    0  0  0  0  0  0  0  0  0  0  0  0
   -1.0834   -3.1300    0.0000 C    0  0  0  0  0  0  0  0  0  0  0  0
   -1.8023   -0.5916    0.0000 C    0  0  0  0  0  0  0  0  0  0  0  0
    0.4059    1.2898    0.0000 Cl   0  0  0  0  0  0  0  0  0  0  0  0
    3.2091    0.6707    0.0000 Br   0  0  0  0  0  0  0  0  0  0  0  0
    1.9846    1.7851    0.0000 O    0  0  0  0  0  0  0  0  0  0  0  0
    1.3792    2.3492    0.0000 C    0  0  0  0  0  0  0  0  0  0  0  0
   -2.3904   -3.7112    0.0000 O    0  0  0  0  0  0  0  0  0  0  0  0
   -1.9021   -3.0440    0.0000 C    0  0  0  0  0  0  0  0  0  0  0  0
   -1.1832   -0.0516    0.0000 C    0  0  0  0  0  0  0  0  0  0  0  0
   -2.5865   -0.3440    0.0000 C    0  0  0  0  0  0  0  0  0  0  0  0
   -3.2125   -3.6218    0.0000 C    0  0  0  0  0  0  0  0  0  0  0  0
   -2.7516    0.4643    0.0000 C    0  0  0  0  0  0  0  0  0  0  0  0
   -1.3483    0.7601    0.0000 C    0  0  0  0  0  0  0  0  0  0  0  0
   -2.1359    1.0215    0.0000 C    0  0  0  0  0  0  0  0  0  0  0  0
  2  1  1  0  0  0  0
  3  2  1  0  0  0  0
  3  4  1  0  0  0  0
  4  5  1  0  0  0  0
  5  1  1  0  0  0  0
  6  1  2  0  0  0  0
  7  4  2  0  0  0  0
  8 10  1  0  0  0  0
  9 14  1  0  0  0  0
  9  8  2  0  0  0  0
 10 15  2  0  0  0  0
 11  7  1  0  0  0  0
 12 22  1  0  0  0  0
 13 12  3  0  0  0  0
 14 11  2  0  0  0  0
 15 11  1  0  0  0  0
 16  3  2  0  0  0  0
 17  2  1  0  0  0  0
 18  6  1  0  0  0  0
 19 10  1  0  0  0  0
 20  9  1  0  0  0  0
 21  8  1  0  0  0  0
 22 21  1  0  0  0  0
 23 24  1  0  0  0  0
 24 17  1  0  0  0  0
 25 18  2  0  0  0  0
 26 18  1  0  0  0  0
 27 23  1  0  0  0  0
 28 26  2  0  0  0  0
 29 25  1  0  0  0  0
 29 30  2  0  0  0  0
 30 28  1  0  0  0  0
M  END
> <CdId>
1805

> <Mol Weight>
505.812

> <Formula>
C22H18BrClN2O3S

> <Click_ID>
CLK024_C10 __ __ 

$$$$
