CLK042F11
 OpenBabel03181417552D

 22 22  0  0  0  0  0  0  0  0999 V2000
   -0.7167   -0.5250    0.0000 S   0  0  0  0  0  0  0  0  0  0  0  0
   -0.7167   -1.3500    0.0000 C   0  0  0  0  0  0  0  0  0  0  0  0
    2.1417    4.4208    0.0000 C   0  0  0  0  0  0  0  0  0  0  0  0
    2.8542    4.8375    0.0000 C   0  0  0  0  0  0  0  0  0  0  0  0
   -1.5417   -0.5250    0.0000 O   0  0  0  0  0  0  0  0  0  0  0  0
    0.1083   -0.5250    0.0000 O   0  0  0  0  0  0  0  0  0  0  0  0
   -0.7167    0.3000    0.0000 N   0  0  0  0  0  0  0  0  0  0  0  0
    0.7125    2.7750    0.0000 C   0  0  0  0  0  0  0  0  0  0  0  0
   -0.7167   -3.0000    0.0000 C   0  0  0  0  0  0  0  0  0  0  0  0
   -0.7167   -3.8250    0.0000 C   0  0  0  0  0  0  0  0  0  0  0  0
    0.0000    3.1875    0.0000 O   0  0  0  0  0  0  0  0  0  0  0  0
    0.0000   -1.7625    0.0000 C   0  0  0  0  0  0  0  0  0  0  0  0
   -1.4292   -1.7625    0.0000 C   0  0  0  0  0  0  0  0  0  0  0  0
    0.0000   -4.2375    0.0000 O   0  0  0  0  0  0  0  0  0  0  0  0
    0.0000   -2.5875    0.0000 C   0  0  0  0  0  0  0  0  0  0  0  0
   -1.4292   -2.5875    0.0000 C   0  0  0  0  0  0  0  0  0  0  0  0
    1.4250    3.1875    0.0000 N   0  0  0  0  0  0  0  0  0  0  0  0
    1.4250    4.0125    0.0000 C   0  0  0  0  0  0  0  0  0  0  0  0
    0.7125    1.9542    0.0000 C   0  0  0  0  0  0  0  0  0  0  0  0
   -1.4292   -4.2375    0.0000 C   0  0  0  0  0  0  0  0  0  0  0  0
    0.0000    0.7125    0.0000 C   0  0  0  0  0  0  0  0  0  0  0  0
    0.0000    1.5375    0.0000 C   0  0  0  0  0  0  0  0  0  0  0  0
  2  1  1  0  0  0  0
  3 18  1  0  0  0  0
  4  3  3  0  0  0  0
  5  1  2  0  0  0  0
  6  1  2  0  0  0  0
  7  1  1  0  0  0  0
  8 19  1  0  0  0  0
  9 16  2  0  0  0  0
 10  9  1  0  0  0  0
 11  8  2  0  0  0  0
 12  2  1  0  0  0  0
 13  2  2  0  0  0  0
 14 10  2  0  0  0  0
 15 12  2  0  0  0  0
 15  9  1  0  0  0  0
 16 13  1  0  0  0  0
 17  8  1  0  0  0  0
 18 17  1  0  0  0  0
 19 22  1  0  0  0  0
 20 10  1  0  0  0  0
 21  7  1  0  0  0  0
 22 21  1  0  0  0  0
M  END
> <CdId>
3246

> <Mol Weight>
322.379

> <Formula>
C15H18N2O4S

> <Click_ID>
CLK042F11 __ __ 

$$$$
