CLK009_F07
 OpenBabel03181417552D

 30 32  0  0  0  0  0  0  0  0999 V2000
   -2.5511    0.1211    0.0000 N    0  0  0  0  0  0  0  0  0  0  0  0
   -2.5287   -0.6994    0.0000 C    0  0  0  0  0  0  0  0  0  0  0  0
   -3.2281   -1.9548    0.0000 C    0  0  0  0  0  0  0  0  0  0  0  0
   -1.7978   -1.0940    0.0000 C    0  0  0  0  0  0  0  0  0  0  0  0
   -3.2281   -1.1298    0.0000 C    0  0  0  0  0  0  0  0  0  0  0  0
   -1.7978   -1.9369    0.0000 C    0  0  0  0  0  0  0  0  0  0  0  0
    1.7262   -0.6322    0.0000 C    0  0  0  0  0  0  0  0  0  0  0  0
    3.2281   -2.2104    0.0000 C    0  0  0  0  0  0  0  0  0  0  0  0
    3.9813   -2.5825    0.0000 C    0  0  0  0  0  0  0  0  0  0  0  0
   -1.8965    0.6142    0.0000 O    0  0  0  0  0  0  0  0  0  0  0  0
   -3.2416    0.5515    0.0000 O    0  0  0  0  0  0  0  0  0  0  0  0
   -2.4973   -2.3449    0.0000 C    0  0  0  0  0  0  0  0  0  0  0  0
    1.0402   -1.0626    0.0000 C    0  0  0  0  0  0  0  0  0  0  0  0
   -3.9275   -2.3718    0.0000 O    0  0  0  0  0  0  0  0  0  0  0  0
   -1.0984   -2.3673    0.0000 O    0  0  0  0  0  0  0  0  0  0  0  0
    1.6724    0.1838    0.0000 O    0  0  0  0  0  0  0  0  0  0  0  0
   -4.6763   -1.1344    0.0000 C    0  0  0  0  0  0  0  0  0  0  0  0
   -4.6494   -1.9772    0.0000 C    0  0  0  0  0  0  0  0  0  0  0  0
    0.3094   -0.6770    0.0000 C    0  0  0  0  0  0  0  0  0  0  0  0
    1.0402   -1.9145    0.0000 C    0  0  0  0  0  0  0  0  0  0  0  0
   -0.4124   -1.9414    0.0000 C    0  0  0  0  0  0  0  0  0  0  0  0
   -5.4026   -0.7532    0.0000 C    0  0  0  0  0  0  0  0  0  0  0  0
    2.4614   -1.0088    0.0000 O    0  0  0  0  0  0  0  0  0  0  0  0
    0.3408   -2.3315    0.0000 C    0  0  0  0  0  0  0  0  0  0  0  0
   -0.3990   -1.1164    0.0000 C    0  0  0  0  0  0  0  0  0  0  0  0
   -5.4026    0.0673    0.0000 Cl   0  0  0  0  0  0  0  0  0  0  0  0
    2.4929   -1.8338    0.0000 C    0  0  0  0  0  0  0  0  0  0  0  0
   -6.0886   -1.9952    0.0000 C    0  0  0  0  0  0  0  0  0  0  0  0
   -5.3622   -2.3853    0.0000 C    0  0  0  0  0  0  0  0  0  0  0  0
   -6.1020   -1.1836    0.0000 C    0  0  0  0  0  0  0  0  0  0  0  0
  2  1  1  0  0  0  0
  3  5  1  0  0  0  0
  4  2  1  0  0  0  0
  5  2  2  0  0  0  0
  6  4  2  0  0  0  0
  7 13  1  0  0  0  0
  8 27  1  0  0  0  0
  9  8  3  0  0  0  0
 10  1  1  0  0  0  0
 11  1  2  0  0  0  0
 12  3  2  0  0  0  0
 12  6  1  0  0  0  0
 13 19  1  0  0  0  0
 14  3  1  0  0  0  0
 15  6  1  0  0  0  0
 16  7  2  0  0  0  0
 17 18  2  0  0  0  0
 18 14  1  0  0  0  0
 19 25  2  0  0  0  0
 20 24  1  0  0  0  0
 20 13  2  0  0  0  0
 21 15  1  0  0  0  0
 22 17  1  0  0  0  0
 22 30  2  0  0  0  0
 23  7  1  0  0  0  0
 24 21  2  0  0  0  0
 25 21  1  0  0  0  0
 26 22  1  0  0  0  0
 27 23  1  0  0  0  0
 28 29  2  0  0  0  0
 29 18  1  0  0  0  0
 30 28  1  0  0  0  0
M  END
> <CdId>
652

> <Mol Weight>
423.803

> <Formula>
C22H14ClNO6

> <Click_ID>
CLK009_F07 __ __ 

$$$$
