CLK001_F04
 OpenBabel03181417552D

 29 33  0  0  0  0  0  0  0  0999 V2000
   -0.5885   -0.5483    0.0000 C   0  0  0  0  0  0  0  0  0  0  0  0
   -1.3195   -0.9763    0.0000 C   0  0  0  0  0  0  0  0  0  0  0  0
   -0.5885    0.2764    0.0000 C   0  0  0  0  0  0  0  0  0  0  0  0
    0.1293   -0.9628    0.0000 C   0  0  0  0  0  0  0  0  0  0  0  0
   -2.0417   -0.5483    0.0000 C   0  0  0  0  0  0  0  0  0  0  0  0
   -0.6821   -1.4042    0.0000 C   0  0  0  0  0  0  0  0  0  0  0  0
   -2.0105   -1.4577    0.0000 C   0  0  0  0  0  0  0  0  0  0  0  0
   -1.3195    0.7177    0.0000 C   0  0  0  0  0  0  0  0  0  0  0  0
    0.1293    0.6910    0.0000 N   0  0  0  0  0  0  0  0  0  0  0  0
    0.8603   -0.5483    0.0000 N   0  0  0  0  0  0  0  0  0  0  0  0
    0.1293   -1.7787    0.0000 O   0  0  0  0  0  0  0  0  0  0  0  0
   -2.0417    0.3032    0.0000 C   0  0  0  0  0  0  0  0  0  0  0  0
   -0.9406   -2.1888    0.0000 C   0  0  0  0  0  0  0  0  0  0  0  0
   -1.7163   -2.1888    0.0000 C   0  0  0  0  0  0  0  0  0  0  0  0
   -1.3195    1.5424    0.0000 C   0  0  0  0  0  0  0  0  0  0  0  0
    0.8603    0.2764    0.0000 C   0  0  0  0  0  0  0  0  0  0  0  0
    1.5692   -0.9495    0.0000 C   0  0  0  0  0  0  0  0  0  0  0  0
   -2.7594    0.7177    0.0000 C   0  0  0  0  0  0  0  0  0  0  0  0
   -2.0417    1.9570    0.0000 C   0  0  0  0  0  0  0  0  0  0  0  0
    1.5692    0.6775    0.0000 S   0  0  0  0  0  0  0  0  0  0  0  0
    2.2645   -0.5349    0.0000 C   0  0  0  0  0  0  0  0  0  0  0  0
   -2.7594    1.5424    0.0000 C   0  0  0  0  0  0  0  0  0  0  0  0
    1.5692    1.4934    0.0000 C   0  0  0  0  0  0  0  0  0  0  0  0
    2.3002    0.2675    0.0000 C   0  0  0  0  0  0  0  0  0  0  0  0
    3.0580   -0.8336    0.0000 C   0  0  0  0  0  0  0  0  0  0  0  0
    0.8693    1.8945    0.0000 C   0  0  0  0  0  0  0  0  0  0  0  0
    3.1026    0.4592    0.0000 C   0  0  0  0  0  0  0  0  0  0  0  0
    3.5484   -0.2006    0.0000 C   0  0  0  0  0  0  0  0  0  0  0  0
    0.1694    2.2913    0.0000 C   0  0  0  0  0  0  0  0  0  0  0  0
  1  2  1  0  0  0  0
  1  3  2  0  0  0  0
  1  4  1  0  0  0  0
  2  5  1  0  0  0  0
  2  6  1  0  0  0  0
  2  7  1  0  0  0  0
  3  8  1  0  0  0  0
  3  9  1  0  0  0  0
  4 10  1  0  0  0  0
  4 11  2  0  0  0  0
  5 12  1  0  0  0  0
  6 13  1  0  0  0  0
  7 14  1  0  0  0  0
  8 15  1  0  0  0  0
  8 12  2  0  0  0  0
  9 16  2  0  0  0  0
 10 17  1  0  0  0  0
 10 16  1  0  0  0  0
 12 18  1  0  0  0  0
 13 14  1  0  0  0  0
 15 19  2  0  0  0  0
 16 20  1  0  0  0  0
 17 21  1  0  0  0  0
 18 22  2  0  0  0  0
 19 22  1  0  0  0  0
 20 23  1  0  0  0  0
 21 24  1  0  0  0  0
 21 25  1  0  0  0  0
 23 26  1  0  0  0  0
 24 27  1  0  0  0  0
 25 28  1  0  0  0  0
 26 29  3  0  0  0  0
 27 28  1  0  0  0  0
M  END
> <CdId>
53

> <Mol Weight>
404.568

> <Formula>
C25H28N2OS

> <Click_ID>
CLK001_F04 __ __ 

$$$$
