CLK005_C09
 OpenBabel03181417552D

 24 26  0  0  0  0  0  0  0  0999 V2000
   -1.5278    0.0076    0.0000 C    0  0  0  0  0  0  0  0  0  0  0  0
   -0.7165    0.1516    0.0000 C    0  0  3  0  0  0  0  0  0  0  0  0
   -1.6454   -0.8037    0.0000 C    0  0  0  0  0  0  0  0  0  0  0  0
   -2.1723    0.5194    0.0000 C    0  0  0  0  0  0  0  0  0  0  0  0
   -0.3261   -0.5800    0.0000 C    0  0  0  0  0  0  0  0  0  0  0  0
    0.2086    0.7772    0.0000 C    0  0  0  0  0  0  0  0  0  0  0  0
   -0.9781    1.0918    0.0000 O    0  0  0  0  0  0  0  0  0  0  0  0
   -0.9060   -1.1677    0.0000 N    0  0  0  0  0  0  0  0  0  0  0  0
   -2.4073   -1.1146    0.0000 C    0  0  0  0  0  0  0  0  0  0  0  0
   -2.9380    0.2123    0.0000 C    0  0  0  0  0  0  0  0  0  0  0  0
    0.4853   -0.6937    0.0000 O    0  0  0  0  0  0  0  0  0  0  0  0
    1.0046    0.3639    0.0000 C    0  0  0  0  0  0  0  0  0  0  0  0
   -0.7658   -1.9789    0.0000 C    0  0  0  0  0  0  0  0  0  0  0  0
   -3.0631   -0.6065    0.0000 C    0  0  0  0  0  0  0  0  0  0  0  0
    1.7022    0.8188    0.0000 C    0  0  0  0  0  0  0  0  0  0  0  0
    1.0350   -0.3222    0.0000 O    0  0  0  0  0  0  0  0  0  0  0  0
   -1.3989   -2.5058    0.0000 C    0  0  0  0  0  0  0  0  0  0  0  0
    1.6643    1.6339    0.0000 C    0  0  0  0  0  0  0  0  0  0  0  0
    2.4300    0.4322    0.0000 C    0  0  0  0  0  0  0  0  0  0  0  0
   -2.0320   -3.0366    0.0000 C    0  0  0  0  0  0  0  0  0  0  0  0
    2.3542    2.0813    0.0000 C    0  0  0  0  0  0  0  0  0  0  0  0
    3.1238    0.8719    0.0000 C    0  0  0  0  0  0  0  0  0  0  0  0
    3.0896    1.6983    0.0000 C    0  0  0  0  0  0  0  0  0  0  0  0
    3.7835    2.1419    0.0000 Cl   0  0  0  0  0  0  0  0  0  0  0  0
  1  2  1  0  0  0  0
  1  3  2  0  0  0  0
  1  4  1  0  0  0  0
  2  5  1  0  0  0  0
  2  6  1  0  0  0  0
  2  7  1  0  0  0  0
  3  8  1  0  0  0  0
  3  9  1  0  0  0  0
  4 10  2  0  0  0  0
  5 11  2  0  0  0  0
  5  8  1  0  0  0  0
  6 12  1  0  0  0  0
  8 13  1  0  0  0  0
  9 14  2  0  0  0  0
 10 14  1  0  0  0  0
 12 15  1  0  0  0  0
 12 16  2  0  0  0  0
 13 17  1  0  0  0  0
 15 18  2  0  0  0  0
 15 19  1  0  0  0  0
 17 20  3  0  0  0  0
 18 21  1  0  0  0  0
 19 22  2  0  0  0  0
 21 23  2  0  0  0  0
 22 23  1  0  0  0  0
 23 24  1  0  0  0  0
M  END
> <CdId>
348

> <Mol Weight>
339.772

> <Formula>
C19H14ClNO3

> <Click_ID>
CLK005_C09 __ __ 

$$$$
