CLK039F05
 OpenBabel03181417552D

 18 19  0  0  0  0  0  0  0  0999 V2000
   -0.1667    0.2542    0.0000 C   0  0  0  0  0  0  0  0  0  0  0  0
    0.6167    0.5125    0.0000 C   0  0  0  0  0  0  0  0  0  0  0  0
    0.6167    1.3375    0.0000 C   0  0  0  0  0  0  0  0  0  0  0  0
   -0.1667    1.5917    0.0000 O   0  0  0  0  0  0  0  0  0  0  0  0
   -0.6542    0.9250    0.0000 C   0  0  0  0  0  0  0  0  0  0  0  0
    1.3333    0.1000    0.0000 C   0  0  0  0  0  0  0  0  0  0  0  0
    1.3333    1.7500    0.0000 C   0  0  0  0  0  0  0  0  0  0  0  0
    2.0458    0.5125    0.0000 C   0  0  0  0  0  0  0  0  0  0  0  0
   -2.5458   -2.4417    0.0000 C   0  0  0  0  0  0  0  0  0  0  0  0
   -2.8000   -3.2250    0.0000 C   0  0  0  0  0  0  0  0  0  0  0  0
    2.0458    1.3375    0.0000 C   0  0  0  0  0  0  0  0  0  0  0  0
   -0.4208   -0.5292    0.0000 C   0  0  0  0  0  0  0  0  0  0  0  0
   -1.2292   -0.7000    0.0000 C   0  0  0  0  0  0  0  0  0  0  0  0
   -1.7833   -0.0875    0.0000 O   0  0  0  0  0  0  0  0  0  0  0  0
   -1.4833   -1.4833    0.0000 N   0  0  0  0  0  0  0  0  0  0  0  0
   -2.2917   -1.6542    0.0000 C   0  0  0  0  0  0  0  0  0  0  0  0
    2.7583    0.1000    0.0000 C   0  0  0  0  0  0  0  0  0  0  0  0
    2.7583    1.7500    0.0000 C   0  0  0  0  0  0  0  0  0  0  0  0
  2  1  1  0  0  0  0
  3  2  1  0  0  0  0
  4  5  1  0  0  0  0
  4  3  1  0  0  0  0
  5  1  2  0  0  0  0
  6  2  2  0  0  0  0
  7  3  2  0  0  0  0
  7 11  1  0  0  0  0
  8  6  1  0  0  0  0
  9 16  1  0  0  0  0
 10  9  3  0  0  0  0
 11  8  2  0  0  0  0
 12  1  1  0  0  0  0
 13 12  1  0  0  0  0
 14 13  2  0  0  0  0
 15 13  1  0  0  0  0
 16 15  1  0  0  0  0
 17  8  1  0  0  0  0
 18 11  1  0  0  0  0
M  END
> <CdId>
2958

> <Mol Weight>
241.2851

> <Formula>
C15H15NO2

> <Click_ID>
CLK039F05 __ __ 

$$$$
