CLK042E07
 OpenBabel03181417552D

 25 26  0  0  0  0  0  0  0  0999 V2000
   -0.3328    1.1568    0.0000 N   0  0  0  0  0  0  0  0  0  0  0  0
    0.1540    1.8227    0.0000 C   0  0  0  0  0  0  0  0  0  0  0  0
    0.9363    1.5688    0.0000 N   0  0  0  0  0  0  0  0  0  0  0  0
    0.1540    0.4911    0.0000 C   0  0  0  0  0  0  0  0  0  0  0  0
    0.9363    0.7449    0.0000 N   0  0  0  0  0  0  0  0  0  0  0  0
   -0.0999    2.6092    0.0000 C   0  0  0  0  0  0  0  0  0  0  0  0
    0.2372   -3.8658    0.0000 C   0  0  0  0  0  0  0  0  0  0  0  0
   -0.0999   -0.2913    0.0000 S   0  0  0  0  0  0  0  0  0  0  0  0
   -0.0167   -4.6523    0.0000 C   0  0  0  0  0  0  0  0  0  0  0  0
    0.1955   -1.6895    0.0000 C   0  0  0  0  0  0  0  0  0  0  0  0
    0.7449   -2.3012    0.0000 N   0  0  0  0  0  0  0  0  0  0  0  0
    0.4911   -3.0835    0.0000 C   0  0  0  0  0  0  0  0  0  0  0  0
   -0.9071    2.7797    0.0000 C   0  0  0  0  0  0  0  0  0  0  0  0
   -0.6117   -1.8601    0.0000 O   0  0  0  0  0  0  0  0  0  0  0  0
    0.4494   -0.9030    0.0000 C   0  0  0  0  0  0  0  0  0  0  0  0
   -1.1568    1.1568    0.0000 C   0  0  0  0  0  0  0  0  0  0  0  0
   -1.1610    3.5621    0.0000 C   0  0  0  0  0  0  0  0  0  0  0  0
    0.4494    3.2208    0.0000 C   0  0  0  0  0  0  0  0  0  0  0  0
    0.1955    3.9990    0.0000 C   0  0  0  0  0  0  0  0  0  0  0  0
    1.2775   -3.3375    0.0000 C   0  0  0  0  0  0  0  0  0  0  0  0
   -0.2913   -2.8297    0.0000 C   0  0  0  0  0  0  0  0  0  0  0  0
   -0.6117    4.1696    0.0000 C   0  0  0  0  0  0  0  0  0  0  0  0
   -1.9683    3.7327    0.0000 C   0  0  0  0  0  0  0  0  0  0  0  0
    1.4482   -4.1446    0.0000 C   0  0  0  0  0  0  0  0  0  0  0  0
   -0.4619   -2.0224    0.0000 C   0  0  0  0  0  0  0  0  0  0  0  0
  2  1  1  0  0  0  0
  3  2  2  0  0  0  0
  3  5  1  0  0  0  0
  4  1  1  0  0  0  0
  5  4  2  0  0  0  0
  6  2  1  0  0  0  0
  7 12  1  0  0  0  0
  8  4  1  0  0  0  0
  9  7  3  0  0  0  0
 10 15  1  0  0  0  0
 11 10  1  0  0  0  0
 12 11  1  0  0  0  0
 13  6  2  0  0  0  0
 14 10  2  0  0  0  0
 15  8  1  0  0  0  0
 16  1  1  0  0  0  0
 17 13  1  0  0  0  0
 18  6  1  0  0  0  0
 19 18  2  0  0  0  0
 20 12  1  0  0  0  0
 21 12  1  0  0  0  0
 22 17  2  0  0  0  0
 22 19  1  0  0  0  0
 23 17  1  0  0  0  0
 24 20  1  0  0  0  0
 25 21  1  0  0  0  0
M  END
> <CdId>
3213

> <Mol Weight>
356.485

> <Formula>
C19H24N4OS

> <Click_ID>
CLK042E07 __ __ 

$$$$
