CLK031_C11
 OpenBabel03181417552D

 29 31  0  0  0  0  0  0  0  0999 V2000
   -1.1648    2.3880    0.0000 C    0  0  0  0  0  0  0  0  0  0  0  0
   -0.3382    2.3797    0.0000 N    0  0  0  0  0  0  0  0  0  0  0  0
   -4.5924    3.2189    0.0000 S    0  0  0  0  0  0  0  0  0  0  0  0
   -1.6491    1.7242    0.0000 N    0  0  0  0  0  0  0  0  0  0  0  0
   -1.6491    3.0560    0.0000 S    0  0  0  0  0  0  0  0  0  0  0  0
    0.0751    3.0936    0.0000 C    0  0  0  0  0  0  0  0  0  0  0  0
    0.9018    3.0936    0.0000 C    0  0  0  0  0  0  0  0  0  0  0  0
    2.5676    1.6616    0.0000 N    0  0  0  0  0  0  0  0  0  0  0  0
   -2.4381    2.8013    0.0000 C    0  0  0  0  0  0  0  0  0  0  0  0
   -2.4381    1.9747    0.0000 C    0  0  0  0  0  0  0  0  0  0  0  0
   -3.8659    2.8013    0.0000 C    0  0  0  0  0  0  0  0  0  0  0  0
    1.3193    2.3672    0.0000 C    0  0  0  0  0  0  0  0  0  0  0  0
   -3.1520    3.2146    0.0000 C    0  0  0  0  0  0  0  0  0  0  0  0
    2.1334    2.3755    0.0000 C    0  0  0  0  0  0  0  0  0  0  0  0
   -1.9496    0.3214    0.0000 C    0  0  0  0  0  0  0  0  0  0  0  0
   -3.1520    1.5614    0.0000 C    0  0  0  0  0  0  0  0  0  0  0  0
   -2.5007   -0.2923    0.0000 C    0  0  0  0  0  0  0  0  0  0  0  0
    1.3193    3.8075    0.0000 C    0  0  0  0  0  0  0  0  0  0  0  0
   -5.0307    2.5133    0.0000 O    0  0  0  0  0  0  0  0  0  0  0  0
   -4.1540    3.9160    0.0000 O    0  0  0  0  0  0  0  0  0  0  0  0
    2.1543    0.9394    0.0000 O    0  0  0  0  0  0  0  0  0  0  0  0
    3.3984    1.6616    0.0000 O    0  0  0  0  0  0  0  0  0  0  0  0
   -0.3382    3.8075    0.0000 O    0  0  0  0  0  0  0  0  0  0  0  0
   -5.2938    3.6530    0.0000 N    0  0  0  0  0  0  0  0  0  0  0  0
   -3.8659    1.9747    0.0000 C    0  0  0  0  0  0  0  0  0  0  0  0
    2.5550    3.0894    0.0000 C    0  0  0  0  0  0  0  0  0  0  0  0
   -1.3986    0.9351    0.0000 C    0  0  0  0  0  0  0  0  0  0  0  0
    2.1459    3.8033    0.0000 C    0  0  0  0  0  0  0  0  0  0  0  0
    0.9060    4.5131    0.0000 Cl   0  0  0  0  0  0  0  0  0  0  0  0
  2  1  2  0  0  0  0
  3 11  1  0  0  0  0
  4  1  1  0  0  0  0
  5  1  1  0  0  0  0
  6  2  1  0  0  0  0
  7  6  1  0  0  0  0
  8 14  1  0  0  0  0
  9  5  1  0  0  0  0
  9 10  2  0  0  0  0
 10  4  1  0  0  0  0
 11 13  2  0  0  0  0
 11 25  1  0  0  0  0
 12  7  2  0  0  0  0
 13  9  1  0  0  0  0
 14 12  1  0  0  0  0
 15 27  1  0  0  0  0
 16 10  1  0  0  0  0
 17 15  3  0  0  0  0
 18  7  1  0  0  0  0
 19  3  2  0  0  0  0
 20  3  2  0  0  0  0
 21  8  1  0  0  0  0
 22  8  2  0  0  0  0
 23  6  2  0  0  0  0
 24  3  1  0  0  0  0
 25 16  2  0  0  0  0
 26 28  1  0  0  0  0
 26 14  2  0  0  0  0
 27  4  1  0  0  0  0
 28 18  2  0  0  0  0
 29 18  1  0  0  0  0
M  END
> <CdId>
2355

> <Mol Weight>
450.876

> <Formula>
C17H11ClN4O5S2

> <Click_ID>
CLK031_C11 __ __ 

$$$$
