CLK038G07
 OpenBabel03181417552D

 30 31  0  0  0  0  0  0  0  0999 V2000
   -0.6667    0.4167    0.0000 C   0  0  0  0  0  0  0  0  0  0  0  0
    0.6042    0.0042    0.0000 N   0  0  0  0  0  0  0  0  0  0  0  0
    0.6042    0.8292    0.0000 N   0  0  0  0  0  0  0  0  0  0  0  0
   -0.1833   -0.2500    0.0000 C   0  0  0  0  0  0  0  0  0  0  0  0
   -0.1833    1.0833    0.0000 C   0  0  0  0  0  0  0  0  0  0  0  0
    6.4208    0.3583    0.0000 C   0  0  0  0  0  0  0  0  0  0  0  0
    6.0083   -0.3542    0.0000 C   0  0  0  0  0  0  0  0  0  0  0  0
   -3.1417    1.8458    0.0000 C   0  0  0  0  0  0  0  0  0  0  0  0
   -3.5542    2.5625    0.0000 C   0  0  0  0  0  0  0  0  0  0  0  0
   -0.4375   -1.0333    0.0000 C   0  0  0  0  0  0  0  0  0  0  0  0
    1.2708    1.3167    0.0000 C   0  0  0  0  0  0  0  0  0  0  0  0
    7.2458    0.3583    0.0000 O   0  0  0  0  0  0  0  0  0  0  0  0
    6.4208   -1.0708    0.0000 O   0  0  0  0  0  0  0  0  0  0  0  0
    0.1167   -1.6458    0.0000 C   0  0  0  0  0  0  0  0  0  0  0  0
   -1.2417   -1.2042    0.0000 C   0  0  0  0  0  0  0  0  0  0  0  0
   -1.4917    0.4167    0.0000 C   0  0  0  0  0  0  0  0  0  0  0  0
    6.0083    1.0750    0.0000 O   0  0  0  0  0  0  0  0  0  0  0  0
    5.1833   -0.3542    0.0000 O   0  0  0  0  0  0  0  0  0  0  0  0
   -1.9042    1.1333    0.0000 N   0  0  0  0  0  0  0  0  0  0  0  0
   -0.1375   -2.4333    0.0000 C   0  0  0  0  0  0  0  0  0  0  0  0
   -1.5000   -1.9917    0.0000 C   0  0  0  0  0  0  0  0  0  0  0  0
   -0.9458   -2.6042    0.0000 C   0  0  0  0  0  0  0  0  0  0  0  0
    2.0250    0.9792    0.0000 C   0  0  0  0  0  0  0  0  0  0  0  0
   -2.7292    1.1333    0.0000 C   0  0  0  0  0  0  0  0  0  0  0  0
   -1.2000   -3.3875    0.0000 C   0  0  0  0  0  0  0  0  0  0  0  0
    2.6917    1.4625    0.0000 C   0  0  0  0  0  0  0  0  0  0  0  0
    2.1125    0.1583    0.0000 C   0  0  0  0  0  0  0  0  0  0  0  0
    2.8625   -0.1750    0.0000 C   0  0  0  0  0  0  0  0  0  0  0  0
    3.4458    1.1292    0.0000 C   0  0  0  0  0  0  0  0  0  0  0  0
    3.5333    0.3083    0.0000 C   0  0  0  0  0  0  0  0  0  0  0  0
  2  4  2  0  0  0  0
  3  5  1  0  0  0  0
  3  2  1  0  0  0  0
  4  1  1  0  0  0  0
  5  1  2  0  0  0  0
  7  6  1  0  0  0  0
  8 24  1  0  0  0  0
  9  8  3  0  0  0  0
 10  4  1  0  0  0  0
 11  3  1  0  0  0  0
 12  6  2  0  0  0  0
 13  7  2  0  0  0  0
 14 10  1  0  0  0  0
 15 10  2  0  0  0  0
 16  1  1  0  0  0  0
 17  6  1  0  0  0  0
 18  7  1  0  0  0  0
 19 16  1  0  0  0  0
 20 14  2  0  0  0  0
 21 15  1  0  0  0  0
 21 22  2  0  0  0  0
 22 20  1  0  0  0  0
 23 11  1  0  0  0  0
 24 19  1  0  0  0  0
 25 22  1  0  0  0  0
 26 23  2  0  0  0  0
 27 23  1  0  0  0  0
 28 27  2  0  0  0  0
 29 26  1  0  0  0  0
 30 29  2  0  0  0  0
 30 28  1  0  0  0  0
M  END
> <CdId>
2895

> <Mol Weight>
405.4464

> <Formula>
C23H23N3O4

> <Click_ID>
CLK038G07 __ __ 

$$$$
