CLK029_B08
 OpenBabel03181417552D

 30 32  0  0  0  0  0  0  0  0999 V2000
   -1.1649    2.3882    0.0000 C   0  0  0  0  0  0  0  0  0  0  0  0
   -0.3382    2.3799    0.0000 N   0  0  0  0  0  0  0  0  0  0  0  0
   -1.6492    1.7244    0.0000 N   0  0  0  0  0  0  0  0  0  0  0  0
   -1.6492    3.0563    0.0000 S   0  0  0  0  0  0  0  0  0  0  0  0
    0.0752    3.0939    0.0000 C   0  0  0  0  0  0  0  0  0  0  0  0
    0.9019    3.0939    0.0000 C   0  0  0  0  0  0  0  0  0  0  0  0
   -2.4383    2.8016    0.0000 C   0  0  0  0  0  0  0  0  0  0  0  0
   -2.4383    1.9749    0.0000 C   0  0  0  0  0  0  0  0  0  0  0  0
    1.3152    2.3799    0.0000 C   0  0  0  0  0  0  0  0  0  0  0  0
   -4.5928    3.2192    0.0000 C   0  0  0  0  0  0  0  0  0  0  0  0
   -3.1523    3.2149    0.0000 C   0  0  0  0  0  0  0  0  0  0  0  0
   -3.8663    2.8016    0.0000 C   0  0  0  0  0  0  0  0  0  0  0  0
   -1.9498    0.3215    0.0000 C   0  0  0  0  0  0  0  0  0  0  0  0
    1.3194    3.8162    0.0000 C   0  0  0  0  0  0  0  0  0  0  0  0
   -3.1523    1.5615    0.0000 C   0  0  0  0  0  0  0  0  0  0  0  0
   -2.5010   -0.2923    0.0000 C   0  0  0  0  0  0  0  0  0  0  0  0
    2.1336    2.3757    0.0000 C   0  0  0  0  0  0  0  0  0  0  0  0
   -0.3382    3.8079    0.0000 O   0  0  0  0  0  0  0  0  0  0  0  0
   -3.8663    1.9749    0.0000 C   0  0  0  0  0  0  0  0  0  0  0  0
   -5.3068    2.8058    0.0000 O   0  0  0  0  0  0  0  0  0  0  0  0
   -1.3987    0.9352    0.0000 C   0  0  0  0  0  0  0  0  0  0  0  0
    2.5595    3.0897    0.0000 C   0  0  0  0  0  0  0  0  0  0  0  0
    2.1461    3.8162    0.0000 C   0  0  0  0  0  0  0  0  0  0  0  0
    0.8810    1.6617    0.0000 O   0  0  0  0  0  0  0  0  0  0  0  0
   -4.5803    4.0376    0.0000 O   0  0  0  0  0  0  0  0  0  0  0  0
    3.3945    3.0772    0.0000 O   0  0  0  0  0  0  0  0  0  0  0  0
   -5.3068    4.4634    0.0000 C   0  0  0  0  0  0  0  0  0  0  0  0
    0.0626    1.6617    0.0000 C   0  0  0  0  0  0  0  0  0  0  0  0
    3.7996    2.3632    0.0000 C   0  0  0  0  0  0  0  0  0  0  0  0
   -5.2985    5.2859    0.0000 C   0  0  0  0  0  0  0  0  0  0  0  0
  2  1  2  0  0  0  0
  3  1  1  0  0  0  0
  4  1  1  0  0  0  0
  5  2  1  0  0  0  0
  6  5  1  0  0  0  0
  7  4  1  0  0  0  0
  7  8  2  0  0  0  0
  8  3  1  0  0  0  0
  9  6  2  0  0  0  0
 10 12  1  0  0  0  0
 11  7  1  0  0  0  0
 12 11  2  0  0  0  0
 12 19  1  0  0  0  0
 13 21  1  0  0  0  0
 14  6  1  0  0  0  0
 15  8  1  0  0  0  0
 16 13  3  0  0  0  0
 17  9  1  0  0  0  0
 17 22  2  0  0  0  0
 18  5  2  0  0  0  0
 19 15  2  0  0  0  0
 20 10  2  0  0  0  0
 21  3  1  0  0  0  0
 22 23  1  0  0  0  0
 23 14  2  0  0  0  0
 24  9  1  0  0  0  0
 25 10  1  0  0  0  0
 26 22  1  0  0  0  0
 27 25  1  0  0  0  0
 28 24  1  0  0  0  0
 29 26  1  0  0  0  0
 30 27  1  0  0  0  0
M  END
> <CdId>
2182

> <Mol Weight>
424.47

> <Formula>
C22H20N2O5S

> <Click_ID>
CLK029_B08 __ __ 

$$$$
