CLK027_B06
 OpenBabel03181417552D

 24 24  0  0  0  0  0  0  0  0999 V2000
   -1.0855   -1.0269    0.0000 C    0  0  0  0  0  0  0  0  0  0  0  0
   -0.3653   -1.4439    0.0000 C    0  0  0  0  0  0  0  0  0  0  0  0
    1.7954   -0.2206    0.0000 C    0  0  0  0  0  0  0  0  0  0  0  0
   -1.7988   -1.4301    0.0000 C    0  0  0  0  0  0  0  0  0  0  0  0
    1.7885   -1.0442    0.0000 C    0  0  0  0  0  0  0  0  0  0  0  0
   -1.0786   -0.2033    0.0000 C    0  0  0  0  0  0  0  0  0  0  0  0
    1.0890    0.1964    0.0000 C    0  0  0  0  0  0  0  0  0  0  0  0
    0.3584   -1.0303    0.0000 C    0  0  0  0  0  0  0  0  0  0  0  0
   -1.0752    0.6306    0.0000 N    0  0  0  0  0  0  0  0  0  0  0  0
    3.9492    0.1792    0.0000 C    0  0  0  0  0  0  0  0  0  0  0  0
    4.6590    0.5927    0.0000 C    0  0  0  0  0  0  0  0  0  0  0  0
    1.0717   -1.4508    0.0000 C    0  0  0  0  0  0  0  0  0  0  0  0
    0.3618   -0.2068    0.0000 C    0  0  0  0  0  0  0  0  0  0  0  0
   -1.8126   -2.2572    0.0000 O    0  0  0  0  0  0  0  0  0  0  0  0
   -2.5122   -1.0063    0.0000 N    0  0  0  0  0  0  0  0  0  0  0  0
    2.4984   -1.4784    0.0000 Cl   0  0  0  0  0  0  0  0  0  0  0  0
    2.5190    0.1930    0.0000 O    0  0  0  0  0  0  0  0  0  0  0  0
    1.0958    1.0235    0.0000 O    0  0  0  0  0  0  0  0  0  0  0  0
    3.2324   -0.2274    0.0000 C    0  0  0  0  0  0  0  0  0  0  0  0
   -3.2358   -1.4129    0.0000 C    0  0  0  0  0  0  0  0  0  0  0  0
    1.8126    1.4301    0.0000 C    0  0  0  0  0  0  0  0  0  0  0  0
   -3.9457   -0.9925    0.0000 C    0  0  0  0  0  0  0  0  0  0  0  0
    1.8195    2.2606    0.0000 C    0  0  0  0  0  0  0  0  0  0  0  0
   -4.6625   -1.4025    0.0000 C    0  0  0  0  0  0  0  0  0  0  0  0
  2  1  2  0  0  0  0
  3  7  2  0  0  0  0
  4  1  1  0  0  0  0
  5 12  2  0  0  0  0
  5  3  1  0  0  0  0
  6  1  1  0  0  0  0
  7 13  1  0  0  0  0
  8  2  1  0  0  0  0
  9  6  3  0  0  0  0
 10 19  1  0  0  0  0
 11 10  3  0  0  0  0
 12  8  1  0  0  0  0
 13  8  2  0  0  0  0
 14  4  2  0  0  0  0
 15  4  1  0  0  0  0
 16  5  1  0  0  0  0
 17  3  1  0  0  0  0
 18  7  1  0  0  0  0
 19 17  1  0  0  0  0
 20 15  1  0  0  0  0
 21 18  1  0  0  0  0
 22 20  1  0  0  0  0
 23 21  1  0  0  0  0
 24 22  1  0  0  0  0
M  END
> <CdId>
2030

> <Mol Weight>
346.808

> <Formula>
C18H19ClN2O3

> <Click_ID>
CLK027_B06 __ __ 

$$$$
