CLK043F02
 OpenBabel03181417552D

 20 20  0  0  0  0  0  0  0  0999 V2000
   -0.2167   -1.4000    0.0000 S   0  0  0  0  0  0  0  0  0  0  0  0
   -0.2167   -0.5750    0.0000 C   0  0  0  0  0  0  0  0  0  0  0  0
   -0.2167   -2.2250    0.0000 N   0  0  0  0  0  0  0  0  0  0  0  0
   -0.2167    1.9000    0.0000 C   0  0  0  0  0  0  0  0  0  0  0  0
    0.6083   -1.4000    0.0000 O   0  0  0  0  0  0  0  0  0  0  0  0
   -1.0417   -1.4000    0.0000 O   0  0  0  0  0  0  0  0  0  0  0  0
    1.2125    3.5500    0.0000 C   0  0  0  0  0  0  0  0  0  0  0  0
    1.9250    3.9625    0.0000 C   0  0  0  0  0  0  0  0  0  0  0  0
   -0.2167    1.0750    0.0000 C   0  0  0  0  0  0  0  0  0  0  0  0
   -0.9292    2.3125    0.0000 O   0  0  0  0  0  0  0  0  0  0  0  0
    0.5000   -0.1625    0.0000 C   0  0  0  0  0  0  0  0  0  0  0  0
   -0.9292   -0.1625    0.0000 C   0  0  0  0  0  0  0  0  0  0  0  0
   -0.9292    0.6625    0.0000 C   0  0  0  0  0  0  0  0  0  0  0  0
    0.5000    0.6625    0.0000 C   0  0  0  0  0  0  0  0  0  0  0  0
    0.5000    2.3125    0.0000 N   0  0  0  0  0  0  0  0  0  0  0  0
    0.5000    3.1375    0.0000 C   0  0  0  0  0  0  0  0  0  0  0  0
   -0.9292   -2.6375    0.0000 C   0  0  0  0  0  0  0  0  0  0  0  0
    0.5000   -2.6375    0.0000 C   0  0  0  0  0  0  0  0  0  0  0  0
   -0.9292   -3.4625    0.0000 C   0  0  0  0  0  0  0  0  0  0  0  0
    0.5000   -3.4625    0.0000 C   0  0  0  0  0  0  0  0  0  0  0  0
  2  1  1  0  0  0  0
  3  1  1  0  0  0  0
  4  9  1  0  0  0  0
  5  1  2  0  0  0  0
  6  1  2  0  0  0  0
  7 16  1  0  0  0  0
  8  7  3  0  0  0  0
  9 13  2  0  0  0  0
  9 14  1  0  0  0  0
 10  4  2  0  0  0  0
 11  2  1  0  0  0  0
 12  2  2  0  0  0  0
 13 12  1  0  0  0  0
 14 11  2  0  0  0  0
 15  4  1  0  0  0  0
 16 15  1  0  0  0  0
 17  3  1  0  0  0  0
 18  3  1  0  0  0  0
 19 17  1  0  0  0  0
 20 18  1  0  0  0  0
M  END
> <CdId>
3254

> <Mol Weight>
294.369

> <Formula>
C14H18N2O3S

> <Click_ID>
CLK043F02 __ __ 

$$$$
