CLK049H09
 OpenBabel03181417552D

 17 18  0  0  0  0  0  0  0  0999 V2000
    0.0833    1.7000    0.0000 N   0  0  0  0  0  0  0  0  0  0  0  0
    0.0833    0.0500    0.0000 C   0  0  3  0  0  0  0  0  0  0  0  0
    0.7958    1.2875    0.0000 C   0  0  0  0  0  0  0  0  0  0  0  0
   -0.6333    0.4625    0.0000 C   0  0  0  0  0  0  0  0  0  0  0  0
   -0.6333    1.2875    0.0000 C   0  0  0  0  0  0  0  0  0  0  0  0
    0.0833   -0.7750    0.0000 C   0  0  0  0  0  0  0  0  0  0  0  0
    1.5125   -2.4250    0.0000 C   0  0  0  0  0  0  0  0  0  0  0  0
    2.2250   -2.8375    0.0000 C   0  0  0  0  0  0  0  0  0  0  0  0
    0.7958    0.4625    0.0000 C   0  0  0  0  0  0  0  0  0  0  0  0
    1.5125    1.7000    0.0000 O   0  0  0  0  0  0  0  0  0  0  0  0
   -0.6333   -1.1875    0.0000 O   0  0  0  0  0  0  0  0  0  0  0  0
    0.7958   -1.1875    0.0000 N   0  0  0  0  0  0  0  0  0  0  0  0
    0.7958   -2.0125    0.0000 C   0  0  0  0  0  0  0  0  0  0  0  0
   -1.3458    0.0500    0.0000 C   0  0  0  0  0  0  0  0  0  0  0  0
   -1.3458    1.7000    0.0000 C   0  0  0  0  0  0  0  0  0  0  0  0
   -2.0625    0.4625    0.0000 C   0  0  0  0  0  0  0  0  0  0  0  0
   -2.0625    1.2875    0.0000 C   0  0  0  0  0  0  0  0  0  0  0  0
  2  4  1  0  0  0  0
  3  1  1  0  0  0  0
  4  5  2  0  0  0  0
  5  1  1  0  0  0  0
  6  2  1  0  0  0  0
  7 13  1  0  0  0  0
  8  7  3  0  0  0  0
  9  3  1  0  0  0  0
  9  2  1  0  0  0  0
 10  3  2  0  0  0  0
 11  6  2  0  0  0  0
 12  6  1  0  0  0  0
 13 12  1  0  0  0  0
 14  4  1  0  0  0  0
 15  5  1  0  0  0  0
 16 14  2  0  0  0  0
 16 17  1  0  0  0  0
 17 15  2  0  0  0  0
M  END
> <CdId>
3792

> <Mol Weight>
228.2466

> <Formula>
C13H12N2O2

> <Click_ID>
CLK049H09 __ __ 

$$$$
