CLK026_C05
 OpenBabel03181417552D

 23 24  0  0  0  0  0  0  0  0999 V2000
   -1.8879   -0.3198    0.0000 N    0  0  0  0  0  0  0  0  0  0  0  0
   -2.3419   -1.0042    0.0000 C    0  0  0  0  0  0  0  0  0  0  0  0
   -1.0867   -0.5330    0.0000 C    0  0  0  0  0  0  0  0  0  0  0  0
   -1.0558   -1.3583    0.0000 C    0  0  0  0  0  0  0  0  0  0  0  0
   -1.8295   -1.6438    0.0000 S    0  0  0  0  0  0  0  0  0  0  0  0
   -0.3267   -1.7400    0.0000 C    0  0  0  0  0  0  0  0  0  0  0  0
    1.7848   -0.4436    0.0000 C    0  0  0  0  0  0  0  0  0  0  0  0
    1.8019   -1.2655    0.0000 C    0  0  0  0  0  0  0  0  0  0  0  0
    1.0626   -0.0447    0.0000 C    0  0  0  0  0  0  0  0  0  0  0  0
    0.3749   -1.2964    0.0000 C    0  0  0  0  0  0  0  0  0  0  0  0
   -1.6644    1.0970    0.0000 C    0  0  0  0  0  0  0  0  0  0  0  0
   -1.1520    1.7435    0.0000 C    0  0  0  0  0  0  0  0  0  0  0  0
   -3.1707   -1.0317    0.0000 O    0  0  0  0  0  0  0  0  0  0  0  0
    1.0970   -1.6954    0.0000 C    0  0  0  0  0  0  0  0  0  0  0  0
   -0.4505   -0.0206    0.0000 O    0  0  0  0  0  0  0  0  0  0  0  0
    0.3576   -0.4642    0.0000 C    0  0  0  0  0  0  0  0  0  0  0  0
   -2.1803    0.4574    0.0000 C    0  0  0  0  0  0  0  0  0  0  0  0
    2.5276   -1.6678    0.0000 Br   0  0  0  0  0  0  0  0  0  0  0  0
    2.4898   -0.0138    0.0000 O    0  0  0  0  0  0  0  0  0  0  0  0
    1.0385    0.7944    0.0000 O    0  0  0  0  0  0  0  0  0  0  0  0
    2.4725    0.8082    0.0000 C    0  0  0  0  0  0  0  0  0  0  0  0
    1.7470    1.2208    0.0000 C    0  0  0  0  0  0  0  0  0  0  0  0
    3.1672    1.2345    0.0000 C    0  0  0  0  0  0  0  0  0  0  0  0
  2  1  1  0  0  0  0
  3  1  1  0  0  0  0
  4  3  1  0  0  0  0
  5  2  1  0  0  0  0
  5  4  1  0  0  0  0
  6  4  2  0  0  0  0
  7  9  2  0  0  0  0
  8 14  2  0  0  0  0
  8  7  1  0  0  0  0
  9 16  1  0  0  0  0
 10  6  1  0  0  0  0
 11 17  1  0  0  0  0
 12 11  3  0  0  0  0
 13  2  2  0  0  0  0
 14 10  1  0  0  0  0
 15  3  2  0  0  0  0
 16 10  2  0  0  0  0
 17  1  1  0  0  0  0
 18  8  1  0  0  0  0
 19  7  1  0  0  0  0
 20  9  1  0  0  0  0
 21 19  1  0  0  0  0
 22 20  1  0  0  0  0
 23 21  1  0  0  0  0
M  END
> <CdId>
1960

> <Mol Weight>
396.256

> <Formula>
C16H14BrNO4S

> <Click_ID>
CLK026_C05 __ __ 

$$$$
