CLK009_C04
 OpenBabel03181417552D

 19 19  0  0  0  0  0  0  0  0999 V2000
   -0.4258    2.4941    0.0000 C   0  0  0  0  0  0  0  0  0  0  0  0
   -1.1355    2.9148    0.0000 C   0  0  0  0  0  0  0  0  0  0  0  0
    4.5624    2.0835    0.0000 C   0  0  0  0  0  0  0  0  0  0  0  0
    4.5624    1.2572    0.0000 N   0  0  0  0  0  0  0  0  0  0  0  0
    1.7084    2.0835    0.0000 C   0  0  0  0  0  0  0  0  0  0  0  0
    5.2924    2.4941    0.0000 O   0  0  0  0  0  0  0  0  0  0  0  0
    1.7084    1.2572    0.0000 O   0  0  0  0  0  0  0  0  0  0  0  0
    3.8324    0.8465    0.0000 C   0  0  0  0  0  0  0  0  0  0  0  0
    1.0088    2.4941    0.0000 O   0  0  0  0  0  0  0  0  0  0  0  0
    2.3928   -0.0051    0.0000 C   0  0  0  0  0  0  0  0  0  0  0  0
    3.8324   -0.0051    0.0000 C   0  0  0  0  0  0  0  0  0  0  0  0
    3.1024    1.2572    0.0000 C   0  0  0  0  0  0  0  0  0  0  0  0
    3.1024   -0.4258    0.0000 C   0  0  0  0  0  0  0  0  0  0  0  0
    2.3928    0.8465    0.0000 C   0  0  0  0  0  0  0  0  0  0  0  0
    0.3042    2.0835    0.0000 C   0  0  0  0  0  0  0  0  0  0  0  0
    3.8527    2.4941    0.0000 C   0  0  0  0  0  0  0  0  0  0  0  0
    2.4384    2.4941    0.0000 C   0  0  0  0  0  0  0  0  0  0  0  0
    3.1481    2.0835    0.0000 C   0  0  0  0  0  0  0  0  0  0  0  0
    1.6881   -0.4258    0.0000 C   0  0  0  0  0  0  0  0  0  0  0  0
  2  1  3  0  0  0  0
  3 16  1  0  0  0  0
  4  3  1  0  0  0  0
  5  9  1  0  0  0  0
  6  3  2  0  0  0  0
  7  5  2  0  0  0  0
  8  4  1  0  0  0  0
  9 15  1  0  0  0  0
 10 14  2  0  0  0  0
 11  8  1  0  0  0  0
 12  8  2  0  0  0  0
 13 11  2  0  0  0  0
 13 10  1  0  0  0  0
 14 12  1  0  0  0  0
 15  1  1  0  0  0  0
 16 18  1  0  0  0  0
 17  5  1  0  0  0  0
 18 17  1  0  0  0  0
 19 10  1  0  0  0  0
M  END
> <CdId>
619

> <Mol Weight>
259.3004

> <Formula>
C15H17NO3

> <Click_ID>
CLK009_C04 __ __ 

$$$$
