CLK049B05
 OpenBabel03181417552D

 24 25  0  0  0  0  0  0  0  0999 V2000
    0.6542    0.2083    0.0000 S   0  0  0  0  0  0  0  0  0  0  0  0
    0.6542    1.0333    0.0000 N   0  0  0  0  0  0  0  0  0  0  0  0
   -0.0625    1.4458    0.0000 C   0  0  3  0  0  0  0  0  0  0  0  0
    0.6542   -3.0917    0.0000 N   0  3  0  0  0  0  0  0  0  0  0  0
   -0.7750    1.0333    0.0000 C   0  0  0  0  0  0  0  0  0  0  0  0
    0.6542   -0.6167    0.0000 C   0  0  0  0  0  0  0  0  0  0  0  0
    1.4792    0.2083    0.0000 O   0  0  0  0  0  0  0  0  0  0  0  0
   -0.1708    0.2083    0.0000 O   0  0  0  0  0  0  0  0  0  0  0  0
    0.6542   -2.2667    0.0000 C   0  0  0  0  0  0  0  0  0  0  0  0
   -2.9208    1.4458    0.0000 C   0  0  0  0  0  0  0  0  0  0  0  0
   -3.6333    1.8583    0.0000 C   0  0  0  0  0  0  0  0  0  0  0  0
   -0.0625   -3.5042    0.0000 O   0  5  0  0  0  0  0  0  0  0  0  0
    1.3667   -3.5042    0.0000 O   0  0  0  0  0  0  0  0  0  0  0  0
   -0.7750    0.2083    0.0000 O   0  0  0  0  0  0  0  0  0  0  0  0
   -0.0625   -1.0292    0.0000 C   0  0  0  0  0  0  0  0  0  0  0  0
    1.3667   -1.0292    0.0000 C   0  0  0  0  0  0  0  0  0  0  0  0
   -0.0625   -1.8542    0.0000 C   0  0  0  0  0  0  0  0  0  0  0  0
    1.3667   -1.8542    0.0000 C   0  0  0  0  0  0  0  0  0  0  0  0
   -1.4917    1.4458    0.0000 N   0  0  0  0  0  0  0  0  0  0  0  0
    1.3667    1.4458    0.0000 C   0  0  0  0  0  0  0  0  0  0  0  0
   -0.0625    2.2708    0.0000 C   0  0  0  0  0  0  0  0  0  0  0  0
   -2.2042    1.0333    0.0000 C   0  0  0  0  0  0  0  0  0  0  0  0
    1.3667    2.2708    0.0000 C   0  0  0  0  0  0  0  0  0  0  0  0
    0.6542    2.6833    0.0000 C   0  0  0  0  0  0  0  0  0  0  0  0
  2  1  1  0  0  0  0
  3  2  1  0  0  0  0
  4  9  1  0  0  0  0
  5  3  1  0  0  0  0
  6  1  1  0  0  0  0
  7  1  2  0  0  0  0
  8  1  2  0  0  0  0
  9 17  2  0  0  0  0
 10 22  1  0  0  0  0
 11 10  3  0  0  0  0
 12  4  1  0  0  0  0
 13  4  2  0  0  0  0
 14  5  2  0  0  0  0
 15  6  2  0  0  0  0
 16  6  1  0  0  0  0
 17 15  1  0  0  0  0
 18 16  2  0  0  0  0
 18  9  1  0  0  0  0
 19  5  1  0  0  0  0
 20  2  1  0  0  0  0
 21  3  1  0  0  0  0
 22 19  1  0  0  0  0
 23 20  1  0  0  0  0
 24 21  1  0  0  0  0
 24 23  1  0  0  0  0
M  END
> <CdId>
3754

> <Mol Weight>
351.378

> <Formula>
C15H17N3O5S

> <Click_ID>
CLK049B05 __ __ 

$$$$
