CLK022_A07
 OpenBabel03181417552D

 23 24  0  0  0  0  0  0  0  0999 V2000
    6.0650    3.0599    0.0000 C   0  0  0  0  0  0  0  0  0  0  0  0
    6.4773    2.3453    0.0000 N   0  0  0  0  0  0  0  0  0  0  0  0
    1.5300    3.7745    0.0000 C   0  0  0  0  0  0  0  0  0  0  0  0
    0.7055    3.7745    0.0000 C   0  0  0  0  0  0  0  0  0  0  0  0
    7.7141    1.6307    0.0000 C   0  0  0  0  0  0  0  0  0  0  0  0
    8.5386    1.6307    0.0000 C   0  0  0  0  0  0  0  0  0  0  0  0
    5.2405    3.0599    0.0000 C   0  0  0  0  0  0  0  0  0  0  0  0
    7.3018    2.3453    0.0000 C   0  0  0  0  0  0  0  0  0  0  0  0
    8.9509    2.3453    0.0000 C   0  0  0  0  0  0  0  0  0  0  0  0
    6.4773    3.7745    0.0000 O   0  0  0  0  0  0  0  0  0  0  0  0
    4.8282    3.7745    0.0000 C   0  0  0  0  0  0  0  0  0  0  0  0
    4.8282    2.3453    0.0000 C   0  0  0  0  0  0  0  0  0  0  0  0
    8.5386    3.0599    0.0000 C   0  0  0  0  0  0  0  0  0  0  0  0
    7.7141    3.0599    0.0000 C   0  0  0  0  0  0  0  0  0  0  0  0
    3.5914    3.0599    0.0000 C   0  0  0  0  0  0  0  0  0  0  0  0
    8.9509    0.9161    0.0000 O   0  0  0  0  0  0  0  0  0  0  0  0
    4.0036    2.3453    0.0000 C   0  0  0  0  0  0  0  0  0  0  0  0
    4.0036    3.7745    0.0000 C   0  0  0  0  0  0  0  0  0  0  0  0
    9.7754    2.3453    0.0000 O   0  0  0  0  0  0  0  0  0  0  0  0
    2.3546    3.7745    0.0000 C   0  0  0  0  0  0  0  0  0  0  0  0
    2.7668    3.0599    0.0000 O   0  0  0  0  0  0  0  0  0  0  0  0
    8.5386    0.2015    0.0000 C   0  0  0  0  0  0  0  0  0  0  0  0
   10.1877    3.0599    0.0000 C   0  0  0  0  0  0  0  0  0  0  0  0
  2  1  1  0  0  0  0
  3 20  1  0  0  0  0
  4  3  3  0  0  0  0
  5  8  2  0  0  0  0
  6  5  1  0  0  0  0
  6  9  2  0  0  0  0
  7  1  1  0  0  0  0
  8  2  1  0  0  0  0
  9 13  1  0  0  0  0
 10  1  2  0  0  0  0
 11  7  2  0  0  0  0
 12  7  1  0  0  0  0
 13 14  2  0  0  0  0
 14  8  1  0  0  0  0
 15 17  1  0  0  0  0
 15 18  2  0  0  0  0
 16  6  1  0  0  0  0
 17 12  2  0  0  0  0
 18 11  1  0  0  0  0
 19  9  1  0  0  0  0
 20 21  1  0  0  0  0
 21 15  1  0  0  0  0
 22 16  1  0  0  0  0
 23 19  1  0  0  0  0
M  END
> <CdId>
1642

> <Mol Weight>
311.3319

> <Formula>
C18H17NO4

> <Click_ID>
CLK022_A07 __ __ 

$$$$
