CLK025_F06
 OpenBabel03181417552D

 23 25  0  0  0  0  0  0  0  0999 V2000
   -0.2419    0.4382    0.0000 C    0  0  3  0  0  0  0  0  0  0  0  0
    0.2279   -0.1963    0.0000 C    0  0  0  0  0  0  0  0  0  0  0  0
   -1.0238    0.1753    0.0000 C    0  0  0  0  0  0  0  0  0  0  0  0
   -0.2419   -0.9081    0.0000 N    0  0  0  0  0  0  0  0  0  0  0  0
   -1.0238   -0.6486    0.0000 C    0  0  0  0  0  0  0  0  0  0  0  0
    0.6100    1.2096    0.0000 C    0  0  0  0  0  0  0  0  0  0  0  0
    1.5707    1.0343    0.0000 C    0  0  0  0  0  0  0  0  0  0  0  0
    2.0721    1.6899    0.0000 C    0  0  0  0  0  0  0  0  0  0  0  0
   -0.4943   -2.3140    0.0000 C    0  0  0  0  0  0  0  0  0  0  0  0
    2.8995    1.6619    0.0000 S    0  0  0  0  0  0  0  0  0  0  0  0
   -1.7460   -1.0623    0.0000 C    0  0  0  0  0  0  0  0  0  0  0  0
   -1.0308   -2.9451    0.0000 C    0  0  0  0  0  0  0  0  0  0  0  0
   -1.7460    0.5925    0.0000 C    0  0  0  0  0  0  0  0  0  0  0  0
    1.0203   -0.2630    0.0000 O    0  0  0  0  0  0  0  0  0  0  0  0
    1.8371    2.4787    0.0000 C    0  0  0  0  0  0  0  0  0  0  0  0
    3.1729    2.4472    0.0000 C    0  0  0  0  0  0  0  0  0  0  0  0
    0.0351   -1.6829    0.0000 C    0  0  0  0  0  0  0  0  0  0  0  0
   -0.6311    1.3112    0.0000 O    0  0  0  0  0  0  0  0  0  0  0  0
    1.8476    0.4523    0.0000 O    0  0  0  0  0  0  0  0  0  0  0  0
    2.5279    2.9486    0.0000 C    0  0  0  0  0  0  0  0  0  0  0  0
   -2.4577    0.1753    0.0000 C    0  0  0  0  0  0  0  0  0  0  0  0
   -2.4577   -0.6486    0.0000 C    0  0  0  0  0  0  0  0  0  0  0  0
   -3.1765    0.5890    0.0000 Br   0  0  0  0  0  0  0  0  0  0  0  0
  2  1  1  0  0  0  0
  3  1  1  0  0  0  0
  4  2  1  0  0  0  0
  5  3  2  0  0  0  0
  5  4  1  0  0  0  0
  6  1  1  0  0  0  0
  7  6  1  0  0  0  0
  8  7  1  0  0  0  0
  9 17  1  0  0  0  0
 10  8  1  0  0  0  0
 11  5  1  0  0  0  0
 12  9  3  0  0  0  0
 13  3  1  0  0  0  0
 14  2  2  0  0  0  0
 15  8  2  0  0  0  0
 16 10  1  0  0  0  0
 16 20  2  0  0  0  0
 17  4  1  0  0  0  0
 18  1  1  0  0  0  0
 19  7  2  0  0  0  0
 20 15  1  0  0  0  0
 21 13  2  0  0  0  0
 22 21  1  0  0  0  0
 22 11  2  0  0  0  0
 23 21  1  0  0  0  0
M  END
> <CdId>
1911

> <Mol Weight>
390.251

> <Formula>
C17H12BrNO3S

> <Click_ID>
CLK025_F06 __ __ 

$$$$
