CLK008_B04
 OpenBabel03181417552D

 27 29  0  0  0  0  0  0  0  0999 V2000
   -0.0413   -1.6259    0.0000 C   0  0  0  0  0  0  0  0  0  0  0  0
   -0.0309   -2.4578    0.0000 C   0  0  0  0  0  0  0  0  0  0  0  0
   -0.6772   -1.1241    0.0000 N   0  0  0  0  0  0  0  0  0  0  0  0
    0.6428   -1.1791    0.0000 O   0  0  0  0  0  0  0  0  0  0  0  0
   -0.7528   -2.8703    0.0000 C   0  0  0  0  0  0  0  0  0  0  0  0
    0.6772   -2.8703    0.0000 C   0  0  0  0  0  0  0  0  0  0  0  0
   -0.3816   -0.3506    0.0000 C   0  0  0  0  0  0  0  0  0  0  0  0
    0.4296   -0.3885    0.0000 C   0  0  0  0  0  0  0  0  0  0  0  0
   -0.7528   -3.6953    0.0000 C   0  0  0  0  0  0  0  0  0  0  0  0
    0.6703   -3.6953    0.0000 C   0  0  0  0  0  0  0  0  0  0  0  0
   -0.8388    0.3472    0.0000 C   0  0  0  0  0  0  0  0  0  0  0  0
    0.9384    0.2682    0.0000 O   0  0  0  0  0  0  0  0  0  0  0  0
   -0.0413   -4.1078    0.0000 C   0  0  0  0  0  0  0  0  0  0  0  0
   -0.4572    1.0828    0.0000 C   0  0  0  0  0  0  0  0  0  0  0  0
   -0.0413   -4.9259    0.0000 O   0  0  0  0  0  0  0  0  0  0  0  0
   -0.9143    1.7806    0.0000 C   0  0  0  0  0  0  0  0  0  0  0  0
    0.3575    1.1309    0.0000 C   0  0  0  0  0  0  0  0  0  0  0  0
    0.6703   -5.3349    0.0000 C   0  0  0  0  0  0  0  0  0  0  0  0
   -0.5397    2.5128    0.0000 C   0  0  0  0  0  0  0  0  0  0  0  0
    0.7391    1.8631    0.0000 C   0  0  0  0  0  0  0  0  0  0  0  0
    0.2819    2.5609    0.0000 C   0  0  0  0  0  0  0  0  0  0  0  0
   -0.9866    3.1968    0.0000 O   0  0  0  0  0  0  0  0  0  0  0  0
    0.6565    3.2965    0.0000 O   0  0  0  0  0  0  0  0  0  0  0  0
   -1.8115    3.1556    0.0000 C   0  0  0  0  0  0  0  0  0  0  0  0
    0.2096    3.9806    0.0000 C   0  0  0  0  0  0  0  0  0  0  0  0
    0.5810    4.7059    0.0000 C   0  0  0  0  0  0  0  0  0  0  0  0
    1.4059    4.7505    0.0000 C   0  0  0  0  0  0  0  0  0  0  0  0
  1  2  1  0  0  0  0
  1  3  2  0  0  0  0
  1  4  1  0  0  0  0
  2  5  2  0  0  0  0
  2  6  1  0  0  0  0
  3  7  1  0  0  0  0
  4  8  1  0  0  0  0
  5  9  1  0  0  0  0
  6 10  2  0  0  0  0
  7 11  2  0  0  0  0
  7  8  1  0  0  0  0
  8 12  2  0  0  0  0
  9 13  2  0  0  0  0
 10 13  1  0  0  0  0
 11 14  1  0  0  0  0
 13 15  1  0  0  0  0
 14 16  1  0  0  0  0
 14 17  2  0  0  0  0
 15 18  1  0  0  0  0
 16 19  2  0  0  0  0
 17 20  1  0  0  0  0
 19 21  1  0  0  0  0
 19 22  1  0  0  0  0
 20 21  2  0  0  0  0
 21 23  1  0  0  0  0
 22 24  1  0  0  0  0
 23 25  1  0  0  0  0
 25 26  1  0  0  0  0
 26 27  3  0  0  0  0
M  END
> <CdId>
568

> <Mol Weight>
363.3634

> <Formula>
C21H17NO5

> <Click_ID>
CLK008_B04 __ __ 

$$$$
