CLK039E06
 OpenBabel03181417552D

 19 20  0  0  0  0  0  0  0  0999 V2000
    0.4875    0.2417    0.0000 S   0  0  0  0  0  0  0  0  0  0  0  0
    1.2000    0.6542    0.0000 C   0  0  0  0  0  0  0  0  0  0  0  0
   -0.2292   -0.1708    0.0000 N   0  0  0  0  0  0  0  0  0  0  0  0
    0.0750    0.9542    0.0000 O   0  0  0  0  0  0  0  0  0  0  0  0
    0.9000   -0.4750    0.0000 O   0  0  0  0  0  0  0  0  0  0  0  0
   -3.0875   -0.9958    0.0000 C   0  0  0  0  0  0  0  0  0  0  0  0
   -1.6583   -0.9958    0.0000 N   0  0  0  0  0  0  0  0  0  0  0  0
   -0.9417    0.2417    0.0000 C   0  0  0  0  0  0  0  0  0  0  0  0
   -0.2292   -0.9958    0.0000 C   0  0  0  0  0  0  0  0  0  0  0  0
   -3.8000   -0.5833    0.0000 C   0  0  0  0  0  0  0  0  0  0  0  0
    1.9167    0.2417    0.0000 C   0  0  0  0  0  0  0  0  0  0  0  0
   -0.9417   -1.4083    0.0000 C   0  0  0  0  0  0  0  0  0  0  0  0
   -1.6583   -0.1708    0.0000 C   0  0  0  0  0  0  0  0  0  0  0  0
   -2.3708   -1.4083    0.0000 C   0  0  0  0  0  0  0  0  0  0  0  0
    1.9167   -0.5833    0.0000 F   0  0  0  0  0  0  0  0  0  0  0  0
    1.2000    1.4792    0.0000 C   0  0  0  0  0  0  0  0  0  0  0  0
    2.6292    0.6542    0.0000 C   0  0  0  0  0  0  0  0  0  0  0  0
    1.9167    1.8917    0.0000 C   0  0  0  0  0  0  0  0  0  0  0  0
    2.6292    1.4792    0.0000 C   0  0  0  0  0  0  0  0  0  0  0  0
  2  1  1  0  0  0  0
  3  1  1  0  0  0  0
  4  1  2  0  0  0  0
  5  1  2  0  0  0  0
  6 14  1  0  0  0  0
  7 12  1  0  0  0  0
  7 13  1  0  0  0  0
  8  3  1  0  0  0  0
  9  3  1  0  0  0  0
 10  6  3  0  0  0  0
 11  2  2  0  0  0  0
 12  9  1  0  0  0  0
 13  8  1  0  0  0  0
 14  7  1  0  0  0  0
 15 11  1  0  0  0  0
 16  2  1  0  0  0  0
 17 11  1  0  0  0  0
 18 16  2  0  0  0  0
 18 19  1  0  0  0  0
 19 17  2  0  0  0  0
M  END
> <CdId>
2965

> <Mol Weight>
282.334

> <Formula>
C13H15FN2O2S

> <Click_ID>
CLK039E06 __ __ 

$$$$
