CLK049A08
 OpenBabel03181417552D

 19 20  0  0  0  0  0  0  0  0999 V2000
   -0.3417   -0.0625    0.0000 C   0  0  0  0  0  0  0  0  0  0  0  0
    1.0875    3.2375    0.0000 C   0  0  0  0  0  0  0  0  0  0  0  0
   -0.3417    0.7625    0.0000 N   0  0  0  0  0  0  0  0  0  0  0  0
    1.0875    4.0583    0.0000 C   0  0  0  0  0  0  0  0  0  0  0  0
   -1.0542   -0.4750    0.0000 N   0  0  0  0  0  0  0  0  0  0  0  0
    0.3750   -0.4750    0.0000 O   0  0  0  0  0  0  0  0  0  0  0  0
    0.3750    1.1750    0.0000 C   0  0  0  0  0  0  0  0  0  0  0  0
    1.0875    2.4125    0.0000 C   0  0  0  0  0  0  0  0  0  0  0  0
   -1.0542   -1.3000    0.0000 C   0  0  0  0  0  0  0  0  0  0  0  0
    0.3750    2.0000    0.0000 C   0  0  0  0  0  0  0  0  0  0  0  0
   -1.0542   -2.9500    0.0000 C   0  0  0  0  0  0  0  0  0  0  0  0
   -0.3417   -1.7125    0.0000 C   0  0  0  0  0  0  0  0  0  0  0  0
   -1.7708   -1.7125    0.0000 C   0  0  0  0  0  0  0  0  0  0  0  0
   -0.3417   -2.5375    0.0000 C   0  0  0  0  0  0  0  0  0  0  0  0
   -1.7708   -2.5375    0.0000 C   0  0  0  0  0  0  0  0  0  0  0  0
    1.8042    1.1750    0.0000 C   0  0  0  0  0  0  0  0  0  0  0  0
    1.0875    0.7625    0.0000 C   0  0  0  0  0  0  0  0  0  0  0  0
    1.8042    2.0000    0.0000 C   0  0  0  0  0  0  0  0  0  0  0  0
   -1.0542   -3.7750    0.0000 C   0  0  0  0  0  0  0  0  0  0  0  0
  2  8  1  0  0  0  0
  3  1  1  0  0  0  0
  4  2  3  0  0  0  0
  5  1  1  0  0  0  0
  6  1  2  0  0  0  0
  7  3  1  0  0  0  0
  8 10  1  0  0  0  0
  9  5  1  0  0  0  0
 10  7  2  0  0  0  0
 11 15  2  0  0  0  0
 12  9  1  0  0  0  0
 13  9  2  0  0  0  0
 14 12  2  0  0  0  0
 14 11  1  0  0  0  0
 15 13  1  0  0  0  0
 16 17  2  0  0  0  0
 17  7  1  0  0  0  0
 18  8  2  0  0  0  0
 18 16  1  0  0  0  0
 19 11  1  0  0  0  0
M  END
> <CdId>
3777

> <Mol Weight>
250.2952

> <Formula>
C16H14N2O

> <Click_ID>
CLK049A08 __ __ 

$$$$
