CLK007_D08
 OpenBabel03181417552D

 24 26  0  0  0  0  0  0  0  0999 V2000
    0.0346   -0.3662    0.0000 C   0  0  0  0  0  0  0  0  0  0  0  0
    0.7498    0.0449    0.0000 C   0  0  3  0  0  0  0  0  0  0  0  0
    0.0346   -1.1852    0.0000 C   0  0  0  0  0  0  0  0  0  0  0  0
   -0.6773    0.0553    0.0000 C   0  0  0  0  0  0  0  0  0  0  0  0
    0.7498    0.8708    0.0000 C   0  0  0  0  0  0  0  0  0  0  0  0
    1.4651   -0.3593    0.0000 C   0  0  0  0  0  0  0  0  0  0  0  0
   -0.6773   -1.5999    0.0000 N   0  0  0  0  0  0  0  0  0  0  0  0
    0.7498   -1.5999    0.0000 N   0  0  0  0  0  0  0  0  0  0  0  0
   -1.3821   -0.3662    0.0000 N   0  0  0  0  0  0  0  0  0  0  0  0
   -0.6773    0.8811    0.0000 O   0  0  0  0  0  0  0  0  0  0  0  0
    1.4651    1.2854    0.0000 C   0  0  0  0  0  0  0  0  0  0  0  0
    0.0346    1.2819    0.0000 C   0  0  0  0  0  0  0  0  0  0  0  0
    1.4651   -1.1852    0.0000 C   0  0  0  0  0  0  0  0  0  0  0  0
   -1.3821   -1.1955    0.0000 C   0  0  0  0  0  0  0  0  0  0  0  0
    1.4582    2.1112    0.0000 C   0  0  0  0  0  0  0  0  0  0  0  0
    2.2598    1.0712    0.0000 O   0  0  0  0  0  0  0  0  0  0  0  0
    0.0241    2.1009    0.0000 C   0  0  0  0  0  0  0  0  0  0  0  0
    2.1768   -1.5999    0.0000 O   0  0  0  0  0  0  0  0  0  0  0  0
   -2.1077   -1.6067    0.0000 S   0  0  0  0  0  0  0  0  0  0  0  0
    0.7463    2.5223    0.0000 C   0  0  0  0  0  0  0  0  0  0  0  0
    2.6675    0.3593    0.0000 C   0  0  0  0  0  0  0  0  0  0  0  0
   -2.8195   -1.1955    0.0000 C   0  0  0  0  0  0  0  0  0  0  0  0
   -2.8195   -0.3662    0.0000 C   0  0  0  0  0  0  0  0  0  0  0  0
   -3.5348    0.0449    0.0000 C   0  0  0  0  0  0  0  0  0  0  0  0
  1  2  1  0  0  0  0
  1  3  2  0  0  0  0
  1  4  1  0  0  0  0
  2  5  1  0  0  0  0
  2  6  1  0  0  0  0
  3  7  1  0  0  0  0
  3  8  1  0  0  0  0
  4  9  1  0  0  0  0
  4 10  2  0  0  0  0
  5 11  2  0  0  0  0
  5 12  1  0  0  0  0
  6 13  1  0  0  0  0
  7 14  2  0  0  0  0
  8 13  1  0  0  0  0
  9 14  1  0  0  0  0
 11 15  1  0  0  0  0
 11 16  1  0  0  0  0
 12 17  2  0  0  0  0
 13 18  2  0  0  0  0
 14 19  1  0  0  0  0
 15 20  2  0  0  0  0
 16 21  1  0  0  0  0
 17 20  1  0  0  0  0
 19 22  1  0  0  0  0
 22 23  1  0  0  0  0
 23 24  3  0  0  0  0
M  END
> <CdId>
517

> <Mol Weight>
341.384

> <Formula>
C17H15N3O3S

> <Click_ID>
CLK007_D08 __ __ 

$$$$
