CLK037A06
 OpenBabel03181417552D

 33 35  0  0  0  0  0  0  0  0999 V2000
    2.9208   -0.3083    0.0000 S    0  0  0  0  0  0  0  0  0  0  0  0
    3.6333   -0.7208    0.0000 N    0  0  0  0  0  0  0  0  0  0  0  0
   -3.5125    0.1042    0.0000 C    0  0  0  0  0  0  0  0  0  0  0  0
   -3.5125    0.9292    0.0000 C    0  0  0  0  0  0  0  0  0  0  0  0
   -2.7958   -0.3083    0.0000 C    0  0  0  0  0  0  0  0  0  0  0  0
    2.2042    0.1042    0.0000 C    0  0  0  0  0  0  0  0  0  0  0  0
   -0.6542    0.9292    0.0000 C    0  0  0  0  0  0  0  0  0  0  0  0
    2.5083   -1.0250    0.0000 O    0  0  0  0  0  0  0  0  0  0  0  0
    3.3333    0.4042    0.0000 O    0  0  0  0  0  0  0  0  0  0  0  0
   -5.6542   -0.3083    0.0000 C    0  0  0  0  0  0  0  0  0  0  0  0
   -6.3667   -0.7208    0.0000 C    0  0  0  0  0  0  0  0  0  0  0  0
    0.0625    1.3417    0.0000 C    0  0  0  0  0  0  0  0  0  0  0  0
   -1.3667    1.3417    0.0000 C    0  0  0  0  0  0  0  0  0  0  0  0
   -2.0833    0.9292    0.0000 C    0  0  0  0  0  0  0  0  0  0  0  0
   -2.7958    1.3417    0.0000 C    0  0  0  0  0  0  0  0  0  0  0  0
   -2.0833    0.1042    0.0000 C    0  0  0  0  0  0  0  0  0  0  0  0
    0.7750    0.9292    0.0000 C    0  0  0  0  0  0  0  0  0  0  0  0
    2.2042    0.9292    0.0000 C    0  0  0  0  0  0  0  0  0  0  0  0
    1.4917   -0.3083    0.0000 C    0  0  0  0  0  0  0  0  0  0  0  0
    0.0625    2.1667    0.0000 O    0  0  0  0  0  0  0  0  0  0  0  0
    1.4917    1.3417    0.0000 C    0  0  0  0  0  0  0  0  0  0  0  0
    0.7750    0.1042    0.0000 C    0  0  0  0  0  0  0  0  0  0  0  0
   -4.2250    1.3417    0.0000 Cl   0  0  0  0  0  0  0  0  0  0  0  0
   -4.2250   -0.3083    0.0000 O    0  0  0  0  0  0  0  0  0  0  0  0
   -2.7958   -1.1333    0.0000 O    0  0  0  0  0  0  0  0  0  0  0  0
    4.3167   -0.2583    0.0000 C    0  0  0  0  0  0  0  0  0  0  0  0
    3.5708   -1.5458    0.0000 C    0  0  0  0  0  0  0  0  0  0  0  0
   -4.9417    0.1042    0.0000 C    0  0  0  0  0  0  0  0  0  0  0  0
   -2.0833   -1.5458    0.0000 C    0  0  0  0  0  0  0  0  0  0  0  0
    5.1042   -0.5000    0.0000 C    0  0  0  0  0  0  0  0  0  0  0  0
    4.1750   -2.1042    0.0000 C    0  0  0  0  0  0  0  0  0  0  0  0
    4.9917   -1.9833    0.0000 C    0  0  0  0  0  0  0  0  0  0  0  0
    5.4042   -1.2667    0.0000 C    0  0  0  0  0  0  0  0  0  0  0  0
  2  1  1  0  0  0  0
  3  4  1  0  0  0  0
  3  5  2  0  0  0  0
  4 15  2  0  0  0  0
  5 16  1  0  0  0  0
  6  1  1  0  0  0  0
  7 12  1  0  0  0  0
  8  1  2  0  0  0  0
  9  1  2  0  0  0  0
 10 28  1  0  0  0  0
 11 10  3  0  0  0  0
 12 17  1  0  0  0  0
 13  7  2  0  0  0  0
 14 13  1  0  0  0  0
 15 14  1  0  0  0  0
 16 14  2  0  0  0  0
 17 21  2  0  0  0  0
 18  6  2  0  0  0  0
 19  6  1  0  0  0  0
 20 12  2  0  0  0  0
 21 18  1  0  0  0  0
 22 19  2  0  0  0  0
 22 17  1  0  0  0  0
 23  4  1  0  0  0  0
 24  3  1  0  0  0  0
 25  5  1  0  0  0  0
 26  2  1  0  0  0  0
 27  2  1  0  0  0  0
 28 24  1  0  0  0  0
 29 25  1  0  0  0  0
 30 26  1  0  0  0  0
 31 27  1  0  0  0  0
 32 31  1  0  0  0  0
 33 30  1  0  0  0  0
 33 32  1  0  0  0  0
M  END
> <CdId>
2801

> <Mol Weight>
487.996

> <Formula>
C25H26ClNO5S

> <Click_ID>
CLK037A06 __ __ 

$$$$
