CLK009_B11
 OpenBabel03181417552D

 17 17  0  0  0  0  0  0  0  0999 V2000
   -3.1758    0.0778    0.0000 C   0  0  0  0  0  0  0  0  0  0  0  0
   -2.7088   -0.6111    0.0000 N   0  0  0  0  0  0  0  0  0  0  0  0
   -2.7088    0.7317    0.0000 N   0  0  0  0  0  0  0  0  0  0  0  0
   -4.4562    0.8056    0.0000 N   0  3  0  0  0  0  0  0  0  0  0  0
   -4.0165    0.0778    0.0000 N   0  0  0  0  0  0  0  0  0  0  0  0
   -1.9109   -0.3736    0.0000 C   0  0  3  0  0  0  0  0  0  0  0  0
   -1.9109    0.4865    0.0000 C   0  0  3  0  0  0  0  0  0  0  0  0
    0.2335   -0.7979    0.0000 C   0  0  0  0  0  0  0  0  0  0  0  0
    0.2218    0.9185    0.0000 C   0  0  0  0  0  0  0  0  0  0  0  0
    0.9224    1.3388    0.0000 C   0  0  0  0  0  0  0  0  0  0  0  0
    0.9341   -1.2143    0.0000 C   0  0  0  0  0  0  0  0  0  0  0  0
   -4.0165    1.5139    0.0000 O   0  5  0  0  0  0  0  0  0  0  0  0
   -5.2891    0.8056    0.0000 O   0  0  0  0  0  0  0  0  0  0  0  0
   -1.1987   -0.7823    0.0000 O   0  0  0  0  0  0  0  0  0  0  0  0
   -1.1987    0.8990    0.0000 O   0  0  0  0  0  0  0  0  0  0  0  0
   -0.4787    0.4981    0.0000 C   0  0  0  0  0  0  0  0  0  0  0  0
   -0.4787   -0.3775    0.0000 C   0  0  0  0  0  0  0  0  0  0  0  0
  2  1  1  0  0  0  0
  3  1  1  0  0  0  0
  4  5  1  0  0  0  0
  5  1  2  0  0  0  0
  6  2  1  0  0  0  0
  6  7  1  0  0  0  0
  7  3  1  0  0  0  0
  8 17  1  0  0  0  0
  9 16  1  0  0  0  0
 10  9  3  0  0  0  0
 11  8  3  0  0  0  0
 12  4  1  0  0  0  0
 13  4  2  0  0  0  0
 14  6  1  0  0  0  0
 15  7  1  0  0  0  0
 16 15  1  0  0  0  0
 17 14  1  0  0  0  0
M  END
> <CdId>
616

> <Mol Weight>
238.2001

> <Formula>
C9H10N4O4

> <Click_ID>
CLK009_B11 __ __ 

$$$$
