CLK044G05
 OpenBabel03181417552D

 21 22  0  0  0  0  0  0  0  0999 V2000
   -0.0375    1.4708    0.0000 C   0  0  0  0  0  0  0  0  0  0  0  0
    0.2167    0.6833    0.0000 N   0  0  0  0  0  0  0  0  0  0  0  0
   -0.4500    0.2000    0.0000 C   0  0  0  0  0  0  0  0  0  0  0  0
   -1.1167    0.6833    0.0000 S   0  0  0  0  0  0  0  0  0  0  0  0
   -0.8625    1.4708    0.0000 C   0  0  0  0  0  0  0  0  0  0  0  0
    0.4500    2.1375    0.0000 C   0  0  0  0  0  0  0  0  0  0  0  0
   -0.4500   -0.6250    0.0000 C   0  0  0  0  0  0  0  0  0  0  0  0
    2.5750    2.6333    0.0000 C   0  0  0  0  0  0  0  0  0  0  0  0
   -1.1625   -1.0375    0.0000 C   0  0  0  0  0  0  0  0  0  0  0  0
    3.3958    2.5458    0.0000 C   0  0  0  0  0  0  0  0  0  0  0  0
   -1.1625   -1.8625    0.0000 C   0  0  0  0  0  0  0  0  0  0  0  0
   -0.4500   -2.2750    0.0000 C   0  0  0  0  0  0  0  0  0  0  0  0
    0.1125    2.8917    0.0000 O   0  0  0  0  0  0  0  0  0  0  0  0
    0.2667   -1.0375    0.0000 C   0  0  0  0  0  0  0  0  0  0  0  0
    0.2667   -1.8625    0.0000 C   0  0  0  0  0  0  0  0  0  0  0  0
    1.2667    2.0500    0.0000 N   0  0  0  0  0  0  0  0  0  0  0  0
   -1.8792   -2.2750    0.0000 O   0  0  0  0  0  0  0  0  0  0  0  0
    1.7542    2.7167    0.0000 C   0  0  0  0  0  0  0  0  0  0  0  0
   -0.4500   -3.1000    0.0000 O   0  0  0  0  0  0  0  0  0  0  0  0
   -2.5917   -1.8625    0.0000 C   0  0  0  0  0  0  0  0  0  0  0  0
    0.2667   -3.5125    0.0000 C   0  0  0  0  0  0  0  0  0  0  0  0
  2  1  1  0  0  0  0
  3  2  2  0  0  0  0
  4  5  1  0  0  0  0
  4  3  1  0  0  0  0
  5  1  2  0  0  0  0
  6  1  1  0  0  0  0
  7  3  1  0  0  0  0
  8 18  1  0  0  0  0
  9  7  2  0  0  0  0
 10  8  3  0  0  0  0
 11  9  1  0  0  0  0
 12 11  2  0  0  0  0
 13  6  2  0  0  0  0
 14  7  1  0  0  0  0
 15 14  2  0  0  0  0
 15 12  1  0  0  0  0
 16  6  1  0  0  0  0
 17 11  1  0  0  0  0
 18 16  1  0  0  0  0
 19 12  1  0  0  0  0
 20 17  1  0  0  0  0
 21 19  1  0  0  0  0
M  END
> <CdId>
3359

> <Mol Weight>
302.348

> <Formula>
C15H14N2O3S

> <Click_ID>
CLK044G05 __ __ 

$$$$
