CLK028_A08
 OpenBabel03181417552D

 29 31  0  0  0  0  0  0  0  0999 V2000
    2.4930    0.0000    0.0000 N   0  0  0  0  0  0  0  0  0  0  0  0
    3.2152    0.3989    0.0000 C   0  0  0  0  0  0  0  0  0  0  0  0
    1.7985    0.3989    0.0000 C   0  0  0  0  0  0  0  0  0  0  0  0
    1.7985    1.2345    0.0000 C   0  0  0  0  0  0  0  0  0  0  0  0
    3.2152    1.2345    0.0000 N   0  0  0  0  0  0  0  0  0  0  0  0
    2.4930    1.6437    0.0000 C   0  0  0  0  0  0  0  0  0  0  0  0
    2.4930   -0.8321    0.0000 C   0  0  0  0  0  0  0  0  0  0  0  0
    1.0763    1.6437    0.0000 C   0  0  0  0  0  0  0  0  0  0  0  0
    3.9236   -0.0103    0.0000 S   0  0  0  0  0  0  0  0  0  0  0  0
   -3.2186   -0.0344    0.0000 C   0  0  0  0  0  0  0  0  0  0  0  0
    1.0763   -0.0103    0.0000 O   0  0  0  0  0  0  0  0  0  0  0  0
   -3.9270   -0.4471    0.0000 C   0  0  0  0  0  0  0  0  0  0  0  0
   -1.0797    1.2105    0.0000 C   0  0  0  0  0  0  0  0  0  0  0  0
    2.4930    2.4793    0.0000 O   0  0  0  0  0  0  0  0  0  0  0  0
    0.3645    1.2208    0.0000 C   0  0  0  0  0  0  0  0  0  0  0  0
    3.2152   -1.2311    0.0000 C   0  0  0  0  0  0  0  0  0  0  0  0
   -0.3576    1.6334    0.0000 C   0  0  0  0  0  0  0  0  0  0  0  0
   -1.0660    0.3885    0.0000 C   0  0  0  0  0  0  0  0  0  0  0  0
   -0.3576   -0.0241    0.0000 C   0  0  0  0  0  0  0  0  0  0  0  0
    0.3645    0.3989    0.0000 C   0  0  0  0  0  0  0  0  0  0  0  0
    3.9236   -0.8321    0.0000 F   0  0  0  0  0  0  0  0  0  0  0  0
   -1.7882    1.6196    0.0000 O   0  0  0  0  0  0  0  0  0  0  0  0
   -1.7882   -0.0241    0.0000 O   0  0  0  0  0  0  0  0  0  0  0  0
   -2.4965    0.3885    0.0000 C   0  0  0  0  0  0  0  0  0  0  0  0
    1.7847   -1.2311    0.0000 C   0  0  0  0  0  0  0  0  0  0  0  0
    3.2048   -2.0632    0.0000 C   0  0  0  0  0  0  0  0  0  0  0  0
   -1.7915    2.4415    0.0000 C   0  0  0  0  0  0  0  0  0  0  0  0
    1.7847   -2.0632    0.0000 C   0  0  0  0  0  0  0  0  0  0  0  0
    2.4930   -2.4759    0.0000 C   0  0  0  0  0  0  0  0  0  0  0  0
  2  1  1  0  0  0  0
  3  1  1  0  0  0  0
  4  3  1  0  0  0  0
  5  2  1  0  0  0  0
  5  6  1  0  0  0  0
  6  4  1  0  0  0  0
  7  1  1  0  0  0  0
  8  4  2  0  0  0  0
  9  2  2  0  0  0  0
 10 24  1  0  0  0  0
 11  3  2  0  0  0  0
 12 10  3  0  0  0  0
 13 17  2  0  0  0  0
 13 18  1  0  0  0  0
 14  6  2  0  0  0  0
 15  8  1  0  0  0  0
 16  7  1  0  0  0  0
 17 15  1  0  0  0  0
 18 19  2  0  0  0  0
 19 20  1  0  0  0  0
 20 15  2  0  0  0  0
 21 16  1  0  0  0  0
 22 13  1  0  0  0  0
 23 18  1  0  0  0  0
 24 23  1  0  0  0  0
 25  7  2  0  0  0  0
 26 16  2  0  0  0  0
 27 22  1  0  0  0  0
 28 25  1  0  0  0  0
 29 28  2  0  0  0  0
 29 26  1  0  0  0  0
M  END
> <CdId>
2092

> <Mol Weight>
410.418

> <Formula>
C21H15FN2O4S

> <Click_ID>
CLK028_A08 __ __ 

$$$$
