CLK024_F05
 OpenBabel03181417552D

 32 34  0  0  0  0  0  0  0  0999 V2000
   -1.7956   -3.1345    0.0000 N   0  0  0  0  0  0  0  0  0  0  0  0
   -1.5381   -3.9276    0.0000 C   0  0  0  0  0  0  0  0  0  0  0  0
   -1.1295   -2.6573    0.0000 C   0  0  0  0  0  0  0  0  0  0  0  0
   -0.4875   -3.1688    0.0000 C   0  0  0  0  0  0  0  0  0  0  0  0
   -0.7175   -3.9276    0.0000 S   0  0  0  0  0  0  0  0  0  0  0  0
    0.6592   -0.4257    0.0000 C   0  0  0  0  0  0  0  0  0  0  0  0
    0.2849   -2.8598    0.0000 C   0  0  0  0  0  0  0  0  0  0  0  0
    1.2943   -0.9407    0.0000 C   0  0  0  0  0  0  0  0  0  0  0  0
   -0.1133   -0.7175    0.0000 C   0  0  0  0  0  0  0  0  0  0  0  0
    0.4051   -2.0496    0.0000 C   0  0  0  0  0  0  0  0  0  0  0  0
    0.7828    0.3914    0.0000 O   0  0  0  0  0  0  0  0  0  0  0  0
    2.2282    3.9207    0.0000 C   0  0  0  0  0  0  0  0  0  0  0  0
   -2.7226   -1.9260    0.0000 C   0  0  0  0  0  0  0  0  0  0  0  0
   -2.9422   -1.1295    0.0000 C   0  0  0  0  0  0  0  0  0  0  0  0
   -2.1320   -4.5147    0.0000 O   0  0  0  0  0  0  0  0  0  0  0  0
    1.1776   -1.7509    0.0000 C   0  0  0  0  0  0  0  0  0  0  0  0
   -0.9991   -1.8333    0.0000 O   0  0  0  0  0  0  0  0  0  0  0  0
   -0.2369   -1.5415    0.0000 C   0  0  0  0  0  0  0  0  0  0  0  0
    2.0187    3.1276    0.0000 C   0  0  0  0  0  0  0  0  0  0  0  0
   -2.5063   -2.7226    0.0000 C   0  0  0  0  0  0  0  0  0  0  0  0
    1.6445    4.5147    0.0000 O   0  0  0  0  0  0  0  0  0  0  0  0
    2.6608    2.6161    0.0000 C   0  0  0  0  0  0  0  0  0  0  0  0
    1.2565    2.8358    0.0000 C   0  0  0  0  0  0  0  0  0  0  0  0
    2.0668   -0.6386    0.0000 I   0  0  0  0  0  0  0  0  0  0  0  0
    1.5552    0.6969    0.0000 C   0  0  0  0  0  0  0  0  0  0  0  0
    2.9388    4.3396    0.0000 O   0  0  0  0  0  0  0  0  0  0  0  0
   -0.7484   -0.2060    0.0000 O   0  0  0  0  0  0  0  0  0  0  0  0
    1.7681    1.5003    0.0000 C   0  0  0  0  0  0  0  0  0  0  0  0
    1.1295    2.0153    0.0000 C   0  0  0  0  0  0  0  0  0  0  0  0
    2.5372    1.7990    0.0000 C   0  0  0  0  0  0  0  0  0  0  0  0
   -1.5106   -0.4944    0.0000 C   0  0  0  0  0  0  0  0  0  0  0  0
   -2.1458    0.0171    0.0000 C   0  0  0  0  0  0  0  0  0  0  0  0
  2  1  1  0  0  0  0
  3  1  1  0  0  0  0
  4  3  1  0  0  0  0
  5  2  1  0  0  0  0
  5  4  1  0  0  0  0
  6  9  2  0  0  0  0
  6  8  1  0  0  0  0
  7  4  2  0  0  0  0
  8 16  2  0  0  0  0
  9 18  1  0  0  0  0
 10  7  1  0  0  0  0
 11  6  1  0  0  0  0
 12 19  1  0  0  0  0
 13 20  1  0  0  0  0
 14 13  3  0  0  0  0
 15  2  2  0  0  0  0
 16 10  1  0  0  0  0
 17  3  2  0  0  0  0
 18 10  2  0  0  0  0
 19 22  2  0  0  0  0
 20  1  1  0  0  0  0
 21 12  2  0  0  0  0
 22 30  1  0  0  0  0
 23 29  2  0  0  0  0
 23 19  1  0  0  0  0
 24  8  1  0  0  0  0
 25 11  1  0  0  0  0
 26 12  1  0  0  0  0
 27  9  1  0  0  0  0
 28 25  1  0  0  0  0
 29 28  1  0  0  0  0
 30 28  2  0  0  0  0
 31 27  1  0  0  0  0
 32 31  1  0  0  0  0
M  END
> <CdId>
1830

> <Mol Weight>
563.362

> <Formula>
C23H18INO6S

> <Click_ID>
CLK024_F05 __ __ 

$$$$
