CLK005_B09
 OpenBabel03181417552D

 33 36  0  0  0  0  0  0  0  0999 V2000
    0.0379    0.5411    0.0000 C   0  0  3  0  0  0  0  0  0  0  0  0
   -0.6887    0.9536    0.0000 C   0  0  0  0  0  0  0  0  0  0  0  0
    0.7493    0.9536    0.0000 C   0  0  0  0  0  0  0  0  0  0  0  0
    0.0379   -0.2800    0.0000 C   0  0  0  0  0  0  0  0  0  0  0  0
   -0.6887    1.7747    0.0000 C   0  0  0  0  0  0  0  0  0  0  0  0
   -1.4039    0.5411    0.0000 C   0  0  0  0  0  0  0  0  0  0  0  0
    0.7493    1.7747    0.0000 C   0  0  0  0  0  0  0  0  0  0  0  0
    1.4720    0.5411    0.0000 C   0  0  0  0  0  0  0  0  0  0  0  0
    0.7493   -0.7000    0.0000 C   0  0  0  0  0  0  0  0  0  0  0  0
   -0.6773   -0.7000    0.0000 C   0  0  0  0  0  0  0  0  0  0  0  0
    0.0379    2.1910    0.0000 O   0  0  0  0  0  0  0  0  0  0  0  0
   -1.4039    2.1910    0.0000 C   0  0  0  0  0  0  0  0  0  0  0  0
   -2.1077    0.9536    0.0000 C   0  0  0  0  0  0  0  0  0  0  0  0
   -1.4039   -0.2800    0.0000 O   0  0  0  0  0  0  0  0  0  0  0  0
    1.4720    2.1910    0.0000 C   0  0  0  0  0  0  0  0  0  0  0  0
    2.1872    0.9536    0.0000 C   0  0  0  0  0  0  0  0  0  0  0  0
    1.4720   -0.2800    0.0000 O   0  0  0  0  0  0  0  0  0  0  0  0
    0.7493   -1.5287    0.0000 C   0  0  0  0  0  0  0  0  0  0  0  0
   -0.6773   -1.5250    0.0000 C   0  0  0  0  0  0  0  0  0  0  0  0
   -2.1077    1.7747    0.0000 C   0  0  0  0  0  0  0  0  0  0  0  0
    2.1872    1.7747    0.0000 C   0  0  0  0  0  0  0  0  0  0  0  0
    0.0379   -1.9374    0.0000 C   0  0  0  0  0  0  0  0  0  0  0  0
    1.4569   -1.9412    0.0000 O   0  0  0  0  0  0  0  0  0  0  0  0
   -1.3887   -1.9374    0.0000 I   0  0  0  0  0  0  0  0  0  0  0  0
   -2.8304    2.1872    0.0000 C   0  0  0  0  0  0  0  0  0  0  0  0
   -2.8229    1.3660    0.0000 C   0  0  0  0  0  0  0  0  0  0  0  0
    2.8986    2.1872    0.0000 C   0  0  0  0  0  0  0  0  0  0  0  0
    1.7747    2.4899    0.0000 C   0  0  0  0  0  0  0  0  0  0  0  0
    0.0303   -2.7586    0.0000 O   0  0  0  0  0  0  0  0  0  0  0  0
    2.1720   -1.5287    0.0000 C   0  0  0  0  0  0  0  0  0  0  0  0
   -0.6887   -3.1635    0.0000 C   0  0  0  0  0  0  0  0  0  0  0  0
   -0.6887   -3.9845    0.0000 C   0  0  0  0  0  0  0  0  0  0  0  0
   -0.6887   -4.8095    0.0000 C   0  0  0  0  0  0  0  0  0  0  0  0
  1  2  1  0  0  0  0
  1  3  1  0  0  0  0
  1  4  1  0  0  0  0
  2  5  2  0  0  0  0
  2  6  1  0  0  0  0
  3  7  2  0  0  0  0
  3  8  1  0  0  0  0
  4  9  1  0  0  0  0
  4 10  2  0  0  0  0
  5 11  1  0  0  0  0
  5 12  1  0  0  0  0
  6 13  1  0  0  0  0
  6 14  2  0  0  0  0
  7 15  1  0  0  0  0
  7 11  1  0  0  0  0
  8 16  1  0  0  0  0
  8 17  2  0  0  0  0
  9 18  2  0  0  0  0
 10 19  1  0  0  0  0
 12 20  1  0  0  0  0
 13 20  1  0  0  0  0
 15 21  1  0  0  0  0
 16 21  1  0  0  0  0
 18 22  1  0  0  0  0
 18 23  1  0  0  0  0
 19 24  1  0  0  0  0
 19 22  2  0  0  0  0
 20 25  1  0  0  0  0
 20 26  1  0  0  0  0
 21 27  1  0  0  0  0
 21 28  1  0  0  0  0
 22 29  1  0  0  0  0
 23 30  1  0  0  0  0
 29 31  1  0  0  0  0
 31 32  1  0  0  0  0
 32 33  3  0  0  0  0
M  END
> <CdId>
338

> <Mol Weight>
560.4206

> <Formula>
C27H29IO5

> <Click_ID>
CLK005_B09 __ __ 

$$$$
