CLK003_A03
 OpenBabel03181417552D

 25 27  0  0  0  0  0  0  0  0999 V2000
   -0.7590    0.1366    0.0000 C   0  0  3  0  0  0  0  0  0  0  0  0
   -1.5710   -0.0076    0.0000 C   0  0  0  0  0  0  0  0  0  0  0  0
   -0.3719   -0.5919    0.0000 C   0  0  0  0  0  0  0  0  0  0  0  0
    0.1708    0.7627    0.0000 C   0  0  0  0  0  0  0  0  0  0  0  0
   -1.0208    1.0816    0.0000 O   0  0  0  0  0  0  0  0  0  0  0  0
   -1.6848   -0.8196    0.0000 C   0  0  0  0  0  0  0  0  0  0  0  0
   -2.2162    0.5085    0.0000 C   0  0  0  0  0  0  0  0  0  0  0  0
   -0.9525   -1.1840    0.0000 N   0  0  0  0  0  0  0  0  0  0  0  0
    0.4478   -0.7096    0.0000 O   0  0  0  0  0  0  0  0  0  0  0  0
    0.9601    0.3491    0.0000 C   0  0  0  0  0  0  0  0  0  0  0  0
   -2.4514   -1.1309    0.0000 C   0  0  0  0  0  0  0  0  0  0  0  0
   -2.9865    0.2012    0.0000 C   0  0  0  0  0  0  0  0  0  0  0  0
   -0.8045   -1.9961    0.0000 C   0  0  0  0  0  0  0  0  0  0  0  0
    1.6621    0.7969    0.0000 C   0  0  0  0  0  0  0  0  0  0  0  0
    0.9980   -0.3377    0.0000 O   0  0  0  0  0  0  0  0  0  0  0  0
   -3.1003   -0.6223    0.0000 C   0  0  0  0  0  0  0  0  0  0  0  0
   -1.4382   -2.5235    0.0000 C   0  0  0  0  0  0  0  0  0  0  0  0
    1.6203    1.6203    0.0000 C   0  0  0  0  0  0  0  0  0  0  0  0
    2.3907    0.4213    0.0000 C   0  0  0  0  0  0  0  0  0  0  0  0
   -2.0681   -3.0548    0.0000 C   0  0  0  0  0  0  0  0  0  0  0  0
    2.3186    2.0720    0.0000 C   0  0  0  0  0  0  0  0  0  0  0  0
    0.8917    1.9998    0.0000 C   0  0  0  0  0  0  0  0  0  0  0  0
    3.0889    0.8615    0.0000 C   0  0  0  0  0  0  0  0  0  0  0  0
    3.0510    1.6848    0.0000 C   0  0  0  0  0  0  0  0  0  0  0  0
    3.8176    0.4895    0.0000 C   0  0  0  0  0  0  0  0  0  0  0  0
  1  2  1  0  0  0  0
  1  3  1  0  0  0  0
  1  4  1  0  0  0  0
  1  5  1  0  0  0  0
  2  6  2  0  0  0  0
  2  7  1  0  0  0  0
  3  8  1  0  0  0  0
  3  9  2  0  0  0  0
  4 10  1  0  0  0  0
  6 11  1  0  0  0  0
  6  8  1  0  0  0  0
  7 12  2  0  0  0  0
  8 13  1  0  0  0  0
 10 14  1  0  0  0  0
 10 15  2  0  0  0  0
 11 16  2  0  0  0  0
 12 16  1  0  0  0  0
 13 17  1  0  0  0  0
 14 18  2  0  0  0  0
 14 19  1  0  0  0  0
 17 20  3  0  0  0  0
 18 21  1  0  0  0  0
 18 22  1  0  0  0  0
 19 23  2  0  0  0  0
 21 24  2  0  0  0  0
 23 25  1  0  0  0  0
 23 24  1  0  0  0  0
M  END
> <CdId>
162

> <Mol Weight>
333.3805

> <Formula>
C21H19NO3

> <Click_ID>
CLK003_A03 __ __ 

$$$$
