CLK034_A10
 OpenBabel03181417552D

 20 22  0  0  0  0  0  0  0  0999 V2000
   -4.5793    2.5561    0.0000 C   0  0  0  0  0  0  0  0  0  0  0  0
   -3.8675    2.9682    0.0000 N   0  0  0  0  0  0  0  0  0  0  0  0
   -4.6709    1.7318    0.0000 N   0  0  0  0  0  0  0  0  0  0  0  0
   -5.3162    2.8933    0.0000 S   0  0  0  0  0  0  0  0  0  0  0  0
   -5.4786    1.5694    0.0000 C   0  0  0  0  0  0  0  0  0  0  0  0
   -3.8675    3.7968    0.0000 C   0  0  0  0  0  0  0  0  0  0  0  0
   -5.8782    2.2939    0.0000 C   0  0  0  0  0  0  0  0  0  0  0  0
   -3.1556    4.2089    0.0000 C   0  0  0  0  0  0  0  0  0  0  0  0
   -2.7352    4.9249    0.0000 C   0  0  0  0  0  0  0  0  0  0  0  0
   -2.3230    4.2089    0.0000 C   0  0  0  0  0  0  0  0  0  0  0  0
   -4.2421    0.3580    0.0000 C   0  0  0  0  0  0  0  0  0  0  0  0
   -4.4170   -0.4538    0.0000 C   0  0  0  0  0  0  0  0  0  0  0  0
   -5.9032    0.8701    0.0000 C   0  0  0  0  0  0  0  0  0  0  0  0
   -4.5793    4.2089    0.0000 O   0  0  0  0  0  0  0  0  0  0  0  0
   -4.0548    1.1615    0.0000 C   0  0  0  0  0  0  0  0  0  0  0  0
   -6.6985    2.3064    0.0000 C   0  0  0  0  0  0  0  0  0  0  0  0
   -5.5036    0.1374    0.0000 O   0  0  0  0  0  0  0  0  0  0  0  0
   -7.1231    1.6069    0.0000 C   0  0  0  0  0  0  0  0  0  0  0  0
   -6.7109    0.8743    0.0000 C   0  0  0  0  0  0  0  0  0  0  0  0
   -5.9282   -0.5662    0.0000 C   0  0  0  0  0  0  0  0  0  0  0  0
  2  1  2  0  0  0  0
  3  1  1  0  0  0  0
  4  1  1  0  0  0  0
  5  3  1  0  0  0  0
  6  2  1  0  0  0  0
  7  4  1  0  0  0  0
  7  5  2  0  0  0  0
  8  6  1  0  0  0  0
  9  8  1  0  0  0  0
 10  8  1  0  0  0  0
 10  9  1  0  0  0  0
 11 15  1  0  0  0  0
 12 11  3  0  0  0  0
 13  5  1  0  0  0  0
 14  6  2  0  0  0  0
 15  3  1  0  0  0  0
 16  7  1  0  0  0  0
 17 13  1  0  0  0  0
 18 16  2  0  0  0  0
 19 13  2  0  0  0  0
 19 18  1  0  0  0  0
 20 17  1  0  0  0  0
M  END
> <CdId>
2574

> <Mol Weight>
286.349

> <Formula>
C15H14N2O2S

> <Click_ID>
CLK034_A10 __ __ 

$$$$
