CLK018_H09
 OpenBabel03181417552D

 25 26  0  0  0  0  0  0  0  0999 V2000
    2.0287   -1.0811    0.0000 N    0  0  0  0  0  0  0  0  0  0  0  0
    2.2791   -1.8701    0.0000 C    0  0  0  0  0  0  0  0  0  0  0  0
    2.6923   -0.5928    0.0000 C    0  0  0  0  0  0  0  0  0  0  0  0
    3.3602   -1.0811    0.0000 C    0  0  0  0  0  0  0  0  0  0  0  0
    3.1056   -1.8701    0.0000 S    0  0  0  0  0  0  0  0  0  0  0  0
    4.1492   -0.8265    0.0000 C    0  0  0  0  0  0  0  0  0  0  0  0
    1.2439   -0.8265    0.0000 C    0  0  0  0  0  0  0  0  0  0  0  0
    5.7979    3.4437    0.0000 C    0  0  0  0  0  0  0  0  0  0  0  0
    5.9733    4.2368    0.0000 C    0  0  0  0  0  0  0  0  0  0  0  0
    5.2637    1.0352    0.0000 C    0  0  0  0  0  0  0  0  0  0  0  0
    0.6261   -1.3817    0.0000 C    0  0  0  0  0  0  0  0  0  0  0  0
    1.7949   -2.5338    0.0000 O    0  0  0  0  0  0  0  0  0  0  0  0
    2.6923    0.2337    0.0000 O    0  0  0  0  0  0  0  0  0  0  0  0
    4.3203   -0.0167    0.0000 C    0  0  0  0  0  0  0  0  0  0  0  0
    5.0884    0.2337    0.0000 C    0  0  0  0  0  0  0  0  0  0  0  0
    4.6501    1.5862    0.0000 C    0  0  0  0  0  0  0  0  0  0  0  0
    0.8014   -2.1914    0.0000 O    0  0  0  0  0  0  0  0  0  0  0  0
    3.8737    1.3357    0.0000 C    0  0  0  0  0  0  0  0  0  0  0  0
    6.0401    1.2898    0.0000 Br   0  0  0  0  0  0  0  0  0  0  0  0
    3.7109    0.5343    0.0000 C    0  0  0  0  0  0  0  0  0  0  0  0
   -0.1586   -1.1270    0.0000 O    0  0  0  0  0  0  0  0  0  0  0  0
    4.8337    2.4001    0.0000 O    0  0  0  0  0  0  0  0  0  0  0  0
    5.6143    2.6380    0.0000 C    0  0  0  0  0  0  0  0  0  0  0  0
   -0.3339   -0.3173    0.0000 C    0  0  0  0  0  0  0  0  0  0  0  0
   -1.1228   -0.0668    0.0000 C    0  0  0  0  0  0  0  0  0  0  0  0
  2  1  1  0  0  0  0
  3  1  1  0  0  0  0
  4  3  1  0  0  0  0
  4  5  1  0  0  0  0
  5  2  1  0  0  0  0
  6  4  2  0  0  0  0
  7  1  1  0  0  0  0
  8 23  1  0  0  0  0
  9  8  3  0  0  0  0
 10 15  2  0  0  0  0
 11  7  1  0  0  0  0
 12  2  2  0  0  0  0
 13  3  2  0  0  0  0
 14  6  1  0  0  0  0
 15 14  1  0  0  0  0
 16 18  2  0  0  0  0
 16 10  1  0  0  0  0
 17 11  2  0  0  0  0
 18 20  1  0  0  0  0
 19 10  1  0  0  0  0
 20 14  2  0  0  0  0
 21 11  1  0  0  0  0
 22 16  1  0  0  0  0
 23 22  1  0  0  0  0
 24 21  1  0  0  0  0
 25 24  1  0  0  0  0
M  END
> <CdId>
1394

> <Mol Weight>
424.266

> <Formula>
C17H14BrNO5S

> <Click_ID>
CLK018_H09 __ __ 

$$$$
