CLK004_H09
 OpenBabel03181417552D

 30 33  0  0  0  0  0  0  0  0999 V2000
    0.3041    0.2926    0.0000 C   0  0  3  0  0  0  0  0  0  0  0  0
    1.0261   -0.1102    0.0000 C   0  0  0  0  0  0  0  0  0  0  0  0
    0.2965    1.1135    0.0000 C   0  0  0  0  0  0  0  0  0  0  0  0
   -0.4067   -0.1254    0.0000 C   0  0  0  0  0  0  0  0  0  0  0  0
    1.7293    0.3154    0.0000 C   0  0  0  0  0  0  0  0  0  0  0  0
    1.0261   -0.9235    0.0000 C   0  0  0  0  0  0  0  0  0  0  0  0
    0.9957    1.5317    0.0000 C   0  0  0  0  0  0  0  0  0  0  0  0
   -0.4257    1.5202    0.0000 C   0  0  0  0  0  0  0  0  0  0  0  0
   -0.3952   -0.9539    0.0000 C   0  0  0  0  0  0  0  0  0  0  0  0
   -1.1287    0.2737    0.0000 C   0  0  0  0  0  0  0  0  0  0  0  0
    1.7141    1.1326    0.0000 N   0  0  0  0  0  0  0  0  0  0  0  0
    2.4514   -0.0950    0.0000 C   0  0  0  0  0  0  0  0  0  0  0  0
    1.7559   -1.3378    0.0000 C   0  0  0  0  0  0  0  0  0  0  0  0
    0.3078   -1.3606    0.0000 O   0  0  0  0  0  0  0  0  0  0  0  0
    0.9844    2.3678    0.0000 C   0  0  0  0  0  0  0  0  0  0  0  0
   -0.4371    2.3412    0.0000 C   0  0  0  0  0  0  0  0  0  0  0  0
   -1.1440    1.1022    0.0000 O   0  0  0  0  0  0  0  0  0  0  0  0
   -1.1098   -1.3796    0.0000 C   0  0  0  0  0  0  0  0  0  0  0  0
   -1.8395   -0.1520    0.0000 C   0  0  0  0  0  0  0  0  0  0  0  0
    2.4590   -0.9198    0.0000 C   0  0  0  0  0  0  0  0  0  0  0  0
    0.2661    2.7592    0.0000 C   0  0  0  0  0  0  0  0  0  0  0  0
   -1.8281   -0.9806    0.0000 C   0  0  0  0  0  0  0  0  0  0  0  0
    2.0524   -1.6495    0.0000 C   0  0  0  0  0  0  0  0  0  0  0  0
    3.1887   -1.3226    0.0000 C   0  0  0  0  0  0  0  0  0  0  0  0
    0.2546    3.5992    0.0000 C   0  0  0  0  0  0  0  0  0  0  0  0
   -0.5624    2.7441    0.0000 C   0  0  0  0  0  0  0  0  0  0  0  0
   -2.5426   -1.4024    0.0000 O   0  0  0  0  0  0  0  0  0  0  0  0
   -2.5313   -2.2348    0.0000 C   0  0  0  0  0  0  0  0  0  0  0  0
   -3.2381   -2.6566    0.0000 C   0  0  0  0  0  0  0  0  0  0  0  0
   -3.2229   -3.4814    0.0000 C   0  0  0  0  0  0  0  0  0  0  0  0
  1  2  1  0  0  0  0
  1  3  1  0  0  0  0
  1  4  1  0  0  0  0
  2  5  2  0  0  0  0
  2  6  1  0  0  0  0
  3  7  2  0  0  0  0
  3  8  1  0  0  0  0
  4  9  2  0  0  0  0
  4 10  1  0  0  0  0
  5 11  1  0  0  0  0
  5 12  1  0  0  0  0
  6 13  1  0  0  0  0
  6 14  2  0  0  0  0
  7 15  1  0  0  0  0
  7 11  1  0  0  0  0
  8 16  1  0  0  0  0
  8 17  2  0  0  0  0
  9 18  1  0  0  0  0
 10 19  2  0  0  0  0
 12 20  1  0  0  0  0
 13 20  1  0  0  0  0
 15 21  1  0  0  0  0
 16 21  1  0  0  0  0
 18 22  2  0  0  0  0
 19 22  1  0  0  0  0
 20 23  1  0  0  0  0
 20 24  1  0  0  0  0
 21 25  1  0  0  0  0
 21 26  1  0  0  0  0
 22 27  1  0  0  0  0
 27 28  1  0  0  0  0
 28 29  1  0  0  0  0
 29 30  3  0  0  0  0
M  END
> <CdId>
318

> <Mol Weight>
403.5134

> <Formula>
C26H29NO3

> <Click_ID>
CLK004_H09 __ __ 

$$$$
