CLK015_B05
 OpenBabel03181417552D

 24 26  0  0  0  0  0  0  0  0999 V2000
    2.1115   -0.2291    0.0000 N   0  0  0  0  0  0  0  0  0  0  0  0
    2.3613   -1.0162    0.0000 C   0  0  0  0  0  0  0  0  0  0  0  0
    3.4400   -0.2291    0.0000 C   0  0  0  0  0  0  0  0  0  0  0  0
    2.7736    0.2582    0.0000 C   0  0  0  0  0  0  0  0  0  0  0  0
    3.1859   -1.0162    0.0000 S   0  0  0  0  0  0  0  0  0  0  0  0
    4.2271    0.0250    0.0000 C   0  0  0  0  0  0  0  0  0  0  0  0
    5.1517    1.1702    0.0000 N   0  0  0  0  0  0  0  0  0  0  0  0
    4.4020    0.8329    0.0000 C   0  0  0  0  0  0  0  0  0  0  0  0
    5.8721    0.7579    0.0000 C   0  0  0  0  0  0  0  0  0  0  0  0
    0.7121   -0.5289    0.0000 C   0  0  0  0  0  0  0  0  0  0  0  0
    6.5760    1.1702    0.0000 C   0  0  0  0  0  0  0  0  0  0  0  0
    0.1249   -1.1120    0.0000 C   0  0  0  0  0  0  0  0  0  0  0  0
    5.0642    1.9865    0.0000 C   0  0  0  0  0  0  0  0  0  0  0  0
    7.2964    0.7496    0.0000 C   0  0  0  0  0  0  0  0  0  0  0  0
    1.8783   -1.6784    0.0000 O   0  0  0  0  0  0  0  0  0  0  0  0
    3.8523    1.4451    0.0000 C   0  0  0  0  0  0  0  0  0  0  0  0
    2.7736    1.0828    0.0000 O   0  0  0  0  0  0  0  0  0  0  0  0
    4.2646    2.1572    0.0000 C   0  0  0  0  0  0  0  0  0  0  0  0
    1.3285    0.0250    0.0000 C   0  0  0  0  0  0  0  0  0  0  0  0
    5.8638   -0.0750    0.0000 C   0  0  0  0  0  0  0  0  0  0  0  0
    7.2964   -0.0750    0.0000 C   0  0  0  0  0  0  0  0  0  0  0  0
    6.5760   -0.4873    0.0000 C   0  0  0  0  0  0  0  0  0  0  0  0
    8.0086    1.1577    0.0000 C   0  0  0  0  0  0  0  0  0  0  0  0
    8.0086   -0.4915    0.0000 C   0  0  0  0  0  0  0  0  0  0  0  0
  2  1  1  0  0  0  0
  3  4  1  0  0  0  0
  3  5  1  0  0  0  0
  4  1  1  0  0  0  0
  5  2  1  0  0  0  0
  6  3  2  0  0  0  0
  7  8  1  0  0  0  0
  8  6  1  0  0  0  0
  9  7  1  0  0  0  0
 10 19  1  0  0  0  0
 11  9  1  0  0  0  0
 12 10  3  0  0  0  0
 13  7  1  0  0  0  0
 14 11  2  0  0  0  0
 15  2  2  0  0  0  0
 16  8  2  0  0  0  0
 17  4  2  0  0  0  0
 18 16  1  0  0  0  0
 18 13  2  0  0  0  0
 19  1  1  0  0  0  0
 20  9  2  0  0  0  0
 21 22  2  0  0  0  0
 21 14  1  0  0  0  0
 22 20  1  0  0  0  0
 23 14  1  0  0  0  0
 24 21  1  0  0  0  0
M  END
> <CdId>
1090

> <Mol Weight>
336.408

> <Formula>
C19H16N2O2S

> <Click_ID>
CLK015_B05 __ __ 

$$$$
