CLK004_B03
 OpenBabel03181417552D

 19 20  0  0  0  0  0  0  0  0999 V2000
   -1.0108   -0.4248    0.0000 C   0  0  0  0  0  0  0  0  0  0  0  0
   -0.2996   -0.0038    0.0000 N   0  0  0  0  0  0  0  0  0  0  0  0
   -1.7296   -0.0208    0.0000 C   0  0  0  0  0  0  0  0  0  0  0  0
   -1.0013   -1.2498    0.0000 C   0  0  0  0  0  0  0  0  0  0  0  0
   -0.3110    0.8193    0.0000 C   0  0  0  0  0  0  0  0  0  0  0  0
    0.4172   -0.4058    0.0000 C   0  0  0  0  0  0  0  0  0  0  0  0
   -1.7391    0.8022    0.0000 O   0  0  0  0  0  0  0  0  0  0  0  0
   -2.4369   -0.4400    0.0000 C   0  0  0  0  0  0  0  0  0  0  0  0
   -1.7087   -1.6708    0.0000 C   0  0  0  0  0  0  0  0  0  0  0  0
   -1.0317    1.2232    0.0000 C   0  0  3  0  0  0  0  0  0  0  0  0
    0.3982    1.2422    0.0000 O   0  0  0  0  0  0  0  0  0  0  0  0
    1.1284    0.0152    0.0000 C   0  0  0  0  0  0  0  0  0  0  0  0
   -2.4294   -1.2649    0.0000 C   0  0  0  0  0  0  0  0  0  0  0  0
   -1.0393    2.0482    0.0000 C   0  0  0  0  0  0  0  0  0  0  0  0
    1.8472   -0.3888    0.0000 N   0  0  0  0  0  0  0  0  0  0  0  0
    1.1189    0.8382    0.0000 O   0  0  0  0  0  0  0  0  0  0  0  0
    2.5583    0.0322    0.0000 C   0  0  0  0  0  0  0  0  0  0  0  0
    3.2752   -0.3717    0.0000 C   0  0  0  0  0  0  0  0  0  0  0  0
    3.9940   -0.7756    0.0000 C   0  0  0  0  0  0  0  0  0  0  0  0
  1  2  1  0  0  0  0
  1  3  1  0  0  0  0
  1  4  2  0  0  0  0
  2  5  1  0  0  0  0
  2  6  1  0  0  0  0
  3  7  1  0  0  0  0
  3  8  2  0  0  0  0
  4  9  1  0  0  0  0
  5 10  1  0  0  0  0
  5 11  2  0  0  0  0
  6 12  1  0  0  0  0
  7 10  1  0  0  0  0
  8 13  1  0  0  0  0
  9 13  2  0  0  0  0
 10 14  1  0  0  0  0
 12 15  1  0  0  0  0
 12 16  2  0  0  0  0
 15 17  1  0  0  0  0
 17 18  1  0  0  0  0
 18 19  3  0  0  0  0
M  END
> <CdId>
252

> <Mol Weight>
258.2726

> <Formula>
C14H14N2O3

> <Click_ID>
CLK004_B03 __ __ 

$$$$
