CLK013_H06
 OpenBabel03181417552D

 30 31  0  0  0  0  0  0  0  0999 V2000
    2.0220   -1.0776    0.0000 N   0  0  0  0  0  0  0  0  0  0  0  0
    2.2716   -1.8639    0.0000 C   0  0  0  0  0  0  0  0  0  0  0  0
    2.6835   -0.5908    0.0000 C   0  0  0  0  0  0  0  0  0  0  0  0
    3.3492   -1.0776    0.0000 C   0  0  0  0  0  0  0  0  0  0  0  0
    3.0954   -1.8639    0.0000 S   0  0  0  0  0  0  0  0  0  0  0  0
    4.1355   -0.8238    0.0000 C   0  0  0  0  0  0  0  0  0  0  0  0
    1.2399   -0.8238    0.0000 C   0  0  0  0  0  0  0  0  0  0  0  0
    4.3103   -0.0167    0.0000 C   0  0  0  0  0  0  0  0  0  0  0  0
    3.8734    1.3480    0.0000 C   0  0  0  0  0  0  0  0  0  0  0  0
    4.6598    1.5976    0.0000 C   0  0  0  0  0  0  0  0  0  0  0  0
    5.2713    1.0442    0.0000 C   0  0  0  0  0  0  0  0  0  0  0  0
    5.8205    3.4573    0.0000 C   0  0  0  0  0  0  0  0  0  0  0  0
    5.9953    4.2603    0.0000 C   0  0  0  0  0  0  0  0  0  0  0  0
    0.6241   -1.3771    0.0000 C   0  0  0  0  0  0  0  0  0  0  0  0
    1.7890   -2.5254    0.0000 O   0  0  0  0  0  0  0  0  0  0  0  0
    2.6835    0.2330    0.0000 O   0  0  0  0  0  0  0  0  0  0  0  0
    3.6987    0.5450    0.0000 C   0  0  0  0  0  0  0  0  0  0  0  0
    5.0966    0.2330    0.0000 C   0  0  0  0  0  0  0  0  0  0  0  0
    0.7988   -2.1842    0.0000 O   0  0  0  0  0  0  0  0  0  0  0  0
    6.6693    0.7489    0.0000 C   0  0  0  0  0  0  0  0  0  0  0  0
    7.4514    1.0068    0.0000 C   0  0  0  0  0  0  0  0  0  0  0  0
    3.2743    1.9055    0.0000 O   0  0  0  0  0  0  0  0  0  0  0  0
    4.8470    2.4047    0.0000 O   0  0  0  0  0  0  0  0  0  0  0  0
   -0.1581   -1.1233    0.0000 O   0  0  0  0  0  0  0  0  0  0  0  0
    6.0535    1.3064    0.0000 C   0  0  0  0  0  0  0  0  0  0  0  0
    5.6333    2.6543    0.0000 C   0  0  0  0  0  0  0  0  0  0  0  0
    2.4963    1.6558    0.0000 C   0  0  0  0  0  0  0  0  0  0  0  0
   -0.3328   -0.3162    0.0000 C   0  0  0  0  0  0  0  0  0  0  0  0
   -1.1191   -0.0666    0.0000 C   0  0  0  0  0  0  0  0  0  0  0  0
    1.8889    2.2175    0.0000 C   0  0  0  0  0  0  0  0  0  0  0  0
  2  1  1  0  0  0  0
  3  1  1  0  0  0  0
  4  3  1  0  0  0  0
  4  5  1  0  0  0  0
  5  2  1  0  0  0  0
  6  4  2  0  0  0  0
  7  1  1  0  0  0  0
  8  6  1  0  0  0  0
  9 17  1  0  0  0  0
 10 11  1  0  0  0  0
 10  9  2  0  0  0  0
 11 18  2  0  0  0  0
 12 26  1  0  0  0  0
 13 12  3  0  0  0  0
 14  7  1  0  0  0  0
 15  2  2  0  0  0  0
 16  3  2  0  0  0  0
 17  8  2  0  0  0  0
 18  8  1  0  0  0  0
 19 14  2  0  0  0  0
 20 25  1  0  0  0  0
 21 20  2  0  0  0  0
 22  9  1  0  0  0  0
 23 10  1  0  0  0  0
 24 14  1  0  0  0  0
 25 11  1  0  0  0  0
 26 23  1  0  0  0  0
 27 22  1  0  0  0  0
 28 24  1  0  0  0  0
 29 28  1  0  0  0  0
 30 27  1  0  0  0  0
M  END
> <CdId>
991

> <Mol Weight>
429.486

> <Formula>
C22H23NO6S

> <Click_ID>
CLK013_H06 __ __ 

$$$$
