CLK047E08
 OpenBabel03181417552D

 16 17  0  0  0  0  0  0  0  0999 V2000
    0.1461   -0.1753    0.0000 C    0  0  0  0  0  0  0  0  0  0  0  0
   -0.3381    0.4926    0.0000 S    0  0  0  0  0  0  0  0  0  0  0  0
   -0.3381   -0.8433    0.0000 C    0  0  0  0  0  0  0  0  0  0  0  0
   -1.1271   -0.5886    0.0000 C    0  0  0  0  0  0  0  0  0  0  0  0
   -1.1271    0.2379    0.0000 C    0  0  0  0  0  0  0  0  0  0  0  0
    0.9726   -0.1753    0.0000 C    0  0  0  0  0  0  0  0  0  0  0  0
    2.6257    1.2566    0.0000 C    0  0  0  0  0  0  0  0  0  0  0  0
    3.0390    1.9704    0.0000 C    0  0  0  0  0  0  0  0  0  0  0  0
    1.3859   -0.8892    0.0000 O    0  0  0  0  0  0  0  0  0  0  0  0
   -0.0835   -1.6323    0.0000 Cl   0  0  0  0  0  0  0  0  0  0  0  0
    1.3859    0.5385    0.0000 N    0  0  0  0  0  0  0  0  0  0  0  0
    2.2125    0.5385    0.0000 C    0  0  0  0  0  0  0  0  0  0  0  0
   -1.8410   -1.0019    0.0000 C    0  0  0  0  0  0  0  0  0  0  0  0
   -1.8410    0.6512    0.0000 C    0  0  0  0  0  0  0  0  0  0  0  0
   -2.5548   -0.5886    0.0000 C    0  0  0  0  0  0  0  0  0  0  0  0
   -2.5548    0.2379    0.0000 C    0  0  0  0  0  0  0  0  0  0  0  0
  2  1  1  0  0  0  0
  3  1  2  0  0  0  0
  4  3  1  0  0  0  0
  4  5  2  0  0  0  0
  5  2  1  0  0  0  0
  6  1  1  0  0  0  0
  7 12  1  0  0  0  0
  8  7  3  0  0  0  0
  9  6  2  0  0  0  0
 10  3  1  0  0  0  0
 11  6  1  0  0  0  0
 12 11  1  0  0  0  0
 13  4  1  0  0  0  0
 14  5  1  0  0  0  0
 15 13  2  0  0  0  0
 15 16  1  0  0  0  0
 16 14  2  0  0  0  0
M  END
> <CdId>
3621

> <Mol Weight>
249.716

> <Formula>
C12H8ClNOS

> <Click_ID>
CLK047E08 __ __ 

$$$$
