CLK045B05
 OpenBabel03181417552D

 21 21  0  0  0  0  0  0  0  0999 V2000
   -0.4458    1.8292    0.0000 S   0  0  0  0  0  0  0  0  0  0  0  0
   -0.4458   -1.4708    0.0000 C   0  0  0  0  0  0  0  0  0  0  0  0
   -0.4458    1.0042    0.0000 C   0  0  0  0  0  0  0  0  0  0  0  0
    0.2708    3.8917    0.0000 C   0  0  0  0  0  0  0  0  0  0  0  0
    0.2708    4.7125    0.0000 C   0  0  0  0  0  0  0  0  0  0  0  0
   -1.2708    1.8292    0.0000 O   0  0  0  0  0  0  0  0  0  0  0  0
    0.3792    1.8292    0.0000 O   0  0  0  0  0  0  0  0  0  0  0  0
   -0.4458   -0.6458    0.0000 C   0  0  0  0  0  0  0  0  0  0  0  0
    0.2708   -1.8833    0.0000 N   0  0  0  0  0  0  0  0  0  0  0  0
   -0.4458    2.6542    0.0000 N   0  0  0  0  0  0  0  0  0  0  0  0
   -1.1583   -1.8833    0.0000 O   0  0  0  0  0  0  0  0  0  0  0  0
    0.2708    0.5917    0.0000 C   0  0  0  0  0  0  0  0  0  0  0  0
   -1.1583    0.5917    0.0000 C   0  0  0  0  0  0  0  0  0  0  0  0
    0.2708   -0.2333    0.0000 C   0  0  0  0  0  0  0  0  0  0  0  0
   -1.1583   -0.2333    0.0000 C   0  0  0  0  0  0  0  0  0  0  0  0
    0.2708    3.0667    0.0000 C   0  0  0  0  0  0  0  0  0  0  0  0
    0.2708   -2.7083    0.0000 C   0  0  0  0  0  0  0  0  0  0  0  0
    0.9833   -1.4708    0.0000 C   0  0  0  0  0  0  0  0  0  0  0  0
    0.9833   -3.1208    0.0000 C   0  0  0  0  0  0  0  0  0  0  0  0
    0.9833   -3.9458    0.0000 C   0  0  0  0  0  0  0  0  0  0  0  0
    1.7000   -4.3583    0.0000 C   0  0  0  0  0  0  0  0  0  0  0  0
  2  8  1  0  0  0  0
  3  1  1  0  0  0  0
  4 16  1  0  0  0  0
  5  4  3  0  0  0  0
  6  1  2  0  0  0  0
  7  1  2  0  0  0  0
  8 15  2  0  0  0  0
  9  2  1  0  0  0  0
 10  1  1  0  0  0  0
 11  2  2  0  0  0  0
 12  3  1  0  0  0  0
 13  3  2  0  0  0  0
 14 12  2  0  0  0  0
 14  8  1  0  0  0  0
 15 13  1  0  0  0  0
 16 10  1  0  0  0  0
 17  9  1  0  0  0  0
 18  9  1  0  0  0  0
 19 17  1  0  0  0  0
 20 19  1  0  0  0  0
 21 20  1  0  0  0  0
M  END
> <CdId>
3434

> <Mol Weight>
308.396

> <Formula>
C15H20N2O3S

> <Click_ID>
CLK045B05 __ __ 

$$$$
