CLK009_B04
 OpenBabel03181417552D

 23 23  0  0  0  0  0  0  0  0999 V2000
   -0.9652    0.8412    0.0000 C   0  0  0  0  0  0  0  0  0  0  0  0
    4.7882   -0.0054    0.0000 C   0  0  0  0  0  0  0  0  0  0  0  0
    4.7882   -0.8412    0.0000 C   0  0  0  0  0  0  0  0  0  0  0  0
    2.6584    2.0868    0.0000 C   0  0  0  0  0  0  0  0  0  0  0  0
   -0.2103    1.2887    0.0000 C   0  0  0  0  0  0  0  0  0  0  0  0
    1.9628    2.5019    0.0000 N   0  0  0  0  0  0  0  0  0  0  0  0
    5.5054    2.0652    0.0000 C   0  0  0  0  0  0  0  0  0  0  0  0
   -1.6607    1.2563    0.0000 O   0  0  0  0  0  0  0  0  0  0  0  0
    2.6584    1.2563    0.0000 O   0  0  0  0  0  0  0  0  0  0  0  0
    6.2118    2.4534    0.0000 O   0  0  0  0  0  0  0  0  0  0  0  0
    0.5176    0.8681    0.0000 C   0  0  0  0  0  0  0  0  0  0  0  0
   -0.2103    2.1137    0.0000 C   0  0  0  0  0  0  0  0  0  0  0  0
    1.2132    2.0868    0.0000 C   0  0  0  0  0  0  0  0  0  0  0  0
   -0.9652    0.0162    0.0000 O   0  0  0  0  0  0  0  0  0  0  0  0
    0.5176    2.5019    0.0000 C   0  0  0  0  0  0  0  0  0  0  0  0
    1.2132    1.2887    0.0000 C   0  0  0  0  0  0  0  0  0  0  0  0
    5.4838    1.2294    0.0000 O   0  0  0  0  0  0  0  0  0  0  0  0
    4.7882    0.8196    0.0000 C   0  0  0  0  0  0  0  0  0  0  0  0
    3.3863    2.4750    0.0000 C   0  0  0  0  0  0  0  0  0  0  0  0
    4.7882    2.4750    0.0000 C   0  0  0  0  0  0  0  0  0  0  0  0
    4.0819    2.0652    0.0000 C   0  0  0  0  0  0  0  0  0  0  0  0
   -1.6824   -0.3937    0.0000 C   0  0  0  0  0  0  0  0  0  0  0  0
   -1.6824   -1.2294    0.0000 C   0  0  0  0  0  0  0  0  0  0  0  0
  2 18  1  0  0  0  0
  3  2  3  0  0  0  0
  4  6  1  0  0  0  0
  5  1  1  0  0  0  0
  6 13  1  0  0  0  0
  7 20  1  0  0  0  0
  8  1  2  0  0  0  0
  9  4  2  0  0  0  0
 10  7  2  0  0  0  0
 11  5  1  0  0  0  0
 12  5  2  0  0  0  0
 13 15  2  0  0  0  0
 14  1  1  0  0  0  0
 15 12  1  0  0  0  0
 16 11  2  0  0  0  0
 16 13  1  0  0  0  0
 17  7  1  0  0  0  0
 18 17  1  0  0  0  0
 19  4  1  0  0  0  0
 20 21  1  0  0  0  0
 21 19  1  0  0  0  0
 22 14  1  0  0  0  0
 23 22  1  0  0  0  0
M  END
> <CdId>
609

> <Mol Weight>
317.3365

> <Formula>
C17H19NO5

> <Click_ID>
CLK009_B04 __ __ 

$$$$
