CLK037D06
 OpenBabel03181417552D

 19 19  0  0  0  0  0  0  0  0999 V2000
    0.8250   -2.5583    0.0000 C    0  0  0  0  0  0  0  0  0  0  0  0
    0.8250   -3.3833    0.0000 C    0  0  0  0  0  0  0  0  0  0  0  0
    0.1125   -0.4958    0.0000 C    0  0  0  0  0  0  0  0  0  0  0  0
    0.8250   -0.9083    0.0000 N    0  0  0  0  0  0  0  0  0  0  0  0
    0.8250   -1.7333    0.0000 C    0  0  0  0  0  0  0  0  0  0  0  0
   -0.6042    0.7417    0.0000 O    0  0  0  0  0  0  0  0  0  0  0  0
   -0.6042    1.5667    0.0000 C    0  0  0  0  0  0  0  0  0  0  0  0
   -0.6042   -0.9083    0.0000 O    0  0  0  0  0  0  0  0  0  0  0  0
   -1.3167    1.9792    0.0000 C    0  0  0  0  0  0  0  0  0  0  0  0
    0.1125    0.3292    0.0000 C    0  0  0  0  0  0  0  0  0  0  0  0
   -2.0333    1.5667    0.0000 Cl   0  0  0  0  0  0  0  0  0  0  0  0
    1.6500   -1.7333    0.0000 C    0  0  0  0  0  0  0  0  0  0  0  0
    0.0000   -1.7333    0.0000 C    0  0  0  0  0  0  0  0  0  0  0  0
    0.1125    1.9792    0.0000 C    0  0  0  0  0  0  0  0  0  0  0  0
   -1.3167    2.8042    0.0000 C    0  0  0  0  0  0  0  0  0  0  0  0
    2.0625   -2.4500    0.0000 C    0  0  0  0  0  0  0  0  0  0  0  0
   -0.4125   -1.0208    0.0000 C    0  0  0  0  0  0  0  0  0  0  0  0
   -0.6042    3.2167    0.0000 C    0  0  0  0  0  0  0  0  0  0  0  0
    0.1125    2.8042    0.0000 C    0  0  0  0  0  0  0  0  0  0  0  0
  2  1  3  0  0  0  0
  3  4  1  0  0  0  0
  4  5  1  0  0  0  0
  5  1  1  0  0  0  0
  6 10  1  0  0  0  0
  7  6  1  0  0  0  0
  8  3  2  0  0  0  0
  9  7  2  0  0  0  0
 10  3  1  0  0  0  0
 11  9  1  0  0  0  0
 12  5  1  0  0  0  0
 13  5  1  0  0  0  0
 14  7  1  0  0  0  0
 15  9  1  0  0  0  0
 16 12  1  0  0  0  0
 17 13  1  0  0  0  0
 18 15  2  0  0  0  0
 18 19  1  0  0  0  0
 19 14  2  0  0  0  0
M  END
> <CdId>
2804

> <Mol Weight>
279.762

> <Formula>
C15H18ClNO2

> <Click_ID>
CLK037D06 __ __ 

$$$$
