CLK037A09
 OpenBabel03181417552D

 17 17  0  0  0  0  0  0  0  0999 V2000
   -0.2125    0.0750    0.0000 C    0  0  0  0  0  0  0  0  0  0  0  0
   -0.2125    0.9000    0.0000 C    0  0  0  0  0  0  0  0  0  0  0  0
    0.5042   -0.3375    0.0000 N    0  0  0  0  0  0  0  0  0  0  0  0
    0.5042   -1.9875    0.0000 C    0  0  0  0  0  0  0  0  0  0  0  0
    0.5042   -2.8125    0.0000 C    0  0  0  0  0  0  0  0  0  0  0  0
    0.5042   -1.1625    0.0000 C    0  0  0  0  0  0  0  0  0  0  0  0
   -0.9250    1.3125    0.0000 C    0  0  0  0  0  0  0  0  0  0  0  0
   -0.9250   -0.3375    0.0000 O    0  0  0  0  0  0  0  0  0  0  0  0
   -1.6417    0.9000    0.0000 Br   0  0  0  0  0  0  0  0  0  0  0  0
    0.5042    1.3125    0.0000 C    0  0  0  0  0  0  0  0  0  0  0  0
   -0.3208   -1.1625    0.0000 C    0  0  0  0  0  0  0  0  0  0  0  0
    1.3292   -1.1625    0.0000 C    0  0  0  0  0  0  0  0  0  0  0  0
   -0.9250    2.1375    0.0000 C    0  0  0  0  0  0  0  0  0  0  0  0
    0.5042    2.1375    0.0000 C    0  0  0  0  0  0  0  0  0  0  0  0
   -0.7333   -0.4500    0.0000 C    0  0  0  0  0  0  0  0  0  0  0  0
    1.7417   -1.8792    0.0000 C    0  0  0  0  0  0  0  0  0  0  0  0
   -0.2125    2.5500    0.0000 C    0  0  0  0  0  0  0  0  0  0  0  0
  2  1  1  0  0  0  0
  3  1  1  0  0  0  0
  4  6  1  0  0  0  0
  5  4  3  0  0  0  0
  6  3  1  0  0  0  0
  7  2  2  0  0  0  0
  8  1  2  0  0  0  0
  9  7  1  0  0  0  0
 10  2  1  0  0  0  0
 11  6  1  0  0  0  0
 12  6  1  0  0  0  0
 13  7  1  0  0  0  0
 14 10  2  0  0  0  0
 15 11  1  0  0  0  0
 16 12  1  0  0  0  0
 17 13  2  0  0  0  0
 17 14  1  0  0  0  0
M  END
> <CdId>
2825

> <Mol Weight>
294.187

> <Formula>
C14H16BrNO

> <Click_ID>
CLK037A09 __ __ 

$$$$
