CLK031_G03
 OpenBabel03181417552D

 27 29  0  0  0  0  0  0  0  0999 V2000
   -1.1625    2.3833    0.0000 C   0  0  0  0  0  0  0  0  0  0  0  0
   -0.3375    2.3750    0.0000 N   0  0  0  0  0  0  0  0  0  0  0  0
   -4.5833    3.2125    0.0000 S   0  0  0  0  0  0  0  0  0  0  0  0
   -1.6458    1.7208    0.0000 N   0  0  0  0  0  0  0  0  0  0  0  0
   -1.6458    3.0500    0.0000 S   0  0  0  0  0  0  0  0  0  0  0  0
   -2.4333    2.7958    0.0000 C   0  0  0  0  0  0  0  0  0  0  0  0
   -2.4333    1.9708    0.0000 C   0  0  0  0  0  0  0  0  0  0  0  0
    0.0750    3.0875    0.0000 C   0  0  0  0  0  0  0  0  0  0  0  0
   -3.8583    2.7958    0.0000 C   0  0  0  0  0  0  0  0  0  0  0  0
   -3.1458    3.2083    0.0000 C   0  0  0  0  0  0  0  0  0  0  0  0
    0.9000    3.0875    0.0000 C   0  0  0  0  0  0  0  0  0  0  0  0
   -1.9458    0.3208    0.0000 C   0  0  0  0  0  0  0  0  0  0  0  0
   -3.1458    1.5583    0.0000 C   0  0  0  0  0  0  0  0  0  0  0  0
   -2.4958   -0.2917    0.0000 C   0  0  0  0  0  0  0  0  0  0  0  0
    1.3167    2.3708    0.0000 C   0  0  0  0  0  0  0  0  0  0  0  0
   -4.1458    3.9083    0.0000 O   0  0  0  0  0  0  0  0  0  0  0  0
   -5.0208    2.5083    0.0000 O   0  0  0  0  0  0  0  0  0  0  0  0
    2.1417    2.3708    0.0000 C   0  0  0  0  0  0  0  0  0  0  0  0
   -5.2833    3.6458    0.0000 N   0  0  0  0  0  0  0  0  0  0  0  0
   -0.3375    3.8000    0.0000 O   0  0  0  0  0  0  0  0  0  0  0  0
   -3.8583    1.9708    0.0000 C   0  0  0  0  0  0  0  0  0  0  0  0
    2.5542    3.0875    0.0000 C   0  0  0  0  0  0  0  0  0  0  0  0
   -1.3958    0.9333    0.0000 C   0  0  0  0  0  0  0  0  0  0  0  0
    1.3167    3.7958    0.0000 C   0  0  0  0  0  0  0  0  0  0  0  0
    2.1417    3.7958    0.0000 C   0  0  0  0  0  0  0  0  0  0  0  0
    2.5625    1.6458    0.0000 C   0  0  0  0  0  0  0  0  0  0  0  0
    3.3875    3.0875    0.0000 C   0  0  0  0  0  0  0  0  0  0  0  0
  2  1  2  0  0  0  0
  3  9  1  0  0  0  0
  4  1  1  0  0  0  0
  5  1  1  0  0  0  0
  6  5  1  0  0  0  0
  6  7  2  0  0  0  0
  7  4  1  0  0  0  0
  8  2  1  0  0  0  0
  9 10  2  0  0  0  0
  9 21  1  0  0  0  0
 10  6  1  0  0  0  0
 11  8  1  0  0  0  0
 12 23  1  0  0  0  0
 13  7  1  0  0  0  0
 14 12  3  0  0  0  0
 15 11  2  0  0  0  0
 16  3  2  0  0  0  0
 17  3  2  0  0  0  0
 18 15  1  0  0  0  0
 18 22  2  0  0  0  0
 19  3  1  0  0  0  0
 20  8  2  0  0  0  0
 21 13  2  0  0  0  0
 22 25  1  0  0  0  0
 23  4  1  0  0  0  0
 24 11  1  0  0  0  0
 25 24  2  0  0  0  0
 26 18  1  0  0  0  0
 27 22  1  0  0  0  0
M  END
> <CdId>
2387

> <Mol Weight>
399.487

> <Formula>
C19H17N3O3S2

> <Click_ID>
CLK031_G03 __ __ 

$$$$
