CLK026_A05
 OpenBabel03181417552D

 20 21  0  0  0  0  0  0  0  0999 V2000
   -1.9072   -0.3058    0.0000 N   0  0  0  0  0  0  0  0  0  0  0  0
   -2.3676   -0.9793    0.0000 C   0  0  0  0  0  0  0  0  0  0  0  0
   -1.1099   -0.5292    0.0000 C   0  0  0  0  0  0  0  0  0  0  0  0
   -1.0859   -1.3539    0.0000 C   0  0  0  0  0  0  0  0  0  0  0  0
   -1.8694   -1.6288    0.0000 S   0  0  0  0  0  0  0  0  0  0  0  0
   -0.3608   -1.7422    0.0000 C   0  0  0  0  0  0  0  0  0  0  0  0
   -1.6700    1.1099    0.0000 C   0  0  0  0  0  0  0  0  0  0  0  0
   -1.1443    1.7457    0.0000 C   0  0  0  0  0  0  0  0  0  0  0  0
   -3.1923   -1.0000    0.0000 O   0  0  0  0  0  0  0  0  0  0  0  0
   -0.4604   -0.0172    0.0000 O   0  0  0  0  0  0  0  0  0  0  0  0
   -2.1923    0.4742    0.0000 C   0  0  0  0  0  0  0  0  0  0  0  0
    1.7663   -0.4674    0.0000 C   0  0  0  0  0  0  0  0  0  0  0  0
    2.4707   -0.0515    0.0000 N   0  0  0  0  0  0  0  0  0  0  0  0
    0.3437   -1.3058    0.0000 C   0  0  0  0  0  0  0  0  0  0  0  0
    1.7697   -1.2921    0.0000 C   0  0  0  0  0  0  0  0  0  0  0  0
    1.0447   -0.0619    0.0000 C   0  0  0  0  0  0  0  0  0  0  0  0
    1.0584   -1.7113    0.0000 C   0  0  0  0  0  0  0  0  0  0  0  0
    0.3402   -0.4742    0.0000 C   0  0  0  0  0  0  0  0  0  0  0  0
    2.4638    0.7732    0.0000 C   0  0  0  0  0  0  0  0  0  0  0  0
    3.1889   -0.4501    0.0000 C   0  0  0  0  0  0  0  0  0  0  0  0
  2  1  1  0  0  0  0
  3  1  1  0  0  0  0
  4  3  1  0  0  0  0
  5  2  1  0  0  0  0
  5  4  1  0  0  0  0
  6  4  2  0  0  0  0
  7 11  1  0  0  0  0
  8  7  3  0  0  0  0
  9  2  2  0  0  0  0
 10  3  2  0  0  0  0
 11  1  1  0  0  0  0
 12 16  2  0  0  0  0
 13 12  1  0  0  0  0
 14  6  1  0  0  0  0
 15 17  2  0  0  0  0
 15 12  1  0  0  0  0
 16 18  1  0  0  0  0
 17 14  1  0  0  0  0
 18 14  2  0  0  0  0
 19 13  1  0  0  0  0
 20 13  1  0  0  0  0
M  END
> <CdId>
1940

> <Mol Weight>
286.349

> <Formula>
C15H14N2O2S

> <Click_ID>
CLK026_A05 __ __ 

$$$$
