CLK019_C05
 OpenBabel03181417552D

 32 34  0  0  0  0  0  0  0  0999 V2000
    5.2645   -9.6258    0.0000 C    0  0  0  0  0  0  0  0  0  0  0  0
    5.9745  -10.0460    0.0000 C    0  0  3  0  0  0  0  0  0  0  0  0
    4.5545  -10.0556    0.0000 C    0  0  0  0  0  0  0  0  0  0  0  0
    6.6844   -9.6258    0.0000 C    0  0  0  0  0  0  0  0  0  0  0  0
    5.2645  -11.2872    0.0000 C    0  0  0  0  0  0  0  0  0  0  0  0
    4.5545  -10.8718    0.0000 N    0  0  0  0  0  0  0  0  0  0  0  0
    5.9841  -10.8718    0.0000 N    0  0  0  0  0  0  0  0  0  0  0  0
    5.2596   -8.8144    0.0000 C    0  0  0  0  0  0  0  0  0  0  0  0
    7.4089  -10.0411    0.0000 C    0  0  0  0  0  0  0  0  0  0  0  0
    6.6844   -8.7999    0.0000 C    0  0  0  0  0  0  0  0  0  0  0  0
    8.1189   -9.6258    0.0000 C    0  0  0  0  0  0  0  0  0  0  0  0
    7.3944   -8.3797    0.0000 C    0  0  0  0  0  0  0  0  0  0  0  0
    8.1140   -8.7950    0.0000 C    0  0  0  0  0  0  0  0  0  0  0  0
    9.5388   -7.1336    0.0000 C    0  0  0  0  0  0  0  0  0  0  0  0
    4.5545   -8.4183    0.0000 N    0  0  0  0  0  0  0  0  0  0  0  0
   10.2488   -6.7134    0.0000 C    0  0  0  0  0  0  0  0  0  0  0  0
    5.2741  -12.1034    0.0000 S    0  0  0  0  0  0  0  0  0  0  0  0
    5.9745   -8.4038    0.0000 O    0  0  0  0  0  0  0  0  0  0  0  0
    7.4185  -10.8718    0.0000 Br   0  0  0  0  0  0  0  0  0  0  0  0
    4.5400   -7.5828    0.0000 C    0  0  0  0  0  0  0  0  0  0  0  0
    3.8397   -9.6499    0.0000 C    0  0  0  0  0  0  0  0  0  0  0  0
    8.8289   -8.3797    0.0000 O    0  0  0  0  0  0  0  0  0  0  0  0
    7.3944   -7.5393    0.0000 O    0  0  0  0  0  0  0  0  0  0  0  0
    3.8300   -7.1771    0.0000 C    0  0  0  0  0  0  0  0  0  0  0  0
    8.8240   -7.5538    0.0000 C    0  0  0  0  0  0  0  0  0  0  0  0
    8.1189   -7.1287    0.0000 C    0  0  0  0  0  0  0  0  0  0  0  0
    3.8300   -6.3608    0.0000 C    0  0  0  0  0  0  0  0  0  0  0  0
    3.1201   -7.5924    0.0000 C    0  0  0  0  0  0  0  0  0  0  0  0
    8.1189   -6.3077    0.0000 C    0  0  0  0  0  0  0  0  0  0  0  0
    3.1201   -5.9310    0.0000 C    0  0  0  0  0  0  0  0  0  0  0  0
    2.3956   -7.1916    0.0000 C    0  0  0  0  0  0  0  0  0  0  0  0
    2.3956   -6.3512    0.0000 C    0  0  0  0  0  0  0  0  0  0  0  0
  2  1  1  0  0  0  0
  3  1  2  0  0  0  0
  4  2  1  0  0  0  0
  5  6  1  0  0  0  0
  6  3  1  0  0  0  0
  7  2  1  0  0  0  0
  7  5  1  0  0  0  0
  8  1  1  0  0  0  0
  9  4  1  0  0  0  0
 10  4  2  0  0  0  0
 11  9  2  0  0  0  0
 11 13  1  0  0  0  0
 12 10  1  0  0  0  0
 13 12  2  0  0  0  0
 14 25  1  0  0  0  0
 15  8  1  0  0  0  0
 16 14  3  0  0  0  0
 17  5  2  0  0  0  0
 18  8  2  0  0  0  0
 19  9  1  0  0  0  0
 20 15  1  0  0  0  0
 21  3  1  0  0  0  0
 22 13  1  0  0  0  0
 23 12  1  0  0  0  0
 24 20  1  0  0  0  0
 25 22  1  0  0  0  0
 26 23  1  0  0  0  0
 27 24  2  0  0  0  0
 28 24  1  0  0  0  0
 29 26  1  0  0  0  0
 30 27  1  0  0  0  0
 30 32  2  0  0  0  0
 31 28  2  0  0  0  0
 32 31  1  0  0  0  0
M  END
> <CdId>
1420

> <Mol Weight>
514.435

> <Formula>
C24H24BrN3O3S

> <Click_ID>
CLK019_C05 __ __ 

$$$$
