CLK003_C09
 OpenBabel03181417552D

 16 17  0  0  0  0  0  0  0  0999 V2000
   -0.2474   -0.4191    0.0000 C   0  0  0  0  0  0  0  0  0  0  0  0
   -0.9619   -0.0069    0.0000 C   0  0  0  0  0  0  0  0  0  0  0  0
    0.4191    0.0687    0.0000 O   0  0  0  0  0  0  0  0  0  0  0  0
    0.0103   -1.2058    0.0000 N   0  0  0  0  0  0  0  0  0  0  0  0
   -0.9619    0.8245    0.0000 C   0  0  0  0  0  0  0  0  0  0  0  0
   -1.6765   -0.4191    0.0000 C   0  0  0  0  0  0  0  0  0  0  0  0
    1.0890   -0.4191    0.0000 C   0  0  0  0  0  0  0  0  0  0  0  0
    0.8314   -1.2058    0.0000 N   0  0  0  0  0  0  0  0  0  0  0  0
   -1.6765    1.2368    0.0000 C   0  0  0  0  0  0  0  0  0  0  0  0
   -2.3910   -0.0069    0.0000 C   0  0  0  0  0  0  0  0  0  0  0  0
    1.7933   -0.0034    0.0000 S   0  0  0  0  0  0  0  0  0  0  0  0
   -2.3944    0.8245    0.0000 C   0  0  0  0  0  0  0  0  0  0  0  0
    2.3808   -0.5806    0.0000 C   0  0  0  0  0  0  0  0  0  0  0  0
   -3.1124    1.2368    0.0000 C   0  0  0  0  0  0  0  0  0  0  0  0
    3.0884   -0.1684    0.0000 C   0  0  0  0  0  0  0  0  0  0  0  0
    3.7995    0.2474    0.0000 C   0  0  0  0  0  0  0  0  0  0  0  0
  1  2  1  0  0  0  0
  1  3  1  0  0  0  0
  1  4  2  0  0  0  0
  2  5  2  0  0  0  0
  2  6  1  0  0  0  0
  3  7  1  0  0  0  0
  4  8  1  0  0  0  0
  5  9  1  0  0  0  0
  6 10  2  0  0  0  0
  7 11  1  0  0  0  0
  7  8  2  0  0  0  0
  9 12  2  0  0  0  0
 10 12  1  0  0  0  0
 11 13  1  0  0  0  0
 12 14  1  0  0  0  0
 13 15  1  0  0  0  0
 15 16  3  0  0  0  0
M  END
> <CdId>
188

> <Mol Weight>
230.286

> <Formula>
C12H10N2OS

> <Click_ID>
CLK003_C09 __ __ 

$$$$
