CLK029_D02
 OpenBabel03181417552D

 20 20  0  0  0  0  0  0  0  0999 V2000
    0.2454   -1.0676    0.0000 S   0  0  0  0  0  0  0  0  0  0  0  0
   -2.6098    0.5904    0.0000 N   0  3  0  0  0  0  0  0  0  0  0  0
    0.6579   -0.3559    0.0000 N   0  0  0  0  0  0  0  0  0  0  0  0
   -0.4610   -0.6498    0.0000 C   0  0  0  0  0  0  0  0  0  0  0  0
    0.2454    0.3532    0.0000 C   0  0  0  0  0  0  0  0  0  0  0  0
   -1.8980    0.1752    0.0000 C   0  0  0  0  0  0  0  0  0  0  0  0
    2.7176    0.3532    0.0000 C   0  0  0  0  0  0  0  0  0  0  0  0
    3.1248   -0.3559    0.0000 C   0  0  0  0  0  0  0  0  0  0  0  0
   -0.1618   -1.7794    0.0000 O   0  0  0  0  0  0  0  0  0  0  0  0
    0.9571   -1.4882    0.0000 O   0  0  0  0  0  0  0  0  0  0  0  0
    0.6579    1.0757    0.0000 C   0  0  0  0  0  0  0  0  0  0  0  0
   -2.6098    1.4289    0.0000 O   0  5  0  0  0  0  0  0  0  0  0  0
   -3.3215    0.1752    0.0000 O   0  0  0  0  0  0  0  0  0  0  0  0
    0.2454    1.7929    0.0000 O   0  0  0  0  0  0  0  0  0  0  0  0
   -1.1863   -1.0461    0.0000 C   0  0  0  0  0  0  0  0  0  0  0  0
   -0.4610    0.1752    0.0000 C   0  0  0  0  0  0  0  0  0  0  0  0
   -1.1863    0.5715    0.0000 C   0  0  0  0  0  0  0  0  0  0  0  0
   -1.8980   -0.6498    0.0000 C   0  0  0  0  0  0  0  0  0  0  0  0
    1.4748    1.0757    0.0000 O   0  0  0  0  0  0  0  0  0  0  0  0
    1.8954    0.3532    0.0000 C   0  0  0  0  0  0  0  0  0  0  0  0
  2  6  1  0  0  0  0
  3  1  1  0  0  0  0
  4  1  1  0  0  0  0
  5  3  1  0  0  0  0
  6 17  2  0  0  0  0
  7 20  1  0  0  0  0
  8  7  3  0  0  0  0
  9  1  2  0  0  0  0
 10  1  2  0  0  0  0
 11  5  1  0  0  0  0
 12  2  1  0  0  0  0
 13  2  2  0  0  0  0
 14 11  2  0  0  0  0
 15  4  1  0  0  0  0
 16  4  2  0  0  0  0
 17 16  1  0  0  0  0
 18 15  2  0  0  0  0
 18  6  1  0  0  0  0
 19 11  1  0  0  0  0
 20 19  1  0  0  0  0
M  END
> <CdId>
2196

> <Mol Weight>
298.272

> <Formula>
C11H10N2O6S

> <Click_ID>
CLK029_D02 __ __ 

$$$$
