CLK005_D08
 OpenBabel03181417552D

 12 12  0  0  0  0  0  0  0  0999 V2000
    5.6499  -16.3207    0.0000 C   0  0  0  0  0  0  0  0  0  0  0  0
    6.3619  -16.7387    0.0000 C   0  0  0  0  0  0  0  0  0  0  0  0
    4.2343  -12.1981    0.0000 O   0  0  0  0  0  0  0  0  0  0  0  0
    3.5265  -12.6078    0.0000 C   0  0  0  0  0  0  0  0  0  0  0  0
    4.2343  -13.8372    0.0000 C   0  0  0  0  0  0  0  0  0  0  0  0
    3.5265  -13.4274    0.0000 C   0  0  0  0  0  0  0  0  0  0  0  0
    4.2343  -14.6650    0.0000 C   0  0  0  0  0  0  0  0  0  0  0  0
    4.9421  -15.9109    0.0000 C   0  0  0  0  0  0  0  0  0  0  0  0
    4.9463  -15.0872    0.0000 O   0  0  0  0  0  0  0  0  0  0  0  0
    2.8105  -14.6650    0.0000 C   0  0  0  0  0  0  0  0  0  0  0  0
    2.8105  -13.8372    0.0000 C   0  0  0  0  0  0  0  0  0  0  0  0
    3.5265  -15.0747    0.0000 C   0  0  0  0  0  0  0  0  0  0  0  0
  2  1  3  0  0  0  0
  3  4  2  0  0  0  0
  4  6  1  0  0  0  0
  5  7  1  0  0  0  0
  6  5  2  0  0  0  0
  7  9  1  0  0  0  0
  8  1  1  0  0  0  0
  9  8  1  0  0  0  0
 10 12  1  0  0  0  0
 11 10  2  0  0  0  0
 11  6  1  0  0  0  0
 12  7  2  0  0  0  0
M  END
> <CdId>
357

> <Mol Weight>
160.1693

> <Formula>
C10H8O2

> <Click_ID>
CLK005_D08 __ __ 

$$$$
