CLK013_D06
 OpenBabel03181417552D

 26 28  0  0  0  0  0  0  0  0999 V2000
    1.5645   -0.8156    0.0000 N   0  0  0  0  0  0  0  0  0  0  0  0
    1.8225   -1.6020    0.0000 C   0  0  0  0  0  0  0  0  0  0  0  0
    2.9002   -0.8156    0.0000 C   0  0  0  0  0  0  0  0  0  0  0  0
    2.2344   -0.3287    0.0000 C   0  0  0  0  0  0  0  0  0  0  0  0
    2.6463   -1.6020    0.0000 S   0  0  0  0  0  0  0  0  0  0  0  0
    3.6866   -0.5617    0.0000 C   0  0  0  0  0  0  0  0  0  0  0  0
    0.6116    0.2455    0.0000 C   0  0  0  0  0  0  0  0  0  0  0  0
    3.8571    0.2455    0.0000 C   0  0  0  0  0  0  0  0  0  0  0  0
    0.3912    1.0443    0.0000 C   0  0  0  0  0  0  0  0  0  0  0  0
    1.3356   -2.2635    0.0000 O   0  0  0  0  0  0  0  0  0  0  0  0
    2.2261    0.4951    0.0000 O   0  0  0  0  0  0  0  0  0  0  0  0
    0.7864   -0.5617    0.0000 C   0  0  0  0  0  0  0  0  0  0  0  0
    4.6435    0.4993    0.0000 C   0  0  0  0  0  0  0  0  0  0  0  0
    5.2469   -0.0541    0.0000 O   0  0  0  0  0  0  0  0  0  0  0  0
    6.0458    0.1955    0.0000 C   0  0  0  0  0  0  0  0  0  0  0  0
    6.6532   -0.3537    0.0000 C   0  0  0  0  0  0  0  0  0  0  0  0
    7.8682   -1.4771    0.0000 C   0  0  0  0  0  0  0  0  0  0  0  0
    6.4702   -1.1734    0.0000 C   0  0  0  0  0  0  0  0  0  0  0  0
    7.4396   -0.1041    0.0000 C   0  0  0  0  0  0  0  0  0  0  0  0
    7.0818   -1.7268    0.0000 C   0  0  0  0  0  0  0  0  0  0  0  0
    8.0430   -0.6658    0.0000 C   0  0  0  0  0  0  0  0  0  0  0  0
    3.2455    0.7989    0.0000 C   0  0  0  0  0  0  0  0  0  0  0  0
    4.8100    1.3065    0.0000 C   0  0  0  0  0  0  0  0  0  0  0  0
    8.4799   -2.0264    0.0000 C   0  0  0  0  0  0  0  0  0  0  0  0
    3.4119    1.6061    0.0000 C   0  0  0  0  0  0  0  0  0  0  0  0
    4.2066    1.8557    0.0000 C   0  0  0  0  0  0  0  0  0  0  0  0
  2  1  1  0  0  0  0
  3  4  1  0  0  0  0
  4  1  1  0  0  0  0
  5  2  1  0  0  0  0
  5  3  1  0  0  0  0
  6  3  2  0  0  0  0
  7 12  1  0  0  0  0
  8  6  1  0  0  0  0
  9  7  3  0  0  0  0
 10  2  2  0  0  0  0
 11  4  2  0  0  0  0
 12  1  1  0  0  0  0
 13  8  1  0  0  0  0
 14 13  1  0  0  0  0
 15 14  1  0  0  0  0
 16 15  1  0  0  0  0
 17 21  1  0  0  0  0
 17 20  2  0  0  0  0
 18 16  2  0  0  0  0
 19 16  1  0  0  0  0
 20 18  1  0  0  0  0
 21 19  2  0  0  0  0
 22  8  2  0  0  0  0
 23 13  2  0  0  0  0
 24 17  1  0  0  0  0
 25 22  1  0  0  0  0
 26 25  2  0  0  0  0
 26 23  1  0  0  0  0
M  END
> <CdId>
951

> <Mol Weight>
363.43

> <Formula>
C21H17NO3S

> <Click_ID>
CLK013_D06 __ __ 

$$$$
