CLK010_B03
 OpenBabel03181417552D

 24 26  0  0  0  0  0  0  0  0999 V2000
    4.7346   -1.5262    0.0000 C    0  0  0  0  0  0  0  0  0  0  0  0
    4.6475   -2.3421    0.0000 C    0  0  0  0  0  0  0  0  0  0  0  0
    5.5412   -1.3521    0.0000 C    0  0  0  0  0  0  0  0  0  0  0  0
    5.4037   -2.6812    0.0000 N    0  0  0  0  0  0  0  0  0  0  0  0
    1.9387   -0.9259    0.0000 C    0  0  0  0  0  0  0  0  0  0  0  0
    5.9537   -2.0671    0.0000 C    0  0  0  0  0  0  0  0  0  0  0  0
    4.1159   -0.9762    0.0000 N    0  0  0  0  0  0  0  0  0  0  0  0
    1.6821   -1.7187    0.0000 N    0  0  0  0  0  0  0  0  0  0  0  0
    2.7225   -0.6784    0.0000 C    0  0  0  0  0  0  0  0  0  0  0  0
    1.2696   -0.4446    0.0000 C    0  0  0  0  0  0  0  0  0  0  0  0
    0.8571   -1.7187    0.0000 N    0  0  0  0  0  0  0  0  0  0  0  0
    3.3321   -1.2284    0.0000 N    0  0  0  0  0  0  0  0  0  0  0  0
    6.3571   -3.7446    0.0000 C    0  0  0  0  0  0  0  0  0  0  0  0
    0.6050   -0.9259    0.0000 C    0  0  0  0  0  0  0  0  0  0  0  0
    6.7787   -2.0671    0.0000 C    0  0  0  0  0  0  0  0  0  0  0  0
    7.1409   -4.0012    0.0000 C    0  0  0  0  0  0  0  0  0  0  0  0
    5.9537   -0.6371    0.0000 C    0  0  0  0  0  0  0  0  0  0  0  0
    3.9325   -2.7546    0.0000 O    0  0  0  0  0  0  0  0  0  0  0  0
    2.8921    0.1329    0.0000 O    0  0  0  0  0  0  0  0  0  0  0  0
    5.5734   -3.4834    0.0000 C    0  0  0  0  0  0  0  0  0  0  0  0
    6.7787   -0.6371    0.0000 C    0  0  0  0  0  0  0  0  0  0  0  0
    7.1912   -1.3521    0.0000 C    0  0  0  0  0  0  0  0  0  0  0  0
    7.1912    0.0779    0.0000 Br   0  0  0  0  0  0  0  0  0  0  0  0
   -0.1788   -0.6784    0.0000 C    0  0  0  0  0  0  0  0  0  0  0  0
  2  1  1  0  0  0  0
  3  1  1  0  0  0  0
  4  2  1  0  0  0  0
  5  9  1  0  0  0  0
  6  3  2  0  0  0  0
  6  4  1  0  0  0  0
  7  1  2  0  0  0  0
  8  5  1  0  0  0  0
  9 12  1  0  0  0  0
 10  5  2  0  0  0  0
 11  8  1  0  0  0  0
 11 14  2  0  0  0  0
 12  7  1  0  0  0  0
 13 20  1  0  0  0  0
 14 10  1  0  0  0  0
 15  6  1  0  0  0  0
 16 13  3  0  0  0  0
 17  3  1  0  0  0  0
 18  2  2  0  0  0  0
 19  9  2  0  0  0  0
 20  4  1  0  0  0  0
 21 17  2  0  0  0  0
 22 21  1  0  0  0  0
 22 15  2  0  0  0  0
 23 21  1  0  0  0  0
 24 14  1  0  0  0  0
M  END
> <CdId>
688

> <Mol Weight>
386.203

> <Formula>
C16H12BrN5O2

> <Click_ID>
CLK010_B03 __ __ 

$$$$
