CLK028_B07
 OpenBabel03181417552D

 25 26  0  0  0  0  0  0  0  0999 V2000
   -4.3100   -1.8551    0.0000 N    0  0  0  0  0  0  0  0  0  0  0  0
   -3.5894   -1.4413    0.0000 C    0  0  0  0  0  0  0  0  0  0  0  0
    2.1412    1.0448    0.0000 C    0  0  0  0  0  0  0  0  0  0  0  0
    2.1377    0.2207    0.0000 C    0  0  0  0  0  0  0  0  0  0  0  0
    1.4275    1.4585    0.0000 C    0  0  0  0  0  0  0  0  0  0  0  0
   -2.8757   -0.1931    0.0000 N    0  0  0  0  0  0  0  0  0  0  0  0
    4.2997    1.4206    0.0000 C    0  0  0  0  0  0  0  0  0  0  0  0
    5.0237    1.8344    0.0000 C    0  0  0  0  0  0  0  0  0  0  0  0
   -0.7276    0.2207    0.0000 N    0  0  0  0  0  0  0  0  0  0  0  0
   -5.0237   -1.4413    0.0000 O    0  0  0  0  0  0  0  0  0  0  0  0
   -2.1619   -0.6034    0.0000 C    0  0  0  0  0  0  0  0  0  0  0  0
   -4.3100   -2.6791    0.0000 O    0  0  0  0  0  0  0  0  0  0  0  0
   -3.5894   -0.6034    0.0000 C    0  0  0  0  0  0  0  0  0  0  0  0
    1.4137   -0.2034    0.0000 C    0  0  0  0  0  0  0  0  0  0  0  0
    0.7103    1.0448    0.0000 C    0  0  0  0  0  0  0  0  0  0  0  0
    0.7034    0.2207    0.0000 C    0  0  0  0  0  0  0  0  0  0  0  0
   -2.8757   -1.8551    0.0000 C    0  0  0  0  0  0  0  0  0  0  0  0
   -1.4378   -0.1931    0.0000 N    0  0  0  0  0  0  0  0  0  0  0  0
   -0.0138   -0.1931    0.0000 C    0  0  0  0  0  0  0  0  0  0  0  0
    2.8481   -0.2034    0.0000 Br   0  0  0  0  0  0  0  0  0  0  0  0
    2.8618    1.4447    0.0000 O    0  0  0  0  0  0  0  0  0  0  0  0
   -2.1619   -1.4413    0.0000 C    0  0  0  0  0  0  0  0  0  0  0  0
    1.4343    2.2826    0.0000 O    0  0  0  0  0  0  0  0  0  0  0  0
    3.5790    1.0206    0.0000 C    0  0  0  0  0  0  0  0  0  0  0  0
    0.7276    2.6826    0.0000 C    0  0  0  0  0  0  0  0  0  0  0  0
  2  1  1  0  0  0  0
  3  5  2  0  0  0  0
  4 14  2  0  0  0  0
  4  3  1  0  0  0  0
  5 15  1  0  0  0  0
  6 13  2  0  0  0  0
  7 24  1  0  0  0  0
  8  7  3  0  0  0  0
  9 18  1  0  0  0  0
 10  1  1  0  0  0  0
 11 22  2  0  0  0  0
 11  6  1  0  0  0  0
 12  1  2  0  0  0  0
 13  2  1  0  0  0  0
 14 16  1  0  0  0  0
 15 16  2  0  0  0  0
 16 19  1  0  0  0  0
 17  2  2  0  0  0  0
 18 11  1  0  0  0  0
 19  9  2  0  0  0  0
 20  4  1  0  0  0  0
 21  3  1  0  0  0  0
 22 17  1  0  0  0  0
 23  5  1  0  0  0  0
 24 21  1  0  0  0  0
 25 23  1  0  0  0  0
M  END
> <CdId>
2101

> <Mol Weight>
405.203

> <Formula>
C16H13BrN4O4

> <Click_ID>
CLK028_B07 __ __ 

$$$$
