CLK030_B03
 OpenBabel03181417552D

 23 25  0  0  0  0  0  0  0  0999 V2000
   -1.1649    2.3882    0.0000 C    0  0  0  0  0  0  0  0  0  0  0  0
   -1.6492    1.7244    0.0000 N    0  0  0  0  0  0  0  0  0  0  0  0
   -0.3382    2.3799    0.0000 N    0  0  0  0  0  0  0  0  0  0  0  0
   -1.6492    3.0563    0.0000 S    0  0  0  0  0  0  0  0  0  0  0  0
   -2.4383    2.8016    0.0000 C    0  0  0  0  0  0  0  0  0  0  0  0
   -2.4383    1.9749    0.0000 C    0  0  0  0  0  0  0  0  0  0  0  0
    0.0752    3.0939    0.0000 C    0  0  0  0  0  0  0  0  0  0  0  0
   -3.1523    3.2149    0.0000 C    0  0  0  0  0  0  0  0  0  0  0  0
    2.1461    3.8037    0.0000 C    0  0  0  0  0  0  0  0  0  0  0  0
   -1.9498    0.3215    0.0000 C    0  0  0  0  0  0  0  0  0  0  0  0
   -2.5010   -0.2923    0.0000 C    0  0  0  0  0  0  0  0  0  0  0  0
    2.6346    3.1273    0.0000 S    0  0  0  0  0  0  0  0  0  0  0  0
    0.9019    3.0939    0.0000 C    0  0  0  0  0  0  0  0  0  0  0  0
   -3.1523    1.5615    0.0000 C    0  0  0  0  0  0  0  0  0  0  0  0
    1.3194    3.8162    0.0000 C    0  0  0  0  0  0  0  0  0  0  0  0
    3.4238    3.3820    0.0000 C    0  0  0  0  0  0  0  0  0  0  0  0
    2.6472    4.4509    0.0000 C    0  0  0  0  0  0  0  0  0  0  0  0
   -1.3987    0.9352    0.0000 C    0  0  0  0  0  0  0  0  0  0  0  0
   -0.3382    3.8079    0.0000 O    0  0  0  0  0  0  0  0  0  0  0  0
    3.4363    4.1879    0.0000 C    0  0  0  0  0  0  0  0  0  0  0  0
   -3.8663    2.8016    0.0000 C    0  0  0  0  0  0  0  0  0  0  0  0
   -3.8663    1.9749    0.0000 C    0  0  0  0  0  0  0  0  0  0  0  0
   -4.5928    3.2192    0.0000 Br   0  0  0  0  0  0  0  0  0  0  0  0
  2  1  1  0  0  0  0
  3  1  2  0  0  0  0
  4  1  1  0  0  0  0
  5  4  1  0  0  0  0
  5  6  2  0  0  0  0
  6  2  1  0  0  0  0
  7  3  1  0  0  0  0
  8  5  1  0  0  0  0
  9 15  1  0  0  0  0
 10 18  1  0  0  0  0
 11 10  3  0  0  0  0
 12  9  1  0  0  0  0
 13  7  1  0  0  0  0
 14  6  1  0  0  0  0
 15 13  2  0  0  0  0
 16 12  1  0  0  0  0
 16 20  2  0  0  0  0
 17  9  2  0  0  0  0
 18  2  1  0  0  0  0
 19  7  2  0  0  0  0
 20 17  1  0  0  0  0
 21  8  2  0  0  0  0
 21 22  1  0  0  0  0
 22 14  2  0  0  0  0
 23 21  1  0  0  0  0
M  END
> <CdId>
2257

> <Mol Weight>
403.316

> <Formula>
C17H11BrN2OS2

> <Click_ID>
CLK030_B03 __ __ 

$$$$
