CLK036_E03
 OpenBabel03181417552D

 27 29  0  0  0  0  0  0  0  0999 V2000
   -1.7279    0.5088    0.0000 C   0  0  0  0  0  0  0  0  0  0  0  0
   -2.4566    0.0962    0.0000 N   0  0  0  0  0  0  0  0  0  0  0  0
   -1.6454    1.3200    0.0000 N   0  0  0  0  0  0  0  0  0  0  0  0
   -0.9716    0.1741    0.0000 S   0  0  0  0  0  0  0  0  0  0  0  0
    1.6409    1.4941    0.0000 S   0  0  0  0  0  0  0  0  0  0  0  0
   -0.4216    0.7838    0.0000 C   0  0  0  0  0  0  0  0  0  0  0  0
   -0.8341    1.4941    0.0000 C   0  0  0  0  0  0  0  0  0  0  0  0
   -2.4612   -0.7334    0.0000 C   0  0  0  0  0  0  0  0  0  0  0  0
    0.8159    1.4941    0.0000 C   0  0  0  0  0  0  0  0  0  0  0  0
    0.4034    0.7838    0.0000 C   0  0  0  0  0  0  0  0  0  0  0  0
   -3.0341    1.6041    0.0000 C   0  0  0  0  0  0  0  0  0  0  0  0
   -3.1716   -1.1459    0.0000 C   0  0  0  0  0  0  0  0  0  0  0  0
   -0.4216    2.2091    0.0000 C   0  0  0  0  0  0  0  0  0  0  0  0
   -3.8179    1.3337    0.0000 C   0  0  0  0  0  0  0  0  0  0  0  0
    1.6409    2.3191    0.0000 O   0  0  0  0  0  0  0  0  0  0  0  0
    2.4659    1.4941    0.0000 O   0  0  0  0  0  0  0  0  0  0  0  0
   -1.7462   -1.1459    0.0000 O   0  0  0  0  0  0  0  0  0  0  0  0
    0.4034    2.2091    0.0000 C   0  0  0  0  0  0  0  0  0  0  0  0
   -3.1716   -1.9709    0.0000 C   0  0  0  0  0  0  0  0  0  0  0  0
   -2.2641    1.8654    0.0000 C   0  0  0  0  0  0  0  0  0  0  0  0
   -3.8866   -2.3834    0.0000 C   0  0  0  0  0  0  0  0  0  0  0  0
    1.6409    0.6691    0.0000 C   0  0  0  0  0  0  0  0  0  0  0  0
   -3.8729   -3.2084    0.0000 S   0  0  0  0  0  0  0  0  0  0  0  0
   -3.8866   -0.7334    0.0000 C   0  0  0  0  0  0  0  0  0  0  0  0
   -4.6016   -1.1459    0.0000 C   0  0  0  0  0  0  0  0  0  0  0  0
   -4.6016   -1.9709    0.0000 C   0  0  0  0  0  0  0  0  0  0  0  0
   -4.5787   -3.6300    0.0000 C   0  0  0  0  0  0  0  0  0  0  0  0
  2  1  2  0  0  0  0
  3  1  1  0  0  0  0
  4  1  1  0  0  0  0
  5  9  1  0  0  0  0
  6  4  1  0  0  0  0
  7  3  1  0  0  0  0
  7  6  2  0  0  0  0
  8  2  1  0  0  0  0
  9 10  2  0  0  0  0
 10  6  1  0  0  0  0
 11 20  1  0  0  0  0
 12  8  1  0  0  0  0
 13  7  1  0  0  0  0
 14 11  3  0  0  0  0
 15  5  2  0  0  0  0
 16  5  2  0  0  0  0
 17  8  2  0  0  0  0
 18 13  2  0  0  0  0
 18  9  1  0  0  0  0
 19 12  1  0  0  0  0
 20  3  1  0  0  0  0
 21 19  2  0  0  0  0
 21 26  1  0  0  0  0
 22  5  1  0  0  0  0
 23 21  1  0  0  0  0
 24 12  2  0  0  0  0
 25 24  1  0  0  0  0
 26 25  2  0  0  0  0
 27 23  1  0  0  0  0
M  END
> <CdId>
2750

> <Mol Weight>
416.537

> <Formula>
C19H16N2O3S3

> <Click_ID>
CLK036_E03 __ __ 

$$$$
