CLK047B05
 OpenBabel03181417552D

 17 18  0  0  0  0  0  0  0  0999 V2000
    0.3750   -0.2167    0.0000 C   0  0  0  0  0  0  0  0  0  0  0  0
    0.3750   -1.0417    0.0000 C   0  0  0  0  0  0  0  0  0  0  0  0
   -0.3375    0.1958    0.0000 C   0  0  0  0  0  0  0  0  0  0  0  0
   -0.3375   -1.4542    0.0000 O   0  0  0  0  0  0  0  0  0  0  0  0
    1.0917    0.1958    0.0000 C   0  0  0  0  0  0  0  0  0  0  0  0
   -1.0542   -0.2167    0.0000 C   0  0  0  0  0  0  0  0  0  0  0  0
   -1.0542   -1.0417    0.0000 C   0  0  0  0  0  0  0  0  0  0  0  0
    1.8042    2.2583    0.0000 C   0  0  0  0  0  0  0  0  0  0  0  0
    1.8042    3.0833    0.0000 C   0  0  0  0  0  0  0  0  0  0  0  0
    1.0917   -1.4542    0.0000 O   0  0  0  0  0  0  0  0  0  0  0  0
    1.8042   -0.2167    0.0000 O   0  0  0  0  0  0  0  0  0  0  0  0
    1.0917    1.0208    0.0000 N   0  0  0  0  0  0  0  0  0  0  0  0
    1.8042    1.4333    0.0000 C   0  0  0  0  0  0  0  0  0  0  0  0
   -1.7667    0.1958    0.0000 C   0  0  0  0  0  0  0  0  0  0  0  0
   -1.7667   -1.4542    0.0000 C   0  0  0  0  0  0  0  0  0  0  0  0
   -2.4833   -1.0417    0.0000 C   0  0  0  0  0  0  0  0  0  0  0  0
   -2.4833   -0.2167    0.0000 C   0  0  0  0  0  0  0  0  0  0  0  0
  2  1  1  0  0  0  0
  3  1  2  0  0  0  0
  4  2  1  0  0  0  0
  5  1  1  0  0  0  0
  6  3  1  0  0  0  0
  7  4  1  0  0  0  0
  7  6  2  0  0  0  0
  8 13  1  0  0  0  0
  9  8  3  0  0  0  0
 10  2  2  0  0  0  0
 11  5  2  0  0  0  0
 12  5  1  0  0  0  0
 13 12  1  0  0  0  0
 14  6  1  0  0  0  0
 15  7  1  0  0  0  0
 16 15  2  0  0  0  0
 16 17  1  0  0  0  0
 17 14  2  0  0  0  0
M  END
> <CdId>
3594

> <Mol Weight>
227.2155

> <Formula>
C13H9NO3

> <Click_ID>
CLK047B05 __ __ 

$$$$
