CLK023_A03
 OpenBabel03181417552D

 26 28  0  0  0  0  0  0  0  0999 V2000
   -0.4435   -2.3415    0.0000 N   0  0  0  0  0  0  0  0  0  0  0  0
   -1.2240   -2.5925    0.0000 C   0  0  0  0  0  0  0  0  0  0  0  0
   -0.4435   -1.5060    0.0000 C   0  0  0  0  0  0  0  0  0  0  0  0
   -1.2240   -1.2550    0.0000 C   0  0  0  0  0  0  0  0  0  0  0  0
   -1.7088   -1.9254    0.0000 N   0  0  0  0  0  0  0  0  0  0  0  0
   -1.4819   -0.4676    0.0000 C   0  0  0  0  0  0  0  0  0  0  0  0
    1.0040    3.3695    0.0000 C   0  0  0  0  0  0  0  0  0  0  0  0
    0.2750   -2.7541    0.0000 C   0  0  0  0  0  0  0  0  0  0  0  0
    1.5541    3.9919    0.0000 C   0  0  0  0  0  0  0  0  0  0  0  0
   -1.4819   -3.3798    0.0000 O   0  0  0  0  0  0  0  0  0  0  0  0
   -0.6257    1.5335    0.0000 C   0  0  0  0  0  0  0  0  0  0  0  0
    0.2304   -1.0177    0.0000 O   0  0  0  0  0  0  0  0  0  0  0  0
   -0.9249    0.1376    0.0000 C   0  0  0  0  0  0  0  0  0  0  0  0
   -1.1827    0.9249    0.0000 C   0  0  0  0  0  0  0  0  0  0  0  0
    0.1754    1.3581    0.0000 C   0  0  0  0  0  0  0  0  0  0  0  0
    0.4298    0.5742    0.0000 C   0  0  0  0  0  0  0  0  0  0  0  0
   -0.1238   -0.0378    0.0000 C   0  0  0  0  0  0  0  0  0  0  0  0
   -0.8733    2.3209    0.0000 O   0  0  0  0  0  0  0  0  0  0  0  0
    0.7255    1.9839    0.0000 O   0  0  0  0  0  0  0  0  0  0  0  0
    0.4642    2.7575    0.0000 C   0  0  0  0  0  0  0  0  0  0  0  0
    0.2750   -3.5793    0.0000 C   0  0  0  0  0  0  0  0  0  0  0  0
    0.9868   -2.3415    0.0000 C   0  0  0  0  0  0  0  0  0  0  0  0
   -0.3198    2.9226    0.0000 C   0  0  0  0  0  0  0  0  0  0  0  0
    0.9868   -3.9919    0.0000 C   0  0  0  0  0  0  0  0  0  0  0  0
    1.7054   -2.7541    0.0000 C   0  0  0  0  0  0  0  0  0  0  0  0
    1.7054   -3.5793    0.0000 C   0  0  0  0  0  0  0  0  0  0  0  0
  2  1  1  0  0  0  0
  3  1  1  0  0  0  0
  4  3  1  0  0  0  0
  4  5  1  0  0  0  0
  5  2  1  0  0  0  0
  6  4  2  0  0  0  0
  7 20  1  0  0  0  0
  8  1  1  0  0  0  0
  9  7  3  0  0  0  0
 10  2  2  0  0  0  0
 11 14  2  0  0  0  0
 11 15  1  0  0  0  0
 12  3  2  0  0  0  0
 13  6  1  0  0  0  0
 14 13  1  0  0  0  0
 15 16  2  0  0  0  0
 16 17  1  0  0  0  0
 17 13  2  0  0  0  0
 18 11  1  0  0  0  0
 19 15  1  0  0  0  0
 20 19  1  0  0  0  0
 21  8  2  0  0  0  0
 22  8  1  0  0  0  0
 23 18  1  0  0  0  0
 24 21  1  0  0  0  0
 24 26  2  0  0  0  0
 25 22  2  0  0  0  0
 26 25  1  0  0  0  0
M  END
> <CdId>
1698

> <Mol Weight>
348.352

> <Formula>
C20H16N2O4

> <Click_ID>
CLK023_A03 __ __ 

$$$$
