CLK006_F06
 OpenBabel03181417552D

 26 29  0  0  0  0  0  0  0  0999 V2000
   -2.0460   -1.6675    0.0000 C   0  0  3  0  0  0  0  0  0  0  0  0
   -1.3474   -1.1644    0.0000 C   0  0  0  0  0  0  0  0  0  0  0  0
   -2.7114   -1.1810    0.0000 C   0  0  0  0  0  0  0  0  0  0  0  0
   -1.3307   -2.0834    0.0000 C   0  0  0  0  0  0  0  0  0  0  0  0
   -1.6301   -0.3909    0.0000 C   0  0  0  0  0  0  0  0  0  0  0  0
   -2.4577   -0.3950    0.0000 N   0  0  0  0  0  0  0  0  0  0  0  0
   -1.3224   -2.9110    0.0000 C   0  0  0  0  0  0  0  0  0  0  0  0
   -2.0418   -3.3227    0.0000 O   0  0  0  0  0  0  0  0  0  0  0  0
   -2.7613   -2.0917    0.0000 C   0  0  0  0  0  0  0  0  0  0  0  0
   -2.7571   -2.9193    0.0000 C   0  0  0  0  0  0  0  0  0  0  0  0
   -0.6155   -2.4993    0.0000 C   0  0  0  0  0  0  0  0  0  0  0  0
   -0.5447   -1.3017    0.0000 C   0  0  0  0  0  0  0  0  0  0  0  0
    0.0956   -2.9110    0.0000 N   0  0  0  0  0  0  0  0  0  0  0  0
   -2.6032    1.0230    0.0000 C   0  0  0  0  0  0  0  0  0  0  0  0
   -2.2664    1.7757    0.0000 C   0  0  0  0  0  0  0  0  0  0  0  0
   -3.5431   -1.1894    0.0000 O   0  0  0  0  0  0  0  0  0  0  0  0
   -2.9401    0.2745    0.0000 C   0  0  0  0  0  0  0  0  0  0  0  0
   -0.5988   -3.3268    0.0000 N   0  0  0  0  0  0  0  0  0  0  0  0
    0.0541   -1.8672    0.0000 O   0  0  0  0  0  0  0  0  0  0  0  0
   -1.1103    0.2412    0.0000 C   0  0  0  0  0  0  0  0  0  0  0  0
   -3.4765   -1.6759    0.0000 C   0  0  0  0  0  0  0  0  0  0  0  0
   -3.4640   -3.3352    0.0000 C   0  0  0  0  0  0  0  0  0  0  0  0
   -0.0125   -0.6737    0.0000 C   0  0  0  0  0  0  0  0  0  0  0  0
   -0.2994    0.0998    0.0000 C   0  0  0  0  0  0  0  0  0  0  0  0
   -4.1918   -2.1001    0.0000 C   0  0  0  0  0  0  0  0  0  0  0  0
   -4.1876   -2.9235    0.0000 C   0  0  0  0  0  0  0  0  0  0  0  0
  2  1  1  0  0  0  0
  3  1  1  0  0  0  0
  4  1  1  0  0  0  0
  5  2  2  0  0  0  0
  6  3  1  0  0  0  0
  6  5  1  0  0  0  0
  7  4  2  0  0  0  0
  8 10  1  0  0  0  0
  8  7  1  0  0  0  0
  9  1  1  0  0  0  0
 10  9  1  0  0  0  0
 11  4  1  0  0  0  0
 12  2  1  0  0  0  0
 13 11  3  0  0  0  0
 14 17  1  0  0  0  0
 15 14  3  0  0  0  0
 16  3  2  0  0  0  0
 17  6  1  0  0  0  0
 18  7  1  0  0  0  0
 19 12  2  0  0  0  0
 20  5  1  0  0  0  0
 21  9  2  0  0  0  0
 22 10  2  0  0  0  0
 23 12  1  0  0  0  0
 24 20  1  0  0  0  0
 24 23  1  0  0  0  0
 25 21  1  0  0  0  0
 26 25  2  0  0  0  0
 26 22  1  0  0  0  0
M  END
> <CdId>
455

> <Mol Weight>
345.3514

> <Formula>
C20H15N3O3

> <Click_ID>
CLK006_F06 __ __ 

$$$$
