CLK046F06
 OpenBabel03181417552D

 18 19  0  0  0  0  0  0  0  0999 V2000
   -1.1917   -0.0458    0.0000 N   0  0  0  0  0  0  0  0  0  0  0  0
   -1.1917   -1.3792    0.0000 S   0  0  0  0  0  0  0  0  0  0  0  0
   -0.7083   -0.7125    0.0000 C   0  0  0  0  0  0  0  0  0  0  0  0
   -1.9792   -0.3000    0.0000 C   0  0  0  0  0  0  0  0  0  0  0  0
   -1.9792   -1.1250    0.0000 C   0  0  0  0  0  0  0  0  0  0  0  0
    3.8292    1.4292    0.0000 C   0  0  0  0  0  0  0  0  0  0  0  0
    4.6542    1.4292    0.0000 C   0  0  0  0  0  0  0  0  0  0  0  0
    1.7667    0.7167    0.0000 C   0  0  0  0  0  0  0  0  0  0  0  0
    1.3542    1.4292    0.0000 O   0  0  0  0  0  0  0  0  0  0  0  0
    2.5917    0.7167    0.0000 N   0  0  0  0  0  0  0  0  0  0  0  0
    3.0042    1.4292    0.0000 C   0  0  0  0  0  0  0  0  0  0  0  0
    0.1167   -0.7125    0.0000 C   0  0  0  0  0  0  0  0  0  0  0  0
    0.5292    0.0000    0.0000 C   0  0  0  0  0  0  0  0  0  0  0  0
    1.3542    0.0000    0.0000 C   0  0  0  0  0  0  0  0  0  0  0  0
   -2.6917    0.1125    0.0000 C   0  0  0  0  0  0  0  0  0  0  0  0
   -2.6917   -1.5375    0.0000 C   0  0  0  0  0  0  0  0  0  0  0  0
   -3.4042   -1.1250    0.0000 C   0  0  0  0  0  0  0  0  0  0  0  0
   -3.4042   -0.3000    0.0000 C   0  0  0  0  0  0  0  0  0  0  0  0
  2  3  1  0  0  0  0
  2  5  1  0  0  0  0
  3  1  2  0  0  0  0
  4  1  1  0  0  0  0
  5  4  2  0  0  0  0
  6 11  1  0  0  0  0
  7  6  3  0  0  0  0
  8 14  1  0  0  0  0
  9  8  2  0  0  0  0
 10  8  1  0  0  0  0
 11 10  1  0  0  0  0
 12  3  1  0  0  0  0
 13 12  1  0  0  0  0
 14 13  1  0  0  0  0
 15  4  1  0  0  0  0
 16  5  1  0  0  0  0
 17 16  2  0  0  0  0
 17 18  1  0  0  0  0
 18 15  2  0  0  0  0
M  END
> <CdId>
3526

> <Mol Weight>
258.339

> <Formula>
C14H14N2OS

> <Click_ID>
CLK046F06 __ __ 

$$$$
