CLK050G11
 OpenBabel03181417552D

 21 22  0  0  0  0  0  0  0  0999 V2000
   -0.2625    0.0958    0.0000 N   0  0  0  0  0  0  0  0  0  0  0  0
   -0.7458    0.7667    0.0000 C   0  0  0  0  0  0  0  0  0  0  0  0
    0.5250    1.1792    0.0000 C   0  0  3  0  0  0  0  0  0  0  0  0
    0.5250    0.3542    0.0000 C   0  0  0  0  0  0  0  0  0  0  0  0
   -0.5167   -0.6875    0.0000 C   0  0  0  0  0  0  0  0  0  0  0  0
    1.1917    1.6625    0.0000 C   0  0  0  0  0  0  0  0  0  0  0  0
   -0.2625    1.4333    0.0000 C   0  0  0  0  0  0  0  0  0  0  0  0
   -1.3250   -0.8583    0.0000 C   0  0  0  0  0  0  0  0  0  0  0  0
    3.3667    1.4750    0.0000 C   0  0  0  0  0  0  0  0  0  0  0  0
    4.1208    1.1417    0.0000 C   0  0  0  0  0  0  0  0  0  0  0  0
   -1.5792   -1.6417    0.0000 C   0  0  0  0  0  0  0  0  0  0  0  0
   -1.5708    0.7667    0.0000 O   0  0  0  0  0  0  0  0  0  0  0  0
    1.1042    2.4833    0.0000 O   0  0  0  0  0  0  0  0  0  0  0  0
    1.9458    1.3250    0.0000 N   0  0  0  0  0  0  0  0  0  0  0  0
   -2.3833   -1.8167    0.0000 C   0  0  0  0  0  0  0  0  0  0  0  0
    2.6125    1.8125    0.0000 C   0  0  0  0  0  0  0  0  0  0  0  0
    0.0375   -1.3000    0.0000 C   0  0  0  0  0  0  0  0  0  0  0  0
   -1.0250   -2.2583    0.0000 C   0  0  0  0  0  0  0  0  0  0  0  0
   -0.2208   -2.0833    0.0000 C   0  0  0  0  0  0  0  0  0  0  0  0
   -2.9375   -1.2000    0.0000 C   0  0  0  0  0  0  0  0  0  0  0  0
   -2.6417   -2.6000    0.0000 C   0  0  0  0  0  0  0  0  0  0  0  0
  2  1  1  0  0  0  0
  3  4  1  0  0  0  0
  4  1  1  0  0  0  0
  5  1  1  0  0  0  0
  6  3  1  0  0  0  0
  7  2  1  0  0  0  0
  7  3  1  0  0  0  0
  8  5  1  0  0  0  0
  9 16  1  0  0  0  0
 10  9  3  0  0  0  0
 11  8  2  0  0  0  0
 12  2  2  0  0  0  0
 13  6  2  0  0  0  0
 14  6  1  0  0  0  0
 15 11  1  0  0  0  0
 16 14  1  0  0  0  0
 17  5  2  0  0  0  0
 18 11  1  0  0  0  0
 19 17  1  0  0  0  0
 19 18  2  0  0  0  0
 20 15  1  0  0  0  0
 21 15  1  0  0  0  0
M  END
> <CdId>
3887

> <Mol Weight>
284.3529

> <Formula>
C17H20N2O2

> <Click_ID>
CLK050G11 __ __ 

$$$$
