CLK017_E04
 OpenBabel03181417552D

 29 33  0  0  0  0  0  0  0  0999 V2000
    0.7787   -0.2626    0.0000 N   0  0  0  0  0  0  0  0  0  0  0  0
    1.4929   -0.6635    0.0000 C   0  0  0  0  0  0  0  0  0  0  0  0
    0.0738   -1.4929    0.0000 C   0  0  0  0  0  0  0  0  0  0  0  0
    1.4929   -1.4929    0.0000 N   0  0  0  0  0  0  0  0  0  0  0  0
    0.0738   -0.6635    0.0000 C   0  0  0  0  0  0  0  0  0  0  0  0
    0.7787   -1.9214    0.0000 C   0  0  0  0  0  0  0  0  0  0  0  0
    2.1058   -0.1291    0.0000 N   0  0  0  0  0  0  0  0  0  0  0  0
    0.9584    0.5345    0.0000 C   0  0  0  0  0  0  0  0  0  0  0  0
   -0.6312   -1.9214    0.0000 C   0  0  0  0  0  0  0  0  0  0  0  0
    1.7740    0.6036    0.0000 N   0  0  0  0  0  0  0  0  0  0  0  0
   -0.6312   -0.2626    0.0000 C   0  0  0  0  0  0  0  0  0  0  0  0
   -1.3408   -0.6635    0.0000 C   0  0  0  0  0  0  0  0  0  0  0  0
   -1.3408   -1.4929    0.0000 C   0  0  0  0  0  0  0  0  0  0  0  0
   -0.9215    1.6588    0.0000 C   0  0  0  0  0  0  0  0  0  0  0  0
    0.7787   -2.7508    0.0000 O   0  0  0  0  0  0  0  0  0  0  0  0
   -1.4514    2.2900    0.0000 C   0  0  0  0  0  0  0  0  0  0  0  0
    0.4285    1.1611    0.0000 S   0  0  0  0  0  0  0  0  0  0  0  0
    2.2163   -1.9214    0.0000 C   0  0  0  0  0  0  0  0  0  0  0  0
   -1.4330   -2.1564    0.0000 C   0  0  0  0  0  0  0  0  0  0  0  0
   -0.0138   -2.4513    0.0000 C   0  0  0  0  0  0  0  0  0  0  0  0
   -0.3870    1.0321    0.0000 C   0  0  0  0  0  0  0  0  0  0  0  0
   -0.6312    0.5667    0.0000 C   0  0  0  0  0  0  0  0  0  0  0  0
   -2.0458   -0.2626    0.0000 C   0  0  0  0  0  0  0  0  0  0  0  0
    2.2163   -2.7831    0.0000 C   0  0  0  0  0  0  0  0  0  0  0  0
   -0.1889   -3.2807    0.0000 C   0  0  0  0  0  0  0  0  0  0  0  0
   -1.6035   -2.9490    0.0000 C   0  0  0  0  0  0  0  0  0  0  0  0
   -1.3408    0.9630    0.0000 C   0  0  0  0  0  0  0  0  0  0  0  0
   -2.0458    0.5667    0.0000 C   0  0  0  0  0  0  0  0  0  0  0  0
   -0.9630   -3.5434    0.0000 C   0  0  0  0  0  0  0  0  0  0  0  0
  2  1  1  0  0  0  0
  3  5  2  0  0  0  0
  4  2  1  0  0  0  0
  4  6  1  0  0  0  0
  5  1  1  0  0  0  0
  6  3  1  0  0  0  0
  7  2  2  0  0  0  0
  8  1  1  0  0  0  0
  9  3  1  0  0  0  0
  9 13  1  0  0  0  0
 10  8  2  0  0  0  0
 10  7  1  0  0  0  0
 11  5  1  0  0  0  0
 12 11  2  0  0  0  0
 13 12  1  0  0  0  0
 14 21  1  0  0  0  0
 15  6  2  0  0  0  0
 16 14  3  0  0  0  0
 17  8  1  0  0  0  0
 18  4  1  0  0  0  0
 19  9  1  0  0  0  0
 20  9  1  0  0  0  0
 21 17  1  0  0  0  0
 22 11  1  0  0  0  0
 23 12  1  0  0  0  0
 24 18  1  0  0  0  0
 25 20  1  0  0  0  0
 26 19  1  0  0  0  0
 27 22  2  0  0  0  0
 28 27  1  0  0  0  0
 28 23  2  0  0  0  0
 29 25  1  0  0  0  0
 29 26  1  0  0  0  0
M  END
> <CdId>
1279

> <Mol Weight>
404.528

> <Formula>
C23H24N4OS

> <Click_ID>
CLK017_E04 __ __ 

$$$$
