CLK009_F06
 OpenBabel03181417552D

 39 43  0  0  0  0  0  0  0  0999 V2000
   -0.0381   -0.5580    0.0000 N   0  0  0  0  0  0  0  0  0  0  0  0
   -0.7105   -1.0301    0.0000 C   0  0  0  0  0  0  0  0  0  0  0  0
    0.5914   -1.0492    0.0000 C   0  0  0  0  0  0  0  0  0  0  0  0
   -0.0381    0.2289    0.0000 C   0  0  0  0  0  0  0  0  0  0  0  0
    0.3291   -1.7789    0.0000 C   0  0  0  0  0  0  0  0  0  0  0  0
   -0.4721   -1.7789    0.0000 C   0  0  0  0  0  0  0  0  0  0  0  0
    1.3783    1.8837    0.0000 C   0  0  0  0  0  0  0  0  0  0  0  0
   -1.4688    1.8837    0.0000 C   0  0  0  0  0  0  0  0  0  0  0  0
   -0.7678    1.4879    0.0000 C   0  0  0  0  0  0  0  0  0  0  0  0
    0.6724    1.4879    0.0000 C   0  0  0  0  0  0  0  0  0  0  0  0
   -0.7678    0.6438    0.0000 C   0  0  0  0  0  0  0  0  0  0  0  0
    0.6724    0.6438    0.0000 C   0  0  0  0  0  0  0  0  0  0  0  0
    2.0602    1.4879    0.0000 N   0  0  0  0  0  0  0  0  0  0  0  0
   -2.1412    1.5117    0.0000 N   0  0  0  0  0  0  0  0  0  0  0  0
   -0.0381    1.8837    0.0000 C   0  0  0  0  0  0  0  0  0  0  0  0
    4.9407    1.4831    0.0000 C   0  0  0  0  0  0  0  0  0  0  0  0
   -4.9788    1.6262    0.0000 C   0  0  0  0  0  0  0  0  0  0  0  0
    5.6513    1.8885    0.0000 C   0  0  0  0  0  0  0  0  0  0  0  0
   -5.6894    2.0745    0.0000 C   0  0  0  0  0  0  0  0  0  0  0  0
   -1.4879   -0.7869    0.0000 O   0  0  0  0  0  0  0  0  0  0  0  0
    1.3926   -0.8346    0.0000 O   0  0  0  0  0  0  0  0  0  0  0  0
   -1.4688    2.7278    0.0000 O   0  0  0  0  0  0  0  0  0  0  0  0
    1.3735    2.7040    0.0000 O   0  0  0  0  0  0  0  0  0  0  0  0
   -2.7851    1.9982    0.0000 C   0  0  0  0  0  0  0  0  0  0  0  0
    2.7661    1.8837    0.0000 C   0  0  0  0  0  0  0  0  0  0  0  0
   -4.2587    2.0268    0.0000 C   0  0  0  0  0  0  0  0  0  0  0  0
    4.2349    1.8885    0.0000 C   0  0  0  0  0  0  0  0  0  0  0  0
   -3.5624    1.5833    0.0000 C   0  0  0  0  0  0  0  0  0  0  0  0
    3.4957    1.4831    0.0000 C   0  0  0  0  0  0  0  0  0  0  0  0
    0.7488   -2.5037    0.0000 C   0  0  0  0  0  0  0  0  0  0  0  0
   -0.8965   -2.5037    0.0000 C   0  0  0  0  0  0  0  0  0  0  0  0
    3.4766    3.0998    0.0000 C   0  0  0  0  0  0  0  0  0  0  0  0
   -3.5147    3.2286    0.0000 C   0  0  0  0  0  0  0  0  0  0  0  0
    2.7661    2.6897    0.0000 C   0  0  0  0  0  0  0  0  0  0  0  0
   -2.7851    2.7994    0.0000 C   0  0  0  0  0  0  0  0  0  0  0  0
    4.2349    2.7135    0.0000 C   0  0  0  0  0  0  0  0  0  0  0  0
   -4.2730    2.8185    0.0000 C   0  0  0  0  0  0  0  0  0  0  0  0
    0.3434   -3.2239    0.0000 C   0  0  0  0  0  0  0  0  0  0  0  0
   -0.4959   -3.2239    0.0000 C   0  0  0  0  0  0  0  0  0  0  0  0
  2  1  1  0  0  0  0
  3  1  1  0  0  0  0
  4  1  1  0  0  0  0
  5  3  1  0  0  0  0
  5  6  2  0  0  0  0
  6  2  1  0  0  0  0
  7 10  1  0  0  0  0
  8  9  1  0  0  0  0
  9 11  1  0  0  0  0
 10 12  2  0  0  0  0
 11  4  2  0  0  0  0
 12  4  1  0  0  0  0
 13  7  1  0  0  0  0
 14  8  1  0  0  0  0
 15 10  1  0  0  0  0
 15  9  2  0  0  0  0
 16 27  1  0  0  0  0
 17 26  1  0  0  0  0
 18 16  3  0  0  0  0
 19 17  3  0  0  0  0
 20  2  2  0  0  0  0
 21  3  2  0  0  0  0
 22  8  2  0  0  0  0
 23  7  2  0  0  0  0
 24 14  1  0  0  0  0
 25 13  1  0  0  0  0
 26 28  2  0  0  0  0
 27 29  1  0  0  0  0
 28 24  1  0  0  0  0
 29 25  2  0  0  0  0
 30  5  1  0  0  0  0
 31  6  1  0  0  0  0
 32 34  2  0  0  0  0
 33 35  1  0  0  0  0
 34 25  1  0  0  0  0
 35 24  2  0  0  0  0
 36 32  1  0  0  0  0
 36 27  2  0  0  0  0
 37 33  2  0  0  0  0
 37 26  1  0  0  0  0
 38 30  2  0  0  0  0
 38 39  1  0  0  0  0
 39 31  2  0  0  0  0
M  END
> <CdId>
651

> <Mol Weight>
509.511

> <Formula>
C32H19N3O4

> <Click_ID>
CLK009_F06 __ __ 

$$$$
