CLK017_G03
 OpenBabel03181417552D

 26 29  0  0  0  0  0  0  0  0999 V2000
    2.7835   -2.5221    0.0000 C   0  0  0  0  0  0  0  0  0  0  0  0
    2.0544   -1.2978    0.0000 C   0  0  0  0  0  0  0  0  0  0  0  0
    2.0682   -2.1186    0.0000 C   0  0  3  0  0  0  0  0  0  0  0  0
    2.7560   -0.8804    0.0000 C   0  0  0  0  0  0  0  0  0  0  0  0
    3.4943   -2.0957    0.0000 C   0  0  0  0  0  0  0  0  0  0  0  0
    3.4805   -1.2794    0.0000 O   0  0  0  0  0  0  0  0  0  0  0  0
    1.3528   -2.5359    0.0000 C   0  0  0  0  0  0  0  0  0  0  0  0
    1.3390   -0.8942    0.0000 C   0  0  0  0  0  0  0  0  0  0  0  0
    2.7927   -3.3338    0.0000 C   0  0  0  0  0  0  0  0  0  0  0  0
   -2.2286   -2.1782    0.0000 C   0  0  0  0  0  0  0  0  0  0  0  0
   -2.9394   -2.6047    0.0000 C   0  0  0  0  0  0  0  0  0  0  0  0
    0.6374   -2.1369    0.0000 C   0  0  0  0  0  0  0  0  0  0  0  0
    2.0773   -3.7694    0.0000 O   0  0  0  0  0  0  0  0  0  0  0  0
    0.6237   -1.3115    0.0000 O   0  0  0  0  0  0  0  0  0  0  0  0
    2.7514   -0.0459    0.0000 C   0  0  0  0  0  0  0  0  0  0  0  0
    4.2142   -2.5038    0.0000 C   0  0  0  0  0  0  0  0  0  0  0  0
   -0.0779   -2.5634    0.0000 C   0  0  0  0  0  0  0  0  0  0  0  0
    1.3666   -3.3613    0.0000 C   0  0  0  0  0  0  0  0  0  0  0  0
   -1.5086   -2.5772    0.0000 C   0  0  0  0  0  0  0  0  0  0  0  0
   -0.7933   -2.1598    0.0000 O   0  0  0  0  0  0  0  0  0  0  0  0
    3.5126   -3.7465    0.0000 C   0  0  0  0  0  0  0  0  0  0  0  0
    1.3253   -0.0734    0.0000 C   0  0  0  0  0  0  0  0  0  0  0  0
    4.2234   -3.3292    0.0000 C   0  0  0  0  0  0  0  0  0  0  0  0
    2.0269    0.3439    0.0000 C   0  0  0  0  0  0  0  0  0  0  0  0
    0.6603   -3.7878    0.0000 C   0  0  0  0  0  0  0  0  0  0  0  0
   -0.0642   -3.3888    0.0000 C   0  0  0  0  0  0  0  0  0  0  0  0
  2  3  1  0  0  0  0
  2  4  2  0  0  0  0
  3  1  1  0  0  0  0
  4  6  1  0  0  0  0
  5  1  2  0  0  0  0
  6  5  1  0  0  0  0
  7  3  1  0  0  0  0
  8  2  1  0  0  0  0
  9  1  1  0  0  0  0
 10 19  1  0  0  0  0
 11 10  3  0  0  0  0
 12  7  1  0  0  0  0
 13  9  2  0  0  0  0
 14  8  2  0  0  0  0
 15  4  1  0  0  0  0
 16  5  1  0  0  0  0
 17 12  2  0  0  0  0
 18  7  2  0  0  0  0
 19 20  1  0  0  0  0
 20 17  1  0  0  0  0
 21  9  1  0  0  0  0
 22  8  1  0  0  0  0
 23 21  1  0  0  0  0
 23 16  1  0  0  0  0
 24 15  1  0  0  0  0
 24 22  1  0  0  0  0
 25 18  1  0  0  0  0
 26 25  2  0  0  0  0
 26 17  1  0  0  0  0
M  END
> <CdId>
1298

> <Mol Weight>
348.3918

> <Formula>
C22H20O4

> <Click_ID>
CLK017_G03 __ __ 

$$$$
