CLK050E06
 OpenBabel03181417552D

 24 26  0  0  0  0  0  0  0  0999 V2000
   -0.1500    0.7583    0.0000 S   0  0  0  0  0  0  0  0  0  0  0  0
   -0.8667    1.1708    0.0000 N   0  0  0  0  0  0  0  0  0  0  0  0
   -2.2958    1.1708    0.0000 C   0  0  0  0  0  0  0  0  0  0  0  0
    0.5625    0.3458    0.0000 C   0  0  0  0  0  0  0  0  0  0  0  0
   -2.2958    1.9958    0.0000 C   0  0  0  0  0  0  0  0  0  0  0  0
   -1.5792    0.7583    0.0000 C   0  0  0  0  0  0  0  0  0  0  0  0
    1.2792   -1.7167    0.0000 C   0  0  0  0  0  0  0  0  0  0  0  0
   -3.0792    2.2500    0.0000 S   0  0  0  0  0  0  0  0  0  0  0  0
   -0.5625    0.0458    0.0000 O   0  0  0  0  0  0  0  0  0  0  0  0
    0.2625    1.4708    0.0000 O   0  0  0  0  0  0  0  0  0  0  0  0
    0.5625   -0.4792    0.0000 C   0  0  0  0  0  0  0  0  0  0  0  0
    2.7042   -3.3667    0.0000 C   0  0  0  0  0  0  0  0  0  0  0  0
    1.2792   -0.8917    0.0000 C   0  0  0  0  0  0  0  0  0  0  0  0
    3.4208   -3.7792    0.0000 C   0  0  0  0  0  0  0  0  0  0  0  0
   -1.5792    2.4083    0.0000 C   0  0  0  0  0  0  0  0  0  0  0  0
   -0.8667    1.9958    0.0000 C   0  0  0  0  0  0  0  0  0  0  0  0
   -3.5667    1.5833    0.0000 C   0  0  0  0  0  0  0  0  0  0  0  0
   -3.0792    0.9167    0.0000 C   0  0  0  0  0  0  0  0  0  0  0  0
    0.5625   -2.1292    0.0000 O   0  0  0  0  0  0  0  0  0  0  0  0
    1.9917   -2.1292    0.0000 N   0  0  0  0  0  0  0  0  0  0  0  0
    1.9917   -2.9542    0.0000 C   0  0  0  0  0  0  0  0  0  0  0  0
    1.2792    0.7583    0.0000 C   0  0  0  0  0  0  0  0  0  0  0  0
    1.9917   -0.4792    0.0000 C   0  0  0  0  0  0  0  0  0  0  0  0
    1.9917    0.3458    0.0000 C   0  0  0  0  0  0  0  0  0  0  0  0
  2  1  1  0  0  0  0
  3  6  1  0  0  0  0
  4  1  1  0  0  0  0
  5  3  2  0  0  0  0
  5 15  1  0  0  0  0
  6  2  1  0  0  0  0
  7 13  1  0  0  0  0
  8  5  1  0  0  0  0
  9  1  2  0  0  0  0
 10  1  2  0  0  0  0
 11  4  1  0  0  0  0
 12 21  1  0  0  0  0
 13 11  2  0  0  0  0
 14 12  3  0  0  0  0
 15 16  1  0  0  0  0
 16  2  1  0  0  0  0
 17 18  2  0  0  0  0
 17  8  1  0  0  0  0
 18  3  1  0  0  0  0
 19  7  2  0  0  0  0
 20  7  1  0  0  0  0
 21 20  1  0  0  0  0
 22  4  2  0  0  0  0
 23 13  1  0  0  0  0
 24 22  1  0  0  0  0
 24 23  2  0  0  0  0
M  END
> <CdId>
3845

> <Mol Weight>
360.451

> <Formula>
C17H16N2O3S2

> <Click_ID>
CLK050E06 __ __ 

$$$$
