CLK026_D07
 OpenBabel03181417552D

 26 28  0  0  0  0  0  0  0  0999 V2000
   -3.1289   -0.4313    0.0000 N    0  0  0  0  0  0  0  0  0  0  0  0
   -3.4645   -1.1913    0.0000 C    0  0  0  0  0  0  0  0  0  0  0  0
   -2.1362   -1.3146    0.0000 C    0  0  0  0  0  0  0  0  0  0  0  0
   -2.3073   -0.5067    0.0000 C    0  0  0  0  0  0  0  0  0  0  0  0
   -2.8413   -1.7356    0.0000 S    0  0  0  0  0  0  0  0  0  0  0  0
    3.8444   -0.7668    0.0000 N    0  0  0  0  0  0  0  0  0  0  0  0
    0.5478   -0.7634    0.0000 C    0  0  0  0  0  0  0  0  0  0  0  0
   -1.3762   -1.6500    0.0000 C    0  0  0  0  0  0  0  0  0  0  0  0
    1.3727   -0.7565    0.0000 C    0  0  0  0  0  0  0  0  0  0  0  0
    0.0616   -1.4207    0.0000 O    0  0  0  0  0  0  0  0  0  0  0  0
   -0.6984   -1.1640    0.0000 C    0  0  0  0  0  0  0  0  0  0  0  0
    1.7870   -0.0479    0.0000 C    0  0  0  0  0  0  0  0  0  0  0  0
    3.0159   -0.7668    0.0000 C    0  0  0  0  0  0  0  0  0  0  0  0
    2.6086   -0.0479    0.0000 C    0  0  0  0  0  0  0  0  0  0  0  0
    0.0719   -0.0959    0.0000 C    0  0  0  0  0  0  0  0  0  0  0  0
   -3.1461    0.9962    0.0000 C    0  0  0  0  0  0  0  0  0  0  0  0
   -0.7086   -0.3595    0.0000 C    0  0  0  0  0  0  0  0  0  0  0  0
    1.8007   -1.4754    0.0000 C    0  0  0  0  0  0  0  0  0  0  0  0
   -2.7797    1.7391    0.0000 C    0  0  0  0  0  0  0  0  0  0  0  0
    4.2552   -1.4892    0.0000 O    0  0  0  0  0  0  0  0  0  0  0  0
   -4.2621   -1.3625    0.0000 O    0  0  0  0  0  0  0  0  0  0  0  0
    4.2586   -0.0719    0.0000 O    0  0  0  0  0  0  0  0  0  0  0  0
   -1.7733    0.1130    0.0000 O    0  0  0  0  0  0  0  0  0  0  0  0
   -3.5500    0.2738    0.0000 C    0  0  0  0  0  0  0  0  0  0  0  0
    2.6086   -1.4721    0.0000 C    0  0  0  0  0  0  0  0  0  0  0  0
    1.3796    0.6607    0.0000 Cl   0  0  0  0  0  0  0  0  0  0  0  0
  2  1  1  0  0  0  0
  3  4  1  0  0  0  0
  4  1  1  0  0  0  0
  5  2  1  0  0  0  0
  5  3  1  0  0  0  0
  6 13  1  0  0  0  0
  7 10  1  0  0  0  0
  8  3  2  0  0  0  0
  9  7  1  0  0  0  0
 10 11  1  0  0  0  0
 11  8  1  0  0  0  0
 12  9  1  0  0  0  0
 13 25  2  0  0  0  0
 14 12  2  0  0  0  0
 14 13  1  0  0  0  0
 15 17  1  0  0  0  0
 15  7  2  0  0  0  0
 16 24  1  0  0  0  0
 17 11  2  0  0  0  0
 18  9  2  0  0  0  0
 19 16  3  0  0  0  0
 20  6  1  0  0  0  0
 21  2  2  0  0  0  0
 22  6  2  0  0  0  0
 23  4  2  0  0  0  0
 24  1  1  0  0  0  0
 25 18  1  0  0  0  0
 26 12  1  0  0  0  0
M  END
> <CdId>
1972

> <Mol Weight>
388.782

> <Formula>
C17H9ClN2O5S

> <Click_ID>
CLK026_D07 __ __ 

$$$$
