CLK039G08
 OpenBabel03181417552D

 18 19  0  0  0  0  0  0  0  0999 V2000
   -0.0875    0.4000    0.0000 N   0  0  0  0  0  0  0  0  0  0  0  0
   -0.5708    1.0667    0.0000 C   0  0  0  0  0  0  0  0  0  0  0  0
   -0.5708   -0.2667    0.0000 C   0  0  0  0  0  0  0  0  0  0  0  0
   -1.3542   -0.0125    0.0000 C   0  0  0  0  0  0  0  0  0  0  0  0
   -1.3542    0.8125    0.0000 C   0  0  0  0  0  0  0  0  0  0  0  0
    0.7375    0.4000    0.0000 C   0  0  0  0  0  0  0  0  0  0  0  0
    3.2125   -1.0292    0.0000 C   0  0  0  0  0  0  0  0  0  0  0  0
    4.0375   -1.0292    0.0000 C   0  0  0  0  0  0  0  0  0  0  0  0
    1.1500   -0.3167    0.0000 C   0  0  0  0  0  0  0  0  0  0  0  0
   -0.3167    1.8500    0.0000 O   0  0  0  0  0  0  0  0  0  0  0  0
   -0.3167   -1.0542    0.0000 O   0  0  0  0  0  0  0  0  0  0  0  0
    0.7375   -1.0292    0.0000 O   0  0  0  0  0  0  0  0  0  0  0  0
    1.9750   -0.3167    0.0000 N   0  0  0  0  0  0  0  0  0  0  0  0
    2.3875   -1.0292    0.0000 C   0  0  0  0  0  0  0  0  0  0  0  0
   -2.0708   -0.4250    0.0000 C   0  0  0  0  0  0  0  0  0  0  0  0
   -2.0708    1.2250    0.0000 C   0  0  0  0  0  0  0  0  0  0  0  0
   -2.7833    0.8125    0.0000 C   0  0  0  0  0  0  0  0  0  0  0  0
   -2.7833   -0.0125    0.0000 C   0  0  0  0  0  0  0  0  0  0  0  0
  2  1  1  0  0  0  0
  3  1  1  0  0  0  0
  4  3  1  0  0  0  0
  4  5  2  0  0  0  0
  5  2  1  0  0  0  0
  6  1  1  0  0  0  0
  7 14  1  0  0  0  0
  8  7  3  0  0  0  0
  9  6  1  0  0  0  0
 10  2  2  0  0  0  0
 11  3  2  0  0  0  0
 12  9  2  0  0  0  0
 13  9  1  0  0  0  0
 14 13  1  0  0  0  0
 15  4  1  0  0  0  0
 16  5  1  0  0  0  0
 17 16  2  0  0  0  0
 18 15  2  0  0  0  0
 18 17  1  0  0  0  0
M  END
> <CdId>
2983

> <Mol Weight>
242.2301

> <Formula>
C13H10N2O3

> <Click_ID>
CLK039G08 __ __ 

$$$$
