CLK039B07
 OpenBabel03181417552D

 20 21  0  0  0  0  0  0  0  0999 V2000
   -0.2167    1.3958    0.0000 S   0  0  0  0  0  0  0  0  0  0  0  0
   -0.2167    2.2208    0.0000 N   0  0  0  0  0  0  0  0  0  0  0  0
   -0.2167    0.5708    0.0000 C   0  0  0  0  0  0  0  0  0  0  0  0
   -0.2167   -1.9042    0.0000 C   0  0  0  0  0  0  0  0  0  0  0  0
    0.6083    1.3958    0.0000 O   0  0  0  0  0  0  0  0  0  0  0  0
   -1.0417    1.3958    0.0000 O   0  0  0  0  0  0  0  0  0  0  0  0
    1.2125   -3.5542    0.0000 C   0  0  0  0  0  0  0  0  0  0  0  0
    1.9250   -3.9667    0.0000 C   0  0  0  0  0  0  0  0  0  0  0  0
   -0.2167   -1.0792    0.0000 C   0  0  0  0  0  0  0  0  0  0  0  0
   -0.9292   -2.3167    0.0000 O   0  0  0  0  0  0  0  0  0  0  0  0
    0.5000    0.1583    0.0000 C   0  0  0  0  0  0  0  0  0  0  0  0
   -0.9292    0.1583    0.0000 C   0  0  0  0  0  0  0  0  0  0  0  0
    0.5000   -0.6667    0.0000 C   0  0  0  0  0  0  0  0  0  0  0  0
   -0.9292   -0.6667    0.0000 C   0  0  0  0  0  0  0  0  0  0  0  0
    0.5000   -2.3167    0.0000 N   0  0  0  0  0  0  0  0  0  0  0  0
    0.5000   -3.1417    0.0000 C   0  0  0  0  0  0  0  0  0  0  0  0
    0.4500    2.7042    0.0000 C   0  0  0  0  0  0  0  0  0  0  0  0
   -0.8833    2.7042    0.0000 C   0  0  0  0  0  0  0  0  0  0  0  0
   -0.6292    3.4875    0.0000 C   0  0  0  0  0  0  0  0  0  0  0  0
    0.1958    3.4875    0.0000 C   0  0  0  0  0  0  0  0  0  0  0  0
  2  1  1  0  0  0  0
  3  1  1  0  0  0  0
  4  9  1  0  0  0  0
  5  1  2  0  0  0  0
  6  1  2  0  0  0  0
  7 16  1  0  0  0  0
  8  7  3  0  0  0  0
  9 14  2  0  0  0  0
 10  4  2  0  0  0  0
 11  3  1  0  0  0  0
 12  3  2  0  0  0  0
 13 11  2  0  0  0  0
 13  9  1  0  0  0  0
 14 12  1  0  0  0  0
 15  4  1  0  0  0  0
 16 15  1  0  0  0  0
 17  2  1  0  0  0  0
 18  2  1  0  0  0  0
 19 18  1  0  0  0  0
 19 20  1  0  0  0  0
 20 17  1  0  0  0  0
M  END
> <CdId>
2970

> <Mol Weight>
292.353

> <Formula>
C14H16N2O3S

> <Click_ID>
CLK039B07 __ __ 

$$$$
