CLK016_F10
 OpenBabel03181417552D

 21 22  0  0  0  0  0  0  0  0999 V2000
    1.5658   -0.8162    0.0000 N   0  0  0  0  0  0  0  0  0  0  0  0
    1.8239   -1.6033    0.0000 C   0  0  0  0  0  0  0  0  0  0  0  0
    2.9025   -0.8162    0.0000 C   0  0  0  0  0  0  0  0  0  0  0  0
    2.2362   -0.3290    0.0000 C   0  0  0  0  0  0  0  0  0  0  0  0
    2.6485   -1.6033    0.0000 S   0  0  0  0  0  0  0  0  0  0  0  0
    3.6895   -0.5622    0.0000 C   0  0  0  0  0  0  0  0  0  0  0  0
    3.8520    0.2457    0.0000 C   0  0  0  0  0  0  0  0  0  0  0  0
    4.6390    0.4997    0.0000 C   0  0  0  0  0  0  0  0  0  0  0  0
    0.6121    0.2457    0.0000 C   0  0  0  0  0  0  0  0  0  0  0  0
    0.3915    1.0452    0.0000 C   0  0  0  0  0  0  0  0  0  0  0  0
    1.3367   -2.2654    0.0000 O   0  0  0  0  0  0  0  0  0  0  0  0
    2.2279    0.4955    0.0000 O   0  0  0  0  0  0  0  0  0  0  0  0
    0.7870   -0.5622    0.0000 C   0  0  0  0  0  0  0  0  0  0  0  0
    4.8014    1.3075    0.0000 C   0  0  0  0  0  0  0  0  0  0  0  0
    5.2511   -0.0542    0.0000 O   0  0  0  0  0  0  0  0  0  0  0  0
    5.5884    1.5616    0.0000 O   0  0  0  0  0  0  0  0  0  0  0  0
    3.2398    0.7953    0.0000 C   0  0  0  0  0  0  0  0  0  0  0  0
    3.4105    1.5949    0.0000 C   0  0  0  0  0  0  0  0  0  0  0  0
    4.1893    1.8572    0.0000 C   0  0  0  0  0  0  0  0  0  0  0  0
    5.7508    2.3694    0.0000 C   0  0  0  0  0  0  0  0  0  0  0  0
    6.5337    2.6318    0.0000 C   0  0  0  0  0  0  0  0  0  0  0  0
  2  1  1  0  0  0  0
  3  4  1  0  0  0  0
  4  1  1  0  0  0  0
  5  2  1  0  0  0  0
  5  3  1  0  0  0  0
  6  3  2  0  0  0  0
  7  6  1  0  0  0  0
  8  7  2  0  0  0  0
  9 13  1  0  0  0  0
 10  9  3  0  0  0  0
 11  2  2  0  0  0  0
 12  4  2  0  0  0  0
 13  1  1  0  0  0  0
 14  8  1  0  0  0  0
 15  8  1  0  0  0  0
 16 14  1  0  0  0  0
 17  7  1  0  0  0  0
 18 17  2  0  0  0  0
 19 18  1  0  0  0  0
 19 14  2  0  0  0  0
 20 16  1  0  0  0  0
 21 20  1  0  0  0  0
M  END
> <CdId>
1215

> <Mol Weight>
303.333

> <Formula>
C15H13NO4S

> <Click_ID>
CLK016_F10 __ __ 

$$$$
