CLK003_G08
 OpenBabel03181417552D

 31 33  0  0  0  0  0  0  0  0999 V2000
    0.5765    1.1529    0.0000 C   0  0  0  0  0  0  0  0  0  0  0  0
    0.3210    0.3659    0.0000 S   0  0  0  0  0  0  0  0  0  0  0  0
    0.1001    1.8157    0.0000 C   0  0  0  0  0  0  0  0  0  0  0  0
    1.4014    1.1460    0.0000 C   0  0  0  0  0  0  0  0  0  0  0  0
    0.9872   -0.1242    0.0000 C   0  0  0  0  0  0  0  0  0  0  0  0
   -0.7248    1.7397    0.0000 C   0  0  0  0  0  0  0  0  0  0  0  0
    1.6603    0.3556    0.0000 N   0  0  0  0  0  0  0  0  0  0  0  0
    1.8986    1.8088    0.0000 O   0  0  0  0  0  0  0  0  0  0  0  0
    0.9838   -0.9493    0.0000 N   0  0  0  0  0  0  0  0  0  0  0  0
   -1.0666    0.9907    0.0000 C   0  0  0  0  0  0  0  0  0  0  0  0
   -1.2012    2.4025    0.0000 C   0  0  0  0  0  0  0  0  0  0  0  0
    2.4404    0.1001    0.0000 C   0  0  0  0  0  0  0  0  0  0  0  0
    1.6984   -1.3704    0.0000 C   0  0  0  0  0  0  0  0  0  0  0  0
   -1.8882    0.9078    0.0000 C   0  0  0  0  0  0  0  0  0  0  0  0
   -2.0193    2.3300    0.0000 C   0  0  0  0  0  0  0  0  0  0  0  0
    1.6879   -2.1954    0.0000 C   0  0  0  0  0  0  0  0  0  0  0  0
    2.4094   -0.9562    0.0000 C   0  0  0  0  0  0  0  0  0  0  0  0
   -2.3645    1.5775    0.0000 C   0  0  0  0  0  0  0  0  0  0  0  0
   -2.2264    0.1657    0.0000 O   0  0  0  0  0  0  0  0  0  0  0  0
    2.3991   -2.6130    0.0000 C   0  0  0  0  0  0  0  0  0  0  0  0
    3.1239   -1.3738    0.0000 C   0  0  0  0  0  0  0  0  0  0  0  0
   -3.1826    1.5016    0.0000 O   0  0  0  0  0  0  0  0  0  0  0  0
   -1.7501   -0.5005    0.0000 C   0  0  0  0  0  0  0  0  0  0  0  0
    3.1170   -2.2023    0.0000 C   0  0  0  0  0  0  0  0  0  0  0  0
    2.3887   -3.4381    0.0000 C   0  0  0  0  0  0  0  0  0  0  0  0
   -3.6659    2.1782    0.0000 C   0  0  0  0  0  0  0  0  0  0  0  0
   -2.0953   -1.2496    0.0000 C   0  0  0  0  0  0  0  0  0  0  0  0
    1.6741   -3.8385    0.0000 O   0  0  0  0  0  0  0  0  0  0  0  0
    3.1032   -3.8523    0.0000 O   0  0  0  0  0  0  0  0  0  0  0  0
   -4.4805    2.1022    0.0000 C   0  0  0  0  0  0  0  0  0  0  0  0
   -5.3055    2.0297    0.0000 C   0  0  0  0  0  0  0  0  0  0  0  0
  1  2  1  0  0  0  0
  1  3  2  0  0  0  0
  1  4  1  0  0  0  0
  2  5  1  0  0  0  0
  3  6  1  0  0  0  0
  4  7  1  0  0  0  0
  4  8  2  0  0  0  0
  5  9  2  0  0  0  0
  5  7  1  0  0  0  0
  6 10  2  0  0  0  0
  6 11  1  0  0  0  0
  7 12  1  0  0  0  0
  9 13  1  0  0  0  0
 10 14  1  0  0  0  0
 11 15  2  0  0  0  0
 13 16  2  0  0  0  0
 13 17  1  0  0  0  0
 14 18  2  0  0  0  0
 14 19  1  0  0  0  0
 15 18  1  0  0  0  0
 16 20  1  0  0  0  0
 17 21  2  0  0  0  0
 18 22  1  0  0  0  0
 19 23  1  0  0  0  0
 20 24  2  0  0  0  0
 20 25  1  0  0  0  0
 21 24  1  0  0  0  0
 22 26  1  0  0  0  0
 23 27  1  0  0  0  0
 25 28  1  0  0  0  0
 25 29  2  0  0  0  0
 26 30  1  0  0  0  0
 30 31  3  0  0  0  0
M  END
> <CdId>
227

> <Mol Weight>
436.48

> <Formula>
C23H20N2O5S

> <Click_ID>
CLK003_G08 __ __ 

$$$$
