CLK016_C06
 OpenBabel03181417552D

 35 38  0  0  0  0  0  0  0  0999 V2000
    2.9653   -1.4748    0.0000 N   0  0  0  0  0  0  0  0  0  0  0  0
    2.9181   -2.3125    0.0000 C   0  0  0  0  0  0  0  0  0  0  0  0
    1.5495   -1.4748    0.0000 C   0  0  0  0  0  0  0  0  0  0  0  0
    3.7518   -1.2428    0.0000 C   0  0  0  0  0  0  0  0  0  0  0  0
    2.2653   -2.7254    0.0000 N   0  0  0  0  0  0  0  0  0  0  0  0
    2.2653   -1.0422    0.0000 C   0  0  3  0  0  0  0  0  0  0  0  0
    4.1923   -1.9625    0.0000 C   0  0  0  0  0  0  0  0  0  0  0  0
    1.5613   -2.3046    0.0000 C   0  0  0  0  0  0  0  0  0  0  0  0
    3.6850   -2.6114    0.0000 S   0  0  0  0  0  0  0  0  0  0  0  0
    5.0024   -1.9939    0.0000 C   0  0  0  0  0  0  0  0  0  0  0  0
    0.8652   -1.0422    0.0000 C   0  0  0  0  0  0  0  0  0  0  0  0
    5.3800   -2.7058    0.0000 C   0  0  0  0  0  0  0  0  0  0  0  0
    8.0386   -2.1040    0.0000 C   0  0  0  0  0  0  0  0  0  0  0  0
    2.2928    0.0196    0.0000 C   0  0  0  0  0  0  0  0  0  0  0  0
    8.7700   -1.7225    0.0000 C   0  0  0  0  0  0  0  0  0  0  0  0
    4.0744   -0.4405    0.0000 O   0  0  0  0  0  0  0  0  0  0  0  0
    0.8652   -0.2045    0.0000 O   0  0  0  0  0  0  0  0  0  0  0  0
    6.1862   -2.7412    0.0000 C   0  0  0  0  0  0  0  0  0  0  0  0
    3.0361    0.4483    0.0000 C   0  0  0  0  0  0  0  0  0  0  0  0
    1.5495    0.4601    0.0000 C   0  0  0  0  0  0  0  0  0  0  0  0
    0.1455   -1.4748    0.0000 O   0  0  0  0  0  0  0  0  0  0  0  0
    0.8652   -2.7254    0.0000 C   0  0  0  0  0  0  0  0  0  0  0  0
    2.3007    1.7658    0.0000 C   0  0  0  0  0  0  0  0  0  0  0  0
    3.0361    1.3292    0.0000 C   0  0  0  0  0  0  0  0  0  0  0  0
    1.5495    1.3332    0.0000 C   0  0  0  0  0  0  0  0  0  0  0  0
    6.6228   -2.0569    0.0000 O   0  0  0  0  0  0  0  0  0  0  0  0
    7.3503   -1.6675    0.0000 C   0  0  0  0  0  0  0  0  0  0  0  0
    2.3164    2.6152    0.0000 O   0  0  0  0  0  0  0  0  0  0  0  0
    4.9553   -3.3901    0.0000 C   0  0  0  0  0  0  0  0  0  0  0  0
    6.5638   -3.4569    0.0000 C   0  0  0  0  0  0  0  0  0  0  0  0
   -0.5545   -1.0422    0.0000 C   0  0  0  0  0  0  0  0  0  0  0  0
    1.5928    3.0400    0.0000 C   0  0  0  0  0  0  0  0  0  0  0  0
   -1.2584   -1.4748    0.0000 C   0  0  0  0  0  0  0  0  0  0  0  0
    5.3368   -4.1097    0.0000 C   0  0  0  0  0  0  0  0  0  0  0  0
    6.1390   -4.1333    0.0000 C   0  0  0  0  0  0  0  0  0  0  0  0
  2  1  1  0  0  0  0
  3  6  1  0  0  0  0
  4  1  1  0  0  0  0
  5  2  2  0  0  0  0
  5  8  1  0  0  0  0
  6  1  1  0  0  0  0
  7  4  1  0  0  0  0
  7  9  1  0  0  0  0
  8  3  2  0  0  0  0
  9  2  1  0  0  0  0
 10  7  2  0  0  0  0
 11  3  1  0  0  0  0
 12 10  1  0  0  0  0
 13 27  1  0  0  0  0
 14  6  1  0  0  0  0
 15 13  3  0  0  0  0
 16  4  2  0  0  0  0
 17 11  2  0  0  0  0
 18 12  2  0  0  0  0
 19 14  1  0  0  0  0
 20 14  2  0  0  0  0
 21 11  1  0  0  0  0
 22  8  1  0  0  0  0
 23 25  2  0  0  0  0
 23 24  1  0  0  0  0
 24 19  2  0  0  0  0
 25 20  1  0  0  0  0
 26 18  1  0  0  0  0
 27 26  1  0  0  0  0
 28 23  1  0  0  0  0
 29 12  1  0  0  0  0
 30 18  1  0  0  0  0
 30 35  2  0  0  0  0
 31 21  1  0  0  0  0
 32 28  1  0  0  0  0
 33 31  1  0  0  0  0
 34 29  2  0  0  0  0
 35 34  1  0  0  0  0
M  END
> <CdId>
1181

> <Mol Weight>
488.555

> <Formula>
C27H24N2O5S

> <Click_ID>
CLK016_C06 __ __ 

$$$$
