CLK023_E02
 OpenBabel03181417552D

 31 34  0  0  0  0  0  0  0  0999 V2000
   -0.4055   -1.4913    0.0000 N   0  0  0  0  0  0  0  0  0  0  0  0
   -0.1546   -2.2783    0.0000 C   0  0  0  0  0  0  0  0  0  0  0  0
    0.2577   -1.0068    0.0000 C   0  0  0  0  0  0  0  0  0  0  0  0
    0.9210   -1.4913    0.0000 C   0  0  0  0  0  0  0  0  0  0  0  0
    1.8831   -0.4330    0.0000 C   0  0  0  0  0  0  0  0  0  0  0  0
    0.6701   -2.2783    0.0000 N   0  0  0  0  0  0  0  0  0  0  0  0
    1.7560    0.9037    0.0000 N   0  0  0  0  0  0  0  0  0  0  0  0
    1.7078   -1.2336    0.0000 C   0  0  0  0  0  0  0  0  0  0  0  0
    1.3333    0.1924    0.0000 C   0  0  0  0  0  0  0  0  0  0  0  0
    2.6459   -0.0962    0.0000 C   0  0  0  0  0  0  0  0  0  0  0  0
    2.5601    0.7285    0.0000 C   0  0  0  0  0  0  0  0  0  0  0  0
   -1.1890   -1.2336    0.0000 C   0  0  0  0  0  0  0  0  0  0  0  0
   -1.3642   -0.4330    0.0000 C   0  0  0  0  0  0  0  0  0  0  0  0
    1.9174    2.3263    0.0000 C   0  0  0  0  0  0  0  0  0  0  0  0
    2.4467    2.9483    0.0000 C   0  0  0  0  0  0  0  0  0  0  0  0
   -0.6391   -2.9449    0.0000 O   0  0  0  0  0  0  0  0  0  0  0  0
   -2.1408   -0.1787    0.0000 N   0  0  0  0  0  0  0  0  0  0  0  0
    0.2577   -0.1821    0.0000 O   0  0  0  0  0  0  0  0  0  0  0  0
   -0.7525    0.1202    0.0000 O   0  0  0  0  0  0  0  0  0  0  0  0
   -2.3160    0.6288    0.0000 C   0  0  0  0  0  0  0  0  0  0  0  0
    1.4226    1.6666    0.0000 C   0  0  0  0  0  0  0  0  0  0  0  0
   -3.0995    0.8797    0.0000 C   0  0  0  0  0  0  0  0  0  0  0  0
   -3.2748    1.6769    0.0000 C   0  0  0  0  0  0  0  0  0  0  0  0
    3.2335    1.2027    0.0000 C   0  0  0  0  0  0  0  0  0  0  0  0
    3.3951   -0.4467    0.0000 C   0  0  0  0  0  0  0  0  0  0  0  0
   -1.8762    1.9896    0.0000 C   0  0  0  0  0  0  0  0  0  0  0  0
   -1.7010    1.1787    0.0000 C   0  0  0  0  0  0  0  0  0  0  0  0
   -2.6631    2.2405    0.0000 C   0  0  0  0  0  0  0  0  0  0  0  0
   -4.0617    1.9278    0.0000 C   0  0  0  0  0  0  0  0  0  0  0  0
    4.0582    0.0447    0.0000 C   0  0  0  0  0  0  0  0  0  0  0  0
    3.9827    0.8659    0.0000 C   0  0  0  0  0  0  0  0  0  0  0  0
  2  1  1  0  0  0  0
  3  1  1  0  0  0  0
  4  3  1  0  0  0  0
  5  8  1  0  0  0  0
  6  2  1  0  0  0  0
  6  4  1  0  0  0  0
  7  9  1  0  0  0  0
  8  4  2  0  0  0  0
  9  5  2  0  0  0  0
 10  5  1  0  0  0  0
 11 10  1  0  0  0  0
 11  7  1  0  0  0  0
 12  1  1  0  0  0  0
 13 12  1  0  0  0  0
 14 21  1  0  0  0  0
 15 14  3  0  0  0  0
 16  2  2  0  0  0  0
 17 13  1  0  0  0  0
 18  3  2  0  0  0  0
 19 13  2  0  0  0  0
 20 17  1  0  0  0  0
 21  7  1  0  0  0  0
 22 20  1  0  0  0  0
 23 22  2  0  0  0  0
 23 28  1  0  0  0  0
 24 11  2  0  0  0  0
 25 10  2  0  0  0  0
 26 27  1  0  0  0  0
 27 20  2  0  0  0  0
 28 26  2  0  0  0  0
 29 23  1  0  0  0  0
 30 25  1  0  0  0  0
 31 30  2  0  0  0  0
 31 24  1  0  0  0  0
M  END
> <CdId>
1737

> <Mol Weight>
412.4406

> <Formula>
C24H20N4O3

> <Click_ID>
CLK023_E02 __ __ 

$$$$
