CLK042D02
 OpenBabel03181417552D

 26 27  0  0  0  0  0  0  0  0999 V2000
   -2.1750    0.8417    0.0000 S   0  0  0  0  0  0  0  0  0  0  0  0
    0.6833    0.8417    0.0000 C   0  0  0  0  0  0  0  0  0  0  0  0
   -1.4583    1.2542    0.0000 C   0  0  0  0  0  0  0  0  0  0  0  0
    0.6833    0.0167    0.0000 N   0  0  0  0  0  0  0  0  0  0  0  0
   -0.0292    1.2542    0.0000 C   0  0  0  0  0  0  0  0  0  0  0  0
   -4.3167    0.4292    0.0000 C   0  0  0  0  0  0  0  0  0  0  0  0
   -0.7458    0.8417    0.0000 C   0  0  0  0  0  0  0  0  0  0  0  0
   -5.0292    0.0167    0.0000 C   0  0  0  0  0  0  0  0  0  0  0  0
   -1.7625    0.1292    0.0000 O   0  0  0  0  0  0  0  0  0  0  0  0
   -2.5875    1.5583    0.0000 O   0  0  0  0  0  0  0  0  0  0  0  0
    2.8292   -2.8708    0.0000 C   0  0  0  0  0  0  0  0  0  0  0  0
    2.1125   -2.4583    0.0000 N   0  0  0  0  0  0  0  0  0  0  0  0
   -2.8875    0.4292    0.0000 N   0  0  0  0  0  0  0  0  0  0  0  0
    1.4000   -0.3958    0.0000 C   0  0  0  0  0  0  0  0  0  0  0  0
    1.4000    1.2542    0.0000 O   0  0  0  0  0  0  0  0  0  0  0  0
    1.4000   -1.2208    0.0000 C   0  0  0  0  0  0  0  0  0  0  0  0
    2.1125   -1.6333    0.0000 C   0  0  0  0  0  0  0  0  0  0  0  0
    2.8292   -3.6958    0.0000 O   0  0  0  0  0  0  0  0  0  0  0  0
   -3.6000    0.8417    0.0000 C   0  0  0  0  0  0  0  0  0  0  0  0
   -1.4583    2.0792    0.0000 C   0  0  0  0  0  0  0  0  0  0  0  0
   -0.0292    2.0792    0.0000 C   0  0  0  0  0  0  0  0  0  0  0  0
   -0.7458    2.4917    0.0000 C   0  0  0  0  0  0  0  0  0  0  0  0
    2.8292   -0.3958    0.0000 C   0  0  0  0  0  0  0  0  0  0  0  0
    3.5417   -2.4583    0.0000 C   0  0  0  0  0  0  0  0  0  0  0  0
    2.1125    0.0167    0.0000 C   0  0  0  0  0  0  0  0  0  0  0  0
    2.8292   -1.2208    0.0000 C   0  0  0  0  0  0  0  0  0  0  0  0
  2  5  1  0  0  0  0
  3  1  1  0  0  0  0
  4  2  1  0  0  0  0
  5  7  2  0  0  0  0
  6 19  1  0  0  0  0
  7  3  1  0  0  0  0
  8  6  3  0  0  0  0
  9  1  2  0  0  0  0
 10  1  2  0  0  0  0
 11 12  1  0  0  0  0
 12 17  1  0  0  0  0
 13  1  1  0  0  0  0
 14  4  1  0  0  0  0
 15  2  2  0  0  0  0
 16 14  1  0  0  0  0
 17 16  2  0  0  0  0
 18 11  2  0  0  0  0
 19 13  1  0  0  0  0
 20  3  2  0  0  0  0
 21  5  1  0  0  0  0
 22 20  1  0  0  0  0
 22 21  2  0  0  0  0
 23 25  1  0  0  0  0
 23 26  2  0  0  0  0
 24 11  1  0  0  0  0
 25 14  2  0  0  0  0
 26 17  1  0  0  0  0
M  END
> <CdId>
3172

> <Mol Weight>
371.41

> <Formula>
C18H17N3O4S

> <Click_ID>
CLK042D02 __ __ 

$$$$
