CLK043B07
 OpenBabel03181417552D

 30 33  0  0  0  0  0  0  0  0999 V2000
    2.2558   -0.8116    0.0000 S   0  0  0  0  0  0  0  0  0  0  0  0
   -1.4776    1.4401    0.0000 C   0  0  0  0  0  0  0  0  0  0  0  0
   -0.4578   -1.6940    0.0000 C   0  0  0  0  0  0  0  0  0  0  0  0
   -0.9906    2.1060    0.0000 C   0  0  0  0  0  0  0  0  0  0  0  0
   -0.7117   -0.9115    0.0000 N   0  0  0  0  0  0  0  0  0  0  0  0
   -1.4776    2.7720    0.0000 N   0  0  0  0  0  0  0  0  0  0  0  0
   -1.2237    0.6576    0.0000 C   0  0  0  0  0  0  0  0  0  0  0  0
   -2.2600    1.6940    0.0000 C   0  0  0  0  0  0  0  0  0  0  0  0
    1.7065   -1.4235    0.0000 C   0  0  0  0  0  0  0  0  0  0  0  0
    0.3496   -1.8647    0.0000 C   0  0  0  0  0  0  0  0  0  0  0  0
   -1.7731    0.0458    0.0000 C   0  0  0  0  0  0  0  0  0  0  0  0
    0.8990   -1.2528    0.0000 C   0  0  0  0  0  0  0  0  0  0  0  0
    4.1663    0.2415    0.0000 C   0  0  0  0  0  0  0  0  0  0  0  0
   -2.2600    2.5180    0.0000 C   0  0  0  0  0  0  0  0  0  0  0  0
    4.7157    0.8532    0.0000 C   0  0  0  0  0  0  0  0  0  0  0  0
    1.6440   -0.2622    0.0000 O   0  0  0  0  0  0  0  0  0  0  0  0
    2.8677   -1.3652    0.0000 O   0  0  0  0  0  0  0  0  0  0  0  0
   -1.5192   -0.7408    0.0000 C   0  0  0  0  0  0  0  0  0  0  0  0
    2.8094   -0.1998    0.0000 N   0  0  0  0  0  0  0  0  0  0  0  0
   -0.1623   -0.2997    0.0000 C   0  0  0  0  0  0  0  0  0  0  0  0
   -1.0114   -2.3058    0.0000 O   0  0  0  0  0  0  0  0  0  0  0  0
   -0.4163    0.4870    0.0000 C   0  0  0  0  0  0  0  0  0  0  0  0
    3.6127   -0.3704    0.0000 C   0  0  0  0  0  0  0  0  0  0  0  0
    0.6036   -2.6513    0.0000 C   0  0  0  0  0  0  0  0  0  0  0  0
   -2.9760    1.2819    0.0000 C   0  0  0  0  0  0  0  0  0  0  0  0
    1.9604   -2.2100    0.0000 C   0  0  0  0  0  0  0  0  0  0  0  0
    1.4068   -2.8219    0.0000 C   0  0  0  0  0  0  0  0  0  0  0  0
   -2.9760    2.9301    0.0000 C   0  0  0  0  0  0  0  0  0  0  0  0
   -3.6876    1.6940    0.0000 C   0  0  0  0  0  0  0  0  0  0  0  0
   -3.6876    2.5180    0.0000 C   0  0  0  0  0  0  0  0  0  0  0  0
  2  7  1  0  0  0  0
  3 10  1  0  0  0  0
  4  2  2  0  0  0  0
  5  3  1  0  0  0  0
  6  4  1  0  0  0  0
  7 11  2  0  0  0  0
  7 22  1  0  0  0  0
  8  2  1  0  0  0  0
  9  1  1  0  0  0  0
 10 12  2  0  0  0  0
 11 18  1  0  0  0  0
 12  9  1  0  0  0  0
 13 23  1  0  0  0  0
 14  8  2  0  0  0  0
 14  6  1  0  0  0  0
 15 13  3  0  0  0  0
 16  1  2  0  0  0  0
 17  1  2  0  0  0  0
 18  5  1  0  0  0  0
 19  1  1  0  0  0  0
 20  5  1  0  0  0  0
 21  3  2  0  0  0  0
 22 20  1  0  0  0  0
 23 19  1  0  0  0  0
 24 10  1  0  0  0  0
 25  8  1  0  0  0  0
 26  9  2  0  0  0  0
 27 26  1  0  0  0  0
 27 24  2  0  0  0  0
 28 14  1  0  0  0  0
 29 25  2  0  0  0  0
 29 30  1  0  0  0  0
 30 28  2  0  0  0  0
M  END
> <CdId>
3290

> <Mol Weight>
419.496

> <Formula>
C23H21N3O3S

> <Click_ID>
CLK043B07 __ __ 

$$$$
