CLK045A06
 OpenBabel03181417552D

 29 31  0  0  0  0  0  0  0  0999 V2000
    1.3792    2.4500    0.0000 S   0  0  0  0  0  0  0  0  0  0  0  0
   -1.4792   -2.5000    0.0000 C   0  0  0  0  0  0  0  0  0  0  0  0
   -1.4792   -1.6750    0.0000 N   0  0  0  0  0  0  0  0  0  0  0  0
   -1.4792    0.8000    0.0000 C   0  0  0  0  0  0  0  0  0  0  0  0
   -1.4792   -0.0250    0.0000 N   0  0  0  0  0  0  0  0  0  0  0  0
   -0.7667   -2.9125    0.0000 N   0  0  0  0  0  0  0  0  0  0  0  0
    0.6625    2.0375    0.0000 C   0  0  0  0  0  0  0  0  0  0  0  0
    3.5208    2.8625    0.0000 C   0  0  0  0  0  0  0  0  0  0  0  0
    4.2375    3.2750    0.0000 C   0  0  0  0  0  0  0  0  0  0  0  0
    0.9667    3.1625    0.0000 O   0  0  0  0  0  0  0  0  0  0  0  0
    1.7917    1.7333    0.0000 O   0  0  0  0  0  0  0  0  0  0  0  0
   -0.7667    1.2125    0.0000 C   0  0  0  0  0  0  0  0  0  0  0  0
   -2.1958   -2.9125    0.0000 O   0  0  0  0  0  0  0  0  0  0  0  0
    2.0917    2.8625    0.0000 N   0  0  0  0  0  0  0  0  0  0  0  0
   -2.1958   -1.2625    0.0000 C   0  0  0  0  0  0  0  0  0  0  0  0
   -0.7667   -1.2625    0.0000 C   0  0  0  0  0  0  0  0  0  0  0  0
   -0.7667   -0.4375    0.0000 C   0  0  0  0  0  0  0  0  0  0  0  0
   -2.1958   -0.4375    0.0000 C   0  0  0  0  0  0  0  0  0  0  0  0
   -2.1958    1.2125    0.0000 O   0  0  0  0  0  0  0  0  0  0  0  0
    0.6625    1.2125    0.0000 C   0  0  0  0  0  0  0  0  0  0  0  0
   -0.0500    2.4500    0.0000 C   0  0  0  0  0  0  0  0  0  0  0  0
   -0.0500    0.8000    0.0000 C   0  0  0  0  0  0  0  0  0  0  0  0
   -0.7667    2.0375    0.0000 C   0  0  0  0  0  0  0  0  0  0  0  0
    2.8083    2.4500    0.0000 C   0  0  0  0  0  0  0  0  0  0  0  0
   -0.0500   -2.5000    0.0000 C   0  0  0  0  0  0  0  0  0  0  0  0
   -0.7667   -3.7375    0.0000 C   0  0  0  0  0  0  0  0  0  0  0  0
   -0.0500   -4.1500    0.0000 C   0  0  0  0  0  0  0  0  0  0  0  0
    0.6625   -2.9125    0.0000 C   0  0  0  0  0  0  0  0  0  0  0  0
    0.6625   -3.7375    0.0000 C   0  0  0  0  0  0  0  0  0  0  0  0
  2  3  1  0  0  0  0
  3 15  1  0  0  0  0
  4 12  1  0  0  0  0
  5  4  1  0  0  0  0
  6  2  1  0  0  0  0
  7  1  1  0  0  0  0
  8 24  1  0  0  0  0
  9  8  3  0  0  0  0
 10  1  2  0  0  0  0
 11  1  2  0  0  0  0
 12 23  2  0  0  0  0
 13  2  2  0  0  0  0
 14  1  1  0  0  0  0
 15 18  1  0  0  0  0
 16 17  1  0  0  0  0
 16  3  1  0  0  0  0
 17  5  1  0  0  0  0
 18  5  1  0  0  0  0
 19  4  2  0  0  0  0
 20  7  1  0  0  0  0
 21  7  2  0  0  0  0
 22 20  2  0  0  0  0
 22 12  1  0  0  0  0
 23 21  1  0  0  0  0
 24 14  1  0  0  0  0
 25  6  1  0  0  0  0
 26  6  1  0  0  0  0
 27 26  1  0  0  0  0
 28 25  1  0  0  0  0
 29 28  1  0  0  0  0
 29 27  1  0  0  0  0
M  END
> <CdId>
3441

> <Mol Weight>
418.51

> <Formula>
C20H26N4O4S

> <Click_ID>
CLK045A06 __ __ 

$$$$
