CLK022_D07
 OpenBabel03181417552D

 22 23  0  0  0  0  0  0  0  0999 V2000
    3.4512    0.6691    0.0000 C   0  0  0  0  0  0  0  0  0  0  0  0
    3.0387    1.3841    0.0000 N   0  0  0  0  0  0  0  0  0  0  0  0
    7.9887    1.3841    0.0000 C   0  0  0  0  0  0  0  0  0  0  0  0
    8.8137    1.3841    0.0000 C   0  0  0  0  0  0  0  0  0  0  0  0
    1.8012    2.0991    0.0000 C   0  0  0  0  0  0  0  0  0  0  0  0
    4.2763    0.6691    0.0000 C   0  0  0  0  0  0  0  0  0  0  0  0
    2.2046    1.3841    0.0000 C   0  0  0  0  0  0  0  0  0  0  0  0
    3.0387   -0.0459    0.0000 O   0  0  0  0  0  0  0  0  0  0  0  0
    2.2046    2.8141    0.0000 C   0  0  0  0  0  0  0  0  0  0  0  0
    4.6887   -0.0459    0.0000 C   0  0  0  0  0  0  0  0  0  0  0  0
    4.6887    1.3841    0.0000 C   0  0  0  0  0  0  0  0  0  0  0  0
    5.9262    0.6691    0.0000 C   0  0  0  0  0  0  0  0  0  0  0  0
    5.5137   -0.0459    0.0000 C   0  0  0  0  0  0  0  0  0  0  0  0
    5.5137    1.3841    0.0000 C   0  0  0  0  0  0  0  0  0  0  0  0
    3.0387    2.8141    0.0000 O   0  0  0  0  0  0  0  0  0  0  0  0
    7.1638    1.3841    0.0000 C   0  0  0  0  0  0  0  0  0  0  0  0
    6.7512    0.6691    0.0000 O   0  0  0  0  0  0  0  0  0  0  0  0
    0.9762    2.0991    0.0000 C   0  0  0  0  0  0  0  0  0  0  0  0
    1.8012    3.5291    0.0000 C   0  0  0  0  0  0  0  0  0  0  0  0
    3.4512    3.5291    0.0000 C   0  0  0  0  0  0  0  0  0  0  0  0
    0.5637    2.8141    0.0000 C   0  0  0  0  0  0  0  0  0  0  0  0
    0.9762    3.5291    0.0000 C   0  0  0  0  0  0  0  0  0  0  0  0
  2  1  1  0  0  0  0
  3 16  1  0  0  0  0
  4  3  3  0  0  0  0
  5  7  1  0  0  0  0
  6  1  1  0  0  0  0
  7  2  1  0  0  0  0
  8  1  2  0  0  0  0
  9  5  1  0  0  0  0
 10  6  1  0  0  0  0
 11  6  2  0  0  0  0
 12 14  2  0  0  0  0
 12 13  1  0  0  0  0
 13 10  2  0  0  0  0
 14 11  1  0  0  0  0
 15  9  1  0  0  0  0
 16 17  1  0  0  0  0
 17 12  1  0  0  0  0
 18  5  2  0  0  0  0
 19  9  2  0  0  0  0
 19 22  1  0  0  0  0
 20 15  1  0  0  0  0
 21 18  1  0  0  0  0
 22 21  2  0  0  0  0
M  END
> <CdId>
1666

> <Mol Weight>
295.3325

> <Formula>
C18H17NO3

> <Click_ID>
CLK022_D07 __ __ 

$$$$
