CLK036_B04
 OpenBabel03181417552D

 26 28  0  0  0  0  0  0  0  0999 V2000
    3.6713   -0.6528    0.0000 C   0  0  0  0  0  0  0  0  0  0  0  0
    4.1453   -1.3388    0.0000 N   0  0  0  0  0  0  0  0  0  0  0  0
    2.8605   -0.6486    0.0000 N   0  0  0  0  0  0  0  0  0  0  0  0
    3.9332    0.1330    0.0000 S   0  0  0  0  0  0  0  0  0  0  0  0
    4.9685   -1.2723    0.0000 C   0  0  0  0  0  0  0  0  0  0  0  0
    6.6232   -1.1517    0.0000 S   0  0  0  0  0  0  0  0  0  0  0  0
    5.4300   -1.9500    0.0000 C   0  0  0  0  0  0  0  0  0  0  0  0
    3.2680    0.6195    0.0000 C   0  0  0  0  0  0  0  0  0  0  0  0
    2.5986    0.1372    0.0000 C   0  0  0  0  0  0  0  0  0  0  0  0
    6.2532   -1.8959    0.0000 C   0  0  0  0  0  0  0  0  0  0  0  0
    3.1806    1.4427    0.0000 C   0  0  0  0  0  0  0  0  0  0  0  0
    2.7233   -2.0747    0.0000 C   0  0  0  0  0  0  0  0  0  0  0  0
    3.0684   -2.8314    0.0000 C   0  0  0  0  0  0  0  0  0  0  0  0
    1.8502    0.4740    0.0000 C   0  0  0  0  0  0  0  0  0  0  0  0
    7.3633   -1.5134    0.0000 O   0  0  0  0  0  0  0  0  0  0  0  0
    5.8790   -0.7858    0.0000 O   0  0  0  0  0  0  0  0  0  0  0  0
    5.3302   -0.5281    0.0000 O   0  0  0  0  0  0  0  0  0  0  0  0
    2.3741   -1.3263    0.0000 C   0  0  0  0  0  0  0  0  0  0  0  0
    2.4240    1.7795    0.0000 C   0  0  0  0  0  0  0  0  0  0  0  0
    1.7629    1.2930    0.0000 C   0  0  0  0  0  0  0  0  0  0  0  0
    6.9891   -0.4033    0.0000 C   0  0  0  0  0  0  0  0  0  0  0  0
    5.0683   -2.6942    0.0000 C   0  0  0  0  0  0  0  0  0  0  0  0
    2.3367    2.6027    0.0000 F   0  0  0  0  0  0  0  0  0  0  0  0
    6.7147   -2.5737    0.0000 C   0  0  0  0  0  0  0  0  0  0  0  0
    5.5381   -3.3719    0.0000 C   0  0  0  0  0  0  0  0  0  0  0  0
    6.3613   -3.3178    0.0000 C   0  0  0  0  0  0  0  0  0  0  0  0
  2  1  2  0  0  0  0
  3  1  1  0  0  0  0
  4  1  1  0  0  0  0
  5  2  1  0  0  0  0
  6 10  1  0  0  0  0
  7  5  1  0  0  0  0
  8  4  1  0  0  0  0
  9  3  1  0  0  0  0
  9  8  2  0  0  0  0
 10  7  1  0  0  0  0
 11  8  1  0  0  0  0
 12 18  1  0  0  0  0
 13 12  3  0  0  0  0
 14  9  1  0  0  0  0
 15  6  2  0  0  0  0
 16  6  2  0  0  0  0
 17  5  2  0  0  0  0
 18  3  1  0  0  0  0
 19 11  2  0  0  0  0
 20 14  2  0  0  0  0
 20 19  1  0  0  0  0
 21  6  1  0  0  0  0
 22  7  2  0  0  0  0
 23 19  1  0  0  0  0
 24 10  2  0  0  0  0
 24 26  1  0  0  0  0
 25 22  1  0  0  0  0
 26 25  2  0  0  0  0
M  END
> <CdId>
2734

> <Mol Weight>
388.436

> <Formula>
C18H13FN2O3S2

> <Click_ID>
CLK036_B04 __ __ 

$$$$
