CLK034_E04
 OpenBabel03181417552D

 24 26  0  0  0  0  0  0  0  0999 V2000
   -4.5943    2.5561    0.0000 C    0  0  0  0  0  0  0  0  0  0  0  0
   -3.8801    2.9779    0.0000 N    0  0  0  0  0  0  0  0  0  0  0  0
   -4.6862    1.7375    0.0000 N    0  0  0  0  0  0  0  0  0  0  0  0
   -1.8502    4.5025    0.0000 C    0  0  0  0  0  0  0  0  0  0  0  0
   -5.3336    2.9028    0.0000 S    0  0  0  0  0  0  0  0  0  0  0  0
   -1.0149    4.4273    0.0000 N    0  0  0  0  0  0  0  0  0  0  0  0
   -5.4965    1.5746    0.0000 C    0  0  0  0  0  0  0  0  0  0  0  0
   -3.8801    3.8091    0.0000 C    0  0  0  0  0  0  0  0  0  0  0  0
   -2.4016    3.8926    0.0000 O    0  0  0  0  0  0  0  0  0  0  0  0
   -3.1659    4.2226    0.0000 C    0  0  0  0  0  0  0  0  0  0  0  0
   -5.8975    2.3013    0.0000 C    0  0  0  0  0  0  0  0  0  0  0  0
   -2.2763    5.2042    0.0000 C    0  0  0  0  0  0  0  0  0  0  0  0
   -3.0782    5.0288    0.0000 C    0  0  0  0  0  0  0  0  0  0  0  0
   -4.2560    0.3508    0.0000 C    0  0  0  0  0  0  0  0  0  0  0  0
   -4.4314   -0.4553    0.0000 C    0  0  0  0  0  0  0  0  0  0  0  0
   -0.6641    3.6796    0.0000 O    0  0  0  0  0  0  0  0  0  0  0  0
   -0.5388    5.1039    0.0000 O    0  0  0  0  0  0  0  0  0  0  0  0
   -5.9225    0.8729    0.0000 C    0  0  0  0  0  0  0  0  0  0  0  0
   -4.6069    4.2226    0.0000 O    0  0  0  0  0  0  0  0  0  0  0  0
   -4.0681    1.1611    0.0000 C    0  0  0  0  0  0  0  0  0  0  0  0
   -5.5215    0.1462    0.0000 Cl   0  0  0  0  0  0  0  0  0  0  0  0
   -6.7203    2.3139    0.0000 C    0  0  0  0  0  0  0  0  0  0  0  0
   -7.1463    1.6038    0.0000 C    0  0  0  0  0  0  0  0  0  0  0  0
   -6.7329    0.8771    0.0000 C    0  0  0  0  0  0  0  0  0  0  0  0
  2  1  2  0  0  0  0
  3  1  1  0  0  0  0
  4  9  1  0  0  0  0
  4 12  2  0  0  0  0
  5  1  1  0  0  0  0
  6  4  1  0  0  0  0
  7  3  1  0  0  0  0
  8  2  1  0  0  0  0
  9 10  1  0  0  0  0
 10  8  1  0  0  0  0
 11  5  1  0  0  0  0
 11  7  2  0  0  0  0
 12 13  1  0  0  0  0
 13 10  2  0  0  0  0
 14 20  1  0  0  0  0
 15 14  3  0  0  0  0
 16  6  1  0  0  0  0
 17  6  2  0  0  0  0
 18  7  1  0  0  0  0
 19  8  2  0  0  0  0
 20  3  1  0  0  0  0
 21 18  1  0  0  0  0
 22 11  1  0  0  0  0
 23 22  2  0  0  0  0
 24 18  2  0  0  0  0
 24 23  1  0  0  0  0
M  END
> <CdId>
2608

> <Mol Weight>
361.76

> <Formula>
C15H8ClN3O4S

> <Click_ID>
CLK034_E04 __ __ 

$$$$
