CLK045B10
 OpenBabel03181417552D

 27 29  0  0  0  0  0  0  0  0999 V2000
    1.1625   -2.5708    0.0000 S   0  0  0  0  0  0  0  0  0  0  0  0
   -0.2667   -0.0958    0.0000 C   0  0  0  0  0  0  0  0  0  0  0  0
   -0.9792    3.6167    0.0000 C   0  0  0  0  0  0  0  0  0  0  0  0
   -0.3125    4.0958    0.0000 N   0  0  0  0  0  0  0  0  0  0  0  0
    0.4458   -2.1583    0.0000 C   0  0  0  0  0  0  0  0  0  0  0  0
   -0.9792    0.3167    0.0000 N   0  0  0  0  0  0  0  0  0  0  0  0
   -0.2667   -0.9208    0.0000 C   0  0  0  0  0  0  0  0  0  0  0  0
   -1.6500    4.0958    0.0000 S   0  0  0  0  0  0  0  0  0  0  0  0
    2.5917   -4.2208    0.0000 C   0  0  0  0  0  0  0  0  0  0  0  0
    0.4458   -1.3333    0.0000 C   0  0  0  0  0  0  0  0  0  0  0  0
    3.3042   -4.6333    0.0000 C   0  0  0  0  0  0  0  0  0  0  0  0
    1.5750   -1.8583    0.0000 O   0  0  0  0  0  0  0  0  0  0  0  0
    0.7500   -3.2875    0.0000 O   0  0  0  0  0  0  0  0  0  0  0  0
   -0.9792    2.7917    0.0000 C   0  0  0  0  0  0  0  0  0  0  0  0
    1.8750   -2.9833    0.0000 N   0  0  0  0  0  0  0  0  0  0  0  0
   -0.5667    4.8792    0.0000 C   0  0  0  0  0  0  0  0  0  0  0  0
    0.4458    0.3167    0.0000 O   0  0  0  0  0  0  0  0  0  0  0  0
   -1.3917    4.8792    0.0000 C   0  0  0  0  0  0  0  0  0  0  0  0
   -0.9792    1.1417    0.0000 C   0  0  0  0  0  0  0  0  0  0  0  0
   -0.2667    2.3792    0.0000 C   0  0  0  0  0  0  0  0  0  0  0  0
   -1.6958    2.3792    0.0000 C   0  0  0  0  0  0  0  0  0  0  0  0
   -0.2667    1.5542    0.0000 C   0  0  0  0  0  0  0  0  0  0  0  0
   -1.6958    1.5542    0.0000 C   0  0  0  0  0  0  0  0  0  0  0  0
    1.8750   -3.8083    0.0000 C   0  0  0  0  0  0  0  0  0  0  0  0
   -0.2667   -2.5708    0.0000 C   0  0  0  0  0  0  0  0  0  0  0  0
   -0.9792   -1.3333    0.0000 C   0  0  0  0  0  0  0  0  0  0  0  0
   -0.9792   -2.1583    0.0000 C   0  0  0  0  0  0  0  0  0  0  0  0
  2  7  1  0  0  0  0
  3 14  1  0  0  0  0
  4  3  2  0  0  0  0
  5  1  1  0  0  0  0
  6  2  1  0  0  0  0
  7 10  2  0  0  0  0
  8  3  1  0  0  0  0
  9 24  1  0  0  0  0
 10  5  1  0  0  0  0
 11  9  3  0  0  0  0
 12  1  2  0  0  0  0
 13  1  2  0  0  0  0
 14 21  2  0  0  0  0
 14 20  1  0  0  0  0
 15  1  1  0  0  0  0
 16  4  1  0  0  0  0
 17  2  2  0  0  0  0
 18  8  1  0  0  0  0
 18 16  2  0  0  0  0
 19  6  1  0  0  0  0
 20 22  2  0  0  0  0
 21 23  1  0  0  0  0
 22 19  1  0  0  0  0
 23 19  2  0  0  0  0
 24 15  1  0  0  0  0
 25  5  2  0  0  0  0
 26  7  1  0  0  0  0
 27 25  1  0  0  0  0
 27 26  2  0  0  0  0
M  END
> <CdId>
3474

> <Mol Weight>
397.471

> <Formula>
C19H15N3O3S2

> <Click_ID>
CLK045B10 __ __ 

$$$$
