CLK016_A11
 OpenBabel03181417552D

 24 25  0  0  0  0  0  0  0  0999 V2000
    2.0372   -1.0857    0.0000 N   0  0  0  0  0  0  0  0  0  0  0  0
    2.2887   -1.8779    0.0000 C   0  0  0  0  0  0  0  0  0  0  0  0
    2.7036   -0.5953    0.0000 C   0  0  0  0  0  0  0  0  0  0  0  0
    3.3743   -1.0857    0.0000 C   0  0  0  0  0  0  0  0  0  0  0  0
    3.1186   -1.8779    0.0000 S   0  0  0  0  0  0  0  0  0  0  0  0
    4.1666   -0.8300    0.0000 C   0  0  0  0  0  0  0  0  0  0  0  0
    1.2492   -0.8300    0.0000 C   0  0  0  0  0  0  0  0  0  0  0  0
    5.8474    3.4162    0.0000 C   0  0  0  0  0  0  0  0  0  0  0  0
    6.0277    4.2043    0.0000 C   0  0  0  0  0  0  0  0  0  0  0  0
    0.6288   -1.3875    0.0000 C   0  0  0  0  0  0  0  0  0  0  0  0
    1.8025   -2.5444    0.0000 O   0  0  0  0  0  0  0  0  0  0  0  0
    2.7036    0.2347    0.0000 O   0  0  0  0  0  0  0  0  0  0  0  0
    0.8048   -2.2006    0.0000 O   0  0  0  0  0  0  0  0  0  0  0  0
    4.3426   -0.0294    0.0000 C   0  0  0  0  0  0  0  0  0  0  0  0
    4.6947    1.5802    0.0000 C   0  0  0  0  0  0  0  0  0  0  0  0
   -0.1592   -1.1318    0.0000 O   0  0  0  0  0  0  0  0  0  0  0  0
    5.1180    0.2221    0.0000 C   0  0  0  0  0  0  0  0  0  0  0  0
    3.7348    0.5282    0.0000 C   0  0  0  0  0  0  0  0  0  0  0  0
    3.9151    1.3287    0.0000 C   0  0  0  0  0  0  0  0  0  0  0  0
    5.3067    1.0269    0.0000 C   0  0  0  0  0  0  0  0  0  0  0  0
    5.6630    2.6240    0.0000 C   0  0  0  0  0  0  0  0  0  0  0  0
    4.8791    2.3725    0.0000 O   0  0  0  0  0  0  0  0  0  0  0  0
   -0.3353   -0.3186    0.0000 C   0  0  0  0  0  0  0  0  0  0  0  0
   -1.1275   -0.0671    0.0000 C   0  0  0  0  0  0  0  0  0  0  0  0
  2  1  1  0  0  0  0
  3  1  1  0  0  0  0
  4  3  1  0  0  0  0
  4  5  1  0  0  0  0
  5  2  1  0  0  0  0
  6  4  2  0  0  0  0
  7  1  1  0  0  0  0
  8 21  1  0  0  0  0
  9  8  3  0  0  0  0
 10  7  1  0  0  0  0
 11  2  2  0  0  0  0
 12  3  2  0  0  0  0
 13 10  2  0  0  0  0
 14  6  1  0  0  0  0
 15 19  2  0  0  0  0
 15 20  1  0  0  0  0
 16 10  1  0  0  0  0
 17 14  1  0  0  0  0
 18 14  2  0  0  0  0
 19 18  1  0  0  0  0
 20 17  2  0  0  0  0
 21 22  1  0  0  0  0
 22 15  1  0  0  0  0
 23 16  1  0  0  0  0
 24 23  1  0  0  0  0
M  END
> <CdId>
1166

> <Mol Weight>
345.37

> <Formula>
C17H15NO5S

> <Click_ID>
CLK016_A11 __ __ 

$$$$
