CLK014_H05
 OpenBabel03181417552D

 31 33  0  0  0  0  0  0  0  0999 V2000
    2.0294   -1.0816    0.0000 N   0  0  0  0  0  0  0  0  0  0  0  0
    2.2800   -1.8708    0.0000 C   0  0  0  0  0  0  0  0  0  0  0  0
    2.6934   -0.5930    0.0000 C   0  0  0  0  0  0  0  0  0  0  0  0
    3.3615   -1.0816    0.0000 C   0  0  0  0  0  0  0  0  0  0  0  0
    3.1068   -1.8708    0.0000 S   0  0  0  0  0  0  0  0  0  0  0  0
   -1.5617   -1.4073    0.0000 N   0  3  0  0  0  0  0  0  0  0  0  0
    4.1508   -0.8268    0.0000 C   0  0  0  0  0  0  0  0  0  0  0  0
    1.2444   -0.8268    0.0000 C   0  0  0  0  0  0  0  0  0  0  0  0
   -0.7725   -1.6703    0.0000 C   0  0  0  0  0  0  0  0  0  0  0  0
    5.8002    3.4450    0.0000 C   0  0  0  0  0  0  0  0  0  0  0  0
    5.9755    4.2385    0.0000 C   0  0  0  0  0  0  0  0  0  0  0  0
   -1.7288   -0.6013    0.0000 O   0  5  0  0  0  0  0  0  0  0  0  0
    1.7956   -2.5347    0.0000 O   0  0  0  0  0  0  0  0  0  0  0  0
    3.8752    1.3362    0.0000 C   0  0  0  0  0  0  0  0  0  0  0  0
   -2.1755   -1.9585    0.0000 O   0  0  0  0  0  0  0  0  0  0  0  0
    2.6934    0.2338    0.0000 O   0  0  0  0  0  0  0  0  0  0  0  0
    4.3219   -0.0167    0.0000 C   0  0  0  0  0  0  0  0  0  0  0  0
   -0.1586   -1.1191    0.0000 C   0  0  0  0  0  0  0  0  0  0  0  0
    3.7123    0.5345    0.0000 C   0  0  0  0  0  0  0  0  0  0  0  0
    4.6519    1.5868    0.0000 C   0  0  0  0  0  0  0  0  0  0  0  0
    0.6264   -1.3822    0.0000 C   0  0  0  0  0  0  0  0  0  0  0  0
    5.2657    1.0356    0.0000 C   0  0  0  0  0  0  0  0  0  0  0  0
    5.0903    0.2338    0.0000 C   0  0  0  0  0  0  0  0  0  0  0  0
    3.2738    1.8874    0.0000 O   0  0  0  0  0  0  0  0  0  0  0  0
    4.8356    2.4010    0.0000 O   0  0  0  0  0  0  0  0  0  0  0  0
    5.6165    2.6391    0.0000 C   0  0  0  0  0  0  0  0  0  0  0  0
   -0.6096   -2.4721    0.0000 C   0  0  0  0  0  0  0  0  0  0  0  0
    0.1796   -2.7352    0.0000 C   0  0  0  0  0  0  0  0  0  0  0  0
    0.8018   -2.1840    0.0000 C   0  0  0  0  0  0  0  0  0  0  0  0
    2.4972    1.6286    0.0000 C   0  0  0  0  0  0  0  0  0  0  0  0
    1.8916    2.1798    0.0000 C   0  0  0  0  0  0  0  0  0  0  0  0
  2  1  1  0  0  0  0
  3  1  1  0  0  0  0
  4  3  1  0  0  0  0
  4  5  1  0  0  0  0
  5  2  1  0  0  0  0
  6  9  1  0  0  0  0
  7  4  2  0  0  0  0
  8  1  1  0  0  0  0
  9 18  1  0  0  0  0
 10 26  1  0  0  0  0
 11 10  3  0  0  0  0
 12  6  1  0  0  0  0
 13  2  2  0  0  0  0
 14 19  1  0  0  0  0
 15  6  2  0  0  0  0
 16  3  2  0  0  0  0
 17  7  1  0  0  0  0
 18 21  2  0  0  0  0
 19 17  2  0  0  0  0
 20 22  1  0  0  0  0
 20 14  2  0  0  0  0
 21  8  1  0  0  0  0
 22 23  2  0  0  0  0
 23 17  1  0  0  0  0
 24 14  1  0  0  0  0
 25 20  1  0  0  0  0
 26 25  1  0  0  0  0
 27 28  1  0  0  0  0
 27  9  2  0  0  0  0
 28 29  2  0  0  0  0
 29 21  1  0  0  0  0
 30 24  1  0  0  0  0
 31 30  1  0  0  0  0
M  END
> <CdId>
1070

> <Mol Weight>
438.453

> <Formula>
C22H18N2O6S

> <Click_ID>
CLK014_H05 __ __ 

$$$$
