CLK024_B05
 OpenBabel03181417552D

 25 26  0  0  0  0  0  0  0  0999 V2000
   -1.8032   -0.9480    0.0000 N   0  0  0  0  0  0  0  0  0  0  0  0
   -1.8032   -1.7688    0.0000 C   0  0  0  0  0  0  0  0  0  0  0  0
   -1.0339   -0.6835    0.0000 C   0  0  0  0  0  0  0  0  0  0  0  0
   -0.5426   -1.3463    0.0000 C   0  0  0  0  0  0  0  0  0  0  0  0
   -1.0201   -2.0196    0.0000 S   0  0  0  0  0  0  0  0  0  0  0  0
    1.4975    0.8208    0.0000 C   0  0  0  0  0  0  0  0  0  0  0  0
    0.2817   -1.3430    0.0000 C   0  0  0  0  0  0  0  0  0  0  0  0
    1.9268    0.1030    0.0000 C   0  0  0  0  0  0  0  0  0  0  0  0
    0.6801    0.8140    0.0000 C   0  0  0  0  0  0  0  0  0  0  0  0
    0.6869   -0.6251    0.0000 C   0  0  0  0  0  0  0  0  0  0  0  0
   -3.2251   -0.8105    0.0000 C   0  0  0  0  0  0  0  0  0  0  0  0
   -3.9602   -1.1918    0.0000 C   0  0  0  0  0  0  0  0  0  0  0  0
    1.9097    1.5456    0.0000 O   0  0  0  0  0  0  0  0  0  0  0  0
   -2.4626   -2.2565    0.0000 O   0  0  0  0  0  0  0  0  0  0  0  0
    1.5147   -0.6114    0.0000 C   0  0  0  0  0  0  0  0  0  0  0  0
    0.2644    0.0927    0.0000 C   0  0  0  0  0  0  0  0  0  0  0  0
   -0.7831    0.1030    0.0000 O   0  0  0  0  0  0  0  0  0  0  0  0
   -2.4729   -0.4705    0.0000 C   0  0  0  0  0  0  0  0  0  0  0  0
    2.7477    0.1099    0.0000 I   0  0  0  0  0  0  0  0  0  0  0  0
    0.2679    1.5215    0.0000 O   0  0  0  0  0  0  0  0  0  0  0  0
    2.7237    1.5456    0.0000 C   0  0  3  0  0  0  0  0  0  0  0  0
    0.6766    2.2359    0.0000 C   0  0  0  0  0  0  0  0  0  0  0  0
    3.1358    2.2565    0.0000 C   0  0  0  0  0  0  0  0  0  0  0  0
    3.1461    0.8346    0.0000 C   0  0  0  0  0  0  0  0  0  0  0  0
    3.9567    2.2600    0.0000 C   0  0  0  0  0  0  0  0  0  0  0  0
  2  1  1  0  0  0  0
  3  1  1  0  0  0  0
  4  3  1  0  0  0  0
  5  2  1  0  0  0  0
  5  4  1  0  0  0  0
  6  9  2  0  0  0  0
  7  4  2  0  0  0  0
  8 15  2  0  0  0  0
  8  6  1  0  0  0  0
  9 16  1  0  0  0  0
 10  7  1  0  0  0  0
 11 18  1  0  0  0  0
 12 11  3  0  0  0  0
 13  6  1  0  0  0  0
 14  2  2  0  0  0  0
 15 10  1  0  0  0  0
 16 10  2  0  0  0  0
 17  3  2  0  0  0  0
 18  1  1  0  0  0  0
 19  8  1  0  0  0  0
 20  9  1  0  0  0  0
 21 13  1  0  0  0  0
 22 20  1  0  0  0  0
 23 21  1  0  0  0  0
 24 21  1  0  0  0  0
 25 23  1  0  0  0  0
M  END
> <CdId>
1790

> <Mol Weight>
471.309

> <Formula>
C18H18INO4S

> <Click_ID>
CLK024_B05 __ __ 

$$$$
