CLK042F06
 OpenBabel03181417552D

 20 22  0  0  0  0  0  0  0  0999 V2000
    0.6917   -0.4500    0.0000 C   0  0  0  0  0  0  0  0  0  0  0  0
   -0.5792   -0.0375    0.0000 C   0  0  0  0  0  0  0  0  0  0  0  0
    0.2083    0.2167    0.0000 O   0  0  0  0  0  0  0  0  0  0  0  0
    0.2083   -1.1167    0.0000 C   0  0  0  0  0  0  0  0  0  0  0  0
   -0.5792   -0.8625    0.0000 C   0  0  0  0  0  0  0  0  0  0  0  0
    1.5167   -0.4500    0.0000 C   0  0  0  0  0  0  0  0  0  0  0  0
   -1.2917    0.3750    0.0000 C   0  0  0  0  0  0  0  0  0  0  0  0
   -1.2917   -1.2750    0.0000 C   0  0  0  0  0  0  0  0  0  0  0  0
    3.1667    0.9792    0.0000 C   0  0  0  0  0  0  0  0  0  0  0  0
    3.5792    1.6958    0.0000 C   0  0  0  0  0  0  0  0  0  0  0  0
    1.9292   -1.1625    0.0000 O   0  0  0  0  0  0  0  0  0  0  0  0
   -2.0042   -0.0375    0.0000 C   0  0  0  0  0  0  0  0  0  0  0  0
   -2.0042   -0.8625    0.0000 C   0  0  0  0  0  0  0  0  0  0  0  0
    1.9292    0.2667    0.0000 N   0  0  0  0  0  0  0  0  0  0  0  0
    0.4625   -1.9000    0.0000 C   0  0  0  0  0  0  0  0  0  0  0  0
    2.7542    0.2667    0.0000 C   0  0  0  0  0  0  0  0  0  0  0  0
   -1.2917    1.2000    0.0000 C   0  0  0  0  0  0  0  0  0  0  0  0
   -2.7208    0.3750    0.0000 C   0  0  0  0  0  0  0  0  0  0  0  0
   -2.0042    1.6125    0.0000 C   0  0  0  0  0  0  0  0  0  0  0  0
   -2.7208    1.2000    0.0000 C   0  0  0  0  0  0  0  0  0  0  0  0
  2  3  1  0  0  0  0
  3  1  1  0  0  0  0
  4  1  2  0  0  0  0
  5  4  1  0  0  0  0
  5  2  1  0  0  0  0
  6  1  1  0  0  0  0
  7  2  2  0  0  0  0
  8  5  2  0  0  0  0
  9 16  1  0  0  0  0
 10  9  3  0  0  0  0
 11  6  2  0  0  0  0
 12  7  1  0  0  0  0
 12 13  2  0  0  0  0
 13  8  1  0  0  0  0
 14  6  1  0  0  0  0
 15  4  1  0  0  0  0
 16 14  1  0  0  0  0
 17  7  1  0  0  0  0
 18 12  1  0  0  0  0
 19 17  2  0  0  0  0
 19 20  1  0  0  0  0
 20 18  2  0  0  0  0
M  END
> <CdId>
3206

> <Mol Weight>
263.2906

> <Formula>
C17H13NO2

> <Click_ID>
CLK042F06 __ __ 

$$$$
