CLK021_C06
 OpenBabel03181417552D

 23 25  0  0  0  0  0  0  0  0999 V2000
    4.7320    1.9377    0.0000 N   0  0  0  0  0  0  0  0  0  0  0  0
    3.9853    2.2766    0.0000 N   0  0  0  0  0  0  0  0  0  0  0  0
    4.6495    1.1223    0.0000 C   0  0  0  0  0  0  0  0  0  0  0  0
    3.8387    0.9482    0.0000 C   0  0  3  0  0  0  0  0  0  0  0  0
    3.4265    1.6628    0.0000 C   0  0  0  0  0  0  0  0  0  0  0  0
    5.4466    2.3591    0.0000 C   0  0  3  0  0  0  0  0  0  0  0  0
    6.1612    1.9377    0.0000 C   0  0  0  0  0  0  0  0  0  0  0  0
    2.6844    0.1053    0.0000 C   0  0  0  0  0  0  0  0  0  0  0  0
    1.8690    0.0229    0.0000 C   0  0  0  0  0  0  0  0  0  0  0  0
    6.8758    2.3591    0.0000 C   0  0  0  0  0  0  0  0  0  0  0  0
    5.2633    0.5726    0.0000 O   0  0  0  0  0  0  0  0  0  0  0  0
    2.6110    1.7453    0.0000 C   0  0  0  0  0  0  0  0  0  0  0  0
    6.8758    3.1836    0.0000 O   0  0  0  0  0  0  0  0  0  0  0  0
    3.5089    0.1924    0.0000 C   0  0  0  0  0  0  0  0  0  0  0  0
    5.4466    3.1836    0.0000 C   0  0  0  0  0  0  0  0  0  0  0  0
    6.1612    3.5959    0.0000 C   0  0  0  0  0  0  0  0  0  0  0  0
    7.1644    1.5758    0.0000 C   0  0  0  0  0  0  0  0  0  0  0  0
    7.6866    2.4965    0.0000 C   0  0  0  0  0  0  0  0  0  0  0  0
    2.2721    2.5011    0.0000 C   0  0  0  0  0  0  0  0  0  0  0  0
    2.1301    1.0810    0.0000 C   0  0  0  0  0  0  0  0  0  0  0  0
    1.4567    2.5927    0.0000 C   0  0  0  0  0  0  0  0  0  0  0  0
    1.3101    1.1681    0.0000 C   0  0  0  0  0  0  0  0  0  0  0  0
    0.9666    1.9193    0.0000 C   0  0  0  0  0  0  0  0  0  0  0  0
  2  1  1  0  0  0  0
  3  1  1  0  0  0  0
  4  3  1  0  0  0  0
  5  2  2  0  0  0  0
  5  4  1  0  0  0  0
  6  1  1  0  0  0  0
  7  6  1  0  0  0  0
  8 14  1  0  0  0  0
  9  8  3  0  0  0  0
 10  7  1  0  0  0  0
 11  3  2  0  0  0  0
 12  5  1  0  0  0  0
 13 16  1  0  0  0  0
 13 10  1  0  0  0  0
 14  4  1  0  0  0  0
 15  6  1  0  0  0  0
 16 15  1  0  0  0  0
 17 10  1  0  0  0  0
 18 10  1  0  0  0  0
 19 12  1  0  0  0  0
 20 12  2  0  0  0  0
 21 19  2  0  0  0  0
 21 23  1  0  0  0  0
 22 20  1  0  0  0  0
 23 22  2  0  0  0  0
M  END
> <CdId>
1581

> <Mol Weight>
310.3902

> <Formula>
C19H22N2O2

> <Click_ID>
CLK021_C06 __ __ 

$$$$
