CLK019_A08
 OpenBabel03181417552D

 24 25  0  0  0  0  0  0  0  0999 V2000
    3.3963    1.2055    0.0000 C    0  0  0  0  0  0  0  0  0  0  0  0
    3.4045    0.3824    0.0000 C    0  0  0  0  0  0  0  0  0  0  0  0
    2.6812    1.6170    0.0000 C    0  0  0  0  0  0  0  0  0  0  0  0
    1.9621    2.8516    0.0000 C    0  0  0  0  0  0  0  0  0  0  0  0
    2.6854    2.4401    0.0000 C    0  0  0  0  0  0  0  0  0  0  0  0
    4.1196   -0.0291    0.0000 C    0  0  0  0  0  0  0  0  0  0  0  0
    4.8304   -0.4407    0.0000 N    0  0  0  0  0  0  0  0  0  0  0  0
    1.2513    2.4401    0.0000 C    0  0  0  0  0  0  0  0  0  0  0  0
    1.9621    1.1972    0.0000 C    0  0  0  0  0  0  0  0  0  0  0  0
   -0.1704    4.0946    0.0000 C    0  0  0  0  0  0  0  0  0  0  0  0
    1.2471    1.6170    0.0000 C    0  0  0  0  0  0  0  0  0  0  0  0
   -0.8812    4.5144    0.0000 C    0  0  0  0  0  0  0  0  0  0  0  0
    2.6937   -0.0291    0.0000 C    0  0  0  0  0  0  0  0  0  0  0  0
    2.6937   -0.8647    0.0000 C    0  0  0  0  0  0  0  0  0  0  0  0
    1.9746    0.3741    0.0000 C    0  0  0  0  0  0  0  0  0  0  0  0
    3.3963    2.8516    0.0000 Br   0  0  0  0  0  0  0  0  0  0  0  0
    1.2637   -0.8647    0.0000 C    0  0  0  0  0  0  0  0  0  0  0  0
    0.5404    2.8558    0.0000 O    0  0  0  0  0  0  0  0  0  0  0  0
    0.5404    1.2097    0.0000 O    0  0  0  0  0  0  0  0  0  0  0  0
    1.2637   -0.0291    0.0000 C    0  0  0  0  0  0  0  0  0  0  0  0
    1.9746   -1.2762    0.0000 C    0  0  0  0  0  0  0  0  0  0  0  0
    0.5529   -1.2762    0.0000 Cl   0  0  0  0  0  0  0  0  0  0  0  0
    0.5487    3.6872    0.0000 C    0  0  0  0  0  0  0  0  0  0  0  0
    0.5404    0.3949    0.0000 C    0  0  0  0  0  0  0  0  0  0  0  0
  2  1  2  0  0  0  0
  3  1  1  0  0  0  0
  4  5  2  0  0  0  0
  4  8  1  0  0  0  0
  5  3  1  0  0  0  0
  6  2  1  0  0  0  0
  7  6  3  0  0  0  0
  8 11  2  0  0  0  0
  9  3  2  0  0  0  0
 10 23  1  0  0  0  0
 11  9  1  0  0  0  0
 12 10  3  0  0  0  0
 13  2  1  0  0  0  0
 14 13  1  0  0  0  0
 15 13  2  0  0  0  0
 16  5  1  0  0  0  0
 17 20  2  0  0  0  0
 18  8  1  0  0  0  0
 19 11  1  0  0  0  0
 20 15  1  0  0  0  0
 21 14  2  0  0  0  0
 21 17  1  0  0  0  0
 22 17  1  0  0  0  0
 23 18  1  0  0  0  0
 24 19  1  0  0  0  0
M  END
> <CdId>
1403

> <Mol Weight>
402.669

> <Formula>
C19H13BrClNO2

> <Click_ID>
CLK019_A08 __ __ 

$$$$
