CLK014_B11
 OpenBabel03181417552D

 21 22  0  0  0  0  0  0  0  0999 V2000
    2.6187    0.4211    0.0000 N   0  0  0  0  0  0  0  0  0  0  0  0
    2.8772   -0.3670    0.0000 C   0  0  0  0  0  0  0  0  0  0  0  0
    3.9572    0.4211    0.0000 C   0  0  0  0  0  0  0  0  0  0  0  0
    3.2900    0.9007    0.0000 C   0  0  0  0  0  0  0  0  0  0  0  0
    3.7028   -0.3670    0.0000 N   0  0  0  0  0  0  0  0  0  0  0  0
    5.2539    3.0898    0.0000 C   0  0  0  0  0  0  0  0  0  0  0  0
    4.7453    0.6713    0.0000 C   0  0  0  0  0  0  0  0  0  0  0  0
    5.8586    2.5394    0.0000 C   0  0  0  0  0  0  0  0  0  0  0  0
    4.4700    2.8479    0.0000 C   0  0  0  0  0  0  0  0  0  0  0  0
    4.9079    1.4844    0.0000 C   0  0  0  0  0  0  0  0  0  0  0  0
    6.4090    4.9454    0.0000 C   0  0  0  0  0  0  0  0  0  0  0  0
    6.5841    5.7460    0.0000 C   0  0  0  0  0  0  0  0  0  0  0  0
    5.6918    1.7263    0.0000 C   0  0  0  0  0  0  0  0  0  0  0  0
    4.2949    2.0348    0.0000 C   0  0  0  0  0  0  0  0  0  0  0  0
    2.3810   -1.0383    0.0000 O   0  0  0  0  0  0  0  0  0  0  0  0
    3.2817    1.7263    0.0000 O   0  0  0  0  0  0  0  0  0  0  0  0
    6.6467    2.7854    0.0000 I   0  0  0  0  0  0  0  0  0  0  0  0
    5.4333    3.8987    0.0000 O   0  0  0  0  0  0  0  0  0  0  0  0
    3.8696    3.3983    0.0000 O   0  0  0  0  0  0  0  0  0  0  0  0
    6.2214    4.1323    0.0000 C   0  0  0  0  0  0  0  0  0  0  0  0
    3.0940    3.1482    0.0000 C   0  0  0  0  0  0  0  0  0  0  0  0
  2  1  1  0  0  0  0
  3  4  1  0  0  0  0
  3  5  1  0  0  0  0
  4  1  1  0  0  0  0
  5  2  1  0  0  0  0
  6  9  2  0  0  0  0
  6  8  1  0  0  0  0
  7  3  2  0  0  0  0
  8 13  2  0  0  0  0
  9 14  1  0  0  0  0
 10  7  1  0  0  0  0
 11 20  1  0  0  0  0
 12 11  3  0  0  0  0
 13 10  1  0  0  0  0
 14 10  2  0  0  0  0
 15  2  2  0  0  0  0
 16  4  2  0  0  0  0
 17  8  1  0  0  0  0
 18  6  1  0  0  0  0
 19  9  1  0  0  0  0
 20 18  1  0  0  0  0
 21 19  1  0  0  0  0
M  END
> <CdId>
1016

> <Mol Weight>
398.1526

> <Formula>
C14H11IN2O4

> <Click_ID>
CLK014_B11 __ __ 

$$$$
