CLK010_C08
 OpenBabel03181417552D

 30 33  0  0  0  0  0  0  0  0999 V2000
    2.4906   -0.6747    0.0000 N   0  0  0  0  0  0  0  0  0  0  0  0
    3.1902   -1.9116    0.0000 C   0  0  0  0  0  0  0  0  0  0  0  0
    2.4864   -1.4993    0.0000 C   0  0  0  0  0  0  0  0  0  0  0  0
    3.2027   -0.2624    0.0000 C   0  0  0  0  0  0  0  0  0  0  0  0
    3.9149   -0.6789    0.0000 N   0  0  0  0  0  0  0  0  0  0  0  0
    3.9107   -1.5035    0.0000 C   0  0  0  0  0  0  0  0  0  0  0  0
    3.9024   -3.1486    0.0000 C   0  0  0  0  0  0  0  0  0  0  0  0
    3.1902   -2.7362    0.0000 C   0  0  0  0  0  0  0  0  0  0  0  0
    5.2018   -3.4359    0.0000 N   0  0  0  0  0  0  0  0  0  0  0  0
    1.7742   -0.2624    0.0000 C   0  0  0  0  0  0  0  0  0  0  0  0
    4.6521   -2.8154    0.0000 C   0  0  0  0  0  0  0  0  0  0  0  0
    3.9857   -3.9649    0.0000 C   0  0  0  0  0  0  0  0  0  0  0  0
    4.7895   -4.1481    0.0000 C   0  0  0  0  0  0  0  0  0  0  0  0
    6.5012   -4.0274    0.0000 C   0  0  0  0  0  0  0  0  0  0  0  0
    3.2027    0.5622    0.0000 O   0  0  0  0  0  0  0  0  0  0  0  0
    6.9468   -4.7228    0.0000 C   0  0  0  0  0  0  0  0  0  0  0  0
    1.7659   -1.9033    0.0000 O   0  0  0  0  0  0  0  0  0  0  0  0
    1.0537   -0.6747    0.0000 C   0  0  0  0  0  0  0  0  0  0  0  0
    1.7742    0.5705    0.0000 C   0  0  0  0  0  0  0  0  0  0  0  0
    4.6229   -1.9158    0.0000 O   0  0  0  0  0  0  0  0  0  0  0  0
    6.0264   -3.3527    0.0000 C   0  0  0  0  0  0  0  0  0  0  0  0
    0.3415   -0.2624    0.0000 C   0  0  0  0  0  0  0  0  0  0  0  0
    1.0537    0.9828    0.0000 C   0  0  0  0  0  0  0  0  0  0  0  0
    0.3415    0.5705    0.0000 C   0  0  0  0  0  0  0  0  0  0  0  0
    5.0394   -4.9269    0.0000 C   0  0  0  0  0  0  0  0  0  0  0  0
    3.4276   -4.5771    0.0000 C   0  0  0  0  0  0  0  0  0  0  0  0
    1.0537    1.8075    0.0000 C   0  0  0  0  0  0  0  0  0  0  0  0
   -0.3748   -0.6747    0.0000 C   0  0  0  0  0  0  0  0  0  0  0  0
    4.4854   -5.5392    0.0000 C   0  0  0  0  0  0  0  0  0  0  0  0
    3.6775   -5.3642    0.0000 C   0  0  0  0  0  0  0  0  0  0  0  0
  2  3  1  0  0  0  0
  2  6  1  0  0  0  0
  3  1  1  0  0  0  0
  4  1  1  0  0  0  0
  5  4  1  0  0  0  0
  6  5  1  0  0  0  0
  7  8  1  0  0  0  0
  8  2  2  0  0  0  0
  9 11  1  0  0  0  0
 10  1  1  0  0  0  0
 11  7  2  0  0  0  0
 12  7  1  0  0  0  0
 13 12  1  0  0  0  0
 13  9  1  0  0  0  0
 14 21  1  0  0  0  0
 15  4  2  0  0  0  0
 16 14  3  0  0  0  0
 17  3  2  0  0  0  0
 18 10  1  0  0  0  0
 19 10  2  0  0  0  0
 20  6  2  0  0  0  0
 21  9  1  0  0  0  0
 22 18  2  0  0  0  0
 23 19  1  0  0  0  0
 24 23  2  0  0  0  0
 24 22  1  0  0  0  0
 25 13  2  0  0  0  0
 26 12  2  0  0  0  0
 27 23  1  0  0  0  0
 28 22  1  0  0  0  0
 29 30  2  0  0  0  0
 29 25  1  0  0  0  0
 30 26  1  0  0  0  0
M  END
> <CdId>
703

> <Mol Weight>
397.426

> <Formula>
C24H19N3O3

> <Click_ID>
CLK010_C08 __ __ 

$$$$
