CLK039E07
 OpenBabel03181417552D

 28 30  0  0  0  0  0  0  0  0999 V2000
   -1.6792    0.2625    0.0000 C    0  0  0  0  0  0  0  0  0  0  0  0
   -2.1625    0.9292    0.0000 N    0  0  0  0  0  0  0  0  0  0  0  0
   -0.8542    0.2625    0.0000 C    0  0  0  0  0  0  0  0  0  0  0  0
   -2.1625   -0.4042    0.0000 O    0  0  0  0  0  0  0  0  0  0  0  0
    2.0333   -0.4542    0.0000 C    0  0  0  0  0  0  0  0  0  0  0  0
   -0.4417   -0.4542    0.0000 C    0  0  0  0  0  0  0  0  0  0  0  0
   -2.9500    0.6750    0.0000 C    0  0  0  0  0  0  0  0  0  0  0  0
    1.6208   -1.1667    0.0000 C    0  0  0  0  0  0  0  0  0  0  0  0
    1.6208    0.2625    0.0000 C    0  0  0  0  0  0  0  0  0  0  0  0
    0.3833   -0.4542    0.0000 C    0  0  0  0  0  0  0  0  0  0  0  0
   -2.9500   -0.1500    0.0000 C    0  0  0  0  0  0  0  0  0  0  0  0
    4.0958   -1.1667    0.0000 C    0  0  0  0  0  0  0  0  0  0  0  0
    4.9208   -1.1667    0.0000 C    0  0  0  0  0  0  0  0  0  0  0  0
   -0.4417    0.9750    0.0000 C    0  0  0  0  0  0  0  0  0  0  0  0
    0.3833    0.9750    0.0000 C    0  0  0  0  0  0  0  0  0  0  0  0
    0.7958   -1.1667    0.0000 C    0  0  0  0  0  0  0  0  0  0  0  0
    0.7958    0.2625    0.0000 C    0  0  0  0  0  0  0  0  0  0  0  0
    0.3833    0.1500    0.0000 O    0  0  0  0  0  0  0  0  0  0  0  0
    2.0333   -1.8833    0.0000 Cl   0  0  0  0  0  0  0  0  0  0  0  0
    2.8583   -0.4542    0.0000 O    0  0  0  0  0  0  0  0  0  0  0  0
    2.0333    0.9750    0.0000 O    0  0  0  0  0  0  0  0  0  0  0  0
    0.7958    1.6917    0.0000 O    0  0  0  0  0  0  0  0  0  0  0  0
    3.2708   -1.1667    0.0000 C    0  0  0  0  0  0  0  0  0  0  0  0
   -3.6625    1.0875    0.0000 C    0  0  0  0  0  0  0  0  0  0  0  0
   -3.6625   -0.5625    0.0000 C    0  0  0  0  0  0  0  0  0  0  0  0
    1.6208    1.6917    0.0000 C    0  0  0  0  0  0  0  0  0  0  0  0
   -4.3750   -0.1500    0.0000 C    0  0  0  0  0  0  0  0  0  0  0  0
   -4.3750    0.6750    0.0000 C    0  0  0  0  0  0  0  0  0  0  0  0
  2  1  2  0  0  0  0
  3  1  1  0  0  0  0
  4  1  1  0  0  0  0
  5  8  1  0  0  0  0
  5  9  2  0  0  0  0
  6  3  2  0  0  0  0
  7  2  1  0  0  0  0
  8 16  2  0  0  0  0
  9 17  1  0  0  0  0
 10  6  1  0  0  0  0
 11  4  1  0  0  0  0
 11  7  2  0  0  0  0
 12 23  1  0  0  0  0
 13 12  3  0  0  0  0
 14  3  1  0  0  0  0
 15 14  1  0  0  0  0
 16 10  1  0  0  0  0
 17 10  2  0  0  0  0
 18 15  2  0  0  0  0
 19  8  1  0  0  0  0
 20  5  1  0  0  0  0
 21  9  1  0  0  0  0
 22 15  1  0  0  0  0
 23 20  1  0  0  0  0
 24  7  1  0  0  0  0
 25 11  1  0  0  0  0
 26 21  1  0  0  0  0
 27 25  2  0  0  0  0
 27 28  1  0  0  0  0
 28 24  2  0  0  0  0
M  END
> <CdId>
2973

> <Mol Weight>
397.808

> <Formula>
C21H16ClNO5

> <Click_ID>
CLK039E07 __ __ 

$$$$
