CLK012_F03
 OpenBabel03181417552D

 26 28  0  0  0  0  0  0  0  0999 V2000
    4.5229    1.4063    0.0000 N   0  0  0  0  0  0  0  0  0  0  0  0
    1.5645   -0.8156    0.0000 N   0  0  0  0  0  0  0  0  0  0  0  0
    1.8225   -1.6020    0.0000 C   0  0  0  0  0  0  0  0  0  0  0  0
    2.9002   -0.8156    0.0000 C   0  0  0  0  0  0  0  0  0  0  0  0
    2.2344   -0.3287    0.0000 C   0  0  0  0  0  0  0  0  0  0  0  0
    3.8488    0.2455    0.0000 C   0  0  0  0  0  0  0  0  0  0  0  0
    3.7115    1.5728    0.0000 C   0  0  0  0  0  0  0  0  0  0  0  0
    4.6103    0.5825    0.0000 C   0  0  0  0  0  0  0  0  0  0  0  0
    2.6463   -1.6020    0.0000 S   0  0  0  0  0  0  0  0  0  0  0  0
    3.6866   -0.5617    0.0000 C   0  0  0  0  0  0  0  0  0  0  0  0
    3.2996    0.8571    0.0000 C   0  0  0  0  0  0  0  0  0  0  0  0
    5.1428    1.9556    0.0000 C   0  0  0  0  0  0  0  0  0  0  0  0
    0.6116    0.2455    0.0000 C   0  0  0  0  0  0  0  0  0  0  0  0
    0.3912    1.0443    0.0000 C   0  0  0  0  0  0  0  0  0  0  0  0
    1.3356   -2.2635    0.0000 O   0  0  0  0  0  0  0  0  0  0  0  0
    2.2261    0.4951    0.0000 O   0  0  0  0  0  0  0  0  0  0  0  0
    0.7864   -0.5617    0.0000 C   0  0  0  0  0  0  0  0  0  0  0  0
    5.9210    1.6934    0.0000 C   0  0  0  0  0  0  0  0  0  0  0  0
    4.9681    2.7462    0.0000 C   0  0  0  0  0  0  0  0  0  0  0  0
    3.3828    2.3301    0.0000 C   0  0  0  0  0  0  0  0  0  0  0  0
    5.3218    0.1706    0.0000 C   0  0  0  0  0  0  0  0  0  0  0  0
    6.3703    3.0416    0.0000 C   0  0  0  0  0  0  0  0  0  0  0  0
    6.5326    2.2344    0.0000 C   0  0  0  0  0  0  0  0  0  0  0  0
    5.5839    3.2954    0.0000 C   0  0  0  0  0  0  0  0  0  0  0  0
    4.1859    3.0041    0.0000 C   0  0  0  0  0  0  0  0  0  0  0  0
    6.0915    0.8863    0.0000 C   0  0  0  0  0  0  0  0  0  0  0  0
  2  5  1  0  0  0  0
  3  9  1  0  0  0  0
  3  2  1  0  0  0  0
  4 10  2  0  0  0  0
  5  4  1  0  0  0  0
  6  8  2  0  0  0  0
  7  1  1  0  0  0  0
  8  1  1  0  0  0  0
  9  4  1  0  0  0  0
 10  6  1  0  0  0  0
 11  7  2  0  0  0  0
 11  6  1  0  0  0  0
 12  1  1  0  0  0  0
 13 17  1  0  0  0  0
 14 13  3  0  0  0  0
 15  3  2  0  0  0  0
 16  5  2  0  0  0  0
 17  2  1  0  0  0  0
 18 12  2  0  0  0  0
 19 12  1  0  0  0  0
 20  7  1  0  0  0  0
 21  8  1  0  0  0  0
 22 24  1  0  0  0  0
 23 18  1  0  0  0  0
 23 22  2  0  0  0  0
 24 19  2  0  0  0  0
 25 19  1  0  0  0  0
 26 18  1  0  0  0  0
M  END
> <CdId>
888

> <Mol Weight>
364.461

> <Formula>
C21H20N2O2S

> <Click_ID>
CLK012_F03 __ __ 

$$$$
