CLK050B02
 OpenBabel03181417552D

 21 22  0  0  0  0  0  0  0  0999 V2000
    0.1960    0.1751    0.0000 N   0  0  0  0  0  0  0  0  0  0  0  0
    0.9841   -0.0793    0.0000 C   0  0  0  0  0  0  0  0  0  0  0  0
   -0.2877   -0.4921    0.0000 C   0  0  0  0  0  0  0  0  0  0  0  0
    0.9841   -0.9050    0.0000 N   0  0  0  0  0  0  0  0  0  0  0  0
    0.1960   -1.1593    0.0000 C   0  0  3  0  0  0  0  0  0  0  0  0
   -0.0583    0.9591    0.0000 C   0  0  0  0  0  0  0  0  0  0  0  0
    0.5379    3.7573    0.0000 C   0  0  0  0  0  0  0  0  0  0  0  0
    0.2794    4.5371    0.0000 C   0  0  0  0  0  0  0  0  0  0  0  0
    0.4962    1.5721    0.0000 C   0  0  0  0  0  0  0  0  0  0  0  0
    1.6514    0.4045    0.0000 O   0  0  0  0  0  0  0  0  0  0  0  0
   -1.1134   -0.4921    0.0000 O   0  0  0  0  0  0  0  0  0  0  0  0
   -0.4587   -1.6639    0.0000 C   0  0  0  0  0  0  0  0  0  0  0  0
    1.3011    1.4012    0.0000 O   0  0  0  0  0  0  0  0  0  0  0  0
    0.2377    2.3603    0.0000 N   0  0  0  0  0  0  0  0  0  0  0  0
    0.4296   -1.9516    0.0000 C   0  0  0  0  0  0  0  0  0  0  0  0
    0.7924    2.9733    0.0000 C   0  0  0  0  0  0  0  0  0  0  0  0
   -1.2218   -1.3511    0.0000 C   0  0  0  0  0  0  0  0  0  0  0  0
   -0.3461   -2.4854    0.0000 C   0  0  0  0  0  0  0  0  0  0  0  0
   -1.0008   -2.9858    0.0000 C   0  0  0  0  0  0  0  0  0  0  0  0
   -1.8766   -1.8557    0.0000 C   0  0  0  0  0  0  0  0  0  0  0  0
   -1.7640   -2.6730    0.0000 C   0  0  0  0  0  0  0  0  0  0  0  0
  2  1  1  0  0  0  0
  3  1  1  0  0  0  0
  4  2  1  0  0  0  0
  4  5  1  0  0  0  0
  5  3  1  0  0  0  0
  6  1  1  0  0  0  0
  7 16  1  0  0  0  0
  8  7  3  0  0  0  0
  9  6  1  0  0  0  0
 10  2  2  0  0  0  0
 11  3  2  0  0  0  0
 12  5  1  0  0  0  0
 13  9  2  0  0  0  0
 14  9  1  0  0  0  0
 15  5  1  0  0  0  0
 16 14  1  0  0  0  0
 17 12  1  0  0  0  0
 18 12  2  0  0  0  0
 19 18  1  0  0  0  0
 20 17  2  0  0  0  0
 21 19  2  0  0  0  0
 21 20  1  0  0  0  0
M  END
> <CdId>
3810

> <Mol Weight>
285.2979

> <Formula>
C15H15N3O3

> <Click_ID>
CLK050B02 __ __ 

$$$$
