CLK047G06
 OpenBabel03181417552D

 22 24  0  0  0  0  0  0  0  0999 V2000
    0.2833    1.7458    0.0000 N   0  0  0  0  0  0  0  0  0  0  0  0
   -0.5000    2.0000    0.0000 C   0  0  0  0  0  0  0  0  0  0  0  0
   -0.5000    0.6667    0.0000 C   0  0  3  0  0  0  0  0  0  0  0  0
   -0.7542   -0.1208    0.0000 C   0  0  0  0  0  0  0  0  0  0  0  0
    0.2833    0.9208    0.0000 C   0  0  0  0  0  0  0  0  0  0  0  0
   -0.9875    1.3333    0.0000 C   0  0  0  0  0  0  0  0  0  0  0  0
   -0.2042   -0.7333    0.0000 N   0  0  0  0  0  0  0  0  0  0  0  0
    0.3917   -3.5292    0.0000 C   0  0  0  0  0  0  0  0  0  0  0  0
    0.9417   -4.1417    0.0000 C   0  0  0  0  0  0  0  0  0  0  0  0
   -0.7542    2.7833    0.0000 O   0  0  0  0  0  0  0  0  0  0  0  0
    0.9500    2.2292    0.0000 C   0  0  0  0  0  0  0  0  0  0  0  0
   -1.5625   -0.2917    0.0000 O   0  0  0  0  0  0  0  0  0  0  0  0
   -0.4583   -1.5167    0.0000 C   0  0  0  0  0  0  0  0  0  0  0  0
   -0.1625   -2.9125    0.0000 C   0  0  0  0  0  0  0  0  0  0  0  0
    0.0917   -2.1292    0.0000 C   0  0  0  0  0  0  0  0  0  0  0  0
   -1.5208   -2.4750    0.0000 C   0  0  0  0  0  0  0  0  0  0  0  0
   -1.2667   -1.6875    0.0000 C   0  0  0  0  0  0  0  0  0  0  0  0
   -0.9667   -3.0875    0.0000 C   0  0  0  0  0  0  0  0  0  0  0  0
    0.9500    3.0542    0.0000 C   0  0  0  0  0  0  0  0  0  0  0  0
    1.7375    1.9750    0.0000 C   0  0  0  0  0  0  0  0  0  0  0  0
    2.2208    2.6417    0.0000 C   0  0  0  0  0  0  0  0  0  0  0  0
    1.7375    3.3083    0.0000 C   0  0  0  0  0  0  0  0  0  0  0  0
  2  1  1  0  0  0  0
  3  5  1  0  0  0  0
  4  3  1  0  0  0  0
  5  1  1  0  0  0  0
  6  2  1  0  0  0  0
  6  3  1  0  0  0  0
  7  4  1  0  0  0  0
  8 14  1  0  0  0  0
  9  8  3  0  0  0  0
 10  2  2  0  0  0  0
 11  1  1  0  0  0  0
 12  4  2  0  0  0  0
 13  7  1  0  0  0  0
 14 15  1  0  0  0  0
 15 13  2  0  0  0  0
 16 17  2  0  0  0  0
 17 13  1  0  0  0  0
 18 14  2  0  0  0  0
 18 16  1  0  0  0  0
 19 11  1  0  0  0  0
 20 11  1  0  0  0  0
 21 20  1  0  0  0  0
 22 19  1  0  0  0  0
 22 21  1  0  0  0  0
M  END
> <CdId>
3607

> <Mol Weight>
296.3636

> <Formula>
C18H20N2O2

> <Click_ID>
CLK047G06 __ __ 

$$$$
