CLK013_E10
 OpenBabel03181417552D

 29 32  0  0  0  0  0  0  0  0999 V2000
    1.5748   -0.8209    0.0000 N   0  0  0  0  0  0  0  0  0  0  0  0
    1.8345   -1.6125    0.0000 C   0  0  0  0  0  0  0  0  0  0  0  0
    2.2491   -0.3309    0.0000 C   0  0  0  0  0  0  0  0  0  0  0  0
    2.9193   -0.8209    0.0000 C   0  0  0  0  0  0  0  0  0  0  0  0
    2.6638   -1.6125    0.0000 S   0  0  0  0  0  0  0  0  0  0  0  0
    3.7109   -0.5654    0.0000 C   0  0  0  0  0  0  0  0  0  0  0  0
    0.6157    0.2471    0.0000 C   0  0  0  0  0  0  0  0  0  0  0  0
    0.3937    1.0512    0.0000 C   0  0  0  0  0  0  0  0  0  0  0  0
    1.3445   -2.2785    0.0000 O   0  0  0  0  0  0  0  0  0  0  0  0
    2.2408    0.4984    0.0000 O   0  0  0  0  0  0  0  0  0  0  0  0
    0.7916   -0.5654    0.0000 C   0  0  0  0  0  0  0  0  0  0  0  0
    4.9883    5.0428    0.0000 C   0  0  0  0  0  0  0  0  0  0  0  0
    4.7998    4.2386    0.0000 C   0  0  0  0  0  0  0  0  0  0  0  0
    3.8826    0.2345    0.0000 C   0  0  0  0  0  0  0  0  0  0  0  0
    5.7799    5.2815    0.0000 C   0  0  0  0  0  0  0  0  0  0  0  0
    6.3705    4.7161    0.0000 C   0  0  0  0  0  0  0  0  0  0  0  0
    4.4355    2.6470    0.0000 O   0  0  0  0  0  0  0  0  0  0  0  0
    5.4030    3.6899    0.0000 C   0  0  0  0  0  0  0  0  0  0  0  0
    4.2512    1.8428    0.0000 C   0  0  0  0  0  0  0  0  0  0  0  0
    5.2145    2.8900    0.0000 C   0  0  0  0  0  0  0  0  0  0  0  0
    6.1862    3.9286    0.0000 C   0  0  0  0  0  0  0  0  0  0  0  0
    4.6616    0.4858    0.0000 C   0  0  0  0  0  0  0  0  0  0  0  0
    3.2711    0.7999    0.0000 C   0  0  0  0  0  0  0  0  0  0  0  0
    3.4596    1.6041    0.0000 C   0  0  0  0  0  0  0  0  0  0  0  0
    4.8375    1.2816    0.0000 C   0  0  0  0  0  0  0  0  0  0  0  0
    4.3894    5.6082    0.0000 C   0  0  0  0  0  0  0  0  0  0  0  0
    5.9600    6.0731    0.0000 C   0  0  0  0  0  0  0  0  0  0  0  0
    4.5779    6.4082    0.0000 C   0  0  0  0  0  0  0  0  0  0  0  0
    5.3695    6.6511    0.0000 C   0  0  0  0  0  0  0  0  0  0  0  0
  2  1  1  0  0  0  0
  3  1  1  0  0  0  0
  4  3  1  0  0  0  0
  4  5  1  0  0  0  0
  5  2  1  0  0  0  0
  6  4  2  0  0  0  0
  7 11  1  0  0  0  0
  8  7  3  0  0  0  0
  9  2  2  0  0  0  0
 10  3  2  0  0  0  0
 11  1  1  0  0  0  0
 12 13  2  0  0  0  0
 12 15  1  0  0  0  0
 13 18  1  0  0  0  0
 14  6  1  0  0  0  0
 15 16  2  0  0  0  0
 16 21  1  0  0  0  0
 17 19  1  0  0  0  0
 18 20  1  0  0  0  0
 19 24  2  0  0  0  0
 19 25  1  0  0  0  0
 20 17  1  0  0  0  0
 21 18  2  0  0  0  0
 22 14  1  0  0  0  0
 23 14  2  0  0  0  0
 24 23  1  0  0  0  0
 25 22  2  0  0  0  0
 26 12  1  0  0  0  0
 27 15  1  0  0  0  0
 28 26  2  0  0  0  0
 28 29  1  0  0  0  0
 29 27  2  0  0  0  0
M  END
> <CdId>
965

> <Mol Weight>
399.462

> <Formula>
C24H17NO3S

> <Click_ID>
CLK013_E10 __ __ 

$$$$
