CLK038D10
 OpenBabel03181417552D

 24 25  0  0  0  0  0  0  0  0999 V2000
   -0.2417   -0.5833    0.0000 S   0  0  0  0  0  0  0  0  0  0  0  0
   -0.2417    0.2417    0.0000 N   0  0  0  0  0  0  0  0  0  0  0  0
   -0.2417    2.7167    0.0000 C   0  0  0  0  0  0  0  0  0  0  0  0
   -0.2417    1.8917    0.0000 N   0  0  0  0  0  0  0  0  0  0  0  0
   -0.2417   -1.4083    0.0000 C   0  0  0  0  0  0  0  0  0  0  0  0
    0.5833   -0.5833    0.0000 O   0  0  0  0  0  0  0  0  0  0  0  0
   -1.0667   -0.5833    0.0000 O   0  0  0  0  0  0  0  0  0  0  0  0
   -0.9542    0.6542    0.0000 C   0  0  0  0  0  0  0  0  0  0  0  0
    0.4750    0.6542    0.0000 C   0  0  0  0  0  0  0  0  0  0  0  0
    1.1875    4.3625    0.0000 C   0  0  0  0  0  0  0  0  0  0  0  0
    1.9042    4.7750    0.0000 C   0  0  0  0  0  0  0  0  0  0  0  0
    0.4750    1.4792    0.0000 C   0  0  0  0  0  0  0  0  0  0  0  0
   -0.9542    1.4792    0.0000 C   0  0  0  0  0  0  0  0  0  0  0  0
   -0.9542    3.1292    0.0000 O   0  0  0  0  0  0  0  0  0  0  0  0
    0.4750    3.1292    0.0000 N   0  0  0  0  0  0  0  0  0  0  0  0
    0.4750   -1.8208    0.0000 C   0  0  0  0  0  0  0  0  0  0  0  0
   -0.9542   -1.8208    0.0000 C   0  0  0  0  0  0  0  0  0  0  0  0
   -0.2417   -3.0583    0.0000 C   0  0  0  0  0  0  0  0  0  0  0  0
    0.4750   -2.6458    0.0000 C   0  0  0  0  0  0  0  0  0  0  0  0
   -0.9542   -2.6458    0.0000 C   0  0  0  0  0  0  0  0  0  0  0  0
    0.4750    3.9542    0.0000 C   0  0  0  0  0  0  0  0  0  0  0  0
   -0.2417   -3.8833    0.0000 O   0  0  0  0  0  0  0  0  0  0  0  0
    0.4750   -4.2958    0.0000 C   0  0  0  0  0  0  0  0  0  0  0  0
    0.4750   -5.1208    0.0000 C   0  0  0  0  0  0  0  0  0  0  0  0
  2  1  1  0  0  0  0
  3  4  1  0  0  0  0
  4 13  1  0  0  0  0
  4 12  1  0  0  0  0
  5  1  1  0  0  0  0
  6  1  2  0  0  0  0
  7  1  2  0  0  0  0
  8  2  1  0  0  0  0
  9  2  1  0  0  0  0
 10 21  1  0  0  0  0
 11 10  3  0  0  0  0
 12  9  1  0  0  0  0
 13  8  1  0  0  0  0
 14  3  2  0  0  0  0
 15  3  1  0  0  0  0
 16  5  1  0  0  0  0
 17  5  2  0  0  0  0
 18 20  2  0  0  0  0
 19 16  2  0  0  0  0
 19 18  1  0  0  0  0
 20 17  1  0  0  0  0
 21 15  1  0  0  0  0
 22 18  1  0  0  0  0
 23 22  1  0  0  0  0
 24 23  1  0  0  0  0
M  END
> <CdId>
2916

> <Mol Weight>
351.421

> <Formula>
C16H21N3O4S

> <Click_ID>
CLK038D10 __ __ 

$$$$
