CLK043F07
 OpenBabel03181417552D

 21 22  0  0  0  0  0  0  0  0999 V2000
    0.4750    0.0000    0.0000 C    0  0  0  0  0  0  0  0  0  0  0  0
   -0.2417   -0.4125    0.0000 C    0  0  0  0  0  0  0  0  0  0  0  0
    0.4750    0.8250    0.0000 C    0  0  0  0  0  0  0  0  0  0  0  0
   -0.2417    1.2375    0.0000 C    0  0  0  0  0  0  0  0  0  0  0  0
   -0.9542    3.3000    0.0000 C    0  0  0  0  0  0  0  0  0  0  0  0
   -0.9542    4.1250    0.0000 C    0  0  0  0  0  0  0  0  0  0  0  0
   -0.2417   -1.2375    0.0000 C    0  0  0  0  0  0  0  0  0  0  0  0
   -0.9542    0.0000    0.0000 O    0  0  0  0  0  0  0  0  0  0  0  0
   -0.9542    0.8250    0.0000 O    0  0  0  0  0  0  0  0  0  0  0  0
   -0.2417    2.0625    0.0000 N    0  0  0  0  0  0  0  0  0  0  0  0
   -0.9542   -1.6500    0.0000 C    0  0  0  0  0  0  0  0  0  0  0  0
    0.4750   -1.6500    0.0000 C    0  0  0  0  0  0  0  0  0  0  0  0
   -0.2417   -2.8875    0.0000 C    0  0  0  0  0  0  0  0  0  0  0  0
   -0.9542   -2.4750    0.0000 C    0  0  0  0  0  0  0  0  0  0  0  0
    0.4750   -2.4750    0.0000 C    0  0  0  0  0  0  0  0  0  0  0  0
   -0.2417   -3.7125    0.0000 Cl   0  0  0  0  0  0  0  0  0  0  0  0
   -0.9542    2.4750    0.0000 C    0  0  0  0  0  0  0  0  0  0  0  0
    1.1875   -0.4125    0.0000 C    0  0  0  0  0  0  0  0  0  0  0  0
    1.1875    1.2375    0.0000 C    0  0  0  0  0  0  0  0  0  0  0  0
    1.9042    0.0000    0.0000 C    0  0  0  0  0  0  0  0  0  0  0  0
    1.9042    0.8250    0.0000 C    0  0  0  0  0  0  0  0  0  0  0  0
  2  1  1  0  0  0  0
  3  1  2  0  0  0  0
  4  3  1  0  0  0  0
  5 17  1  0  0  0  0
  6  5  3  0  0  0  0
  7  2  1  0  0  0  0
  8  2  2  0  0  0  0
  9  4  2  0  0  0  0
 10  4  1  0  0  0  0
 11  7  2  0  0  0  0
 12  7  1  0  0  0  0
 13 14  2  0  0  0  0
 14 11  1  0  0  0  0
 15 12  2  0  0  0  0
 15 13  1  0  0  0  0
 16 13  1  0  0  0  0
 17 10  1  0  0  0  0
 18  1  1  0  0  0  0
 19  3  1  0  0  0  0
 20 18  2  0  0  0  0
 21 19  2  0  0  0  0
 21 20  1  0  0  0  0
M  END
> <CdId>
3294

> <Mol Weight>
297.736

> <Formula>
C17H12ClNO2

> <Click_ID>
CLK043F07 __ __ 

$$$$
