CLK050C08
 OpenBabel03181417552D

 17 18  0  0  0  0  0  0  0  0999 V2000
    1.0667   -0.5792    0.0000 C   0  0  0  0  0  0  0  0  0  0  0  0
    0.3500   -0.1667    0.0000 C   0  0  0  0  0  0  0  0  0  0  0  0
   -1.0792   -0.1667    0.0000 C   0  0  0  0  0  0  0  0  0  0  0  0
    3.2083   -0.1667    0.0000 C   0  0  0  0  0  0  0  0  0  0  0  0
   -0.3625   -0.5792    0.0000 C   0  0  0  0  0  0  0  0  0  0  0  0
    3.9250    0.2458    0.0000 C   0  0  0  0  0  0  0  0  0  0  0  0
   -1.0792    0.6583    0.0000 C   0  0  0  0  0  0  0  0  0  0  0  0
   -1.7250   -0.6833    0.0000 O   0  0  0  0  0  0  0  0  0  0  0  0
   -1.7250    1.1708    0.0000 O   0  0  0  0  0  0  0  0  0  0  0  0
    1.0667   -1.4042    0.0000 O   0  0  0  0  0  0  0  0  0  0  0  0
    0.3500    0.6583    0.0000 C   0  0  0  0  0  0  0  0  0  0  0  0
   -0.3625    1.0708    0.0000 C   0  0  0  0  0  0  0  0  0  0  0  0
    1.7792   -0.1667    0.0000 N   0  0  0  0  0  0  0  0  0  0  0  0
    2.4958   -0.5792    0.0000 C   0  0  0  0  0  0  0  0  0  0  0  0
   -2.8875    0.2458    0.0000 C   0  0  0  0  0  0  0  0  0  0  0  0
   -2.5292   -0.5000    0.0000 C   0  0  0  0  0  0  0  0  0  0  0  0
   -2.5292    0.9875    0.0000 C   0  0  0  0  0  0  0  0  0  0  0  0
  2  1  1  0  0  0  0
  3  5  1  0  0  0  0
  4 14  1  0  0  0  0
  5  2  2  0  0  0  0
  6  4  3  0  0  0  0
  7  3  2  0  0  0  0
  7 12  1  0  0  0  0
  8  3  1  0  0  0  0
  9  7  1  0  0  0  0
 10  1  2  0  0  0  0
 11  2  1  0  0  0  0
 12 11  2  0  0  0  0
 13  1  1  0  0  0  0
 14 13  1  0  0  0  0
 15 16  1  0  0  0  0
 15 17  1  0  0  0  0
 16  8  1  0  0  0  0
 17  9  1  0  0  0  0
M  END
> <CdId>
3859

> <Mol Weight>
231.2472

> <Formula>
C13H13NO3

> <Click_ID>
CLK050C08 __ __ 

$$$$
