CLK003_B09
 OpenBabel03181417552D

 31 35  0  0  0  0  0  0  0  0999 V2000
   -2.1977    0.2035    0.0000 C   0  0  0  0  0  0  0  0  0  0  0  0
   -1.4352   -0.1346    0.0000 C   0  0  0  0  0  0  0  0  0  0  0  0
   -2.7497   -0.4105    0.0000 C   0  0  0  0  0  0  0  0  0  0  0  0
   -2.4495    0.9902    0.0000 C   0  0  0  0  0  0  0  0  0  0  0  0
   -1.5249   -0.9557    0.0000 C   0  0  0  0  0  0  0  0  0  0  0  0
   -0.7245    0.2794    0.0000 C   0  0  0  0  0  0  0  0  0  0  0  0
   -2.3357   -1.1316    0.0000 N   0  0  0  0  0  0  0  0  0  0  0  0
   -3.5535   -0.2346    0.0000 C   0  0  0  0  0  0  0  0  0  0  0  0
   -3.2533    1.1592    0.0000 C   0  0  0  0  0  0  0  0  0  0  0  0
   -0.0034   -0.1346    0.0000 C   0  0  0  0  0  0  0  0  0  0  0  0
   -2.6737   -1.8837    0.0000 C   0  0  0  0  0  0  0  0  0  0  0  0
   -3.8122    0.5417    0.0000 C   0  0  0  0  0  0  0  0  0  0  0  0
    0.7038    0.2829    0.0000 C   0  0  0  0  0  0  0  0  0  0  0  0
   -0.0034   -0.9591    0.0000 C   0  0  0  0  0  0  0  0  0  0  0  0
   -3.4984   -1.9700    0.0000 C   0  0  0  0  0  0  0  0  0  0  0  0
    1.4145   -0.1346    0.0000 N   0  0  0  0  0  0  0  0  0  0  0  0
    0.7038    1.1075    0.0000 O   0  0  0  0  0  0  0  0  0  0  0  0
    0.7038   -1.3697    0.0000 N   0  0  0  0  0  0  0  0  0  0  0  0
   -0.7245   -1.3731    0.0000 O   0  0  0  0  0  0  0  0  0  0  0  0
   -4.3263   -1.9976    0.0000 C   0  0  0  0  0  0  0  0  0  0  0  0
    2.1356    0.2794    0.0000 C   0  0  0  0  0  0  0  0  0  0  0  0
    1.4145   -0.9591    0.0000 C   0  0  0  0  0  0  0  0  0  0  0  0
    2.1356    1.1040    0.0000 C   0  0  0  0  0  0  0  0  0  0  0  0
    2.8497   -0.1415    0.0000 C   0  0  0  0  0  0  0  0  0  0  0  0
    2.1356   -1.3731    0.0000 O   0  0  0  0  0  0  0  0  0  0  0  0
    2.8531    1.5077    0.0000 C   0  0  0  0  0  0  0  0  0  0  0  0
    3.5673    0.2656    0.0000 C   0  0  0  0  0  0  0  0  0  0  0  0
    3.5673    1.0902    0.0000 C   0  0  0  0  0  0  0  0  0  0  0  0
    3.0360    2.3184    0.0000 O   0  0  0  0  0  0  0  0  0  0  0  0
    4.1780    1.6422    0.0000 O   0  0  0  0  0  0  0  0  0  0  0  0
    3.8536    2.3909    0.0000 C   0  0  0  0  0  0  0  0  0  0  0  0
  1  2  1  0  0  0  0
  1  3  1  0  0  0  0
  1  4  2  0  0  0  0
  2  5  2  0  0  0  0
  2  6  1  0  0  0  0
  3  7  1  0  0  0  0
  3  8  2  0  0  0  0
  4  9  1  0  0  0  0
  5  7  1  0  0  0  0
  6 10  2  0  0  0  0
  7 11  1  0  0  0  0
  8 12  1  0  0  0  0
  9 12  2  0  0  0  0
 10 13  1  0  0  0  0
 10 14  1  0  0  0  0
 11 15  1  0  0  0  0
 13 16  1  0  0  0  0
 13 17  2  0  0  0  0
 14 18  1  0  0  0  0
 14 19  2  0  0  0  0
 15 20  3  0  0  0  0
 16 21  1  0  0  0  0
 16 22  1  0  0  0  0
 18 22  1  0  0  0  0
 21 23  1  0  0  0  0
 21 24  2  0  0  0  0
 22 25  2  0  0  0  0
 23 26  2  0  0  0  0
 24 27  1  0  0  0  0
 26 28  1  0  0  0  0
 26 29  1  0  0  0  0
 27 28  2  0  0  0  0
 28 30  1  0  0  0  0
 29 31  1  0  0  0  0
 30 31  1  0  0  0  0
M  END
> <CdId>
178

> <Mol Weight>
413.3823

> <Formula>
C23H15N3O5

> <Click_ID>
CLK003_B09 __ __ 

$$$$
