CLK045F03
 OpenBabel03181417552D

 32 35  0  0  0  0  0  0  0  0999 V2000
    0.3873    0.8578    0.0000 N    0  0  0  0  0  0  0  0  0  0  0  0
    1.1951    0.6829    0.0000 C    0  0  0  0  0  0  0  0  0  0  0  0
    0.2998    1.6783    0.0000 C    0  0  0  0  0  0  0  0  0  0  0  0
    1.6074    1.3992    0.0000 O    0  0  0  0  0  0  0  0  0  0  0  0
    1.0536    2.0114    0.0000 C    0  0  0  0  0  0  0  0  0  0  0  0
    2.5361   -2.3279    0.0000 N    0  0  0  0  0  0  0  0  0  0  0  0
   -2.5569    0.8537    0.0000 C    0  0  0  0  0  0  0  0  0  0  0  0
   -0.4123    2.0906    0.0000 C    0  0  0  0  0  0  0  0  0  0  0  0
    3.3399   -2.4986    0.0000 C    0  0  0  0  0  0  0  0  0  0  0  0
   -2.5569    1.6783    0.0000 C    0  0  0  0  0  0  0  0  0  0  0  0
   -1.8407    0.4415    0.0000 C    0  0  0  0  0  0  0  0  0  0  0  0
   -1.1286    1.6783    0.0000 C    0  0  0  0  0  0  0  0  0  0  0  0
   -4.6974    0.4415    0.0000 C    0  0  0  0  0  0  0  0  0  0  0  0
    1.5284   -0.0667    0.0000 C    0  0  0  0  0  0  0  0  0  0  0  0
    2.1988   -1.5741    0.0000 C    0  0  0  0  0  0  0  0  0  0  0  0
   -5.4137    0.0292    0.0000 C    0  0  0  0  0  0  0  0  0  0  0  0
   -1.8407    2.0906    0.0000 C    0  0  0  0  0  0  0  0  0  0  0  0
   -1.1286    0.8537    0.0000 C    0  0  0  0  0  0  0  0  0  0  0  0
    1.2243    2.8193    0.0000 O    0  0  0  0  0  0  0  0  0  0  0  0
    3.9520   -1.9489    0.0000 O    0  0  0  0  0  0  0  0  0  0  0  0
    1.3784   -1.4867    0.0000 C    0  0  0  0  0  0  0  0  0  0  0  0
    2.6860   -0.9078    0.0000 C    0  0  0  0  0  0  0  0  0  0  0  0
    1.0452   -0.7371    0.0000 C    0  0  0  0  0  0  0  0  0  0  0  0
    2.3487   -0.1541    0.0000 C    0  0  0  0  0  0  0  0  0  0  0  0
   -3.2690    2.0906    0.0000 Cl   0  0  0  0  0  0  0  0  0  0  0  0
   -3.2690    0.4415    0.0000 O    0  0  0  0  0  0  0  0  0  0  0  0
   -1.8407   -0.3831    0.0000 O    0  0  0  0  0  0  0  0  0  0  0  0
    2.1238   -3.0400    0.0000 C    0  0  0  0  0  0  0  0  0  0  0  0
    3.4273   -3.3190    0.0000 C    0  0  0  0  0  0  0  0  0  0  0  0
   -3.9853    0.8537    0.0000 C    0  0  0  0  0  0  0  0  0  0  0  0
    2.6735   -3.6563    0.0000 C    0  0  0  0  0  0  0  0  0  0  0  0
   -1.1286   -0.7954    0.0000 C    0  0  0  0  0  0  0  0  0  0  0  0
  2  1  2  0  0  0  0
  3  1  1  0  0  0  0
  4  2  1  0  0  0  0
  5  3  1  0  0  0  0
  5  4  1  0  0  0  0
  6 15  1  0  0  0  0
  7 10  1  0  0  0  0
  7 11  2  0  0  0  0
  8  3  2  0  0  0  0
  9  6  1  0  0  0  0
 10 17  2  0  0  0  0
 11 18  1  0  0  0  0
 12  8  1  0  0  0  0
 13 30  1  0  0  0  0
 14  2  1  0  0  0  0
 15 22  2  0  0  0  0
 15 21  1  0  0  0  0
 16 13  3  0  0  0  0
 17 12  1  0  0  0  0
 18 12  2  0  0  0  0
 19  5  2  0  0  0  0
 20  9  2  0  0  0  0
 21 23  2  0  0  0  0
 22 24  1  0  0  0  0
 23 14  1  0  0  0  0
 24 14  2  0  0  0  0
 25 10  1  0  0  0  0
 26  7  1  0  0  0  0
 27 11  1  0  0  0  0
 28  6  1  0  0  0  0
 29  9  1  0  0  0  0
 29 31  1  0  0  0  0
 30 26  1  0  0  0  0
 31 28  1  0  0  0  0
 32 27  1  0  0  0  0
M  END
> <CdId>
3422

> <Mol Weight>
450.871

> <Formula>
C24H19ClN2O5

> <Click_ID>
CLK045F03 __ __ 

$$$$
