CLK028_D02
 OpenBabel03181417552D

 28 29  0  0  0  0  0  0  0  0999 V2000
   -0.3615    0.8262    0.0000 C    0  0  0  0  0  0  0  0  0  0  0  0
   -1.0844    1.2359    0.0000 C    0  0  0  0  0  0  0  0  0  0  0  0
   -1.8006    0.8262    0.0000 N    0  0  0  0  0  0  0  0  0  0  0  0
    0.3512    1.2359    0.0000 C    0  0  0  0  0  0  0  0  0  0  0  0
   -2.5097    1.2359    0.0000 C    0  0  0  0  0  0  0  0  0  0  0  0
   -3.2292    0.8262    0.0000 C    0  0  0  0  0  0  0  0  0  0  0  0
   -0.3615   -0.0069    0.0000 C    0  0  0  0  0  0  0  0  0  0  0  0
   -0.3753   -0.8297    0.0000 N    0  0  0  0  0  0  0  0  0  0  0  0
    3.9385   -1.6560    0.0000 C    0  0  0  0  0  0  0  0  0  0  0  0
    4.6511   -2.0691    0.0000 C    0  0  0  0  0  0  0  0  0  0  0  0
    1.7833   -0.4166    0.0000 C    0  0  0  0  0  0  0  0  0  0  0  0
    1.0673    0.8262    0.0000 C    0  0  0  0  0  0  0  0  0  0  0  0
   -1.0844    2.0621    0.0000 O    0  0  0  0  0  0  0  0  0  0  0  0
   -3.9419    1.2359    0.0000 C    0  0  0  0  0  0  0  0  0  0  0  0
    1.0741   -0.0069    0.0000 C    0  0  0  0  0  0  0  0  0  0  0  0
    2.5029   -0.0069    0.0000 C    0  0  0  0  0  0  0  0  0  0  0  0
    2.5029    0.8262    0.0000 C    0  0  0  0  0  0  0  0  0  0  0  0
    1.7833    1.2359    0.0000 C    0  0  0  0  0  0  0  0  0  0  0  0
   -4.6545    0.8262    0.0000 Cl   0  0  0  0  0  0  0  0  0  0  0  0
    1.7971   -1.2462    0.0000 O    0  0  0  0  0  0  0  0  0  0  0  0
    3.2155   -0.4166    0.0000 O    0  0  0  0  0  0  0  0  0  0  0  0
    3.2258   -1.2428    0.0000 C    0  0  0  0  0  0  0  0  0  0  0  0
   -2.5097    2.0725    0.0000 C    0  0  0  0  0  0  0  0  0  0  0  0
   -3.2292    0.0035    0.0000 C    0  0  0  0  0  0  0  0  0  0  0  0
   -3.2292    2.4822    0.0000 C    0  0  0  0  0  0  0  0  0  0  0  0
   -3.9419    2.0725    0.0000 C    0  0  0  0  0  0  0  0  0  0  0  0
    1.0844   -1.6560    0.0000 C    0  0  0  0  0  0  0  0  0  0  0  0
    1.0948   -2.4787    0.0000 C    0  0  0  0  0  0  0  0  0  0  0  0
  2  1  1  0  0  0  0
  3  2  1  0  0  0  0
  4  1  2  0  0  0  0
  5  3  1  0  0  0  0
  6  5  1  0  0  0  0
  7  1  1  0  0  0  0
  8  7  3  0  0  0  0
  9 22  1  0  0  0  0
 10  9  3  0  0  0  0
 11 15  2  0  0  0  0
 12  4  1  0  0  0  0
 13  2  2  0  0  0  0
 14  6  2  0  0  0  0
 15 12  1  0  0  0  0
 16 17  2  0  0  0  0
 16 11  1  0  0  0  0
 17 18  1  0  0  0  0
 18 12  2  0  0  0  0
 19 14  1  0  0  0  0
 20 11  1  0  0  0  0
 21 16  1  0  0  0  0
 22 21  1  0  0  0  0
 23  5  2  0  0  0  0
 24  6  1  0  0  0  0
 25 23  1  0  0  0  0
 26 25  2  0  0  0  0
 26 14  1  0  0  0  0
 27 20  1  0  0  0  0
 28 27  1  0  0  0  0
M  END
> <CdId>
2116

> <Mol Weight>
394.851

> <Formula>
C22H19ClN2O3

> <Click_ID>
CLK028_D02 __ __ 

$$$$
