CLK041G11
 OpenBabel03181417552D

 23 24  0  0  0  0  0  0  0  0999 V2000
   -0.4042   -0.2292    0.0000 N   0  0  0  0  0  0  0  0  0  0  0  0
   -1.1208   -0.6417    0.0000 C   0  0  0  0  0  0  0  0  0  0  0  0
   -1.8333   -0.2292    0.0000 C   0  0  0  0  0  0  0  0  0  0  0  0
   -1.1208    1.0083    0.0000 N   0  0  0  0  0  0  0  0  0  0  0  0
   -1.8333    0.5958    0.0000 C   0  0  0  0  0  0  0  0  0  0  0  0
   -0.4042    0.5958    0.0000 C   0  0  0  0  0  0  0  0  0  0  0  0
    1.0250   -0.2292    0.0000 C   0  0  0  0  0  0  0  0  0  0  0  0
    0.3083   -0.6417    0.0000 C   0  0  0  0  0  0  0  0  0  0  0  0
    3.1667    0.1833    0.0000 C   0  0  0  0  0  0  0  0  0  0  0  0
   -2.5500   -0.6417    0.0000 C   0  0  0  0  0  0  0  0  0  0  0  0
   -2.5500    1.0083    0.0000 C   0  0  0  0  0  0  0  0  0  0  0  0
    3.8792    0.5958    0.0000 C   0  0  0  0  0  0  0  0  0  0  0  0
    1.7375   -0.6417    0.0000 N   0  0  0  0  0  0  0  0  0  0  0  0
   -1.1208   -1.4667    0.0000 O   0  0  0  0  0  0  0  0  0  0  0  0
    2.4500   -0.2292    0.0000 C   0  0  0  0  0  0  0  0  0  0  0  0
    1.0250    0.5958    0.0000 O   0  0  0  0  0  0  0  0  0  0  0  0
   -3.2625    0.5958    0.0000 C   0  0  0  0  0  0  0  0  0  0  0  0
   -3.2625   -0.2292    0.0000 C   0  0  0  0  0  0  0  0  0  0  0  0
   -3.9792    1.0083    0.0000 F   0  0  0  0  0  0  0  0  0  0  0  0
    2.0375    0.4833    0.0000 C   0  0  0  0  0  0  0  0  0  0  0  0
    2.8625   -0.9458    0.0000 C   0  0  0  0  0  0  0  0  0  0  0  0
    2.4500    1.1958    0.0000 C   0  0  0  0  0  0  0  0  0  0  0  0
    2.4500   -1.6583    0.0000 C   0  0  0  0  0  0  0  0  0  0  0  0
  2  1  1  0  0  0  0
  3  2  1  0  0  0  0
  4  6  2  0  0  0  0
  5  3  2  0  0  0  0
  5  4  1  0  0  0  0
  6  1  1  0  0  0  0
  7  8  1  0  0  0  0
  8  1  1  0  0  0  0
  9 15  1  0  0  0  0
 10  3  1  0  0  0  0
 11  5  1  0  0  0  0
 12  9  3  0  0  0  0
 13  7  1  0  0  0  0
 14  2  2  0  0  0  0
 15 13  1  0  0  0  0
 16  7  2  0  0  0  0
 17 11  2  0  0  0  0
 18 10  2  0  0  0  0
 18 17  1  0  0  0  0
 19 17  1  0  0  0  0
 20 15  1  0  0  0  0
 21 15  1  0  0  0  0
 22 20  1  0  0  0  0
 23 21  1  0  0  0  0
M  END
> <CdId>
3167

> <Mol Weight>
315.3421

> <Formula>
C17H18FN3O2

> <Click_ID>
CLK041G11 __ __ 

$$$$
