CLK035_E09
 OpenBabel03181417552D

 21 23  0  0  0  0  0  0  0  0999 V2000
   -3.2852    1.7255    0.0000 C   0  0  0  0  0  0  0  0  0  0  0  0
   -3.2852    2.5593    0.0000 C   0  0  0  0  0  0  0  0  0  0  0  0
   -4.0775    1.4767    0.0000 N   0  0  0  0  0  0  0  0  0  0  0  0
   -4.5628    2.1403    0.0000 N   0  0  0  0  0  0  0  0  0  0  0  0
   -4.0775    2.8082    0.0000 N   0  0  0  0  0  0  0  0  0  0  0  0
   -2.5842    1.3191    0.0000 N   0  0  0  0  0  0  0  0  0  0  0  0
   -2.5842    2.9699    0.0000 C   0  0  0  0  0  0  0  0  0  0  0  0
   -1.8748    2.5469    0.0000 N   0  0  0  0  0  0  0  0  0  0  0  0
   -4.3263    0.6926    0.0000 C   0  0  0  0  0  0  0  0  0  0  0  0
   -1.8748    1.7255    0.0000 C   0  0  0  0  0  0  0  0  0  0  0  0
   -1.1531    3.7787    0.0000 C   0  0  0  0  0  0  0  0  0  0  0  0
   -1.1573    4.5960    0.0000 C   0  0  0  0  0  0  0  0  0  0  0  0
   -3.7705    0.0829    0.0000 C   0  0  0  0  0  0  0  0  0  0  0  0
   -5.1352    0.5226    0.0000 C   0  0  0  0  0  0  0  0  0  0  0  0
   -2.5759    3.7829    0.0000 O   0  0  0  0  0  0  0  0  0  0  0  0
   -4.0277   -0.7010    0.0000 C   0  0  0  0  0  0  0  0  0  0  0  0
   -5.3840   -0.2655    0.0000 C   0  0  0  0  0  0  0  0  0  0  0  0
   -1.1573    2.9575    0.0000 C   0  0  0  0  0  0  0  0  0  0  0  0
   -4.8241   -0.8753    0.0000 C   0  0  0  0  0  0  0  0  0  0  0  0
   -3.4718   -1.3108    0.0000 C   0  0  0  0  0  0  0  0  0  0  0  0
   -6.1764   -0.4355    0.0000 C   0  0  0  0  0  0  0  0  0  0  0  0
  2  1  2  0  0  0  0
  3  1  1  0  0  0  0
  4  3  1  0  0  0  0
  5  2  1  0  0  0  0
  5  4  2  0  0  0  0
  6  1  1  0  0  0  0
  7  2  1  0  0  0  0
  8 10  1  0  0  0  0
  8  7  1  0  0  0  0
  9  3  1  0  0  0  0
 10  6  2  0  0  0  0
 11 18  1  0  0  0  0
 12 11  3  0  0  0  0
 13  9  1  0  0  0  0
 14  9  2  0  0  0  0
 15  7  2  0  0  0  0
 16 13  2  0  0  0  0
 17 14  1  0  0  0  0
 18  8  1  0  0  0  0
 19 17  2  0  0  0  0
 19 16  1  0  0  0  0
 20 16  1  0  0  0  0
 21 17  1  0  0  0  0
M  END
> <CdId>
2693

> <Mol Weight>
279.2966

> <Formula>
C15H13N5O

> <Click_ID>
CLK035_E09 __ __ 

$$$$
