CLK037B08
 OpenBabel03181417552D

 25 26  0  0  0  0  0  0  0  0999 V2000
    2.1125    0.6292    0.0000 S    0  0  0  0  0  0  0  0  0  0  0  0
   -2.1750   -0.1958    0.0000 C    0  0  0  0  0  0  0  0  0  0  0  0
    1.4000    1.0417    0.0000 N    0  0  0  0  0  0  0  0  0  0  0  0
   -2.1750    0.6292    0.0000 C    0  0  0  0  0  0  0  0  0  0  0  0
   -1.4583   -0.6083    0.0000 C    0  0  0  0  0  0  0  0  0  0  0  0
    0.6833    0.6292    0.0000 N    0  0  0  0  0  0  0  0  0  0  0  0
   -4.3167   -0.6083    0.0000 C    0  0  0  0  0  0  0  0  0  0  0  0
   -5.0333   -1.0208    0.0000 C    0  0  0  0  0  0  0  0  0  0  0  0
    2.5250    1.3417    0.0000 O    0  0  0  0  0  0  0  0  0  0  0  0
    1.7000   -0.0875    0.0000 O    0  0  0  0  0  0  0  0  0  0  0  0
    2.8292    0.2167    0.0000 C    0  0  0  0  0  0  0  0  0  0  0  0
   -1.4583    1.0417    0.0000 C    0  0  0  0  0  0  0  0  0  0  0  0
   -0.7458   -0.1958    0.0000 C    0  0  0  0  0  0  0  0  0  0  0  0
   -0.7458    0.6292    0.0000 C    0  0  0  0  0  0  0  0  0  0  0  0
   -0.0292    1.0417    0.0000 C    0  0  0  0  0  0  0  0  0  0  0  0
   -2.8875    1.0417    0.0000 Cl   0  0  0  0  0  0  0  0  0  0  0  0
   -2.8875   -0.6083    0.0000 O    0  0  0  0  0  0  0  0  0  0  0  0
   -1.4583   -1.4333    0.0000 O    0  0  0  0  0  0  0  0  0  0  0  0
   -3.6042   -0.1958    0.0000 C    0  0  0  0  0  0  0  0  0  0  0  0
    2.8292   -0.6083    0.0000 C    0  0  0  0  0  0  0  0  0  0  0  0
    3.5417    0.6292    0.0000 C    0  0  0  0  0  0  0  0  0  0  0  0
   -0.7458   -1.8458    0.0000 C    0  0  0  0  0  0  0  0  0  0  0  0
    4.2542    0.2167    0.0000 C    0  0  0  0  0  0  0  0  0  0  0  0
    3.5417   -1.0208    0.0000 C    0  0  0  0  0  0  0  0  0  0  0  0
    4.2542   -0.6083    0.0000 C    0  0  0  0  0  0  0  0  0  0  0  0
  2  4  1  0  0  0  0
  2  5  2  0  0  0  0
  3  1  1  0  0  0  0
  4 12  2  0  0  0  0
  5 13  1  0  0  0  0
  6  3  1  0  0  0  0
  7 19  1  0  0  0  0
  8  7  3  0  0  0  0
  9  1  2  0  0  0  0
 10  1  2  0  0  0  0
 11  1  1  0  0  0  0
 12 14  1  0  0  0  0
 13 14  2  0  0  0  0
 14 15  1  0  0  0  0
 15  6  2  0  0  0  0
 16  4  1  0  0  0  0
 17  2  1  0  0  0  0
 18  5  1  0  0  0  0
 19 17  1  0  0  0  0
 20 11  1  0  0  0  0
 21 11  2  0  0  0  0
 22 18  1  0  0  0  0
 23 21  1  0  0  0  0
 24 20  2  0  0  0  0
 25 23  2  0  0  0  0
 25 24  1  0  0  0  0
M  END
> <CdId>
2818

> <Mol Weight>
378.83

> <Formula>
C17H15ClN2O4S

> <Click_ID>
CLK037B08 __ __ 

$$$$
