CLK011_B07
 OpenBabel03181417552D

 25 26  0  0  0  0  0  0  0  0999 V2000
   -0.7492   -1.3914    0.0000 C   0  0  0  0  0  0  0  0  0  0  0  0
   -0.0535   -0.9678    0.0000 N   0  0  0  0  0  0  0  0  0  0  0  0
   -0.0669   -0.1605    0.0000 C   0  0  0  0  0  0  0  0  0  0  0  0
    0.6422    0.2631    0.0000 C   0  0  0  0  0  0  0  0  0  0  0  0
    2.7338   -0.1472    0.0000 C   0  0  0  0  0  0  0  0  0  0  0  0
    3.4295   -0.5530    0.0000 C   0  0  0  0  0  0  0  0  0  0  0  0
   -1.4806   -0.1784    0.0000 C   0  0  0  0  0  0  0  0  0  0  0  0
   -0.7626    0.2363    0.0000 C   0  0  0  0  0  0  0  0  0  0  0  0
   -1.4672   -0.9945    0.0000 O   0  0  0  0  0  0  0  0  0  0  0  0
   -0.7313   -2.1986    0.0000 C   0  0  0  0  0  0  0  0  0  0  0  0
    0.6422    1.0837    0.0000 O   0  0  0  0  0  0  0  0  0  0  0  0
   -2.1763    0.2274    0.0000 C   0  0  0  0  0  0  0  0  0  0  0  0
    1.3424   -0.1472    0.0000 O   0  0  0  0  0  0  0  0  0  0  0  0
   -2.8899   -0.1918    0.0000 C   0  0  0  0  0  0  0  0  0  0  0  0
    2.0381    0.2631    0.0000 C   0  0  0  0  0  0  0  0  0  0  0  0
   -1.4271   -2.6535    0.0000 C   0  0  0  0  0  0  0  0  0  0  0  0
   -0.0134   -2.5554    0.0000 C   0  0  0  0  0  0  0  0  0  0  0  0
   -3.6078    0.2274    0.0000 C   0  0  0  0  0  0  0  0  0  0  0  0
   -2.8899   -1.0168    0.0000 C   0  0  0  0  0  0  0  0  0  0  0  0
   -1.3602   -3.4563    0.0000 C   0  0  0  0  0  0  0  0  0  0  0  0
    0.0401   -3.3894    0.0000 C   0  0  0  0  0  0  0  0  0  0  0  0
   -3.6078   -1.4315    0.0000 C   0  0  0  0  0  0  0  0  0  0  0  0
   -4.3303   -0.1918    0.0000 C   0  0  0  0  0  0  0  0  0  0  0  0
   -0.6422   -3.8175    0.0000 C   0  0  0  0  0  0  0  0  0  0  0  0
   -4.3303   -1.0168    0.0000 C   0  0  0  0  0  0  0  0  0  0  0  0
  2  1  1  0  0  0  0
  3  2  1  0  0  0  0
  4  3  1  0  0  0  0
  5 15  1  0  0  0  0
  6  5  3  0  0  0  0
  7  8  1  0  0  0  0
  8  3  2  0  0  0  0
  9  1  2  0  0  0  0
 10  1  1  0  0  0  0
 11  4  2  0  0  0  0
 12  7  2  0  0  0  0
 13  4  1  0  0  0  0
 14 12  1  0  0  0  0
 15 13  1  0  0  0  0
 16 10  2  0  0  0  0
 17 10  1  0  0  0  0
 18 14  1  0  0  0  0
 19 14  2  0  0  0  0
 20 16  1  0  0  0  0
 21 17  2  0  0  0  0
 22 19  1  0  0  0  0
 23 18  2  0  0  0  0
 24 21  1  0  0  0  0
 24 20  2  0  0  0  0
 25 22  2  0  0  0  0
 25 23  1  0  0  0  0
M  END
> <CdId>
772

> <Mol Weight>
331.3646

> <Formula>
C21H17NO3

> <Click_ID>
CLK011_B07 __ __ 

$$$$
