CLK045D11
 OpenBabel03181417552D

 23 24  0  0  0  0  0  0  0  0999 V2000
    0.4000   -0.8042    0.0000 N   0  0  0  0  0  0  0  0  0  0  0  0
    3.9750   -1.2167    0.0000 N   0  0  0  0  0  0  0  0  0  0  0  0
   -2.4542    3.3208    0.0000 C   0  0  0  0  0  0  0  0  0  0  0  0
   -0.3125   -0.3917    0.0000 C   0  0  0  0  0  0  0  0  0  0  0  0
   -3.1708    3.7333    0.0000 C   0  0  0  0  0  0  0  0  0  0  0  0
    0.4000   -1.6292    0.0000 C   0  0  0  0  0  0  0  0  0  0  0  0
    3.2583   -1.6292    0.0000 C   0  0  0  0  0  0  0  0  0  0  0  0
    1.1167   -2.0417    0.0000 C   0  0  0  0  0  0  0  0  0  0  0  0
   -1.0292    0.8458    0.0000 N   0  0  0  0  0  0  0  0  0  0  0  0
   -1.0292   -0.8042    0.0000 O   0  0  0  0  0  0  0  0  0  0  0  0
   -1.7417    2.9083    0.0000 C   0  0  0  0  0  0  0  0  0  0  0  0
   -0.3125    0.4333    0.0000 C   0  0  0  0  0  0  0  0  0  0  0  0
    1.8292   -1.6292    0.0000 S   0  0  0  0  0  0  0  0  0  0  0  0
   -1.0292    1.6708    0.0000 C   0  0  0  0  0  0  0  0  0  0  0  0
   -1.7417    2.0833    0.0000 C   0  0  0  0  0  0  0  0  0  0  0  0
    2.5458   -2.0417    0.0000 C   0  0  0  0  0  0  0  0  0  0  0  0
   -0.3125    2.9083    0.0000 C   0  0  0  0  0  0  0  0  0  0  0  0
   -0.3125   -2.0417    0.0000 C   0  0  0  0  0  0  0  0  0  0  0  0
    1.1167   -2.8667    0.0000 C   0  0  0  0  0  0  0  0  0  0  0  0
   -1.0292    3.3208    0.0000 C   0  0  0  0  0  0  0  0  0  0  0  0
   -0.3125    2.0833    0.0000 C   0  0  0  0  0  0  0  0  0  0  0  0
   -0.3125   -2.8667    0.0000 C   0  0  0  0  0  0  0  0  0  0  0  0
    0.4000   -3.2792    0.0000 C   0  0  0  0  0  0  0  0  0  0  0  0
  2  7  3  0  0  0  0
  3 11  1  0  0  0  0
  4  1  1  0  0  0  0
  5  3  3  0  0  0  0
  6  1  1  0  0  0  0
  7 16  1  0  0  0  0
  8  6  2  0  0  0  0
  9 12  1  0  0  0  0
 10  4  2  0  0  0  0
 11 15  1  0  0  0  0
 12  4  1  0  0  0  0
 13  8  1  0  0  0  0
 14  9  1  0  0  0  0
 15 14  2  0  0  0  0
 16 13  1  0  0  0  0
 17 21  2  0  0  0  0
 18  6  1  0  0  0  0
 19  8  1  0  0  0  0
 20 11  2  0  0  0  0
 20 17  1  0  0  0  0
 21 14  1  0  0  0  0
 22 18  2  0  0  0  0
 23 19  2  0  0  0  0
 23 22  1  0  0  0  0
M  END
> <CdId>
3484

> <Mol Weight>
321.396

> <Formula>
C18H15N3OS

> <Click_ID>
CLK045D11 __ __ 

$$$$
