CLK003_E09
 OpenBabel03181417552D

 22 23  0  0  0  0  0  0  0  0999 V2000
    1.2281   -0.0759    0.0000 C   0  0  0  0  0  0  0  0  0  0  0  0
    1.1866    0.7520    0.0000 C   0  0  0  0  0  0  0  0  0  0  0  0
    0.4588   -0.3656    0.0000 C   0  0  0  0  0  0  0  0  0  0  0  0
    1.9593   -0.4554    0.0000 C   0  0  0  0  0  0  0  0  0  0  0  0
    0.3898    0.9625    0.0000 N   0  0  0  0  0  0  0  0  0  0  0  0
    1.8766    1.1970    0.0000 C   0  0  0  0  0  0  0  0  0  0  0  0
   -0.0621    0.2725    0.0000 C   0  0  0  0  0  0  0  0  0  0  0  0
    0.2484   -1.1659    0.0000 C   0  0  0  0  0  0  0  0  0  0  0  0
    2.6527    0.0000    0.0000 C   0  0  0  0  0  0  0  0  0  0  0  0
    0.0966    1.7351    0.0000 C   0  0  0  0  0  0  0  0  0  0  0  0
    2.6113    0.8244    0.0000 C   0  0  0  0  0  0  0  0  0  0  0  0
   -0.5485   -1.3798    0.0000 C   0  0  0  0  0  0  0  0  0  0  0  0
    0.6140    2.3733    0.0000 C   0  0  0  0  0  0  0  0  0  0  0  0
   -1.1349   -0.8003    0.0000 C   0  0  0  0  0  0  0  0  0  0  0  0
   -0.7658   -2.1801    0.0000 C   0  0  0  0  0  0  0  0  0  0  0  0
    1.1728    2.9839    0.0000 C   0  0  0  0  0  0  0  0  0  0  0  0
   -1.9352   -1.0142    0.0000 N   0  0  0  0  0  0  0  0  0  0  0  0
   -0.9244    0.0000    0.0000 O   0  0  0  0  0  0  0  0  0  0  0  0
   -0.9866   -2.9666    0.0000 N   0  0  0  0  0  0  0  0  0  0  0  0
   -2.5147   -0.4278    0.0000 C   0  0  0  0  0  0  0  0  0  0  0  0
   -2.3043    0.3725    0.0000 C   0  0  0  0  0  0  0  0  0  0  0  0
   -3.3115   -0.6416    0.0000 C   0  0  0  0  0  0  0  0  0  0  0  0
  1  2  1  0  0  0  0
  1  3  1  0  0  0  0
  1  4  2  0  0  0  0
  2  5  1  0  0  0  0
  2  6  2  0  0  0  0
  3  7  2  0  0  0  0
  3  8  1  0  0  0  0
  4  9  1  0  0  0  0
  5 10  1  0  0  0  0
  5  7  1  0  0  0  0
  6 11  1  0  0  0  0
  8 12  2  0  0  0  0
  9 11  2  0  0  0  0
 10 13  1  0  0  0  0
 12 14  1  0  0  0  0
 12 15  1  0  0  0  0
 13 16  3  0  0  0  0
 14 17  1  0  0  0  0
 14 18  2  0  0  0  0
 15 19  3  0  0  0  0
 17 20  1  0  0  0  0
 20 21  1  0  0  0  0
 20 22  1  0  0  0  0
M  END
> <CdId>
208

> <Mol Weight>
291.3471

> <Formula>
C18H17N3O

> <Click_ID>
CLK003_E09 __ __ 

$$$$
