CLK009_A10
 OpenBabel03181417552D

 19 19  0  0  0  0  0  0  0  0999 V2000
    2.9867   -2.0751    0.0000 C   0  0  0  0  0  0  0  0  0  0  0  0
    3.3852   -1.3514    0.0000 C   0  0  0  0  0  0  0  0  0  0  0  0
    5.9551   -4.1273    0.0000 C   0  0  0  0  0  0  0  0  0  0  0  0
    3.4265   -2.7806    0.0000 C   0  0  0  0  0  0  0  0  0  0  0  0
    0.9116   -1.4292    0.0000 C   0  0  0  0  0  0  0  0  0  0  0  0
    0.0871   -1.4476    0.0000 C   0  0  0  0  0  0  0  0  0  0  0  0
    5.9138   -2.6981    0.0000 N   0  0  0  0  0  0  0  0  0  0  0  0
    5.5703   -4.8557    0.0000 S   0  0  0  0  0  0  0  0  0  0  0  0
    4.2098   -1.3239    0.0000 C   0  0  0  0  0  0  0  0  0  0  0  0
    4.2510   -2.7531    0.0000 C   0  0  0  0  0  0  0  0  0  0  0  0
    5.5153   -3.4265    0.0000 N   0  0  0  0  0  0  0  0  0  0  0  0
    4.6495   -2.0339    0.0000 C   0  0  0  0  0  0  0  0  0  0  0  0
    5.4741   -1.9973    0.0000 C   0  0  0  0  0  0  0  0  0  0  0  0
    6.7796   -4.0998    0.0000 N   0  0  0  0  0  0  0  0  0  0  0  0
    2.9455   -0.6459    0.0000 I   0  0  0  0  0  0  0  0  0  0  0  0
    2.1622   -2.1072    0.0000 O   0  0  0  0  0  0  0  0  0  0  0  0
    3.0279   -3.5180    0.0000 O   0  0  0  0  0  0  0  0  0  0  0  0
    1.7362   -1.4063    0.0000 C   0  0  0  0  0  0  0  0  0  0  0  0
    3.4677   -4.2098    0.0000 C   0  0  0  0  0  0  0  0  0  0  0  0
  2  1  2  0  0  0  0
  3 11  1  0  0  0  0
  4  1  1  0  0  0  0
  5 18  1  0  0  0  0
  6  5  3  0  0  0  0
  7 13  2  0  0  0  0
  8  3  2  0  0  0  0
  9  2  1  0  0  0  0
 10  4  2  0  0  0  0
 11  7  1  0  0  0  0
 12 10  1  0  0  0  0
 12  9  2  0  0  0  0
 13 12  1  0  0  0  0
 14  3  1  0  0  0  0
 15  2  1  0  0  0  0
 16  1  1  0  0  0  0
 17  4  1  0  0  0  0
 18 16  1  0  0  0  0
 19 17  1  0  0  0  0
M  END
> <CdId>
605

> <Mol Weight>
389.212

> <Formula>
C12H12IN3O2S

> <Click_ID>
CLK009_A10 __ __ 

$$$$
