CLK018_D06
 OpenBabel03181417552D

 25 26  0  0  0  0  0  0  0  0999 V2000
    4.3261   -4.8116    0.0000 C    0  0  0  0  0  0  0  0  0  0  0  0
    3.7726   -5.4234    0.0000 C    0  0  0  0  0  0  0  0  0  0  0  0
    4.0688   -4.0251    0.0000 C    0  0  0  0  0  0  0  0  0  0  0  0
    2.9618   -5.2486    0.0000 O    0  0  0  0  0  0  0  0  0  0  0  0
    3.2677   -3.8503    0.0000 O    0  0  0  0  0  0  0  0  0  0  0  0
    2.7141   -4.4621    0.0000 C    0  0  0  0  0  0  0  0  0  0  0  0
    5.1321   -4.9719    0.0000 C    0  0  0  0  0  0  0  0  0  0  0  0
    6.7731   -3.1366    0.0000 C    0  0  0  0  0  0  0  0  0  0  0  0
    7.0402   -3.9086    0.0000 C    0  0  0  0  0  0  0  0  0  0  0  0
    5.9720   -2.9714    0.0000 C    0  0  0  0  0  0  0  0  0  0  0  0
    5.6807   -4.3601    0.0000 C    0  0  0  0  0  0  0  0  0  0  0  0
    8.6570   -2.0441    0.0000 C    0  0  0  0  0  0  0  0  0  0  0  0
    9.1960   -1.4178    0.0000 C    0  0  0  0  0  0  0  0  0  0  0  0
    6.4867   -4.5300    0.0000 C    0  0  0  0  0  0  0  0  0  0  0  0
    5.4234   -3.5881    0.0000 C    0  0  0  0  0  0  0  0  0  0  0  0
    4.6223   -3.4133    0.0000 O    0  0  0  0  0  0  0  0  0  0  0  0
    4.0251   -6.2100    0.0000 O    0  0  0  0  0  0  0  0  0  0  0  0
    7.8559   -4.0688    0.0000 Br   0  0  0  0  0  0  0  0  0  0  0  0
    7.3170   -2.5102    0.0000 O    0  0  0  0  0  0  0  0  0  0  0  0
    5.7147   -2.1752    0.0000 O    0  0  0  0  0  0  0  0  0  0  0  0
    1.8985   -4.2873    0.0000 C    0  0  0  0  0  0  0  0  0  0  0  0
    1.8936   -4.5737    0.0000 C    0  0  0  0  0  0  0  0  0  0  0  0
    8.1278   -2.6656    0.0000 C    0  0  0  0  0  0  0  0  0  0  0  0
    4.9087   -2.0004    0.0000 C    0  0  0  0  0  0  0  0  0  0  0  0
    4.6514   -1.2139    0.0000 C    0  0  0  0  0  0  0  0  0  0  0  0
  2  1  1  0  0  0  0
  3  1  1  0  0  0  0
  4  2  1  0  0  0  0
  4  6  1  0  0  0  0
  5  3  1  0  0  0  0
  6  5  1  0  0  0  0
  7  1  2  0  0  0  0
  8 10  1  0  0  0  0
  8  9  2  0  0  0  0
  9 14  1  0  0  0  0
 10 15  2  0  0  0  0
 11  7  1  0  0  0  0
 12 23  1  0  0  0  0
 13 12  3  0  0  0  0
 14 11  2  0  0  0  0
 15 11  1  0  0  0  0
 16  3  2  0  0  0  0
 17  2  2  0  0  0  0
 18  9  1  0  0  0  0
 19  8  1  0  0  0  0
 20 10  1  0  0  0  0
 21  6  1  0  0  0  0
 22  6  1  0  0  0  0
 23 19  1  0  0  0  0
 24 20  1  0  0  0  0
 25 24  1  0  0  0  0
M  END
> <CdId>
1351

> <Mol Weight>
409.228

> <Formula>
C18H17BrO6

> <Click_ID>
CLK018_D06 __ __ 

$$$$
