CLK014_F02
 OpenBabel03181417552D

 25 27  0  0  0  0  0  0  0  0999 V2000
    1.5667   -0.8167    0.0000 N   0  0  0  0  0  0  0  0  0  0  0  0
    1.8250   -1.6042    0.0000 C   0  0  0  0  0  0  0  0  0  0  0  0
    4.5250    1.3875    0.0000 N   0  0  0  0  0  0  0  0  0  0  0  0
    2.9042   -0.8167    0.0000 C   0  0  0  0  0  0  0  0  0  0  0  0
    2.2375   -0.3292    0.0000 C   0  0  0  0  0  0  0  0  0  0  0  0
    3.8542    0.2458    0.0000 C   0  0  0  0  0  0  0  0  0  0  0  0
    2.6500   -1.6042    0.0000 S   0  0  0  0  0  0  0  0  0  0  0  0
    3.7167    1.5583    0.0000 C   0  0  0  0  0  0  0  0  0  0  0  0
    4.6125    0.5708    0.0000 C   0  0  0  0  0  0  0  0  0  0  0  0
    3.6917   -0.5625    0.0000 C   0  0  0  0  0  0  0  0  0  0  0  0
    3.3042    0.8500    0.0000 C   0  0  0  0  0  0  0  0  0  0  0  0
    5.1375    1.9458    0.0000 C   0  0  0  0  0  0  0  0  0  0  0  0
    0.6125    0.2458    0.0000 C   0  0  0  0  0  0  0  0  0  0  0  0
    5.9167    1.6833    0.0000 C   0  0  0  0  0  0  0  0  0  0  0  0
    0.3917    1.0458    0.0000 C   0  0  0  0  0  0  0  0  0  0  0  0
    1.3375   -2.2667    0.0000 O   0  0  0  0  0  0  0  0  0  0  0  0
    2.2292    0.4958    0.0000 O   0  0  0  0  0  0  0  0  0  0  0  0
    0.7875   -0.5625    0.0000 C   0  0  0  0  0  0  0  0  0  0  0  0
    6.5292    2.2333    0.0000 C   0  0  0  0  0  0  0  0  0  0  0  0
    3.3792    2.3208    0.0000 C   0  0  0  0  0  0  0  0  0  0  0  0
    5.3250    0.1583    0.0000 C   0  0  0  0  0  0  0  0  0  0  0  0
    4.9625    2.7458    0.0000 C   0  0  0  0  0  0  0  0  0  0  0  0
    7.3125    1.9750    0.0000 I   0  0  0  0  0  0  0  0  0  0  0  0
    5.5792    3.2958    0.0000 C   0  0  0  0  0  0  0  0  0  0  0  0
    6.3542    3.0458    0.0000 C   0  0  0  0  0  0  0  0  0  0  0  0
  2  1  1  0  0  0  0
  3  9  1  0  0  0  0
  3  8  1  0  0  0  0
  4  5  1  0  0  0  0
  4  7  1  0  0  0  0
  5  1  1  0  0  0  0
  6 10  1  0  0  0  0
  7  2  1  0  0  0  0
  8 11  2  0  0  0  0
  9  6  2  0  0  0  0
 10  4  2  0  0  0  0
 11  6  1  0  0  0  0
 12  3  1  0  0  0  0
 13 18  1  0  0  0  0
 14 12  2  0  0  0  0
 15 13  3  0  0  0  0
 16  2  2  0  0  0  0
 17  5  2  0  0  0  0
 18  1  1  0  0  0  0
 19 14  1  0  0  0  0
 19 25  2  0  0  0  0
 20  8  1  0  0  0  0
 21  9  1  0  0  0  0
 22 12  1  0  0  0  0
 23 19  1  0  0  0  0
 24 22  2  0  0  0  0
 25 24  1  0  0  0  0
M  END
> <CdId>
1047

> <Mol Weight>
462.304

> <Formula>
C19H15IN2O2S

> <Click_ID>
CLK014_F02 __ __ 

$$$$
