CLK037C03
 OpenBabel03181417552D

 21 21  0  0  0  0  0  0  0  0999 V2000
    1.0875   -3.2583    0.0000 C    0  0  0  0  0  0  0  0  0  0  0  0
    1.0875   -4.0833    0.0000 C    0  0  0  0  0  0  0  0  0  0  0  0
    0.3708   -1.1958    0.0000 C    0  0  0  0  0  0  0  0  0  0  0  0
    1.0875   -1.6083    0.0000 N    0  0  0  0  0  0  0  0  0  0  0  0
    1.0875   -2.4333    0.0000 C    0  0  0  0  0  0  0  0  0  0  0  0
   -0.3417   -1.6083    0.0000 O    0  0  0  0  0  0  0  0  0  0  0  0
   -1.0583    3.7542    0.0000 C    0  0  0  0  0  0  0  0  0  0  0  0
   -1.0583    2.1042    0.0000 C    0  0  0  0  0  0  0  0  0  0  0  0
   -1.0583    4.5750    0.0000 Br   0  0  0  0  0  0  0  0  0  0  0  0
   -0.3417    3.3417    0.0000 C    0  0  0  0  0  0  0  0  0  0  0  0
   -1.7708    3.3417    0.0000 C    0  0  0  0  0  0  0  0  0  0  0  0
   -0.3417    2.5167    0.0000 C    0  0  0  0  0  0  0  0  0  0  0  0
   -1.7708    2.5167    0.0000 C    0  0  0  0  0  0  0  0  0  0  0  0
   -1.0583    1.2792    0.0000 O    0  0  0  0  0  0  0  0  0  0  0  0
    0.3708   -0.3708    0.0000 C    0  0  0  0  0  0  0  0  0  0  0  0
    1.9125   -2.4333    0.0000 C    0  0  0  0  0  0  0  0  0  0  0  0
    0.2625   -2.4333    0.0000 C    0  0  0  0  0  0  0  0  0  0  0  0
   -0.3417    0.8667    0.0000 C    0  0  0  0  0  0  0  0  0  0  0  0
   -0.3417    0.0417    0.0000 C    0  0  0  0  0  0  0  0  0  0  0  0
    2.3250   -3.1500    0.0000 C    0  0  0  0  0  0  0  0  0  0  0  0
   -0.1500   -1.7208    0.0000 C    0  0  0  0  0  0  0  0  0  0  0  0
  2  1  3  0  0  0  0
  3  4  1  0  0  0  0
  4  5  1  0  0  0  0
  5  1  1  0  0  0  0
  6  3  2  0  0  0  0
  7 11  2  0  0  0  0
  7 10  1  0  0  0  0
  8 14  1  0  0  0  0
  9  7  1  0  0  0  0
 10 12  2  0  0  0  0
 11 13  1  0  0  0  0
 12  8  1  0  0  0  0
 13  8  2  0  0  0  0
 14 18  1  0  0  0  0
 15  3  1  0  0  0  0
 16  5  1  0  0  0  0
 17  5  1  0  0  0  0
 18 19  1  0  0  0  0
 19 15  1  0  0  0  0
 20 16  1  0  0  0  0
 21 17  1  0  0  0  0
M  END
> <CdId>
2779

> <Mol Weight>
352.266

> <Formula>
C17H22BrNO2

> <Click_ID>
CLK037C03 __ __ 

$$$$
