CLK043E09
 OpenBabel03181417552D

 21 22  0  0  0  0  0  0  0  0999 V2000
   -0.4792    1.6500    0.0000 S   0  0  0  0  0  0  0  0  0  0  0  0
   -0.4792   -1.6500    0.0000 C   0  0  0  0  0  0  0  0  0  0  0  0
    0.2375   -2.0625    0.0000 N   0  0  0  0  0  0  0  0  0  0  0  0
   -0.4792    0.8250    0.0000 C   0  0  0  0  0  0  0  0  0  0  0  0
    0.2375    3.7125    0.0000 C   0  0  0  0  0  0  0  0  0  0  0  0
    0.2375    4.5333    0.0000 C   0  0  0  0  0  0  0  0  0  0  0  0
   -1.3042    1.6500    0.0000 O   0  0  0  0  0  0  0  0  0  0  0  0
    0.3458    1.6500    0.0000 O   0  0  0  0  0  0  0  0  0  0  0  0
   -0.4792   -0.8250    0.0000 C   0  0  0  0  0  0  0  0  0  0  0  0
   -0.4792    2.4750    0.0000 N   0  0  0  0  0  0  0  0  0  0  0  0
   -1.1917   -2.0625    0.0000 O   0  0  0  0  0  0  0  0  0  0  0  0
    0.2375    0.4125    0.0000 C   0  0  0  0  0  0  0  0  0  0  0  0
   -1.1917    0.4125    0.0000 C   0  0  0  0  0  0  0  0  0  0  0  0
    0.2375   -0.4125    0.0000 C   0  0  0  0  0  0  0  0  0  0  0  0
   -1.1917   -0.4125    0.0000 C   0  0  0  0  0  0  0  0  0  0  0  0
    0.2375    2.8917    0.0000 C   0  0  0  0  0  0  0  0  0  0  0  0
    0.9500   -1.6500    0.0000 C   0  0  0  0  0  0  0  0  0  0  0  0
    0.2375   -2.8875    0.0000 C   0  0  0  0  0  0  0  0  0  0  0  0
    0.9500   -3.3000    0.0000 C   0  0  0  0  0  0  0  0  0  0  0  0
    1.6667   -2.0625    0.0000 C   0  0  0  0  0  0  0  0  0  0  0  0
    1.6667   -2.8875    0.0000 C   0  0  0  0  0  0  0  0  0  0  0  0
  2  9  1  0  0  0  0
  3  2  1  0  0  0  0
  4  1  1  0  0  0  0
  5 16  1  0  0  0  0
  6  5  3  0  0  0  0
  7  1  2  0  0  0  0
  8  1  2  0  0  0  0
  9 15  2  0  0  0  0
 10  1  1  0  0  0  0
 11  2  2  0  0  0  0
 12  4  1  0  0  0  0
 13  4  2  0  0  0  0
 14 12  2  0  0  0  0
 14  9  1  0  0  0  0
 15 13  1  0  0  0  0
 16 10  1  0  0  0  0
 17  3  1  0  0  0  0
 18  3  1  0  0  0  0
 19 18  1  0  0  0  0
 20 17  1  0  0  0  0
 21 20  1  0  0  0  0
 21 19  1  0  0  0  0
M  END
> <CdId>
3309

> <Mol Weight>
306.38

> <Formula>
C15H18N2O3S

> <Click_ID>
CLK043E09 __ __ 

$$$$
