CLK019_H02
 OpenBabel03181417552D

 13 13  0  0  0  0  0  0  0  0999 V2000
    3.6384    1.8420    0.0000 C   0  0  0  0  0  0  0  0  0  0  0  0
    3.8126    2.6468    0.0000 C   0  0  0  0  0  0  0  0  0  0  0  0
    3.1156   -0.5642    0.0000 C   0  0  0  0  0  0  0  0  0  0  0  0
    2.4933   -0.0166    0.0000 C   0  0  0  0  0  0  0  0  0  0  0  0
    2.9414   -1.3732    0.0000 C   0  0  0  0  0  0  0  0  0  0  0  0
    1.7217   -0.2655    0.0000 C   0  0  0  0  0  0  0  0  0  0  0  0
    3.8997   -0.3029    0.0000 I   0  0  0  0  0  0  0  0  0  0  0  0
    2.1780   -1.6221    0.0000 C   0  0  0  0  0  0  0  0  0  0  0  0
    1.5599   -1.0745    0.0000 C   0  0  0  0  0  0  0  0  0  0  0  0
    2.6759    0.7924    0.0000 O   0  0  0  0  0  0  0  0  0  0  0  0
    3.4641    1.0413    0.0000 C   0  0  0  0  0  0  0  0  0  0  0  0
    1.2239   -2.6925    0.0000 O   0  0  0  0  0  0  0  0  0  0  0  0
    2.0080   -2.4394    0.0000 C   0  0  0  0  0  0  0  0  0  0  0  0
  2  1  3  0  0  0  0
  3  4  1  0  0  0  0
  4 10  1  0  0  0  0
  5  3  2  0  0  0  0
  6  4  2  0  0  0  0
  7  3  1  0  0  0  0
  8  9  2  0  0  0  0
  8  5  1  0  0  0  0
  9  6  1  0  0  0  0
 10 11  1  0  0  0  0
 11  1  1  0  0  0  0
 12 13  1  0  0  0  0
 13  8  1  0  0  0  0
M  END
> <CdId>
1467

> <Mol Weight>
288.0817

> <Formula>
C10H9IO2

> <Click_ID>
CLK019_H02 __ __ 

$$$$
