CLK033_F08
 OpenBabel03181417552D

 31 34  0  0  0  0  0  0  0  0999 V2000
   -4.5866    2.5532    0.0000 C   0  0  0  0  0  0  0  0  0  0  0  0
   -0.9980    5.4390    0.0000 S   0  0  0  0  0  0  0  0  0  0  0  0
   -3.8547    2.9773    0.0000 N   0  0  0  0  0  0  0  0  0  0  0  0
   -4.6781    1.7298    0.0000 N   0  0  0  0  0  0  0  0  0  0  0  0
   -5.3101    2.8942    0.0000 S   0  0  0  0  0  0  0  0  0  0  0  0
   -0.2827    5.8424    0.0000 N   0  0  0  0  0  0  0  0  0  0  0  0
   -5.4847    1.5801    0.0000 C   0  0  0  0  0  0  0  0  0  0  0  0
   -5.8839    2.3037    0.0000 C   0  0  0  0  0  0  0  0  0  0  0  0
   -3.8630    3.7924    0.0000 C   0  0  0  0  0  0  0  0  0  0  0  0
   -1.7173    5.0191    0.0000 C   0  0  0  0  0  0  0  0  0  0  0  0
   -4.2622    0.3576    0.0000 C   0  0  0  0  0  0  0  0  0  0  0  0
   -0.5863    4.7197    0.0000 O   0  0  0  0  0  0  0  0  0  0  0  0
   -1.4097    6.1543    0.0000 O   0  0  0  0  0  0  0  0  0  0  0  0
   -4.4493   -0.4533    0.0000 C   0  0  0  0  0  0  0  0  0  0  0  0
   -3.1519    4.2040    0.0000 C   0  0  0  0  0  0  0  0  0  0  0  0
   -4.5741    4.2040    0.0000 O   0  0  0  0  0  0  0  0  0  0  0  0
   -5.9131    0.8815    0.0000 C   0  0  0  0  0  0  0  0  0  0  0  0
   -4.0751    1.1602    0.0000 C   0  0  0  0  0  0  0  0  0  0  0  0
   -1.7215    4.1957    0.0000 C   0  0  0  0  0  0  0  0  0  0  0  0
   -2.4326    5.4390    0.0000 C   0  0  0  0  0  0  0  0  0  0  0  0
   -2.4326    3.8006    0.0000 C   0  0  0  0  0  0  0  0  0  0  0  0
   -3.1519    5.0191    0.0000 C   0  0  0  0  0  0  0  0  0  0  0  0
    1.1519    6.6782    0.0000 O   0  0  0  0  0  0  0  0  0  0  0  0
   -0.2827    6.6782    0.0000 C   0  0  0  0  0  0  0  0  0  0  0  0
    0.4283    5.4432    0.0000 C   0  0  0  0  0  0  0  0  0  0  0  0
   -6.6990    2.3286    0.0000 C   0  0  0  0  0  0  0  0  0  0  0  0
    0.4366    7.0899    0.0000 C   0  0  0  0  0  0  0  0  0  0  0  0
    1.1477    5.8549    0.0000 C   0  0  0  0  0  0  0  0  0  0  0  0
   -7.1273    1.6217    0.0000 C   0  0  0  0  0  0  0  0  0  0  0  0
   -6.7157    0.8940    0.0000 C   0  0  0  0  0  0  0  0  0  0  0  0
   -5.5222    0.1497    0.0000 C   0  0  0  0  0  0  0  0  0  0  0  0
  2 10  1  0  0  0  0
  3  1  2  0  0  0  0
  4  1  1  0  0  0  0
  5  1  1  0  0  0  0
  6  2  1  0  0  0  0
  7  4  1  0  0  0  0
  8  5  1  0  0  0  0
  8  7  2  0  0  0  0
  9  3  1  0  0  0  0
 10 20  1  0  0  0  0
 10 19  2  0  0  0  0
 11 18  1  0  0  0  0
 12  2  2  0  0  0  0
 13  2  2  0  0  0  0
 14 11  3  0  0  0  0
 15  9  1  0  0  0  0
 16  9  2  0  0  0  0
 17  7  1  0  0  0  0
 18  4  1  0  0  0  0
 19 21  1  0  0  0  0
 20 22  2  0  0  0  0
 21 15  2  0  0  0  0
 22 15  1  0  0  0  0
 23 28  1  0  0  0  0
 23 27  1  0  0  0  0
 24  6  1  0  0  0  0
 25  6  1  0  0  0  0
 26  8  1  0  0  0  0
 27 24  1  0  0  0  0
 28 25  1  0  0  0  0
 29 26  2  0  0  0  0
 30 17  2  0  0  0  0
 30 29  1  0  0  0  0
 31 17  1  0  0  0  0
M  END
> <CdId>
2542

> <Mol Weight>
455.55

> <Formula>
C22H21N3O4S2

> <Click_ID>
CLK033_F08 __ __ 

$$$$
