CLK012_B02
 OpenBabel03181417552D

 26 28  0  0  0  0  0  0  0  0999 V2000
    1.5629   -0.8147    0.0000 N   0  0  0  0  0  0  0  0  0  0  0  0
    1.8206   -1.6003    0.0000 C   0  0  0  0  0  0  0  0  0  0  0  0
    2.2321   -0.3284    0.0000 C   0  0  0  0  0  0  0  0  0  0  0  0
    2.8972   -0.8147    0.0000 C   0  0  0  0  0  0  0  0  0  0  0  0
    2.6436   -1.6003    0.0000 S   0  0  0  0  0  0  0  0  0  0  0  0
    3.6828   -0.5611    0.0000 C   0  0  0  0  0  0  0  0  0  0  0  0
    0.6110    0.2452    0.0000 C   0  0  0  0  0  0  0  0  0  0  0  0
    0.3908    1.0433    0.0000 C   0  0  0  0  0  0  0  0  0  0  0  0
    1.3343   -2.2612    0.0000 O   0  0  0  0  0  0  0  0  0  0  0  0
    2.2238    0.4946    0.0000 O   0  0  0  0  0  0  0  0  0  0  0  0
    0.7856   -0.5611    0.0000 C   0  0  0  0  0  0  0  0  0  0  0  0
    3.8531    0.2369    0.0000 C   0  0  0  0  0  0  0  0  0  0  0  0
    4.3519    2.6561    0.0000 O   0  0  0  0  0  0  0  0  0  0  0  0
    4.1815    1.8538    0.0000 C   0  0  0  0  0  0  0  0  0  0  0  0
    6.0852    3.9861    0.0000 C   0  0  0  0  0  0  0  0  0  0  0  0
    5.1375    2.9179    0.0000 C   0  0  0  0  0  0  0  0  0  0  0  0
    5.2914    3.7243    0.0000 C   0  0  0  0  0  0  0  0  0  0  0  0
    3.2421    0.7939    0.0000 C   0  0  0  0  0  0  0  0  0  0  0  0
    4.6263    0.5071    0.0000 C   0  0  0  0  0  0  0  0  0  0  0  0
    3.3960    1.6044    0.0000 C   0  0  0  0  0  0  0  0  0  0  0  0
    4.7926    1.3176    0.0000 C   0  0  0  0  0  0  0  0  0  0  0  0
    6.2391    4.7801    0.0000 C   0  0  0  0  0  0  0  0  0  0  0  0
    4.8424    5.0752    0.0000 C   0  0  0  0  0  0  0  0  0  0  0  0
    4.6803    4.2646    0.0000 C   0  0  0  0  0  0  0  0  0  0  0  0
    5.6280    5.3288    0.0000 C   0  0  0  0  0  0  0  0  0  0  0  0
    7.0246    5.0544    0.0000 C   0  0  0  0  0  0  0  0  0  0  0  0
  2  1  1  0  0  0  0
  3  1  1  0  0  0  0
  4  3  1  0  0  0  0
  5  2  1  0  0  0  0
  5  4  1  0  0  0  0
  6  4  2  0  0  0  0
  7 11  1  0  0  0  0
  8  7  3  0  0  0  0
  9  2  2  0  0  0  0
 10  3  2  0  0  0  0
 11  1  1  0  0  0  0
 12  6  1  0  0  0  0
 13 14  1  0  0  0  0
 14 21  1  0  0  0  0
 14 20  2  0  0  0  0
 15 17  1  0  0  0  0
 16 13  1  0  0  0  0
 17 16  1  0  0  0  0
 18 12  2  0  0  0  0
 19 12  1  0  0  0  0
 20 18  1  0  0  0  0
 21 19  2  0  0  0  0
 22 15  2  0  0  0  0
 23 24  1  0  0  0  0
 24 17  2  0  0  0  0
 25 23  2  0  0  0  0
 25 22  1  0  0  0  0
 26 22  1  0  0  0  0
M  END
> <CdId>
847

> <Mol Weight>
363.43

> <Formula>
C21H17NO3S

> <Click_ID>
CLK012_B02 __ __ 

$$$$
