CLK001_E09
 OpenBabel03181417552D

 28 32  0  0  0  0  0  0  0  0999 V2000
   -1.3217   -0.7767    0.0000 C   0  0  0  0  0  0  0  0  0  0  0  0
   -0.6173   -0.3726    0.0000 C   0  0  0  0  0  0  0  0  0  0  0  0
   -2.0409   -0.3726    0.0000 C   0  0  0  0  0  0  0  0  0  0  0  0
   -0.5098   -0.9639    0.0000 C   0  0  0  0  0  0  0  0  0  0  0  0
   -1.7406   -1.5126    0.0000 C   0  0  0  0  0  0  0  0  0  0  0  0
   -0.6173    0.4671    0.0000 C   0  0  0  0  0  0  0  0  0  0  0  0
    0.1020   -0.7767    0.0000 C   0  0  0  0  0  0  0  0  0  0  0  0
   -2.0409    0.4671    0.0000 C   0  0  0  0  0  0  0  0  0  0  0  0
   -0.4449   -1.7832    0.0000 C   0  0  0  0  0  0  0  0  0  0  0  0
   -1.1956   -2.1243    0.0000 C   0  0  0  0  0  0  0  0  0  0  0  0
   -1.3217    0.8527    0.0000 C   0  0  0  0  0  0  0  0  0  0  0  0
    0.1020    0.8527    0.0000 N   0  0  0  0  0  0  0  0  0  0  0  0
    0.8119   -0.3726    0.0000 N   0  0  0  0  0  0  0  0  0  0  0  0
    0.1020   -1.6201    0.0000 O   0  0  0  0  0  0  0  0  0  0  0  0
   -2.7564    0.8527    0.0000 C   0  0  0  0  0  0  0  0  0  0  0  0
   -1.3217    1.6961    0.0000 C   0  0  0  0  0  0  0  0  0  0  0  0
    0.8119    0.4671    0.0000 C   0  0  0  0  0  0  0  0  0  0  0  0
    1.5274   -0.7767    0.0000 C   0  0  0  0  0  0  0  0  0  0  0  0
   -2.7564    1.6961    0.0000 C   0  0  0  0  0  0  0  0  0  0  0  0
   -2.0409    2.1002    0.0000 C   0  0  0  0  0  0  0  0  0  0  0  0
    1.5274    0.8861    0.0000 S   0  0  0  0  0  0  0  0  0  0  0  0
    1.5274   -1.6201    0.0000 C   0  0  0  0  0  0  0  0  0  0  0  0
    2.3264   -0.5209    0.0000 C   0  0  0  0  0  0  0  0  0  0  0  0
    1.5274    1.6961    0.0000 C   0  0  0  0  0  0  0  0  0  0  0  0
    2.3264   -1.8833    0.0000 C   0  0  0  0  0  0  0  0  0  0  0  0
    2.7898   -1.1919    0.0000 C   0  0  0  0  0  0  0  0  0  0  0  0
    2.2522    2.1002    0.0000 C   0  0  0  0  0  0  0  0  0  0  0  0
    2.9955    2.5395    0.0000 C   0  0  0  0  0  0  0  0  0  0  0  0
  1  2  1  0  0  0  0
  1  3  1  0  0  0  0
  1  4  1  0  0  0  0
  1  5  1  0  0  0  0
  2  6  2  0  0  0  0
  2  7  1  0  0  0  0
  3  8  1  0  0  0  0
  4  9  1  0  0  0  0
  5 10  1  0  0  0  0
  6 11  1  0  0  0  0
  6 12  1  0  0  0  0
  7 13  1  0  0  0  0
  7 14  2  0  0  0  0
  8 15  2  0  0  0  0
  8 11  1  0  0  0  0
  9 10  1  0  0  0  0
 11 16  2  0  0  0  0
 12 17  2  0  0  0  0
 13 18  1  0  0  0  0
 13 17  1  0  0  0  0
 15 19  1  0  0  0  0
 16 20  1  0  0  0  0
 17 21  1  0  0  0  0
 18 22  1  0  0  0  0
 18 23  1  0  0  0  0
 19 20  2  0  0  0  0
 21 24  1  0  0  0  0
 22 25  1  0  0  0  0
 23 26  1  0  0  0  0
 24 27  1  0  0  0  0
 25 26  1  0  0  0  0
 27 28  3  0  0  0  0
M  END
> <CdId>
48

> <Mol Weight>
390.541

> <Formula>
C24H26N2OS

> <Click_ID>
CLK001_E09 __ __ 

$$$$
