CLK025_F09
 OpenBabel03181417552D

 22 23  0  0  0  0  0  0  0  0999 V2000
    1.4260   -0.4115    0.0000 N    0  0  0  0  0  0  0  0  0  0  0  0
    1.4260   -1.2451    0.0000 C    0  0  0  0  0  0  0  0  0  0  0  0
    0.0000   -0.4115    0.0000 C    0  0  0  0  0  0  0  0  0  0  0  0
    0.7094    0.0036    0.0000 C    0  0  0  0  0  0  0  0  0  0  0  0
    0.0000   -1.2345    0.0000 S    0  0  0  0  0  0  0  0  0  0  0  0
    2.1426   -1.6495    0.0000 N    0  0  0  0  0  0  0  0  0  0  0  0
   -0.7130    0.0036    0.0000 C    0  0  0  0  0  0  0  0  0  0  0  0
   -1.4296   -0.4115    0.0000 C    0  0  0  0  0  0  0  0  0  0  0  0
    2.8556   -1.2345    0.0000 C    0  0  0  0  0  0  0  0  0  0  0  0
   -2.8591    2.0645    0.0000 C    0  0  0  0  0  0  0  0  0  0  0  0
   -3.5757    2.4760    0.0000 C    0  0  0  0  0  0  0  0  0  0  0  0
   -2.1461    0.0036    0.0000 C    0  0  0  0  0  0  0  0  0  0  0  0
    0.7094    0.8265    0.0000 O    0  0  0  0  0  0  0  0  0  0  0  0
   -1.4296   -1.2345    0.0000 C    0  0  0  0  0  0  0  0  0  0  0  0
    2.8484   -0.4115    0.0000 O    0  0  0  0  0  0  0  0  0  0  0  0
   -2.8591   -0.4115    0.0000 C    0  0  0  0  0  0  0  0  0  0  0  0
   -2.1461   -1.6495    0.0000 C    0  0  0  0  0  0  0  0  0  0  0  0
   -2.8591   -1.2345    0.0000 C    0  0  0  0  0  0  0  0  0  0  0  0
   -2.1461   -2.4725    0.0000 Br   0  0  0  0  0  0  0  0  0  0  0  0
   -2.1461    0.8265    0.0000 O    0  0  0  0  0  0  0  0  0  0  0  0
   -2.8591    1.2380    0.0000 C    0  0  0  0  0  0  0  0  0  0  0  0
    3.5721   -1.6424    0.0000 C    0  0  0  0  0  0  0  0  0  0  0  0
  2  1  2  0  0  0  0
  3  4  1  0  0  0  0
  4  1  1  0  0  0  0
  5  2  1  0  0  0  0
  5  3  1  0  0  0  0
  6  2  1  0  0  0  0
  7  3  2  0  0  0  0
  8  7  1  0  0  0  0
  9  6  1  0  0  0  0
 10 21  1  0  0  0  0
 11 10  3  0  0  0  0
 12  8  1  0  0  0  0
 13  4  2  0  0  0  0
 14  8  2  0  0  0  0
 15  9  2  0  0  0  0
 16 12  2  0  0  0  0
 17 14  1  0  0  0  0
 18 17  2  0  0  0  0
 18 16  1  0  0  0  0
 19 17  1  0  0  0  0
 20 12  1  0  0  0  0
 21 20  1  0  0  0  0
 22  9  1  0  0  0  0
M  END
> <CdId>
1914

> <Mol Weight>
379.228

> <Formula>
C15H11BrN2O3S

> <Click_ID>
CLK025_F09 __ __ 

$$$$
