CLK017_D07
 OpenBabel03181417552D

 35 38  0  0  0  0  0  0  0  0999 V2000
    1.8388    0.6678    0.0000 C    0  0  0  0  0  0  0  0  0  0  0  0
    1.1115    1.8891    0.0000 C    0  0  0  0  0  0  0  0  0  0  0  0
    2.5295    1.9028    0.0000 N    0  0  0  0  0  0  0  0  0  0  0  0
    1.8160    2.3008    0.0000 C    0  0  0  0  0  0  0  0  0  0  0  0
    2.5433    1.0841    0.0000 C    0  0  0  0  0  0  0  0  0  0  0  0
    1.1161    1.0657    0.0000 C    0  0  3  0  0  0  0  0  0  0  0  0
    1.8434   -0.1509    0.0000 C    0  0  0  0  0  0  0  0  0  0  0  0
    0.3888    2.2870    0.0000 C    0  0  0  0  0  0  0  0  0  0  0  0
   -0.1509    0.3110    0.0000 C    0  0  0  0  0  0  0  0  0  0  0  0
    3.2385    2.3282    0.0000 C    0  0  0  0  0  0  0  0  0  0  0  0
    3.2568    0.6861    0.0000 C    0  0  0  0  0  0  0  0  0  0  0  0
    1.8022    3.1287    0.0000 C    0  0  0  0  0  0  0  0  0  0  0  0
    1.0841    3.5220    0.0000 C    0  0  0  0  0  0  0  0  0  0  0  0
    3.2705   -0.1418    0.0000 C    0  0  0  0  0  0  0  0  0  0  0  0
   -1.6192    2.7673    0.0000 C    0  0  0  0  0  0  0  0  0  0  0  0
    0.3842    3.1104    0.0000 C    0  0  0  0  0  0  0  0  0  0  0  0
    2.5661   -0.5535    0.0000 C    0  0  0  0  0  0  0  0  0  0  0  0
   -2.3419    3.1653    0.0000 C    0  0  0  0  0  0  0  0  0  0  0  0
   -0.8736    0.7090    0.0000 C    0  0  0  0  0  0  0  0  0  0  0  0
    3.9567    1.9302    0.0000 C    0  0  0  0  0  0  0  0  0  0  0  0
   -0.1463   -0.5123    0.0000 C    0  0  0  0  0  0  0  0  0  0  0  0
   -0.3247    1.8662    0.0000 O    0  0  0  0  0  0  0  0  0  0  0  0
    1.1298   -0.5810    0.0000 O    0  0  0  0  0  0  0  0  0  0  0  0
    3.9704    1.1069    0.0000 O    0  0  0  0  0  0  0  0  0  0  0  0
   -1.5872    0.2882    0.0000 C    0  0  0  0  0  0  0  0  0  0  0  0
   -0.8462   -0.9377    0.0000 C    0  0  0  0  0  0  0  0  0  0  0  0
    4.6565    2.3556    0.0000 O    0  0  0  0  0  0  0  0  0  0  0  0
   -1.5735   -0.5398    0.0000 C    0  0  0  0  0  0  0  0  0  0  0  0
   -0.8371   -1.7611    0.0000 Cl   0  0  0  0  0  0  0  0  0  0  0  0
   -0.8873    1.5323    0.0000 O    0  0  0  0  0  0  0  0  0  0  0  0
   -1.6055    1.9349    0.0000 C    0  0  0  0  0  0  0  0  0  0  0  0
    2.8589   -0.8691    0.0000 C    0  0  0  0  0  0  0  0  0  0  0  0
    1.0750    4.3591    0.0000 C    0  0  0  0  0  0  0  0  0  0  0  0
    0.2516    3.5083    0.0000 C    0  0  0  0  0  0  0  0  0  0  0  0
    3.9932   -0.5489    0.0000 C    0  0  0  0  0  0  0  0  0  0  0  0
  2  6  1  0  0  0  0
  3  5  1  0  0  0  0
  3  4  1  0  0  0  0
  4  2  2  0  0  0  0
  5  1  2  0  0  0  0
  6  1  1  0  0  0  0
  7  1  1  0  0  0  0
  8  2  1  0  0  0  0
  9  6  1  0  0  0  0
 10  3  1  0  0  0  0
 11  5  1  0  0  0  0
 11 14  1  0  0  0  0
 12  4  1  0  0  0  0
 13 16  1  0  0  0  0
 13 12  1  0  0  0  0
 14 17  1  0  0  0  0
 15 31  1  0  0  0  0
 16  8  1  0  0  0  0
 17  7  1  0  0  0  0
 18 15  3  0  0  0  0
 19  9  1  0  0  0  0
 20 10  1  0  0  0  0
 21  9  2  0  0  0  0
 22  8  2  0  0  0  0
 23  7  2  0  0  0  0
 24 20  2  0  0  0  0
 25 19  2  0  0  0  0
 25 28  1  0  0  0  0
 26 21  1  0  0  0  0
 27 20  1  0  0  0  0
 28 26  2  0  0  0  0
 29 26  1  0  0  0  0
 30 19  1  0  0  0  0
 31 30  1  0  0  0  0
 32 14  1  0  0  0  0
 33 13  1  0  0  0  0
 34 13  1  0  0  0  0
 35 14  1  0  0  0  0
M  END
> <CdId>
1272

> <Mol Weight>
495.995

> <Formula>
C28H30ClNO5

> <Click_ID>
CLK017_D07 __ __ 

$$$$
