CLK043H09
 OpenBabel03181417552D

 17 17  0  0  0  0  0  0  0  0999 V2000
   -1.0958   -1.2125    0.0000 C    0  0  0  0  0  0  0  0  0  0  0  0
    1.7625    2.9125    0.0000 C    0  0  0  0  0  0  0  0  0  0  0  0
    2.4792    3.3250    0.0000 C    0  0  0  0  0  0  0  0  0  0  0  0
   -0.3792   -0.8000    0.0000 C    0  0  0  0  0  0  0  0  0  0  0  0
    0.3333    1.2625    0.0000 C    0  0  0  0  0  0  0  0  0  0  0  0
   -1.0958   -2.0375    0.0000 C    0  0  0  0  0  0  0  0  0  0  0  0
   -0.3792    0.0250    0.0000 O    0  0  0  0  0  0  0  0  0  0  0  0
   -0.3792    1.6750    0.0000 O    0  0  0  0  0  0  0  0  0  0  0  0
   -1.8083   -0.8000    0.0000 C    0  0  0  0  0  0  0  0  0  0  0  0
    0.3333   -1.2125    0.0000 C    0  0  0  0  0  0  0  0  0  0  0  0
   -1.8083    0.0250    0.0000 O    0  0  0  0  0  0  0  0  0  0  0  0
    0.3333    0.4375    0.0000 C    0  0  0  0  0  0  0  0  0  0  0  0
    1.0500    1.6750    0.0000 N    0  0  0  0  0  0  0  0  0  0  0  0
   -0.3792   -2.4500    0.0000 C    0  0  0  0  0  0  0  0  0  0  0  0
    0.3333   -2.0375    0.0000 C    0  0  0  0  0  0  0  0  0  0  0  0
   -0.3792   -3.2750    0.0000 Br   0  0  0  0  0  0  0  0  0  0  0  0
    1.0500    2.5000    0.0000 C    0  0  0  0  0  0  0  0  0  0  0  0
  2 17  1  0  0  0  0
  3  2  3  0  0  0  0
  4  1  2  0  0  0  0
  5 12  1  0  0  0  0
  6  1  1  0  0  0  0
  7  4  1  0  0  0  0
  8  5  2  0  0  0  0
  9  1  1  0  0  0  0
 10  4  1  0  0  0  0
 10 15  2  0  0  0  0
 11  9  2  0  0  0  0
 12  7  1  0  0  0  0
 13  5  1  0  0  0  0
 14  6  2  0  0  0  0
 15 14  1  0  0  0  0
 16 14  1  0  0  0  0
 17 13  1  0  0  0  0
M  END
> <CdId>
3312

> <Mol Weight>
296.117

> <Formula>
C12H10BrNO3

> <Click_ID>
CLK043H09 __ __ 

$$$$
