CLK038G06
 OpenBabel03181417552D

 21 21  0  0  0  0  0  0  0  0999 V2000
   -0.6125   -0.2333    0.0000 S   0  0  0  0  0  0  0  0  0  0  0  0
   -0.6125   -1.0583    0.0000 C   0  0  0  0  0  0  0  0  0  0  0  0
    1.5292    4.3000    0.0000 C   0  0  0  0  0  0  0  0  0  0  0  0
    1.5292    5.1250    0.0000 C   0  0  0  0  0  0  0  0  0  0  0  0
   -1.4375   -0.2333    0.0000 O   0  0  0  0  0  0  0  0  0  0  0  0
    0.2125   -0.2333    0.0000 O   0  0  0  0  0  0  0  0  0  0  0  0
    0.8125    2.2417    0.0000 C   0  0  0  0  0  0  0  0  0  0  0  0
   -0.6125    0.5917    0.0000 N   0  0  0  0  0  0  0  0  0  0  0  0
   -0.6125   -2.7083    0.0000 C   0  0  0  0  0  0  0  0  0  0  0  0
   -0.6125   -3.5333    0.0000 C   0  0  0  0  0  0  0  0  0  0  0  0
    0.1000    1.8292    0.0000 C   0  0  0  0  0  0  0  0  0  0  0  0
    1.5292    1.8292    0.0000 O   0  0  0  0  0  0  0  0  0  0  0  0
   -1.3292   -1.4708    0.0000 C   0  0  0  0  0  0  0  0  0  0  0  0
    0.1000   -1.4708    0.0000 C   0  0  0  0  0  0  0  0  0  0  0  0
    0.1000   -3.9458    0.0000 O   0  0  0  0  0  0  0  0  0  0  0  0
   -1.3292   -2.2958    0.0000 C   0  0  0  0  0  0  0  0  0  0  0  0
    0.1000   -2.2958    0.0000 C   0  0  0  0  0  0  0  0  0  0  0  0
    0.8125    3.0667    0.0000 N   0  0  0  0  0  0  0  0  0  0  0  0
    0.1000    1.0042    0.0000 C   0  0  0  0  0  0  0  0  0  0  0  0
    1.5292    3.4792    0.0000 C   0  0  0  0  0  0  0  0  0  0  0  0
   -1.3292   -3.9458    0.0000 C   0  0  0  0  0  0  0  0  0  0  0  0
  2  1  1  0  0  0  0
  3 20  1  0  0  0  0
  4  3  3  0  0  0  0
  5  1  2  0  0  0  0
  6  1  2  0  0  0  0
  7 11  1  0  0  0  0
  8  1  1  0  0  0  0
  9 16  2  0  0  0  0
 10  9  1  0  0  0  0
 11 19  1  0  0  0  0
 12  7  2  0  0  0  0
 13  2  2  0  0  0  0
 14  2  1  0  0  0  0
 15 10  2  0  0  0  0
 16 13  1  0  0  0  0
 17 14  2  0  0  0  0
 17  9  1  0  0  0  0
 18  7  1  0  0  0  0
 19  8  1  0  0  0  0
 20 18  1  0  0  0  0
 21 10  1  0  0  0  0
M  END
> <CdId>
2887

> <Mol Weight>
308.353

> <Formula>
C14H16N2O4S

> <Click_ID>
CLK038G06 __ __ 

$$$$
