CLK015_C02
 OpenBabel03181417552D

 24 25  0  0  0  0  0  0  0  0999 V2000
    5.6248   -3.6557    0.0000 N    0  0  0  0  0  0  0  0  0  0  0  0
    4.9144   -4.0670    0.0000 C    0  0  0  0  0  0  0  0  0  0  0  0
    5.4628   -2.8456    0.0000 C    0  0  0  0  0  0  0  0  0  0  0  0
    4.6402   -2.7542    0.0000 C    0  0  0  0  0  0  0  0  0  0  0  0
    4.3037   -3.5061    0.0000 S    0  0  0  0  0  0  0  0  0  0  0  0
    4.2290   -2.0356    0.0000 C    0  0  0  0  0  0  0  0  0  0  0  0
    1.7489   -2.0356    0.0000 C    0  0  0  0  0  0  0  0  0  0  0  0
    2.1685   -1.3210    0.0000 C    0  0  0  0  0  0  0  0  0  0  0  0
    2.1685   -2.7459    0.0000 C    0  0  0  0  0  0  0  0  0  0  0  0
    3.4064   -2.0356    0.0000 C    0  0  0  0  0  0  0  0  0  0  0  0
    6.4680   -4.8147    0.0000 C    0  0  0  0  0  0  0  0  0  0  0  0
    6.4598   -5.6372    0.0000 C    0  0  0  0  0  0  0  0  0  0  0  0
    4.8230   -4.8895    0.0000 O    0  0  0  0  0  0  0  0  0  0  0  0
    2.9952   -1.3210    0.0000 C    0  0  0  0  0  0  0  0  0  0  0  0
    6.0194   -2.2350    0.0000 O    0  0  0  0  0  0  0  0  0  0  0  0
    2.9952   -2.7459    0.0000 C    0  0  0  0  0  0  0  0  0  0  0  0
    6.3850   -3.9922    0.0000 C    0  0  0  0  0  0  0  0  0  0  0  0
   -0.3074   -2.7542    0.0000 C    0  0  0  0  0  0  0  0  0  0  0  0
   -0.7186   -3.4646    0.0000 C    0  0  0  0  0  0  0  0  0  0  0  0
    1.7572   -0.6024    0.0000 Cl   0  0  0  0  0  0  0  0  0  0  0  0
    0.9264   -2.0356    0.0000 O    0  0  0  0  0  0  0  0  0  0  0  0
    1.7614   -3.4563    0.0000 O    0  0  0  0  0  0  0  0  0  0  0  0
    0.5151   -2.7542    0.0000 C    0  0  0  0  0  0  0  0  0  0  0  0
    2.1727   -4.1667    0.0000 C    0  0  0  0  0  0  0  0  0  0  0  0
  2  1  1  0  0  0  0
  3  1  1  0  0  0  0
  4  3  1  0  0  0  0
  5  2  1  0  0  0  0
  5  4  1  0  0  0  0
  6  4  2  0  0  0  0
  7  9  1  0  0  0  0
  8 14  1  0  0  0  0
  8  7  2  0  0  0  0
  9 16  2  0  0  0  0
 10  6  1  0  0  0  0
 11 17  1  0  0  0  0
 12 11  3  0  0  0  0
 13  2  2  0  0  0  0
 14 10  2  0  0  0  0
 15  3  2  0  0  0  0
 16 10  1  0  0  0  0
 17  1  1  0  0  0  0
 18 23  1  0  0  0  0
 19 18  2  0  0  0  0
 20  8  1  0  0  0  0
 21  7  1  0  0  0  0
 22  9  1  0  0  0  0
 23 21  1  0  0  0  0
 24 22  1  0  0  0  0
M  END
> <CdId>
1097

> <Mol Weight>
363.815

> <Formula>
C17H14ClNO4S

> <Click_ID>
CLK015_C02 __ __ 

$$$$
