CLK039A08
 OpenBabel03181417552D

 17 17  0  0  0  0  0  0  0  0999 V2000
   -0.1708    1.0708    0.0000 S   0  0  0  0  0  0  0  0  0  0  0  0
   -0.1708   -2.2292    0.0000 C   0  0  0  0  0  0  0  0  0  0  0  0
   -0.1708    0.2458    0.0000 C   0  0  0  0  0  0  0  0  0  0  0  0
    0.5458    3.1333    0.0000 C   0  0  0  0  0  0  0  0  0  0  0  0
    0.5458    3.9583    0.0000 C   0  0  0  0  0  0  0  0  0  0  0  0
   -0.9958    1.0708    0.0000 O   0  0  0  0  0  0  0  0  0  0  0  0
    0.6542    1.0708    0.0000 O   0  0  0  0  0  0  0  0  0  0  0  0
   -0.1708   -1.4042    0.0000 C   0  0  0  0  0  0  0  0  0  0  0  0
   -0.1708    1.8958    0.0000 N   0  0  0  0  0  0  0  0  0  0  0  0
   -0.8833   -2.6417    0.0000 O   0  0  0  0  0  0  0  0  0  0  0  0
    0.5458   -0.1667    0.0000 C   0  0  0  0  0  0  0  0  0  0  0  0
   -0.8833   -0.1667    0.0000 C   0  0  0  0  0  0  0  0  0  0  0  0
    0.5458   -0.9917    0.0000 C   0  0  0  0  0  0  0  0  0  0  0  0
   -0.8833   -0.9917    0.0000 C   0  0  0  0  0  0  0  0  0  0  0  0
    0.5458   -2.6417    0.0000 N   0  0  0  0  0  0  0  0  0  0  0  0
    0.5458    2.3083    0.0000 C   0  0  0  0  0  0  0  0  0  0  0  0
    0.5458   -3.4667    0.0000 C   0  0  0  0  0  0  0  0  0  0  0  0
  2  8  1  0  0  0  0
  3  1  1  0  0  0  0
  4 16  1  0  0  0  0
  5  4  3  0  0  0  0
  6  1  2  0  0  0  0
  7  1  2  0  0  0  0
  8 14  2  0  0  0  0
  9  1  1  0  0  0  0
 10  2  2  0  0  0  0
 11  3  1  0  0  0  0
 12  3  2  0  0  0  0
 13 11  2  0  0  0  0
 13  8  1  0  0  0  0
 14 12  1  0  0  0  0
 15  2  1  0  0  0  0
 16  9  1  0  0  0  0
 17 15  1  0  0  0  0
M  END
> <CdId>
2977

> <Mol Weight>
252.29

> <Formula>
C11H12N2O3S

> <Click_ID>
CLK039A08 __ __ 

$$$$
