CLK033_G07
 OpenBabel03181417552D

 28 30  0  0  0  0  0  0  0  0999 V2000
   -4.6067    2.5630    0.0000 C    0  0  0  0  0  0  0  0  0  0  0  0
   -3.8906    2.9860    0.0000 N    0  0  0  0  0  0  0  0  0  0  0  0
   -4.6989    1.7421    0.0000 N    0  0  0  0  0  0  0  0  0  0  0  0
   -5.3480    2.9106    0.0000 S    0  0  0  0  0  0  0  0  0  0  0  0
   -5.5113    1.5788    0.0000 C    0  0  0  0  0  0  0  0  0  0  0  0
   -3.8906    3.8194    0.0000 C    0  0  0  0  0  0  0  0  0  0  0  0
   -5.9133    2.3075    0.0000 C    0  0  0  0  0  0  0  0  0  0  0  0
   -3.1744    4.2340    0.0000 C    0  0  0  0  0  0  0  0  0  0  0  0
   -1.7547    5.0423    0.0000 C    0  0  0  0  0  0  0  0  0  0  0  0
   -2.4583    5.4569    0.0000 C    0  0  0  0  0  0  0  0  0  0  0  0
   -1.7547    4.2340    0.0000 C    0  0  0  0  0  0  0  0  0  0  0  0
   -2.4708    3.8277    0.0000 C    0  0  0  0  0  0  0  0  0  0  0  0
   -3.1744    5.0506    0.0000 C    0  0  0  0  0  0  0  0  0  0  0  0
   -4.2675    0.3518    0.0000 C    0  0  0  0  0  0  0  0  0  0  0  0
   -4.4434   -0.4565    0.0000 C    0  0  0  0  0  0  0  0  0  0  0  0
   -5.9385    0.8752    0.0000 C    0  0  0  0  0  0  0  0  0  0  0  0
   -4.6193    4.2340    0.0000 O    0  0  0  0  0  0  0  0  0  0  0  0
   -4.0790    1.1642    0.0000 C    0  0  0  0  0  0  0  0  0  0  0  0
   -1.0386    5.4443    0.0000 O    0  0  0  0  0  0  0  0  0  0  0  0
   -2.4625    6.2819    0.0000 O    0  0  0  0  0  0  0  0  0  0  0  0
   -1.0511    3.8277    0.0000 O    0  0  0  0  0  0  0  0  0  0  0  0
   -5.5364    0.1465    0.0000 Cl   0  0  0  0  0  0  0  0  0  0  0  0
   -6.7384    2.3201    0.0000 C    0  0  0  0  0  0  0  0  0  0  0  0
   -7.1656    1.6082    0.0000 C    0  0  0  0  0  0  0  0  0  0  0  0
   -6.7510    0.8795    0.0000 C    0  0  0  0  0  0  0  0  0  0  0  0
   -0.1340    5.1303    0.0000 C    0  0  0  0  0  0  0  0  0  0  0  0
   -1.7547    6.6882    0.0000 C    0  0  0  0  0  0  0  0  0  0  0  0
   -1.0511    3.0111    0.0000 C    0  0  0  0  0  0  0  0  0  0  0  0
  2  1  2  0  0  0  0
  3  1  1  0  0  0  0
  4  1  1  0  0  0  0
  5  3  1  0  0  0  0
  6  2  1  0  0  0  0
  7  4  1  0  0  0  0
  7  5  2  0  0  0  0
  8  6  1  0  0  0  0
  9 10  1  0  0  0  0
  9 11  2  0  0  0  0
 10 13  2  0  0  0  0
 11 12  1  0  0  0  0
 12  8  2  0  0  0  0
 13  8  1  0  0  0  0
 14 18  1  0  0  0  0
 15 14  3  0  0  0  0
 16  5  1  0  0  0  0
 17  6  2  0  0  0  0
 18  3  1  0  0  0  0
 19  9  1  0  0  0  0
 20 10  1  0  0  0  0
 21 11  1  0  0  0  0
 22 16  1  0  0  0  0
 23  7  1  0  0  0  0
 24 23  2  0  0  0  0
 25 16  2  0  0  0  0
 25 24  1  0  0  0  0
 26 19  1  0  0  0  0
 27 20  1  0  0  0  0
 28 21  1  0  0  0  0
M  END
> <CdId>
2551

> <Mol Weight>
416.878

> <Formula>
C20H17ClN2O4S

> <Click_ID>
CLK033_G07 __ __ 

$$$$
