CLK013_B09
 OpenBabel03181417552D

 18 20  0  0  0  0  0  0  0  0999 V2000
   -2.4457    1.3331    0.0000 C   0  0  0  0  0  0  0  0  0  0  0  0
   -2.9681    1.9817    0.0000 C   0  0  0  0  0  0  0  0  0  0  0  0
   -1.6214    1.4593    0.0000 N   0  0  0  0  0  0  0  0  0  0  0  0
   -1.8601    2.8870    0.0000 N   0  0  0  0  0  0  0  0  0  0  0  0
   -2.6618    2.7564    0.0000 C   0  0  0  0  0  0  0  0  0  0  0  0
   -2.9005    0.6621    0.0000 S   0  0  0  0  0  0  0  0  0  0  0  0
   -3.7247    1.6980    0.0000 C   0  0  0  0  0  0  0  0  0  0  0  0
   -1.3196    2.2159    0.0000 C   0  0  0  0  0  0  0  0  0  0  0  0
   -3.6977    0.9008    0.0000 C   0  0  0  0  0  0  0  0  0  0  0  0
    0.8153    1.7250    0.0000 C   0  0  0  0  0  0  0  0  0  0  0  0
    1.2971    1.0494    0.0000 C   0  0  0  0  0  0  0  0  0  0  0  0
   -3.2023    3.4050    0.0000 N   0  0  0  0  0  0  0  0  0  0  0  0
   -0.4819    2.3240    0.0000 S   0  0  0  0  0  0  0  0  0  0  0  0
   -4.4544    2.0898    0.0000 C   0  0  0  0  0  0  0  0  0  0  0  0
   -4.3914    0.4684    0.0000 C   0  0  0  0  0  0  0  0  0  0  0  0
    0.0181    1.6574    0.0000 C   0  0  0  0  0  0  0  0  0  0  0  0
   -5.1570    1.6574    0.0000 C   0  0  0  0  0  0  0  0  0  0  0  0
   -5.1300    0.8602    0.0000 C   0  0  0  0  0  0  0  0  0  0  0  0
  2  1  2  0  0  0  0
  3  1  1  0  0  0  0
  4  8  1  0  0  0  0
  5  2  1  0  0  0  0
  5  4  2  0  0  0  0
  6  1  1  0  0  0  0
  7  2  1  0  0  0  0
  8  3  2  0  0  0  0
  9  6  1  0  0  0  0
  9  7  2  0  0  0  0
 10 16  1  0  0  0  0
 11 10  3  0  0  0  0
 12  5  1  0  0  0  0
 13  8  1  0  0  0  0
 14  7  1  0  0  0  0
 15  9  1  0  0  0  0
 16 13  1  0  0  0  0
 17 14  1  0  0  0  0
 17 18  1  0  0  0  0
 18 15  1  0  0  0  0
M  END
> <CdId>
934

> <Mol Weight>
275.392

> <Formula>
C13H13N3S2

> <Click_ID>
CLK013_B09 __ __ 

$$$$
