CLK019_G08
 OpenBabel03181417552D

 26 27  0  0  0  0  0  0  0  0999 V2000
    2.8476   -2.2171    0.0000 C    0  0  0  0  0  0  0  0  0  0  0  0
    2.4342   -2.9311    0.0000 C    0  0  0  0  0  0  0  0  0  0  0  0
    2.8476   -3.6450    0.0000 N    0  0  0  0  0  0  0  0  0  0  0  0
    3.6743   -2.2171    0.0000 C    0  0  0  0  0  0  0  0  0  0  0  0
    2.4342   -1.4948    0.0000 N    0  0  0  0  0  0  0  0  0  0  0  0
    3.6743   -3.6367    0.0000 C    0  0  0  0  0  0  0  0  0  0  0  0
    4.0877   -2.9227    0.0000 N    0  0  0  0  0  0  0  0  0  0  0  0
    6.1502    0.6471    0.0000 C    0  0  0  0  0  0  0  0  0  0  0  0
    4.0877   -1.5031    0.0000 C    0  0  0  0  0  0  0  0  0  0  0  0
    6.5553   -0.0668    0.0000 C    0  0  0  0  0  0  0  0  0  0  0  0
    5.3277    0.6513    0.0000 C    0  0  0  0  0  0  0  0  0  0  0  0
    7.8204    2.0626    0.0000 C    0  0  0  0  0  0  0  0  0  0  0  0
    8.2337    2.7765    0.0000 C    0  0  0  0  0  0  0  0  0  0  0  0
    4.9144   -1.5031    0.0000 C    0  0  0  0  0  0  0  0  0  0  0  0
    2.8476   -0.7808    0.0000 O    0  0  0  0  0  0  0  0  0  0  0  0
    1.6075   -2.9311    0.0000 O    0  0  0  0  0  0  0  0  0  0  0  0
    1.6075   -1.4948    0.0000 O    0  0  0  0  0  0  0  0  0  0  0  0
    5.3277   -0.7808    0.0000 C    0  0  0  0  0  0  0  0  0  0  0  0
    4.0960   -4.3507    0.0000 O    0  0  0  0  0  0  0  0  0  0  0  0
    6.1419   -0.7808    0.0000 C    0  0  0  0  0  0  0  0  0  0  0  0
    4.9102   -0.0668    0.0000 C    0  0  0  0  0  0  0  0  0  0  0  0
    7.3903   -0.0668    0.0000 Br   0  0  0  0  0  0  0  0  0  0  0  0
    6.5678    1.3611    0.0000 O    0  0  0  0  0  0  0  0  0  0  0  0
    4.9227    1.3611    0.0000 O    0  0  0  0  0  0  0  0  0  0  0  0
    7.3945    1.3486    0.0000 C    0  0  0  0  0  0  0  0  0  0  0  0
    4.1085    1.3653    0.0000 C    0  0  0  0  0  0  0  0  0  0  0  0
  2  1  1  0  0  0  0
  3  2  1  0  0  0  0
  3  6  1  0  0  0  0
  4  1  2  0  0  0  0
  5  1  1  0  0  0  0
  6  7  1  0  0  0  0
  7  4  1  0  0  0  0
  8 11  2  0  0  0  0
  9  4  1  0  0  0  0
 10 20  2  0  0  0  0
 10  8  1  0  0  0  0
 11 21  1  0  0  0  0
 12 25  1  0  0  0  0
 13 12  3  0  0  0  0
 14  9  2  0  0  0  0
 15  5  1  0  0  0  0
 16  2  2  0  0  0  0
 17  5  2  0  0  0  0
 18 14  1  0  0  0  0
 19  6  2  0  0  0  0
 20 18  1  0  0  0  0
 21 18  2  0  0  0  0
 22 10  1  0  0  0  0
 23  8  1  0  0  0  0
 24 11  1  0  0  0  0
 25 23  1  0  0  0  0
 26 24  1  0  0  0  0
M  END
> <CdId>
1463

> <Mol Weight>
422.187

> <Formula>
C16H12BrN3O6

> <Click_ID>
CLK019_G08 __ __ 

$$$$
