CLK023_H11
 OpenBabel03181417552D

 30 32  0  0  0  0  0  0  0  0999 V2000
    2.9069    0.4673    0.0000 C    0  0  0  0  0  0  0  0  0  0  0  0
    3.4361    1.0720    0.0000 N    0  0  0  0  0  0  0  0  0  0  0  0
    2.2265    1.6149    0.0000 C    0  0  0  0  0  0  0  0  0  0  0  0
    3.0237    1.7901    0.0000 C    0  0  0  0  0  0  0  0  0  0  0  0
    2.1441    0.7972    0.0000 S    0  0  0  0  0  0  0  0  0  0  0  0
   -0.7560    1.6940    0.0000 C    0  0  0  0  0  0  0  0  0  0  0  0
    1.6664    2.2300    0.0000 C    0  0  0  0  0  0  0  0  0  0  0  0
    3.0993   -0.3402    0.0000 N    0  0  0  0  0  0  0  0  0  0  0  0
   -0.5086    2.4774    0.0000 C    0  0  0  0  0  0  0  0  0  0  0  0
   -0.2062    1.0789    0.0000 C    0  0  0  0  0  0  0  0  0  0  0  0
    0.8556    2.0410    0.0000 C    0  0  0  0  0  0  0  0  0  0  0  0
   -2.6320    0.5498    0.0000 C    0  0  0  0  0  0  0  0  0  0  0  0
   -3.4394    0.3746    0.0000 C    0  0  0  0  0  0  0  0  0  0  0  0
    2.0925   -2.2712    0.0000 C    0  0  0  0  0  0  0  0  0  0  0  0
    0.2989    2.6560    0.0000 C    0  0  0  0  0  0  0  0  0  0  0  0
    0.6013    1.2507    0.0000 C    0  0  0  0  0  0  0  0  0  0  0  0
    2.5014   -0.9106    0.0000 C    0  0  0  0  0  0  0  0  0  0  0  0
    3.3536    2.5599    0.0000 O    0  0  0  0  0  0  0  0  0  0  0  0
    2.6939   -1.7077    0.0000 C    0  0  0  0  0  0  0  0  0  0  0  0
    1.3160   -2.0513    0.0000 C    0  0  0  0  0  0  0  0  0  0  0  0
    1.1236   -1.2541    0.0000 C    0  0  0  0  0  0  0  0  0  0  0  0
   -1.0583    3.0821    0.0000 Cl   0  0  0  0  0  0  0  0  0  0  0  0
   -1.5703    1.5153    0.0000 O    0  0  0  0  0  0  0  0  0  0  0  0
    1.7215   -0.6838    0.0000 C    0  0  0  0  0  0  0  0  0  0  0  0
   -0.4536    0.2886    0.0000 O    0  0  0  0  0  0  0  0  0  0  0  0
   -1.8314    0.7284    0.0000 C    0  0  0  0  0  0  0  0  0  0  0  0
    2.2816   -3.0787    0.0000 C    0  0  0  0  0  0  0  0  0  0  0  0
    0.7319   -2.6286    0.0000 C    0  0  0  0  0  0  0  0  0  0  0  0
   -1.2576    0.0996    0.0000 C    0  0  0  0  0  0  0  0  0  0  0  0
   -1.5050   -0.6872    0.0000 C    0  0  0  0  0  0  0  0  0  0  0  0
  2  1  1  0  0  0  0
  3  5  1  0  0  0  0
  4  2  1  0  0  0  0
  4  3  1  0  0  0  0
  5  1  1  0  0  0  0
  6 10  2  0  0  0  0
  7  3  2  0  0  0  0
  8  1  2  0  0  0  0
  9 15  2  0  0  0  0
  9  6  1  0  0  0  0
 10 16  1  0  0  0  0
 11  7  1  0  0  0  0
 12 26  1  0  0  0  0
 13 12  3  0  0  0  0
 14 19  2  0  0  0  0
 14 20  1  0  0  0  0
 15 11  1  0  0  0  0
 16 11  2  0  0  0  0
 17  8  1  0  0  0  0
 18  4  2  0  0  0  0
 19 17  1  0  0  0  0
 20 21  2  0  0  0  0
 21 24  1  0  0  0  0
 22  9  1  0  0  0  0
 23  6  1  0  0  0  0
 24 17  2  0  0  0  0
 25 10  1  0  0  0  0
 26 23  1  0  0  0  0
 27 14  1  0  0  0  0
 28 20  1  0  0  0  0
 29 25  1  0  0  0  0
 30 29  1  0  0  0  0
M  END
> <CdId>
1776

> <Mol Weight>
440.942

> <Formula>
C23H21ClN2O3S

> <Click_ID>
CLK023_H11 __ __ 

$$$$
