CLK025_C11
 OpenBabel03181417552D

 23 24  0  0  0  0  0  0  0  0999 V2000
    1.6142   -1.2708    0.0000 N    0  0  0  0  0  0  0  0  0  0  0  0
    2.3766   -1.2364    0.0000 C    0  0  0  0  0  0  0  0  0  0  0  0
    1.2811   -0.4533    0.0000 C    0  0  0  0  0  0  0  0  0  0  0  0
    1.9611    0.0138    0.0000 C    0  0  0  0  0  0  0  0  0  0  0  0
    2.6205   -0.4774    0.0000 S    0  0  0  0  0  0  0  0  0  0  0  0
    2.8712   -1.8958    0.0000 N    0  0  0  0  0  0  0  0  0  0  0  0
   -0.1889    2.0778    0.0000 C    0  0  0  0  0  0  0  0  0  0  0  0
    1.9611    0.8414    0.0000 C    0  0  0  0  0  0  0  0  0  0  0  0
    0.5289    2.4900    0.0000 C    0  0  0  0  0  0  0  0  0  0  0  0
   -0.1889    1.2535    0.0000 C    0  0  0  0  0  0  0  0  0  0  0  0
    1.2432    1.2535    0.0000 C    0  0  0  0  0  0  0  0  0  0  0  0
    2.5518   -2.6583    0.0000 C    0  0  0  0  0  0  0  0  0  0  0  0
   -2.3354    2.4900    0.0000 C    0  0  0  0  0  0  0  0  0  0  0  0
   -3.0533    2.9021    0.0000 C    0  0  0  0  0  0  0  0  0  0  0  0
    0.5289    0.8414    0.0000 C    0  0  0  0  0  0  0  0  0  0  0  0
    1.2432    2.0778    0.0000 C    0  0  0  0  0  0  0  0  0  0  0  0
    0.4980   -0.2164    0.0000 O    0  0  0  0  0  0  0  0  0  0  0  0
    1.7275   -2.7648    0.0000 O    0  0  0  0  0  0  0  0  0  0  0  0
   -0.9032    0.8414    0.0000 Cl   0  0  0  0  0  0  0  0  0  0  0  0
    0.5289    3.3177    0.0000 Cl   0  0  0  0  0  0  0  0  0  0  0  0
   -0.9032    2.4900    0.0000 O    0  0  0  0  0  0  0  0  0  0  0  0
   -1.6211    2.0778    0.0000 C    0  0  0  0  0  0  0  0  0  0  0  0
    3.0498   -3.3177    0.0000 C    0  0  0  0  0  0  0  0  0  0  0  0
  2  1  2  0  0  0  0
  3  1  1  0  0  0  0
  4  3  1  0  0  0  0
  4  5  1  0  0  0  0
  5  2  1  0  0  0  0
  6  2  1  0  0  0  0
  7  9  1  0  0  0  0
  8  4  2  0  0  0  0
  9 16  2  0  0  0  0
 10 15  1  0  0  0  0
 10  7  2  0  0  0  0
 11  8  1  0  0  0  0
 12  6  1  0  0  0  0
 13 22  1  0  0  0  0
 14 13  3  0  0  0  0
 15 11  2  0  0  0  0
 16 11  1  0  0  0  0
 17  3  2  0  0  0  0
 18 12  2  0  0  0  0
 19 10  1  0  0  0  0
 20  9  1  0  0  0  0
 21  7  1  0  0  0  0
 22 21  1  0  0  0  0
 23 12  1  0  0  0  0
M  END
> <CdId>
1886

> <Mol Weight>
369.222

> <Formula>
C15H10Cl2N2O3S

> <Click_ID>
CLK025_C11 __ __ 

$$$$
