CLK025_D03
 OpenBabel03181417552D

 27 29  0  0  0  0  0  0  0  0999 V2000
    0.8871   -2.1234    0.0000 C   0  0  0  0  0  0  0  0  0  0  0  0
    0.3973   -2.7844    0.0000 N   0  0  0  0  0  0  0  0  0  0  0  0
    1.7159   -2.1234    0.0000 C   0  0  0  0  0  0  0  0  0  0  0  0
    0.3973   -1.4453    0.0000 N   0  0  0  0  0  0  0  0  0  0  0  0
   -0.3870   -2.5275    0.0000 C   0  0  0  0  0  0  0  0  0  0  0  0
   -0.3870   -1.7056    0.0000 C   0  0  0  0  0  0  0  0  0  0  0  0
    2.1268   -1.4076    0.0000 C   0  0  0  0  0  0  0  0  0  0  0  0
    0.8904    0.7158    0.0000 C   0  0  0  0  0  0  0  0  0  0  0  0
    2.1268   -2.8358    0.0000 C   0  0  0  0  0  0  0  0  0  0  0  0
    1.7056    0.7158    0.0000 C   0  0  0  0  0  0  0  0  0  0  0  0
    0.4864    0.0240    0.0000 C   0  0  0  0  0  0  0  0  0  0  0  0
    1.7227   -0.6987    0.0000 C   0  0  0  0  0  0  0  0  0  0  0  0
    2.5344   -3.5550    0.0000 N   0  0  0  0  0  0  0  0  0  0  0  0
   -1.0926   -2.9454    0.0000 C   0  0  0  0  0  0  0  0  0  0  0  0
   -1.1028   -1.2946    0.0000 C   0  0  0  0  0  0  0  0  0  0  0  0
    0.4966    2.8358    0.0000 C   0  0  0  0  0  0  0  0  0  0  0  0
    0.0959    3.5550    0.0000 C   0  0  0  0  0  0  0  0  0  0  0  0
   -1.8186   -1.7056    0.0000 C   0  0  0  0  0  0  0  0  0  0  0  0
   -1.8151   -2.5344    0.0000 C   0  0  0  0  0  0  0  0  0  0  0  0
    0.8904   -0.6987    0.0000 C   0  0  0  0  0  0  0  0  0  0  0  0
    2.1166    0.0000    0.0000 C   0  0  0  0  0  0  0  0  0  0  0  0
    2.1234    1.4076    0.0000 I   0  0  0  0  0  0  0  0  0  0  0  0
   -0.3356    0.0240    0.0000 I   0  0  0  0  0  0  0  0  0  0  0  0
    0.4897    1.4179    0.0000 O   0  0  0  0  0  0  0  0  0  0  0  0
    0.9007    2.1268    0.0000 C   0  0  0  0  0  0  0  0  0  0  0  0
   -2.5241   -2.9591    0.0000 C   0  0  0  0  0  0  0  0  0  0  0  0
   -2.5378   -1.3014    0.0000 C   0  0  0  0  0  0  0  0  0  0  0  0
  2  1  2  0  0  0  0
  3  1  1  0  0  0  0
  4  1  1  0  0  0  0
  5  2  1  0  0  0  0
  5  6  2  0  0  0  0
  6  4  1  0  0  0  0
  7  3  2  0  0  0  0
  8 10  1  0  0  0  0
  8 11  2  0  0  0  0
  9  3  1  0  0  0  0
 10 21  2  0  0  0  0
 11 20  1  0  0  0  0
 12  7  1  0  0  0  0
 13  9  3  0  0  0  0
 14  5  1  0  0  0  0
 15  6  1  0  0  0  0
 16 25  1  0  0  0  0
 17 16  3  0  0  0  0
 18 15  2  0  0  0  0
 19 14  2  0  0  0  0
 19 18  1  0  0  0  0
 20 12  2  0  0  0  0
 21 12  1  0  0  0  0
 22 10  1  0  0  0  0
 23 11  1  0  0  0  0
 24  8  1  0  0  0  0
 25 24  1  0  0  0  0
 26 19  1  0  0  0  0
 27 18  1  0  0  0  0
M  END
> <CdId>
1888

> <Mol Weight>
579.1722

> <Formula>
C21H15I2N3O

> <Click_ID>
CLK025_D03 __ __ 

$$$$
