CLK012_A08
 OpenBabel03181417552D

 28 30  0  0  0  0  0  0  0  0999 V2000
    1.3366   -0.7690    0.0000 C   0  0  3  0  0  0  0  0  0  0  0  0
    1.7211   -1.4967    0.0000 C   0  0  0  0  0  0  0  0  0  0  0  0
    1.1443   -2.0872    0.0000 N   0  0  0  0  0  0  0  0  0  0  0  0
    5.9092   -0.4257    0.0000 N   0  3  0  0  0  0  0  0  0  0  0  0
    5.1768   -0.0458    0.0000 C   0  0  0  0  0  0  0  0  0  0  0  0
    0.5264   -0.9109    0.0000 C   0  0  0  0  0  0  0  0  0  0  0  0
    0.4119   -1.7211    0.0000 C   0  0  0  0  0  0  0  0  0  0  0  0
    2.2657   -0.1419    0.0000 C   0  0  0  0  0  0  0  0  0  0  0  0
    4.4811   -0.4852    0.0000 C   0  0  0  0  0  0  0  0  0  0  0  0
    3.0530   -0.5539    0.0000 C   0  0  0  0  0  0  0  0  0  0  0  0
    3.7533   -0.1007    0.0000 C   0  0  0  0  0  0  0  0  0  0  0  0
    0.6591   -3.4238    0.0000 C   0  0  0  0  0  0  0  0  0  0  0  0
    0.0275   -3.9547    0.0000 C   0  0  0  0  0  0  0  0  0  0  0  0
    5.1402    0.7781    0.0000 C   0  0  0  0  0  0  0  0  0  0  0  0
    5.9457   -1.2496    0.0000 O   0  5  0  0  0  0  0  0  0  0  0  0
    2.5403   -1.6112    0.0000 O   0  0  0  0  0  0  0  0  0  0  0  0
    6.6049    0.0228    0.0000 O   0  0  0  0  0  0  0  0  0  0  0  0
    1.2908   -2.8974    0.0000 C   0  0  0  0  0  0  0  0  0  0  0  0
    1.0757    0.1739    0.0000 O   0  0  0  0  0  0  0  0  0  0  0  0
    3.0896   -1.2405    0.0000 O   0  0  0  0  0  0  0  0  0  0  0  0
    3.7121    0.7140    0.0000 C   0  0  0  0  0  0  0  0  0  0  0  0
    4.4078    1.1626    0.0000 C   0  0  0  0  0  0  0  0  0  0  0  0
   -0.1190   -0.3982    0.0000 C   0  0  0  0  0  0  0  0  0  0  0  0
   -0.3524   -2.0323    0.0000 C   0  0  0  0  0  0  0  0  0  0  0  0
    5.8359    1.2221    0.0000 O   0  0  0  0  0  0  0  0  0  0  0  0
    6.5637    0.8467    0.0000 C   0  0  0  0  0  0  0  0  0  0  0  0
   -0.8879   -0.7049    0.0000 C   0  0  0  0  0  0  0  0  0  0  0  0
   -1.0024   -1.5242    0.0000 C   0  0  0  0  0  0  0  0  0  0  0  0
  2  1  1  0  0  0  0
  3  2  1  0  0  0  0
  4  5  1  0  0  0  0
  5  9  2  0  0  0  0
  5 14  1  0  0  0  0
  6  1  1  0  0  0  0
  7  6  2  0  0  0  0
  7  3  1  0  0  0  0
  8  1  1  0  0  0  0
  9 11  1  0  0  0  0
 10  8  1  0  0  0  0
 11 10  1  0  0  0  0
 12 18  1  0  0  0  0
 13 12  3  0  0  0  0
 14 22  2  0  0  0  0
 15  4  1  0  0  0  0
 16  2  2  0  0  0  0
 17  4  2  0  0  0  0
 18  3  1  0  0  0  0
 19  1  1  0  0  0  0
 20 10  2  0  0  0  0
 21 11  2  0  0  0  0
 22 21  1  0  0  0  0
 23  6  1  0  0  0  0
 24  7  1  0  0  0  0
 25 14  1  0  0  0  0
 26 25  1  0  0  0  0
 27 23  2  0  0  0  0
 28 27  1  0  0  0  0
 28 24  2  0  0  0  0
M  END
> <CdId>
843

> <Mol Weight>
380.3508

> <Formula>
C20H16N2O6

> <Click_ID>
CLK012_A08 __ __ 

$$$$
