CLK047F04
 OpenBabel03181417552D

 16 16  0  0  0  0  0  0  0  0999 V2000
    0.0417   -1.2083    0.0000 C    0  0  0  0  0  0  0  0  0  0  0  0
    1.4708   -2.8583    0.0000 C    0  0  0  0  0  0  0  0  0  0  0  0
    2.1875   -3.2708    0.0000 C    0  0  0  0  0  0  0  0  0  0  0  0
   -0.6708    0.0292    0.0000 S    0  0  0  0  0  0  0  0  0  0  0  0
    0.0417   -0.3833    0.0000 C    0  0  3  0  0  0  0  0  0  0  0  0
   -0.6708   -1.6208    0.0000 O    0  0  0  0  0  0  0  0  0  0  0  0
    0.7583   -1.6208    0.0000 N    0  0  0  0  0  0  0  0  0  0  0  0
   -0.6708    0.8542    0.0000 C    0  0  0  0  0  0  0  0  0  0  0  0
   -0.6708    2.5042    0.0000 C    0  0  0  0  0  0  0  0  0  0  0  0
   -0.6708    3.3292    0.0000 Cl   0  0  0  0  0  0  0  0  0  0  0  0
    0.7583   -2.4458    0.0000 C    0  0  0  0  0  0  0  0  0  0  0  0
    0.0417    1.2667    0.0000 C    0  0  0  0  0  0  0  0  0  0  0  0
   -1.3875    1.2667    0.0000 C    0  0  0  0  0  0  0  0  0  0  0  0
   -1.3875    2.0917    0.0000 C    0  0  0  0  0  0  0  0  0  0  0  0
    0.0417    2.0917    0.0000 C    0  0  0  0  0  0  0  0  0  0  0  0
    0.7583    0.0292    0.0000 C    0  0  0  0  0  0  0  0  0  0  0  0
  2 11  1  0  0  0  0
  3  2  3  0  0  0  0
  4  5  1  0  0  0  0
  5  1  1  0  0  0  0
  6  1  2  0  0  0  0
  7  1  1  0  0  0  0
  8  4  1  0  0  0  0
  9 14  2  0  0  0  0
  9 15  1  0  0  0  0
 10  9  1  0  0  0  0
 11  7  1  0  0  0  0
 12  8  1  0  0  0  0
 13  8  2  0  0  0  0
 14 13  1  0  0  0  0
 15 12  2  0  0  0  0
 16  5  1  0  0  0  0
M  END
> <CdId>
3590

> <Mol Weight>
253.748

> <Formula>
C12H12ClNOS

> <Click_ID>
CLK047F04 __ __ 

$$$$
