CLK050F10
 OpenBabel03181417552D

 17 18  0  0  0  0  0  0  0  0999 V2000
   -0.5375    2.1083    0.0000 N   0  0  0  0  0  0  0  0  0  0  0  0
   -0.3083    0.6583    0.0000 C   0  0  0  0  0  0  0  0  0  0  0  0
   -0.0542    1.4417    0.0000 C   0  0  3  0  0  0  0  0  0  0  0  0
   -0.0542    2.7792    0.0000 C   0  0  0  0  0  0  0  0  0  0  0  0
    0.2458    0.0458    0.0000 N   0  0  0  0  0  0  0  0  0  0  0  0
    0.8375   -2.7500    0.0000 C   0  0  0  0  0  0  0  0  0  0  0  0
    1.3917   -3.3625    0.0000 C   0  0  0  0  0  0  0  0  0  0  0  0
   -1.1167    0.4875    0.0000 O   0  0  0  0  0  0  0  0  0  0  0  0
   -0.0125   -0.7417    0.0000 C   0  0  0  0  0  0  0  0  0  0  0  0
   -0.3083    3.5625    0.0000 O   0  0  0  0  0  0  0  0  0  0  0  0
    0.7333    1.6958    0.0000 C   0  0  0  0  0  0  0  0  0  0  0  0
    0.2875   -2.1375    0.0000 C   0  0  0  0  0  0  0  0  0  0  0  0
    0.7333    2.5208    0.0000 C   0  0  0  0  0  0  0  0  0  0  0  0
    0.5417   -1.3542    0.0000 C   0  0  0  0  0  0  0  0  0  0  0  0
   -1.0708   -1.6958    0.0000 C   0  0  0  0  0  0  0  0  0  0  0  0
   -0.8167   -0.9125    0.0000 C   0  0  0  0  0  0  0  0  0  0  0  0
   -0.5208   -2.3083    0.0000 C   0  0  0  0  0  0  0  0  0  0  0  0
  2  3  1  0  0  0  0
  3  1  1  0  0  0  0
  4  1  1  0  0  0  0
  5  2  1  0  0  0  0
  6 12  1  0  0  0  0
  7  6  3  0  0  0  0
  8  2  2  0  0  0  0
  9  5  1  0  0  0  0
 10  4  2  0  0  0  0
 11  3  1  0  0  0  0
 12 14  1  0  0  0  0
 13  4  1  0  0  0  0
 13 11  1  0  0  0  0
 14  9  2  0  0  0  0
 15 16  2  0  0  0  0
 16  9  1  0  0  0  0
 17 12  2  0  0  0  0
 17 15  1  0  0  0  0
M  END
> <CdId>
3878

> <Mol Weight>
228.2466

> <Formula>
C13H12N2O2

> <Click_ID>
CLK050F10 __ __ 

$$$$
