CLK028_G10
 OpenBabel03181417552D

 21 22  0  0  0  0  0  0  0  0999 V2000
   -1.8707   -0.7620    0.0000 N    0  0  0  0  0  0  0  0  0  0  0  0
   -0.8341    0.0618    0.0000 C    0  0  0  0  0  0  0  0  0  0  0  0
   -2.1591    0.0103    0.0000 C    0  0  0  0  0  0  0  0  0  0  0  0
   -1.0504   -0.7243    0.0000 C    0  0  0  0  0  0  0  0  0  0  0  0
   -1.5103    0.5252    0.0000 S    0  0  0  0  0  0  0  0  0  0  0  0
   -0.0344    0.2643    0.0000 C    0  0  0  0  0  0  0  0  0  0  0  0
    0.5389   -0.3124    0.0000 C    0  0  0  0  0  0  0  0  0  0  0  0
    1.3319   -0.0995    0.0000 C    0  0  0  0  0  0  0  0  0  0  0  0
    1.9119   -0.6865    0.0000 C    0  0  0  0  0  0  0  0  0  0  0  0
    1.6991   -1.4726    0.0000 C    0  0  0  0  0  0  0  0  0  0  0  0
    2.5607    1.6991    0.0000 C    0  0  0  0  0  0  0  0  0  0  0  0
    2.7804    2.4955    0.0000 C    0  0  0  0  0  0  0  0  0  0  0  0
    0.3227   -1.1122    0.0000 C    0  0  0  0  0  0  0  0  0  0  0  0
   -2.9589    0.2231    0.0000 O    0  0  0  0  0  0  0  0  0  0  0  0
    0.8994   -1.6923    0.0000 C    0  0  0  0  0  0  0  0  0  0  0  0
   -0.5389   -1.3867    0.0000 O    0  0  0  0  0  0  0  0  0  0  0  0
    2.7186   -0.5011    0.0000 O    0  0  0  0  0  0  0  0  0  0  0  0
    1.5481    0.6968    0.0000 O    0  0  0  0  0  0  0  0  0  0  0  0
    0.6762   -2.4921    0.0000 Br   0  0  0  0  0  0  0  0  0  0  0  0
    2.3479    0.9097    0.0000 C    0  0  0  0  0  0  0  0  0  0  0  0
    2.9554    0.2918    0.0000 C    0  0  0  0  0  0  0  0  0  0  0  0
  2  4  1  0  0  0  0
  2  5  1  0  0  0  0
  3  1  1  0  0  0  0
  4  1  1  0  0  0  0
  5  3  1  0  0  0  0
  6  2  2  0  0  0  0
  7  6  1  0  0  0  0
  8  7  2  0  0  0  0
  9  8  1  0  0  0  0
  9 10  2  0  0  0  0
 10 15  1  0  0  0  0
 11 20  1  0  0  0  0
 12 11  3  0  0  0  0
 13  7  1  0  0  0  0
 14  3  2  0  0  0  0
 15 13  2  0  0  0  0
 16  4  2  0  0  0  0
 17  9  1  0  0  0  0
 18  8  1  0  0  0  0
 19 15  1  0  0  0  0
 20 18  1  0  0  0  0
 21 17  1  0  0  0  0
M  END
> <CdId>
2154

> <Mol Weight>
368.203

> <Formula>
C14H10BrNO4S

> <Click_ID>
CLK028_G10 __ __ 

$$$$
