CLK002_D06
 OpenBabel03181417552D

 32 35  0  0  0  0  0  0  0  0999 V2000
    0.9963   -0.4723    0.0000 C    0  0  0  0  0  0  0  0  0  0  0  0
    0.5791    0.2378    0.0000 C    0  0  3  0  0  0  0  0  0  0  0  0
    1.8202   -0.4689    0.0000 C    0  0  0  0  0  0  0  0  0  0  0  0
    0.7446   -1.2618    0.0000 C    0  0  0  0  0  0  0  0  0  0  0  0
   -0.2447    0.2447    0.0000 C    0  0  0  0  0  0  0  0  0  0  0  0
    0.9963    0.9515    0.0000 C    0  0  0  0  0  0  0  0  0  0  0  0
    2.0788   -1.2480    0.0000 C    0  0  0  0  0  0  0  0  0  0  0  0
    2.2270    0.2378    0.0000 N    0  0  0  0  0  0  0  0  0  0  0  0
    1.4065   -1.7340    0.0000 C    0  0  0  0  0  0  0  0  0  0  0  0
   -0.0414   -1.5203    0.0000 O    0  0  0  0  0  0  0  0  0  0  0  0
   -0.6653   -0.4723    0.0000 C    0  0  0  0  0  0  0  0  0  0  0  0
   -0.6550    0.9550    0.0000 C    0  0  0  0  0  0  0  0  0  0  0  0
    1.8202    0.9515    0.0000 C    0  0  0  0  0  0  0  0  0  0  0  0
    0.5826    1.6686    0.0000 C    0  0  0  0  0  0  0  0  0  0  0  0
    2.8338   -1.5858    0.0000 C    0  0  0  0  0  0  0  0  0  0  0  0
    1.4962   -2.5545    0.0000 C    0  0  0  0  0  0  0  0  0  0  0  0
   -1.4927   -0.4689    0.0000 C    0  0  0  0  0  0  0  0  0  0  0  0
   -1.4789    0.9550    0.0000 C    0  0  0  0  0  0  0  0  0  0  0  0
    2.2339    1.6686    0.0000 C    0  0  0  0  0  0  0  0  0  0  0  0
    0.9963    2.3787    0.0000 O    0  0  0  0  0  0  0  0  0  0  0  0
   -0.2413    1.6755    0.0000 O    0  0  0  0  0  0  0  0  0  0  0  0
    2.9199   -2.4063    0.0000 C    0  0  0  0  0  0  0  0  0  0  0  0
    2.2546   -2.8923    0.0000 C    0  0  0  0  0  0  0  0  0  0  0  0
   -1.8961    0.2516    0.0000 C    0  0  0  0  0  0  0  0  0  0  0  0
   -1.9029   -1.1721    0.0000 O    0  0  0  0  0  0  0  0  0  0  0  0
   -1.8823    1.6686    0.0000 Br   0  0  0  0  0  0  0  0  0  0  0  0
    0.5929    3.0992    0.0000 C    0  0  0  0  0  0  0  0  0  0  0  0
   -2.7200    0.2551    0.0000 O    0  0  0  0  0  0  0  0  0  0  0  0
   -1.4962   -1.8857    0.0000 C    0  0  0  0  0  0  0  0  0  0  0  0
   -3.1268    0.9756    0.0000 C    0  0  0  0  0  0  0  0  0  0  0  0
   -3.9542    0.9790    0.0000 C    0  0  0  0  0  0  0  0  0  0  0  0
   -4.7781    0.9894    0.0000 C    0  0  0  0  0  0  0  0  0  0  0  0
  1  2  1  0  0  0  0
  1  3  2  0  0  0  0
  1  4  1  0  0  0  0
  2  5  1  0  0  0  0
  2  6  1  0  0  0  0
  3  7  1  0  0  0  0
  3  8  1  0  0  0  0
  4  9  1  0  0  0  0
  4 10  2  0  0  0  0
  5 11  2  0  0  0  0
  5 12  1  0  0  0  0
  6 13  2  0  0  0  0
  6 14  1  0  0  0  0
  7 15  1  0  0  0  0
  7  9  2  0  0  0  0
  8 13  1  0  0  0  0
  9 16  1  0  0  0  0
 11 17  1  0  0  0  0
 12 18  2  0  0  0  0
 13 19  1  0  0  0  0
 14 20  1  0  0  0  0
 14 21  2  0  0  0  0
 15 22  2  0  0  0  0
 16 23  2  0  0  0  0
 17 24  2  0  0  0  0
 17 25  1  0  0  0  0
 18 26  1  0  0  0  0
 18 24  1  0  0  0  0
 20 27  1  0  0  0  0
 22 23  1  0  0  0  0
 24 28  1  0  0  0  0
 25 29  1  0  0  0  0
 28 30  1  0  0  0  0
 30 31  1  0  0  0  0
 31 32  3  0  0  0  0
M  END
> <CdId>
115

> <Mol Weight>
494.334

> <Formula>
C25H20BrNO5

> <Click_ID>
CLK002_D06 __ __ 

$$$$
