CLK041F08
 OpenBabel03181417552D

 20 20  0  0  0  0  0  0  0  0999 V2000
    0.9625   -2.6167    0.0000 C   0  0  0  0  0  0  0  0  0  0  0  0
   -2.6083    1.0958    0.0000 N   0  0  0  0  0  0  0  0  0  0  0  0
   -1.8958    1.5083    0.0000 C   0  0  0  0  0  0  0  0  0  0  0  0
    0.9625   -3.4417    0.0000 C   0  0  0  0  0  0  0  0  0  0  0  0
   -1.1792    1.9208    0.0000 C   0  0  0  0  0  0  0  0  0  0  0  0
    0.2500   -0.5542    0.0000 C   0  0  0  0  0  0  0  0  0  0  0  0
    0.9625   -0.9667    0.0000 N   0  0  0  0  0  0  0  0  0  0  0  0
    0.9625   -1.7917    0.0000 C   0  0  0  0  0  0  0  0  0  0  0  0
   -0.4667    1.5083    0.0000 C   0  0  0  0  0  0  0  0  0  0  0  0
   -0.4667    0.6833    0.0000 O   0  0  0  0  0  0  0  0  0  0  0  0
   -0.4667   -0.9667    0.0000 O   0  0  0  0  0  0  0  0  0  0  0  0
    0.2500    0.2708    0.0000 C   0  0  0  0  0  0  0  0  0  0  0  0
   -1.1792    2.7458    0.0000 C   0  0  0  0  0  0  0  0  0  0  0  0
    1.7875   -1.7917    0.0000 C   0  0  0  0  0  0  0  0  0  0  0  0
    0.1375   -1.7917    0.0000 C   0  0  0  0  0  0  0  0  0  0  0  0
    0.2500    1.9208    0.0000 C   0  0  0  0  0  0  0  0  0  0  0  0
   -0.2750   -1.0792    0.0000 C   0  0  0  0  0  0  0  0  0  0  0  0
    2.2000   -2.5083    0.0000 C   0  0  0  0  0  0  0  0  0  0  0  0
   -0.4667    3.1583    0.0000 C   0  0  0  0  0  0  0  0  0  0  0  0
    0.2500    2.7458    0.0000 C   0  0  0  0  0  0  0  0  0  0  0  0
  2  3  3  0  0  0  0
  3  5  1  0  0  0  0
  4  1  3  0  0  0  0
  5  9  2  0  0  0  0
  6  7  1  0  0  0  0
  7  8  1  0  0  0  0
  8  1  1  0  0  0  0
  9 10  1  0  0  0  0
 10 12  1  0  0  0  0
 11  6  2  0  0  0  0
 12  6  1  0  0  0  0
 13  5  1  0  0  0  0
 14  8  1  0  0  0  0
 15  8  1  0  0  0  0
 16  9  1  0  0  0  0
 17 15  1  0  0  0  0
 18 14  1  0  0  0  0
 19 13  2  0  0  0  0
 19 20  1  0  0  0  0
 20 16  2  0  0  0  0
M  END
> <CdId>
3142

> <Mol Weight>
270.3263

> <Formula>
C16H18N2O2

> <Click_ID>
CLK041F08 __ __ 

$$$$
