CLK023_C02
 OpenBabel03181417552D

 28 31  0  0  0  0  0  0  0  0999 V2000
   -0.2822   -1.4696    0.0000 N    0  0  0  0  0  0  0  0  0  0  0  0
   -0.5437   -0.6918    0.0000 C    0  0  0  0  0  0  0  0  0  0  0  0
    0.5404   -1.4696    0.0000 C    0  0  0  0  0  0  0  0  0  0  0  0
    0.7915   -0.6849    0.0000 C    0  0  0  0  0  0  0  0  0  0  0  0
    1.8516    0.2753    0.0000 C    0  0  0  0  0  0  0  0  0  0  0  0
    0.1239   -0.1996    0.0000 N    0  0  0  0  0  0  0  0  0  0  0  0
    1.8516    1.6107    0.0000 N    0  0  0  0  0  0  0  0  0  0  0  0
    1.5969   -0.5094    0.0000 C    0  0  0  0  0  0  0  0  0  0  0  0
    1.3663    0.9499    0.0000 C    0  0  0  0  0  0  0  0  0  0  0  0
    2.6328    0.5300    0.0000 C    0  0  0  0  0  0  0  0  0  0  0  0
    2.6328    1.3526    0.0000 C    0  0  0  0  0  0  0  0  0  0  0  0
   -0.7606   -2.1441    0.0000 C    0  0  0  0  0  0  0  0  0  0  0  0
    0.7915    2.5744    0.0000 C    0  0  0  0  0  0  0  0  0  0  0  0
   -0.0138    2.7464    0.0000 C    0  0  0  0  0  0  0  0  0  0  0  0
   -1.3422   -0.4543    0.0000 O    0  0  0  0  0  0  0  0  0  0  0  0
    1.0290   -2.1441    0.0000 O    0  0  0  0  0  0  0  0  0  0  0  0
    1.5969    2.3988    0.0000 C    0  0  0  0  0  0  0  0  0  0  0  0
   -1.5935   -2.0718    0.0000 C    0  0  0  0  0  0  0  0  0  0  0  0
   -3.2420   -1.9204    0.0000 C    0  0  0  0  0  0  0  0  0  0  0  0
   -4.0645   -1.8447    0.0000 Cl   0  0  0  0  0  0  0  0  0  0  0  0
   -1.9411   -1.3216    0.0000 C    0  0  0  0  0  0  0  0  0  0  0  0
   -2.0684   -2.7429    0.0000 C    0  0  0  0  0  0  0  0  0  0  0  0
   -2.8910   -2.6707    0.0000 C    0  0  0  0  0  0  0  0  0  0  0  0
   -2.7671   -1.2458    0.0000 C    0  0  0  0  0  0  0  0  0  0  0  0
    3.3452    1.7655    0.0000 C    0  0  0  0  0  0  0  0  0  0  0  0
    3.3452    0.1170    0.0000 C    0  0  0  0  0  0  0  0  0  0  0  0
    4.0611    1.3526    0.0000 C    0  0  0  0  0  0  0  0  0  0  0  0
    4.0611    0.5300    0.0000 C    0  0  0  0  0  0  0  0  0  0  0  0
  2  1  1  0  0  0  0
  3  1  1  0  0  0  0
  4  3  1  0  0  0  0
  4  6  1  0  0  0  0
  5  8  1  0  0  0  0
  6  2  1  0  0  0  0
  7  9  1  0  0  0  0
  7 11  1  0  0  0  0
  8  4  2  0  0  0  0
  9  5  2  0  0  0  0
 10  5  1  0  0  0  0
 11 10  2  0  0  0  0
 12  1  1  0  0  0  0
 13 17  1  0  0  0  0
 14 13  3  0  0  0  0
 15  2  2  0  0  0  0
 16  3  2  0  0  0  0
 17  7  1  0  0  0  0
 18 12  1  0  0  0  0
 19 23  1  0  0  0  0
 19 24  2  0  0  0  0
 20 19  1  0  0  0  0
 21 18  2  0  0  0  0
 22 18  1  0  0  0  0
 23 22  2  0  0  0  0
 24 21  1  0  0  0  0
 25 11  1  0  0  0  0
 25 27  2  0  0  0  0
 26 10  1  0  0  0  0
 27 28  1  0  0  0  0
 28 26  2  0  0  0  0
M  END
> <CdId>
1717

> <Mol Weight>
389.834

> <Formula>
C22H16ClN3O2

> <Click_ID>
CLK023_C02 __ __ 

$$$$
