CLK028_A11
 OpenBabel03181417552D

 24 27  0  0  0  0  0  0  0  0999 V2000
    2.3824   -0.0824    0.0000 N   0  0  0  0  0  0  0  0  0  0  0  0
    1.4521    0.8513    0.0000 C   0  0  0  0  0  0  0  0  0  0  0  0
   -1.4247    0.6626    0.0000 C   0  0  0  0  0  0  0  0  0  0  0  0
   -2.2245    0.8685    0.0000 N   0  0  0  0  0  0  0  0  0  0  0  0
    1.5619    0.0515    0.0000 C   0  0  0  0  0  0  0  0  0  0  0  0
   -1.3697   -0.1613    0.0000 N   0  0  0  0  0  0  0  0  0  0  0  0
    2.7566    0.6420    0.0000 C   0  0  0  0  0  0  0  0  0  0  0  0
    2.1765    1.2255    0.0000 C   0  0  0  0  0  0  0  0  0  0  0  0
   -2.6605    0.1751    0.0000 C   0  0  0  0  0  0  0  0  0  0  0  0
   -2.1386   -0.4600    0.0000 C   0  0  0  0  0  0  0  0  0  0  0  0
    2.3137   -1.5207    0.0000 C   0  0  0  0  0  0  0  0  0  0  0  0
    1.8640   -2.2210    0.0000 C   0  0  0  0  0  0  0  0  0  0  0  0
    0.0103    0.7553    0.0000 N   0  0  0  0  0  0  0  0  0  0  0  0
   -0.7347    1.1260    0.0000 N   0  0  0  0  0  0  0  0  0  0  0  0
    0.7003    1.2187    0.0000 C   0  0  0  0  0  0  0  0  0  0  0  0
    2.7635   -0.8239    0.0000 C   0  0  0  0  0  0  0  0  0  0  0  0
    3.5462    0.8548    0.0000 C   0  0  0  0  0  0  0  0  0  0  0  0
    2.3893    2.0117    0.0000 C   0  0  0  0  0  0  0  0  0  0  0  0
   -3.4741    0.0377    0.0000 C   0  0  0  0  0  0  0  0  0  0  0  0
   -2.4236   -1.2358    0.0000 C   0  0  0  0  0  0  0  0  0  0  0  0
    3.7555    1.6546    0.0000 C   0  0  0  0  0  0  0  0  0  0  0  0
    3.1857    2.2245    0.0000 C   0  0  0  0  0  0  0  0  0  0  0  0
   -3.7590   -0.7312    0.0000 C   0  0  0  0  0  0  0  0  0  0  0  0
   -3.2372   -1.3732    0.0000 C   0  0  0  0  0  0  0  0  0  0  0  0
  2  5  2  0  0  0  0
  3 14  1  0  0  0  0
  4  3  2  0  0  0  0
  5  1  1  0  0  0  0
  6  3  1  0  0  0  0
  7  1  1  0  0  0  0
  8  7  2  0  0  0  0
  8  2  1  0  0  0  0
  9  4  1  0  0  0  0
 10  6  1  0  0  0  0
 10  9  1  0  0  0  0
 11 16  1  0  0  0  0
 12 11  3  0  0  0  0
 13 15  2  0  0  0  0
 14 13  1  0  0  0  0
 15  2  1  0  0  0  0
 16  1  1  0  0  0  0
 17  7  1  0  0  0  0
 18  8  1  0  0  0  0
 18 22  2  0  0  0  0
 19  9  2  0  0  0  0
 20 10  2  0  0  0  0
 21 17  2  0  0  0  0
 22 21  1  0  0  0  0
 23 19  1  0  0  0  0
 23 24  2  0  0  0  0
 24 20  1  0  0  0  0
M  END
> <CdId>
2095

> <Mol Weight>
313.3559

> <Formula>
C19H15N5

> <Click_ID>
CLK028_A11 __ __ 

$$$$
