CLK016_C07
 OpenBabel03181417552D

 20 21  0  0  0  0  0  0  0  0999 V2000
    1.5714   -0.8191    0.0000 N   0  0  0  0  0  0  0  0  0  0  0  0
    1.8305   -1.6090    0.0000 C   0  0  0  0  0  0  0  0  0  0  0  0
    2.9129   -0.8191    0.0000 C   0  0  0  0  0  0  0  0  0  0  0  0
    2.2442   -0.3302    0.0000 C   0  0  0  0  0  0  0  0  0  0  0  0
    2.6579   -1.6090    0.0000 S   0  0  0  0  0  0  0  0  0  0  0  0
    5.2449   -0.1128    0.0000 N   0  3  0  0  0  0  0  0  0  0  0  0
    3.7028   -0.5642    0.0000 C   0  0  0  0  0  0  0  0  0  0  0  0
    4.6431    0.4597    0.0000 C   0  0  0  0  0  0  0  0  0  0  0  0
    3.8741    0.2465    0.0000 C   0  0  0  0  0  0  0  0  0  0  0  0
    0.6143    0.2465    0.0000 C   0  0  0  0  0  0  0  0  0  0  0  0
    0.3929    1.0489    0.0000 C   0  0  0  0  0  0  0  0  0  0  0  0
    5.0568   -0.9069    0.0000 O   0  5  0  0  0  0  0  0  0  0  0  0
    1.3415   -2.2735    0.0000 O   0  0  0  0  0  0  0  0  0  0  0  0
    6.0347    0.1254    0.0000 O   0  0  0  0  0  0  0  0  0  0  0  0
    2.2359    0.4973    0.0000 O   0  0  0  0  0  0  0  0  0  0  0  0
    0.7899   -0.5642    0.0000 C   0  0  0  0  0  0  0  0  0  0  0  0
    3.2514    0.7480    0.0000 C   0  0  0  0  0  0  0  0  0  0  0  0
    4.7935    1.1743    0.0000 C   0  0  0  0  0  0  0  0  0  0  0  0
    3.4019    1.4669    0.0000 C   0  0  0  0  0  0  0  0  0  0  0  0
    4.1667    1.6758    0.0000 C   0  0  0  0  0  0  0  0  0  0  0  0
  2  1  1  0  0  0  0
  3  4  1  0  0  0  0
  4  1  1  0  0  0  0
  5  2  1  0  0  0  0
  5  3  1  0  0  0  0
  6  8  1  0  0  0  0
  7  3  2  0  0  0  0
  8  9  1  0  0  0  0
  9  7  1  0  0  0  0
 10 16  1  0  0  0  0
 11 10  3  0  0  0  0
 12  6  1  0  0  0  0
 13  2  2  0  0  0  0
 14  6  2  0  0  0  0
 15  4  2  0  0  0  0
 16  1  1  0  0  0  0
 17  9  2  0  0  0  0
 18  8  2  0  0  0  0
 19 17  1  0  0  0  0
 20 19  2  0  0  0  0
 20 18  1  0  0  0  0
M  END
> <CdId>
1182

> <Mol Weight>
288.279

> <Formula>
C13H8N2O4S

> <Click_ID>
CLK016_C07 __ __ 

$$$$
