CLK038A04
 OpenBabel03181417552D

 17 18  0  0  0  0  0  0  0  0999 V2000
    0.3750    0.6583    0.0000 C   0  0  0  0  0  0  0  0  0  0  0  0
   -0.3375    1.0708    0.0000 C   0  0  0  0  0  0  0  0  0  0  0  0
    0.3750   -0.1667    0.0000 C   0  0  0  0  0  0  0  0  0  0  0  0
    1.0917    1.0708    0.0000 C   0  0  0  0  0  0  0  0  0  0  0  0
    1.8042   -1.8167    0.0000 C   0  0  0  0  0  0  0  0  0  0  0  0
   -0.3375   -0.5792    0.0000 C   0  0  0  0  0  0  0  0  0  0  0  0
    2.5208   -2.2292    0.0000 C   0  0  0  0  0  0  0  0  0  0  0  0
   -1.0542    0.6583    0.0000 C   0  0  0  0  0  0  0  0  0  0  0  0
   -1.0542   -0.1667    0.0000 C   0  0  0  0  0  0  0  0  0  0  0  0
    1.0917    1.8958    0.0000 O   0  0  0  0  0  0  0  0  0  0  0  0
    1.8042    0.6583    0.0000 O   0  0  0  0  0  0  0  0  0  0  0  0
    1.0917   -0.5792    0.0000 O   0  0  0  0  0  0  0  0  0  0  0  0
    1.0917   -1.4042    0.0000 C   0  0  0  0  0  0  0  0  0  0  0  0
   -1.7667    1.0708    0.0000 C   0  0  0  0  0  0  0  0  0  0  0  0
   -1.7667   -0.5792    0.0000 C   0  0  0  0  0  0  0  0  0  0  0  0
   -2.4833    0.6583    0.0000 C   0  0  0  0  0  0  0  0  0  0  0  0
   -2.4833   -0.1667    0.0000 C   0  0  0  0  0  0  0  0  0  0  0  0
  2  1  1  0  0  0  0
  3  1  2  0  0  0  0
  4  1  1  0  0  0  0
  5 13  1  0  0  0  0
  6  3  1  0  0  0  0
  7  5  3  0  0  0  0
  8  2  2  0  0  0  0
  9  6  2  0  0  0  0
  9  8  1  0  0  0  0
 10  4  2  0  0  0  0
 11  4  1  0  0  0  0
 12  3  1  0  0  0  0
 13 12  1  0  0  0  0
 14  8  1  0  0  0  0
 15  9  1  0  0  0  0
 16 14  2  0  0  0  0
 17 15  2  0  0  0  0
 17 16  1  0  0  0  0
M  END
> <CdId>
2865

> <Mol Weight>
226.2274

> <Formula>
C14H10O3

> <Click_ID>
CLK038A04 __ __ 

$$$$
