CLK018C07
 OpenBabel03181411022D

 20 21  0  0  0  0  0  0  0  0999 V2000
    4.6194   -2.4930    0.0000 C   0  0  0  0  0  0  0  0  0  0  0  0
    4.5965   -3.9091    0.0000 N   0  0  0  0  0  0  0  0  0  0  0  0
    5.4351   -2.5022    0.0000 C   0  0  0  0  0  0  0  0  0  0  0  0
    5.8429   -3.2217    0.0000 O   0  0  0  0  0  0  0  0  0  0  0  0
    4.2115   -1.7735    0.0000 C   0  0  0  0  0  0  0  0  0  0  0  0
    4.1978   -3.1942    0.0000 C   0  0  0  0  0  0  0  0  0  0  0  0
   -0.3300   -2.4197    0.0000 C   0  0  0  0  0  0  0  0  0  0  0  0
   -0.7515   -3.1254    0.0000 C   0  0  0  0  0  0  0  0  0  0  0  0
    2.1631   -1.0220    0.0000 C   0  0  0  0  0  0  0  0  0  0  0  0
    3.3866   -1.7598    0.0000 C   0  0  0  0  0  0  0  0  0  0  0  0
    2.9880   -1.0357    0.0000 C   0  0  0  0  0  0  0  0  0  0  0  0
    1.7460   -1.7369    0.0000 C   0  0  0  0  0  0  0  0  0  0  0  0
    5.8613   -1.7919    0.0000 O   0  0  0  0  0  0  0  0  0  0  0  0
    2.1447   -2.4518    0.0000 C   0  0  0  0  0  0  0  0  0  0  0  0
    2.9696   -2.4655    0.0000 C   0  0  0  0  0  0  0  0  0  0  0  0
    1.7644   -0.3071    0.0000 O   0  0  0  0  0  0  0  0  0  0  0  0
    0.9211   -1.7231    0.0000 O   0  0  0  0  0  0  0  0  0  0  0  0
    0.4949   -2.4334    0.0000 C   0  0  0  0  0  0  0  0  0  0  0  0
    3.3729   -3.1896    0.0000 C   0  0  0  0  0  0  0  0  0  0  0  0
    2.1859    0.3987    0.0000 C   0  0  0  0  0  0  0  0  0  0  0  0
  2  6  2  0  0  0  0
  2  4  1  0  0  0  0
  3  1  1  0  0  0  0
  4  3  1  0  0  0  0
  5  1  2  0  0  0  0
  6  1  1  0  0  0  0
  7 18  1  0  0  0  0
  8  7  3  0  0  0  0
  9 11  2  0  0  0  0
 10  5  1  0  0  0  0
 11 10  1  0  0  0  0
 12 14  2  0  0  0  0
 12  9  1  0  0  0  0
 13  3  2  0  0  0  0
 14 15  1  0  0  0  0
 15 10  2  0  0  0  0
 16  9  1  0  0  0  0
 17 12  1  0  0  0  0
 18 17  1  0  0  0  0
 19  6  1  0  0  0  0
 20 16  1  0  0  0  0
M  END
> <Mol Weight>
271.268

> <Click ID>
CLK018_C07

> <Plant Activity>
0

> <Yeast Activity>
1 __ __ 

$$$$
