CLK023E10
 OpenBabel03181411022D

 19 20  0  0  0  0  0  0  0  0999 V2000
    1.2366    0.1168    0.0000 N    0  0  0  0  0  0  0  0  0  0  0  0
    0.8244   -0.5909    0.0000 C    0  0  0  0  0  0  0  0  0  0  0  0
   -0.0687    0.4122    0.0000 C    0  0  0  0  0  0  0  0  0  0  0  0
    0.6905    0.7352    0.0000 C    0  0  0  0  0  0  0  0  0  0  0  0
    0.0206   -0.4088    0.0000 S    0  0  0  0  0  0  0  0  0  0  0  0
   -0.7797    0.8209    0.0000 C    0  0  0  0  0  0  0  0  0  0  0  0
   -1.4977    0.4019    0.0000 C    0  0  0  0  0  0  0  0  0  0  0  0
    2.5350   -0.4569    0.0000 C    0  0  0  0  0  0  0  0  0  0  0  0
    2.9370   -1.1713    0.0000 C    0  0  0  0  0  0  0  0  0  0  0  0
    1.1473   -1.3465    0.0000 O    0  0  0  0  0  0  0  0  0  0  0  0
    0.8621    1.5389    0.0000 O    0  0  0  0  0  0  0  0  0  0  0  0
   -2.2156    0.8244    0.0000 C    0  0  0  0  0  0  0  0  0  0  0  0
    2.0542    0.2061    0.0000 C    0  0  0  0  0  0  0  0  0  0  0  0
   -1.5080   -0.4157    0.0000 C    0  0  0  0  0  0  0  0  0  0  0  0
   -2.9335    0.4157    0.0000 C    0  0  0  0  0  0  0  0  0  0  0  0
   -2.2156   -0.8244    0.0000 C    0  0  0  0  0  0  0  0  0  0  0  0
   -2.9370   -0.4191    0.0000 C    0  0  0  0  0  0  0  0  0  0  0  0
   -2.2260   -1.6488    0.0000 Cl   0  0  0  0  0  0  0  0  0  0  0  0
   -2.2156    1.6523    0.0000 O    0  0  0  0  0  0  0  0  0  0  0  0
  2  1  1  0  0  0  0
  3  4  1  0  0  0  0
  4  1  1  0  0  0  0
  5  2  1  0  0  0  0
  5  3  1  0  0  0  0
  6  3  2  0  0  0  0
  7  6  1  0  0  0  0
  8 13  1  0  0  0  0
  9  8  3  0  0  0  0
 10  2  2  0  0  0  0
 11  4  2  0  0  0  0
 12  7  2  0  0  0  0
 13  1  1  0  0  0  0
 14  7  1  0  0  0  0
 15 12  1  0  0  0  0
 15 17  2  0  0  0  0
 16 14  2  0  0  0  0
 17 16  1  0  0  0  0
 18 16  1  0  0  0  0
 19 12  1  0  0  0  0
M  END
> <Mol Weight>
293.726

> <Click ID>
CLK023_E10

> <Plant Activity>
0

> <Yeast Activity>
1 __ __ 

$$$$
