CLK015D07
 OpenBabel03181411022D

 17 18  0  0  0  0  0  0  0  0999 V2000
    2.9742   -1.7323    0.0000 C   0  0  0  0  0  0  0  0  0  0  0  0
    2.5480   -2.4380    0.0000 C   0  0  0  0  0  0  0  0  0  0  0  0
    3.0246    1.1227    0.0000 C   0  0  0  0  0  0  0  0  0  0  0  0
    2.6168    1.8514    0.0000 C   0  0  0  0  0  0  0  0  0  0  0  0
    2.5755   -1.0082    0.0000 C   0  0  0  0  0  0  0  0  0  0  0  0
    4.2069   -2.4655    0.0000 N   0  0  0  0  0  0  0  0  0  0  0  0
    3.7991   -1.7460    0.0000 C   0  0  0  0  0  0  0  0  0  0  0  0
    1.7323   -2.4243    0.0000 C   0  0  0  0  0  0  0  0  0  0  0  0
    1.7506   -0.9945    0.0000 C   0  0  0  0  0  0  0  0  0  0  0  0
    1.3336   -1.7094    0.0000 C   0  0  0  0  0  0  0  0  0  0  0  0
    5.0181   -2.5022    0.0000 O   0  0  0  0  0  0  0  0  0  0  0  0
    3.0017   -0.3025    0.0000 O   0  0  0  0  0  0  0  0  0  0  0  0
    2.5984    0.4216    0.0000 C   0  0  0  0  0  0  0  0  0  0  0  0
    2.9605   -3.1621    0.0000 C   0  0  0  0  0  0  0  0  0  0  0  0
    1.3107   -3.1392    0.0000 C   0  0  0  0  0  0  0  0  0  0  0  0
    2.5343   -3.8678    0.0000 C   0  0  0  0  0  0  0  0  0  0  0  0
    1.7094   -3.8541    0.0000 C   0  0  0  0  0  0  0  0  0  0  0  0
  2  1  2  0  0  0  0
  3 13  1  0  0  0  0
  4  3  3  0  0  0  0
  5  1  1  0  0  0  0
  6  7  2  0  0  0  0
  7  1  1  0  0  0  0
  8  2  1  0  0  0  0
  9  5  2  0  0  0  0
 10  9  1  0  0  0  0
 10  8  2  0  0  0  0
 11  6  1  0  0  0  0
 12  5  1  0  0  0  0
 13 12  1  0  0  0  0
 14  2  1  0  0  0  0
 15  8  1  0  0  0  0
 15 17  2  0  0  0  0
 16 14  2  0  0  0  0
 17 16  1  0  0  0  0
M  END
> <Mol Weight>
225.2426

> <Click ID>
CLK015_D07

> <Plant Activity>
0

> <Yeast Activity>
1 __ __ 

$$$$
