CLK006F04
 OpenBabel03181411022D

 21 23  0  0  0  0  0  0  0  0999 V2000
    5.4875   -6.7458    0.0000 C    0  0  0  0  0  0  0  0  0  0  0  0
    5.0042   -6.0833    0.0000 N    0  0  0  0  0  0  0  0  0  0  0  0
    5.0042   -7.4167    0.0000 N    0  0  0  0  0  0  0  0  0  0  0  0
    4.2208   -7.1625    0.0000 C    0  0  0  0  0  0  0  0  0  0  0  0
    4.2208   -6.3375    0.0000 C    0  0  0  0  0  0  0  0  0  0  0  0
    6.3125   -6.7417    0.0000 C    0  0  0  0  0  0  0  0  0  0  0  0
    4.7042   -8.8125    0.0000 C    0  0  0  0  0  0  0  0  0  0  0  0
    4.1500   -9.4208    0.0000 C    0  0  0  0  0  0  0  0  0  0  0  0
    6.7250   -6.0292    0.0000 C    0  0  0  0  0  0  0  0  0  0  0  0
    5.2583   -8.2042    0.0000 C    0  0  0  0  0  0  0  0  0  0  0  0
    7.5542   -6.0292    0.0000 C    0  0  0  0  0  0  0  0  0  0  0  0
    9.2083   -6.0292    0.0000 C    0  0  0  0  0  0  0  0  0  0  0  0
   10.0292   -6.0292    0.0000 Cl   0  0  0  0  0  0  0  0  0  0  0  0
    7.9667   -5.3125    0.0000 C    0  0  0  0  0  0  0  0  0  0  0  0
    7.9667   -6.7417    0.0000 C    0  0  0  0  0  0  0  0  0  0  0  0
    8.7958   -5.3125    0.0000 C    0  0  0  0  0  0  0  0  0  0  0  0
    8.7958   -6.7417    0.0000 C    0  0  0  0  0  0  0  0  0  0  0  0
    3.5083   -7.5750    0.0000 C    0  0  0  0  0  0  0  0  0  0  0  0
    3.5083   -5.9250    0.0000 C    0  0  0  0  0  0  0  0  0  0  0  0
    2.7917   -7.1625    0.0000 C    0  0  0  0  0  0  0  0  0  0  0  0
    2.7917   -6.3375    0.0000 C    0  0  0  0  0  0  0  0  0  0  0  0
  2  1  2  0  0  0  0
  3  1  1  0  0  0  0
  4  3  1  0  0  0  0
  5  2  1  0  0  0  0
  5  4  1  0  0  0  0
  6  1  1  0  0  0  0
  7 10  1  0  0  0  0
  8  7  3  0  0  0  0
  9  6  2  0  0  0  0
 10  3  1  0  0  0  0
 11  9  1  0  0  0  0
 12 17  2  0  0  0  0
 12 16  1  0  0  0  0
 13 12  1  0  0  0  0
 14 11  1  0  0  0  0
 15 11  2  0  0  0  0
 16 14  2  0  0  0  0
 17 15  1  0  0  0  0
 18  4  2  0  0  0  0
 19  5  2  0  0  0  0
 20 18  1  0  0  0  0
 21 19  1  0  0  0  0
 21 20  2  0  0  0  0
M  END
> <Mol Weight>
292.762

> <Click ID>
CLK006_F04

> <Plant Activity>
0

> <Yeast Activity>
1 __ __ 

$$$$
