CLK023_G02
 OpenBabel03181417022D

 29 31  0  0  0  0  0  0  0  0999 V2000
   -0.7960   -1.9282    0.0000 N   0  0  0  0  0  0  0  0  0  0  0  0
   -0.5387   -2.7174    0.0000 C   0  0  0  0  0  0  0  0  0  0  0  0
   -0.1235   -1.4410    0.0000 C   0  0  0  0  0  0  0  0  0  0  0  0
    0.5421   -1.9282    0.0000 C   0  0  0  0  0  0  0  0  0  0  0  0
    0.2882   -2.7174    0.0000 N   0  0  0  0  0  0  0  0  0  0  0  0
   -1.5783   -1.6743    0.0000 C   0  0  0  0  0  0  0  0  0  0  0  0
    1.3313   -1.6743    0.0000 C   0  0  0  0  0  0  0  0  0  0  0  0
   -1.7533   -0.8646    0.0000 C   0  0  0  0  0  0  0  0  0  0  0  0
    2.9712    2.6007    0.0000 C   0  0  0  0  0  0  0  0  0  0  0  0
    3.1462    3.3829    0.0000 C   0  0  0  0  0  0  0  0  0  0  0  0
   -1.0258   -3.3829    0.0000 O   0  0  0  0  0  0  0  0  0  0  0  0
    1.0567    0.4872    0.0000 C   0  0  0  0  0  0  0  0  0  0  0  0
   -0.1338   -0.6176    0.0000 O   0  0  0  0  0  0  0  0  0  0  0  0
    1.4925   -0.8646    0.0000 C   0  0  0  0  0  0  0  0  0  0  0  0
    0.8887   -0.3225    0.0000 C   0  0  0  0  0  0  0  0  0  0  0  0
    1.8322    0.7343    0.0000 C   0  0  0  0  0  0  0  0  0  0  0  0
   -2.5355   -0.6176    0.0000 C   0  0  0  0  0  0  0  0  0  0  0  0
    2.4394    0.1853    0.0000 C   0  0  0  0  0  0  0  0  0  0  0  0
    2.2713   -0.6176    0.0000 C   0  0  0  0  0  0  0  0  0  0  0  0
   -3.1497   -1.1666    0.0000 F   0  0  0  0  0  0  0  0  0  0  0  0
    0.4564    1.0361    0.0000 O   0  0  0  0  0  0  0  0  0  0  0  0
    2.0071    1.5405    0.0000 O   0  0  0  0  0  0  0  0  0  0  0  0
    2.7929    1.7875    0.0000 C   0  0  0  0  0  0  0  0  0  0  0  0
   -1.1357   -0.3156    0.0000 C   0  0  0  0  0  0  0  0  0  0  0  0
   -2.7105    0.1887    0.0000 C   0  0  0  0  0  0  0  0  0  0  0  0
   -0.3259    0.7788    0.0000 C   0  0  0  0  0  0  0  0  0  0  0  0
   -1.3107    0.4906    0.0000 C   0  0  0  0  0  0  0  0  0  0  0  0
   -0.9332    1.3278    0.0000 C   0  0  0  0  0  0  0  0  0  0  0  0
   -2.0963    0.7479    0.0000 C   0  0  0  0  0  0  0  0  0  0  0  0
  2  1  1  0  0  0  0
  3  1  1  0  0  0  0
  4  3  1  0  0  0  0
  4  5  1  0  0  0  0
  5  2  1  0  0  0  0
  6  1  1  0  0  0  0
  7  4  2  0  0  0  0
  8  6  1  0  0  0  0
  9 23  1  0  0  0  0
 10  9  3  0  0  0  0
 11  2  2  0  0  0  0
 12 15  1  0  0  0  0
 13  3  2  0  0  0  0
 14  7  1  0  0  0  0
 15 14  2  0  0  0  0
 16 18  1  0  0  0  0
 16 12  2  0  0  0  0
 17  8  1  0  0  0  0
 18 19  2  0  0  0  0
 19 14  1  0  0  0  0
 20 17  1  0  0  0  0
 21 12  1  0  0  0  0
 22 16  1  0  0  0  0
 23 22  1  0  0  0  0
 24  8  2  0  0  0  0
 25 17  2  0  0  0  0
 26 21  1  0  0  0  0
 27 24  1  0  0  0  0
 28 26  1  0  0  0  0
 29 27  2  0  0  0  0
 29 25  1  0  0  0  0
M  END
> <CdId>
1757

> <Mol Weight>
394.3957

> <Formula>
C22H19FN2O4

> <Click_ID>
CLK023_G02 __ __ 

$$$$
