CLK051E04
 OpenBabel03181417022D

 19 20  0  0  0  0  0  0  0  0999 V2000
    0.4958    0.1917    0.0000 N   0  0  0  0  0  0  0  0  0  0  0  0
    1.2125   -0.2208    0.0000 C   0  0  0  0  0  0  0  0  0  0  0  0
    1.6250   -0.9333    0.0000 C   0  0  0  0  0  0  0  0  0  0  0  0
    2.0375   -0.2208    0.0000 C   0  0  0  0  0  0  0  0  0  0  0  0
   -0.9333    3.4917    0.0000 C   0  0  0  0  0  0  0  0  0  0  0  0
   -0.9333    4.3125    0.0000 C   0  0  0  0  0  0  0  0  0  0  0  0
   -0.2167    1.4292    0.0000 C   0  0  0  0  0  0  0  0  0  0  0  0
    0.4958    1.0167    0.0000 C   0  0  0  0  0  0  0  0  0  0  0  0
   -0.2167   -0.2208    0.0000 C   0  0  0  0  0  0  0  0  0  0  0  0
   -0.9333    1.0167    0.0000 O   0  0  0  0  0  0  0  0  0  0  0  0
   -0.2167    2.2542    0.0000 N   0  0  0  0  0  0  0  0  0  0  0  0
   -0.2167   -1.0458    0.0000 C   0  0  0  0  0  0  0  0  0  0  0  0
   -0.2167   -2.6958    0.0000 C   0  0  0  0  0  0  0  0  0  0  0  0
   -0.9333    2.6667    0.0000 C   0  0  0  0  0  0  0  0  0  0  0  0
    0.4958   -1.4583    0.0000 C   0  0  0  0  0  0  0  0  0  0  0  0
   -0.9333   -1.4583    0.0000 C   0  0  0  0  0  0  0  0  0  0  0  0
    0.4958   -2.2833    0.0000 C   0  0  0  0  0  0  0  0  0  0  0  0
   -0.9333   -2.2833    0.0000 C   0  0  0  0  0  0  0  0  0  0  0  0
   -0.2167   -3.5208    0.0000 C   0  0  0  0  0  0  0  0  0  0  0  0
  2  1  1  0  0  0  0
  3  2  1  0  0  0  0
  4  2  1  0  0  0  0
  4  3  1  0  0  0  0
  5 14  1  0  0  0  0
  6  5  3  0  0  0  0
  7  8  1  0  0  0  0
  8  1  1  0  0  0  0
  9  1  1  0  0  0  0
 10  7  2  0  0  0  0
 11  7  1  0  0  0  0
 12  9  1  0  0  0  0
 13 18  2  0  0  0  0
 14 11  1  0  0  0  0
 15 12  1  0  0  0  0
 16 12  2  0  0  0  0
 17 15  2  0  0  0  0
 17 13  1  0  0  0  0
 18 16  1  0  0  0  0
 19 13  1  0  0  0  0
M  END
> <CdId>
3909

> <Mol Weight>
256.3428

> <Formula>
C16H20N2O

> <Click_ID>
CLK051E04 __ __ 

$$$$
