CLK024_E02
 OpenBabel03181417022D

 27 29  0  0  0  0  0  0  0  0999 V2000
   -1.2230    0.7352    0.0000 C   0  0  0  0  0  0  0  0  0  0  0  0
   -1.2230   -0.0825    0.0000 N   0  0  0  0  0  0  0  0  0  0  0  0
    0.0618    0.3298    0.0000 C   0  0  0  0  0  0  0  0  0  0  0  0
   -0.4260   -0.3298    0.0000 C   0  0  0  0  0  0  0  0  0  0  0  0
   -0.4397    1.0032    0.0000 S   0  0  0  0  0  0  0  0  0  0  0  0
    0.8795    0.3470    0.0000 C   0  0  0  0  0  0  0  0  0  0  0  0
   -1.9032    1.2162    0.0000 N   0  0  0  0  0  0  0  0  0  0  0  0
    1.2952   -0.3779    0.0000 C   0  0  0  0  0  0  0  0  0  0  0  0
    2.1197   -0.3642    0.0000 C   0  0  0  0  0  0  0  0  0  0  0  0
    3.7309    1.0822    0.0000 C   0  0  0  0  0  0  0  0  0  0  0  0
    4.1397    1.8036    0.0000 C   0  0  0  0  0  0  0  0  0  0  0  0
   -0.1684   -1.1166    0.0000 O   0  0  0  0  0  0  0  0  0  0  0  0
    2.5389   -1.0684    0.0000 C   0  0  0  0  0  0  0  0  0  0  0  0
   -1.8723   -0.5669    0.0000 C   0  0  0  0  0  0  0  0  0  0  0  0
   -2.6385    0.8657    0.0000 C   0  0  0  0  0  0  0  0  0  0  0  0
    2.5079    0.3539    0.0000 O   0  0  0  0  0  0  0  0  0  0  0  0
    3.3496   -1.0547    0.0000 O   0  0  0  0  0  0  0  0  0  0  0  0
    3.3290    0.3676    0.0000 C   0  0  0  0  0  0  0  0  0  0  0  0
    0.8829   -1.0925    0.0000 C   0  0  0  0  0  0  0  0  0  0  0  0
    1.2952   -1.7899    0.0000 C   0  0  0  0  0  0  0  0  0  0  0  0
    2.1334   -1.8002    0.0000 C   0  0  0  0  0  0  0  0  0  0  0  0
   -2.7209    0.0447    0.0000 C   0  0  0  0  0  0  0  0  0  0  0  0
   -3.3084    1.3570    0.0000 C   0  0  0  0  0  0  0  0  0  0  0  0
    3.7653   -1.7624    0.0000 C   0  0  0  0  0  0  0  0  0  0  0  0
   -3.4836   -0.2886    0.0000 C   0  0  0  0  0  0  0  0  0  0  0  0
   -4.0573    1.0066    0.0000 C   0  0  0  0  0  0  0  0  0  0  0  0
   -4.1432    0.1924    0.0000 C   0  0  0  0  0  0  0  0  0  0  0  0
  2  1  1  0  0  0  0
  3  5  1  0  0  0  0
  4  2  1  0  0  0  0
  4  3  1  0  0  0  0
  5  1  1  0  0  0  0
  6  3  2  0  0  0  0
  7  1  2  0  0  0  0
  8  6  1  0  0  0  0
  9  8  1  0  0  0  0
 10 18  1  0  0  0  0
 11 10  3  0  0  0  0
 12  4  2  0  0  0  0
 13  9  2  0  0  0  0
 13 21  1  0  0  0  0
 14  2  1  0  0  0  0
 15  7  1  0  0  0  0
 16  9  1  0  0  0  0
 17 13  1  0  0  0  0
 18 16  1  0  0  0  0
 19  8  2  0  0  0  0
 20 19  1  0  0  0  0
 21 20  2  0  0  0  0
 22 15  1  0  0  0  0
 23 15  2  0  0  0  0
 24 17  1  0  0  0  0
 25 22  2  0  0  0  0
 25 27  1  0  0  0  0
 26 23  1  0  0  0  0
 27 26  2  0  0  0  0
M  END
> <CdId>
1817

> <Mol Weight>
378.444

> <Formula>
C21H18N2O3S

> <Click_ID>
CLK024_E02 __ __ 

$$$$
