CLK052F05
 OpenBabel03181417022D

 20 21  0  0  0  0  0  0  0  0999 V2000
    0.4542    0.0292    0.0000 N   0  0  0  0  0  0  0  0  0  0  0  0
   -0.2625    0.4417    0.0000 C   0  0  0  0  0  0  0  0  0  0  0  0
   -0.2625    1.2667    0.0000 N   0  0  0  0  0  0  0  0  0  0  0  0
    1.1667    0.4417    0.0000 C   0  0  0  0  0  0  0  0  0  0  0  0
    1.1667    1.2667    0.0000 C   0  0  0  0  0  0  0  0  0  0  0  0
    0.4542    1.6792    0.0000 C   0  0  0  0  0  0  0  0  0  0  0  0
   -0.9750    1.6792    0.0000 C   0  0  0  0  0  0  0  0  0  0  0  0
    1.8833    1.6792    0.0000 C   0  0  0  0  0  0  0  0  0  0  0  0
    0.4542   -0.7958    0.0000 C   0  0  0  0  0  0  0  0  0  0  0  0
   -1.8000    1.6792    0.0000 C   0  0  0  0  0  0  0  0  0  0  0  0
   -1.3875    2.3917    0.0000 C   0  0  0  0  0  0  0  0  0  0  0  0
    2.5958    2.0917    0.0000 N   0  0  0  0  0  0  0  0  0  0  0  0
   -0.9750   -3.2708    0.0000 C   0  0  0  0  0  0  0  0  0  0  0  0
   -0.9750    0.0292    0.0000 O   0  0  0  0  0  0  0  0  0  0  0  0
   -0.9750   -4.0958    0.0000 C   0  0  0  0  0  0  0  0  0  0  0  0
   -0.2625   -1.2083    0.0000 C   0  0  0  0  0  0  0  0  0  0  0  0
    1.8833    0.0292    0.0000 O   0  0  0  0  0  0  0  0  0  0  0  0
   -0.9750   -0.7958    0.0000 O   0  0  0  0  0  0  0  0  0  0  0  0
   -0.2625   -2.0333    0.0000 N   0  0  0  0  0  0  0  0  0  0  0  0
   -0.9750   -2.4458    0.0000 C   0  0  0  0  0  0  0  0  0  0  0  0
  2  1  1  0  0  0  0
  3  2  1  0  0  0  0
  4  1  1  0  0  0  0
  5  4  1  0  0  0  0
  6  3  1  0  0  0  0
  6  5  2  0  0  0  0
  7  3  1  0  0  0  0
  8  5  1  0  0  0  0
  9  1  1  0  0  0  0
 10  7  1  0  0  0  0
 10 11  1  0  0  0  0
 11  7  1  0  0  0  0
 12  8  3  0  0  0  0
 13 20  1  0  0  0  0
 14  2  2  0  0  0  0
 15 13  3  0  0  0  0
 16  9  1  0  0  0  0
 17  4  2  0  0  0  0
 18 16  2  0  0  0  0
 19 16  1  0  0  0  0
 20 19  1  0  0  0  0
M  END
> <CdId>
3998

> <Mol Weight>
272.2594

> <Formula>
C13H12N4O3

> <Click_ID>
CLK052F05 __ __ 

$$$$
