CLK027_B05
 OpenBabel03181417022D

 27 30  0  0  0  0  0  0  0  0999 V2000
    1.3955    0.2578    0.0000 C    0  0  0  0  0  0  0  0  0  0  0  0
    0.6634    1.4883    0.0000 C    0  0  0  0  0  0  0  0  0  0  0  0
    0.6771    0.6634    0.0000 C    0  0  3  0  0  0  0  0  0  0  0  0
    1.3749    1.8939    0.0000 C    0  0  0  0  0  0  0  0  0  0  0  0
    2.1071    0.6840    0.0000 C    0  0  0  0  0  0  0  0  0  0  0  0
    2.0933    1.5020    0.0000 N    0  0  0  0  0  0  0  0  0  0  0  0
   -0.0378    0.2440    0.0000 C    0  0  0  0  0  0  0  0  0  0  0  0
   -0.0516    1.8870    0.0000 C    0  0  0  0  0  0  0  0  0  0  0  0
    1.4092   -0.5465    0.0000 C    0  0  0  0  0  0  0  0  0  0  0  0
   -0.0138   -0.5809    0.0000 C    0  0  0  0  0  0  0  0  0  0  0  0
   -2.8426   -2.2892    0.0000 C    0  0  0  0  0  0  0  0  0  0  0  0
   -0.7150   -1.0105    0.0000 C    0  0  0  0  0  0  0  0  0  0  0  0
   -2.8323   -3.1141    0.0000 C    0  0  0  0  0  0  0  0  0  0  0  0
   -0.7528    0.6428    0.0000 C    0  0  0  0  0  0  0  0  0  0  0  0
   -1.4299   -0.6015    0.0000 C    0  0  0  0  0  0  0  0  0  0  0  0
   -0.7665    1.4677    0.0000 O    0  0  0  0  0  0  0  0  0  0  0  0
    0.6909   -0.9865    0.0000 O    0  0  0  0  0  0  0  0  0  0  0  0
   -1.4539    0.2234    0.0000 C    0  0  0  0  0  0  0  0  0  0  0  0
    1.3749    2.7394    0.0000 C    0  0  0  0  0  0  0  0  0  0  0  0
    2.8254    0.2784    0.0000 C    0  0  0  0  0  0  0  0  0  0  0  0
   -0.7115   -1.8320    0.0000 Br   0  0  0  0  0  0  0  0  0  0  0  0
   -2.1448   -1.0277    0.0000 O    0  0  0  0  0  0  0  0  0  0  0  0
   -2.1277   -1.8526    0.0000 C    0  0  0  0  0  0  0  0  0  0  0  0
   -0.0550    2.7154    0.0000 C    0  0  0  0  0  0  0  0  0  0  0  0
    2.1311   -0.9693    0.0000 C    0  0  0  0  0  0  0  0  0  0  0  0
    0.6462    3.1176    0.0000 C    0  0  0  0  0  0  0  0  0  0  0  0
    2.8392   -0.5465    0.0000 C    0  0  0  0  0  0  0  0  0  0  0  0
  2  3  1  0  0  0  0
  3  1  1  0  0  0  0
  4  6  1  0  0  0  0
  4  2  2  0  0  0  0
  5  1  2  0  0  0  0
  6  5  1  0  0  0  0
  7  3  1  0  0  0  0
  8  2  1  0  0  0  0
  9  1  1  0  0  0  0
 10  7  2  0  0  0  0
 11 23  1  0  0  0  0
 12 10  1  0  0  0  0
 13 11  3  0  0  0  0
 14  7  1  0  0  0  0
 15 18  1  0  0  0  0
 15 12  2  0  0  0  0
 16  8  2  0  0  0  0
 17  9  2  0  0  0  0
 18 14  2  0  0  0  0
 19  4  1  0  0  0  0
 20  5  1  0  0  0  0
 20 27  1  0  0  0  0
 21 12  1  0  0  0  0
 22 15  1  0  0  0  0
 23 22  1  0  0  0  0
 24  8  1  0  0  0  0
 24 26  1  0  0  0  0
 25  9  1  0  0  0  0
 26 19  1  0  0  0  0
 27 25  1  0  0  0  0
M  END
> <CdId>
2029

> <Mol Weight>
426.303

> <Formula>
C22H20BrNO3

> <Click_ID>
CLK027_B05 __ __ 

$$$$
