CLK048G03
 OpenBabel03181417022D

 16 17  0  0  0  0  0  0  0  0999 V2000
    0.4958    0.3042    0.0000 C   0  0  0  0  0  0  0  0  0  0  0  0
    0.9792    0.9708    0.0000 C   0  0  0  0  0  0  0  0  0  0  0  0
    0.4958    1.6417    0.0000 N   0  0  0  0  0  0  0  0  0  0  0  0
   -0.2875    0.5583    0.0000 C   0  0  0  0  0  0  0  0  0  0  0  0
    0.7500   -0.4792    0.0000 C   0  0  0  0  0  0  0  0  0  0  0  0
   -0.2875    1.3833    0.0000 C   0  0  0  0  0  0  0  0  0  0  0  0
   -0.1000   -2.4917    0.0000 C   0  0  0  0  0  0  0  0  0  0  0  0
   -0.6500   -3.1042    0.0000 C   0  0  0  0  0  0  0  0  0  0  0  0
    1.5583   -0.6500    0.0000 O   0  0  0  0  0  0  0  0  0  0  0  0
    0.2000   -1.0917    0.0000 N   0  0  0  0  0  0  0  0  0  0  0  0
    1.8042    0.9708    0.0000 C   0  0  0  0  0  0  0  0  0  0  0  0
    0.4542   -1.8792    0.0000 C   0  0  0  0  0  0  0  0  0  0  0  0
   -1.0042    0.1458    0.0000 C   0  0  0  0  0  0  0  0  0  0  0  0
   -1.0042    1.7958    0.0000 C   0  0  0  0  0  0  0  0  0  0  0  0
   -1.7167    0.5583    0.0000 C   0  0  0  0  0  0  0  0  0  0  0  0
   -1.7167    1.3833    0.0000 C   0  0  0  0  0  0  0  0  0  0  0  0
  2  1  2  0  0  0  0
  3  2  1  0  0  0  0
  4  1  1  0  0  0  0
  5  1  1  0  0  0  0
  6  4  2  0  0  0  0
  6  3  1  0  0  0  0
  7 12  1  0  0  0  0
  8  7  3  0  0  0  0
  9  5  2  0  0  0  0
 10  5  1  0  0  0  0
 11  2  1  0  0  0  0
 12 10  1  0  0  0  0
 13  4  1  0  0  0  0
 14  6  1  0  0  0  0
 15 13  2  0  0  0  0
 15 16  1  0  0  0  0
 16 14  2  0  0  0  0
M  END
> <CdId>
3663

> <Mol Weight>
212.2472

> <Formula>
C13H12N2O

> <Click_ID>
CLK048G03 __ __ 

$$$$
