CLK021_F10
 OpenBabel03181417022D

 21 21  0  0  0  0  0  0  0  0999 V2000
    3.8204    1.8369    0.0000 S   0  0  0  0  0  0  0  0  0  0  0  0
    4.5350    2.2491    0.0000 C   0  0  0  0  0  0  0  0  0  0  0  0
    3.2341    2.4278    0.0000 N   0  0  0  0  0  0  0  0  0  0  0  0
    5.2496    1.8369    0.0000 C   0  0  0  0  0  0  0  0  0  0  0  0
    2.0247    2.9225    0.0000 C   0  0  0  0  0  0  0  0  0  0  0  0
    3.1882    1.3055    0.0000 O   0  0  0  0  0  0  0  0  0  0  0  0
    4.2922    1.1635    0.0000 O   0  0  0  0  0  0  0  0  0  0  0  0
    5.9642    2.2491    0.0000 C   0  0  0  0  0  0  0  0  0  0  0  0
    1.6125    3.6371    0.0000 C   0  0  0  0  0  0  0  0  0  0  0  0
    2.4370    2.2079    0.0000 C   0  0  0  0  0  0  0  0  0  0  0  0
    5.9642    3.0737    0.0000 C   0  0  0  0  0  0  0  0  0  0  0  0
    4.5350    3.0737    0.0000 C   0  0  0  0  0  0  0  0  0  0  0  0
    5.2496    3.4859    0.0000 C   0  0  0  0  0  0  0  0  0  0  0  0
    6.6788    1.8369    0.0000 O   0  0  0  0  0  0  0  0  0  0  0  0
    6.6788    3.4859    0.0000 O   0  0  0  0  0  0  0  0  0  0  0  0
    1.6949    1.8552    0.0000 C   0  0  0  0  0  0  0  0  0  0  0  0
    2.7256    1.4292    0.0000 C   0  0  0  0  0  0  0  0  0  0  0  0
    6.6788    1.0123    0.0000 C   0  0  0  0  0  0  0  0  0  0  0  0
    6.6788    4.3105    0.0000 C   0  0  0  0  0  0  0  0  0  0  0  0
    2.1897    0.7971    0.0000 C   0  0  0  0  0  0  0  0  0  0  0  0
    1.0169    2.3316    0.0000 C   0  0  0  0  0  0  0  0  0  0  0  0
  2  1  1  0  0  0  0
  3  1  1  0  0  0  0
  4  2  1  0  0  0  0
  5 10  1  0  0  0  0
  6  1  2  0  0  0  0
  7  1  2  0  0  0  0
  8  4  2  0  0  0  0
  9  5  3  0  0  0  0
 10  3  1  0  0  0  0
 11 13  2  0  0  0  0
 11  8  1  0  0  0  0
 12  2  2  0  0  0  0
 13 12  1  0  0  0  0
 14  8  1  0  0  0  0
 15 11  1  0  0  0  0
 16 10  1  0  0  0  0
 17 10  1  0  0  0  0
 18 14  1  0  0  0  0
 19 15  1  0  0  0  0
 20 17  1  0  0  0  0
 21 16  1  0  0  0  0
M  END
> <CdId>
1615

> <Mol Weight>
311.397

> <Formula>
C15H21NO4S

> <Click_ID>
CLK021_F10 __ __ 

$$$$
