CLK051G11
 OpenBabel03181417022D

 17 18  0  0  0  0  0  0  0  0999 V2000
   -1.0830    1.4038    0.0000 N   0  0  0  0  0  0  0  0  0  0  0  0
    0.3457   -1.0705    0.0000 C   0  0  0  0  0  0  0  0  0  0  0  0
   -0.3707    0.9914    0.0000 C   0  0  0  0  0  0  0  0  0  0  0  0
    1.7745   -2.7201    0.0000 C   0  0  0  0  0  0  0  0  0  0  0  0
    0.3457   -0.2457    0.0000 C   0  0  0  0  0  0  0  0  0  0  0  0
    2.4868   -3.1324    0.0000 C   0  0  0  0  0  0  0  0  0  0  0  0
   -0.3707    0.1667    0.0000 C   0  0  0  0  0  0  0  0  0  0  0  0
   -1.1705    2.2244    0.0000 C   0  0  0  0  0  0  0  0  0  0  0  0
   -1.8370    1.0664    0.0000 C   0  0  0  0  0  0  0  0  0  0  0  0
   -0.3707   -1.4829    0.0000 O   0  0  0  0  0  0  0  0  0  0  0  0
   -2.3910    1.6787    0.0000 C   0  0  0  0  0  0  0  0  0  0  0  0
   -1.9787    2.3951    0.0000 C   0  0  0  0  0  0  0  0  0  0  0  0
    1.0580   -1.4829    0.0000 N   0  0  0  0  0  0  0  0  0  0  0  0
    1.0580   -2.3077    0.0000 C   0  0  0  0  0  0  0  0  0  0  0  0
    0.3457    1.4038    0.0000 C   0  0  0  0  0  0  0  0  0  0  0  0
    1.0580    0.1667    0.0000 C   0  0  0  0  0  0  0  0  0  0  0  0
    1.0580    0.9914    0.0000 C   0  0  0  0  0  0  0  0  0  0  0  0
  2  5  1  0  0  0  0
  3  1  1  0  0  0  0
  4 14  1  0  0  0  0
  5  7  2  0  0  0  0
  6  4  3  0  0  0  0
  7  3  1  0  0  0  0
  8  1  1  0  0  0  0
  9  1  1  0  0  0  0
 10  2  2  0  0  0  0
 11  9  2  0  0  0  0
 11 12  1  0  0  0  0
 12  8  2  0  0  0  0
 13  2  1  0  0  0  0
 14 13  1  0  0  0  0
 15  3  2  0  0  0  0
 16  5  1  0  0  0  0
 17 15  1  0  0  0  0
 17 16  2  0  0  0  0
M  END
> <CdId>
3967

> <Mol Weight>
224.2579

> <Formula>
C14H12N2O

> <Click_ID>
CLK051G11 __ __ 

$$$$
