CLK041E10
 OpenBabel03181417022D

 22 22  0  0  0  0  0  0  0  0999 V2000
    0.5839    0.6006    0.0000 N   0  0  0  0  0  0  0  0  0  0  0  0
   -0.1334    1.0135    0.0000 C   0  0  0  0  0  0  0  0  0  0  0  0
    1.2971    1.0135    0.0000 C   0  0  0  0  0  0  0  0  0  0  0  0
    1.2971    1.8394    0.0000 C   0  0  0  0  0  0  0  0  0  0  0  0
   -0.1334    1.8394    0.0000 N   0  0  0  0  0  0  0  0  0  0  0  0
    0.5839    2.2523    0.0000 C   0  0  0  0  0  0  0  0  0  0  0  0
    0.5839   -0.2210    0.0000 C   0  0  0  0  0  0  0  0  0  0  0  0
    2.0146    2.2523    0.0000 C   0  0  0  0  0  0  0  0  0  0  0  0
   -0.1334   -0.6382    0.0000 C   0  0  0  0  0  0  0  0  0  0  0  0
    2.7278    2.6653    0.0000 N   0  0  0  0  0  0  0  0  0  0  0  0
   -1.5641   -2.2899    0.0000 C   0  0  0  0  0  0  0  0  0  0  0  0
   -2.2774   -2.7028    0.0000 C   0  0  0  0  0  0  0  0  0  0  0  0
   -0.8467    0.6006    0.0000 O   0  0  0  0  0  0  0  0  0  0  0  0
   -0.1334   -1.4640    0.0000 N   0  0  0  0  0  0  0  0  0  0  0  0
    2.0146    0.6006    0.0000 O   0  0  0  0  0  0  0  0  0  0  0  0
   -0.8467   -1.8769    0.0000 C   0  0  0  0  0  0  0  0  0  0  0  0
   -0.8467   -0.2210    0.0000 O   0  0  0  0  0  0  0  0  0  0  0  0
   -0.8467    2.2523    0.0000 C   0  0  0  0  0  0  0  0  0  0  0  0
   -1.2596   -1.1595    0.0000 C   0  0  0  0  0  0  0  0  0  0  0  0
   -0.4337   -2.5902    0.0000 C   0  0  0  0  0  0  0  0  0  0  0  0
   -0.8467   -0.4463    0.0000 C   0  0  0  0  0  0  0  0  0  0  0  0
   -0.8467   -3.3034    0.0000 C   0  0  0  0  0  0  0  0  0  0  0  0
  2  1  1  0  0  0  0
  3  1  1  0  0  0  0
  4  3  1  0  0  0  0
  5  2  1  0  0  0  0
  6  5  1  0  0  0  0
  6  4  2  0  0  0  0
  7  1  1  0  0  0  0
  8  4  1  0  0  0  0
  9  7  1  0  0  0  0
 10  8  3  0  0  0  0
 11 16  1  0  0  0  0
 12 11  3  0  0  0  0
 13  2  2  0  0  0  0
 14  9  1  0  0  0  0
 15  3  2  0  0  0  0
 16 14  1  0  0  0  0
 17  9  2  0  0  0  0
 18  5  1  0  0  0  0
 19 16  1  0  0  0  0
 20 16  1  0  0  0  0
 21 19  1  0  0  0  0
 22 20  1  0  0  0  0
M  END
> <CdId>
3157

> <Mol Weight>
302.3284

> <Formula>
C15H18N4O3

> <Click_ID>
CLK041E10 __ __ 

$$$$
