CLK002_G08
 OpenBabel03181417022D

 15 16  0  0  0  0  0  0  0  0999 V2000
   -1.1434   -0.0848    0.0000 C   0  0  0  0  0  0  0  0  0  0  0  0
   -1.1434    0.7485    0.0000 C   0  0  0  0  0  0  0  0  0  0  0  0
   -0.4280   -0.4983    0.0000 N   0  0  0  0  0  0  0  0  0  0  0  0
   -1.9456   -0.3184    0.0000 C   0  0  0  0  0  0  0  0  0  0  0  0
   -0.4280    1.1558    0.0000 C   0  0  0  0  0  0  0  0  0  0  0  0
   -1.8981    1.0193    0.0000 C   0  0  0  0  0  0  0  0  0  0  0  0
    0.2833   -0.0848    0.0000 C   0  0  0  0  0  0  0  0  0  0  0  0
   -2.4150    0.3598    0.0000 C   0  0  0  0  0  0  0  0  0  0  0  0
    0.2833    0.7402    0.0000 C   0  0  0  0  0  0  0  0  0  0  0  0
    1.0028   -0.5045    0.0000 S   0  0  0  0  0  0  0  0  0  0  0  0
    0.9986    1.1558    0.0000 C   0  0  0  0  0  0  0  0  0  0  0  0
    0.9986   -1.3377    0.0000 C   0  0  0  0  0  0  0  0  0  0  0  0
    1.7058    1.5714    0.0000 N   0  0  0  0  0  0  0  0  0  0  0  0
    1.7058   -1.7513    0.0000 C   0  0  0  0  0  0  0  0  0  0  0  0
    2.4191   -2.1669    0.0000 C   0  0  0  0  0  0  0  0  0  0  0  0
  1  2  1  0  0  0  0
  1  3  2  0  0  0  0
  1  4  1  0  0  0  0
  2  5  2  0  0  0  0
  2  6  1  0  0  0  0
  3  7  1  0  0  0  0
  4  8  1  0  0  0  0
  5  9  1  0  0  0  0
  6  8  1  0  0  0  0
  7 10  1  0  0  0  0
  7  9  2  0  0  0  0
  9 11  1  0  0  0  0
 10 12  1  0  0  0  0
 11 13  3  0  0  0  0
 12 14  1  0  0  0  0
 14 15  3  0  0  0  0
M  END
> <CdId>
147

> <Mol Weight>
214.286

> <Formula>
C12H10N2S

> <Click_ID>
CLK002_G08 __ __ 

$$$$
