CLK037G06
 OpenBabel03181417022D

 26 26  0  0  0  0  0  0  0  0999 V2000
    4.9917    0.3583    0.0000 C   0  0  0  0  0  0  0  0  0  0  0  0
    4.5792   -0.3542    0.0000 C   0  0  0  0  0  0  0  0  0  0  0  0
   -0.7542    3.3208    0.0000 C   0  0  0  0  0  0  0  0  0  0  0  0
   -1.4667    3.7333    0.0000 C   0  0  0  0  0  0  0  0  0  0  0  0
    0.6750    0.8458    0.0000 C   0  0  0  0  0  0  0  0  0  0  0  0
    5.8167    0.3583    0.0000 O   0  0  0  0  0  0  0  0  0  0  0  0
    4.9917   -1.0708    0.0000 O   0  0  0  0  0  0  0  0  0  0  0  0
    0.6750    1.6708    0.0000 C   0  0  0  0  0  0  0  0  0  0  0  0
   -0.0375   -0.3917    0.0000 N   0  0  0  0  0  0  0  0  0  0  0  0
    4.5792    1.0750    0.0000 O   0  0  0  0  0  0  0  0  0  0  0  0
    3.7542   -0.3542    0.0000 O   0  0  0  0  0  0  0  0  0  0  0  0
   -0.7542   -1.6292    0.0000 C   0  0  0  0  0  0  0  0  0  0  0  0
   -0.7542   -3.2792    0.0000 C   0  0  0  0  0  0  0  0  0  0  0  0
   -0.0375    0.4333    0.0000 C   0  0  0  0  0  0  0  0  0  0  0  0
   -0.0375    2.0833    0.0000 O   0  0  0  0  0  0  0  0  0  0  0  0
   -0.0375   -2.8667    0.0000 C   0  0  0  0  0  0  0  0  0  0  0  0
   -1.4667   -2.8667    0.0000 C   0  0  0  0  0  0  0  0  0  0  0  0
   -1.4667   -2.0417    0.0000 C   0  0  0  0  0  0  0  0  0  0  0  0
   -0.0375   -2.0417    0.0000 C   0  0  0  0  0  0  0  0  0  0  0  0
   -0.0375    2.9083    0.0000 C   0  0  0  0  0  0  0  0  0  0  0  0
   -0.7542   -0.8042    0.0000 C   0  0  0  0  0  0  0  0  0  0  0  0
    1.3917    0.4333    0.0000 C   0  0  0  0  0  0  0  0  0  0  0  0
    1.3917    2.0833    0.0000 C   0  0  0  0  0  0  0  0  0  0  0  0
   -0.7542   -4.1042    0.0000 C   0  0  0  0  0  0  0  0  0  0  0  0
    2.1042    0.8458    0.0000 C   0  0  0  0  0  0  0  0  0  0  0  0
    2.1042    1.6708    0.0000 C   0  0  0  0  0  0  0  0  0  0  0  0
  2  1  1  0  0  0  0
  4  3  3  0  0  0  0
  5  8  2  0  0  0  0
  6  1  2  0  0  0  0
  7  2  2  0  0  0  0
  8 15  1  0  0  0  0
  9 14  1  0  0  0  0
 10  1  1  0  0  0  0
 11  2  1  0  0  0  0
 12 21  1  0  0  0  0
 13 16  1  0  0  0  0
 14  5  1  0  0  0  0
 15 20  1  0  0  0  0
 16 19  2  0  0  0  0
 17 18  1  0  0  0  0
 17 13  2  0  0  0  0
 18 12  2  0  0  0  0
 19 12  1  0  0  0  0
 20  3  1  0  0  0  0
 21  9  1  0  0  0  0
 22  5  1  0  0  0  0
 23  8  1  0  0  0  0
 24 13  1  0  0  0  0
 25 22  2  0  0  0  0
 26 23  2  0  0  0  0
 26 25  1  0  0  0  0
M  END
> <CdId>
2807

> <Mol Weight>
355.3844

> <Formula>
C20H21NO5

> <Click_ID>
CLK037G06 __ __ 

$$$$
