CLK037A03
 OpenBabel03181417022D

 19 19  0  0  0  0  0  0  0  0999 V2000
    0.8250   -2.6458    0.0000 C    0  0  0  0  0  0  0  0  0  0  0  0
    0.8250   -3.4708    0.0000 C    0  0  0  0  0  0  0  0  0  0  0  0
    0.1125   -0.5833    0.0000 C    0  0  0  0  0  0  0  0  0  0  0  0
    0.8250   -0.9958    0.0000 N    0  0  0  0  0  0  0  0  0  0  0  0
    0.8250   -1.8208    0.0000 C    0  0  0  0  0  0  0  0  0  0  0  0
   -0.6042   -0.9958    0.0000 O    0  0  0  0  0  0  0  0  0  0  0  0
   -1.3167    1.8917    0.0000 C    0  0  0  0  0  0  0  0  0  0  0  0
   -0.6042    0.6542    0.0000 O    0  0  0  0  0  0  0  0  0  0  0  0
    0.1125    0.2417    0.0000 C    0  0  0  0  0  0  0  0  0  0  0  0
   -0.6042    1.4792    0.0000 C    0  0  0  0  0  0  0  0  0  0  0  0
   -1.3167    2.7167    0.0000 C    0  0  0  0  0  0  0  0  0  0  0  0
   -2.0333    3.1292    0.0000 Br   0  0  0  0  0  0  0  0  0  0  0  0
    0.1125    2.7167    0.0000 C    0  0  0  0  0  0  0  0  0  0  0  0
    1.6500   -1.8208    0.0000 C    0  0  0  0  0  0  0  0  0  0  0  0
    0.0000   -1.8208    0.0000 C    0  0  0  0  0  0  0  0  0  0  0  0
    0.1125    1.8917    0.0000 C    0  0  0  0  0  0  0  0  0  0  0  0
   -0.6042    3.1292    0.0000 C    0  0  0  0  0  0  0  0  0  0  0  0
    2.0625   -2.5375    0.0000 C    0  0  0  0  0  0  0  0  0  0  0  0
   -0.4125   -1.1083    0.0000 C    0  0  0  0  0  0  0  0  0  0  0  0
  2  1  3  0  0  0  0
  3  4  1  0  0  0  0
  4  5  1  0  0  0  0
  5  1  1  0  0  0  0
  6  3  2  0  0  0  0
  7 10  2  0  0  0  0
  8  9  1  0  0  0  0
  9  3  1  0  0  0  0
 10  8  1  0  0  0  0
 11  7  1  0  0  0  0
 12 11  1  0  0  0  0
 13 16  2  0  0  0  0
 14  5  1  0  0  0  0
 15  5  1  0  0  0  0
 16 10  1  0  0  0  0
 17 11  2  0  0  0  0
 17 13  1  0  0  0  0
 18 14  1  0  0  0  0
 19 15  1  0  0  0  0
M  END
> <CdId>
2777

> <Mol Weight>
324.213

> <Formula>
C15H18BrNO2

> <Click_ID>
CLK037A03 __ __ 

$$$$
