CLK002_A11
 OpenBabel03181417022D

 24 27  0  0  0  0  0  0  0  0999 V2000
   -0.8823    0.2047    0.0000 C   0  0  0  0  0  0  0  0  0  0  0  0
   -2.2963    0.2047    0.0000 C   0  0  0  0  0  0  0  0  0  0  0  0
   -0.8823   -0.6070    0.0000 C   0  0  0  0  0  0  0  0  0  0  0  0
   -0.1741    0.5999    0.0000 C   0  0  0  0  0  0  0  0  0  0  0  0
   -2.2963   -0.6070    0.0000 C   0  0  0  0  0  0  0  0  0  0  0  0
   -2.9927    0.5999    0.0000 C   0  0  0  0  0  0  0  0  0  0  0  0
   -0.1741   -1.0046    0.0000 N   0  0  0  0  0  0  0  0  0  0  0  0
   -1.5928   -1.0046    0.0000 S   0  0  0  0  0  0  0  0  0  0  0  0
    0.5082    0.2047    0.0000 N   0  0  0  0  0  0  0  0  0  0  0  0
   -0.1741    1.4446    0.0000 O   0  0  0  0  0  0  0  0  0  0  0  0
   -2.9927   -1.0046    0.0000 C   0  0  0  0  0  0  0  0  0  0  0  0
   -3.6938    0.2047    0.0000 C   0  0  0  0  0  0  0  0  0  0  0  0
    0.5082   -0.6070    0.0000 C   0  0  0  0  0  0  0  0  0  0  0  0
    1.1905    0.5999    0.0000 C   0  0  0  0  0  0  0  0  0  0  0  0
   -3.6938   -0.6070    0.0000 C   0  0  0  0  0  0  0  0  0  0  0  0
    1.2376   -1.0305    0.0000 S   0  0  0  0  0  0  0  0  0  0  0  0
    1.1905    1.4399    0.0000 C   0  0  0  0  0  0  0  0  0  0  0  0
    1.9199    0.1764    0.0000 C   0  0  0  0  0  0  0  0  0  0  0  0
    1.9622   -0.6141    0.0000 C   0  0  0  0  0  0  0  0  0  0  0  0
    1.9199    1.8681    0.0000 C   0  0  0  0  0  0  0  0  0  0  0  0
    2.6515    0.5999    0.0000 C   0  0  0  0  0  0  0  0  0  0  0  0
    2.6845   -1.0376    0.0000 C   0  0  0  0  0  0  0  0  0  0  0  0
    2.6515    1.4446    0.0000 C   0  0  0  0  0  0  0  0  0  0  0  0
    3.4162   -1.4611    0.0000 C   0  0  0  0  0  0  0  0  0  0  0  0
  1  2  1  0  0  0  0
  1  3  2  0  0  0  0
  1  4  1  0  0  0  0
  2  5  2  0  0  0  0
  2  6  1  0  0  0  0
  3  7  1  0  0  0  0
  3  8  1  0  0  0  0
  4  9  1  0  0  0  0
  4 10  2  0  0  0  0
  5 11  1  0  0  0  0
  5  8  1  0  0  0  0
  6 12  1  0  0  0  0
  7 13  2  0  0  0  0
  9 14  1  0  0  0  0
  9 13  1  0  0  0  0
 11 15  1  0  0  0  0
 12 15  1  0  0  0  0
 13 16  1  0  0  0  0
 14 17  1  0  0  0  0
 14 18  2  0  0  0  0
 16 19  1  0  0  0  0
 17 20  2  0  0  0  0
 18 21  1  0  0  0  0
 19 22  1  0  0  0  0
 20 23  1  0  0  0  0
 21 23  2  0  0  0  0
 22 24  3  0  0  0  0
M  END
> <CdId>
90

> <Mol Weight>
352.473

> <Formula>
C19H16N2OS2

> <Click_ID>
CLK002_A11 __ __ 

$$$$
