CLK037A10
 OpenBabel03181417022D

 14 14  0  0  0  0  0  0  0  0999 V2000
    0.4583    0.0917    0.0000 C   0  0  0  0  0  0  0  0  0  0  0  0
   -0.2583   -0.3208    0.0000 C   0  0  0  0  0  0  0  0  0  0  0  0
   -0.2583   -1.1458    0.0000 N   0  0  0  0  0  0  0  0  0  0  0  0
    1.1708   -0.3208    0.0000 C   0  0  0  0  0  0  0  0  0  0  0  0
    0.4583    0.9167    0.0000 C   0  0  0  0  0  0  0  0  0  0  0  0
    0.4583    1.7417    0.0000 N   0  0  0  0  0  0  0  0  0  0  0  0
   -1.6875    1.3292    0.0000 C   0  0  0  0  0  0  0  0  0  0  0  0
   -2.4000    1.7417    0.0000 C   0  0  0  0  0  0  0  0  0  0  0  0
    0.4583   -1.5583    0.0000 C   0  0  0  0  0  0  0  0  0  0  0  0
    1.1708   -1.1458    0.0000 C   0  0  0  0  0  0  0  0  0  0  0  0
   -0.9708    0.0917    0.0000 S   0  0  0  0  0  0  0  0  0  0  0  0
   -0.9708    0.9167    0.0000 C   0  0  0  0  0  0  0  0  0  0  0  0
    1.8875    0.0917    0.0000 C   0  0  0  0  0  0  0  0  0  0  0  0
    0.4583   -2.3833    0.0000 C   0  0  0  0  0  0  0  0  0  0  0  0
  2  1  2  0  0  0  0
  3  2  1  0  0  0  0
  4  1  1  0  0  0  0
  5  1  1  0  0  0  0
  6  5  3  0  0  0  0
  7 12  1  0  0  0  0
  8  7  3  0  0  0  0
  9  3  2  0  0  0  0
 10  4  2  0  0  0  0
 10  9  1  0  0  0  0
 11  2  1  0  0  0  0
 12 11  1  0  0  0  0
 13  4  1  0  0  0  0
 14  9  1  0  0  0  0
M  END
> <CdId>
2833

> <Mol Weight>
202.276

> <Formula>
C11H10N2S

> <Click_ID>
CLK037A10 __ __ 

$$$$
