CLK025_D02
 OpenBabel03181417022D

 23 25  0  0  0  0  0  0  0  0999 V2000
   -0.9247   -1.0175    0.0000 C    0  0  0  0  0  0  0  0  0  0  0  0
   -1.4060   -0.3472    0.0000 N    0  0  0  0  0  0  0  0  0  0  0  0
   -1.4060   -1.6809    0.0000 S    0  0  0  0  0  0  0  0  0  0  0  0
   -2.1931   -0.5981    0.0000 C    0  0  0  0  0  0  0  0  0  0  0  0
    1.5537    0.4022    0.0000 C    0  0  0  0  0  0  0  0  0  0  0  0
   -2.1931   -1.4231    0.0000 C    0  0  0  0  0  0  0  0  0  0  0  0
   -0.9247    1.8391    0.0000 C    0  0  0  0  0  0  0  0  0  0  0  0
   -1.7497    1.8391    0.0000 C    0  0  0  0  0  0  0  0  0  0  0  0
    0.3128   -0.3094    0.0000 N    0  0  0  0  0  0  0  0  0  0  0  0
   -0.0997   -1.0209    0.0000 N    0  0  0  0  0  0  0  0  0  0  0  0
    1.1412    1.1172    0.0000 C    0  0  0  0  0  0  0  0  0  0  0  0
    2.3787    0.4022    0.0000 C    0  0  0  0  0  0  0  0  0  0  0  0
    1.1412   -0.3094    0.0000 C    0  0  0  0  0  0  0  0  0  0  0  0
    1.5537    1.8391    0.0000 C    0  0  0  0  0  0  0  0  0  0  0  0
    2.7878    1.1138    0.0000 C    0  0  0  0  0  0  0  0  0  0  0  0
    2.3787    1.8391    0.0000 C    0  0  0  0  0  0  0  0  0  0  0  0
    3.6128    1.1034    0.0000 Br   0  0  0  0  0  0  0  0  0  0  0  0
    0.3162    1.1172    0.0000 O    0  0  0  0  0  0  0  0  0  0  0  0
   -0.0963    1.8391    0.0000 C    0  0  0  0  0  0  0  0  0  0  0  0
   -2.9047   -0.1856    0.0000 C    0  0  0  0  0  0  0  0  0  0  0  0
   -2.9047   -1.8356    0.0000 C    0  0  0  0  0  0  0  0  0  0  0  0
   -3.6162   -1.4231    0.0000 C    0  0  0  0  0  0  0  0  0  0  0  0
   -3.6162   -0.5981    0.0000 C    0  0  0  0  0  0  0  0  0  0  0  0
  2  1  2  0  0  0  0
  3  1  1  0  0  0  0
  4  2  1  0  0  0  0
  5 13  1  0  0  0  0
  6  3  1  0  0  0  0
  6  4  1  0  0  0  0
  7 19  1  0  0  0  0
  8  7  3  0  0  0  0
  9 10  1  0  0  0  0
 10  1  1  0  0  0  0
 11  5  2  0  0  0  0
 12  5  1  0  0  0  0
 13  9  2  0  0  0  0
 14 11  1  0  0  0  0
 14 16  2  0  0  0  0
 15 12  2  0  0  0  0
 16 15  1  0  0  0  0
 17 15  1  0  0  0  0
 18 11  1  0  0  0  0
 19 18  1  0  0  0  0
 20  4  2  0  0  0  0
 21  6  2  0  0  0  0
 22 21  1  0  0  0  0
 22 23  2  0  0  0  0
 23 20  1  0  0  0  0
M  END
> <CdId>
1887

> <Mol Weight>
386.266

> <Formula>
C17H12BrN3OS

> <Click_ID>
CLK025_D02 __ __ 

$$$$
