CLK007_G03
 OpenBabel03181417022D

 33 37  0  0  0  0  0  0  0  0999 V2000
   -0.1138    0.6344    0.0000 C    0  0  3  0  0  0  0  0  0  0  0  0
   -0.8344    0.2207    0.0000 C    0  0  0  0  0  0  0  0  0  0  0  0
    0.6792    0.8447    0.0000 C    0  0  0  0  0  0  0  0  0  0  0  0
    0.5896    0.2138    0.0000 C    0  0  0  0  0  0  0  0  0  0  0  0
   -0.5724    1.3206    0.0000 C    0  0  0  0  0  0  0  0  0  0  0  0
   -0.8344   -0.6033    0.0000 C    0  0  0  0  0  0  0  0  0  0  0  0
   -1.5482    0.6344    0.0000 C    0  0  0  0  0  0  0  0  0  0  0  0
    0.7137    1.6723    0.0000 C    0  0  0  0  0  0  0  0  0  0  0  0
    1.3654    0.4103    0.0000 C    0  0  0  0  0  0  0  0  0  0  0  0
    0.5896   -0.6137    0.0000 C    0  0  0  0  0  0  0  0  0  0  0  0
    1.3033   -0.1897    0.0000 C    0  0  0  0  0  0  0  0  0  0  0  0
   -0.0517    1.9722    0.0000 N    0  0  0  0  0  0  0  0  0  0  0  0
   -1.1585    1.9136    0.0000 O    0  0  0  0  0  0  0  0  0  0  0  0
   -0.1207   -1.0171    0.0000 N    0  0  0  0  0  0  0  0  0  0  0  0
   -1.5482   -1.0171    0.0000 C    0  0  0  0  0  0  0  0  0  0  0  0
   -2.2515    0.2207    0.0000 C    0  0  0  0  0  0  0  0  0  0  0  0
   -2.1343    1.2206    0.0000 O    0  0  0  0  0  0  0  0  0  0  0  0
    1.4516    2.0584    0.0000 C    0  0  0  0  0  0  0  0  0  0  0  0
    2.1032    0.7827    0.0000 C    0  0  0  0  0  0  0  0  0  0  0  0
    1.3033   -1.0275    0.0000 N    0  0  0  0  0  0  0  0  0  0  0  0
    2.0136   -0.6033    0.0000 N    0  0  0  0  0  0  0  0  0  0  0  0
   -0.2724    2.7619    0.0000 C    0  0  0  0  0  0  0  0  0  0  0  0
   -0.1345   -1.8412    0.0000 C    0  0  0  0  0  0  0  0  0  0  0  0
   -2.2515   -0.6033    0.0000 C    0  0  0  0  0  0  0  0  0  0  0  0
    2.1412    1.6102    0.0000 C    0  0  0  0  0  0  0  0  0  0  0  0
    0.3103    3.3445    0.0000 C    0  0  0  0  0  0  0  0  0  0  0  0
   -0.8482   -2.2481    0.0000 C    0  0  0  0  0  0  0  0  0  0  0  0
    0.5793   -2.2550    0.0000 N    0  0  0  0  0  0  0  0  0  0  0  0
    0.0897    4.1444    0.0000 C    0  0  0  0  0  0  0  0  0  0  0  0
   -0.8516   -3.0756    0.0000 C    0  0  0  0  0  0  0  0  0  0  0  0
    0.5793   -3.0790    0.0000 C    0  0  0  0  0  0  0  0  0  0  0  0
   -0.1379   -3.4894    0.0000 C    0  0  0  0  0  0  0  0  0  0  0  0
   -0.1483   -4.3168    0.0000 Cl   0  0  0  0  0  0  0  0  0  0  0  0
  1  2  1  0  0  0  0
  1  3  1  0  0  0  0
  1  4  1  0  0  0  0
  1  5  1  0  0  0  0
  2  6  2  0  0  0  0
  2  7  1  0  0  0  0
  3  8  2  0  0  0  0
  3  9  1  0  0  0  0
  4 10  2  0  0  0  0
  4 11  1  0  0  0  0
  5 12  1  0  0  0  0
  5 13  2  0  0  0  0
  6 14  1  0  0  0  0
  6 15  1  0  0  0  0
  7 16  1  0  0  0  0
  7 17  2  0  0  0  0
  8 18  1  0  0  0  0
  8 12  1  0  0  0  0
  9 19  2  0  0  0  0
 10 20  1  0  0  0  0
 10 14  1  0  0  0  0
 11 21  3  0  0  0  0
 12 22  1  0  0  0  0
 14 23  1  0  0  0  0
 15 24  1  0  0  0  0
 16 24  1  0  0  0  0
 18 25  2  0  0  0  0
 19 25  1  0  0  0  0
 22 26  1  0  0  0  0
 23 27  2  0  0  0  0
 23 28  1  0  0  0  0
 26 29  3  0  0  0  0
 27 30  1  0  0  0  0
 28 31  2  0  0  0  0
 30 32  2  0  0  0  0
 31 32  1  0  0  0  0
 32 33  1  0  0  0  0
M  END
> <CdId>
542

> <Mol Weight>
455.896

> <Formula>
C25H18ClN5O2

> <Click_ID>
CLK007_G03 __ __ 

$$$$
