CLK028_A02
 OpenBabel03181417022D

 31 33  0  0  0  0  0  0  0  0999 V2000
   -0.3312   -0.0552    0.0000 C    0  0  0  0  0  0  0  0  0  0  0  0
    0.0449    0.7384    0.0000 C    0  0  0  0  0  0  0  0  0  0  0  0
    0.8937    0.7591    0.0000 C    0  0  0  0  0  0  0  0  0  0  0  0
   -4.8273   -1.9806    0.0000 N    0  0  0  0  0  0  0  0  0  0  0  0
   -1.1248   -0.0656    0.0000 C    0  0  0  0  0  0  0  0  0  0  0  0
   -4.0543   -2.2152    0.0000 C    0  0  0  0  0  0  0  0  0  0  0  0
    0.0621   -0.7660    0.0000 C    0  0  0  0  0  0  0  0  0  0  0  0
    2.1428    1.5320    0.0000 C    0  0  0  0  0  0  0  0  0  0  0  0
   -3.5885   -1.5424    0.0000 C    0  0  0  0  0  0  0  0  0  0  0  0
    1.2939    1.5113    0.0000 C    0  0  0  0  0  0  0  0  0  0  0  0
    0.4727   -1.4043    0.0000 N    0  0  0  0  0  0  0  0  0  0  0  0
    2.5844    0.7971    0.0000 C    0  0  0  0  0  0  0  0  0  0  0  0
   -4.0750   -0.9041    0.0000 C    0  0  0  0  0  0  0  0  0  0  0  0
    1.3215    0.0207    0.0000 C    0  0  0  0  0  0  0  0  0  0  0  0
    4.6306    1.5596    0.0000 C    0  0  0  0  0  0  0  0  0  0  0  0
    2.1738    0.0449    0.0000 C    0  0  0  0  0  0  0  0  0  0  0  0
    5.4484    1.5700    0.0000 C    0  0  0  0  0  0  0  0  0  0  0  0
   -4.8307   -1.1662    0.0000 C    0  0  0  0  0  0  0  0  0  0  0  0
   -1.6045    0.6970    0.0000 O    0  0  0  0  0  0  0  0  0  0  0  0
   -1.5631   -0.7902    0.0000 N    0  0  0  0  0  0  0  0  0  0  0  0
    0.8592    2.2187    0.0000 Br   0  0  0  0  0  0  0  0  0  0  0  0
    3.4057    0.8109    0.0000 O    0  0  0  0  0  0  0  0  0  0  0  0
    2.5982   -0.6625    0.0000 O    0  0  0  0  0  0  0  0  0  0  0  0
   -2.3809   -0.8039    0.0000 C    0  0  0  0  0  0  0  0  0  0  0  0
   -2.7811   -1.5286    0.0000 C    0  0  0  0  0  0  0  0  0  0  0  0
    3.8059    1.5355    0.0000 C    0  0  0  0  0  0  0  0  0  0  0  0
   -3.9129   -0.1139    0.0000 C    0  0  0  0  0  0  0  0  0  0  0  0
   -5.4484   -0.6418    0.0000 C    0  0  0  0  0  0  0  0  0  0  0  0
    3.4229   -0.6418    0.0000 C    0  0  0  0  0  0  0  0  0  0  0  0
   -4.5305    0.4451    0.0000 C    0  0  0  0  0  0  0  0  0  0  0  0
   -5.2965    0.1691    0.0000 C    0  0  0  0  0  0  0  0  0  0  0  0
  2  1  2  0  0  0  0
  3  2  1  0  0  0  0
  4  6  1  0  0  0  0
  5  1  1  0  0  0  0
  6  9  2  0  0  0  0
  7  1  1  0  0  0  0
  8 10  2  0  0  0  0
  9 25  1  0  0  0  0
 10  3  1  0  0  0  0
 11  7  3  0  0  0  0
 12 16  2  0  0  0  0
 12  8  1  0  0  0  0
 13  9  1  0  0  0  0
 14  3  2  0  0  0  0
 15 26  1  0  0  0  0
 16 14  1  0  0  0  0
 17 15  3  0  0  0  0
 18 13  2  0  0  0  0
 18  4  1  0  0  0  0
 19  5  2  0  0  0  0
 20  5  1  0  0  0  0
 21 10  1  0  0  0  0
 22 12  1  0  0  0  0
 23 16  1  0  0  0  0
 24 20  1  0  0  0  0
 25 24  1  0  0  0  0
 26 22  1  0  0  0  0
 27 13  1  0  0  0  0
 28 18  1  0  0  0  0
 28 31  2  0  0  0  0
 29 23  1  0  0  0  0
 30 27  2  0  0  0  0
 31 30  1  0  0  0  0
M  END
> <CdId>
2086

> <Mol Weight>
478.338

> <Formula>
C24H20BrN3O3

> <Click_ID>
CLK028_A02 __ __ 

$$$$
