CLK002_D02
 OpenBabel03181417022D

 14 14  0  0  0  0  0  0  0  0999 V2000
   -0.0310    0.3588    0.0000 C   0  0  0  0  0  0  0  0  0  0  0  0
    0.7970    0.3588    0.0000 C   0  0  0  0  0  0  0  0  0  0  0  0
   -0.4416    1.0729    0.0000 C   0  0  0  0  0  0  0  0  0  0  0  0
   -0.4381   -0.3588    0.0000 C   0  0  0  0  0  0  0  0  0  0  0  0
    1.2075   -0.3554    0.0000 O   0  0  0  0  0  0  0  0  0  0  0  0
    1.2040    1.0764    0.0000 O   0  0  0  0  0  0  0  0  0  0  0  0
   -1.2696    1.0729    0.0000 C   0  0  0  0  0  0  0  0  0  0  0  0
   -1.2592   -0.3623    0.0000 C   0  0  0  0  0  0  0  0  0  0  0  0
    2.0320   -0.3554    0.0000 C   0  0  0  0  0  0  0  0  0  0  0  0
   -1.6801    0.3554    0.0000 C   0  0  0  0  0  0  0  0  0  0  0  0
    2.4460   -1.0660    0.0000 C   0  0  0  0  0  0  0  0  0  0  0  0
   -2.5013    0.3450    0.0000 O   0  0  0  0  0  0  0  0  0  0  0  0
    2.8497   -1.7802    0.0000 C   0  0  0  0  0  0  0  0  0  0  0  0
   -2.9153   -0.3657    0.0000 C   0  0  0  0  0  0  0  0  0  0  0  0
  1  2  1  0  0  0  0
  1  3  2  0  0  0  0
  1  4  1  0  0  0  0
  2  5  1  0  0  0  0
  2  6  2  0  0  0  0
  3  7  1  0  0  0  0
  4  8  2  0  0  0  0
  5  9  1  0  0  0  0
  7 10  2  0  0  0  0
  8 10  1  0  0  0  0
  9 11  1  0  0  0  0
 10 12  1  0  0  0  0
 11 13  3  0  0  0  0
 12 14  1  0  0  0  0
M  END
> <CdId>
111

> <Mol Weight>
190.1953

> <Formula>
C11H10O3

> <Click_ID>
CLK002_D02 __ __ 

$$$$
