CLK010_B02
 OpenBabel03181417022D

 30 34  0  0  0  0  0  0  0  0999 V2000
    1.2904   -0.9095    0.0000 N   0  0  0  0  0  0  0  0  0  0  0  0
    0.8374   -0.2506    0.0000 C   0  0  0  0  0  0  0  0  0  0  0  0
    0.8374   -1.5375    0.0000 C   0  0  0  0  0  0  0  0  0  0  0  0
    0.0446   -0.4942    0.0000 C   0  0  0  0  0  0  0  0  0  0  0  0
   -2.1003   -0.0446    0.0000 C   0  0  0  0  0  0  0  0  0  0  0  0
   -2.1003    0.7790    0.0000 N   0  0  0  0  0  0  0  0  0  0  0  0
   -2.8381   -0.4530    0.0000 O   0  0  0  0  0  0  0  0  0  0  0  0
    0.0446   -1.3007    0.0000 C   0  0  0  0  0  0  0  0  0  0  0  0
   -3.5588   -0.0446    0.0000 C   0  0  0  0  0  0  0  0  0  0  0  0
   -3.5588    0.7996    0.0000 C   0  0  0  0  0  0  0  0  0  0  0  0
    2.1415   -0.8957    0.0000 C   0  0  0  0  0  0  0  0  0  0  0  0
   -2.8381    1.1943    0.0000 C   0  0  0  0  0  0  0  0  0  0  0  0
   -0.6863   -0.0652    0.0000 C   0  0  0  0  0  0  0  0  0  0  0  0
   -1.4002   -0.4771    0.0000 C   0  0  0  0  0  0  0  0  0  0  0  0
    3.8128    0.5113    0.0000 C   0  0  0  0  0  0  0  0  0  0  0  0
   -0.6863   -1.6919    0.0000 C   0  0  0  0  0  0  0  0  0  0  0  0
    4.2315    1.2217    0.0000 C   0  0  0  0  0  0  0  0  0  0  0  0
    1.1119    0.5525    0.0000 O   0  0  0  0  0  0  0  0  0  0  0  0
    1.0948   -2.3303    0.0000 O   0  0  0  0  0  0  0  0  0  0  0  0
   -4.2521   -0.4771    0.0000 O   0  0  0  0  0  0  0  0  0  0  0  0
    2.5568   -0.1888    0.0000 C   0  0  0  0  0  0  0  0  0  0  0  0
   -1.4002   -1.3007    0.0000 C   0  0  0  0  0  0  0  0  0  0  0  0
    3.3804   -0.1888    0.0000 C   0  0  0  0  0  0  0  0  0  0  0  0
    2.5568   -1.6370    0.0000 C   0  0  0  0  0  0  0  0  0  0  0  0
   -4.2795    1.2217    0.0000 C   0  0  0  0  0  0  0  0  0  0  0  0
   -2.8381    2.0454    0.0000 C   0  0  0  0  0  0  0  0  0  0  0  0
    3.4010   -1.6370    0.0000 C   0  0  0  0  0  0  0  0  0  0  0  0
    3.7888   -0.8957    0.0000 C   0  0  0  0  0  0  0  0  0  0  0  0
   -4.2795    2.0454    0.0000 C   0  0  0  0  0  0  0  0  0  0  0  0
   -3.5588    2.4469    0.0000 C   0  0  0  0  0  0  0  0  0  0  0  0
  2  1  1  0  0  0  0
  3  1  1  0  0  0  0
  4  2  1  0  0  0  0
  5 14  1  0  0  0  0
  6  5  2  0  0  0  0
  7  5  1  0  0  0  0
  8  3  1  0  0  0  0
  8  4  1  0  0  0  0
  9  7  1  0  0  0  0
 10  9  1  0  0  0  0
 10 12  2  0  0  0  0
 11  1  1  0  0  0  0
 12  6  1  0  0  0  0
 13  4  2  0  0  0  0
 14 13  1  0  0  0  0
 14 22  2  0  0  0  0
 15 23  1  0  0  0  0
 16  8  2  0  0  0  0
 17 15  3  0  0  0  0
 18  2  2  0  0  0  0
 19  3  2  0  0  0  0
 20  9  2  0  0  0  0
 21 11  1  0  0  0  0
 22 16  1  0  0  0  0
 23 21  2  0  0  0  0
 24 11  2  0  0  0  0
 25 10  1  0  0  0  0
 26 12  1  0  0  0  0
 27 24  1  0  0  0  0
 28 27  2  0  0  0  0
 28 23  1  0  0  0  0
 29 25  2  0  0  0  0
 29 30  1  0  0  0  0
 30 26  2  0  0  0  0
M  END
> <CdId>
687

> <Mol Weight>
392.3631

> <Formula>
C24H12N2O4

> <Click_ID>
CLK010_B02 __ __ 

$$$$
