CLK030_F02
 OpenBabel03181417022D

 22 24  0  0  0  0  0  0  0  0999 V2000
   -1.1641    2.3866    0.0000 C    0  0  0  0  0  0  0  0  0  0  0  0
   -0.3380    2.3783    0.0000 N    0  0  0  0  0  0  0  0  0  0  0  0
   -1.6481    1.7232    0.0000 N    0  0  0  0  0  0  0  0  0  0  0  0
   -1.6481    3.0542    0.0000 S    0  0  0  0  0  0  0  0  0  0  0  0
   -2.4366    2.7996    0.0000 C    0  0  0  0  0  0  0  0  0  0  0  0
   -2.4366    1.9735    0.0000 C    0  0  0  0  0  0  0  0  0  0  0  0
    0.0751    3.0917    0.0000 C    0  0  0  0  0  0  0  0  0  0  0  0
   -3.1501    3.2127    0.0000 C    0  0  0  0  0  0  0  0  0  0  0  0
   -1.9485    0.3212    0.0000 C    0  0  0  0  0  0  0  0  0  0  0  0
   -2.4992   -0.2921    0.0000 C    0  0  0  0  0  0  0  0  0  0  0  0
   -3.1501    1.5604    0.0000 C    0  0  0  0  0  0  0  0  0  0  0  0
   -0.3380    3.8052    0.0000 O    0  0  0  0  0  0  0  0  0  0  0  0
   -1.3977    0.9346    0.0000 C    0  0  0  0  0  0  0  0  0  0  0  0
    0.9012    3.0917    0.0000 C    0  0  0  0  0  0  0  0  0  0  0  0
   -3.8636    2.7996    0.0000 C    0  0  0  0  0  0  0  0  0  0  0  0
   -3.8636    1.9735    0.0000 C    0  0  0  0  0  0  0  0  0  0  0  0
   -4.5896    3.2169    0.0000 Br   0  0  0  0  0  0  0  0  0  0  0  0
    1.3268    2.3741    0.0000 C    0  0  0  0  0  0  0  0  0  0  0  0
    1.3185    3.8010    0.0000 C    0  0  0  0  0  0  0  0  0  0  0  0
    2.1529    2.3741    0.0000 C    0  0  0  0  0  0  0  0  0  0  0  0
    2.1446    3.8010    0.0000 C    0  0  0  0  0  0  0  0  0  0  0  0
    2.5660    3.0917    0.0000 C    0  0  0  0  0  0  0  0  0  0  0  0
  2  1  2  0  0  0  0
  3  1  1  0  0  0  0
  4  1  1  0  0  0  0
  5  4  1  0  0  0  0
  5  6  2  0  0  0  0
  6  3  1  0  0  0  0
  7  2  1  0  0  0  0
  8  5  1  0  0  0  0
  9 13  1  0  0  0  0
 10  9  3  0  0  0  0
 11  6  1  0  0  0  0
 12  7  2  0  0  0  0
 13  3  1  0  0  0  0
 14  7  1  0  0  0  0
 15  8  2  0  0  0  0
 15 16  1  0  0  0  0
 16 11  2  0  0  0  0
 17 15  1  0  0  0  0
 18 14  1  0  0  0  0
 19 14  1  0  0  0  0
 20 18  1  0  0  0  0
 20 22  1  0  0  0  0
 21 19  1  0  0  0  0
 22 21  1  0  0  0  0
M  END
> <CdId>
2296

> <Mol Weight>
377.299

> <Formula>
C17H17BrN2OS

> <Click_ID>
CLK030_F02 __ __ 

$$$$
