CLK040E11
 OpenBabel03181417022D

 23 23  0  0  0  0  0  0  0  0999 V2000
    1.0250   -3.2083    0.0000 C   0  0  0  0  0  0  0  0  0  0  0  0
   -0.4042    2.5667    0.0000 C   0  0  0  0  0  0  0  0  0  0  0  0
    1.0250   -4.0333    0.0000 C   0  0  0  0  0  0  0  0  0  0  0  0
   -1.1208    2.1542    0.0000 C   0  0  0  0  0  0  0  0  0  0  0  0
   -1.1208    1.3292    0.0000 C   0  0  0  0  0  0  0  0  0  0  0  0
    0.3083   -1.1458    0.0000 C   0  0  0  0  0  0  0  0  0  0  0  0
    1.0250   -1.5583    0.0000 N   0  0  0  0  0  0  0  0  0  0  0  0
   -0.4042    0.9167    0.0000 C   0  0  0  0  0  0  0  0  0  0  0  0
    1.0250   -2.3833    0.0000 C   0  0  0  0  0  0  0  0  0  0  0  0
   -0.4042    3.3917    0.0000 C   0  0  0  0  0  0  0  0  0  0  0  0
   -0.4042    0.0917    0.0000 O   0  0  0  0  0  0  0  0  0  0  0  0
    0.3083    2.1542    0.0000 C   0  0  0  0  0  0  0  0  0  0  0  0
   -0.4042   -1.5583    0.0000 O   0  0  0  0  0  0  0  0  0  0  0  0
   -1.1208    3.8042    0.0000 O   0  0  0  0  0  0  0  0  0  0  0  0
    0.3083    1.3292    0.0000 C   0  0  0  0  0  0  0  0  0  0  0  0
    0.3083   -0.3208    0.0000 C   0  0  0  0  0  0  0  0  0  0  0  0
   -1.8333    0.9167    0.0000 O   0  0  0  0  0  0  0  0  0  0  0  0
    0.3083    3.8042    0.0000 C   0  0  0  0  0  0  0  0  0  0  0  0
    0.2000   -2.3833    0.0000 C   0  0  0  0  0  0  0  0  0  0  0  0
    1.8500   -2.3833    0.0000 C   0  0  0  0  0  0  0  0  0  0  0  0
   -2.5500    1.3292    0.0000 C   0  0  0  0  0  0  0  0  0  0  0  0
    2.2625   -3.0958    0.0000 C   0  0  0  0  0  0  0  0  0  0  0  0
   -0.2125   -1.6708    0.0000 C   0  0  0  0  0  0  0  0  0  0  0  0
  2  4  2  0  0  0  0
  2 12  1  0  0  0  0
  3  1  3  0  0  0  0
  4  5  1  0  0  0  0
  5  8  2  0  0  0  0
  6  7  1  0  0  0  0
  7  9  1  0  0  0  0
  8 11  1  0  0  0  0
  9  1  1  0  0  0  0
 10  2  1  0  0  0  0
 11 16  1  0  0  0  0
 12 15  2  0  0  0  0
 13  6  2  0  0  0  0
 14 10  2  0  0  0  0
 15  8  1  0  0  0  0
 16  6  1  0  0  0  0
 17  5  1  0  0  0  0
 18 10  1  0  0  0  0
 19  9  1  0  0  0  0
 20  9  1  0  0  0  0
 21 17  1  0  0  0  0
 22 20  1  0  0  0  0
 23 19  1  0  0  0  0
M  END
> <CdId>
3085

> <Mol Weight>
317.3795

> <Formula>
C18H23NO4

> <Click_ID>
CLK040E11 __ __ 

$$$$
