CLK012_B06
 OpenBabel03181417022D

 21 22  0  0  0  0  0  0  0  0999 V2000
    1.5644   -0.8155    0.0000 N    0  0  0  0  0  0  0  0  0  0  0  0
    1.8223   -1.6018    0.0000 C    0  0  0  0  0  0  0  0  0  0  0  0
    2.8999   -0.8155    0.0000 C    0  0  0  0  0  0  0  0  0  0  0  0
    2.2342   -0.3287    0.0000 C    0  0  0  0  0  0  0  0  0  0  0  0
    2.6461   -1.6018    0.0000 S    0  0  0  0  0  0  0  0  0  0  0  0
    2.8333    2.1718    0.0000 N    0  0  0  0  0  0  0  0  0  0  0  0
    3.6862   -0.5617    0.0000 C    0  0  0  0  0  0  0  0  0  0  0  0
    3.8692    0.2454    0.0000 C    0  0  0  0  0  0  0  0  0  0  0  0
    3.4366    1.6059    0.0000 C    0  0  0  0  0  0  0  0  0  0  0  0
    3.2618    0.8071    0.0000 C    0  0  0  0  0  0  0  0  0  0  0  0
    0.6116    0.2454    0.0000 C    0  0  0  0  0  0  0  0  0  0  0  0
    0.3911    1.0442    0.0000 C    0  0  0  0  0  0  0  0  0  0  0  0
    3.0122    2.9789    0.0000 O    0  0  0  0  0  0  0  0  0  0  0  0
    1.3355   -2.2633    0.0000 O    0  0  0  0  0  0  0  0  0  0  0  0
    2.0469    1.9304    0.0000 O    0  0  0  0  0  0  0  0  0  0  0  0
    2.2259    0.4951    0.0000 O    0  0  0  0  0  0  0  0  0  0  0  0
    4.6556    0.4951    0.0000 C    0  0  0  0  0  0  0  0  0  0  0  0
    0.7863   -0.5617    0.0000 C    0  0  0  0  0  0  0  0  0  0  0  0
    4.2187    1.8472    0.0000 C    0  0  0  0  0  0  0  0  0  0  0  0
    4.8303    1.2981    0.0000 C    0  0  0  0  0  0  0  0  0  0  0  0
    5.2671   -0.0749    0.0000 Cl   0  0  0  0  0  0  0  0  0  0  0  0
  2  1  1  0  0  0  0
  3  4  1  0  0  0  0
  4  1  1  0  0  0  0
  5  2  1  0  0  0  0
  5  3  1  0  0  0  0
  6  9  1  0  0  0  0
  7  3  2  0  0  0  0
  8  7  1  0  0  0  0
  9 10  1  0  0  0  0
 10  8  2  0  0  0  0
 11 18  1  0  0  0  0
 12 11  3  0  0  0  0
 13  6  1  0  0  0  0
 14  2  2  0  0  0  0
 15  6  2  0  0  0  0
 16  4  2  0  0  0  0
 17  8  1  0  0  0  0
 18  1  1  0  0  0  0
 19 20  1  0  0  0  0
 19  9  2  0  0  0  0
 20 17  2  0  0  0  0
 21 17  1  0  0  0  0
M  END
> <CdId>
851

> <Mol Weight>
322.724

> <Formula>
C13H7ClN2O4S

> <Click_ID>
CLK012_B06 __ __ 

$$$$
