CLK034_H09
 OpenBabel03181417022D

 20 22  0  0  0  0  0  0  0  0999 V2000
   -4.5726    2.5440    0.0000 C   0  0  0  0  0  0  0  0  0  0  0  0
   -3.8618    2.9639    0.0000 N   0  0  0  0  0  0  0  0  0  0  0  0
   -4.6641    1.7293    0.0000 N   0  0  0  0  0  0  0  0  0  0  0  0
   -5.3084    2.8890    0.0000 S   0  0  0  0  0  0  0  0  0  0  0  0
   -5.4705    1.5671    0.0000 C   0  0  0  0  0  0  0  0  0  0  0  0
   -5.8696    2.2904    0.0000 C   0  0  0  0  0  0  0  0  0  0  0  0
   -3.8618    3.7911    0.0000 C   0  0  0  0  0  0  0  0  0  0  0  0
   -3.1509    4.2027    0.0000 C   0  0  0  0  0  0  0  0  0  0  0  0
   -6.6885    2.3029    0.0000 C   0  0  0  0  0  0  0  0  0  0  0  0
   -2.3196    4.2027    0.0000 C   0  0  0  0  0  0  0  0  0  0  0  0
   -2.7311    4.9177    0.0000 C   0  0  0  0  0  0  0  0  0  0  0  0
   -4.2359    0.3492    0.0000 C   0  0  0  0  0  0  0  0  0  0  0  0
   -4.4105   -0.4531    0.0000 C   0  0  0  0  0  0  0  0  0  0  0  0
   -5.8945    0.8688    0.0000 C   0  0  0  0  0  0  0  0  0  0  0  0
   -7.1126    1.5963    0.0000 C   0  0  0  0  0  0  0  0  0  0  0  0
   -4.5851    4.2027    0.0000 O   0  0  0  0  0  0  0  0  0  0  0  0
   -6.7010    0.8812    0.0000 C   0  0  0  0  0  0  0  0  0  0  0  0
   -4.0488    1.1598    0.0000 C   0  0  0  0  0  0  0  0  0  0  0  0
   -7.0876    3.0262    0.0000 C   0  0  0  0  0  0  0  0  0  0  0  0
   -7.1001    0.1579    0.0000 C   0  0  0  0  0  0  0  0  0  0  0  0
  2  1  2  0  0  0  0
  3  1  1  0  0  0  0
  4  1  1  0  0  0  0
  5  3  1  0  0  0  0
  6  4  1  0  0  0  0
  6  5  2  0  0  0  0
  7  2  1  0  0  0  0
  8  7  1  0  0  0  0
  9  6  1  0  0  0  0
 10  8  1  0  0  0  0
 10 11  1  0  0  0  0
 11  8  1  0  0  0  0
 12 18  1  0  0  0  0
 13 12  3  0  0  0  0
 14  5  1  0  0  0  0
 15  9  2  0  0  0  0
 16  7  2  0  0  0  0
 17 14  2  0  0  0  0
 17 15  1  0  0  0  0
 18  3  1  0  0  0  0
 19  9  1  0  0  0  0
 20 17  1  0  0  0  0
M  END
> <CdId>
2643

> <Mol Weight>
284.376

> <Formula>
C16H16N2OS

> <Click_ID>
CLK034_H09 __ __ 

$$$$
