CLK029_H10
 OpenBabel03181417022D

 23 25  0  0  0  0  0  0  0  0999 V2000
   -1.1649    2.3882    0.0000 C    0  0  0  0  0  0  0  0  0  0  0  0
   -0.3382    2.3799    0.0000 N    0  0  0  0  0  0  0  0  0  0  0  0
   -1.6492    1.7244    0.0000 N    0  0  0  0  0  0  0  0  0  0  0  0
   -1.6492    3.0563    0.0000 S    0  0  0  0  0  0  0  0  0  0  0  0
    0.0752    3.0939    0.0000 C    0  0  0  0  0  0  0  0  0  0  0  0
   -2.4383    2.8016    0.0000 C    0  0  0  0  0  0  0  0  0  0  0  0
   -2.4383    1.9749    0.0000 C    0  0  0  0  0  0  0  0  0  0  0  0
    0.9019    3.0939    0.0000 C    0  0  0  0  0  0  0  0  0  0  0  0
   -3.1523    3.2149    0.0000 C    0  0  0  0  0  0  0  0  0  0  0  0
   -1.9498    0.3215    0.0000 C    0  0  0  0  0  0  0  0  0  0  0  0
   -2.5010   -0.2923    0.0000 C    0  0  0  0  0  0  0  0  0  0  0  0
   -3.1523    1.5615    0.0000 C    0  0  0  0  0  0  0  0  0  0  0  0
    1.3152    2.3882    0.0000 C    0  0  0  0  0  0  0  0  0  0  0  0
   -0.3382    3.8079    0.0000 O    0  0  0  0  0  0  0  0  0  0  0  0
   -1.3987    0.9352    0.0000 C    0  0  0  0  0  0  0  0  0  0  0  0
   -3.8663    2.8016    0.0000 C    0  0  0  0  0  0  0  0  0  0  0  0
   -3.8663    1.9749    0.0000 C    0  0  0  0  0  0  0  0  0  0  0  0
    0.8935    1.6617    0.0000 Br   0  0  0  0  0  0  0  0  0  0  0  0
   -4.5928    3.2192    0.0000 Cl   0  0  0  0  0  0  0  0  0  0  0  0
    1.3277    3.8162    0.0000 C    0  0  0  0  0  0  0  0  0  0  0  0
    2.1336    2.3757    0.0000 C    0  0  0  0  0  0  0  0  0  0  0  0
    2.1461    3.8079    0.0000 C    0  0  0  0  0  0  0  0  0  0  0  0
    2.5595    3.0772    0.0000 C    0  0  0  0  0  0  0  0  0  0  0  0
  2  1  2  0  0  0  0
  3  1  1  0  0  0  0
  4  1  1  0  0  0  0
  5  2  1  0  0  0  0
  6  4  1  0  0  0  0
  6  7  2  0  0  0  0
  7  3  1  0  0  0  0
  8  5  1  0  0  0  0
  9  6  1  0  0  0  0
 10 15  1  0  0  0  0
 11 10  3  0  0  0  0
 12  7  1  0  0  0  0
 13  8  2  0  0  0  0
 14  5  2  0  0  0  0
 15  3  1  0  0  0  0
 16  9  2  0  0  0  0
 16 17  1  0  0  0  0
 17 12  2  0  0  0  0
 18 13  1  0  0  0  0
 19 16  1  0  0  0  0
 20  8  1  0  0  0  0
 21 13  1  0  0  0  0
 21 23  2  0  0  0  0
 22 20  2  0  0  0  0
 23 22  1  0  0  0  0
M  END
> <CdId>
2244

> <Mol Weight>
405.696

> <Formula>
C17H10BrClN2OS

> <Click_ID>
CLK029_H10 __ __ 

$$$$
