CLK037H06
 OpenBabel03181417022D

 31 32  0  0  0  0  0  0  0  0999 V2000
    0.2042    0.3583    0.0000 C   0  0  0  0  0  0  0  0  0  0  0  0
   -0.2083   -0.3542    0.0000 C   0  0  0  0  0  0  0  0  0  0  0  0
    5.5375   -0.5083    0.0000 N   0  0  0  0  0  0  0  0  0  0  0  0
   10.5375   -1.7458    0.0000 C   0  0  0  0  0  0  0  0  0  0  0  0
   10.5375   -2.5708    0.0000 C   0  0  0  0  0  0  0  0  0  0  0  0
    9.1083    0.7292    0.0000 C   0  0  0  0  0  0  0  0  0  0  0  0
    8.3958    0.3167    0.0000 C   0  0  0  0  0  0  0  0  0  0  0  0
    0.2042   -1.0708    0.0000 O   0  0  0  0  0  0  0  0  0  0  0  0
    1.0292    0.3583    0.0000 O   0  0  0  0  0  0  0  0  0  0  0  0
    7.6792    0.7292    0.0000 N   0  0  0  0  0  0  0  0  0  0  0  0
    9.8250    0.3167    0.0000 C   0  0  0  0  0  0  0  0  0  0  0  0
    4.8208   -0.9208    0.0000 C   0  0  0  0  0  0  0  0  0  0  0  0
    6.2500    0.7292    0.0000 C   0  0  0  0  0  0  0  0  0  0  0  0
    6.9667   -0.5083    0.0000 C   0  0  0  0  0  0  0  0  0  0  0  0
    6.2500   -0.9208    0.0000 C   0  0  0  0  0  0  0  0  0  0  0  0
    5.5375    0.3167    0.0000 C   0  0  0  0  0  0  0  0  0  0  0  0
    6.9667    0.3167    0.0000 C   0  0  0  0  0  0  0  0  0  0  0  0
   -1.0333   -0.3542    0.0000 O   0  0  0  0  0  0  0  0  0  0  0  0
   -0.2083    1.0750    0.0000 O   0  0  0  0  0  0  0  0  0  0  0  0
    4.1083   -0.5083    0.0000 C   0  0  0  0  0  0  0  0  0  0  0  0
    9.8250   -0.5083    0.0000 O   0  0  0  0  0  0  0  0  0  0  0  0
   10.5375   -0.9208    0.0000 C   0  0  0  0  0  0  0  0  0  0  0  0
    9.1083    1.5542    0.0000 C   0  0  0  0  0  0  0  0  0  0  0  0
   10.5375    0.7292    0.0000 C   0  0  0  0  0  0  0  0  0  0  0  0
    4.1083    0.3167    0.0000 C   0  0  0  0  0  0  0  0  0  0  0  0
    3.3917   -0.9208    0.0000 C   0  0  0  0  0  0  0  0  0  0  0  0
    9.8250    1.9667    0.0000 C   0  0  0  0  0  0  0  0  0  0  0  0
   10.5375    1.5542    0.0000 C   0  0  0  0  0  0  0  0  0  0  0  0
    2.6792   -0.5083    0.0000 C   0  0  0  0  0  0  0  0  0  0  0  0
    3.3917    0.7292    0.0000 C   0  0  0  0  0  0  0  0  0  0  0  0
    2.6792    0.3167    0.0000 C   0  0  0  0  0  0  0  0  0  0  0  0
  2  1  1  0  0  0  0
  4 22  1  0  0  0  0
  5  4  3  0  0  0  0
  6  7  1  0  0  0  0
  7 10  1  0  0  0  0
  8  2  2  0  0  0  0
  9  1  2  0  0  0  0
 10 17  1  0  0  0  0
 11  6  2  0  0  0  0
 12  3  1  0  0  0  0
 13 16  1  0  0  0  0
 13 17  1  0  0  0  0
 14 15  1  0  0  0  0
 15  3  1  0  0  0  0
 16  3  1  0  0  0  0
 17 14  1  0  0  0  0
 18  2  1  0  0  0  0
 19  1  1  0  0  0  0
 20 12  1  0  0  0  0
 21 11  1  0  0  0  0
 22 21  1  0  0  0  0
 23  6  1  0  0  0  0
 24 11  1  0  0  0  0
 25 20  1  0  0  0  0
 26 20  2  0  0  0  0
 27 23  2  0  0  0  0
 27 28  1  0  0  0  0
 28 24  2  0  0  0  0
 29 26  1  0  0  0  0
 30 25  2  0  0  0  0
 31 29  2  0  0  0  0
 31 30  1  0  0  0  0
M  END
> <CdId>
2808

> <Mol Weight>
424.4895

> <Formula>
C24H28N2O5

> <Click_ID>
CLK037H06 __ __ 

$$$$
