CLK021_D02
 OpenBabel03181417022D

 23 24  0  0  0  0  0  0  0  0999 V2000
    3.3174    2.2360    0.0000 C    0  0  0  0  0  0  0  0  0  0  0  0
    2.6026    1.8236    0.0000 C    0  0  0  0  0  0  0  0  0  0  0  0
    3.3174    3.0608    0.0000 C    0  0  0  0  0  0  0  0  0  0  0  0
    2.6026    0.9989    0.0000 C    0  0  0  0  0  0  0  0  0  0  0  0
    2.6026    0.1741    0.0000 N    0  0  0  0  0  0  0  0  0  0  0  0
    6.0758    3.2991    0.0000 C    0  0  0  0  0  0  0  0  0  0  0  0
    6.8227    2.9508    0.0000 C    0  0  0  0  0  0  0  0  0  0  0  0
    1.8878    2.2360    0.0000 C    0  0  0  0  0  0  0  0  0  0  0  0
    4.0323    3.4732    0.0000 C    0  0  0  0  0  0  0  0  0  0  0  0
    2.6026    3.4732    0.0000 C    0  0  0  0  0  0  0  0  0  0  0  0
    1.1730    1.8236    0.0000 C    0  0  0  0  0  0  0  0  0  0  0  0
    1.8878    3.0608    0.0000 C    0  0  0  0  0  0  0  0  0  0  0  0
    4.0323    4.2979    0.0000 C    0  0  0  0  0  0  0  0  0  0  0  0
    2.6026    4.2979    0.0000 C    0  0  0  0  0  0  0  0  0  0  0  0
    0.4582    3.0608    0.0000 C    0  0  0  0  0  0  0  0  0  0  0  0
    3.3174    4.7058    0.0000 C    0  0  0  0  0  0  0  0  0  0  0  0
    1.1730    3.4732    0.0000 C    0  0  0  0  0  0  0  0  0  0  0  0
    0.4582    2.2360    0.0000 C    0  0  0  0  0  0  0  0  0  0  0  0
   -0.2566    3.4732    0.0000 Br   0  0  0  0  0  0  0  0  0  0  0  0
    4.7471    3.0608    0.0000 O    0  0  0  0  0  0  0  0  0  0  0  0
    5.3244    3.6519    0.0000 C    0  0  0  0  0  0  0  0  0  0  0  0
    1.8878    4.7058    0.0000 O    0  0  0  0  0  0  0  0  0  0  0  0
    1.8878    5.5306    0.0000 C    0  0  0  0  0  0  0  0  0  0  0  0
  2  1  2  0  0  0  0
  3  1  1  0  0  0  0
  4  2  1  0  0  0  0
  5  4  3  0  0  0  0
  6 21  1  0  0  0  0
  7  6  3  0  0  0  0
  8  2  1  0  0  0  0
  9  3  2  0  0  0  0
 10  3  1  0  0  0  0
 11  8  2  0  0  0  0
 12  8  1  0  0  0  0
 13  9  1  0  0  0  0
 13 16  2  0  0  0  0
 14 10  2  0  0  0  0
 15 17  1  0  0  0  0
 15 18  2  0  0  0  0
 16 14  1  0  0  0  0
 17 12  2  0  0  0  0
 18 11  1  0  0  0  0
 19 15  1  0  0  0  0
 20  9  1  0  0  0  0
 21 20  1  0  0  0  0
 22 14  1  0  0  0  0
 23 22  1  0  0  0  0
M  END
> <CdId>
1587

> <Mol Weight>
368.224

> <Formula>
C19H14BrNO2

> <Click_ID>
CLK021_D02 __ __ 

$$$$
