CLK028_A07
 OpenBabel03181417022D

 25 26  0  0  0  0  0  0  0  0999 V2000
   -3.6660    2.1713    0.0000 N   0  3  0  0  0  0  0  0  0  0  0  0
   -3.2553    1.4223    0.0000 C   0  0  0  0  0  0  0  0  0  0  0  0
    1.6224   -1.4878    0.0000 C   0  0  0  0  0  0  0  0  0  0  0  0
    1.2151   -0.7802    0.0000 C   0  0  0  0  0  0  0  0  0  0  0  0
    1.2151   -2.1886    0.0000 C   0  0  0  0  0  0  0  0  0  0  0  0
   -1.9884    0.6697    0.0000 N   0  0  0  0  0  0  0  0  0  0  0  0
    3.6764   -0.7663    0.0000 C   0  0  0  0  0  0  0  0  0  0  0  0
    4.5049   -0.7767    0.0000 C   0  0  0  0  0  0  0  0  0  0  0  0
   -1.2255   -0.7871    0.0000 N   0  0  0  0  0  0  0  0  0  0  0  0
   -3.2276    2.8962    0.0000 O   0  5  0  0  0  0  0  0  0  0  0  0
   -2.4509   -0.0553    0.0000 C   0  0  0  0  0  0  0  0  0  0  0  0
   -4.5083    2.1886    0.0000 O   0  0  0  0  0  0  0  0  0  0  0  0
   -2.4129    1.3981    0.0000 C   0  0  0  0  0  0  0  0  0  0  0  0
    0.4004   -0.7871    0.0000 C   0  0  0  0  0  0  0  0  0  0  0  0
    0.4004   -2.1886    0.0000 C   0  0  0  0  0  0  0  0  0  0  0  0
    0.0000   -1.4809    0.0000 C   0  0  0  0  0  0  0  0  0  0  0  0
   -3.7040    0.7077    0.0000 C   0  0  0  0  0  0  0  0  0  0  0  0
   -2.0298   -0.7939    0.0000 N   0  0  0  0  0  0  0  0  0  0  0  0
   -0.8285   -1.4809    0.0000 C   0  0  0  0  0  0  0  0  0  0  0  0
    1.6259   -0.0621    0.0000 I   0  0  0  0  0  0  0  0  0  0  0  0
    2.4405   -1.4878    0.0000 O   0  0  0  0  0  0  0  0  0  0  0  0
   -3.2897   -0.0379    0.0000 C   0  0  0  0  0  0  0  0  0  0  0  0
    1.6259   -2.8928    0.0000 O   0  0  0  0  0  0  0  0  0  0  0  0
    2.8514   -0.7663    0.0000 C   0  0  0  0  0  0  0  0  0  0  0  0
    2.4509   -2.8928    0.0000 C   0  0  0  0  0  0  0  0  0  0  0  0
  2  1  1  0  0  0  0
  3  5  2  0  0  0  0
  3  4  1  0  0  0  0
  4 14  2  0  0  0  0
  5 15  1  0  0  0  0
  6 13  1  0  0  0  0
  7 24  1  0  0  0  0
  8  7  3  0  0  0  0
  9 18  1  0  0  0  0
 10  1  1  0  0  0  0
 11 22  1  0  0  0  0
 11  6  2  0  0  0  0
 12  1  2  0  0  0  0
 13  2  2  0  0  0  0
 14 16  1  0  0  0  0
 15 16  2  0  0  0  0
 16 19  1  0  0  0  0
 17  2  1  0  0  0  0
 18 11  1  0  0  0  0
 19  9  2  0  0  0  0
 20  4  1  0  0  0  0
 21  3  1  0  0  0  0
 22 17  2  0  0  0  0
 23  5  1  0  0  0  0
 24 21  1  0  0  0  0
 25 23  1  0  0  0  0
M  END
> <CdId>
2091

> <Mol Weight>
452.2033

> <Formula>
C16H13IN4O4

> <Click_ID>
CLK028_A07 __ __ 

$$$$
