CLK028_D10
 OpenBabel03181417022D

 24 26  0  0  0  0  0  0  0  0999 V2000
    1.0621    0.2131    0.0000 C   0  0  0  0  0  0  0  0  0  0  0  0
    1.0621   -0.6152    0.0000 C   0  0  0  0  0  0  0  0  0  0  0  0
    0.3506   -1.0277    0.0000 N   0  0  0  0  0  0  0  0  0  0  0  0
    0.3506    0.6255    0.0000 C   0  0  0  0  0  0  0  0  0  0  0  0
   -0.3609   -0.6152    0.0000 C   0  0  0  0  0  0  0  0  0  0  0  0
   -0.3609    0.2131    0.0000 C   0  0  0  0  0  0  0  0  0  0  0  0
    1.7736    0.6325    0.0000 C   0  0  0  0  0  0  0  0  0  0  0  0
    2.4954    0.2200    0.0000 N   0  0  0  0  0  0  0  0  0  0  0  0
    2.4989   -2.2617    0.0000 C   0  0  0  0  0  0  0  0  0  0  0  0
    2.4989   -3.0867    0.0000 C   0  0  0  0  0  0  0  0  0  0  0  0
    0.3506    1.4436    0.0000 C   0  0  0  0  0  0  0  0  0  0  0  0
   -1.0724   -1.0277    0.0000 C   0  0  0  0  0  0  0  0  0  0  0  0
    1.7736   -1.0277    0.0000 S   0  0  0  0  0  0  0  0  0  0  0  0
    1.7736   -1.8526    0.0000 C   0  0  0  0  0  0  0  0  0  0  0  0
   -0.3644    1.8561    0.0000 C   0  0  0  0  0  0  0  0  0  0  0  0
    1.0621    1.8596    0.0000 C   0  0  0  0  0  0  0  0  0  0  0  0
   -1.7908   -0.6119    0.0000 C   0  0  0  0  0  0  0  0  0  0  0  0
   -1.0724   -1.8493    0.0000 C   0  0  0  0  0  0  0  0  0  0  0  0
   -1.7874   -2.2617    0.0000 C   0  0  0  0  0  0  0  0  0  0  0  0
   -0.3747    2.6810    0.0000 C   0  0  0  0  0  0  0  0  0  0  0  0
    1.0621    2.6948    0.0000 C   0  0  0  0  0  0  0  0  0  0  0  0
   -2.5023   -1.0243    0.0000 C   0  0  0  0  0  0  0  0  0  0  0  0
    0.3471    3.0900    0.0000 C   0  0  0  0  0  0  0  0  0  0  0  0
   -2.5023   -1.8493    0.0000 C   0  0  0  0  0  0  0  0  0  0  0  0
  2  1  1  0  0  0  0
  3  2  2  0  0  0  0
  3  5  1  0  0  0  0
  4  1  2  0  0  0  0
  5  6  2  0  0  0  0
  6  4  1  0  0  0  0
  7  1  1  0  0  0  0
  8  7  3  0  0  0  0
  9 14  1  0  0  0  0
 10  9  3  0  0  0  0
 11  4  1  0  0  0  0
 12  5  1  0  0  0  0
 13  2  1  0  0  0  0
 14 13  1  0  0  0  0
 15 11  1  0  0  0  0
 16 11  2  0  0  0  0
 17 12  2  0  0  0  0
 18 12  1  0  0  0  0
 19 18  2  0  0  0  0
 20 15  2  0  0  0  0
 20 23  1  0  0  0  0
 21 16  1  0  0  0  0
 22 17  1  0  0  0  0
 23 21  2  0  0  0  0
 24 19  1  0  0  0  0
 24 22  2  0  0  0  0
M  END
> <CdId>
2124

> <Mol Weight>
326.414

> <Formula>
C21H14N2S

> <Click_ID>
CLK028_D10 __ __ 

$$$$
