CLK024_E10
 OpenBabel03181417022D

 37 41  0  0  0  0  0  0  0  0999 V2000
   -1.0383   -1.0040    0.0000 N   0  0  0  0  0  0  0  0  0  0  0  0
   -1.2894   -0.2063    0.0000 C   0  0  0  0  0  0  0  0  0  0  0  0
   -0.2201   -1.0040    0.0000 C   0  0  0  0  0  0  0  0  0  0  0  0
    0.0344   -0.2235    0.0000 C   0  0  0  0  0  0  0  0  0  0  0  0
   -0.6189    0.2717    0.0000 S   0  0  0  0  0  0  0  0  0  0  0  0
   -2.0768    0.0481    0.0000 N   0  0  0  0  0  0  0  0  0  0  0  0
   -3.2424   -3.5312    0.0000 N   0  0  0  0  0  0  0  0  0  0  0  0
    0.8252    0.0206    0.0000 C   0  0  0  0  0  0  0  0  0  0  0  0
   -1.5198   -1.6676    0.0000 C   0  0  0  0  0  0  0  0  0  0  0  0
   -2.8298   -2.2521    0.0000 C   0  0  0  0  0  0  0  0  0  0  0  0
   -2.5649   -3.0532    0.0000 C   0  0  0  0  0  0  0  0  0  0  0  0
   -3.6412   -2.2521    0.0000 C   0  0  0  0  0  0  0  0  0  0  0  0
    4.6486   -2.5134    0.0000 C   0  0  0  0  0  0  0  0  0  0  0  0
    5.2538   -3.0704    0.0000 C   0  0  0  0  0  0  0  0  0  0  0  0
   -3.9059   -3.0326    0.0000 C   0  0  0  0  0  0  0  0  0  0  0  0
    0.2613   -1.6779    0.0000 O   0  0  0  0  0  0  0  0  0  0  0  0
   -2.3415   -1.5816    0.0000 C   0  0  0  0  0  0  0  0  0  0  0  0
   -2.2418    0.8596    0.0000 C   0  0  0  0  0  0  0  0  0  0  0  0
    1.4372   -0.5398    0.0000 C   0  0  0  0  0  0  0  0  0  0  0  0
   -2.5787    2.4721    0.0000 C   0  0  0  0  0  0  0  0  0  0  0  0
    2.6475   -1.6504    0.0000 C   0  0  0  0  0  0  0  0  0  0  0  0
   -1.6298    1.4097    0.0000 C   0  0  0  0  0  0  0  0  0  0  0  0
   -3.0291    1.1140    0.0000 C   0  0  0  0  0  0  0  0  0  0  0  0
    2.2142   -0.2888    0.0000 C   0  0  0  0  0  0  0  0  0  0  0  0
    1.2481   -1.3444    0.0000 C   0  0  0  0  0  0  0  0  0  0  0  0
    2.8263   -0.8424    0.0000 C   0  0  0  0  0  0  0  0  0  0  0  0
   -1.7913    2.2142    0.0000 C   0  0  0  0  0  0  0  0  0  0  0  0
    1.8567   -1.9014    0.0000 C   0  0  0  0  0  0  0  0  0  0  0  0
   -3.1908    1.9220    0.0000 C   0  0  0  0  0  0  0  0  0  0  0  0
    4.0400   -1.9564    0.0000 C   0  0  0  0  0  0  0  0  0  0  0  0
    3.2492   -2.2074    0.0000 O   0  0  0  0  0  0  0  0  0  0  0  0
   -2.7438    3.2767    0.0000 O   0  0  0  0  0  0  0  0  0  0  0  0
   -4.1913   -1.6298    0.0000 C   0  0  0  0  0  0  0  0  0  0  0  0
   -4.7105   -3.2045    0.0000 C   0  0  0  0  0  0  0  0  0  0  0  0
   -3.5312    3.5312    0.0000 C   0  0  0  0  0  0  0  0  0  0  0  0
   -4.9890   -1.8016    0.0000 C   0  0  0  0  0  0  0  0  0  0  0  0
   -5.2538   -2.5822    0.0000 C   0  0  0  0  0  0  0  0  0  0  0  0
  2  1  1  0  0  0  0
  3  1  1  0  0  0  0
  4  3  1  0  0  0  0
  4  5  1  0  0  0  0
  5  2  1  0  0  0  0
  6  2  2  0  0  0  0
  7 11  1  0  0  0  0
  8  4  2  0  0  0  0
  9  1  1  0  0  0  0
 10 17  1  0  0  0  0
 11 10  2  0  0  0  0
 12 10  1  0  0  0  0
 13 30  1  0  0  0  0
 14 13  3  0  0  0  0
 15 12  2  0  0  0  0
 15  7  1  0  0  0  0
 16  3  2  0  0  0  0
 17  9  1  0  0  0  0
 18  6  1  0  0  0  0
 19  8  1  0  0  0  0
 20 29  1  0  0  0  0
 21 28  2  0  0  0  0
 22 18  2  0  0  0  0
 23 18  1  0  0  0  0
 24 19  1  0  0  0  0
 25 19  2  0  0  0  0
 26 24  2  0  0  0  0
 26 21  1  0  0  0  0
 27 22  1  0  0  0  0
 27 20  2  0  0  0  0
 28 25  1  0  0  0  0
 29 23  2  0  0  0  0
 30 31  1  0  0  0  0
 31 21  1  0  0  0  0
 32 20  1  0  0  0  0
 33 12  1  0  0  0  0
 34 15  1  0  0  0  0
 35 32  1  0  0  0  0
 36 33  2  0  0  0  0
 37 36  1  0  0  0  0
 37 34  2  0  0  0  0
M  END
> <CdId>
1825

> <Mol Weight>
507.603

> <Formula>
C30H25N3O3S

> <Click_ID>
CLK024_E10 __ __ 

$$$$
