CLK013_H11
 OpenBabel03181417022D

 31 33  0  0  0  0  0  0  0  0999 V2000
    1.5667   -0.8167    0.0000 N   0  0  0  0  0  0  0  0  0  0  0  0
    1.8250   -1.6042    0.0000 C   0  0  0  0  0  0  0  0  0  0  0  0
    2.2375   -0.3292    0.0000 C   0  0  0  0  0  0  0  0  0  0  0  0
    2.9042   -0.8167    0.0000 C   0  0  0  0  0  0  0  0  0  0  0  0
    3.9917    4.0042    0.0000 C   0  0  0  0  0  0  0  0  0  0  0  0
    2.6500   -1.6042    0.0000 S   0  0  0  0  0  0  0  0  0  0  0  0
    4.7792    4.2542    0.0000 N   0  3  0  0  0  0  0  0  0  0  0  0
    1.9917    4.8792    0.0000 C   0  0  0  0  0  0  0  0  0  0  0  0
    3.3875    4.5625    0.0000 C   0  0  0  0  0  0  0  0  0  0  0  0
    3.8167    3.1958    0.0000 C   0  0  0  0  0  0  0  0  0  0  0  0
    3.6917   -0.5625    0.0000 C   0  0  0  0  0  0  0  0  0  0  0  0
    2.5917    4.3167    0.0000 C   0  0  0  0  0  0  0  0  0  0  0  0
    0.6125    0.2458    0.0000 C   0  0  0  0  0  0  0  0  0  0  0  0
    0.3917    1.0458    0.0000 C   0  0  0  0  0  0  0  0  0  0  0  0
    5.3917    3.6958    0.0000 O   0  5  0  0  0  0  0  0  0  0  0  0
    4.4167    2.6458    0.0000 O   0  0  0  0  0  0  0  0  0  0  0  0
    1.3375   -2.2667    0.0000 O   0  0  0  0  0  0  0  0  0  0  0  0
    4.9625    5.0542    0.0000 O   0  0  0  0  0  0  0  0  0  0  0  0
    2.2292    0.4958    0.0000 O   0  0  0  0  0  0  0  0  0  0  0  0
    0.7875   -0.5625    0.0000 C   0  0  0  0  0  0  0  0  0  0  0  0
    3.0292    2.9625    0.0000 C   0  0  0  0  0  0  0  0  0  0  0  0
    2.4167    3.5208    0.0000 C   0  0  0  0  0  0  0  0  0  0  0  0
    2.6792    5.3125    0.0000 F   0  0  0  0  0  0  0  0  0  0  0  0
    2.1792    5.6875    0.0000 F   0  0  0  0  0  0  0  0  0  0  0  0
    1.2042    4.6250    0.0000 F   0  0  0  0  0  0  0  0  0  0  0  0
    3.8750    0.2458    0.0000 C   0  0  0  0  0  0  0  0  0  0  0  0
    4.2292    1.8458    0.0000 C   0  0  0  0  0  0  0  0  0  0  0  0
    3.2667    0.7958    0.0000 C   0  0  0  0  0  0  0  0  0  0  0  0
    4.6625    0.4833    0.0000 C   0  0  0  0  0  0  0  0  0  0  0  0
    3.4542    1.5958    0.0000 C   0  0  0  0  0  0  0  0  0  0  0  0
    4.8500    1.2833    0.0000 C   0  0  0  0  0  0  0  0  0  0  0  0
  2  1  1  0  0  0  0
  3  1  1  0  0  0  0
  4  3  1  0  0  0  0
  4  6  1  0  0  0  0
  5 10  2  0  0  0  0
  6  2  1  0  0  0  0
  7  5  1  0  0  0  0
  8 12  1  0  0  0  0
  9  5  1  0  0  0  0
  9 12  2  0  0  0  0
 10 16  1  0  0  0  0
 11  4  2  0  0  0  0
 12 22  1  0  0  0  0
 13 20  1  0  0  0  0
 14 13  3  0  0  0  0
 15  7  1  0  0  0  0
 16 27  1  0  0  0  0
 17  2  2  0  0  0  0
 18  7  2  0  0  0  0
 19  3  2  0  0  0  0
 20  1  1  0  0  0  0
 21 10  1  0  0  0  0
 22 21  2  0  0  0  0
 23  8  1  0  0  0  0
 24  8  1  0  0  0  0
 25  8  1  0  0  0  0
 26 11  1  0  0  0  0
 27 31  1  0  0  0  0
 27 30  2  0  0  0  0
 28 26  2  0  0  0  0
 29 26  1  0  0  0  0
 30 28  1  0  0  0  0
 31 29  2  0  0  0  0
M  END
> <CdId>
996

> <Mol Weight>
448.372

> <Formula>
C20H11F3N2O5S

> <Click_ID>
CLK013_H11 __ __ 

$$$$
