CLK037A02
 OpenBabel03181417022D

 13 12  0  0  0  0  0  0  0  0999 V2000
    3.5750   -0.2583    0.0000 N   0  3  3  0  0  0  0  0  0  0  0  0
    2.2083    0.1625    0.0000 C   0  0  0  0  0  0  0  0  0  0  0  0
    1.6500    0.7667    0.0000 C   0  0  0  0  0  0  0  0  0  0  0  0
    3.5750    0.5667    0.0000 C   0  0  3  0  0  0  0  0  0  0  0  0
    4.2875   -0.6708    0.0000 C   0  0  3  0  0  0  0  0  0  0  0  0
    2.7708   -0.4417    0.0000 C   0  0  0  0  0  0  0  0  0  0  0  0
    0.0000    0.0000    0.0000 I   0  5  0  0  0  0  0  0  0  0  0  0
    3.0125   -0.8625    0.0000 C   0  0  0  0  0  0  0  0  0  0  0  0
    5.0042    0.5667    0.0000 C   0  0  0  0  0  0  0  0  0  0  0  0
    5.0042   -0.2583    0.0000 C   0  0  0  0  0  0  0  0  0  0  0  0
    4.2875    0.9792    0.0000 C   0  0  0  0  0  0  0  0  0  0  0  0
    2.8583    0.9792    0.0000 C   0  0  0  0  0  0  0  0  0  0  0  0
    4.2875   -1.4958    0.0000 C   0  0  0  0  0  0  0  0  0  0  0  0
  2  6  1  0  0  0  0
  3  2  3  0  0  0  0
  4  1  1  0  0  0  0
  5  1  1  0  0  0  0
  6  1  1  0  0  0  0
  8  1  1  0  0  0  0
  9 10  1  0  0  0  0
 10  5  1  0  0  0  0
 11  4  1  0  0  0  0
 11  9  1  0  0  0  0
 12  4  1  0  0  0  0
 13  5  1  0  0  0  0
M  END
> <CdId>
2769

> <Mol Weight>
293.1877

> <Formula>
C11H20IN

> <Click_ID>
CLK037A02 __ __ 

$$$$
