CLK024_D06
 OpenBabel03181417022D

 29 31  0  0  0  0  0  0  0  0999 V2000
   -3.4682    0.3197    0.0000 N   0  0  0  0  0  0  0  0  0  0  0  0
   -3.0523   -0.4022    0.0000 C   0  0  0  0  0  0  0  0  0  0  0  0
   -2.9147    0.9212    0.0000 C   0  0  0  0  0  0  0  0  0  0  0  0
   -2.1586    0.5912    0.0000 C   0  0  0  0  0  0  0  0  0  0  0  0
   -2.2445   -0.2269    0.0000 S   0  0  0  0  0  0  0  0  0  0  0  0
    4.2828    0.9555    0.0000 N   0  3  0  0  0  0  0  0  0  0  0  0
    3.5644    0.5465    0.0000 C   0  0  0  0  0  0  0  0  0  0  0  0
   -1.4368    1.0037    0.0000 C   0  0  0  0  0  0  0  0  0  0  0  0
    2.1277    0.5671    0.0000 N   0  0  0  0  0  0  0  0  0  0  0  0
    0.6977   -0.2475    0.0000 C   0  0  0  0  0  0  0  0  0  0  0  0
   -4.6196    1.1514    0.0000 C   0  0  0  0  0  0  0  0  0  0  0  0
   -4.9943    1.8870    0.0000 C   0  0  0  0  0  0  0  0  0  0  0  0
   -0.0172   -0.6496    0.0000 C   0  0  0  0  0  0  0  0  0  0  0  0
    2.1277   -0.2543    0.0000 C   0  0  0  0  0  0  0  0  0  0  0  0
    1.4127   -0.6634    0.0000 O   0  0  0  0  0  0  0  0  0  0  0  0
    4.9943    0.5431    0.0000 O   0  5  0  0  0  0  0  0  0  0  0  0
   -3.3891   -1.1618    0.0000 O   0  0  0  0  0  0  0  0  0  0  0  0
    4.2965    1.7874    0.0000 O   0  0  0  0  0  0  0  0  0  0  0  0
   -3.0900    1.7255    0.0000 O   0  0  0  0  0  0  0  0  0  0  0  0
    2.8529    0.9693    0.0000 C   0  0  0  0  0  0  0  0  0  0  0  0
   -0.7253    0.5843    0.0000 C   0  0  0  0  0  0  0  0  0  0  0  0
   -4.2828    0.3987    0.0000 C   0  0  0  0  0  0  0  0  0  0  0  0
   -0.7321   -0.2475    0.0000 C   0  0  0  0  0  0  0  0  0  0  0  0
    3.5575   -0.2750    0.0000 C   0  0  0  0  0  0  0  0  0  0  0  0
    0.7012    0.5706    0.0000 C   0  0  0  0  0  0  0  0  0  0  0  0
    2.8392   -0.6771    0.0000 C   0  0  0  0  0  0  0  0  0  0  0  0
   -0.0103    0.9934    0.0000 C   0  0  0  0  0  0  0  0  0  0  0  0
   -0.0241   -1.4711    0.0000 O   0  0  0  0  0  0  0  0  0  0  0  0
    0.6909   -1.8836    0.0000 C   0  0  0  0  0  0  0  0  0  0  0  0
  2  1  1  0  0  0  0
  3  1  1  0  0  0  0
  4  3  1  0  0  0  0
  4  5  1  0  0  0  0
  5  2  1  0  0  0  0
  6  7  1  0  0  0  0
  7 24  2  0  0  0  0
  7 20  1  0  0  0  0
  8  4  2  0  0  0  0
  9 14  1  0  0  0  0
 10 25  2  0  0  0  0
 10 13  1  0  0  0  0
 11 22  1  0  0  0  0
 12 11  3  0  0  0  0
 13 23  2  0  0  0  0
 14 15  1  0  0  0  0
 15 10  1  0  0  0  0
 16  6  1  0  0  0  0
 17  2  2  0  0  0  0
 18  6  2  0  0  0  0
 19  3  2  0  0  0  0
 20  9  2  0  0  0  0
 21  8  1  0  0  0  0
 22  1  1  0  0  0  0
 23 21  1  0  0  0  0
 24 26  1  0  0  0  0
 25 27  1  0  0  0  0
 26 14  2  0  0  0  0
 27 21  2  0  0  0  0
 28 13  1  0  0  0  0
 29 28  1  0  0  0  0
M  END
> <CdId>
1811

> <Mol Weight>
411.388

> <Formula>
C19H13N3O6S

> <Click_ID>
CLK024_D06 __ __ 

$$$$
