CLK046F07
 OpenBabel03181417022D

 31 34  0  0  0  0  0  0  0  0999 V2000
    1.4958    0.5333    0.0000 S   0  0  0  0  0  0  0  0  0  0  0  0
   -1.9208    1.3583    0.0000 C   0  0  0  0  0  0  0  0  0  0  0  0
    0.7792   -0.7042    0.0000 C   0  0  0  0  0  0  0  0  0  0  0  0
    2.2083    0.1208    0.0000 N   0  0  0  0  0  0  0  0  0  0  0  0
   -1.4333    0.6917    0.0000 N   0  0  0  0  0  0  0  0  0  0  0  0
    1.4958   -1.1167    0.0000 C   0  0  0  0  0  0  0  0  0  0  0  0
   -1.4333    2.0250    0.0000 N   0  0  0  0  0  0  0  0  0  0  0  0
   -0.6500    0.9458    0.0000 C   0  0  0  0  0  0  0  0  0  0  0  0
    0.7792    0.9458    0.0000 C   0  0  0  0  0  0  0  0  0  0  0  0
    2.2083   -0.7042    0.0000 C   0  0  0  0  0  0  0  0  0  0  0  0
   -0.6500    1.7708    0.0000 C   0  0  0  0  0  0  0  0  0  0  0  0
    0.0667    0.5333    0.0000 C   0  0  0  0  0  0  0  0  0  0  0  0
    0.0667   -1.1167    0.0000 N   0  0  0  0  0  0  0  0  0  0  0  0
   -2.7917   -1.1167    0.0000 C   0  0  0  0  0  0  0  0  0  0  0  0
    1.0833   -0.1792    0.0000 O   0  0  0  0  0  0  0  0  0  0  0  0
    1.9083    1.2500    0.0000 O   0  0  0  0  0  0  0  0  0  0  0  0
   -3.5083   -1.5292    0.0000 C   0  0  0  0  0  0  0  0  0  0  0  0
   -2.7458    1.3583    0.0000 O   0  0  0  0  0  0  0  0  0  0  0  0
    0.7792    0.1208    0.0000 O   0  0  0  0  0  0  0  0  0  0  0  0
   -0.6500   -0.7042    0.0000 C   0  0  0  0  0  0  0  0  0  0  0  0
    0.7792    1.7708    0.0000 C   0  0  0  0  0  0  0  0  0  0  0  0
    0.0667    2.1833    0.0000 C   0  0  0  0  0  0  0  0  0  0  0  0
   -2.0792   -0.7042    0.0000 C   0  0  0  0  0  0  0  0  0  0  0  0
   -1.3625   -1.1167    0.0000 C   0  0  0  0  0  0  0  0  0  0  0  0
    1.4958   -1.9417    0.0000 C   0  0  0  0  0  0  0  0  0  0  0  0
    2.9208   -1.1167    0.0000 C   0  0  0  0  0  0  0  0  0  0  0  0
   -1.3625    0.5333    0.0000 C   0  0  0  0  0  0  0  0  0  0  0  0
   -0.6500    0.1208    0.0000 C   0  0  0  0  0  0  0  0  0  0  0  0
   -2.0792    0.1208    0.0000 C   0  0  0  0  0  0  0  0  0  0  0  0
    2.2083   -2.3542    0.0000 C   0  0  0  0  0  0  0  0  0  0  0  0
    2.9208   -1.9417    0.0000 C   0  0  0  0  0  0  0  0  0  0  0  0
  2  5  1  0  0  0  0
  2  7  1  0  0  0  0
  3  6  1  0  0  0  0
  4  1  1  0  0  0  0
  5  8  1  0  0  0  0
  6 10  2  0  0  0  0
  7 11  1  0  0  0  0
  8 12  1  0  0  0  0
  9  1  1  0  0  0  0
 10  4  1  0  0  0  0
 11  8  2  0  0  0  0
 11 22  1  0  0  0  0
 12  9  2  0  0  0  0
 13  3  1  0  0  0  0
 14 23  1  0  0  0  0
 15  1  2  0  0  0  0
 16  1  2  0  0  0  0
 17 14  3  0  0  0  0
 18  2  2  0  0  0  0
 19  3  2  0  0  0  0
 20 13  1  0  0  0  0
 21  9  1  0  0  0  0
 22 21  2  0  0  0  0
 23 24  1  0  0  0  0
 24 20  2  0  0  0  0
 25  6  1  0  0  0  0
 26 10  1  0  0  0  0
 27 28  2  0  0  0  0
 28 20  1  0  0  0  0
 29 23  2  0  0  0  0
 29 27  1  0  0  0  0
 30 25  2  0  0  0  0
 31 26  2  0  0  0  0
 31 30  1  0  0  0  0
M  END
> <CdId>
3534

> <Mol Weight>
432.452

> <Formula>
C22H16N4O4S

> <Click_ID>
CLK046F07 __ __ 

$$$$
