CLK021_B05
 OpenBabel03181417022D

 31 34  0  0  0  0  0  0  0  0999 V2000
    6.5322    2.0430    0.0000 N   0  0  0  0  0  0  0  0  0  0  0  0
    5.8268    2.4553    0.0000 C   0  0  0  0  0  0  0  0  0  0  0  0
    6.5322    1.2185    0.0000 C   0  0  0  0  0  0  0  0  0  0  0  0
    7.3247    2.3041    0.0000 N   0  0  0  0  0  0  0  0  0  0  0  0
    7.8057    1.6307    0.0000 C   0  0  0  0  0  0  0  0  0  0  0  0
    7.3247    0.9711    0.0000 C   0  0  0  0  0  0  0  0  0  0  0  0
    5.8268    0.8062    0.0000 N   0  0  0  0  0  0  0  0  0  0  0  0
    5.1122    2.0430    0.0000 C   0  0  0  0  0  0  0  0  0  0  0  0
    5.1122    1.2185    0.0000 C   0  0  0  0  0  0  0  0  0  0  0  0
    5.8268    3.2798    0.0000 C   0  0  0  0  0  0  0  0  0  0  0  0
    8.6302    1.6307    0.0000 C   0  0  0  0  0  0  0  0  0  0  0  0
    9.0425    0.9161    0.0000 N   0  0  0  0  0  0  0  0  0  0  0  0
    4.3976    0.8062    0.0000 C   0  0  0  0  0  0  0  0  0  0  0  0
   10.0778    0.1237    0.0000 C   0  0  0  0  0  0  0  0  0  0  0  0
    2.9684    0.8062    0.0000 C   0  0  0  0  0  0  0  0  0  0  0  0
    3.6830    1.2185    0.0000 C   0  0  0  0  0  0  0  0  0  0  0  0
   10.2977   -0.6734    0.0000 C   0  0  0  0  0  0  0  0  0  0  0  0
    9.8670    0.9161    0.0000 C   0  0  3  0  0  0  0  0  0  0  0  0
    2.9684   -0.0184    0.0000 C   0  0  0  0  0  0  0  0  0  0  0  0
    2.1850    1.0673    0.0000 O   0  0  0  0  0  0  0  0  0  0  0  0
    2.1850   -0.2657    0.0000 O   0  0  0  0  0  0  0  0  0  0  0  0
    1.6949    0.3939    0.0000 C   0  0  0  0  0  0  0  0  0  0  0  0
    9.0425    2.3453    0.0000 O   0  0  0  0  0  0  0  0  0  0  0  0
    4.3976   -0.0184    0.0000 C   0  0  0  0  0  0  0  0  0  0  0  0
    5.0297    3.4997    0.0000 F   0  0  0  0  0  0  0  0  0  0  0  0
    6.6422    3.2111    0.0000 F   0  0  0  0  0  0  0  0  0  0  0  0
    5.9688    4.1044    0.0000 F   0  0  0  0  0  0  0  0  0  0  0  0
    3.6830   -0.4306    0.0000 C   0  0  0  0  0  0  0  0  0  0  0  0
   10.6824    1.0673    0.0000 C   0  0  0  0  0  0  0  0  0  0  0  0
    9.7983    1.7407    0.0000 C   0  0  0  0  0  0  0  0  0  0  0  0
   11.2046    0.4351    0.0000 C   0  0  0  0  0  0  0  0  0  0  0  0
  2  1  1  0  0  0  0
  3  1  1  0  0  0  0
  4  1  1  0  0  0  0
  5  4  2  0  0  0  0
  6  3  2  0  0  0  0
  6  5  1  0  0  0  0
  7  3  1  0  0  0  0
  8  2  2  0  0  0  0
  9  7  2  0  0  0  0
  9  8  1  0  0  0  0
 10  2  1  0  0  0  0
 11  5  1  0  0  0  0
 12 11  1  0  0  0  0
 13  9  1  0  0  0  0
 14 18  1  0  0  0  0
 15 16  2  0  0  0  0
 15 19  1  0  0  0  0
 16 13  1  0  0  0  0
 17 14  3  0  0  0  0
 18 12  1  0  0  0  0
 19 28  2  0  0  0  0
 20 15  1  0  0  0  0
 21 19  1  0  0  0  0
 21 22  1  0  0  0  0
 22 20  1  0  0  0  0
 23 11  2  0  0  0  0
 24 13  2  0  0  0  0
 25 10  1  0  0  0  0
 26 10  1  0  0  0  0
 27 10  1  0  0  0  0
 28 24  1  0  0  0  0
 29 18  1  0  0  0  0
 30 18  1  0  0  0  0
 31 29  1  0  0  0  0
M  END
> <CdId>
1570

> <Mol Weight>
430.3799

> <Formula>
C21H17F3N4O3

> <Click_ID>
CLK021_B05 __ __ 

$$$$
