CLK014_G08
 OpenBabel03181417022D

 21 22  0  0  0  0  0  0  0  0999 V2000
    1.6106   -0.8396    0.0000 N   0  0  0  0  0  0  0  0  0  0  0  0
    1.8762   -1.6492    0.0000 C   0  0  0  0  0  0  0  0  0  0  0  0
    2.3002   -0.3384    0.0000 C   0  0  0  0  0  0  0  0  0  0  0  0
    2.9856   -0.8396    0.0000 C   0  0  0  0  0  0  0  0  0  0  0  0
    2.7243   -1.6492    0.0000 S   0  0  0  0  0  0  0  0  0  0  0  0
    5.7099    1.4478    0.0000 N   0  3  0  0  0  0  0  0  0  0  0  0
    4.9346    1.1908    0.0000 C   0  0  0  0  0  0  0  0  0  0  0  0
    3.7952   -0.5783    0.0000 C   0  0  0  0  0  0  0  0  0  0  0  0
    0.6297    0.2527    0.0000 C   0  0  0  0  0  0  0  0  0  0  0  0
    0.4027    1.0751    0.0000 C   0  0  0  0  0  0  0  0  0  0  0  0
    4.3092    1.7091    0.0000 C   0  0  0  0  0  0  0  0  0  0  0  0
    4.7718    0.4583    0.0000 C   0  0  0  0  0  0  0  0  0  0  0  0
    6.3267    0.9124    0.0000 O   0  5  0  0  0  0  0  0  0  0  0  0
    1.3750   -2.3302    0.0000 O   0  0  0  0  0  0  0  0  0  0  0  0
    5.8641    2.2574    0.0000 O   0  0  0  0  0  0  0  0  0  0  0  0
    2.2917    0.5097    0.0000 O   0  0  0  0  0  0  0  0  0  0  0  0
    3.9751    0.2442    0.0000 C   0  0  0  0  0  0  0  0  0  0  0  0
    0.8096   -0.5783    0.0000 C   0  0  0  0  0  0  0  0  0  0  0  0
    3.5082    1.5120    0.0000 C   0  0  0  0  0  0  0  0  0  0  0  0
    3.3411    0.7667    0.0000 C   0  0  0  0  0  0  0  0  0  0  0  0
    4.4848    2.5058    0.0000 O   0  0  0  0  0  0  0  0  0  0  0  0
  2  1  1  0  0  0  0
  3  1  1  0  0  0  0
  4  3  1  0  0  0  0
  5  2  1  0  0  0  0
  5  4  1  0  0  0  0
  6  7  1  0  0  0  0
  7 12  2  0  0  0  0
  8  4  2  0  0  0  0
  9 18  1  0  0  0  0
 10  9  3  0  0  0  0
 11 19  2  0  0  0  0
 11  7  1  0  0  0  0
 12 17  1  0  0  0  0
 13  6  1  0  0  0  0
 14  2  2  0  0  0  0
 15  6  2  0  0  0  0
 16  3  2  0  0  0  0
 17  8  1  0  0  0  0
 18  1  1  0  0  0  0
 19 20  1  0  0  0  0
 20 17  2  0  0  0  0
 21 11  1  0  0  0  0
M  END
> <CdId>
1063

> <Mol Weight>
304.278

> <Formula>
C13H8N2O5S

> <Click_ID>
CLK014_G08 __ __ 

$$$$
