CLK012_C03
 OpenBabel03181417022D

 28 30  0  0  0  0  0  0  0  0999 V2000
    4.7972   -2.7377    0.0000 N    0  0  0  0  0  0  0  0  0  0  0  0
    4.6682   -3.5615    0.0000 C    0  0  0  0  0  0  0  0  0  0  0  0
    4.0607   -2.3632    0.0000 C    0  0  0  0  0  0  0  0  0  0  0  0
    3.4741   -2.9499    0.0000 C    0  0  0  0  0  0  0  0  0  0  0  0
    3.8486   -3.6863    0.0000 S    0  0  0  0  0  0  0  0  0  0  0  0
    5.5336   -2.3715    0.0000 C    0  0  0  0  0  0  0  0  0  0  0  0
    2.6628   -2.8126    0.0000 C    0  0  0  0  0  0  0  0  0  0  0  0
    5.5835   -1.5477    0.0000 C    0  0  0  0  0  0  0  0  0  0  0  0
    0.3412   -6.8067    0.0000 C    0  0  0  0  0  0  0  0  0  0  0  0
   -0.1830   -7.4433    0.0000 C    0  0  0  0  0  0  0  0  0  0  0  0
    5.2465   -4.1439    0.0000 O    0  0  0  0  0  0  0  0  0  0  0  0
    3.9359   -1.5519    0.0000 O    0  0  0  0  0  0  0  0  0  0  0  0
    6.3157   -1.1775    0.0000 C    0  0  0  0  0  0  0  0  0  0  0  0
    4.8928   -1.0984    0.0000 O    0  0  0  0  0  0  0  0  0  0  0  0
    2.1386   -3.4616    0.0000 C    0  0  0  0  0  0  0  0  0  0  0  0
    7.0022   -1.6268    0.0000 C    0  0  0  0  0  0  0  0  0  0  0  0
    6.3532   -0.3537    0.0000 C    0  0  0  0  0  0  0  0  0  0  0  0
    7.7803   -0.4411    0.0000 C    0  0  0  0  0  0  0  0  0  0  0  0
    1.0859   -4.7472    0.0000 C    0  0  0  0  0  0  0  0  0  0  0  0
    7.0938    0.0125    0.0000 C    0  0  0  0  0  0  0  0  0  0  0  0
    7.7304   -1.2648    0.0000 C    0  0  0  0  0  0  0  0  0  0  0  0
    8.5250   -0.0749    0.0000 Cl   0  0  0  0  0  0  0  0  0  0  0  0
    2.4256   -4.2355    0.0000 C    0  0  0  0  0  0  0  0  0  0  0  0
    1.3148   -3.3243    0.0000 C    0  0  0  0  0  0  0  0  0  0  0  0
    1.9014   -4.8721    0.0000 C    0  0  0  0  0  0  0  0  0  0  0  0
    0.7905   -3.9609    0.0000 C    0  0  0  0  0  0  0  0  0  0  0  0
    0.8529   -6.1577    0.0000 C    0  0  0  0  0  0  0  0  0  0  0  0
    0.5617   -5.3921    0.0000 O    0  0  0  0  0  0  0  0  0  0  0  0
  2  1  1  0  0  0  0
  3  1  1  0  0  0  0
  4  3  1  0  0  0  0
  5  2  1  0  0  0  0
  5  4  1  0  0  0  0
  6  1  1  0  0  0  0
  7  4  2  0  0  0  0
  8  6  1  0  0  0  0
  9 27  1  0  0  0  0
 10  9  3  0  0  0  0
 11  2  2  0  0  0  0
 12  3  2  0  0  0  0
 13  8  1  0  0  0  0
 14  8  2  0  0  0  0
 15  7  1  0  0  0  0
 16 13  2  0  0  0  0
 17 13  1  0  0  0  0
 18 20  1  0  0  0  0
 18 21  2  0  0  0  0
 19 26  2  0  0  0  0
 19 25  1  0  0  0  0
 20 17  2  0  0  0  0
 21 16  1  0  0  0  0
 22 18  1  0  0  0  0
 23 15  1  0  0  0  0
 24 15  2  0  0  0  0
 25 23  2  0  0  0  0
 26 24  1  0  0  0  0
 27 28  1  0  0  0  0
 28 19  1  0  0  0  0
M  END
> <CdId>
858

> <Mol Weight>
411.858

> <Formula>
C21H14ClNO4S

> <Click_ID>
CLK012_C03 __ __ 

$$$$
