CLK043E05
 OpenBabel03181417022D

 19 20  0  0  0  0  0  0  0  0999 V2000
   -0.0417   -0.1917    0.0000 C   0  0  0  0  0  0  0  0  0  0  0  0
    0.6750    0.2208    0.0000 N   0  0  0  0  0  0  0  0  0  0  0  0
   -0.0417   -1.0167    0.0000 C   0  0  0  0  0  0  0  0  0  0  0  0
   -0.7542    2.6958    0.0000 C   0  0  0  0  0  0  0  0  0  0  0  0
   -1.4667    3.1083    0.0000 C   0  0  0  0  0  0  0  0  0  0  0  0
   -0.7542   -1.4292    0.0000 C   0  0  0  0  0  0  0  0  0  0  0  0
   -0.7542   -2.2542    0.0000 C   0  0  0  0  0  0  0  0  0  0  0  0
   -0.7542    0.2208    0.0000 O   0  0  0  0  0  0  0  0  0  0  0  0
   -0.0417   -2.6667    0.0000 C   0  0  0  0  0  0  0  0  0  0  0  0
    0.6750    1.0458    0.0000 C   0  0  0  0  0  0  0  0  0  0  0  0
    0.6750   -1.4292    0.0000 C   0  0  0  0  0  0  0  0  0  0  0  0
    0.6750   -2.2542    0.0000 C   0  0  0  0  0  0  0  0  0  0  0  0
   -0.0417    2.2833    0.0000 C   0  0  0  0  0  0  0  0  0  0  0  0
   -0.0417    1.4583    0.0000 C   0  0  0  0  0  0  0  0  0  0  0  0
   -1.4667   -2.6667    0.0000 F   0  0  0  0  0  0  0  0  0  0  0  0
    1.3875    2.2833    0.0000 C   0  0  0  0  0  0  0  0  0  0  0  0
    1.3875    1.4583    0.0000 C   0  0  0  0  0  0  0  0  0  0  0  0
   -0.0417   -3.4917    0.0000 C   0  0  0  0  0  0  0  0  0  0  0  0
    0.6750    2.6958    0.0000 C   0  0  0  0  0  0  0  0  0  0  0  0
  2  1  1  0  0  0  0
  3  1  1  0  0  0  0
  4 13  1  0  0  0  0
  5  4  3  0  0  0  0
  6  3  2  0  0  0  0
  7  6  1  0  0  0  0
  8  1  2  0  0  0  0
  9  7  2  0  0  0  0
 10  2  1  0  0  0  0
 11  3  1  0  0  0  0
 12 11  2  0  0  0  0
 12  9  1  0  0  0  0
 13 14  1  0  0  0  0
 14 10  2  0  0  0  0
 15  7  1  0  0  0  0
 16 17  2  0  0  0  0
 17 10  1  0  0  0  0
 18  9  1  0  0  0  0
 19 13  2  0  0  0  0
 19 16  1  0  0  0  0
M  END
> <CdId>
3277

> <Mol Weight>
253.271

> <Formula>
C16H12FNO

> <Click_ID>
CLK043E05 __ __ 

$$$$
