CLK021_B08
 OpenBabel03181417022D

 15 16  0  0  0  0  0  0  0  0999 V2000
    6.3159    2.5941    0.0000 C   0  0  0  0  0  0  0  0  0  0  0  0
    6.2287    1.7691    0.0000 N   0  0  0  0  0  0  0  0  0  0  0  0
    5.5596    2.9241    0.0000 N   0  0  0  0  0  0  0  0  0  0  0  0
    5.0096    2.3100    0.0000 C   0  0  0  0  0  0  0  0  0  0  0  0
    5.4221    1.5950    0.0000 C   0  0  0  0  0  0  0  0  0  0  0  0
    4.6062    3.9875    0.0000 C   0  0  0  0  0  0  0  0  0  0  0  0
    3.8225    4.2441    0.0000 C   0  0  0  0  0  0  0  0  0  0  0  0
    7.0309    3.0066    0.0000 C   0  0  3  0  0  0  0  0  0  0  0  0
    5.3900    3.7354    0.0000 C   0  0  0  0  0  0  0  0  0  0  0  0
    7.7459    2.5941    0.0000 O   0  0  0  0  0  0  0  0  0  0  0  0
    4.1846    2.3100    0.0000 C   0  0  0  0  0  0  0  0  0  0  0  0
    5.0096    0.8891    0.0000 C   0  0  0  0  0  0  0  0  0  0  0  0
    7.0309    3.8316    0.0000 C   0  0  0  0  0  0  0  0  0  0  0  0
    3.7721    1.5950    0.0000 C   0  0  0  0  0  0  0  0  0  0  0  0
    4.1846    0.8891    0.0000 C   0  0  0  0  0  0  0  0  0  0  0  0
  2  1  2  0  0  0  0
  3  1  1  0  0  0  0
  4  3  1  0  0  0  0
  5  2  1  0  0  0  0
  5  4  1  0  0  0  0
  6  9  1  0  0  0  0
  7  6  3  0  0  0  0
  8  1  1  0  0  0  0
  9  3  1  0  0  0  0
 10  8  1  0  0  0  0
 11  4  2  0  0  0  0
 12  5  2  0  0  0  0
 13  8  1  0  0  0  0
 14 11  1  0  0  0  0
 15 12  1  0  0  0  0
 15 14  2  0  0  0  0
M  END
> <CdId>
1573

> <Mol Weight>
200.2365

> <Formula>
C12H12N2O

> <Click_ID>
CLK021_B08 __ __ 

$$$$
