CLK013_F08
 OpenBabel03181417022D

 24 25  0  0  0  0  0  0  0  0999 V2000
    5.8868   -2.9725    0.0000 N   0  0  0  0  0  0  0  0  0  0  0  0
    5.1135   -3.2718    0.0000 C   0  0  0  0  0  0  0  0  0  0  0  0
    5.8411   -2.1494    0.0000 C   0  0  0  0  0  0  0  0  0  0  0  0
    5.0429   -1.9332    0.0000 C   0  0  0  0  0  0  0  0  0  0  0  0
    4.5939   -2.6233    0.0000 S   0  0  0  0  0  0  0  0  0  0  0  0
    4.7560   -1.1641    0.0000 C   0  0  0  0  0  0  0  0  0  0  0  0
    2.3073   -0.7733    0.0000 C   0  0  0  0  0  0  0  0  0  0  0  0
    2.5984   -1.5382    0.0000 C   0  0  0  0  0  0  0  0  0  0  0  0
    2.8311   -0.1289    0.0000 C   0  0  0  0  0  0  0  0  0  0  0  0
    3.9411   -1.0352    0.0000 C   0  0  0  0  0  0  0  0  0  0  0  0
    0.1621   -1.1516    0.0000 C   0  0  0  0  0  0  0  0  0  0  0  0
   -0.6485   -1.0144    0.0000 C   0  0  0  0  0  0  0  0  0  0  0  0
    4.9015   -4.0576    0.0000 O   0  0  0  0  0  0  0  0  0  0  0  0
    3.4173   -1.6754    0.0000 C   0  0  0  0  0  0  0  0  0  0  0  0
    6.4896   -1.6338    0.0000 O   0  0  0  0  0  0  0  0  0  0  0  0
    3.6460   -0.2619    0.0000 C   0  0  0  0  0  0  0  0  0  0  0  0
    6.5769   -3.4215    0.0000 C   0  0  0  0  0  0  0  0  0  0  0  0
    2.0870   -2.1743    0.0000 I   0  0  0  0  0  0  0  0  0  0  0  0
    1.4884   -0.6403    0.0000 O   0  0  0  0  0  0  0  0  0  0  0  0
    2.5318    0.6444    0.0000 O   0  0  0  0  0  0  0  0  0  0  0  0
    0.9728   -1.2763    0.0000 C   0  0  0  0  0  0  0  0  0  0  0  0
    1.7128    0.7691    0.0000 C   0  0  0  0  0  0  0  0  0  0  0  0
    6.5270   -4.2446    0.0000 C   0  0  0  0  0  0  0  0  0  0  0  0
    1.4260    1.5423    0.0000 C   0  0  0  0  0  0  0  0  0  0  0  0
  2  1  1  0  0  0  0
  3  1  1  0  0  0  0
  4  3  1  0  0  0  0
  5  2  1  0  0  0  0
  5  4  1  0  0  0  0
  6  4  2  0  0  0  0
  7  9  2  0  0  0  0
  7  8  1  0  0  0  0
  8 14  2  0  0  0  0
  9 16  1  0  0  0  0
 10  6  1  0  0  0  0
 11 21  1  0  0  0  0
 12 11  3  0  0  0  0
 13  2  2  0  0  0  0
 14 10  1  0  0  0  0
 15  3  2  0  0  0  0
 16 10  2  0  0  0  0
 17  1  1  0  0  0  0
 18  8  1  0  0  0  0
 19  7  1  0  0  0  0
 20  9  1  0  0  0  0
 21 19  1  0  0  0  0
 22 20  1  0  0  0  0
 23 17  1  0  0  0  0
 24 22  1  0  0  0  0
M  END
> <CdId>
973

> <Mol Weight>
457.283

> <Formula>
C17H16INO4S

> <Click_ID>
CLK013_F08 __ __ 

$$$$
