CLK014_D02
 OpenBabel03181417022D

 25 27  0  0  0  0  0  0  0  0999 V2000
    1.5650   -0.8158    0.0000 N   0  0  0  0  0  0  0  0  0  0  0  0
    1.8230   -1.6024    0.0000 C   0  0  0  0  0  0  0  0  0  0  0  0
    2.9010   -0.8158    0.0000 C   0  0  0  0  0  0  0  0  0  0  0  0
    2.2350   -0.3288    0.0000 C   0  0  0  0  0  0  0  0  0  0  0  0
    2.6470   -1.6024    0.0000 S   0  0  0  0  0  0  0  0  0  0  0  0
    3.9706   -0.4662    0.0000 C   0  0  0  0  0  0  0  0  0  0  0  0
    4.1371    0.3371    0.0000 C   0  0  0  0  0  0  0  0  0  0  0  0
    4.9237    0.5951    0.0000 C   0  0  0  0  0  0  0  0  0  0  0  0
    0.6118    0.2455    0.0000 C   0  0  0  0  0  0  0  0  0  0  0  0
    0.3913    1.0446    0.0000 C   0  0  0  0  0  0  0  0  0  0  0  0
    1.3360   -2.2642    0.0000 O   0  0  0  0  0  0  0  0  0  0  0  0
    3.5253    0.8865    0.0000 C   0  0  0  0  0  0  0  0  0  0  0  0
    2.2267    0.4952    0.0000 O   0  0  0  0  0  0  0  0  0  0  0  0
    5.0860    1.3984    0.0000 C   0  0  0  0  0  0  0  0  0  0  0  0
    5.5355    0.0457    0.0000 C   0  0  0  0  0  0  0  0  0  0  0  0
    0.7866   -0.5619    0.0000 C   0  0  0  0  0  0  0  0  0  0  0  0
    3.6959    1.6856    0.0000 C   0  0  0  0  0  0  0  0  0  0  0  0
    4.4742    1.9561    0.0000 C   0  0  0  0  0  0  0  0  0  0  0  0
    5.8602    1.6689    0.0000 C   0  0  0  0  0  0  0  0  0  0  0  0
    6.3179    0.3080    0.0000 C   0  0  0  0  0  0  0  0  0  0  0  0
    6.4845    1.1113    0.0000 C   0  0  0  0  0  0  0  0  0  0  0  0
    2.7386    0.6326    0.0000 O   0  0  0  0  0  0  0  0  0  0  0  0
    6.9340   -0.2414    0.0000 O   0  0  0  0  0  0  0  0  0  0  0  0
    2.1268    1.1820    0.0000 C   0  0  0  0  0  0  0  0  0  0  0  0
    7.7164    0.0208    0.0000 C   0  0  0  0  0  0  0  0  0  0  0  0
  2  1  1  0  0  0  0
  3  4  1  0  0  0  0
  4  1  1  0  0  0  0
  5  2  1  0  0  0  0
  5  3  1  0  0  0  0
  6  3  2  0  0  0  0
  7  6  1  0  0  0  0
  8  7  2  0  0  0  0
  9 16  1  0  0  0  0
 10  9  3  0  0  0  0
 11  2  2  0  0  0  0
 12  7  1  0  0  0  0
 13  4  2  0  0  0  0
 14  8  1  0  0  0  0
 15  8  1  0  0  0  0
 16  1  1  0  0  0  0
 17 12  2  0  0  0  0
 18 17  1  0  0  0  0
 18 14  2  0  0  0  0
 19 14  1  0  0  0  0
 20 15  2  0  0  0  0
 21 20  1  0  0  0  0
 21 19  2  0  0  0  0
 22 12  1  0  0  0  0
 23 20  1  0  0  0  0
 24 22  1  0  0  0  0
 25 23  1  0  0  0  0
M  END
> <CdId>
1027

> <Mol Weight>
353.392

> <Formula>
C19H15NO4S

> <Click_ID>
CLK014_D02 __ __ 

$$$$
