CLK018_D10
 OpenBabel03181417022D

 27 29  0  0  0  0  0  0  0  0999 V2000
    2.4095   -1.5850    0.0000 N    0  0  0  0  0  0  0  0  0  0  0  0
    0.9803   -1.5850    0.0000 C    0  0  0  0  0  0  0  0  0  0  0  0
    1.6949   -1.1727    0.0000 C    0  0  0  0  0  0  0  0  0  0  0  0
    2.4095   -2.4095    0.0000 C    0  0  0  0  0  0  0  0  0  0  0  0
    1.6949   -2.8218    0.0000 N    0  0  0  0  0  0  0  0  0  0  0  0
    0.9803   -2.4095    0.0000 C    0  0  0  0  0  0  0  0  0  0  0  0
    0.2657   -1.1727    0.0000 C    0  0  0  0  0  0  0  0  0  0  0  0
    3.1241   -1.1727    0.0000 C    0  0  0  0  0  0  0  0  0  0  0  0
   -2.5927    1.3009    0.0000 C    0  0  0  0  0  0  0  0  0  0  0  0
    3.1241   -2.8218    0.0000 O    0  0  0  0  0  0  0  0  0  0  0  0
   -3.3073    0.8886    0.0000 C    0  0  0  0  0  0  0  0  0  0  0  0
    1.6949   -0.3482    0.0000 O    0  0  0  0  0  0  0  0  0  0  0  0
    0.2657   -2.8218    0.0000 O    0  0  0  0  0  0  0  0  0  0  0  0
    0.2657   -0.3482    0.0000 C    0  0  0  0  0  0  0  0  0  0  0  0
    3.1241   -0.3482    0.0000 C    0  0  0  0  0  0  0  0  0  0  0  0
    3.8387   -1.5850    0.0000 C    0  0  0  0  0  0  0  0  0  0  0  0
   -0.4489    0.0641    0.0000 C    0  0  0  0  0  0  0  0  0  0  0  0
    4.5533   -0.3482    0.0000 C    0  0  0  0  0  0  0  0  0  0  0  0
    3.8387    0.0641    0.0000 C    0  0  0  0  0  0  0  0  0  0  0  0
    4.5533   -1.1727    0.0000 C    0  0  0  0  0  0  0  0  0  0  0  0
   -0.4489    0.8886    0.0000 C    0  0  0  0  0  0  0  0  0  0  0  0
    5.2679    0.0641    0.0000 Br   0  0  0  0  0  0  0  0  0  0  0  0
   -1.8781    0.8886    0.0000 C    0  0  0  0  0  0  0  0  0  0  0  0
   -1.1635    1.3009    0.0000 O    0  0  0  0  0  0  0  0  0  0  0  0
    0.9803    0.8886    0.0000 C    0  0  0  0  0  0  0  0  0  0  0  0
    0.9803    0.0641    0.0000 C    0  0  0  0  0  0  0  0  0  0  0  0
    0.2657    1.3009    0.0000 C    0  0  0  0  0  0  0  0  0  0  0  0
  2  3  1  0  0  0  0
  3  1  1  0  0  0  0
  4  1  1  0  0  0  0
  5  4  1  0  0  0  0
  6  5  1  0  0  0  0
  6  2  1  0  0  0  0
  7  2  2  0  0  0  0
  8  1  1  0  0  0  0
  9 23  1  0  0  0  0
 10  4  2  0  0  0  0
 11  9  3  0  0  0  0
 12  3  2  0  0  0  0
 13  6  2  0  0  0  0
 14  7  1  0  0  0  0
 15  8  2  0  0  0  0
 16  8  1  0  0  0  0
 17 14  2  0  0  0  0
 18 20  1  0  0  0  0
 18 19  2  0  0  0  0
 19 15  1  0  0  0  0
 20 16  2  0  0  0  0
 21 17  1  0  0  0  0
 22 18  1  0  0  0  0
 23 24  1  0  0  0  0
 24 21  1  0  0  0  0
 25 26  2  0  0  0  0
 26 14  1  0  0  0  0
 27 25  1  0  0  0  0
 27 21  2  0  0  0  0
M  END
> <CdId>
1355

> <Mol Weight>
425.232

> <Formula>
C20H13BrN2O4

> <Click_ID>
CLK018_D10 __ __ 

$$$$
