CLK027_A02
 OpenBabel03181417022D

 13 15  0  0  0  0  0  0  0  0999 V2000
   -0.3284   -0.1201    0.0000 C   0  0  3  0  0  0  0  0  0  0  0  0
    0.5721   -0.1201    0.0000 C   0  0  0  0  0  0  0  0  0  0  0  0
    1.4126   -0.1201    0.0000 C   0  0  0  0  0  0  0  0  0  0  0  0
   -1.7657   -0.1201    0.0000 C   0  0  3  0  0  0  0  0  0  0  0  0
   -1.4550   -0.7062    0.0000 C   0  0  3  0  0  0  0  0  0  0  0  0
   -1.0700    1.0347    0.0000 C   0  0  3  0  0  0  0  0  0  0  0  0
   -0.3284    0.7168    0.0000 C   0  0  0  0  0  0  0  0  0  0  0  0
   -1.0382   -0.4697    0.0000 C   0  0  0  0  0  0  0  0  0  0  0  0
   -0.8193   -1.0312    0.0000 C   0  0  0  0  0  0  0  0  0  0  0  0
   -2.2671   -0.8511    0.0000 C   0  0  0  0  0  0  0  0  0  0  0  0
   -1.7657    0.6498    0.0000 C   0  0  0  0  0  0  0  0  0  0  0  0
   -1.4550    0.4308    0.0000 C   0  0  0  0  0  0  0  0  0  0  0  0
    2.2636   -0.1201    0.0000 I   0  0  0  0  0  0  0  0  0  0  0  0
  2  1  1  0  0  0  0
  3  2  3  0  0  0  0
  4  8  1  0  0  0  0
  5  9  1  0  0  0  0
  6  7  1  0  0  0  0
  6 11  1  0  0  0  0
  7  1  1  0  0  0  0
  8  1  1  0  0  0  0
  9  1  1  0  0  0  0
 10  5  1  0  0  0  0
 10  4  1  0  0  0  0
 11  4  1  0  0  0  0
 12  5  1  0  0  0  0
 12  6  1  0  0  0  0
 13  3  1  0  0  0  0
M  END
> <CdId>
2017

> <Mol Weight>
286.152

> <Formula>
C12H15I

> <Click_ID>
CLK027_A02 __ __ 

$$$$
