CLK034_B10
 OpenBabel03181417022D

 21 23  0  0  0  0  0  0  0  0999 V2000
   -4.5644    2.5395    0.0000 C   0  0  0  0  0  0  0  0  0  0  0  0
   -3.8549    2.9586    0.0000 N   0  0  0  0  0  0  0  0  0  0  0  0
   -4.6640    1.7262    0.0000 N   0  0  0  0  0  0  0  0  0  0  0  0
   -5.2989    2.8839    0.0000 S   0  0  0  0  0  0  0  0  0  0  0  0
   -5.4649    1.5685    0.0000 C   0  0  0  0  0  0  0  0  0  0  0  0
   -3.8549    3.7844    0.0000 C   0  0  0  0  0  0  0  0  0  0  0  0
   -5.8715    2.2864    0.0000 C   0  0  0  0  0  0  0  0  0  0  0  0
   -3.1453    4.1952    0.0000 C   0  0  0  0  0  0  0  0  0  0  0  0
   -2.7262    4.9089    0.0000 C   0  0  0  0  0  0  0  0  0  0  0  0
   -2.3154    4.1952    0.0000 C   0  0  0  0  0  0  0  0  0  0  0  0
   -4.2325    0.3486    0.0000 C   0  0  0  0  0  0  0  0  0  0  0  0
   -4.4151   -0.4606    0.0000 C   0  0  0  0  0  0  0  0  0  0  0  0
   -5.8882    0.8672    0.0000 C   0  0  0  0  0  0  0  0  0  0  0  0
   -4.5769    4.1869    0.0000 O   0  0  0  0  0  0  0  0  0  0  0  0
   -4.0458    1.1535    0.0000 C   0  0  0  0  0  0  0  0  0  0  0  0
   -6.6766    2.3030    0.0000 C   0  0  0  0  0  0  0  0  0  0  0  0
   -5.4981    0.1369    0.0000 O   0  0  0  0  0  0  0  0  0  0  0  0
   -7.1123    1.6017    0.0000 C   0  0  0  0  0  0  0  0  0  0  0  0
   -6.7015    0.8797    0.0000 C   0  0  0  0  0  0  0  0  0  0  0  0
   -5.9213   -0.5644    0.0000 C   0  0  0  0  0  0  0  0  0  0  0  0
   -5.5396   -1.2739    0.0000 C   0  0  0  0  0  0  0  0  0  0  0  0
  2  1  2  0  0  0  0
  3  1  1  0  0  0  0
  4  1  1  0  0  0  0
  5  3  1  0  0  0  0
  6  2  1  0  0  0  0
  7  4  1  0  0  0  0
  7  5  2  0  0  0  0
  8  6  1  0  0  0  0
  9  8  1  0  0  0  0
 10  8  1  0  0  0  0
 10  9  1  0  0  0  0
 11 15  1  0  0  0  0
 12 11  3  0  0  0  0
 13  5  1  0  0  0  0
 14  6  2  0  0  0  0
 15  3  1  0  0  0  0
 16  7  1  0  0  0  0
 17 13  1  0  0  0  0
 18 16  2  0  0  0  0
 19 13  2  0  0  0  0
 19 18  1  0  0  0  0
 20 17  1  0  0  0  0
 21 20  1  0  0  0  0
M  END
> <CdId>
2584

> <Mol Weight>
300.375

> <Formula>
C16H16N2O2S

> <Click_ID>
CLK034_B10 __ __ 

$$$$
