CLK047F09
 OpenBabel03181417022D

 22 23  0  0  0  0  0  0  0  0999 V2000
   -0.5667    1.6375    0.0000 S   0  0  0  0  0  0  0  0  0  0  0  0
   -0.0833    0.9708    0.0000 N   0  0  0  0  0  0  0  0  0  0  0  0
   -0.5667    0.3000    0.0000 C   0  0  0  0  0  0  0  0  0  0  0  0
   -1.3542    0.5583    0.0000 C   0  0  0  0  0  0  0  0  0  0  0  0
   -1.3542    1.3833    0.0000 C   0  0  0  0  0  0  0  0  0  0  0  0
   -0.3125   -0.4833    0.0000 N   0  0  0  0  0  0  0  0  0  0  0  0
    0.4958   -0.6542    0.0000 C   0  0  3  0  0  0  0  0  0  0  0  0
   -0.5583    2.4625    0.0000 O   0  0  0  0  0  0  0  0  0  0  0  0
   -0.0917    2.3125    0.0000 O   0  0  0  0  0  0  0  0  0  0  0  0
    0.7500   -1.4375    0.0000 C   0  0  0  0  0  0  0  0  0  0  0  0
    2.6167   -2.5667    0.0000 C   0  0  0  0  0  0  0  0  0  0  0  0
    3.4250   -2.7375    0.0000 C   0  0  0  0  0  0  0  0  0  0  0  0
    0.1958   -2.0542    0.0000 O   0  0  0  0  0  0  0  0  0  0  0  0
    1.5542   -1.6125    0.0000 N   0  0  0  0  0  0  0  0  0  0  0  0
    1.0458   -0.0417    0.0000 C   0  0  0  0  0  0  0  0  0  0  0  0
   -2.0667    0.1458    0.0000 C   0  0  0  0  0  0  0  0  0  0  0  0
    1.8125   -2.3958    0.0000 C   0  0  0  0  0  0  0  0  0  0  0  0
   -2.0667    1.7958    0.0000 C   0  0  0  0  0  0  0  0  0  0  0  0
    0.7917    0.7417    0.0000 C   0  0  0  0  0  0  0  0  0  0  0  0
    1.8542   -0.2125    0.0000 C   0  0  0  0  0  0  0  0  0  0  0  0
   -2.7833    0.5583    0.0000 C   0  0  0  0  0  0  0  0  0  0  0  0
   -2.7833    1.3833    0.0000 C   0  0  0  0  0  0  0  0  0  0  0  0
  2  1  1  0  0  0  0
  3  2  2  0  0  0  0
  4  5  2  0  0  0  0
  4  3  1  0  0  0  0
  5  1  1  0  0  0  0
  6  3  1  0  0  0  0
  7  6  1  0  0  0  0
  8  1  2  0  0  0  0
  9  1  2  0  0  0  0
 10  7  1  0  0  0  0
 11 17  1  0  0  0  0
 12 11  3  0  0  0  0
 13 10  2  0  0  0  0
 14 10  1  0  0  0  0
 15  7  1  0  0  0  0
 16  4  1  0  0  0  0
 17 14  1  0  0  0  0
 18  5  1  0  0  0  0
 19 15  1  0  0  0  0
 20 15  1  0  0  0  0
 21 16  2  0  0  0  0
 21 22  1  0  0  0  0
 22 18  2  0  0  0  0
M  END
> <CdId>
3630

> <Mol Weight>
319.379

> <Formula>
C15H17N3O3S

> <Click_ID>
CLK047F09 __ __ 

$$$$
