CLK048B11
 OpenBabel03181417022D

 21 22  0  0  0  0  0  0  0  0999 V2000
    0.7750    0.1542    0.0000 C    0  0  0  0  0  0  0  0  0  0  0  0
   -0.4958    0.5667    0.0000 N    0  0  0  0  0  0  0  0  0  0  0  0
   -0.0125   -0.1000    0.0000 C    0  0  0  0  0  0  0  0  0  0  0  0
   -0.0125    1.2333    0.0000 N    0  0  0  0  0  0  0  0  0  0  0  0
    0.7750    0.9792    0.0000 C    0  0  0  0  0  0  0  0  0  0  0  0
    1.4417   -0.3292    0.0000 C    0  0  0  0  0  0  0  0  0  0  0  0
   -1.3208    0.5667    0.0000 C    0  0  0  0  0  0  0  0  0  0  0  0
    3.6167   -0.1417    0.0000 C    0  0  0  0  0  0  0  0  0  0  0  0
    4.3708    0.1917    0.0000 C    0  0  0  0  0  0  0  0  0  0  0  0
   -1.7333   -0.1458    0.0000 C    0  0  0  0  0  0  0  0  0  0  0  0
    1.3542   -1.1500    0.0000 O    0  0  0  0  0  0  0  0  0  0  0  0
   -0.2667   -0.8833    0.0000 C    0  0  0  0  0  0  0  0  0  0  0  0
    2.1958    0.0042    0.0000 N    0  0  0  0  0  0  0  0  0  0  0  0
   -2.5583   -0.1458    0.0000 C    0  0  0  0  0  0  0  0  0  0  0  0
   -2.9708   -0.8625    0.0000 Cl   0  0  0  0  0  0  0  0  0  0  0  0
    2.8625   -0.4792    0.0000 C    0  0  0  0  0  0  0  0  0  0  0  0
   -1.7333    1.2833    0.0000 C    0  0  0  0  0  0  0  0  0  0  0  0
   -2.5583    1.2833    0.0000 C    0  0  0  0  0  0  0  0  0  0  0  0
   -2.9708    0.5667    0.0000 C    0  0  0  0  0  0  0  0  0  0  0  0
   -1.0750   -1.0542    0.0000 C    0  0  0  0  0  0  0  0  0  0  0  0
    0.2875   -1.4958    0.0000 C    0  0  0  0  0  0  0  0  0  0  0  0
  2  3  1  0  0  0  0
  2  4  1  0  0  0  0
  3  1  2  0  0  0  0
  4  5  2  0  0  0  0
  5  1  1  0  0  0  0
  6  1  1  0  0  0  0
  7  2  1  0  0  0  0
  8 16  1  0  0  0  0
  9  8  3  0  0  0  0
 10  7  2  0  0  0  0
 11  6  2  0  0  0  0
 12  3  1  0  0  0  0
 13  6  1  0  0  0  0
 14 10  1  0  0  0  0
 15 14  1  0  0  0  0
 16 13  1  0  0  0  0
 17  7  1  0  0  0  0
 18 17  2  0  0  0  0
 19 14  2  0  0  0  0
 19 18  1  0  0  0  0
 20 12  1  0  0  0  0
 21 12  1  0  0  0  0
M  END
> <CdId>
3722

> <Mol Weight>
301.771

> <Formula>
C16H16ClN3O

> <Click_ID>
CLK048B11 __ __ 

$$$$
