CLK028_D04
 OpenBabel03181417022D

 27 29  0  0  0  0  0  0  0  0999 V2000
   -2.2207    1.0072    0.0000 C    0  0  0  0  0  0  0  0  0  0  0  0
   -2.6984    0.3472    0.0000 O    0  0  0  0  0  0  0  0  0  0  0  0
   -2.7087    1.6844    0.0000 C    0  0  0  0  0  0  0  0  0  0  0  0
   -1.3957    1.0141    0.0000 C    0  0  0  0  0  0  0  0  0  0  0  0
   -3.4856    1.4266    0.0000 C    0  0  0  0  0  0  0  0  0  0  0  0
    2.7397   -0.4057    0.0000 C    0  0  0  0  0  0  0  0  0  0  0  0
   -3.4856    0.6016    0.0000 C    0  0  0  0  0  0  0  0  0  0  0  0
    2.3272   -1.1172    0.0000 C    0  0  0  0  0  0  0  0  0  0  0  0
    2.3203    0.3128    0.0000 C    0  0  0  0  0  0  0  0  0  0  0  0
    4.7953    0.3197    0.0000 C    0  0  0  0  0  0  0  0  0  0  0  0
    5.6203    0.3265    0.0000 C    0  0  0  0  0  0  0  0  0  0  0  0
   -0.1512    0.2991    0.0000 N    0  0  0  0  0  0  0  0  0  0  0  0
   -0.9832    0.2991    0.0000 N    0  0  0  0  0  0  0  0  0  0  0  0
    1.5056   -1.1172    0.0000 C    0  0  0  0  0  0  0  0  0  0  0  0
    1.4918    0.3094    0.0000 C    0  0  0  0  0  0  0  0  0  0  0  0
   -4.1972    1.8356    0.0000 C    0  0  0  0  0  0  0  0  0  0  0  0
   -0.9832    1.7360    0.0000 O    0  0  0  0  0  0  0  0  0  0  0  0
    1.0931   -0.4057    0.0000 C    0  0  0  0  0  0  0  0  0  0  0  0
   -4.1903    0.1856    0.0000 C    0  0  0  0  0  0  0  0  0  0  0  0
    0.2681   -0.4125    0.0000 C    0  0  0  0  0  0  0  0  0  0  0  0
    2.7431   -1.8322    0.0000 Cl   0  0  0  0  0  0  0  0  0  0  0  0
    2.7260    1.0347    0.0000 Cl   0  0  0  0  0  0  0  0  0  0  0  0
   -4.9122    1.4197    0.0000 C    0  0  0  0  0  0  0  0  0  0  0  0
    3.5578   -0.4022    0.0000 O    0  0  0  0  0  0  0  0  0  0  0  0
   -4.9122    0.6016    0.0000 C    0  0  0  0  0  0  0  0  0  0  0  0
   -5.6203    1.8356    0.0000 Cl   0  0  0  0  0  0  0  0  0  0  0  0
    3.9703    0.3197    0.0000 C    0  0  0  0  0  0  0  0  0  0  0  0
  2  1  1  0  0  0  0
  3  1  2  0  0  0  0
  4  1  1  0  0  0  0
  5  3  1  0  0  0  0
  6  9  1  0  0  0  0
  6  8  2  0  0  0  0
  7  2  1  0  0  0  0
  7  5  2  0  0  0  0
  8 14  1  0  0  0  0
  9 15  2  0  0  0  0
 10 27  1  0  0  0  0
 11 10  3  0  0  0  0
 12 13  1  0  0  0  0
 13  4  1  0  0  0  0
 14 18  2  0  0  0  0
 15 18  1  0  0  0  0
 16  5  1  0  0  0  0
 17  4  2  0  0  0  0
 18 20  1  0  0  0  0
 19  7  1  0  0  0  0
 20 12  2  0  0  0  0
 21  8  1  0  0  0  0
 22  9  1  0  0  0  0
 23 16  2  0  0  0  0
 24  6  1  0  0  0  0
 25 19  2  0  0  0  0
 25 23  1  0  0  0  0
 26 23  1  0  0  0  0
 27 24  1  0  0  0  0
M  END
> <CdId>
2118

> <Mol Weight>
421.661

> <Formula>
C19H11Cl3N2O3

> <Click_ID>
CLK028_D04 __ __ 

$$$$
