CLK006_C10
 OpenBabel03181417022D

 26 28  0  0  0  0  0  0  0  0999 V2000
    6.7641  -22.9986    0.0000 C   0  0  0  0  0  0  0  0  0  0  0  0
    6.7641  -22.1754    0.0000 C   0  0  0  0  0  0  0  0  0  0  0  0
    6.0532  -23.4102    0.0000 N   0  0  0  0  0  0  0  0  0  0  0  0
    6.0532  -21.7638    0.0000 C   0  0  0  0  0  0  0  0  0  0  0  0
    5.3381  -22.1754    0.0000 N   0  0  0  0  0  0  0  0  0  0  0  0
    5.3381  -22.9986    0.0000 C   0  0  0  0  0  0  0  0  0  0  0  0
    7.4750  -21.7638    0.0000 C   0  0  3  0  0  0  0  0  0  0  0  0
    7.4750  -23.4102    0.0000 N   0  0  0  0  0  0  0  0  0  0  0  0
    8.9051  -20.9449    0.0000 C   0  0  0  0  0  0  0  0  0  0  0  0
    7.4750  -20.9365    0.0000 C   0  0  0  0  0  0  0  0  0  0  0  0
    8.1900  -22.9986    0.0000 C   0  0  0  0  0  0  0  0  0  0  0  0
    8.1859  -20.5249    0.0000 C   0  0  0  0  0  0  0  0  0  0  0  0
    8.1900  -22.1754    0.0000 C   0  0  0  0  0  0  0  0  0  0  0  0
    3.9038  -24.6449    0.0000 C   0  0  0  0  0  0  0  0  0  0  0  0
    3.1846  -25.0607    0.0000 C   0  0  0  0  0  0  0  0  0  0  0  0
    6.0532  -20.9407    0.0000 O   0  0  0  0  0  0  0  0  0  0  0  0
    8.9093  -23.4102    0.0000 O   0  0  0  0  0  0  0  0  0  0  0  0
    4.6189  -23.4102    0.0000 S   0  0  0  0  0  0  0  0  0  0  0  0
    8.4852  -21.6641    0.0000 F   0  0  0  0  0  0  0  0  0  0  0  0
    9.6243  -21.3647    0.0000 F   0  0  0  0  0  0  0  0  0  0  0  0
    9.3250  -20.2256    0.0000 F   0  0  0  0  0  0  0  0  0  0  0  0
    4.6147  -24.2333    0.0000 C   0  0  0  0  0  0  0  0  0  0  0  0
    6.7599  -20.5249    0.0000 C   0  0  0  0  0  0  0  0  0  0  0  0
    8.1859  -19.6977    0.0000 C   0  0  0  0  0  0  0  0  0  0  0  0
    6.7599  -19.6977    0.0000 C   0  0  0  0  0  0  0  0  0  0  0  0
    7.4750  -19.2861    0.0000 C   0  0  0  0  0  0  0  0  0  0  0  0
  2  1  2  0  0  0  0
  3  1  1  0  0  0  0
  4  2  1  0  0  0  0
  4  5  1  0  0  0  0
  5  6  1  0  0  0  0
  6  3  2  0  0  0  0
  7  2  1  0  0  0  0
  7 13  1  0  0  0  0
  8  1  1  0  0  0  0
  9 12  1  0  0  0  0
 10  7  1  0  0  0  0
 11  8  1  0  0  0  0
 12 10  2  0  0  0  0
 13 11  1  0  0  0  0
 14 22  1  0  0  0  0
 15 14  3  0  0  0  0
 16  4  2  0  0  0  0
 17 11  2  0  0  0  0
 18  6  1  0  0  0  0
 19  9  1  0  0  0  0
 20  9  1  0  0  0  0
 21  9  1  0  0  0  0
 22 18  1  0  0  0  0
 23 10  1  0  0  0  0
 24 12  1  0  0  0  0
 24 26  2  0  0  0  0
 25 23  2  0  0  0  0
 26 25  1  0  0  0  0
M  END
> <CdId>
429

> <Mol Weight>
379.356

> <Formula>
C17H12F3N3O2S

> <Click_ID>
CLK006_C10 __ __ 

$$$$
