CLK023_B11
 OpenBabel03181417022D

 29 30  0  0  0  0  0  0  0  0999 V2000
   -0.3580    0.2066    0.0000 C    0  0  0  0  0  0  0  0  0  0  0  0
   -1.0809    0.6231    0.0000 C    0  0  0  0  0  0  0  0  0  0  0  0
    0.3546    0.6231    0.0000 C    0  0  0  0  0  0  0  0  0  0  0  0
    2.5027   -0.6162    0.0000 C    0  0  0  0  0  0  0  0  0  0  0  0
   -0.3580   -0.6162    0.0000 C    0  0  0  0  0  0  0  0  0  0  0  0
    1.7867   -1.0259    0.0000 C    0  0  0  0  0  0  0  0  0  0  0  0
    2.5027    0.1997    0.0000 C    0  0  0  0  0  0  0  0  0  0  0  0
   -1.7901    0.2066    0.0000 N    0  0  0  0  0  0  0  0  0  0  0  0
    1.0637    0.2066    0.0000 C    0  0  0  0  0  0  0  0  0  0  0  0
   -0.3615   -1.4459    0.0000 N    0  0  0  0  0  0  0  0  0  0  0  0
    3.9383   -2.2721    0.0000 C    0  0  0  0  0  0  0  0  0  0  0  0
   -3.2222    1.8658    0.0000 C    0  0  0  0  0  0  0  0  0  0  0  0
    4.6509   -2.6817    0.0000 C    0  0  0  0  0  0  0  0  0  0  0  0
   -2.5027    1.4527    0.0000 C    0  0  0  0  0  0  0  0  0  0  0  0
    1.0775   -0.6162    0.0000 C    0  0  0  0  0  0  0  0  0  0  0  0
    1.7867    0.6231    0.0000 C    0  0  0  0  0  0  0  0  0  0  0  0
   -2.5131    0.6231    0.0000 C    0  0  0  0  0  0  0  0  0  0  0  0
   -1.0809    1.4527    0.0000 O    0  0  0  0  0  0  0  0  0  0  0  0
   -3.9451    1.4527    0.0000 C    0  0  0  0  0  0  0  0  0  0  0  0
   -3.9313    0.6231    0.0000 C    0  0  0  0  0  0  0  0  0  0  0  0
    1.7867   -1.8555    0.0000 Cl   0  0  0  0  0  0  0  0  0  0  0  0
    3.2050   -1.0259    0.0000 O    0  0  0  0  0  0  0  0  0  0  0  0
   -3.2222    2.6852    0.0000 Cl   0  0  0  0  0  0  0  0  0  0  0  0
   -3.2222    0.2066    0.0000 C    0  0  0  0  0  0  0  0  0  0  0  0
    3.2187    0.6197    0.0000 O    0  0  0  0  0  0  0  0  0  0  0  0
    3.2050   -1.8555    0.0000 C    0  0  0  0  0  0  0  0  0  0  0  0
   -4.6543    1.8658    0.0000 C    0  0  0  0  0  0  0  0  0  0  0  0
    3.9279    0.2066    0.0000 C    0  0  0  0  0  0  0  0  0  0  0  0
    4.6405    0.6197    0.0000 C    0  0  0  0  0  0  0  0  0  0  0  0
  2  1  1  0  0  0  0
  3  1  2  0  0  0  0
  4  7  2  0  0  0  0
  4  6  1  0  0  0  0
  5  1  1  0  0  0  0
  6 15  2  0  0  0  0
  7 16  1  0  0  0  0
  8  2  1  0  0  0  0
  9  3  1  0  0  0  0
 10  5  3  0  0  0  0
 11 26  1  0  0  0  0
 12 14  1  0  0  0  0
 13 11  3  0  0  0  0
 14 17  2  0  0  0  0
 15  9  1  0  0  0  0
 16  9  2  0  0  0  0
 17  8  1  0  0  0  0
 18  2  2  0  0  0  0
 19 20  1  0  0  0  0
 19 12  2  0  0  0  0
 20 24  2  0  0  0  0
 21  6  1  0  0  0  0
 22  4  1  0  0  0  0
 23 12  1  0  0  0  0
 24 17  1  0  0  0  0
 25  7  1  0  0  0  0
 26 22  1  0  0  0  0
 27 19  1  0  0  0  0
 28 25  1  0  0  0  0
 29 28  1  0  0  0  0
M  END
> <CdId>
1716

> <Mol Weight>
429.296

> <Formula>
C22H18Cl2N2O3

> <Click_ID>
CLK023_B11 __ __ 

$$$$
