CLK051D11
 OpenBabel03181417022D

 19 20  0  0  0  0  0  0  0  0999 V2000
   -0.7792   -0.0375    0.0000 C   0  0  0  0  0  0  0  0  0  0  0  0
   -0.2958   -0.7042    0.0000 C   0  0  0  0  0  0  0  0  0  0  0  0
   -0.2958    0.6292    0.0000 O   0  0  0  0  0  0  0  0  0  0  0  0
    0.4917   -0.4500    0.0000 C   0  0  0  0  0  0  0  0  0  0  0  0
    0.4917    0.3750    0.0000 C   0  0  0  0  0  0  0  0  0  0  0  0
   -1.6042   -0.0375    0.0000 C   0  0  0  0  0  0  0  0  0  0  0  0
   -3.2542    1.3917    0.0000 C   0  0  0  0  0  0  0  0  0  0  0  0
   -3.6667    2.1042    0.0000 C   0  0  0  0  0  0  0  0  0  0  0  0
    1.2042   -0.8625    0.0000 C   0  0  0  0  0  0  0  0  0  0  0  0
   -2.0167   -0.7542    0.0000 O   0  0  0  0  0  0  0  0  0  0  0  0
    1.2042    0.7875    0.0000 C   0  0  0  0  0  0  0  0  0  0  0  0
   -2.0167    0.6750    0.0000 N   0  0  0  0  0  0  0  0  0  0  0  0
    1.9208   -0.4500    0.0000 C   0  0  0  0  0  0  0  0  0  0  0  0
   -0.5500   -1.4917    0.0000 C   0  0  0  0  0  0  0  0  0  0  0  0
    1.9208    0.3750    0.0000 C   0  0  0  0  0  0  0  0  0  0  0  0
   -2.8417    0.6750    0.0000 C   0  0  0  0  0  0  0  0  0  0  0  0
    2.6333   -0.8625    0.0000 O   0  0  0  0  0  0  0  0  0  0  0  0
    3.3500   -0.4500    0.0000 C   0  0  0  0  0  0  0  0  0  0  0  0
    4.0625   -0.8625    0.0000 C   0  0  0  0  0  0  0  0  0  0  0  0
  2  1  2  0  0  0  0
  3  1  1  0  0  0  0
  4  2  1  0  0  0  0
  4  5  2  0  0  0  0
  5  3  1  0  0  0  0
  6  1  1  0  0  0  0
  7 16  1  0  0  0  0
  8  7  3  0  0  0  0
  9  4  1  0  0  0  0
 10  6  2  0  0  0  0
 11  5  1  0  0  0  0
 12  6  1  0  0  0  0
 13  9  2  0  0  0  0
 14  2  1  0  0  0  0
 15 11  2  0  0  0  0
 15 13  1  0  0  0  0
 16 12  1  0  0  0  0
 17 13  1  0  0  0  0
 18 17  1  0  0  0  0
 19 18  1  0  0  0  0
M  END
> <CdId>
3964

> <Mol Weight>
257.2845

> <Formula>
C15H15NO3

> <Click_ID>
CLK051D11 __ __ 

$$$$
