CLK011_E03
 OpenBabel03181417022D

 29 32  0  0  0  0  0  0  0  0999 V2000
    2.4751   -0.6841    0.0000 N   0  0  0  0  0  0  0  0  0  0  0  0
    3.1841   -1.9154    0.0000 C   0  0  0  0  0  0  0  0  0  0  0  0
    3.1841   -0.2654    0.0000 C   0  0  0  0  0  0  0  0  0  0  0  0
    2.4751   -1.5091    0.0000 C   0  0  0  0  0  0  0  0  0  0  0  0
    3.8972   -0.6841    0.0000 N   0  0  0  0  0  0  0  0  0  0  0  0
    3.8972   -1.5091    0.0000 C   0  0  0  0  0  0  0  0  0  0  0  0
    3.8972   -3.1509    0.0000 C   0  0  0  0  0  0  0  0  0  0  0  0
    3.1841   -2.7405    0.0000 C   0  0  0  0  0  0  0  0  0  0  0  0
    5.2032   -3.4246    0.0000 N   0  0  0  0  0  0  0  0  0  0  0  0
    4.6559   -2.8151    0.0000 C   0  0  0  0  0  0  0  0  0  0  0  0
    1.7579   -0.2654    0.0000 C   0  0  0  0  0  0  0  0  0  0  0  0
    3.9843   -3.9676    0.0000 C   0  0  0  0  0  0  0  0  0  0  0  0
    4.7927   -4.1418    0.0000 C   0  0  0  0  0  0  0  0  0  0  0  0
    3.1841    0.5597    0.0000 S   0  0  0  0  0  0  0  0  0  0  0  0
    6.5091   -4.0091    0.0000 C   0  0  0  0  0  0  0  0  0  0  0  0
    1.7579   -1.9196    0.0000 O   0  0  0  0  0  0  0  0  0  0  0  0
    6.9527   -4.7056    0.0000 C   0  0  0  0  0  0  0  0  0  0  0  0
    4.6144   -1.9196    0.0000 O   0  0  0  0  0  0  0  0  0  0  0  0
    1.7579    0.5597    0.0000 C   0  0  0  0  0  0  0  0  0  0  0  0
    6.0240   -3.3458    0.0000 C   0  0  0  0  0  0  0  0  0  0  0  0
    2.4669    0.9701    0.0000 F   0  0  0  0  0  0  0  0  0  0  0  0
    5.0415   -4.9253    0.0000 C   0  0  0  0  0  0  0  0  0  0  0  0
    3.4328   -4.5813    0.0000 C   0  0  0  0  0  0  0  0  0  0  0  0
    1.0448   -0.6841    0.0000 C   0  0  0  0  0  0  0  0  0  0  0  0
    1.0448    0.9660    0.0000 C   0  0  0  0  0  0  0  0  0  0  0  0
    4.4942   -5.5348    0.0000 C   0  0  0  0  0  0  0  0  0  0  0  0
    3.6857   -5.3648    0.0000 C   0  0  0  0  0  0  0  0  0  0  0  0
    0.3276   -0.2654    0.0000 C   0  0  0  0  0  0  0  0  0  0  0  0
    0.3276    0.5597    0.0000 C   0  0  0  0  0  0  0  0  0  0  0  0
  2  4  1  0  0  0  0
  3  1  1  0  0  0  0
  4  1  1  0  0  0  0
  5  3  1  0  0  0  0
  6  2  1  0  0  0  0
  6  5  1  0  0  0  0
  7  8  1  0  0  0  0
  8  2  2  0  0  0  0
  9 10  1  0  0  0  0
 10  7  2  0  0  0  0
 11  1  1  0  0  0  0
 12  7  1  0  0  0  0
 13 12  1  0  0  0  0
 13  9  1  0  0  0  0
 14  3  2  0  0  0  0
 15 20  1  0  0  0  0
 16  4  2  0  0  0  0
 17 15  3  0  0  0  0
 18  6  2  0  0  0  0
 19 11  2  0  0  0  0
 20  9  1  0  0  0  0
 21 19  1  0  0  0  0
 22 13  2  0  0  0  0
 23 12  2  0  0  0  0
 24 11  1  0  0  0  0
 25 19  1  0  0  0  0
 25 29  2  0  0  0  0
 26 27  2  0  0  0  0
 26 22  1  0  0  0  0
 27 23  1  0  0  0  0
 28 24  2  0  0  0  0
 29 28  1  0  0  0  0
M  END
> <CdId>
798

> <Mol Weight>
403.429

> <Formula>
C22H14FN3O2S

> <Click_ID>
CLK011_E03 __ __ 

$$$$
