CLK003_D04
 OpenBabel03181417022D

 30 34  0  0  0  0  0  0  0  0999 V2000
   -1.1947   -0.6623    0.0000 C   0  0  0  0  0  0  0  0  0  0  0  0
   -0.5074   -0.2699    0.0000 C   0  0  0  0  0  0  0  0  0  0  0  0
   -1.9220   -0.2699    0.0000 C   0  0  0  0  0  0  0  0  0  0  0  0
   -0.5074   -1.0897    0.0000 C   0  0  0  0  0  0  0  0  0  0  0  0
   -1.8870   -1.0897    0.0000 C   0  0  0  0  0  0  0  0  0  0  0  0
   -0.5074    0.5998    0.0000 C   0  0  0  0  0  0  0  0  0  0  0  0
    0.2174   -0.6623    0.0000 C   0  0  0  0  0  0  0  0  0  0  0  0
   -1.9220    0.5998    0.0000 C   0  0  0  0  0  0  0  0  0  0  0  0
   -0.5074   -1.9320    0.0000 C   0  0  0  0  0  0  0  0  0  0  0  0
   -1.8870   -1.9320    0.0000 C   0  0  0  0  0  0  0  0  0  0  0  0
   -1.1972    0.9847    0.0000 C   0  0  0  0  0  0  0  0  0  0  0  0
    0.2174    0.9847    0.0000 N   0  0  0  0  0  0  0  0  0  0  0  0
    0.9673   -0.2699    0.0000 N   0  0  0  0  0  0  0  0  0  0  0  0
    0.2174   -1.5121    0.0000 O   0  0  0  0  0  0  0  0  0  0  0  0
   -2.6193    0.9847    0.0000 C   0  0  0  0  0  0  0  0  0  0  0  0
   -1.1397   -2.2844    0.0000 C   0  0  0  0  0  0  0  0  0  0  0  0
   -1.1972    1.8096    0.0000 C   0  0  0  0  0  0  0  0  0  0  0  0
    0.9673    0.5998    0.0000 C   0  0  0  0  0  0  0  0  0  0  0  0
    1.6671   -0.6773    0.0000 C   0  0  0  0  0  0  0  0  0  0  0  0
   -2.6193    1.8096    0.0000 C   0  0  0  0  0  0  0  0  0  0  0  0
   -1.9220    2.2294    0.0000 C   0  0  0  0  0  0  0  0  0  0  0  0
    1.6671    1.0497    0.0000 S   0  0  0  0  0  0  0  0  0  0  0  0
    2.4019   -0.2699    0.0000 C   0  0  0  0  0  0  0  0  0  0  0  0
    1.6871   -1.5021    0.0000 C   0  0  0  0  0  0  0  0  0  0  0  0
    1.6671    1.9095    0.0000 C   0  0  0  0  0  0  0  0  0  0  0  0
    3.1267   -0.6773    0.0000 C   0  0  0  0  0  0  0  0  0  0  0  0
    2.3919   -1.9470    0.0000 C   0  0  0  0  0  0  0  0  0  0  0  0
    0.9623    2.3019    0.0000 C   0  0  0  0  0  0  0  0  0  0  0  0
    3.1167   -1.5146    0.0000 C   0  0  0  0  0  0  0  0  0  0  0  0
    0.2549    2.7068    0.0000 C   0  0  0  0  0  0  0  0  0  0  0  0
  1  2  1  0  0  0  0
  1  3  1  0  0  0  0
  1  4  1  0  0  0  0
  1  5  1  0  0  0  0
  2  6  2  0  0  0  0
  2  7  1  0  0  0  0
  3  8  1  0  0  0  0
  4  9  1  0  0  0  0
  5 10  1  0  0  0  0
  6 11  1  0  0  0  0
  6 12  1  0  0  0  0
  7 13  1  0  0  0  0
  7 14  2  0  0  0  0
  8 15  2  0  0  0  0
  8 11  1  0  0  0  0
  9 16  1  0  0  0  0
 10 16  1  0  0  0  0
 11 17  2  0  0  0  0
 12 18  2  0  0  0  0
 13 19  1  0  0  0  0
 13 18  1  0  0  0  0
 15 20  1  0  0  0  0
 17 21  1  0  0  0  0
 18 22  1  0  0  0  0
 19 23  2  0  0  0  0
 19 24  1  0  0  0  0
 20 21  2  0  0  0  0
 22 25  1  0  0  0  0
 23 26  1  0  0  0  0
 24 27  2  0  0  0  0
 25 28  1  0  0  0  0
 26 29  2  0  0  0  0
 27 29  1  0  0  0  0
 28 30  3  0  0  0  0
M  END
> <CdId>
193

> <Mol Weight>
412.547

> <Formula>
C26H24N2OS

> <Click_ID>
CLK003_D04 __ __ 

$$$$
