CLK006_A04
 OpenBabel03181417022D

 18 20  0  0  0  0  0  0  0  0999 V2000
    0.2033    0.3515    0.0000 C   0  0  0  0  0  0  0  0  0  0  0  0
   -0.2791   -0.3239    0.0000 N   0  0  0  0  0  0  0  0  0  0  0  0
    1.0269    0.3584    0.0000 C   0  0  0  0  0  0  0  0  0  0  0  0
   -0.2929    1.0165    0.0000 N   0  0  0  0  0  0  0  0  0  0  0  0
   -1.0648   -0.0792    0.0000 C   0  0  0  0  0  0  0  0  0  0  0  0
    0.1275   -1.0372    0.0000 C   0  0  0  0  0  0  0  0  0  0  0  0
    1.4267    1.0717    0.0000 C   0  0  0  0  0  0  0  0  0  0  0  0
    1.4439   -0.3584    0.0000 C   0  0  0  0  0  0  0  0  0  0  0  0
   -1.0752    0.7512    0.0000 C   0  0  0  0  0  0  0  0  0  0  0  0
   -1.7885   -0.4859    0.0000 C   0  0  0  0  0  0  0  0  0  0  0  0
   -0.2757   -1.7472    0.0000 C   0  0  0  0  0  0  0  0  0  0  0  0
    2.2537    1.0786    0.0000 C   0  0  0  0  0  0  0  0  0  0  0  0
    2.2640   -0.3481    0.0000 C   0  0  0  0  0  0  0  0  0  0  0  0
   -1.7885    1.1682    0.0000 C   0  0  0  0  0  0  0  0  0  0  0  0
   -2.4984   -0.0759    0.0000 C   0  0  0  0  0  0  0  0  0  0  0  0
    0.1378   -2.4605    0.0000 C   0  0  0  0  0  0  0  0  0  0  0  0
    2.6742    0.3688    0.0000 C   0  0  0  0  0  0  0  0  0  0  0  0
   -2.4984    0.7547    0.0000 C   0  0  0  0  0  0  0  0  0  0  0  0
  1  2  1  0  0  0  0
  1  3  1  0  0  0  0
  1  4  2  0  0  0  0
  2  5  1  0  0  0  0
  2  6  1  0  0  0  0
  3  7  1  0  0  0  0
  3  8  2  0  0  0  0
  4  9  1  0  0  0  0
  5 10  2  0  0  0  0
  5  9  1  0  0  0  0
  6 11  1  0  0  0  0
  7 12  2  0  0  0  0
  8 13  1  0  0  0  0
  9 14  2  0  0  0  0
 10 15  1  0  0  0  0
 11 16  3  0  0  0  0
 12 17  1  0  0  0  0
 13 17  2  0  0  0  0
 14 18  1  0  0  0  0
 15 18  2  0  0  0  0
M  END
> <CdId>
403

> <Mol Weight>
232.2799

> <Formula>
C16H12N2

> <Click_ID>
CLK006_A04 __ __ 

$$$$
