CLK036_G02
 OpenBabel03181417022D

 28 31  0  0  0  0  0  0  0  0999 V2000
   -0.5470    2.1923    0.0000 C   0  0  0  0  0  0  0  0  0  0  0  0
    0.2422    2.4512    0.0000 N   0  0  0  0  0  0  0  0  0  0  0  0
   -0.8018    1.4031    0.0000 N   0  0  0  0  0  0  0  0  0  0  0  0
   -1.2152    2.6766    0.0000 S   0  0  0  0  0  0  0  0  0  0  0  0
   -1.6286    1.4031    0.0000 C   0  0  0  0  0  0  0  0  0  0  0  0
   -1.8791    2.1881    0.0000 C   0  0  0  0  0  0  0  0  0  0  0  0
    0.4176    3.2529    0.0000 C   0  0  0  0  0  0  0  0  0  0  0  0
   -2.1755    0.7975    0.0000 C   0  0  0  0  0  0  0  0  0  0  0  0
   -2.6892    2.3635    0.0000 C   0  0  0  0  0  0  0  0  0  0  0  0
    3.5870    4.1007    0.0000 N   0  0  0  0  0  0  0  0  0  0  0  0
    1.1943    3.5077    0.0000 C   0  0  0  0  0  0  0  0  0  0  0  0
    3.9211    3.3656    0.0000 C   0  0  0  0  0  0  0  0  0  0  0  0
    2.5974    3.2153    0.0000 C   0  0  0  0  0  0  0  0  0  0  0  0
   -2.9773    0.9646    0.0000 C   0  0  0  0  0  0  0  0  0  0  0  0
   -3.2404    1.7496    0.0000 C   0  0  0  0  0  0  0  0  0  0  0  0
    3.3114    2.8019    0.0000 S   0  0  0  0  0  0  0  0  0  0  0  0
    0.4928    0.8226    0.0000 C   0  0  0  0  0  0  0  0  0  0  0  0
    1.8081    2.9522    0.0000 C   0  0  0  0  0  0  0  0  0  0  0  0
    2.7728    4.0213    0.0000 C   0  0  0  0  0  0  0  0  0  0  0  0
    0.8393    1.5742    0.0000 C   0  0  0  0  0  0  0  0  0  0  0  0
   -0.1962    3.8083    0.0000 O   0  0  0  0  0  0  0  0  0  0  0  0
   -0.3215    0.7391    0.0000 C   0  0  0  0  0  0  0  0  0  0  0  0
    1.3697    4.3136    0.0000 C   0  0  0  0  0  0  0  0  0  0  0  0
    2.1589    4.5767    0.0000 C   0  0  0  0  0  0  0  0  0  0  0  0
   -3.5285    0.3466    0.0000 O   0  0  0  0  0  0  0  0  0  0  0  0
   -4.0421    1.9250    0.0000 O   0  0  0  0  0  0  0  0  0  0  0  0
   -4.5933    1.3112    0.0000 C   0  0  0  0  0  0  0  0  0  0  0  0
   -3.2780   -0.4385    0.0000 C   0  0  0  0  0  0  0  0  0  0  0  0
  2  1  2  0  0  0  0
  3  1  1  0  0  0  0
  4  1  1  0  0  0  0
  5  3  1  0  0  0  0
  6  4  1  0  0  0  0
  6  5  2  0  0  0  0
  7  2  1  0  0  0  0
  8  5  1  0  0  0  0
  9  6  1  0  0  0  0
 10 19  1  0  0  0  0
 10 12  2  0  0  0  0
 11  7  1  0  0  0  0
 12 16  1  0  0  0  0
 13 18  1  0  0  0  0
 14  8  2  0  0  0  0
 14 15  1  0  0  0  0
 15  9  2  0  0  0  0
 16 13  1  0  0  0  0
 17 22  1  0  0  0  0
 18 11  2  0  0  0  0
 19 24  1  0  0  0  0
 19 13  2  0  0  0  0
 20 17  3  0  0  0  0
 21  7  2  0  0  0  0
 22  3  1  0  0  0  0
 23 11  1  0  0  0  0
 24 23  2  0  0  0  0
 25 14  1  0  0  0  0
 26 15  1  0  0  0  0
 27 26  1  0  0  0  0
 28 25  1  0  0  0  0
M  END
> <CdId>
2759

> <Mol Weight>
409.481

> <Formula>
C20H15N3O3S2

> <Click_ID>
CLK036_G02 __ __ 

$$$$
