CLK017_A07
 OpenBabel03181417022D

 26 28  0  0  0  0  0  0  0  0999 V2000
    0.0418   -0.2004    0.0000 N    0  0  0  0  0  0  0  0  0  0  0  0
    0.3007   -0.9897    0.0000 C    0  0  0  0  0  0  0  0  0  0  0  0
    0.7141    0.2839    0.0000 C    0  0  0  0  0  0  0  0  0  0  0  0
    1.3822   -0.2004    0.0000 C    0  0  0  0  0  0  0  0  0  0  0  0
    1.1275   -0.9897    0.0000 N    0  0  0  0  0  0  0  0  0  0  0  0
    2.1714    0.0584    0.0000 C    0  0  0  0  0  0  0  0  0  0  0  0
    2.6683    2.4679    0.0000 C    0  0  0  0  0  0  0  0  0  0  0  0
    3.2738    1.9167    0.0000 C    0  0  0  0  0  0  0  0  0  0  0  0
    1.8958    2.2173    0.0000 C    0  0  0  0  0  0  0  0  0  0  0  0
    2.3343    0.8602    0.0000 C    0  0  0  0  0  0  0  0  0  0  0  0
    3.8125    4.3219    0.0000 C    0  0  0  0  0  0  0  0  0  0  0  0
   -0.7391    0.0584    0.0000 C    0  0  0  0  0  0  0  0  0  0  0  0
    3.9879    5.1154    0.0000 C    0  0  0  0  0  0  0  0  0  0  0  0
   -0.1879   -1.6578    0.0000 O    0  0  0  0  0  0  0  0  0  0  0  0
    1.7205    1.4114    0.0000 C    0  0  0  0  0  0  0  0  0  0  0  0
    3.1110    1.1107    0.0000 C    0  0  0  0  0  0  0  0  0  0  0  0
    0.7057    1.1107    0.0000 O    0  0  0  0  0  0  0  0  0  0  0  0
    4.0631    2.1672    0.0000 Cl   0  0  0  0  0  0  0  0  0  0  0  0
    1.2903    2.7769    0.0000 Cl   0  0  0  0  0  0  0  0  0  0  0  0
    2.8479    3.2780    0.0000 O    0  0  0  0  0  0  0  0  0  0  0  0
    3.6329    3.5285    0.0000 C    0  0  0  0  0  0  0  0  0  0  0  0
   -1.3613   -0.5011    0.0000 C    0  0  0  0  0  0  0  0  0  0  0  0
   -0.9145    0.8644    0.0000 C    0  0  0  0  0  0  0  0  0  0  0  0
   -2.1505   -0.2422    0.0000 C    0  0  0  0  0  0  0  0  0  0  0  0
   -1.6995    1.1233    0.0000 C    0  0  0  0  0  0  0  0  0  0  0  0
   -2.3176    0.5720    0.0000 C    0  0  0  0  0  0  0  0  0  0  0  0
  2  1  1  0  0  0  0
  3  1  1  0  0  0  0
  4  3  1  0  0  0  0
  4  5  1  0  0  0  0
  5  2  1  0  0  0  0
  6  4  2  0  0  0  0
  7  8  1  0  0  0  0
  7  9  2  0  0  0  0
  8 16  2  0  0  0  0
  9 15  1  0  0  0  0
 10  6  1  0  0  0  0
 11 21  1  0  0  0  0
 12  1  1  0  0  0  0
 13 11  3  0  0  0  0
 14  2  2  0  0  0  0
 15 10  2  0  0  0  0
 16 10  1  0  0  0  0
 17  3  2  0  0  0  0
 18  8  1  0  0  0  0
 19  9  1  0  0  0  0
 20  7  1  0  0  0  0
 21 20  1  0  0  0  0
 22 12  1  0  0  0  0
 23 12  2  0  0  0  0
 24 22  2  0  0  0  0
 25 23  1  0  0  0  0
 26 25  2  0  0  0  0
 26 24  1  0  0  0  0
M  END
> <CdId>
1242

> <Mol Weight>
387.216

> <Formula>
C19H12Cl2N2O3

> <Click_ID>
CLK017_A07 __ __ 

$$$$
