CLK032_B05
 OpenBabel03181417022D

 26 28  0  0  0  0  0  0  0  0999 V2000
   -1.1649    2.3882    0.0000 C    0  0  0  0  0  0  0  0  0  0  0  0
    0.9019    3.0939    0.0000 C    0  0  0  0  0  0  0  0  0  0  0  0
   -0.3382    2.3799    0.0000 N    0  0  0  0  0  0  0  0  0  0  0  0
    1.3946    2.4258    0.0000 C    0  0  0  0  0  0  0  0  0  0  0  0
   -1.6492    1.7244    0.0000 N    0  0  0  0  0  0  0  0  0  0  0  0
    0.0752    3.0939    0.0000 C    0  0  0  0  0  0  0  0  0  0  0  0
   -1.6492    3.0563    0.0000 S    0  0  0  0  0  0  0  0  0  0  0  0
    2.1712    2.6763    0.0000 S    0  0  0  0  0  0  0  0  0  0  0  0
   -2.4383    2.8016    0.0000 C    0  0  0  0  0  0  0  0  0  0  0  0
   -2.4383    1.9749    0.0000 C    0  0  0  0  0  0  0  0  0  0  0  0
    2.1795    3.4947    0.0000 C    0  0  0  0  0  0  0  0  0  0  0  0
    1.3904    3.7578    0.0000 C    0  0  0  0  0  0  0  0  0  0  0  0
   -3.1523    3.2149    0.0000 C    0  0  0  0  0  0  0  0  0  0  0  0
   -1.9498    0.3215    0.0000 C    0  0  0  0  0  0  0  0  0  0  0  0
   -2.5010   -0.2923    0.0000 C    0  0  0  0  0  0  0  0  0  0  0  0
   -3.1523    1.5615    0.0000 C    0  0  0  0  0  0  0  0  0  0  0  0
   -5.2985    2.8058    0.0000 C    0  0  0  0  0  0  0  0  0  0  0  0
   -4.5928    3.2192    0.0000 N    0  0  0  0  0  0  0  0  0  0  0  0
   -3.8663    2.8016    0.0000 C    0  0  0  0  0  0  0  0  0  0  0  0
   -0.3382    3.8079    0.0000 O    0  0  0  0  0  0  0  0  0  0  0  0
    1.1399    1.6284    0.0000 Cl   0  0  0  0  0  0  0  0  0  0  0  0
   -1.3987    0.9352    0.0000 C    0  0  0  0  0  0  0  0  0  0  0  0
   -6.0124    3.2192    0.0000 O    0  0  0  0  0  0  0  0  0  0  0  0
    2.8601    3.9790    0.0000 Cl   0  0  0  0  0  0  0  0  0  0  0  0
   -3.8663    1.9749    0.0000 C    0  0  0  0  0  0  0  0  0  0  0  0
   -5.3068    1.9791    0.0000 C    0  0  0  0  0  0  0  0  0  0  0  0
  2  6  1  0  0  0  0
  3  1  2  0  0  0  0
  4  2  2  0  0  0  0
  5  1  1  0  0  0  0
  6  3  1  0  0  0  0
  7  1  1  0  0  0  0
  8  4  1  0  0  0  0
  8 11  1  0  0  0  0
  9  7  1  0  0  0  0
  9 10  2  0  0  0  0
 10  5  1  0  0  0  0
 11 12  2  0  0  0  0
 12  2  1  0  0  0  0
 13  9  1  0  0  0  0
 14 22  1  0  0  0  0
 15 14  3  0  0  0  0
 16 10  1  0  0  0  0
 17 18  1  0  0  0  0
 18 19  1  0  0  0  0
 19 13  2  0  0  0  0
 19 25  1  0  0  0  0
 20  6  2  0  0  0  0
 21  4  1  0  0  0  0
 22  5  1  0  0  0  0
 23 17  2  0  0  0  0
 24 11  1  0  0  0  0
 25 16  2  0  0  0  0
 26 17  1  0  0  0  0
M  END
> <CdId>
2419

> <Mol Weight>
424.324

> <Formula>
C17H11Cl2N3O2S2

> <Click_ID>
CLK032_B05 __ __ 

$$$$
