CLK010_C10
 OpenBabel03181417022D

 24 25  0  0  0  0  0  0  0  0999 V2000
   -0.8062   -3.4402    0.0000 C   0  0  0  0  0  0  0  0  0  0  0  0
   -1.5208   -2.2034    0.0000 N   0  0  0  0  0  0  0  0  0  0  0  0
   -2.2354   -3.4402    0.0000 N   0  0  0  0  0  0  0  0  0  0  0  0
   -0.8062   -2.6157    0.0000 C   0  0  0  0  0  0  0  0  0  0  0  0
   -1.5208   -3.8525    0.0000 C   0  0  0  0  0  0  0  0  0  0  0  0
   -2.2354   -2.6157    0.0000 C   0  0  0  0  0  0  0  0  0  0  0  0
   -0.0916   -3.8525    0.0000 C   0  0  0  0  0  0  0  0  0  0  0  0
    2.0522   -2.6157    0.0000 C   0  0  0  0  0  0  0  0  0  0  0  0
    1.3376   -2.2034    0.0000 C   0  0  0  0  0  0  0  0  0  0  0  0
    2.0522   -3.4402    0.0000 C   0  0  0  0  0  0  0  0  0  0  0  0
    0.6230   -3.4402    0.0000 C   0  0  0  0  0  0  0  0  0  0  0  0
    3.4814   -0.9666    0.0000 C   0  0  0  0  0  0  0  0  0  0  0  0
    3.4814   -0.1420    0.0000 C   0  0  0  0  0  0  0  0  0  0  0  0
    0.6230   -2.6157    0.0000 C   0  0  0  0  0  0  0  0  0  0  0  0
    1.3376   -3.8525    0.0000 C   0  0  0  0  0  0  0  0  0  0  0  0
   -0.0916   -2.2034    0.0000 O   0  0  0  0  0  0  0  0  0  0  0  0
   -1.5208   -4.6770    0.0000 O   0  0  0  0  0  0  0  0  0  0  0  0
   -2.9500   -2.2034    0.0000 O   0  0  0  0  0  0  0  0  0  0  0  0
    1.3376   -1.3789    0.0000 I   0  0  0  0  0  0  0  0  0  0  0  0
    2.7668   -2.2034    0.0000 O   0  0  0  0  0  0  0  0  0  0  0  0
    2.7668   -3.8525    0.0000 O   0  0  0  0  0  0  0  0  0  0  0  0
    2.7668   -1.3789    0.0000 C   0  0  0  0  0  0  0  0  0  0  0  0
    2.7668   -4.6770    0.0000 C   0  0  0  0  0  0  0  0  0  0  0  0
    3.4814   -5.0893    0.0000 C   0  0  0  0  0  0  0  0  0  0  0  0
  2  4  1  0  0  0  0
  3  5  1  0  0  0  0
  4  1  1  0  0  0  0
  5  1  1  0  0  0  0
  6  3  1  0  0  0  0
  6  2  1  0  0  0  0
  7  1  2  0  0  0  0
  8 10  1  0  0  0  0
  9 14  1  0  0  0  0
  9  8  2  0  0  0  0
 10 15  2  0  0  0  0
 11  7  1  0  0  0  0
 12 22  1  0  0  0  0
 13 12  3  0  0  0  0
 14 11  2  0  0  0  0
 15 11  1  0  0  0  0
 16  4  2  0  0  0  0
 17  5  2  0  0  0  0
 18  6  2  0  0  0  0
 19  9  1  0  0  0  0
 20  8  1  0  0  0  0
 21 10  1  0  0  0  0
 22 20  1  0  0  0  0
 23 21  1  0  0  0  0
 24 23  1  0  0  0  0
M  END
> <CdId>
705

> <Mol Weight>
440.1893

> <Formula>
C16H13IN2O5

> <Click_ID>
CLK010_C10 __ __ 

$$$$
