CLK051H11
 OpenBabel03181417022D

 19 19  0  0  0  0  0  0  0  0999 V2000
   -0.9042   -0.1708    0.0000 C    0  0  0  0  0  0  0  0  0  0  0  0
    1.9542    0.6542    0.0000 C    0  0  0  0  0  0  0  0  0  0  0  0
   -0.9042    0.6542    0.0000 C    0  0  0  0  0  0  0  0  0  0  0  0
   -0.1917   -0.5833    0.0000 C    0  0  0  0  0  0  0  0  0  0  0  0
    1.9542   -0.9958    0.0000 N    0  0  0  0  0  0  0  0  0  0  0  0
    3.3833    1.4792    0.0000 N    0  0  0  0  0  0  0  0  0  0  0  0
    0.5250    0.6542    0.0000 C    0  0  0  0  0  0  0  0  0  0  0  0
    2.6667    1.0667    0.0000 C    0  0  0  0  0  0  0  0  0  0  0  0
    1.9542   -0.1708    0.0000 C    0  0  0  0  0  0  0  0  0  0  0  0
    1.2375    1.0667    0.0000 C    0  0  0  0  0  0  0  0  0  0  0  0
   -3.0500   -0.5833    0.0000 C    0  0  0  0  0  0  0  0  0  0  0  0
   -3.7625   -0.9958    0.0000 C    0  0  0  0  0  0  0  0  0  0  0  0
   -0.1917    1.0667    0.0000 C    0  0  0  0  0  0  0  0  0  0  0  0
    0.5250   -0.1708    0.0000 C    0  0  0  0  0  0  0  0  0  0  0  0
   -1.6208    1.0667    0.0000 Cl   0  0  0  0  0  0  0  0  0  0  0  0
   -1.6208   -0.5833    0.0000 O    0  0  0  0  0  0  0  0  0  0  0  0
   -0.1917   -1.4083    0.0000 O    0  0  0  0  0  0  0  0  0  0  0  0
   -2.3333   -0.1708    0.0000 C    0  0  0  0  0  0  0  0  0  0  0  0
    0.5250   -1.8208    0.0000 C    0  0  0  0  0  0  0  0  0  0  0  0
  2 10  2  0  0  0  0
  3  1  1  0  0  0  0
  4  1  2  0  0  0  0
  5  9  3  0  0  0  0
  6  8  3  0  0  0  0
  7 14  2  0  0  0  0
  8  2  1  0  0  0  0
  9  2  1  0  0  0  0
 10  7  1  0  0  0  0
 11 18  1  0  0  0  0
 12 11  3  0  0  0  0
 13  3  2  0  0  0  0
 13  7  1  0  0  0  0
 14  4  1  0  0  0  0
 15  3  1  0  0  0  0
 16  1  1  0  0  0  0
 17  4  1  0  0  0  0
 18 16  1  0  0  0  0
 19 17  1  0  0  0  0
M  END
> <CdId>
3968

> <Mol Weight>
272.686

> <Formula>
C14H9ClN2O2

> <Click_ID>
CLK051H11 __ __ 

$$$$
