CLK050C06
 OpenBabel03181417022D

 27 28  0  0  0  0  0  0  0  0999 V2000
   -0.5042    0.5375    0.0000 S   0  0  0  0  0  0  0  0  0  0  0  0
    0.2083    0.9500    0.0000 C   0  0  0  0  0  0  0  0  0  0  0  0
    0.9250    0.5375    0.0000 C   0  0  0  0  0  0  0  0  0  0  0  0
    0.9250   -0.2875    0.0000 C   0  0  0  0  0  0  0  0  0  0  0  0
   -1.2208    0.1250    0.0000 N   0  0  0  0  0  0  0  0  0  0  0  0
    1.6375   -0.7000    0.0000 N   0  0  0  0  0  0  0  0  0  0  0  0
   -0.9167    1.2500    0.0000 O   0  0  0  0  0  0  0  0  0  0  0  0
   -0.0917   -0.1792    0.0000 O   0  0  0  0  0  0  0  0  0  0  0  0
    1.6375   -2.3500    0.0000 C   0  0  0  0  0  0  0  0  0  0  0  0
    1.6375   -3.1750    0.0000 C   0  0  0  0  0  0  0  0  0  0  0  0
    1.6375   -1.5250    0.0000 C   0  0  0  0  0  0  0  0  0  0  0  0
    0.2083   -0.7000    0.0000 O   0  0  0  0  0  0  0  0  0  0  0  0
   -1.9333    0.5375    0.0000 C   0  0  0  0  0  0  0  0  0  0  0  0
    1.6375    0.9500    0.0000 C   0  0  0  0  0  0  0  0  0  0  0  0
    0.2083    1.7750    0.0000 C   0  0  0  0  0  0  0  0  0  0  0  0
   -1.2208   -0.7000    0.0000 C   0  0  0  0  0  0  0  0  0  0  0  0
    0.8125   -1.5250    0.0000 C   0  0  0  0  0  0  0  0  0  0  0  0
    2.4625   -1.5250    0.0000 C   0  0  0  0  0  0  0  0  0  0  0  0
   -1.9333    1.3625    0.0000 C   0  0  0  0  0  0  0  0  0  0  0  0
   -2.6500    0.1250    0.0000 C   0  0  0  0  0  0  0  0  0  0  0  0
    1.6375    1.7750    0.0000 C   0  0  0  0  0  0  0  0  0  0  0  0
    0.9250    2.1875    0.0000 C   0  0  0  0  0  0  0  0  0  0  0  0
    0.4000   -0.8125    0.0000 C   0  0  0  0  0  0  0  0  0  0  0  0
    2.8750   -2.2417    0.0000 C   0  0  0  0  0  0  0  0  0  0  0  0
   -3.3625    0.5375    0.0000 C   0  0  0  0  0  0  0  0  0  0  0  0
   -2.6500    1.7750    0.0000 C   0  0  0  0  0  0  0  0  0  0  0  0
   -3.3625    1.3625    0.0000 C   0  0  0  0  0  0  0  0  0  0  0  0
  2  1  1  0  0  0  0
  3  2  2  0  0  0  0
  4  3  1  0  0  0  0
  5  1  1  0  0  0  0
  6  4  1  0  0  0  0
  7  1  2  0  0  0  0
  8  1  2  0  0  0  0
  9 11  1  0  0  0  0
 10  9  3  0  0  0  0
 11  6  1  0  0  0  0
 12  4  2  0  0  0  0
 13  5  1  0  0  0  0
 14  3  1  0  0  0  0
 15  2  1  0  0  0  0
 16  5  1  0  0  0  0
 17 11  1  0  0  0  0
 18 11  1  0  0  0  0
 19 13  1  0  0  0  0
 20 13  2  0  0  0  0
 21 14  2  0  0  0  0
 22 15  2  0  0  0  0
 22 21  1  0  0  0  0
 23 17  1  0  0  0  0
 24 18  1  0  0  0  0
 25 20  1  0  0  0  0
 26 19  2  0  0  0  0
 27 25  2  0  0  0  0
 27 26  1  0  0  0  0
M  END
> <CdId>
3843

> <Mol Weight>
384.492

> <Formula>
C21H24N2O3S

> <Click_ID>
CLK050C06 __ __ 

$$$$
