CLK040C11
 OpenBabel03181417022D

 24 25  0  0  0  0  0  0  0  0999 V2000
   -0.5958    1.4792    0.0000 S   0  0  0  0  0  0  0  0  0  0  0  0
    0.1167    1.8917    0.0000 C   0  0  0  0  0  0  0  0  0  0  0  0
   -1.3125   -2.2333    0.0000 C   0  0  0  0  0  0  0  0  0  0  0  0
   -1.3125    1.0667    0.0000 N   0  0  0  0  0  0  0  0  0  0  0  0
    0.1167   -3.8833    0.0000 C   0  0  0  0  0  0  0  0  0  0  0  0
    0.8333   -4.2958    0.0000 C   0  0  0  0  0  0  0  0  0  0  0  0
   -0.1833    0.7667    0.0000 O   0  0  0  0  0  0  0  0  0  0  0  0
   -1.0083    2.1958    0.0000 O   0  0  0  0  0  0  0  0  0  0  0  0
    0.8333    1.4792    0.0000 C   0  0  0  0  0  0  0  0  0  0  0  0
   -1.3125   -1.4083    0.0000 C   0  0  0  0  0  0  0  0  0  0  0  0
   -2.0250   -2.6458    0.0000 O   0  0  0  0  0  0  0  0  0  0  0  0
   -0.5958   -2.6458    0.0000 N   0  0  0  0  0  0  0  0  0  0  0  0
   -0.5958   -0.9958    0.0000 C   0  0  0  0  0  0  0  0  0  0  0  0
   -2.0250   -0.9958    0.0000 C   0  0  0  0  0  0  0  0  0  0  0  0
   -1.3125    0.2417    0.0000 C   0  0  0  0  0  0  0  0  0  0  0  0
    1.5458    1.8917    0.0000 C   0  0  0  0  0  0  0  0  0  0  0  0
   -2.0250   -0.1708    0.0000 C   0  0  0  0  0  0  0  0  0  0  0  0
   -0.5958   -0.1708    0.0000 C   0  0  0  0  0  0  0  0  0  0  0  0
   -0.5958   -3.4708    0.0000 C   0  0  0  0  0  0  0  0  0  0  0  0
    2.2583    1.4792    0.0000 C   0  0  0  0  0  0  0  0  0  0  0  0
    1.5458    2.7167    0.0000 C   0  0  0  0  0  0  0  0  0  0  0  0
    2.2583    3.1292    0.0000 C   0  0  0  0  0  0  0  0  0  0  0  0
    2.9750    1.8917    0.0000 C   0  0  0  0  0  0  0  0  0  0  0  0
    2.9750    2.7167    0.0000 C   0  0  0  0  0  0  0  0  0  0  0  0
  2  1  1  0  0  0  0
  3 10  1  0  0  0  0
  4  1  1  0  0  0  0
  5 19  1  0  0  0  0
  6  5  3  0  0  0  0
  7  1  2  0  0  0  0
  8  1  2  0  0  0  0
  9  2  2  0  0  0  0
 10 14  2  0  0  0  0
 11  3  2  0  0  0  0
 12  3  1  0  0  0  0
 13 18  2  0  0  0  0
 13 10  1  0  0  0  0
 14 17  1  0  0  0  0
 15  4  1  0  0  0  0
 16  9  1  0  0  0  0
 17 15  2  0  0  0  0
 18 15  1  0  0  0  0
 19 12  1  0  0  0  0
 20 16  1  0  0  0  0
 21 16  2  0  0  0  0
 22 21  1  0  0  0  0
 23 20  2  0  0  0  0
 24 22  2  0  0  0  0
 24 23  1  0  0  0  0
M  END
> <CdId>
3083

> <Mol Weight>
340.396

> <Formula>
C18H16N2O3S

> <Click_ID>
CLK040C11 __ __ 

$$$$
