CLK045H05
 OpenBabel03181417022D

 22 24  0  0  0  0  0  0  0  0999 V2000
   -2.6375    2.4208    0.0000 S   0  0  0  0  0  0  0  0  0  0  0  0
   -1.3667    2.0083    0.0000 C   0  0  0  0  0  0  0  0  0  0  0  0
   -2.1500    1.7542    0.0000 N   0  0  0  0  0  0  0  0  0  0  0  0
   -2.1500    3.0875    0.0000 N   0  0  0  0  0  0  0  0  0  0  0  0
   -0.6542    1.5958    0.0000 C   0  0  0  0  0  0  0  0  0  0  0  0
   -1.3667    2.8333    0.0000 C   0  0  0  0  0  0  0  0  0  0  0  0
   -0.6542    0.7708    0.0000 N   0  0  0  0  0  0  0  0  0  0  0  0
    2.2042   -3.3542    0.0000 C   0  0  0  0  0  0  0  0  0  0  0  0
    0.0625    0.3583    0.0000 C   0  0  0  0  0  0  0  0  0  0  0  0
    2.9208   -3.7667    0.0000 C   0  0  0  0  0  0  0  0  0  0  0  0
    0.7750   -0.8792    0.0000 N   0  0  0  0  0  0  0  0  0  0  0  0
    0.7750    0.7708    0.0000 O   0  0  0  0  0  0  0  0  0  0  0  0
    1.4917   -2.9417    0.0000 C   0  0  0  0  0  0  0  0  0  0  0  0
    0.0625   -0.4667    0.0000 C   0  0  0  0  0  0  0  0  0  0  0  0
    0.7750   -1.7042    0.0000 C   0  0  0  0  0  0  0  0  0  0  0  0
    1.4917   -2.1167    0.0000 C   0  0  0  0  0  0  0  0  0  0  0  0
    0.0625    2.0083    0.0000 C   0  0  0  0  0  0  0  0  0  0  0  0
   -0.6542    3.2458    0.0000 C   0  0  0  0  0  0  0  0  0  0  0  0
    0.0625    2.8333    0.0000 C   0  0  0  0  0  0  0  0  0  0  0  0
    0.0625   -2.9417    0.0000 C   0  0  0  0  0  0  0  0  0  0  0  0
    0.7750   -3.3542    0.0000 C   0  0  0  0  0  0  0  0  0  0  0  0
    0.0625   -2.1167    0.0000 C   0  0  0  0  0  0  0  0  0  0  0  0
  2  3  1  0  0  0  0
  2  6  1  0  0  0  0
  3  1  2  0  0  0  0
  4  1  2  0  0  0  0
  5  2  2  0  0  0  0
  6  4  1  0  0  0  0
  7  5  1  0  0  0  0
  8 13  1  0  0  0  0
  9  7  1  0  0  0  0
 10  8  3  0  0  0  0
 11 14  1  0  0  0  0
 12  9  2  0  0  0  0
 13 16  1  0  0  0  0
 14  9  1  0  0  0  0
 15 11  1  0  0  0  0
 16 15  2  0  0  0  0
 17  5  1  0  0  0  0
 18  6  2  0  0  0  0
 19 18  1  0  0  0  0
 19 17  2  0  0  0  0
 20 22  2  0  0  0  0
 21 13  2  0  0  0  0
 21 20  1  0  0  0  0
 22 15  1  0  0  0  0
M  END
> <CdId>
3440

> <Mol Weight>
308.358

> <Formula>
C16H12N4OS

> <Click_ID>
CLK045H05 __ __ 

$$$$
