CLK047F06
 OpenBabel03181417022D

 19 20  0  0  0  0  0  0  0  0999 V2000
   -0.9792   -1.1708    0.0000 N   0  0  0  0  0  0  0  0  0  0  0  0
   -0.9792   -0.3458    0.0000 C   0  0  0  0  0  0  0  0  0  0  0  0
   -1.6958   -1.5833    0.0000 N   0  0  0  0  0  0  0  0  0  0  0  0
   -0.2667    0.0667    0.0000 C   0  0  0  0  0  0  0  0  0  0  0  0
   -2.4083   -1.1708    0.0000 C   0  0  0  0  0  0  0  0  0  0  0  0
    0.4500   -0.3458    0.0000 N   0  0  0  0  0  0  0  0  0  0  0  0
    1.8792    2.1292    0.0000 C   0  0  0  0  0  0  0  0  0  0  0  0
    1.8792    2.9542    0.0000 C   0  0  0  0  0  0  0  0  0  0  0  0
   -1.6958    0.0667    0.0000 C   0  0  0  0  0  0  0  0  0  0  0  0
   -0.2667    0.8917    0.0000 O   0  0  0  0  0  0  0  0  0  0  0  0
   -2.4083   -0.3458    0.0000 C   0  0  0  0  0  0  0  0  0  0  0  0
   -3.1250   -1.5833    0.0000 O   0  0  0  0  0  0  0  0  0  0  0  0
    1.1625    0.0667    0.0000 C   0  0  0  0  0  0  0  0  0  0  0  0
    1.8792    1.3042    0.0000 C   0  0  0  0  0  0  0  0  0  0  0  0
    1.1625    0.8917    0.0000 C   0  0  0  0  0  0  0  0  0  0  0  0
   -1.6958   -2.4083    0.0000 C   0  0  0  0  0  0  0  0  0  0  0  0
    2.5917    0.0667    0.0000 C   0  0  0  0  0  0  0  0  0  0  0  0
    1.8792   -0.3458    0.0000 C   0  0  0  0  0  0  0  0  0  0  0  0
    2.5917    0.8917    0.0000 C   0  0  0  0  0  0  0  0  0  0  0  0
  2  1  2  0  0  0  0
  3  1  1  0  0  0  0
  4  2  1  0  0  0  0
  5  3  1  0  0  0  0
  5 11  1  0  0  0  0
  6  4  1  0  0  0  0
  7 14  1  0  0  0  0
  8  7  3  0  0  0  0
  9  2  1  0  0  0  0
 10  4  2  0  0  0  0
 11  9  1  0  0  0  0
 12  5  2  0  0  0  0
 13  6  1  0  0  0  0
 14 15  1  0  0  0  0
 15 13  2  0  0  0  0
 16  3  1  0  0  0  0
 17 18  2  0  0  0  0
 18 13  1  0  0  0  0
 19 14  2  0  0  0  0
 19 17  1  0  0  0  0
M  END
> <CdId>
3606

> <Mol Weight>
255.2719

> <Formula>
C14H13N3O2

> <Click_ID>
CLK047F06 __ __ 

$$$$
