CLK045B08
 OpenBabel03181417022D

 22 23  0  0  0  0  0  0  0  0999 V2000
    1.9792   -2.5292    0.0000 S   0  0  0  0  0  0  0  0  0  0  0  0
   -0.1625    0.3583    0.0000 C   0  0  0  0  0  0  0  0  0  0  0  0
   -0.1625    1.1833    0.0000 N   0  0  0  0  0  0  0  0  0  0  0  0
    1.2625   -2.1167    0.0000 N   0  0  0  0  0  0  0  0  0  0  0  0
   -3.0208    1.1833    0.0000 C   0  0  0  0  0  0  0  0  0  0  0  0
    0.5500   -0.0542    0.0000 C   0  0  0  0  0  0  0  0  0  0  0  0
   -3.7375    0.7708    0.0000 C   0  0  0  0  0  0  0  0  0  0  0  0
    1.5667   -3.2417    0.0000 O   0  0  0  0  0  0  0  0  0  0  0  0
    2.6917   -2.9417    0.0000 O   0  0  0  0  0  0  0  0  0  0  0  0
    0.5500   -0.8792    0.0000 C   0  0  0  0  0  0  0  0  0  0  0  0
   -0.8792   -0.0542    0.0000 O   0  0  0  0  0  0  0  0  0  0  0  0
    1.2625   -1.2917    0.0000 C   0  0  0  0  0  0  0  0  0  0  0  0
   -0.8792    1.5958    0.0000 C   0  0  0  0  0  0  0  0  0  0  0  0
   -2.3083    1.5958    0.0000 C   0  0  0  0  0  0  0  0  0  0  0  0
   -1.5917    1.1833    0.0000 C   0  0  0  0  0  0  0  0  0  0  0  0
    2.3917   -1.8167    0.0000 C   0  0  0  0  0  0  0  0  0  0  0  0
    1.2625    0.3583    0.0000 C   0  0  0  0  0  0  0  0  0  0  0  0
    1.9792   -0.0542    0.0000 C   0  0  0  0  0  0  0  0  0  0  0  0
   -1.5917    2.8333    0.0000 C   0  0  0  0  0  0  0  0  0  0  0  0
   -0.8792    2.4208    0.0000 C   0  0  0  0  0  0  0  0  0  0  0  0
    1.9792   -0.8792    0.0000 C   0  0  0  0  0  0  0  0  0  0  0  0
   -2.3083    2.4208    0.0000 C   0  0  0  0  0  0  0  0  0  0  0  0
  2  6  1  0  0  0  0
  3  2  1  0  0  0  0
  4  1  1  0  0  0  0
  5 14  1  0  0  0  0
  6 10  1  0  0  0  0
  7  5  3  0  0  0  0
  8  1  2  0  0  0  0
  9  1  2  0  0  0  0
 10 12  2  0  0  0  0
 11  2  2  0  0  0  0
 12  4  1  0  0  0  0
 13  3  1  0  0  0  0
 14 15  1  0  0  0  0
 15 13  2  0  0  0  0
 16  1  1  0  0  0  0
 17  6  2  0  0  0  0
 17 18  1  0  0  0  0
 18 21  2  0  0  0  0
 19 20  2  0  0  0  0
 20 13  1  0  0  0  0
 21 12  1  0  0  0  0
 22 14  2  0  0  0  0
 22 19  1  0  0  0  0
M  END
> <CdId>
3458

> <Mol Weight>
314.359

> <Formula>
C16H14N2O3S

> <Click_ID>
CLK045B08 __ __ 

$$$$
