CLK004_G08
 OpenBabel03181417022D

 19 21  0  0  0  0  0  0  0  0999 V2000
   -0.9548   -0.8352    0.0000 N   0  0  0  0  0  0  0  0  0  0  0  0
   -0.8561   -0.0171    0.0000 C   0  0  0  0  0  0  0  0  0  0  0  0
   -0.2961   -1.3306    0.0000 C   0  0  0  0  0  0  0  0  0  0  0  0
   -1.6306   -1.3079    0.0000 N   0  0  0  0  0  0  0  0  0  0  0  0
   -0.0968    0.3056    0.0000 C   0  0  0  0  0  0  0  0  0  0  0  0
   -1.5167    0.4784    0.0000 N   0  0  0  0  0  0  0  0  0  0  0  0
    0.4650   -1.0079    0.0000 N   0  0  0  0  0  0  0  0  0  0  0  0
   -0.5637   -2.1146    0.0000 N   0  0  0  0  0  0  0  0  0  0  0  0
   -1.3895   -2.0994    0.0000 C   0  0  0  0  0  0  0  0  0  0  0  0
    0.5637   -0.1917    0.0000 C   0  0  0  0  0  0  0  0  0  0  0  0
   -1.4160    1.2984    0.0000 C   0  0  0  0  0  0  0  0  0  0  0  0
    1.3230    0.1310    0.0000 C   0  0  0  0  0  0  0  0  0  0  0  0
   -2.0766    1.7938    0.0000 C   0  0  0  0  0  0  0  0  0  0  0  0
    1.4236    0.9529    0.0000 C   0  0  0  0  0  0  0  0  0  0  0  0
    1.9836   -0.3607    0.0000 C   0  0  0  0  0  0  0  0  0  0  0  0
   -2.7334    2.2892    0.0000 C   0  0  0  0  0  0  0  0  0  0  0  0
    2.1829    1.2756    0.0000 C   0  0  0  0  0  0  0  0  0  0  0  0
    2.7429   -0.0399    0.0000 C   0  0  0  0  0  0  0  0  0  0  0  0
    2.8435    0.7783    0.0000 C   0  0  0  0  0  0  0  0  0  0  0  0
  1  2  1  0  0  0  0
  1  3  1  0  0  0  0
  1  4  1  0  0  0  0
  2  5  2  0  0  0  0
  2  6  1  0  0  0  0
  3  7  1  0  0  0  0
  3  8  2  0  0  0  0
  4  9  2  0  0  0  0
  5 10  1  0  0  0  0
  6 11  1  0  0  0  0
  7 10  2  0  0  0  0
  8  9  1  0  0  0  0
 10 12  1  0  0  0  0
 11 13  1  0  0  0  0
 12 14  2  0  0  0  0
 12 15  1  0  0  0  0
 13 16  3  0  0  0  0
 14 17  1  0  0  0  0
 15 18  2  0  0  0  0
 17 19  2  0  0  0  0
 18 19  1  0  0  0  0
M  END
> <CdId>
307

> <Mol Weight>
249.2706

> <Formula>
C14H11N5

> <Click_ID>
CLK004_G08 __ __ 

$$$$
