CLK045G09
 OpenBabel03181417022D

 21 22  0  0  0  0  0  0  0  0999 V2000
   -0.3750    1.2000    0.0000 N   0  0  0  0  0  0  0  0  0  0  0  0
   -1.0917    1.6125    0.0000 C   0  0  0  0  0  0  0  0  0  0  0  0
    0.3375   -0.8625    0.0000 C   0  0  0  0  0  0  0  0  0  0  0  0
    0.3375   -0.0375    0.0000 C   0  0  3  0  0  0  0  0  0  0  0  0
   -0.3750    0.3750    0.0000 C   0  0  0  0  0  0  0  0  0  0  0  0
    1.0542   -1.2750    0.0000 N   0  0  0  0  0  0  0  0  0  0  0  0
   -1.8042    3.6750    0.0000 C   0  0  0  0  0  0  0  0  0  0  0  0
   -1.8042    4.4958    0.0000 C   0  0  0  0  0  0  0  0  0  0  0  0
   -1.8042    1.2000    0.0000 O   0  0  0  0  0  0  0  0  0  0  0  0
   -0.3750   -1.2750    0.0000 O   0  0  0  0  0  0  0  0  0  0  0  0
   -1.0917    2.4375    0.0000 N   0  0  0  0  0  0  0  0  0  0  0  0
    1.0542   -2.1000    0.0000 C   0  0  0  0  0  0  0  0  0  0  0  0
    0.3375    1.6125    0.0000 C   0  0  0  0  0  0  0  0  0  0  0  0
   -1.8042    2.8500    0.0000 C   0  0  0  0  0  0  0  0  0  0  0  0
    1.0542    0.3750    0.0000 C   0  0  0  0  0  0  0  0  0  0  0  0
    1.0542    1.2000    0.0000 C   0  0  0  0  0  0  0  0  0  0  0  0
    0.3375   -2.5125    0.0000 C   0  0  0  0  0  0  0  0  0  0  0  0
    1.7667   -2.5125    0.0000 C   0  0  0  0  0  0  0  0  0  0  0  0
    1.7667   -3.3375    0.0000 C   0  0  0  0  0  0  0  0  0  0  0  0
    0.3375   -3.3375    0.0000 C   0  0  0  0  0  0  0  0  0  0  0  0
    1.0542   -3.7500    0.0000 C   0  0  0  0  0  0  0  0  0  0  0  0
  2  1  1  0  0  0  0
  3  4  1  0  0  0  0
  4  5  1  0  0  0  0
  5  1  1  0  0  0  0
  6  3  1  0  0  0  0
  7 14  1  0  0  0  0
  8  7  3  0  0  0  0
  9  2  2  0  0  0  0
 10  3  2  0  0  0  0
 11  2  1  0  0  0  0
 12  6  1  0  0  0  0
 13  1  1  0  0  0  0
 14 11  1  0  0  0  0
 15  4  1  0  0  0  0
 16 13  1  0  0  0  0
 16 15  1  0  0  0  0
 17 12  1  0  0  0  0
 18 12  2  0  0  0  0
 19 18  1  0  0  0  0
 20 17  2  0  0  0  0
 21 19  2  0  0  0  0
 21 20  1  0  0  0  0
M  END
> <CdId>
3471

> <Mol Weight>
285.341

> <Formula>
C16H19N3O2

> <Click_ID>
CLK045G09 __ __ 

$$$$
