CLK047B06
 OpenBabel03181417022D

 16 18  0  0  0  0  0  0  0  0999 V2000
   -0.3829   -0.0078    0.0000 C   0  0  3  0  0  0  0  0  0  0  0  0
   -0.3556   -0.8128    0.0000 C   0  0  0  0  0  0  0  0  0  0  0  0
    0.4259    0.2657    0.0000 C   0  0  0  0  0  0  0  0  0  0  0  0
   -1.2152    0.2853    0.0000 C   0  0  0  0  0  0  0  0  0  0  0  0
   -0.7697    0.4103    0.0000 C   0  0  0  0  0  0  0  0  0  0  0  0
    1.6489   -1.8052    0.0000 C   0  0  0  0  0  0  0  0  0  0  0  0
    2.4225   -1.8404    0.0000 C   0  0  0  0  0  0  0  0  0  0  0  0
   -1.3089    1.1214    0.0000 C   0  0  3  0  0  0  0  0  0  0  0  0
    0.1915    1.3324    0.0000 C   0  0  3  0  0  0  0  0  0  0  0  0
   -0.3243    1.2934    0.0000 C   0  0  3  0  0  0  0  0  0  0  0  0
   -0.6994   -1.5239    0.0000 O   0  0  0  0  0  0  0  0  0  0  0  0
   -0.6018    1.5590    0.0000 C   0  0  0  0  0  0  0  0  0  0  0  0
   -0.9612    1.7075    0.0000 C   0  0  0  0  0  0  0  0  0  0  0  0
    0.6447    0.8518    0.0000 C   0  0  0  0  0  0  0  0  0  0  0  0
    0.3712   -1.1136    0.0000 N   0  0  0  0  0  0  0  0  0  0  0  0
    0.8869   -1.6958    0.0000 C   0  0  0  0  0  0  0  0  0  0  0  0
  2  1  1  0  0  0  0
  3  1  1  0  0  0  0
  4  1  1  0  0  0  0
  5  1  1  0  0  0  0
  6 16  1  0  0  0  0
  7  6  3  0  0  0  0
  8  4  1  0  0  0  0
  8 13  1  0  0  0  0
  9  3  1  0  0  0  0
 10  5  1  0  0  0  0
 11  2  2  0  0  0  0
 12  8  1  0  0  0  0
 12  9  1  0  0  0  0
 13 10  1  0  0  0  0
 14 10  1  0  0  0  0
 14  9  1  0  0  0  0
 15  2  1  0  0  0  0
 16 15  1  0  0  0  0
M  END
> <CdId>
3602

> <Mol Weight>
217.3068

> <Formula>
C14H19NO

> <Click_ID>
CLK047B06 __ __ 

$$$$
