CLK033_G03
 OpenBabel03181417022D

 25 27  0  0  0  0  0  0  0  0999 V2000
   -4.5895    2.5535    0.0000 C    0  0  0  0  0  0  0  0  0  0  0  0
   -3.8760    2.9748    0.0000 N    0  0  0  0  0  0  0  0  0  0  0  0
   -4.6813    1.7356    0.0000 N    0  0  0  0  0  0  0  0  0  0  0  0
   -5.3280    2.8997    0.0000 S    0  0  0  0  0  0  0  0  0  0  0  0
   -5.4907    1.5729    0.0000 C    0  0  0  0  0  0  0  0  0  0  0  0
   -0.9888    3.8135    0.0000 N    0  0  0  0  0  0  0  0  0  0  0  0
   -5.8913    2.2989    0.0000 C    0  0  0  0  0  0  0  0  0  0  0  0
   -3.8760    3.8052    0.0000 C    0  0  0  0  0  0  0  0  0  0  0  0
   -1.7231    4.2182    0.0000 C    0  0  0  0  0  0  0  0  0  0  0  0
   -3.1626    4.2182    0.0000 C    0  0  0  0  0  0  0  0  0  0  0  0
   -4.2516    0.3505    0.0000 C    0  0  0  0  0  0  0  0  0  0  0  0
   -2.4408    3.8135    0.0000 C    0  0  0  0  0  0  0  0  0  0  0  0
   -4.4268   -0.4548    0.0000 C    0  0  0  0  0  0  0  0  0  0  0  0
   -0.9971    2.9873    0.0000 O    0  0  0  0  0  0  0  0  0  0  0  0
   -0.2837    4.2224    0.0000 O    0  0  0  0  0  0  0  0  0  0  0  0
   -5.9163    0.8720    0.0000 C    0  0  0  0  0  0  0  0  0  0  0  0
   -4.6020    4.2182    0.0000 O    0  0  0  0  0  0  0  0  0  0  0  0
   -4.0638    1.1599    0.0000 C    0  0  0  0  0  0  0  0  0  0  0  0
   -5.5158    0.1460    0.0000 Cl   0  0  0  0  0  0  0  0  0  0  0  0
   -6.7133    2.3114    0.0000 C    0  0  0  0  0  0  0  0  0  0  0  0
   -1.7231    5.0360    0.0000 C    0  0  0  0  0  0  0  0  0  0  0  0
   -3.1543    5.0360    0.0000 C    0  0  0  0  0  0  0  0  0  0  0  0
   -7.1389    1.6022    0.0000 C    0  0  0  0  0  0  0  0  0  0  0  0
   -2.4366    5.4574    0.0000 C    0  0  0  0  0  0  0  0  0  0  0  0
   -6.7258    0.8762    0.0000 C    0  0  0  0  0  0  0  0  0  0  0  0
  2  1  2  0  0  0  0
  3  1  1  0  0  0  0
  4  1  1  0  0  0  0
  5  3  1  0  0  0  0
  6  9  1  0  0  0  0
  7  4  1  0  0  0  0
  7  5  2  0  0  0  0
  8  2  1  0  0  0  0
  9 12  1  0  0  0  0
 10  8  1  0  0  0  0
 11 18  1  0  0  0  0
 12 10  2  0  0  0  0
 13 11  3  0  0  0  0
 14  6  1  0  0  0  0
 15  6  2  0  0  0  0
 16  5  1  0  0  0  0
 17  8  2  0  0  0  0
 18  3  1  0  0  0  0
 19 16  1  0  0  0  0
 20  7  1  0  0  0  0
 21 24  1  0  0  0  0
 21  9  2  0  0  0  0
 22 10  1  0  0  0  0
 23 20  2  0  0  0  0
 24 22  2  0  0  0  0
 25 16  2  0  0  0  0
 25 23  1  0  0  0  0
M  END
> <CdId>
2547

> <Mol Weight>
371.798

> <Formula>
C17H10ClN3O3S

> <Click_ID>
CLK033_G03 __ __ 

$$$$
