CLK039H05
 OpenBabel03181417022D

 19 20  0  0  0  0  0  0  0  0999 V2000
   -0.6042   -1.8667    0.0000 C   0  0  0  0  0  0  0  0  0  0  0  0
    0.1125   -1.4542    0.0000 N   0  0  0  0  0  0  0  0  0  0  0  0
   -0.6042   -0.2167    0.0000 N   0  0  0  0  0  0  0  0  0  0  0  0
   -1.3167   -1.4542    0.0000 C   0  0  0  0  0  0  0  0  0  0  0  0
    0.1125   -0.6292    0.0000 C   0  0  0  0  0  0  0  0  0  0  0  0
   -1.3167   -0.6292    0.0000 C   0  0  0  0  0  0  0  0  0  0  0  0
    2.2542    3.0833    0.0000 C   0  0  0  0  0  0  0  0  0  0  0  0
    2.2542    3.9083    0.0000 C   0  0  0  0  0  0  0  0  0  0  0  0
    1.5417    1.0208    0.0000 C   0  0  0  0  0  0  0  0  0  0  0  0
   -0.6042   -2.6917    0.0000 O   0  0  0  0  0  0  0  0  0  0  0  0
    2.2542    0.6083    0.0000 O   0  0  0  0  0  0  0  0  0  0  0  0
    0.8250   -0.2167    0.0000 C   0  0  0  0  0  0  0  0  0  0  0  0
    1.5417    1.8458    0.0000 N   0  0  0  0  0  0  0  0  0  0  0  0
    0.8250    0.6083    0.0000 C   0  0  0  0  0  0  0  0  0  0  0  0
   -2.0333   -1.8667    0.0000 C   0  0  0  0  0  0  0  0  0  0  0  0
    2.2542    2.2583    0.0000 C   0  0  0  0  0  0  0  0  0  0  0  0
   -2.0333   -0.2167    0.0000 C   0  0  0  0  0  0  0  0  0  0  0  0
   -2.7458   -1.4542    0.0000 C   0  0  0  0  0  0  0  0  0  0  0  0
   -2.7458   -0.6292    0.0000 C   0  0  0  0  0  0  0  0  0  0  0  0
  2  1  1  0  0  0  0
  3  5  2  0  0  0  0
  4  1  1  0  0  0  0
  5  2  1  0  0  0  0
  6  4  2  0  0  0  0
  6  3  1  0  0  0  0
  7 16  1  0  0  0  0
  8  7  3  0  0  0  0
  9 14  1  0  0  0  0
 10  1  2  0  0  0  0
 11  9  2  0  0  0  0
 12  5  1  0  0  0  0
 13  9  1  0  0  0  0
 14 12  1  0  0  0  0
 15  4  1  0  0  0  0
 16 13  1  0  0  0  0
 17  6  1  0  0  0  0
 18 15  2  0  0  0  0
 18 19  1  0  0  0  0
 19 17  2  0  0  0  0
M  END
> <CdId>
2960

> <Mol Weight>
255.2719

> <Formula>
C14H13N3O2

> <Click_ID>
CLK039H05 __ __ 

$$$$
