CLK029_A02
 OpenBabel03181417022D

 34 37  0  0  0  0  0  0  0  0999 V2000
   -2.3839   -0.3589    0.0000 S   0  0  0  0  0  0  0  0  0  0  0  0
    1.6713    1.1207    0.0000 N   0  0  0  0  0  0  0  0  0  0  0  0
    2.4626    1.0765    0.0000 C   0  0  0  0  0  0  0  0  0  0  0  0
   -2.0202    0.3687    0.0000 C   0  0  0  0  0  0  0  0  0  0  0  0
    2.6888    0.2949    0.0000 N   0  0  0  0  0  0  0  0  0  0  0  0
   -2.7673   -1.0667    0.0000 N   0  0  0  0  0  0  0  0  0  0  0  0
    1.3567    0.3490    0.0000 C   0  0  0  0  0  0  0  0  0  0  0  0
    1.2731    1.8285    0.0000 C   0  0  0  0  0  0  0  0  0  0  0  0
    1.9810   -0.1770    0.0000 C   0  0  0  0  0  0  0  0  0  0  0  0
    0.4473    1.8236    0.0000 C   0  0  0  0  0  0  0  0  0  0  0  0
   -1.6516   -0.7718    0.0000 O   0  0  0  0  0  0  0  0  0  0  0  0
   -3.1065    0.0245    0.0000 O   0  0  0  0  0  0  0  0  0  0  0  0
    4.0749    0.8503    0.0000 C   0  0  0  0  0  0  0  0  0  0  0  0
   -2.4429    1.0863    0.0000 C   0  0  0  0  0  0  0  0  0  0  0  0
    4.8810    0.7471    0.0000 C   0  0  0  0  0  0  0  0  0  0  0  0
   -1.2190    0.3932    0.0000 C   0  0  0  0  0  0  0  0  0  0  0  0
    0.0344    1.0863    0.0000 C   0  0  0  0  0  0  0  0  0  0  0  0
    2.9542    1.7106    0.0000 S   0  0  0  0  0  0  0  0  0  0  0  0
    1.6860    2.5609    0.0000 O   0  0  0  0  0  0  0  0  0  0  0  0
   -0.8208    1.0863    0.0000 C   0  0  0  0  0  0  0  0  0  0  0  0
   -2.0448    1.7696    0.0000 C   0  0  0  0  0  0  0  0  0  0  0  0
   -1.2190    1.8088    0.0000 C   0  0  0  0  0  0  0  0  0  0  0  0
    3.7750    1.6073    0.0000 C   0  0  0  0  0  0  0  0  0  0  0  0
   -3.2589    1.1158    0.0000 O   0  0  0  0  0  0  0  0  0  0  0  0
   -2.3397   -1.7696    0.0000 C   0  0  0  0  0  0  0  0  0  0  0  0
   -3.5784   -1.0814    0.0000 C   0  0  0  0  0  0  0  0  0  0  0  0
    0.5653    0.0737    0.0000 C   0  0  0  0  0  0  0  0  0  0  0  0
    1.8482   -0.9880    0.0000 C   0  0  0  0  0  0  0  0  0  0  0  0
   -3.6374    1.8285    0.0000 C   0  0  0  0  0  0  0  0  0  0  0  0
   -2.7133   -2.4971    0.0000 C   0  0  0  0  0  0  0  0  0  0  0  0
   -3.9667   -1.8138    0.0000 C   0  0  0  0  0  0  0  0  0  0  0  0
    0.4178   -0.7521    0.0000 C   0  0  0  0  0  0  0  0  0  0  0  0
    1.0667   -1.2829    0.0000 C   0  0  0  0  0  0  0  0  0  0  0  0
   -3.5341   -2.5216    0.0000 C   0  0  0  0  0  0  0  0  0  0  0  0
  2  8  1  0  0  0  0
  3  2  1  0  0  0  0
  4  1  1  0  0  0  0
  5  3  2  0  0  0  0
  5  9  1  0  0  0  0
  6  1  1  0  0  0  0
  7  2  1  0  0  0  0
  8 10  1  0  0  0  0
  9  7  2  0  0  0  0
 10 17  2  0  0  0  0
 11  1  2  0  0  0  0
 12  1  2  0  0  0  0
 13 23  1  0  0  0  0
 14  4  1  0  0  0  0
 15 13  3  0  0  0  0
 16  4  2  0  0  0  0
 17 20  1  0  0  0  0
 18  3  1  0  0  0  0
 19  8  2  0  0  0  0
 20 16  1  0  0  0  0
 21 14  2  0  0  0  0
 21 22  1  0  0  0  0
 22 20  2  0  0  0  0
 23 18  1  0  0  0  0
 24 14  1  0  0  0  0
 25  6  1  0  0  0  0
 26  6  1  0  0  0  0
 27  7  1  0  0  0  0
 28  9  1  0  0  0  0
 29 24  1  0  0  0  0
 30 25  1  0  0  0  0
 30 34  1  0  0  0  0
 31 26  1  0  0  0  0
 32 27  2  0  0  0  0
 33 32  1  0  0  0  0
 33 28  2  0  0  0  0
 34 31  1  0  0  0  0
M  END
> <CdId>
2166

> <Mol Weight>
495.614

> <Formula>
C25H25N3O4S2

> <Click_ID>
CLK029_A02 __ __ 

$$$$
