CLK004_G07
 OpenBabel03181417022D

 31 34  0  0  0  0  0  0  0  0999 V2000
    0.6421    0.0432    0.0000 N   0  0  0  0  0  0  0  0  0  0  0  0
    0.3790    0.8228    0.0000 C   0  0  0  0  0  0  0  0  0  0  0  0
    0.0982   -0.5753    0.0000 C   0  0  3  0  0  0  0  0  0  0  0  0
    1.4531   -0.1198    0.0000 C   0  0  0  0  0  0  0  0  0  0  0  0
    0.9249    1.4413    0.0000 C   0  0  0  0  0  0  0  0  0  0  0  0
   -0.4320    0.9878    0.0000 C   0  0  0  0  0  0  0  0  0  0  0  0
    0.3653   -1.3569    0.0000 C   0  0  0  0  0  0  0  0  0  0  0  0
   -0.7128   -0.4163    0.0000 C   0  0  0  0  0  0  0  0  0  0  0  0
    1.9971    0.4988    0.0000 C   0  0  0  0  0  0  0  0  0  0  0  0
    1.7143   -0.9033    0.0000 O   0  0  0  0  0  0  0  0  0  0  0  0
    0.6598    2.2268    0.0000 C   0  0  0  0  0  0  0  0  0  0  0  0
    1.7339    1.2843    0.0000 C   0  0  0  0  0  0  0  0  0  0  0  0
   -0.6952    1.7693    0.0000 C   0  0  0  0  0  0  0  0  0  0  0  0
    1.1723   -1.5179    0.0000 C   0  0  0  0  0  0  0  0  0  0  0  0
   -0.1846   -1.9755    0.0000 C   0  0  0  0  0  0  0  0  0  0  0  0
   -1.2568   -1.0348    0.0000 N   0  0  0  0  0  0  0  0  0  0  0  0
   -0.8994    0.1315    0.0000 O   0  0  0  0  0  0  0  0  0  0  0  0
    2.5411    1.1193    0.0000 C   0  0  0  0  0  0  0  0  0  0  0  0
   -0.1493    2.3879    0.0000 C   0  0  0  0  0  0  0  0  0  0  0  0
    1.2038    2.8454    0.0000 C   0  0  0  0  0  0  0  0  0  0  0  0
    2.2798    1.9028    0.0000 C   0  0  0  0  0  0  0  0  0  0  0  0
    1.4374   -2.2995    0.0000 C   0  0  0  0  0  0  0  0  0  0  0  0
    0.0825   -2.7590    0.0000 C   0  0  0  0  0  0  0  0  0  0  0  0
   -2.0638   -0.8758    0.0000 C   0  0  0  0  0  0  0  0  0  0  0  0
    2.0108    2.6844    0.0000 C   0  0  0  0  0  0  0  0  0  0  0  0
    0.8896   -2.9220    0.0000 C   0  0  0  0  0  0  0  0  0  0  0  0
   -2.6117   -1.4865    0.0000 C   0  0  0  0  0  0  0  0  0  0  0  0
   -2.3309   -0.0923    0.0000 C   0  0  0  0  0  0  0  0  0  0  0  0
   -3.4149   -1.3294    0.0000 C   0  0  0  0  0  0  0  0  0  0  0  0
   -3.1419    0.0707    0.0000 C   0  0  0  0  0  0  0  0  0  0  0  0
   -3.6859   -0.5479    0.0000 C   0  0  0  0  0  0  0  0  0  0  0  0
  1  2  1  0  0  0  0
  1  3  1  0  0  0  0
  1  4  1  0  0  0  0
  2  5  2  0  0  0  0
  2  6  1  0  0  0  0
  3  7  1  0  0  0  0
  3  8  1  0  0  0  0
  4  9  1  0  0  0  0
  4 10  2  0  0  0  0
  5 11  1  0  0  0  0
  5 12  1  0  0  0  0
  6 13  2  0  0  0  0
  7 14  1  0  0  0  0
  7 15  2  0  0  0  0
  8 16  1  0  0  0  0
  8 17  2  0  0  0  0
  9 18  3  0  0  0  0
 11 19  2  0  0  0  0
 11 20  1  0  0  0  0
 12 21  2  0  0  0  0
 13 19  1  0  0  0  0
 14 22  2  0  0  0  0
 15 23  1  0  0  0  0
 16 24  1  0  0  0  0
 20 25  2  0  0  0  0
 21 25  1  0  0  0  0
 22 26  1  0  0  0  0
 23 26  2  0  0  0  0
 24 27  1  0  0  0  0
 24 28  1  0  0  0  0
 27 29  1  0  0  0  0
 28 30  1  0  0  0  0
 29 31  1  0  0  0  0
 30 31  1  0  0  0  0
M  END
> <CdId>
306

> <Mol Weight>
410.5075

> <Formula>
C27H26N2O2

> <Click_ID>
CLK004_G07 __ __ 

$$$$
