CLK035_F03
 OpenBabel03181417022D

 26 28  0  0  0  0  0  0  0  0999 V2000
   -4.5670    2.5409    0.0000 C   0  0  0  0  0  0  0  0  0  0  0  0
   -3.8570    2.9602    0.0000 N   0  0  0  0  0  0  0  0  0  0  0  0
   -4.6666    1.7271    0.0000 N   0  0  0  0  0  0  0  0  0  0  0  0
   -5.3019    2.8855    0.0000 S   0  0  0  0  0  0  0  0  0  0  0  0
   -3.8570    3.7865    0.0000 C   0  0  0  0  0  0  0  0  0  0  0  0
   -5.4680    1.5694    0.0000 C   0  0  0  0  0  0  0  0  0  0  0  0
   -5.8748    2.2876    0.0000 C   0  0  0  0  0  0  0  0  0  0  0  0
   -3.1471    4.1975    0.0000 C   0  0  0  0  0  0  0  0  0  0  0  0
   -4.2349    0.3488    0.0000 C   0  0  0  0  0  0  0  0  0  0  0  0
   -4.4175   -0.4609    0.0000 C   0  0  0  0  0  0  0  0  0  0  0  0
   -5.8915    0.8677    0.0000 C   0  0  0  0  0  0  0  0  0  0  0  0
   -4.5794    4.1892    0.0000 O   0  0  0  0  0  0  0  0  0  0  0  0
   -3.1471    5.0071    0.0000 C   0  0  0  0  0  0  0  0  0  0  0  0
   -4.0480    1.1542    0.0000 C   0  0  0  0  0  0  0  0  0  0  0  0
   -6.6803    2.3043    0.0000 C   0  0  0  0  0  0  0  0  0  0  0  0
   -2.4288    3.7865    0.0000 C   0  0  0  0  0  0  0  0  0  0  0  0
   -3.8612    5.4223    0.0000 O   0  0  0  0  0  0  0  0  0  0  0  0
   -5.5012    0.1370    0.0000 O   0  0  0  0  0  0  0  0  0  0  0  0
   -7.1163    1.6026    0.0000 C   0  0  0  0  0  0  0  0  0  0  0  0
   -6.7053    0.8802    0.0000 C   0  0  0  0  0  0  0  0  0  0  0  0
   -2.4371    5.4223    0.0000 C   0  0  0  0  0  0  0  0  0  0  0  0
   -5.9246   -0.5647    0.0000 C   0  0  0  0  0  0  0  0  0  0  0  0
   -4.1435    6.1904    0.0000 C   0  0  0  0  0  0  0  0  0  0  0  0
   -1.7147    4.1851    0.0000 C   0  0  0  0  0  0  0  0  0  0  0  0
   -5.5427   -1.2746    0.0000 C   0  0  0  0  0  0  0  0  0  0  0  0
   -1.7189    5.0113    0.0000 C   0  0  0  0  0  0  0  0  0  0  0  0
  2  1  2  0  0  0  0
  3  1  1  0  0  0  0
  4  1  1  0  0  0  0
  5  2  1  0  0  0  0
  6  3  1  0  0  0  0
  7  4  1  0  0  0  0
  7  6  2  0  0  0  0
  8  5  1  0  0  0  0
  9 14  1  0  0  0  0
 10  9  3  0  0  0  0
 11  6  1  0  0  0  0
 12  5  2  0  0  0  0
 13  8  1  0  0  0  0
 14  3  1  0  0  0  0
 15  7  1  0  0  0  0
 16  8  2  0  0  0  0
 17 13  1  0  0  0  0
 18 11  1  0  0  0  0
 19 15  2  0  0  0  0
 20 11  2  0  0  0  0
 20 19  1  0  0  0  0
 21 13  2  0  0  0  0
 21 26  1  0  0  0  0
 22 18  1  0  0  0  0
 23 17  1  0  0  0  0
 24 16  1  0  0  0  0
 25 22  1  0  0  0  0
 26 24  2  0  0  0  0
M  END
> <CdId>
2697

> <Mol Weight>
366.434

> <Formula>
C20H18N2O3S

> <Click_ID>
CLK035_F03 __ __ 

$$$$
