CLK013_C02
 OpenBabel03181417022D

 28 30  0  0  0  0  0  0  0  0999 V2000
    5.2363   -1.9480    0.0000 N    0  0  0  0  0  0  0  0  0  0  0  0
    5.1072   -2.7638    0.0000 C    0  0  0  0  0  0  0  0  0  0  0  0
    4.4996   -1.5651    0.0000 C    0  0  0  0  0  0  0  0  0  0  0  0
    3.9127   -2.1520    0.0000 C    0  0  0  0  0  0  0  0  0  0  0  0
    4.2873   -2.8887    0.0000 N    0  0  0  0  0  0  0  0  0  0  0  0
    3.1010   -2.0229    0.0000 C    0  0  0  0  0  0  0  0  0  0  0  0
    1.5234   -3.9584    0.0000 C    0  0  0  0  0  0  0  0  0  0  0  0
    1.2279   -3.1634    0.0000 C    0  0  0  0  0  0  0  0  0  0  0  0
    2.3393   -4.0750    0.0000 C    0  0  0  0  0  0  0  0  0  0  0  0
    5.9730   -1.5734    0.0000 C    0  0  0  0  0  0  0  0  0  0  0  0
    2.5723   -2.6639    0.0000 C    0  0  0  0  0  0  0  0  0  0  0  0
    5.6858   -3.3465    0.0000 S    0  0  0  0  0  0  0  0  0  0  0  0
    0.7742   -6.0105    0.0000 C    0  0  0  0  0  0  0  0  0  0  0  0
    0.2539   -6.6473    0.0000 C    0  0  0  0  0  0  0  0  0  0  0  0
    1.7524   -2.5266    0.0000 C    0  0  0  0  0  0  0  0  0  0  0  0
    4.3747   -0.7534    0.0000 O    0  0  0  0  0  0  0  0  0  0  0  0
    2.8637   -3.4382    0.0000 C    0  0  0  0  0  0  0  0  0  0  0  0
    6.0105   -0.7534    0.0000 C    0  0  0  0  0  0  0  0  0  0  0  0
    6.6598   -2.0271    0.0000 C    0  0  0  0  0  0  0  0  0  0  0  0
    0.4163   -3.0386    0.0000 Cl   0  0  0  0  0  0  0  0  0  0  0  0
    0.9990   -4.5953    0.0000 O    0  0  0  0  0  0  0  0  0  0  0  0
    7.4423   -0.8366    0.0000 C    0  0  0  0  0  0  0  0  0  0  0  0
    2.6348   -4.8492    0.0000 O    0  0  0  0  0  0  0  0  0  0  0  0
    7.3924   -1.6525    0.0000 C    0  0  0  0  0  0  0  0  0  0  0  0
    6.7472   -0.3788    0.0000 C    0  0  0  0  0  0  0  0  0  0  0  0
    8.1833   -0.4662    0.0000 Br   0  0  0  0  0  0  0  0  0  0  0  0
    1.2904   -5.3612    0.0000 C    0  0  0  0  0  0  0  0  0  0  0  0
    3.4506   -4.9866    0.0000 C    0  0  0  0  0  0  0  0  0  0  0  0
  2  1  1  0  0  0  0
  3  1  1  0  0  0  0
  4  3  1  0  0  0  0
  5  2  1  0  0  0  0
  5  4  1  0  0  0  0
  6  4  2  0  0  0  0
  7  9  1  0  0  0  0
  7  8  2  0  0  0  0
  8 15  1  0  0  0  0
  9 17  2  0  0  0  0
 10  1  1  0  0  0  0
 11  6  1  0  0  0  0
 12  2  2  0  0  0  0
 13 27  1  0  0  0  0
 14 13  3  0  0  0  0
 15 11  2  0  0  0  0
 16  3  2  0  0  0  0
 17 11  1  0  0  0  0
 18 10  1  0  0  0  0
 19 10  2  0  0  0  0
 20  8  1  0  0  0  0
 21  7  1  0  0  0  0
 22 24  2  0  0  0  0
 22 25  1  0  0  0  0
 23  9  1  0  0  0  0
 24 19  1  0  0  0  0
 25 18  2  0  0  0  0
 26 22  1  0  0  0  0
 27 21  1  0  0  0  0
 28 23  1  0  0  0  0
M  END
> <CdId>
937

> <Mol Weight>
477.759

> <Formula>
C20H14BrClN2O3S

> <Click_ID>
CLK013_C02 __ __ 

$$$$
