CLK005_E08
 OpenBabel03181417022D

 17 18  0  0  0  0  0  0  0  0999 V2000
    1.0440   -0.2069    0.0000 C   0  0  0  0  0  0  0  0  0  0  0  0
    0.2734   -0.4936    0.0000 N   0  0  0  0  0  0  0  0  0  0  0  0
    1.0155    0.6131    0.0000 C   0  0  0  0  0  0  0  0  0  0  0  0
    1.8432   -0.4328    0.0000 C   0  0  0  0  0  0  0  0  0  0  0  0
   -0.2373    0.1481    0.0000 C   0  0  0  0  0  0  0  0  0  0  0  0
    0.0475   -1.2870    0.0000 C   0  0  0  0  0  0  0  0  0  0  0  0
    0.2183    0.8352    0.0000 C   0  0  0  0  0  0  0  0  0  0  0  0
    1.7881    0.8978    0.0000 S   0  0  0  0  0  0  0  0  0  0  0  0
    2.3025    0.2506    0.0000 C   0  0  0  0  0  0  0  0  0  0  0  0
   -1.0630    0.1158    0.0000 C   0  0  0  0  0  0  0  0  0  0  0  0
   -0.7517   -1.4939    0.0000 C   0  0  0  0  0  0  0  0  0  0  0  0
    3.1225    0.2847    0.0000 C   0  0  0  0  0  0  0  0  0  0  0  0
   -1.5033    0.8162    0.0000 O   0  0  0  0  0  0  0  0  0  0  0  0
   -1.4483   -0.6112    0.0000 O   0  0  0  0  0  0  0  0  0  0  0  0
   -1.5508   -1.6989    0.0000 C   0  0  0  0  0  0  0  0  0  0  0  0
   -2.3291    0.7801    0.0000 C   0  0  0  0  0  0  0  0  0  0  0  0
   -2.7694    1.4806    0.0000 C   0  0  0  0  0  0  0  0  0  0  0  0
  1  2  1  0  0  0  0
  1  3  2  0  0  0  0
  1  4  1  0  0  0  0
  2  5  1  0  0  0  0
  2  6  1  0  0  0  0
  3  7  1  0  0  0  0
  3  8  1  0  0  0  0
  4  9  2  0  0  0  0
  5 10  1  0  0  0  0
  5  7  2  0  0  0  0
  6 11  1  0  0  0  0
  8  9  1  0  0  0  0
  9 12  1  0  0  0  0
 10 13  1  0  0  0  0
 10 14  2  0  0  0  0
 11 15  3  0  0  0  0
 13 16  1  0  0  0  0
 16 17  1  0  0  0  0
M  END
> <CdId>
367

> <Mol Weight>
247.313

> <Formula>
C13H13NO2S

> <Click_ID>
CLK005_E08 __ __ 

$$$$
