CLK040G03
 OpenBabel03181417022D

 24 25  0  0  0  0  0  0  0  0999 V2000
    0.2083    2.3917    0.0000 S   0  0  0  0  0  0  0  0  0  0  0  0
    0.2083   -0.9083    0.0000 C   0  0  0  0  0  0  0  0  0  0  0  0
   -0.5083   -1.3208    0.0000 N   0  0  0  0  0  0  0  0  0  0  0  0
   -0.5083   -2.1458    0.0000 C   0  0  0  0  0  0  0  0  0  0  0  0
    0.2083    1.5667    0.0000 C   0  0  0  0  0  0  0  0  0  0  0  0
    0.9208    4.4500    0.0000 C   0  0  0  0  0  0  0  0  0  0  0  0
    0.9208    5.2750    0.0000 C   0  0  0  0  0  0  0  0  0  0  0  0
   -1.2208   -2.5583    0.0000 C   0  0  0  0  0  0  0  0  0  0  0  0
    1.0333    2.3917    0.0000 O   0  0  0  0  0  0  0  0  0  0  0  0
   -0.6167    2.3917    0.0000 O   0  0  0  0  0  0  0  0  0  0  0  0
    0.2083   -0.0833    0.0000 C   0  0  0  0  0  0  0  0  0  0  0  0
    0.2083    3.2167    0.0000 N   0  0  0  0  0  0  0  0  0  0  0  0
    0.9208   -1.3208    0.0000 O   0  0  0  0  0  0  0  0  0  0  0  0
   -1.2208   -3.3833    0.0000 C   0  0  0  0  0  0  0  0  0  0  0  0
    0.9208    1.1542    0.0000 C   0  0  0  0  0  0  0  0  0  0  0  0
   -0.5083    1.1542    0.0000 C   0  0  0  0  0  0  0  0  0  0  0  0
    0.2083   -2.5583    0.0000 C   0  0  0  0  0  0  0  0  0  0  0  0
    0.9208    0.3292    0.0000 C   0  0  0  0  0  0  0  0  0  0  0  0
   -0.5083    0.3292    0.0000 C   0  0  0  0  0  0  0  0  0  0  0  0
   -0.5083   -3.7958    0.0000 C   0  0  0  0  0  0  0  0  0  0  0  0
   -1.9375   -2.1458    0.0000 O   0  0  0  0  0  0  0  0  0  0  0  0
    0.2083   -3.3833    0.0000 C   0  0  0  0  0  0  0  0  0  0  0  0
    0.9208    3.6292    0.0000 C   0  0  0  0  0  0  0  0  0  0  0  0
   -0.5083   -4.6208    0.0000 C   0  0  0  0  0  0  0  0  0  0  0  0
  2 11  1  0  0  0  0
  3  2  1  0  0  0  0
  4  3  1  0  0  0  0
  5  1  1  0  0  0  0
  6 23  1  0  0  0  0
  7  6  3  0  0  0  0
  8  4  2  0  0  0  0
  9  1  2  0  0  0  0
 10  1  2  0  0  0  0
 11 19  2  0  0  0  0
 12  1  1  0  0  0  0
 13  2  2  0  0  0  0
 14  8  1  0  0  0  0
 15  5  1  0  0  0  0
 16  5  2  0  0  0  0
 17  4  1  0  0  0  0
 18 15  2  0  0  0  0
 18 11  1  0  0  0  0
 19 16  1  0  0  0  0
 20 14  2  0  0  0  0
 21  8  1  0  0  0  0
 22 17  2  0  0  0  0
 22 20  1  0  0  0  0
 23 12  1  0  0  0  0
 24 20  1  0  0  0  0
M  END
> <CdId>
3023

> <Mol Weight>
344.385

> <Formula>
C17H16N2O4S

> <Click_ID>
CLK040G03 __ __ 

$$$$
