CLK011_H09
 OpenBabel03181417022D

 29 31  0  0  0  0  0  0  0  0999 V2000
    5.7233   -2.1149    0.0000 N    0  0  0  0  0  0  0  0  0  0  0  0
    5.1977   -2.7574    0.0000 C    0  0  0  0  0  0  0  0  0  0  0  0
    5.2728   -1.4183    0.0000 C    0  0  0  0  0  0  0  0  0  0  0  0
    4.4718   -1.6311    0.0000 C    0  0  0  0  0  0  0  0  0  0  0  0
    4.4218   -2.4570    0.0000 S    0  0  0  0  0  0  0  0  0  0  0  0
    3.8294   -1.1055    0.0000 C    0  0  0  0  0  0  0  0  0  0  0  0
    1.5184   -1.9815    0.0000 C    0  0  0  0  0  0  0  0  0  0  0  0
    1.6519   -1.1680    0.0000 C    0  0  0  0  0  0  0  0  0  0  0  0
    2.1442   -2.5071    0.0000 C    0  0  0  0  0  0  0  0  0  0  0  0
    3.0577   -1.4016    0.0000 C    0  0  0  0  0  0  0  0  0  0  0  0
    6.5492   -2.1567    0.0000 C    0  0  0  0  0  0  0  0  0  0  0  0
   -0.6716   -2.0273    0.0000 C    0  0  0  0  0  0  0  0  0  0  0  0
   -1.4392   -2.3068    0.0000 C    0  0  0  0  0  0  0  0  0  0  0  0
    5.4104   -3.5541    0.0000 O    0  0  0  0  0  0  0  0  0  0  0  0
    5.5689   -0.6424    0.0000 O    0  0  0  0  0  0  0  0  0  0  0  0
    2.4195   -0.8802    0.0000 C    0  0  0  0  0  0  0  0  0  0  0  0
    2.9201   -2.2150    0.0000 C    0  0  0  0  0  0  0  0  0  0  0  0
    1.0179   -0.6507    0.0000 Cl   0  0  0  0  0  0  0  0  0  0  0  0
    6.9997   -1.4684    0.0000 C    0  0  0  0  0  0  0  0  0  0  0  0
    0.7426   -2.2693    0.0000 O    0  0  0  0  0  0  0  0  0  0  0  0
    2.0065   -3.3080    0.0000 O    0  0  0  0  0  0  0  0  0  0  0  0
    7.9008   -0.0918    0.0000 C    0  0  0  0  0  0  0  0  0  0  0  0
    8.3638    0.6007    0.0000 Cl   0  0  0  0  0  0  0  0  0  0  0  0
    6.6243   -0.7300    0.0000 C    0  0  0  0  0  0  0  0  0  0  0  0
    7.8215   -1.5142    0.0000 C    0  0  0  0  0  0  0  0  0  0  0  0
    7.0748   -0.0417    0.0000 C    0  0  0  0  0  0  0  0  0  0  0  0
    8.2762   -0.8302    0.0000 C    0  0  0  0  0  0  0  0  0  0  0  0
    0.1043   -1.7395    0.0000 C    0  0  0  0  0  0  0  0  0  0  0  0
    2.6447   -3.8294    0.0000 C    0  0  0  0  0  0  0  0  0  0  0  0
  2  1  1  0  0  0  0
  3  1  1  0  0  0  0
  4  3  1  0  0  0  0
  5  2  1  0  0  0  0
  5  4  1  0  0  0  0
  6  4  2  0  0  0  0
  7  9  2  0  0  0  0
  7  8  1  0  0  0  0
  8 16  2  0  0  0  0
  9 17  1  0  0  0  0
 10  6  1  0  0  0  0
 11  1  1  0  0  0  0
 12 28  1  0  0  0  0
 13 12  3  0  0  0  0
 14  2  2  0  0  0  0
 15  3  2  0  0  0  0
 16 10  1  0  0  0  0
 17 10  2  0  0  0  0
 18  8  1  0  0  0  0
 19 11  1  0  0  0  0
 20  7  1  0  0  0  0
 21  9  1  0  0  0  0
 22 27  2  0  0  0  0
 22 26  1  0  0  0  0
 23 22  1  0  0  0  0
 24 19  1  0  0  0  0
 25 19  2  0  0  0  0
 26 24  2  0  0  0  0
 27 25  1  0  0  0  0
 28 20  1  0  0  0  0
 29 21  1  0  0  0  0
M  END
> <CdId>
834

> <Mol Weight>
448.319

> <Formula>
C21H15Cl2NO4S

> <Click_ID>
CLK011_H09 __ __ 

$$$$
