CLK042C02
 OpenBabel03181417022D

 23 24  0  0  0  0  0  0  0  0999 V2000
   -0.4333   -1.8000    0.0000 C   0  0  0  0  0  0  0  0  0  0  0  0
   -0.4333   -0.9750    0.0000 N   0  0  0  0  0  0  0  0  0  0  0  0
    0.2833   -0.5625    0.0000 C   0  0  0  0  0  0  0  0  0  0  0  0
    0.2833   -2.2125    0.0000 N   0  0  0  0  0  0  0  0  0  0  0  0
    0.9958   -0.9750    0.0000 N   0  0  0  0  0  0  0  0  0  0  0  0
    0.9958   -1.8000    0.0000 C   0  0  0  0  0  0  0  0  0  0  0  0
   -1.2167   -0.7208    0.0000 C   0  0  0  0  0  0  0  0  0  0  0  0
   -1.2167   -2.0542    0.0000 N   0  0  0  0  0  0  0  0  0  0  0  0
   -1.7042   -1.3875    0.0000 N   0  0  0  0  0  0  0  0  0  0  0  0
   -1.4708    0.0625    0.0000 S   0  0  0  0  0  0  0  0  0  0  0  0
   -0.3250    3.4708    0.0000 C   0  0  0  0  0  0  0  0  0  0  0  0
    0.2250    4.0833    0.0000 C   0  0  0  0  0  0  0  0  0  0  0  0
   -1.1750    1.4625    0.0000 C   0  0  0  0  0  0  0  0  0  0  0  0
    0.2833    0.2625    0.0000 N   0  0  0  0  0  0  0  0  0  0  0  0
    1.7125   -2.2125    0.0000 N   0  0  0  0  0  0  0  0  0  0  0  0
   -1.9833    1.6333    0.0000 O   0  0  0  0  0  0  0  0  0  0  0  0
   -0.9208    0.6792    0.0000 C   0  0  0  0  0  0  0  0  0  0  0  0
   -0.6250    2.0750    0.0000 N   0  0  0  0  0  0  0  0  0  0  0  0
   -0.8792    2.8583    0.0000 C   0  0  0  0  0  0  0  0  0  0  0  0
    0.9958    0.6750    0.0000 C   0  0  0  0  0  0  0  0  0  0  0  0
    2.4250   -1.8000    0.0000 C   0  0  0  0  0  0  0  0  0  0  0  0
    3.1417   -2.2125    0.0000 C   0  0  0  0  0  0  0  0  0  0  0  0
    0.9958    1.5000    0.0000 C   0  0  0  0  0  0  0  0  0  0  0  0
  2  1  1  0  0  0  0
  3  2  1  0  0  0  0
  3  5  2  0  0  0  0
  4  1  1  0  0  0  0
  5  6  1  0  0  0  0
  6  4  2  0  0  0  0
  7  2  1  0  0  0  0
  8  1  2  0  0  0  0
  9  8  1  0  0  0  0
  9  7  2  0  0  0  0
 10  7  1  0  0  0  0
 11 19  1  0  0  0  0
 12 11  3  0  0  0  0
 13 17  1  0  0  0  0
 14  3  1  0  0  0  0
 15  6  1  0  0  0  0
 16 13  2  0  0  0  0
 17 10  1  0  0  0  0
 18 13  1  0  0  0  0
 19 18  1  0  0  0  0
 20 14  1  0  0  0  0
 21 15  1  0  0  0  0
 22 21  1  0  0  0  0
 23 20  1  0  0  0  0
M  END
> <CdId>
3171

> <Mol Weight>
334.4

> <Formula>
C13H18N8OS

> <Click_ID>
CLK042C02 __ __ 

$$$$
