CLK035_H11
 OpenBabel03181417022D

 24 26  0  0  0  0  0  0  0  0999 V2000
   -0.5476    2.1949    0.0000 C   0  0  0  0  0  0  0  0  0  0  0  0
    0.2425    2.4540    0.0000 N   0  0  0  0  0  0  0  0  0  0  0  0
   -0.8027    1.4047    0.0000 N   0  0  0  0  0  0  0  0  0  0  0  0
   -1.2166    2.6798    0.0000 S   0  0  0  0  0  0  0  0  0  0  0  0
   -1.6305    1.4047    0.0000 C   0  0  0  0  0  0  0  0  0  0  0  0
   -1.8813    2.1907    0.0000 C   0  0  0  0  0  0  0  0  0  0  0  0
    0.4181    3.2567    0.0000 C   0  0  0  0  0  0  0  0  0  0  0  0
   -2.1781    0.7985    0.0000 C   0  0  0  0  0  0  0  0  0  0  0  0
   -2.6923    2.3663    0.0000 C   0  0  0  0  0  0  0  0  0  0  0  0
    1.1957    3.5118    0.0000 C   0  0  0  0  0  0  0  0  0  0  0  0
   -2.9808    0.9657    0.0000 C   0  0  0  0  0  0  0  0  0  0  0  0
   -3.2442    1.7517    0.0000 C   0  0  0  0  0  0  0  0  0  0  0  0
    0.4934    0.8236    0.0000 C   0  0  0  0  0  0  0  0  0  0  0  0
    0.8403    1.5761    0.0000 C   0  0  0  0  0  0  0  0  0  0  0  0
    1.8605    3.0310    0.0000 O   0  0  0  0  0  0  0  0  0  0  0  0
   -0.1965    3.8128    0.0000 O   0  0  0  0  0  0  0  0  0  0  0  0
    1.4591    4.2936    0.0000 C   0  0  0  0  0  0  0  0  0  0  0  0
    2.5377    3.5201    0.0000 C   0  0  0  0  0  0  0  0  0  0  0  0
   -0.3219    0.7400    0.0000 C   0  0  0  0  0  0  0  0  0  0  0  0
    2.2869    4.2811    0.0000 C   0  0  0  0  0  0  0  0  0  0  0  0
   -3.5327    0.3470    0.0000 O   0  0  0  0  0  0  0  0  0  0  0  0
   -4.0469    1.9273    0.0000 O   0  0  0  0  0  0  0  0  0  0  0  0
   -4.5988    1.3127    0.0000 C   0  0  0  0  0  0  0  0  0  0  0  0
   -3.2818   -0.4390    0.0000 C   0  0  0  0  0  0  0  0  0  0  0  0
  2  1  2  0  0  0  0
  3  1  1  0  0  0  0
  4  1  1  0  0  0  0
  5  3  1  0  0  0  0
  6  4  1  0  0  0  0
  6  5  2  0  0  0  0
  7  2  1  0  0  0  0
  8  5  1  0  0  0  0
  9  6  1  0  0  0  0
 10  7  1  0  0  0  0
 11  8  2  0  0  0  0
 11 12  1  0  0  0  0
 12  9  2  0  0  0  0
 13 19  1  0  0  0  0
 14 13  3  0  0  0  0
 15 10  1  0  0  0  0
 16  7  2  0  0  0  0
 17 10  2  0  0  0  0
 18 15  1  0  0  0  0
 18 20  2  0  0  0  0
 19  3  1  0  0  0  0
 20 17  1  0  0  0  0
 21 11  1  0  0  0  0
 22 12  1  0  0  0  0
 23 22  1  0  0  0  0
 24 21  1  0  0  0  0
M  END
> <CdId>
2725

> <Mol Weight>
342.369

> <Formula>
C17H14N2O4S

> <Click_ID>
CLK035_H11 __ __ 

$$$$
