CLK049D11
 OpenBabel03181417022D

 14 14  0  0  0  0  0  0  0  0999 V2000
    0.4834   -0.1375    0.0000 C   0  0  0  0  0  0  0  0  0  0  0  0
    1.7837    0.1583    0.0000 N   0  0  0  0  0  0  0  0  0  0  0  0
    1.3628    0.8669    0.0000 N   0  0  0  0  0  0  0  0  0  0  0  0
    1.2420   -0.4626    0.0000 C   0  0  0  0  0  0  0  0  0  0  0  0
    0.5584    0.6834    0.0000 C   0  0  0  0  0  0  0  0  0  0  0  0
   -0.2250   -0.5626    0.0000 C   0  0  0  0  0  0  0  0  0  0  0  0
   -2.3755   -0.1833    0.0000 C   0  0  0  0  0  0  0  0  0  0  0  0
   -3.0965    0.2208    0.0000 C   0  0  0  0  0  0  0  0  0  0  0  0
   -0.2125   -1.3878    0.0000 O   0  0  0  0  0  0  0  0  0  0  0  0
   -0.9460   -0.1583    0.0000 N   0  0  0  0  0  0  0  0  0  0  0  0
    1.6879    1.6253    0.0000 C   0  0  0  0  0  0  0  0  0  0  0  0
    1.4253   -1.2670    0.0000 C   0  0  0  0  0  0  0  0  0  0  0  0
   -0.0625    1.2253    0.0000 C   0  0  0  0  0  0  0  0  0  0  0  0
   -1.6546   -0.5834    0.0000 C   0  0  0  0  0  0  0  0  0  0  0  0
  2  4  2  0  0  0  0
  3  5  1  0  0  0  0
  3  2  1  0  0  0  0
  4  1  1  0  0  0  0
  5  1  2  0  0  0  0
  6  1  1  0  0  0  0
  7 14  1  0  0  0  0
  8  7  3  0  0  0  0
  9  6  2  0  0  0  0
 10  6  1  0  0  0  0
 11  3  1  0  0  0  0
 12  4  1  0  0  0  0
 13  5  1  0  0  0  0
 14 10  1  0  0  0  0
M  END
> <CdId>
3804

> <Mol Weight>
191.2297

> <Formula>
C10H13N3O

> <Click_ID>
CLK049D11 __ __ 

$$$$
