CLK019_H03
 OpenBabel03181417022D

 16 17  0  0  0  0  0  0  0  0999 V2000
    0.3069    0.0091    0.0000 C   0  0  0  0  0  0  0  0  0  0  0  0
   -0.4077   -0.4031    0.0000 C   0  0  0  0  0  0  0  0  0  0  0  0
    1.7315    2.4965    0.0000 C   0  0  0  0  0  0  0  0  0  0  0  0
    1.7224    3.3210    0.0000 C   0  0  0  0  0  0  0  0  0  0  0  0
    0.3069    0.8337    0.0000 C   0  0  0  0  0  0  0  0  0  0  0  0
   -1.1223    0.0091    0.0000 C   0  0  0  0  0  0  0  0  0  0  0  0
   -0.4077    1.2459    0.0000 C   0  0  0  0  0  0  0  0  0  0  0  0
   -1.1223    0.8245    0.0000 C   0  0  0  0  0  0  0  0  0  0  0  0
    1.0216   -0.4031    0.0000 C   0  0  0  0  0  0  0  0  0  0  0  0
    1.0216    1.2459    0.0000 O   0  0  0  0  0  0  0  0  0  0  0  0
    1.0216    2.0705    0.0000 C   0  0  0  0  0  0  0  0  0  0  0  0
    1.7362    0.0091    0.0000 O   0  0  0  0  0  0  0  0  0  0  0  0
   -0.3985   -1.2277    0.0000 C   0  0  0  0  0  0  0  0  0  0  0  0
   -1.8369   -0.4123    0.0000 C   0  0  0  0  0  0  0  0  0  0  0  0
   -1.1131   -1.6400    0.0000 C   0  0  0  0  0  0  0  0  0  0  0  0
   -1.8277   -1.2368    0.0000 C   0  0  0  0  0  0  0  0  0  0  0  0
  2  1  2  0  0  0  0
  3 11  1  0  0  0  0
  4  3  3  0  0  0  0
  5  1  1  0  0  0  0
  6  2  1  0  0  0  0
  6  8  2  0  0  0  0
  7  5  2  0  0  0  0
  8  7  1  0  0  0  0
  9  1  1  0  0  0  0
 10  5  1  0  0  0  0
 11 10  1  0  0  0  0
 12  9  1  0  0  0  0
 13  2  1  0  0  0  0
 14  6  1  0  0  0  0
 15 13  2  0  0  0  0
 16 15  1  0  0  0  0
 16 14  2  0  0  0  0
M  END
> <CdId>
1468

> <Mol Weight>
212.2439

> <Formula>
C14H12O2

> <Click_ID>
CLK019_H03 __ __ 

$$$$
