CLK031_C06
 OpenBabel03181417022D

 30 32  0  0  0  0  0  0  0  0999 V2000
   -1.1625    2.3833    0.0000 C   0  0  0  0  0  0  0  0  0  0  0  0
   -0.3375    2.3750    0.0000 N   0  0  0  0  0  0  0  0  0  0  0  0
   -4.5833    3.2125    0.0000 S   0  0  0  0  0  0  0  0  0  0  0  0
   -1.6458    1.7208    0.0000 N   0  0  0  0  0  0  0  0  0  0  0  0
   -1.6458    3.0500    0.0000 S   0  0  0  0  0  0  0  0  0  0  0  0
   -2.4333    2.7958    0.0000 C   0  0  0  0  0  0  0  0  0  0  0  0
   -2.4333    1.9708    0.0000 C   0  0  0  0  0  0  0  0  0  0  0  0
    0.0750    3.0875    0.0000 C   0  0  0  0  0  0  0  0  0  0  0  0
   -3.8583    2.7958    0.0000 C   0  0  0  0  0  0  0  0  0  0  0  0
   -3.1458    3.2083    0.0000 C   0  0  0  0  0  0  0  0  0  0  0  0
   -1.9458    0.3208    0.0000 C   0  0  0  0  0  0  0  0  0  0  0  0
    0.9000    3.0875    0.0000 C   0  0  0  0  0  0  0  0  0  0  0  0
   -3.1458    1.5583    0.0000 C   0  0  0  0  0  0  0  0  0  0  0  0
   -2.4958   -0.2917    0.0000 C   0  0  0  0  0  0  0  0  0  0  0  0
   -5.0208    2.5083    0.0000 O   0  0  0  0  0  0  0  0  0  0  0  0
   -4.1458    3.9083    0.0000 O   0  0  0  0  0  0  0  0  0  0  0  0
   -5.2833    3.6458    0.0000 N   0  0  0  0  0  0  0  0  0  0  0  0
   -0.3375    3.8000    0.0000 O   0  0  0  0  0  0  0  0  0  0  0  0
   -3.8583    1.9708    0.0000 C   0  0  0  0  0  0  0  0  0  0  0  0
    1.3167    2.3708    0.0000 C   0  0  0  0  0  0  0  0  0  0  0  0
   -1.3958    0.9333    0.0000 C   0  0  0  0  0  0  0  0  0  0  0  0
    2.1417    2.3708    0.0000 C   0  0  0  0  0  0  0  0  0  0  0  0
    2.5625    1.6458    0.0000 O   0  0  0  0  0  0  0  0  0  0  0  0
    1.3167    3.7958    0.0000 C   0  0  0  0  0  0  0  0  0  0  0  0
    2.1417    3.7958    0.0000 C   0  0  0  0  0  0  0  0  0  0  0  0
    2.5542    3.0875    0.0000 C   0  0  0  0  0  0  0  0  0  0  0  0
    3.3917    1.6458    0.0000 C   0  0  0  0  0  0  0  0  0  0  0  0
    3.8042    0.9375    0.0000 C   0  0  0  0  0  0  0  0  0  0  0  0
    4.6292    0.9375    0.0000 C   0  0  0  0  0  0  0  0  0  0  0  0
    5.0542    0.2208    0.0000 C   0  0  0  0  0  0  0  0  0  0  0  0
  2  1  2  0  0  0  0
  3  9  1  0  0  0  0
  4  1  1  0  0  0  0
  5  1  1  0  0  0  0
  6  5  1  0  0  0  0
  6  7  2  0  0  0  0
  7  4  1  0  0  0  0
  8  2  1  0  0  0  0
  9 10  2  0  0  0  0
  9 19  1  0  0  0  0
 10  6  1  0  0  0  0
 11 21  1  0  0  0  0
 12  8  1  0  0  0  0
 13  7  1  0  0  0  0
 14 11  3  0  0  0  0
 15  3  2  0  0  0  0
 16  3  2  0  0  0  0
 17  3  1  0  0  0  0
 18  8  2  0  0  0  0
 19 13  2  0  0  0  0
 20 12  2  0  0  0  0
 21  4  1  0  0  0  0
 22 20  1  0  0  0  0
 23 22  1  0  0  0  0
 24 12  1  0  0  0  0
 25 24  2  0  0  0  0
 26 25  1  0  0  0  0
 26 22  2  0  0  0  0
 27 23  1  0  0  0  0
 28 27  1  0  0  0  0
 29 28  1  0  0  0  0
 30 29  1  0  0  0  0
M  END
> <CdId>
2350

> <Mol Weight>
443.539

> <Formula>
C21H21N3O4S2

> <Click_ID>
CLK031_C06 __ __ 

$$$$
