CLK038A07
 OpenBabel03181417022D

 23 24  0  0  0  0  0  0  0  0999 V2000
   -0.6167   -1.0792    0.0000 S   0  0  0  0  0  0  0  0  0  0  0  0
    0.1000   -0.6667    0.0000 C   0  0  0  0  0  0  0  0  0  0  0  0
    0.1000    0.1583    0.0000 C   0  0  0  0  0  0  0  0  0  0  0  0
   -1.3292   -1.4917    0.0000 N   0  0  0  0  0  0  0  0  0  0  0  0
    0.8125    1.3958    0.0000 C   0  0  0  0  0  0  0  0  0  0  0  0
    0.8125    0.5708    0.0000 C   0  0  0  0  0  0  0  0  0  0  0  0
   -0.2042   -1.7917    0.0000 O   0  0  0  0  0  0  0  0  0  0  0  0
   -1.0292   -0.3625    0.0000 O   0  0  0  0  0  0  0  0  0  0  0  0
    2.2417    3.0458    0.0000 C   0  0  0  0  0  0  0  0  0  0  0  0
    2.9583    3.4583    0.0000 C   0  0  0  0  0  0  0  0  0  0  0  0
    0.8125   -1.0792    0.0000 C   0  0  0  0  0  0  0  0  0  0  0  0
    0.1000    1.8083    0.0000 O   0  0  0  0  0  0  0  0  0  0  0  0
    1.5292    0.1583    0.0000 C   0  0  0  0  0  0  0  0  0  0  0  0
    1.5292   -0.6667    0.0000 C   0  0  0  0  0  0  0  0  0  0  0  0
    1.5292    1.8083    0.0000 N   0  0  0  0  0  0  0  0  0  0  0  0
   -2.0458   -1.0792    0.0000 C   0  0  0  0  0  0  0  0  0  0  0  0
    1.5292    2.6333    0.0000 C   0  0  0  0  0  0  0  0  0  0  0  0
    0.8125   -1.9042    0.0000 O   0  0  0  0  0  0  0  0  0  0  0  0
    1.5292   -2.3167    0.0000 C   0  0  0  0  0  0  0  0  0  0  0  0
   -2.1292   -0.2583    0.0000 C   0  0  0  0  0  0  0  0  0  0  0  0
   -2.8000   -1.4125    0.0000 C   0  0  0  0  0  0  0  0  0  0  0  0
   -3.3500   -0.8000    0.0000 C   0  0  0  0  0  0  0  0  0  0  0  0
   -2.9375   -0.0875    0.0000 C   0  0  0  0  0  0  0  0  0  0  0  0
  2  1  1  0  0  0  0
  3  2  1  0  0  0  0
  4  1  1  0  0  0  0
  5  6  1  0  0  0  0
  6  3  2  0  0  0  0
  6 13  1  0  0  0  0
  7  1  2  0  0  0  0
  8  1  2  0  0  0  0
  9 17  1  0  0  0  0
 10  9  3  0  0  0  0
 11  2  2  0  0  0  0
 12  5  2  0  0  0  0
 13 14  2  0  0  0  0
 14 11  1  0  0  0  0
 15  5  1  0  0  0  0
 16  4  1  0  0  0  0
 17 15  1  0  0  0  0
 18 11  1  0  0  0  0
 19 18  1  0  0  0  0
 20 16  1  0  0  0  0
 21 16  1  0  0  0  0
 22 21  1  0  0  0  0
 22 23  1  0  0  0  0
 23 20  1  0  0  0  0
M  END
> <CdId>
2889

> <Mol Weight>
336.406

> <Formula>
C16H20N2O4S

> <Click_ID>
CLK038A07 __ __ 

$$$$
