CLK014_B08
 OpenBabel03181417022D

 26 28  0  0  0  0  0  0  0  0999 V2000
    1.5650   -0.8158    0.0000 N    0  0  0  0  0  0  0  0  0  0  0  0
    1.8230   -1.6024    0.0000 C    0  0  0  0  0  0  0  0  0  0  0  0
    4.5242    1.3984    0.0000 N    0  0  0  0  0  0  0  0  0  0  0  0
    2.9010   -0.8158    0.0000 C    0  0  0  0  0  0  0  0  0  0  0  0
    2.2350   -0.3288    0.0000 C    0  0  0  0  0  0  0  0  0  0  0  0
    3.8499    0.2455    0.0000 C    0  0  0  0  0  0  0  0  0  0  0  0
    2.6470   -1.6024    0.0000 S    0  0  0  0  0  0  0  0  0  0  0  0
    3.7208    1.5690    0.0000 C    0  0  0  0  0  0  0  0  0  0  0  0
    4.6116    0.5826    0.0000 C    0  0  0  0  0  0  0  0  0  0  0  0
    3.6876   -0.5619    0.0000 C    0  0  0  0  0  0  0  0  0  0  0  0
    3.3005    0.8573    0.0000 C    0  0  0  0  0  0  0  0  0  0  0  0
    5.1318    1.9561    0.0000 C    0  0  0  0  0  0  0  0  0  0  0  0
    4.9612    2.7469    0.0000 C    0  0  0  0  0  0  0  0  0  0  0  0
    5.5730    3.2963    0.0000 C    0  0  0  0  0  0  0  0  0  0  0  0
    0.6118    0.2455    0.0000 C    0  0  0  0  0  0  0  0  0  0  0  0
    0.3913    1.0446    0.0000 C    0  0  0  0  0  0  0  0  0  0  0  0
    1.3360   -2.2642    0.0000 O    0  0  0  0  0  0  0  0  0  0  0  0
    2.2267    0.4952    0.0000 O    0  0  0  0  0  0  0  0  0  0  0  0
    0.7866   -0.5619    0.0000 C    0  0  0  0  0  0  0  0  0  0  0  0
    6.3596    3.0424    0.0000 C    0  0  0  0  0  0  0  0  0  0  0  0
    5.9184    1.6939    0.0000 C    0  0  0  0  0  0  0  0  0  0  0  0
    6.5219    2.2433    0.0000 C    0  0  0  0  0  0  0  0  0  0  0  0
    5.4065    4.0996    0.0000 Cl   0  0  0  0  0  0  0  0  0  0  0  0
    3.3837    2.3182    0.0000 C    0  0  0  0  0  0  0  0  0  0  0  0
    6.9714    3.6043    0.0000 Br   0  0  0  0  0  0  0  0  0  0  0  0
    5.3233    0.1623    0.0000 C    0  0  0  0  0  0  0  0  0  0  0  0
  2  1  1  0  0  0  0
  3  9  1  0  0  0  0
  3  8  1  0  0  0  0
  4  5  1  0  0  0  0
  4  7  1  0  0  0  0
  5  1  1  0  0  0  0
  6 10  1  0  0  0  0
  7  2  1  0  0  0  0
  8 11  2  0  0  0  0
  9  6  2  0  0  0  0
 10  4  2  0  0  0  0
 11  6  1  0  0  0  0
 12  3  1  0  0  0  0
 13 12  1  0  0  0  0
 14 13  2  0  0  0  0
 15 19  1  0  0  0  0
 16 15  3  0  0  0  0
 17  2  2  0  0  0  0
 18  5  2  0  0  0  0
 19  1  1  0  0  0  0
 20 22  2  0  0  0  0
 20 14  1  0  0  0  0
 21 12  2  0  0  0  0
 22 21  1  0  0  0  0
 23 14  1  0  0  0  0
 24  8  1  0  0  0  0
 25 20  1  0  0  0  0
 26  9  1  0  0  0  0
M  END
> <CdId>
1013

> <Mol Weight>
449.749

> <Formula>
C19H14BrClN2O2S

> <Click_ID>
CLK014_B08 __ __ 

$$$$
