CLK048E06
 OpenBabel03181417022D

 20 21  0  0  0  0  0  0  0  0999 V2000
    1.1625   -0.5042    0.0000 C   0  0  0  0  0  0  0  0  0  0  0  0
    1.1625   -1.3292    0.0000 C   0  0  0  0  0  0  0  0  0  0  0  0
    0.4500   -0.0917    0.0000 N   0  0  0  0  0  0  0  0  0  0  0  0
   -0.2667   -1.3292    0.0000 N   0  0  0  0  0  0  0  0  0  0  0  0
    0.4500   -1.7417    0.0000 C   0  0  0  0  0  0  0  0  0  0  0  0
    1.9500   -0.2500    0.0000 S   0  0  0  0  0  0  0  0  0  0  0  0
   -0.2667   -0.5042    0.0000 C   0  0  0  0  0  0  0  0  0  0  0  0
    1.9500   -1.5833    0.0000 C   0  0  0  0  0  0  0  0  0  0  0  0
    2.4333   -0.9167    0.0000 C   0  0  0  0  0  0  0  0  0  0  0  0
   -2.4083    3.2083    0.0000 C   0  0  0  0  0  0  0  0  0  0  0  0
   -2.4083    4.0292    0.0000 C   0  0  0  0  0  0  0  0  0  0  0  0
   -0.9792   -0.0917    0.0000 S   0  0  0  0  0  0  0  0  0  0  0  0
   -1.6958    1.1458    0.0000 C   0  0  0  0  0  0  0  0  0  0  0  0
    0.4500   -2.5667    0.0000 N   0  0  0  0  0  0  0  0  0  0  0  0
   -2.4083    0.7333    0.0000 O   0  0  0  0  0  0  0  0  0  0  0  0
   -0.9792    0.7333    0.0000 C   0  0  0  0  0  0  0  0  0  0  0  0
   -1.6958    1.9708    0.0000 N   0  0  0  0  0  0  0  0  0  0  0  0
    2.2042   -2.3667    0.0000 C   0  0  0  0  0  0  0  0  0  0  0  0
    3.2583   -0.9167    0.0000 C   0  0  0  0  0  0  0  0  0  0  0  0
   -2.4083    2.3833    0.0000 C   0  0  0  0  0  0  0  0  0  0  0  0
  2  1  2  0  0  0  0
  3  1  1  0  0  0  0
  4  5  2  0  0  0  0
  4  7  1  0  0  0  0
  5  2  1  0  0  0  0
  6  1  1  0  0  0  0
  7  3  2  0  0  0  0
  8  2  1  0  0  0  0
  8  9  2  0  0  0  0
  9  6  1  0  0  0  0
 10 20  1  0  0  0  0
 11 10  3  0  0  0  0
 12  7  1  0  0  0  0
 13 16  1  0  0  0  0
 14  5  1  0  0  0  0
 15 13  2  0  0  0  0
 16 12  1  0  0  0  0
 17 13  1  0  0  0  0
 18  8  1  0  0  0  0
 19  9  1  0  0  0  0
 20 17  1  0  0  0  0
M  END
> <CdId>
3685

> <Mol Weight>
306.406

> <Formula>
C13H14N4OS2

> <Click_ID>
CLK048E06 __ __ 

$$$$
