CLK050F06
 OpenBabel03181417022D

 19 19  0  0  0  0  0  0  0  0999 V2000
    0.0375   -1.0167    0.0000 C    0  0  0  0  0  0  0  0  0  0  0  0
    0.0375    0.6333    0.0000 C    0  0  0  0  0  0  0  0  0  0  0  0
    0.7500   -0.6042    0.0000 C    0  0  0  0  0  0  0  0  0  0  0  0
   -0.6792   -0.6042    0.0000 C    0  0  0  0  0  0  0  0  0  0  0  0
    0.0375    1.4583    0.0000 C    0  0  0  0  0  0  0  0  0  0  0  0
    0.7500    0.2208    0.0000 C    0  0  0  0  0  0  0  0  0  0  0  0
   -0.6792    0.2208    0.0000 C    0  0  0  0  0  0  0  0  0  0  0  0
    1.4625    3.1083    0.0000 C    0  0  0  0  0  0  0  0  0  0  0  0
    2.1792    3.5208    0.0000 C    0  0  0  0  0  0  0  0  0  0  0  0
   -0.6792    1.8708    0.0000 O    0  0  0  0  0  0  0  0  0  0  0  0
    0.7500    1.8708    0.0000 N    0  0  0  0  0  0  0  0  0  0  0  0
    1.4625   -1.0167    0.0000 Cl   0  0  0  0  0  0  0  0  0  0  0  0
    0.0375   -1.8417    0.0000 O    0  0  0  0  0  0  0  0  0  0  0  0
   -1.3917   -1.0167    0.0000 O    0  0  0  0  0  0  0  0  0  0  0  0
    0.7500    2.6958    0.0000 C    0  0  0  0  0  0  0  0  0  0  0  0
   -0.6792   -2.2542    0.0000 C    0  0  0  0  0  0  0  0  0  0  0  0
   -2.1083   -0.6042    0.0000 C    0  0  0  0  0  0  0  0  0  0  0  0
   -0.6792   -3.0792    0.0000 C    0  0  0  0  0  0  0  0  0  0  0  0
   -1.3917   -3.4917    0.0000 C    0  0  0  0  0  0  0  0  0  0  0  0
  2  7  2  0  0  0  0
  2  6  1  0  0  0  0
  3  1  1  0  0  0  0
  4  1  2  0  0  0  0
  5  2  1  0  0  0  0
  6  3  2  0  0  0  0
  7  4  1  0  0  0  0
  8 15  1  0  0  0  0
  9  8  3  0  0  0  0
 10  5  2  0  0  0  0
 11  5  1  0  0  0  0
 12  3  1  0  0  0  0
 13  1  1  0  0  0  0
 14  4  1  0  0  0  0
 15 11  1  0  0  0  0
 16 13  1  0  0  0  0
 17 14  1  0  0  0  0
 18 16  1  0  0  0  0
 19 18  1  0  0  0  0
M  END
> <CdId>
3846

> <Mol Weight>
281.735

> <Formula>
C14H16ClNO3

> <Click_ID>
CLK050F06 __ __ 

$$$$
