CLK042A02
 OpenBabel03181417022D

 20 21  0  0  0  0  0  0  0  0999 V2000
    1.5375   -0.5875    0.0000 C   0  0  0  0  0  0  0  0  0  0  0  0
    0.7542   -0.8417    0.0000 C   0  0  0  0  0  0  0  0  0  0  0  0
    0.7542   -1.6667    0.0000 C   0  0  0  0  0  0  0  0  0  0  0  0
    1.5375   -1.9250    0.0000 C   0  0  3  0  0  0  0  0  0  0  0  0
    2.0208   -1.2542    0.0000 C   0  0  0  0  0  0  0  0  0  0  0  0
   -2.1042    3.2833    0.0000 C   0  0  0  0  0  0  0  0  0  0  0  0
    0.0375   -0.4292    0.0000 C   0  0  0  0  0  0  0  0  0  0  0  0
   -2.8208    3.6958    0.0000 C   0  0  0  0  0  0  0  0  0  0  0  0
   -0.6750    1.6333    0.0000 C   0  0  0  0  0  0  0  0  0  0  0  0
    0.0375   -2.0792    0.0000 C   0  0  0  0  0  0  0  0  0  0  0  0
    1.7917    0.1958    0.0000 O   0  0  0  0  0  0  0  0  0  0  0  0
    0.0375    0.3958    0.0000 O   0  0  0  0  0  0  0  0  0  0  0  0
    0.0375    2.0458    0.0000 O   0  0  0  0  0  0  0  0  0  0  0  0
   -0.6750   -0.8417    0.0000 C   0  0  0  0  0  0  0  0  0  0  0  0
   -0.6750   -1.6667    0.0000 C   0  0  0  0  0  0  0  0  0  0  0  0
   -0.6750    0.8083    0.0000 C   0  0  0  0  0  0  0  0  0  0  0  0
   -1.3917    2.0458    0.0000 N   0  0  0  0  0  0  0  0  0  0  0  0
    0.0375   -2.9042    0.0000 F   0  0  0  0  0  0  0  0  0  0  0  0
   -1.3917    2.8708    0.0000 C   0  0  0  0  0  0  0  0  0  0  0  0
    1.7917   -2.7083    0.0000 C   0  0  0  0  0  0  0  0  0  0  0  0
  2  1  1  0  0  0  0
  3  2  1  0  0  0  0
  3  4  1  0  0  0  0
  4  5  1  0  0  0  0
  5  1  1  0  0  0  0
  6 19  1  0  0  0  0
  7  2  2  0  0  0  0
  8  6  3  0  0  0  0
  9 16  1  0  0  0  0
 10  3  2  0  0  0  0
 11  1  2  0  0  0  0
 12  7  1  0  0  0  0
 13  9  2  0  0  0  0
 14  7  1  0  0  0  0
 15 14  2  0  0  0  0
 15 10  1  0  0  0  0
 16 12  1  0  0  0  0
 17  9  1  0  0  0  0
 18 10  1  0  0  0  0
 19 17  1  0  0  0  0
 20  4  1  0  0  0  0
M  END
> <CdId>
3169

> <Mol Weight>
275.275

> <Formula>
C15H14FNO3

> <Click_ID>
CLK042A02 __ __ 

$$$$
