CLK008_G02
 OpenBabel03181417022D

 26 28  0  0  0  0  0  0  0  0999 V2000
   -0.0725   -0.6905    0.0000 C   0  0  0  0  0  0  0  0  0  0  0  0
    0.6386   -0.2762    0.0000 C   0  0  3  0  0  0  0  0  0  0  0  0
   -0.0725   -1.5085    0.0000 C   0  0  0  0  0  0  0  0  0  0  0  0
   -0.7871   -0.2693    0.0000 C   0  0  0  0  0  0  0  0  0  0  0  0
    0.6386    0.5489    0.0000 C   0  0  0  0  0  0  0  0  0  0  0  0
    1.3532   -0.6835    0.0000 C   0  0  0  0  0  0  0  0  0  0  0  0
   -0.7871   -1.9228    0.0000 N   0  0  0  0  0  0  0  0  0  0  0  0
    0.6386   -1.9228    0.0000 N   0  0  0  0  0  0  0  0  0  0  0  0
   -1.4913   -0.6905    0.0000 N   0  0  0  0  0  0  0  0  0  0  0  0
   -0.7871    0.5558    0.0000 O   0  0  0  0  0  0  0  0  0  0  0  0
    1.3532    0.9596    0.0000 C   0  0  0  0  0  0  0  0  0  0  0  0
   -0.0725    0.9562    0.0000 C   0  0  0  0  0  0  0  0  0  0  0  0
    1.3532   -1.5085    0.0000 C   0  0  0  0  0  0  0  0  0  0  0  0
   -1.4913   -1.5155    0.0000 C   0  0  0  0  0  0  0  0  0  0  0  0
    1.3498    1.7882    0.0000 C   0  0  0  0  0  0  0  0  0  0  0  0
    2.0644    1.3739    0.0000 O   0  0  0  0  0  0  0  0  0  0  0  0
   -0.0863    1.7743    0.0000 C   0  0  0  0  0  0  0  0  0  0  0  0
    2.0644   -1.9228    0.0000 O   0  0  0  0  0  0  0  0  0  0  0  0
   -2.2127   -1.9297    0.0000 S   0  0  0  0  0  0  0  0  0  0  0  0
    0.6352    2.1955    0.0000 C   0  0  0  0  0  0  0  0  0  0  0  0
    2.7789    0.9596    0.0000 C   0  0  0  0  0  0  0  0  0  0  0  0
   -2.9273   -1.5155    0.0000 C   0  0  0  0  0  0  0  0  0  0  0  0
    0.8492    2.9964    0.0000 O   0  0  0  0  0  0  0  0  0  0  0  0
   -2.9273   -0.6905    0.0000 C   0  0  0  0  0  0  0  0  0  0  0  0
    1.6397    3.2138    0.0000 C   0  0  0  0  0  0  0  0  0  0  0  0
   -3.6419   -0.2762    0.0000 C   0  0  0  0  0  0  0  0  0  0  0  0
  1  2  1  0  0  0  0
  1  3  2  0  0  0  0
  1  4  1  0  0  0  0
  2  5  1  0  0  0  0
  2  6  1  0  0  0  0
  3  7  1  0  0  0  0
  3  8  1  0  0  0  0
  4  9  1  0  0  0  0
  4 10  2  0  0  0  0
  5 11  2  0  0  0  0
  5 12  1  0  0  0  0
  6 13  1  0  0  0  0
  7 14  2  0  0  0  0
  8 13  1  0  0  0  0
  9 14  1  0  0  0  0
 11 15  1  0  0  0  0
 11 16  1  0  0  0  0
 12 17  2  0  0  0  0
 13 18  2  0  0  0  0
 14 19  1  0  0  0  0
 15 20  2  0  0  0  0
 16 21  1  0  0  0  0
 17 20  1  0  0  0  0
 19 22  1  0  0  0  0
 20 23  1  0  0  0  0
 22 24  1  0  0  0  0
 23 25  1  0  0  0  0
 24 26  3  0  0  0  0
M  END
> <CdId>
589

> <Mol Weight>
371.41

> <Formula>
C18H17N3O4S

> <Click_ID>
CLK008_G02 __ __ 

$$$$
