CLK004_G04
 OpenBabel03181417022D

 24 26  0  0  0  0  0  0  0  0999 V2000
   -0.0695   -0.1717    0.0000 C   0  0  0  0  0  0  0  0  0  0  0  0
    0.4088    0.4987    0.0000 C   0  0  0  0  0  0  0  0  0  0  0  0
   -0.8585    0.0756    0.0000 N   0  0  0  0  0  0  0  0  0  0  0  0
    0.2718   -0.9218    0.0000 N   0  0  0  0  0  0  0  0  0  0  0  0
    1.2304    0.4190    0.0000 C   0  0  0  0  0  0  0  0  0  0  0  0
   -0.0817    1.1609    0.0000 N   0  0  0  0  0  0  0  0  0  0  0  0
   -1.5206   -0.4149    0.0000 C   0  0  0  0  0  0  0  0  0  0  0  0
   -0.8646    0.8993    0.0000 N   0  0  0  0  0  0  0  0  0  0  0  0
    1.0915   -0.9995    0.0000 C   0  0  0  0  0  0  0  0  0  0  0  0
    1.5717   -0.3311    0.0000 N   0  0  0  0  0  0  0  0  0  0  0  0
    1.7087    1.0915    0.0000 N   0  0  0  0  0  0  0  0  0  0  0  0
   -2.2769   -0.0879    0.0000 C   0  0  0  0  0  0  0  0  0  0  0  0
    1.4368   -1.7516    0.0000 C   0  0  0  0  0  0  0  0  0  0  0  0
    2.5283    1.0117    0.0000 C   0  0  0  0  0  0  0  0  0  0  0  0
   -2.3709    0.7317    0.0000 C   0  0  0  0  0  0  0  0  0  0  0  0
   -2.9412   -0.5784    0.0000 C   0  0  0  0  0  0  0  0  0  0  0  0
    2.1522   -1.3469    0.0000 C   0  0  0  0  0  0  0  0  0  0  0  0
    0.7992   -2.2769    0.0000 C   0  0  0  0  0  0  0  0  0  0  0  0
    1.9028   -2.4322    0.0000 C   0  0  0  0  0  0  0  0  0  0  0  0
    3.0086    1.6842    0.0000 C   0  0  0  0  0  0  0  0  0  0  0  0
   -3.1272    1.0628    0.0000 C   0  0  0  0  0  0  0  0  0  0  0  0
   -3.6974   -0.2473    0.0000 C   0  0  0  0  0  0  0  0  0  0  0  0
    3.4869    2.3546    0.0000 C   0  0  0  0  0  0  0  0  0  0  0  0
   -3.7894    0.5703    0.0000 C   0  0  0  0  0  0  0  0  0  0  0  0
  1  2  1  0  0  0  0
  1  3  1  0  0  0  0
  1  4  2  0  0  0  0
  2  5  2  0  0  0  0
  2  6  1  0  0  0  0
  3  7  1  0  0  0  0
  3  8  1  0  0  0  0
  4  9  1  0  0  0  0
  5 10  1  0  0  0  0
  5 11  1  0  0  0  0
  6  8  2  0  0  0  0
  7 12  1  0  0  0  0
  9 13  1  0  0  0  0
  9 10  2  0  0  0  0
 11 14  1  0  0  0  0
 12 15  2  0  0  0  0
 12 16  1  0  0  0  0
 13 17  1  0  0  0  0
 13 18  1  0  0  0  0
 13 19  1  0  0  0  0
 14 20  1  0  0  0  0
 15 21  1  0  0  0  0
 16 22  2  0  0  0  0
 20 23  3  0  0  0  0
 21 24  2  0  0  0  0
 22 24  1  0  0  0  0
M  END
> <CdId>
303

> <Mol Weight>
320.3916

> <Formula>
C18H20N6

> <Click_ID>
CLK004_G04 __ __ 

$$$$
