CLK005_H06
 OpenBabel03181417022D

 31 33  0  0  0  0  0  0  0  0999 V2000
   -0.4642   -1.1204    0.0000 C   0  0  3  0  0  0  0  0  0  0  0  0
    0.2481   -0.7082    0.0000 C   0  0  0  0  0  0  0  0  0  0  0  0
   -1.1765   -0.7082    0.0000 C   0  0  0  0  0  0  0  0  0  0  0  0
   -0.4642   -1.9327    0.0000 N   0  0  0  0  0  0  0  0  0  0  0  0
    0.9563   -1.1124    0.0000 C   0  0  0  0  0  0  0  0  0  0  0  0
    0.2401    0.1200    0.0000 C   0  0  0  0  0  0  0  0  0  0  0  0
   -1.1765    0.1280    0.0000 C   0  0  0  0  0  0  0  0  0  0  0  0
   -1.8888   -1.1204    0.0000 C   0  0  0  0  0  0  0  0  0  0  0  0
   -1.1804   -2.3489    0.0000 C   0  0  0  0  0  0  0  0  0  0  0  0
    1.6766   -0.7002    0.0000 C   0  0  0  0  0  0  0  0  0  0  0  0
    0.9563    0.5362    0.0000 C   0  0  0  0  0  0  0  0  0  0  0  0
   -1.8847    0.5242    0.0000 N   0  0  0  0  0  0  0  0  0  0  0  0
   -0.4482    0.5362    0.0000 O   0  0  0  0  0  0  0  0  0  0  0  0
   -1.8847   -1.9327    0.0000 N   0  0  0  0  0  0  0  0  0  0  0  0
   -2.6091   -0.7123    0.0000 C   0  0  0  0  0  0  0  0  0  0  0  0
   -1.1804   -3.1772    0.0000 O   0  0  0  0  0  0  0  0  0  0  0  0
    1.6766    0.1200    0.0000 C   0  0  0  0  0  0  0  0  0  0  0  0
    2.4049   -1.1124    0.0000 O   0  0  0  0  0  0  0  0  0  0  0  0
   -1.8767    1.3525    0.0000 C   0  0  0  0  0  0  0  0  0  0  0  0
    2.3889    0.5362    0.0000 O   0  0  0  0  0  0  0  0  0  0  0  0
    3.1172   -0.7002    0.0000 C   0  0  0  0  0  0  0  0  0  0  0  0
   -2.5970    1.7567    0.0000 C   0  0  0  0  0  0  0  0  0  0  0  0
   -1.1644    1.7687    0.0000 C   0  0  0  0  0  0  0  0  0  0  0  0
    3.1012    0.1200    0.0000 C   0  0  0  0  0  0  0  0  0  0  0  0
    3.8295   -1.1044    0.0000 C   0  0  0  0  0  0  0  0  0  0  0  0
   -2.5970    2.5850    0.0000 C   0  0  0  0  0  0  0  0  0  0  0  0
   -3.3053    1.3486    0.0000 C   0  0  0  0  0  0  0  0  0  0  0  0
   -1.1644    2.5810    0.0000 C   0  0  0  0  0  0  0  0  0  0  0  0
    3.8135    0.5362    0.0000 C   0  0  0  0  0  0  0  0  0  0  0  0
   -1.8767    3.0012    0.0000 C   0  0  0  0  0  0  0  0  0  0  0  0
    4.5258    0.9444    0.0000 C   0  0  0  0  0  0  0  0  0  0  0  0
  1  2  1  0  0  0  0
  1  3  1  0  0  0  0
  1  4  1  0  0  0  0
  2  5  2  0  0  0  0
  2  6  1  0  0  0  0
  3  7  1  0  0  0  0
  3  8  2  0  0  0  0
  4  9  1  0  0  0  0
  5 10  1  0  0  0  0
  6 11  2  0  0  0  0
  7 12  1  0  0  0  0
  7 13  2  0  0  0  0
  8 14  1  0  0  0  0
  8 15  1  0  0  0  0
  9 16  2  0  0  0  0
  9 14  1  0  0  0  0
 10 17  2  0  0  0  0
 10 18  1  0  0  0  0
 11 17  1  0  0  0  0
 12 19  1  0  0  0  0
 17 20  1  0  0  0  0
 18 21  1  0  0  0  0
 19 22  1  0  0  0  0
 19 23  2  0  0  0  0
 20 24  1  0  0  0  0
 21 25  1  0  0  0  0
 22 26  2  0  0  0  0
 22 27  1  0  0  0  0
 23 28  1  0  0  0  0
 24 29  1  0  0  0  0
 26 30  1  0  0  0  0
 28 30  2  0  0  0  0
 29 31  3  0  0  0  0
M  END
> <CdId>
395

> <Mol Weight>
419.473

> <Formula>
C24H25N3O4

> <Click_ID>
CLK005_H06 __ __ 

$$$$
