CLK008_G05
 OpenBabel03181417022D

 69 79  0  0  0  0  0  0  0  0999 V2000
   -0.5557   -3.2567    0.0000 C   0  0  0  0  0  0  0  0  0  0  0  0
    0.1155   -3.7353    0.0000 C   0  0  0  0  0  0  0  0  0  0  0  0
   -1.1938   -3.7353    0.0000 C   0  0  0  0  0  0  0  0  0  0  0  0
   -1.0012   -2.5856    0.0000 C   0  0  0  0  0  0  0  0  0  0  0  0
   -0.0440   -2.6460    0.0000 C   0  0  0  0  0  0  0  0  0  0  0  0
   -0.1431   -4.5330    0.0000 C   0  0  0  0  0  0  0  0  0  0  0  0
    0.9408   -3.5758    0.0000 C   0  0  0  0  0  0  0  0  0  0  0  0
   -0.9408   -4.5330    0.0000 C   0  0  0  0  0  0  0  0  0  0  0  0
   -1.9915   -3.5758    0.0000 C   0  0  0  0  0  0  0  0  0  0  0  0
   -1.8319   -2.6186    0.0000 C   0  0  0  0  0  0  0  0  0  0  0  0
   -0.6217   -1.8484    0.0000 C   0  0  0  0  0  0  0  0  0  0  0  0
    0.7812   -2.7781    0.0000 C   0  0  0  0  0  0  0  0  0  0  0  0
   -0.3355   -1.8870    0.0000 C   0  0  0  0  0  0  0  0  0  0  0  0
    0.4346   -5.1105    0.0000 C   0  0  0  0  0  0  0  0  0  0  0  0
    1.4798   -4.1809    0.0000 C   0  0  0  0  0  0  0  0  0  0  0  0
   -1.4798   -5.1105    0.0000 C   0  0  0  0  0  0  0  0  0  0  0  0
   -2.5361   -4.1809    0.0000 C   0  0  0  0  0  0  0  0  0  0  0  0
   -2.2775   -1.9198    0.0000 C   0  0  0  0  0  0  0  0  0  0  0  0
   -1.0343   -1.1498    0.0000 C   0  0  0  0  0  0  0  0  0  0  0  0
    1.3203   -2.1400    0.0000 C   0  0  0  0  0  0  0  0  0  0  0  0
    0.2036   -1.2488    0.0000 C   0  0  0  0  0  0  0  0  0  0  0  0
    1.1992   -4.9510    0.0000 C   0  0  0  0  0  0  0  0  0  0  0  0
   -2.2499   -4.9510    0.0000 C   0  0  0  0  0  0  0  0  0  0  0  0
   -1.8980   -1.1828    0.0000 C   0  0  0  0  0  0  0  0  0  0  0  0
    1.0012   -1.4084    0.0000 C   0  0  0  0  0  0  0  0  0  0  0  0
   -2.3766   -0.4840    0.0000 O   0  0  0  0  0  0  0  0  0  0  0  0
    1.5183   -0.7316    0.0000 O   0  0  0  0  0  0  0  0  0  0  0  0
   -1.9584    0.2530    0.0000 C   0  0  0  0  0  0  0  0  0  0  0  0
    2.3160   -0.8637    0.0000 C   0  0  0  0  0  0  0  0  0  0  0  0
   -2.4094    0.9518    0.0000 C   0  0  0  0  0  0  0  0  0  0  0  0
   -1.1608    0.2530    0.0000 O   0  0  0  0  0  0  0  0  0  0  0  0
    2.8276   -0.2256    0.0000 C   0  0  0  0  0  0  0  0  0  0  0  0
    2.5966   -1.6284    0.0000 O   0  0  0  0  0  0  0  0  0  0  0  0
   -3.2071    0.9518    0.0000 C   0  0  0  0  0  0  0  0  0  0  0  0
   -1.9915    1.6888    0.0000 C   0  0  0  0  0  0  0  0  0  0  0  0
    3.6253   -0.3245    0.0000 C   0  0  0  0  0  0  0  0  0  0  0  0
    2.5085    0.5721    0.0000 C   0  0  0  0  0  0  0  0  0  0  0  0
   -3.6253    1.6614    0.0000 C   0  0  0  0  0  0  0  0  0  0  0  0
   -2.3766    2.3876    0.0000 C   0  0  0  0  0  0  0  0  0  0  0  0
    4.1315    0.3465    0.0000 C   0  0  0  0  0  0  0  0  0  0  0  0
    2.9871    1.2102    0.0000 C   0  0  0  0  0  0  0  0  0  0  0  0
   -3.2347    2.3600    0.0000 C   0  0  0  0  0  0  0  0  0  0  0  0
   -4.4229    1.8484    0.0000 C   0  0  0  0  0  0  0  0  0  0  0  0
    3.8124    1.1113    0.0000 C   0  0  0  0  0  0  0  0  0  0  0  0
    4.9620    0.4126    0.0000 C   0  0  0  0  0  0  0  0  0  0  0  0
   -3.7848    2.9651    0.0000 C   0  0  0  0  0  0  0  0  0  0  0  0
   -4.5110    2.6460    0.0000 N   0  0  0  0  0  0  0  0  0  0  0  0
   -5.0887    1.3037    0.0000 O   0  0  0  0  0  0  0  0  0  0  0  0
    4.4505    1.6614    0.0000 C   0  0  0  0  0  0  0  0  0  0  0  0
    5.1491    1.2432    0.0000 N   0  0  0  0  0  0  0  0  0  0  0  0
    5.5066   -0.1926    0.0000 O   0  0  0  0  0  0  0  0  0  0  0  0
   -3.6253    3.7958    0.0000 O   0  0  0  0  0  0  0  0  0  0  0  0
   -5.2206    3.0257    0.0000 C   0  0  0  0  0  0  0  0  0  0  0  0
    4.3899    2.4865    0.0000 O   0  0  0  0  0  0  0  0  0  0  0  0
    5.8863    1.5899    0.0000 C   0  0  0  0  0  0  0  0  0  0  0  0
   -5.2482    3.8563    0.0000 C   0  0  0  0  0  0  0  0  0  0  0  0
   -5.9192    2.5800    0.0000 C   0  0  0  0  0  0  0  0  0  0  0  0
    5.9468    2.3876    0.0000 C   0  0  0  0  0  0  0  0  0  0  0  0
    6.5573    1.1113    0.0000 C   0  0  0  0  0  0  0  0  0  0  0  0
   -5.9798    4.2414    0.0000 C   0  0  0  0  0  0  0  0  0  0  0  0
   -6.6564    2.9651    0.0000 C   0  0  0  0  0  0  0  0  0  0  0  0
    6.6840    2.7781    0.0000 C   0  0  0  0  0  0  0  0  0  0  0  0
    7.2945    1.5019    0.0000 C   0  0  0  0  0  0  0  0  0  0  0  0
   -6.6840    3.7958    0.0000 C   0  0  0  0  0  0  0  0  0  0  0  0
   -6.0183    5.0721    0.0000 C   0  0  0  0  0  0  0  0  0  0  0  0
    7.3550    2.2995    0.0000 C   0  0  0  0  0  0  0  0  0  0  0  0
    6.7829    3.6142    0.0000 C   0  0  0  0  0  0  0  0  0  0  0  0
   -6.0183    5.9082    0.0000 C   0  0  0  0  0  0  0  0  0  0  0  0
    6.8764    4.4339    0.0000 C   0  0  0  0  0  0  0  0  0  0  0  0
  1  2  1  0  0  0  0
  1  3  1  0  0  0  0
  1  4  1  0  0  0  0
  1  5  1  0  0  0  0
  2  6  2  0  0  0  0
  2  7  1  0  0  0  0
  3  8  2  0  0  0  0
  3  9  1  0  0  0  0
  4 10  1  0  0  0  0
  4 11  2  0  0  0  0
  5 12  2  0  0  0  0
  5 13  1  0  0  0  0
  6 14  1  0  0  0  0
  6  8  1  0  0  0  0
  7 15  2  0  0  0  0
  8 16  1  0  0  0  0
  9 17  2  0  0  0  0
 10 18  2  0  0  0  0
 11 19  1  0  0  0  0
 12 20  1  0  0  0  0
 13 21  2  0  0  0  0
 14 22  2  0  0  0  0
 15 22  1  0  0  0  0
 16 23  2  0  0  0  0
 17 23  1  0  0  0  0
 18 24  1  0  0  0  0
 19 24  2  0  0  0  0
 20 25  2  0  0  0  0
 21 25  1  0  0  0  0
 24 26  1  0  0  0  0
 25 27  1  0  0  0  0
 26 28  1  0  0  0  0
 27 29  1  0  0  0  0
 28 30  1  0  0  0  0
 28 31  2  0  0  0  0
 29 32  1  0  0  0  0
 29 33  2  0  0  0  0
 30 34  2  0  0  0  0
 30 35  1  0  0  0  0
 32 36  2  0  0  0  0
 32 37  1  0  0  0  0
 34 38  1  0  0  0  0
 35 39  2  0  0  0  0
 36 40  1  0  0  0  0
 37 41  2  0  0  0  0
 38 42  2  0  0  0  0
 38 43  1  0  0  0  0
 39 42  1  0  0  0  0
 40 44  2  0  0  0  0
 40 45  1  0  0  0  0
 41 44  1  0  0  0  0
 42 46  1  0  0  0  0
 43 47  1  0  0  0  0
 43 48  2  0  0  0  0
 44 49  1  0  0  0  0
 45 50  1  0  0  0  0
 45 51  2  0  0  0  0
 46 52  2  0  0  0  0
 46 47  1  0  0  0  0
 47 53  1  0  0  0  0
 49 54  2  0  0  0  0
 49 50  1  0  0  0  0
 50 55  1  0  0  0  0
 53 56  2  0  0  0  0
 53 57  1  0  0  0  0
 55 58  1  0  0  0  0
 55 59  2  0  0  0  0
 56 60  1  0  0  0  0
 57 61  2  0  0  0  0
 58 62  2  0  0  0  0
 59 63  1  0  0  0  0
 60 64  2  0  0  0  0
 60 65  1  0  0  0  0
 61 64  1  0  0  0  0
 62 66  1  0  0  0  0
 62 67  1  0  0  0  0
 63 66  2  0  0  0  0
 65 68  3  0  0  0  0
 67 69  3  0  0  0  0
M  END
> <CdId>
592

> <Mol Weight>
896.894

> <Formula>
C59H32N2O8

> <Click_ID>
CLK008_G05 __ __ 

$$$$
