CLK034_E05
 OpenBabel03181417022D

 34 36  0  0  0  0  0  0  0  0999 V2000
   -4.5833    2.5500    0.0000 C    0  0  0  0  0  0  0  0  0  0  0  0
   -1.0083    5.4667    0.0000 S    0  0  0  0  0  0  0  0  0  0  0  0
   -3.8708    2.9708    0.0000 N    0  0  0  0  0  0  0  0  0  0  0  0
   -4.6750    1.7333    0.0000 N    0  0  0  0  0  0  0  0  0  0  0  0
   -5.3208    2.8958    0.0000 S    0  0  0  0  0  0  0  0  0  0  0  0
   -5.4833    1.5708    0.0000 C    0  0  0  0  0  0  0  0  0  0  0  0
   -5.8833    2.2958    0.0000 C    0  0  0  0  0  0  0  0  0  0  0  0
   -3.8708    3.8000    0.0000 C    0  0  0  0  0  0  0  0  0  0  0  0
   -1.7250    5.0417    0.0000 C    0  0  0  0  0  0  0  0  0  0  0  0
   -0.2958    5.8792    0.0000 N    0  0  0  0  0  0  0  0  0  0  0  0
   -1.0250    8.7667    0.0000 N    0  0  0  0  0  0  0  0  0  0  0  0
    2.5792    5.0750    0.0000 N    0  0  0  0  0  0  0  0  0  0  0  0
   -4.2458    0.3500    0.0000 C    0  0  0  0  0  0  0  0  0  0  0  0
   -0.5875    4.7417    0.0000 O    0  0  0  0  0  0  0  0  0  0  0  0
   -1.4333    6.1792    0.0000 O    0  0  0  0  0  0  0  0  0  0  0  0
   -4.4208   -0.4542    0.0000 C    0  0  0  0  0  0  0  0  0  0  0  0
   -1.0333    7.9417    0.0000 C    0  0  0  0  0  0  0  0  0  0  0  0
    1.8542    5.4792    0.0000 C    0  0  0  0  0  0  0  0  0  0  0  0
   -3.1583    4.2125    0.0000 C    0  0  0  0  0  0  0  0  0  0  0  0
   -5.9083    0.8708    0.0000 C    0  0  0  0  0  0  0  0  0  0  0  0
   -4.5958    4.2125    0.0000 O    0  0  0  0  0  0  0  0  0  0  0  0
   -4.0583    1.1583    0.0000 C    0  0  0  0  0  0  0  0  0  0  0  0
   -1.7208    4.2125    0.0000 C    0  0  0  0  0  0  0  0  0  0  0  0
   -2.4458    5.4417    0.0000 C    0  0  0  0  0  0  0  0  0  0  0  0
   -3.1500    5.0292    0.0000 C    0  0  0  0  0  0  0  0  0  0  0  0
   -2.4250    3.8000    0.0000 C    0  0  0  0  0  0  0  0  0  0  0  0
    1.1292    5.8917    0.0000 C    0  0  0  0  0  0  0  0  0  0  0  0
   -1.0208    7.1042    0.0000 C    0  0  0  0  0  0  0  0  0  0  0  0
   -5.5083    0.1458    0.0000 Cl   0  0  0  0  0  0  0  0  0  0  0  0
   -6.7042    2.3083    0.0000 C    0  0  0  0  0  0  0  0  0  0  0  0
    0.4167    5.4667    0.0000 C    0  0  0  0  0  0  0  0  0  0  0  0
   -0.3000    6.7042    0.0000 C    0  0  0  0  0  0  0  0  0  0  0  0
   -7.1292    1.6000    0.0000 C    0  0  0  0  0  0  0  0  0  0  0  0
   -6.7167    0.8750    0.0000 C    0  0  0  0  0  0  0  0  0  0  0  0
  2  9  1  0  0  0  0
  3  1  2  0  0  0  0
  4  1  1  0  0  0  0
  5  1  1  0  0  0  0
  6  4  1  0  0  0  0
  7  5  1  0  0  0  0
  7  6  2  0  0  0  0
  8  3  1  0  0  0  0
  9 23  2  0  0  0  0
  9 24  1  0  0  0  0
 10  2  1  0  0  0  0
 11 17  3  0  0  0  0
 12 18  3  0  0  0  0
 13 22  1  0  0  0  0
 14  2  2  0  0  0  0
 15  2  2  0  0  0  0
 16 13  3  0  0  0  0
 17 28  1  0  0  0  0
 18 27  1  0  0  0  0
 19  8  1  0  0  0  0
 20  6  1  0  0  0  0
 21  8  2  0  0  0  0
 22  4  1  0  0  0  0
 23 26  1  0  0  0  0
 24 25  2  0  0  0  0
 25 19  1  0  0  0  0
 26 19  2  0  0  0  0
 27 31  1  0  0  0  0
 28 32  1  0  0  0  0
 29 20  1  0  0  0  0
 30  7  1  0  0  0  0
 31 10  1  0  0  0  0
 32 10  1  0  0  0  0
 33 30  2  0  0  0  0
 34 20  2  0  0  0  0
 34 33  1  0  0  0  0
M  END
> <CdId>
2609

> <Mol Weight>
512.004

> <Formula>
C23H18ClN5O3S2

> <Click_ID>
CLK034_E05 __ __ 

$$$$
