CLK001_B03
 OpenBabel03181417022D

 27 30  0  0  0  0  0  0  0  0999 V2000
   -2.0031   -0.1098    0.0000 C   0  0  0  0  0  0  0  0  0  0  0  0
   -2.1205   -0.9201    0.0000 C   0  0  0  0  0  0  0  0  0  0  0  0
   -1.1966    0.0303    0.0000 C   0  0  3  0  0  0  0  0  0  0  0  0
   -2.6506    0.4014    0.0000 C   0  0  0  0  0  0  0  0  0  0  0  0
   -1.3859   -1.2874    0.0000 N   0  0  0  0  0  0  0  0  0  0  0  0
   -2.8816   -1.2307    0.0000 C   0  0  0  0  0  0  0  0  0  0  0  0
   -0.8103   -0.6968    0.0000 C   0  0  0  0  0  0  0  0  0  0  0  0
   -0.2651    0.6589    0.0000 C   0  0  0  0  0  0  0  0  0  0  0  0
   -1.4540    0.9731    0.0000 O   0  0  0  0  0  0  0  0  0  0  0  0
   -3.4193    0.0947    0.0000 C   0  0  0  0  0  0  0  0  0  0  0  0
   -1.2420   -2.0977    0.0000 C   0  0  0  0  0  0  0  0  0  0  0  0
   -3.5328   -0.7232    0.0000 C   0  0  0  0  0  0  0  0  0  0  0  0
    0.0076   -0.8103    0.0000 O   0  0  0  0  0  0  0  0  0  0  0  0
    0.5226    0.2461    0.0000 C   0  0  0  0  0  0  0  0  0  0  0  0
   -1.8705   -2.6242    0.0000 C   0  0  0  0  0  0  0  0  0  0  0  0
    1.2192    0.7005    0.0000 C   0  0  0  0  0  0  0  0  0  0  0  0
    0.5566   -0.4392    0.0000 O   0  0  0  0  0  0  0  0  0  0  0  0
   -2.5029   -3.1542    0.0000 C   0  0  0  0  0  0  0  0  0  0  0  0
    1.9501    0.3143    0.0000 C   0  0  0  0  0  0  0  0  0  0  0  0
    1.1815    1.5146    0.0000 C   0  0  0  0  0  0  0  0  0  0  0  0
    2.6430    0.7535    0.0000 C   0  0  0  0  0  0  0  0  0  0  0  0
    1.8744    1.9614    0.0000 C   0  0  0  0  0  0  0  0  0  0  0  0
    2.6090    1.5790    0.0000 C   0  0  0  0  0  0  0  0  0  0  0  0
    3.3777    0.3749    0.0000 C   0  0  0  0  0  0  0  0  0  0  0  0
    3.3019    2.0221    0.0000 C   0  0  0  0  0  0  0  0  0  0  0  0
    4.0706    0.8217    0.0000 C   0  0  0  0  0  0  0  0  0  0  0  0
    4.0290    1.6472    0.0000 C   0  0  0  0  0  0  0  0  0  0  0  0
  1  2  2  0  0  0  0
  1  3  1  0  0  0  0
  1  4  1  0  0  0  0
  2  5  1  0  0  0  0
  2  6  1  0  0  0  0
  3  7  1  0  0  0  0
  3  8  1  0  0  0  0
  3  9  1  0  0  0  0
  4 10  2  0  0  0  0
  5 11  1  0  0  0  0
  5  7  1  0  0  0  0
  6 12  2  0  0  0  0
  7 13  2  0  0  0  0
  8 14  1  0  0  0  0
 10 12  1  0  0  0  0
 11 15  1  0  0  0  0
 14 16  1  0  0  0  0
 14 17  2  0  0  0  0
 15 18  3  0  0  0  0
 16 19  1  0  0  0  0
 16 20  2  0  0  0  0
 19 21  2  0  0  0  0
 20 22  1  0  0  0  0
 21 23  1  0  0  0  0
 21 24  1  0  0  0  0
 22 23  2  0  0  0  0
 23 25  1  0  0  0  0
 24 26  1  0  0  0  0
 25 27  1  0  0  0  0
 26 27  1  0  0  0  0
M  END
> <CdId>
12

> <Mol Weight>
359.4177

> <Formula>
C23H21NO3

> <Click_ID>
CLK001_B03 __ __ 

$$$$
