CLK050E11
 OpenBabel03181417022D

 17 17  0  0  0  0  0  0  0  0999 V2000
   -1.3042   -0.1208    0.0000 C   0  0  0  0  0  0  0  0  0  0  0  0
   -3.4500    0.2917    0.0000 C   0  0  0  0  0  0  0  0  0  0  0  0
   -4.1625    0.7042    0.0000 C   0  0  0  0  0  0  0  0  0  0  0  0
   -0.5917    0.2917    0.0000 N   0  0  0  0  0  0  0  0  0  0  0  0
   -1.3042   -0.9458    0.0000 O   0  0  0  0  0  0  0  0  0  0  0  0
    0.1250   -0.1208    0.0000 C   0  0  0  0  0  0  0  0  0  0  0  0
    0.8375    0.2917    0.0000 C   0  0  0  0  0  0  0  0  0  0  0  0
   -2.0208    0.2917    0.0000 N   0  0  0  0  0  0  0  0  0  0  0  0
    1.5542   -0.1208    0.0000 C   0  0  0  0  0  0  0  0  0  0  0  0
   -2.7333   -0.1208    0.0000 C   0  0  0  0  0  0  0  0  0  0  0  0
    2.2667   -1.3583    0.0000 O   0  0  0  0  0  0  0  0  0  0  0  0
    1.5542   -0.9458    0.0000 C   0  0  0  0  0  0  0  0  0  0  0  0
    0.8375    1.1167    0.0000 C   0  0  0  0  0  0  0  0  0  0  0  0
    2.2667    0.2917    0.0000 C   0  0  0  0  0  0  0  0  0  0  0  0
    2.2667   -2.1833    0.0000 C   0  0  0  0  0  0  0  0  0  0  0  0
    2.2667    1.1167    0.0000 C   0  0  0  0  0  0  0  0  0  0  0  0
    1.5542    1.5292    0.0000 C   0  0  0  0  0  0  0  0  0  0  0  0
  2 10  1  0  0  0  0
  3  2  3  0  0  0  0
  4  1  1  0  0  0  0
  5  1  2  0  0  0  0
  6  4  1  0  0  0  0
  7  6  1  0  0  0  0
  8  1  1  0  0  0  0
  9  7  2  0  0  0  0
 10  8  1  0  0  0  0
 11 12  1  0  0  0  0
 12  9  1  0  0  0  0
 13  7  1  0  0  0  0
 14  9  1  0  0  0  0
 15 11  1  0  0  0  0
 16 14  2  0  0  0  0
 17 13  2  0  0  0  0
 17 16  1  0  0  0  0
M  END
> <CdId>
3885

> <Mol Weight>
232.2783

> <Formula>
C13H16N2O2

> <Click_ID>
CLK050E11 __ __ 

$$$$
