CLK037E09
 OpenBabel03181417022D

 29 31  0  0  0  0  0  0  0  0999 V2000
   -1.7333   -0.2708    0.0000 C   0  0  0  0  0  0  0  0  0  0  0  0
   -2.2208    0.4000    0.0000 N   0  0  0  0  0  0  0  0  0  0  0  0
   -2.2208   -0.9375    0.0000 S   0  0  0  0  0  0  0  0  0  0  0  0
   -0.9083   -0.2708    0.0000 C   0  0  0  0  0  0  0  0  0  0  0  0
   -3.0042    0.1417    0.0000 C   0  0  0  0  0  0  0  0  0  0  0  0
   -0.4958    0.4458    0.0000 C   0  0  0  0  0  0  0  0  0  0  0  0
   -3.0042   -0.6833    0.0000 C   0  0  0  0  0  0  0  0  0  0  0  0
    4.0417   -0.2708    0.0000 C   0  0  0  0  0  0  0  0  0  0  0  0
    4.8667   -0.2708    0.0000 C   0  0  0  0  0  0  0  0  0  0  0  0
    1.5667    1.1583    0.0000 C   0  0  0  0  0  0  0  0  0  0  0  0
    0.7417   -1.6958    0.0000 C   0  0  0  0  0  0  0  0  0  0  0  0
    0.3292    0.4458    0.0000 C   0  0  0  0  0  0  0  0  0  0  0  0
    0.7417    1.1583    0.0000 C   0  0  0  0  0  0  0  0  0  0  0  0
    1.9792    0.4458    0.0000 C   0  0  0  0  0  0  0  0  0  0  0  0
   -0.4958   -0.9833    0.0000 C   0  0  0  0  0  0  0  0  0  0  0  0
    0.3292   -2.4125    0.0000 O   0  0  0  0  0  0  0  0  0  0  0  0
    1.5667   -0.2708    0.0000 C   0  0  0  0  0  0  0  0  0  0  0  0
    0.3292   -0.9833    0.0000 C   0  0  0  0  0  0  0  0  0  0  0  0
    0.7417   -0.2708    0.0000 C   0  0  0  0  0  0  0  0  0  0  0  0
    1.5667   -1.6958    0.0000 O   0  0  0  0  0  0  0  0  0  0  0  0
    1.9792    1.8750    0.0000 O   0  0  0  0  0  0  0  0  0  0  0  0
    2.8042    0.4458    0.0000 O   0  0  0  0  0  0  0  0  0  0  0  0
    3.2167   -0.2708    0.0000 C   0  0  0  0  0  0  0  0  0  0  0  0
   -3.7167    0.5542    0.0000 C   0  0  0  0  0  0  0  0  0  0  0  0
   -3.7167   -1.0958    0.0000 C   0  0  0  0  0  0  0  0  0  0  0  0
    1.5667    2.5875    0.0000 C   0  0  0  0  0  0  0  0  0  0  0  0
    1.9792    3.3042    0.0000 C   0  0  0  0  0  0  0  0  0  0  0  0
   -4.4333    0.1417    0.0000 C   0  0  0  0  0  0  0  0  0  0  0  0
   -4.4333   -0.6833    0.0000 C   0  0  0  0  0  0  0  0  0  0  0  0
  2  1  2  0  0  0  0
  3  1  1  0  0  0  0
  4  1  1  0  0  0  0
  5  2  1  0  0  0  0
  6  4  2  0  0  0  0
  7  3  1  0  0  0  0
  7  5  2  0  0  0  0
  8 23  1  0  0  0  0
  9  8  3  0  0  0  0
 10 13  1  0  0  0  0
 11 18  1  0  0  0  0
 12  6  1  0  0  0  0
 13 12  2  0  0  0  0
 14 17  1  0  0  0  0
 14 10  2  0  0  0  0
 15  4  1  0  0  0  0
 16 11  2  0  0  0  0
 17 19  2  0  0  0  0
 18 15  1  0  0  0  0
 19 12  1  0  0  0  0
 20 11  1  0  0  0  0
 21 10  1  0  0  0  0
 22 14  1  0  0  0  0
 23 22  1  0  0  0  0
 24  5  1  0  0  0  0
 25  7  1  0  0  0  0
 26 21  1  0  0  0  0
 27 26  1  0  0  0  0
 28 24  2  0  0  0  0
 29 25  2  0  0  0  0
 29 28  1  0  0  0  0
M  END
> <CdId>
2829

> <Mol Weight>
407.482

> <Formula>
C23H21NO4S

> <Click_ID>
CLK037E09 __ __ 

$$$$
