CLK041E07
 OpenBabel03181417022D

 22 22  0  0  0  0  0  0  0  0999 V2000
    0.7125   -3.3000    0.0000 C   0  0  0  0  0  0  0  0  0  0  0  0
    0.7125   -4.1250    0.0000 C   0  0  0  0  0  0  0  0  0  0  0  0
    0.0000   -1.2375    0.0000 C   0  0  0  0  0  0  0  0  0  0  0  0
    0.0000    3.7125    0.0000 C   0  0  0  0  0  0  0  0  0  0  0  0
    0.7125   -1.6500    0.0000 N   0  0  0  0  0  0  0  0  0  0  0  0
    0.7125   -2.4750    0.0000 C   0  0  0  0  0  0  0  0  0  0  0  0
   -0.7167    3.3000    0.0000 N   0  0  0  0  0  0  0  0  0  0  0  0
   -0.7167   -1.6500    0.0000 O   0  0  0  0  0  0  0  0  0  0  0  0
    0.7125    3.3000    0.0000 O   0  0  0  0  0  0  0  0  0  0  0  0
   -0.7167    0.0000    0.0000 O   0  0  0  0  0  0  0  0  0  0  0  0
   -0.7167    2.4750    0.0000 C   0  0  0  0  0  0  0  0  0  0  0  0
    0.0000   -0.4125    0.0000 C   0  0  0  0  0  0  0  0  0  0  0  0
   -0.7167    0.8250    0.0000 C   0  0  0  0  0  0  0  0  0  0  0  0
    0.0000    2.0625    0.0000 C   0  0  0  0  0  0  0  0  0  0  0  0
   -1.4292    2.0625    0.0000 C   0  0  0  0  0  0  0  0  0  0  0  0
    0.0000    1.2375    0.0000 C   0  0  0  0  0  0  0  0  0  0  0  0
   -1.4292    1.2375    0.0000 C   0  0  0  0  0  0  0  0  0  0  0  0
    0.0000    4.5333    0.0000 C   0  0  0  0  0  0  0  0  0  0  0  0
   -0.1125   -2.4750    0.0000 C   0  0  0  0  0  0  0  0  0  0  0  0
    1.5375   -2.4750    0.0000 C   0  0  0  0  0  0  0  0  0  0  0  0
   -0.5250   -1.7583    0.0000 C   0  0  0  0  0  0  0  0  0  0  0  0
    1.9500   -3.1875    0.0000 C   0  0  0  0  0  0  0  0  0  0  0  0
  2  1  3  0  0  0  0
  3  5  1  0  0  0  0
  4  7  1  0  0  0  0
  5  6  1  0  0  0  0
  6  1  1  0  0  0  0
  7 11  1  0  0  0  0
  8  3  2  0  0  0  0
  9  4  2  0  0  0  0
 10 12  1  0  0  0  0
 11 15  2  0  0  0  0
 11 14  1  0  0  0  0
 12  3  1  0  0  0  0
 13 10  1  0  0  0  0
 14 16  2  0  0  0  0
 15 17  1  0  0  0  0
 16 13  1  0  0  0  0
 17 13  2  0  0  0  0
 18  4  1  0  0  0  0
 19  6  1  0  0  0  0
 20  6  1  0  0  0  0
 21 19  1  0  0  0  0
 22 20  1  0  0  0  0
M  END
> <CdId>
3133

> <Mol Weight>
302.3682

> <Formula>
C17H22N2O3

> <Click_ID>
CLK041E07 __ __ 

$$$$
