CLK024_F02
 OpenBabel03181417022D

 14 15  0  0  0  0  0  0  0  0999 V2000
    0.6016   -0.3644    0.0000 N    0  0  0  0  0  0  0  0  0  0  0  0
    1.0760    0.3128    0.0000 C    0  0  0  0  0  0  0  0  0  0  0  0
   -0.1856   -0.1100    0.0000 C    0  0  0  0  0  0  0  0  0  0  0  0
    0.5913    0.9728    0.0000 O    0  0  0  0  0  0  0  0  0  0  0  0
   -0.1891    0.7150    0.0000 C    0  0  0  0  0  0  0  0  0  0  0  0
    1.9181   -1.1138    0.0000 C    0  0  0  0  0  0  0  0  0  0  0  0
   -0.9075   -0.5259    0.0000 C    0  0  0  0  0  0  0  0  0  0  0  0
    1.0863   -1.1206    0.0000 C    0  0  0  0  0  0  0  0  0  0  0  0
    1.9113    0.3128    0.0000 S    0  0  0  0  0  0  0  0  0  0  0  0
   -0.9075    1.1241    0.0000 C    0  0  0  0  0  0  0  0  0  0  0  0
   -1.6156   -0.1100    0.0000 C    0  0  0  0  0  0  0  0  0  0  0  0
   -1.6156    0.7150    0.0000 C    0  0  0  0  0  0  0  0  0  0  0  0
   -2.3272   -0.5259    0.0000 Cl   0  0  0  0  0  0  0  0  0  0  0  0
    2.3238   -0.3987    0.0000 C    0  0  0  0  0  0  0  0  0  0  0  0
  2  1  2  0  0  0  0
  3  1  1  0  0  0  0
  4  2  1  0  0  0  0
  5  3  1  0  0  0  0
  5  4  1  0  0  0  0
  6 14  1  0  0  0  0
  7  3  2  0  0  0  0
  8  6  3  0  0  0  0
  9  2  1  0  0  0  0
 10  5  2  0  0  0  0
 11  7  1  0  0  0  0
 12 11  2  0  0  0  0
 12 10  1  0  0  0  0
 13 11  1  0  0  0  0
 14  9  1  0  0  0  0
M  END
> <CdId>
1827

> <Mol Weight>
223.679

> <Formula>
C10H6ClNOS

> <Click_ID>
CLK024_F02 __ __ 

$$$$
