CLK039F10
 OpenBabel03181417022D

 20 21  0  0  0  0  0  0  0  0999 V2000
   -0.1458   -0.2042    0.0000 S   0  0  0  0  0  0  0  0  0  0  0  0
   -0.1458    0.6208    0.0000 N   0  0  0  0  0  0  0  0  0  0  0  0
   -0.1458   -1.0292    0.0000 C   0  0  0  0  0  0  0  0  0  0  0  0
    0.6792   -0.2042    0.0000 O   0  0  0  0  0  0  0  0  0  0  0  0
   -0.9708   -0.2042    0.0000 O   0  0  0  0  0  0  0  0  0  0  0  0
    0.5708    3.5083    0.0000 C   0  0  0  0  0  0  0  0  0  0  0  0
   -0.1458    2.2708    0.0000 N   0  0  0  0  0  0  0  0  0  0  0  0
    1.2833    3.9208    0.0000 C   0  0  0  0  0  0  0  0  0  0  0  0
    0.5708    1.0333    0.0000 C   0  0  0  0  0  0  0  0  0  0  0  0
   -0.8583    1.0333    0.0000 C   0  0  0  0  0  0  0  0  0  0  0  0
   -0.8583    1.8583    0.0000 C   0  0  0  0  0  0  0  0  0  0  0  0
    0.5708    1.8583    0.0000 C   0  0  0  0  0  0  0  0  0  0  0  0
   -0.8583   -1.4417    0.0000 C   0  0  0  0  0  0  0  0  0  0  0  0
    0.5708   -1.4417    0.0000 C   0  0  0  0  0  0  0  0  0  0  0  0
   -0.1458    3.0958    0.0000 C   0  0  0  0  0  0  0  0  0  0  0  0
   -0.1458   -2.6792    0.0000 C   0  0  0  0  0  0  0  0  0  0  0  0
    0.5708   -2.2667    0.0000 C   0  0  0  0  0  0  0  0  0  0  0  0
   -0.8583   -2.2667    0.0000 C   0  0  0  0  0  0  0  0  0  0  0  0
   -0.1458   -3.5042    0.0000 O   0  0  0  0  0  0  0  0  0  0  0  0
    0.5708   -3.9167    0.0000 C   0  0  0  0  0  0  0  0  0  0  0  0
  2  1  1  0  0  0  0
  3  1  1  0  0  0  0
  4  1  2  0  0  0  0
  5  1  2  0  0  0  0
  6 15  1  0  0  0  0
  7 11  1  0  0  0  0
  7 12  1  0  0  0  0
  8  6  3  0  0  0  0
  9  2  1  0  0  0  0
 10  2  1  0  0  0  0
 11 10  1  0  0  0  0
 12  9  1  0  0  0  0
 13  3  2  0  0  0  0
 14  3  1  0  0  0  0
 15  7  1  0  0  0  0
 16 18  2  0  0  0  0
 17 14  2  0  0  0  0
 17 16  1  0  0  0  0
 18 13  1  0  0  0  0
 19 16  1  0  0  0  0
 20 19  1  0  0  0  0
M  END
> <CdId>
2998

> <Mol Weight>
294.369

> <Formula>
C14H18N2O3S

> <Click_ID>
CLK039F10 __ __ 

$$$$
