CLK048G09
 OpenBabel03181417022D

 19 20  0  0  0  0  0  0  0  0999 V2000
   -0.4542   -0.7375    0.0000 N   0  0  0  0  0  0  0  0  0  0  0  0
    0.2625    0.5000    0.0000 C   0  0  3  0  0  0  0  0  0  0  0  0
   -0.4542    0.9125    0.0000 O   0  0  0  0  0  0  0  0  0  0  0  0
    0.2625   -0.3250    0.0000 C   0  0  0  0  0  0  0  0  0  0  0  0
   -1.1667   -0.3250    0.0000 C   0  0  0  0  0  0  0  0  0  0  0  0
   -1.1667    0.5000    0.0000 C   0  0  0  0  0  0  0  0  0  0  0  0
   -0.4542   -1.5625    0.0000 C   0  0  0  0  0  0  0  0  0  0  0  0
    0.9750    0.9125    0.0000 C   0  0  0  0  0  0  0  0  0  0  0  0
    3.1208    0.5000    0.0000 C   0  0  0  0  0  0  0  0  0  0  0  0
    3.8333    0.0875    0.0000 C   0  0  0  0  0  0  0  0  0  0  0  0
    0.2625   -1.9750    0.0000 O   0  0  0  0  0  0  0  0  0  0  0  0
    0.9750    1.7375    0.0000 O   0  0  0  0  0  0  0  0  0  0  0  0
    1.6917    0.5000    0.0000 N   0  0  0  0  0  0  0  0  0  0  0  0
    2.4042    0.9125    0.0000 C   0  0  0  0  0  0  0  0  0  0  0  0
   -1.8833   -0.7375    0.0000 C   0  0  0  0  0  0  0  0  0  0  0  0
   -1.1667   -1.9750    0.0000 C   0  0  0  0  0  0  0  0  0  0  0  0
   -1.8833    0.9125    0.0000 C   0  0  0  0  0  0  0  0  0  0  0  0
   -2.5958   -0.3250    0.0000 C   0  0  0  0  0  0  0  0  0  0  0  0
   -2.5958    0.5000    0.0000 C   0  0  0  0  0  0  0  0  0  0  0  0
  2  4  1  0  0  0  0
  3  6  1  0  0  0  0
  3  2  1  0  0  0  0
  4  1  1  0  0  0  0
  5  1  1  0  0  0  0
  6  5  2  0  0  0  0
  7  1  1  0  0  0  0
  8  2  1  0  0  0  0
  9 14  1  0  0  0  0
 10  9  3  0  0  0  0
 11  7  2  0  0  0  0
 12  8  2  0  0  0  0
 13  8  1  0  0  0  0
 14 13  1  0  0  0  0
 15  5  1  0  0  0  0
 16  7  1  0  0  0  0
 17  6  1  0  0  0  0
 18 15  2  0  0  0  0
 18 19  1  0  0  0  0
 19 17  2  0  0  0  0
M  END
> <CdId>
3711

> <Mol Weight>
258.2726

> <Formula>
C14H14N2O3

> <Click_ID>
CLK048G09 __ __ 

$$$$
