CLK020_D11
 OpenBabel03181417022D

 33 36  0  0  0  0  0  0  0  0999 V2000
   -1.6805   -3.3777    0.0000 C   0  0  0  0  0  0  0  0  0  0  0  0
    2.0497   -1.2398    0.0000 N   0  0  0  0  0  0  0  0  0  0  0  0
    0.7990   -1.9561    0.0000 C   0  0  0  0  0  0  0  0  0  0  0  0
    1.6530   -1.9561    0.0000 N   0  0  0  0  0  0  0  0  0  0  0  0
    1.6530   -0.5290    0.0000 C   0  0  0  0  0  0  0  0  0  0  0  0
    0.7990   -0.5290    0.0000 C   0  0  0  0  0  0  0  0  0  0  0  0
   -2.0772   -4.0995    0.0000 C   0  0  0  0  0  0  0  0  0  0  0  0
    0.3802   -1.2398    0.0000 C   0  0  0  0  0  0  0  0  0  0  0  0
    0.3802   -2.6669    0.0000 N   0  0  0  0  0  0  0  0  0  0  0  0
    3.3446    3.7302    0.0000 C   0  0  0  0  0  0  0  0  0  0  0  0
    3.7689    4.4466    0.0000 C   0  0  0  0  0  0  0  0  0  0  0  0
   -0.8596   -3.3777    0.0000 C   0  0  0  0  0  0  0  0  0  0  0  0
   -2.1103   -2.6669    0.0000 C   0  0  0  0  0  0  0  0  0  0  0  0
    2.0497    0.1928    0.0000 C   0  0  0  0  0  0  0  0  0  0  0  0
   -0.4408   -2.6669    0.0000 C   0  0  0  0  0  0  0  0  0  0  0  0
   -2.8707   -4.0829    0.0000 O   0  0  0  0  0  0  0  0  0  0  0  0
   -1.6695   -4.8103    0.0000 N   0  0  0  0  0  0  0  0  0  0  0  0
   -1.6805   -1.9561    0.0000 C   0  0  0  0  0  0  0  0  0  0  0  0
    1.6530    0.9036    0.0000 C   0  0  0  0  0  0  0  0  0  0  0  0
    2.8928    0.1928    0.0000 C   0  0  0  0  0  0  0  0  0  0  0  0
   -0.8596   -1.9561    0.0000 C   0  0  0  0  0  0  0  0  0  0  0  0
    2.8928    1.6144    0.0000 C   0  0  0  0  0  0  0  0  0  0  0  0
    3.2895    0.9036    0.0000 C   0  0  0  0  0  0  0  0  0  0  0  0
    2.0497    1.6144    0.0000 C   0  0  0  0  0  0  0  0  0  0  0  0
   -2.9258   -2.6669    0.0000 O   0  0  0  0  0  0  0  0  0  0  0  0
    2.9148    3.0415    0.0000 C   0  0  0  0  0  0  0  0  0  0  0  0
    0.3802    0.1928    0.0000 C   0  0  0  0  0  0  0  0  0  0  0  0
    3.3116    2.3307    0.0000 O   0  0  0  0  0  0  0  0  0  0  0  0
   -0.4408   -1.2398    0.0000 C   0  0  0  0  0  0  0  0  0  0  0  0
   -0.8596   -4.8103    0.0000 C   0  0  0  0  0  0  0  0  0  0  0  0
   -3.3500   -3.3777    0.0000 C   0  0  0  0  0  0  0  0  0  0  0  0
   -0.4408    0.1928    0.0000 C   0  0  0  0  0  0  0  0  0  0  0  0
   -0.8596   -0.5290    0.0000 C   0  0  0  0  0  0  0  0  0  0  0  0
  2  4  1  0  0  0  0
  2  5  2  0  0  0  0
  3  9  1  0  0  0  0
  4  3  2  0  0  0  0
  5  6  1  0  0  0  0
  6  8  2  0  0  0  0
  7  1  1  0  0  0  0
  8  3  1  0  0  0  0
  9 15  1  0  0  0  0
 10 26  1  0  0  0  0
 11 10  3  0  0  0  0
 12  1  2  0  0  0  0
 13  1  1  0  0  0  0
 14  5  1  0  0  0  0
 15 12  1  0  0  0  0
 15 21  2  0  0  0  0
 16  7  2  0  0  0  0
 17  7  1  0  0  0  0
 18 13  2  0  0  0  0
 19 14  1  0  0  0  0
 20 14  2  0  0  0  0
 21 18  1  0  0  0  0
 22 23  2  0  0  0  0
 23 20  1  0  0  0  0
 24 19  2  0  0  0  0
 24 22  1  0  0  0  0
 25 13  1  0  0  0  0
 26 28  1  0  0  0  0
 27  6  1  0  0  0  0
 27 32  2  0  0  0  0
 28 22  1  0  0  0  0
 29  8  1  0  0  0  0
 30 17  1  0  0  0  0
 31 25  1  0  0  0  0
 32 33  1  0  0  0  0
 33 29  2  0  0  0  0
M  END
> <CdId>
1516

> <Mol Weight>
438.4779

> <Formula>
C26H22N4O3

> <Click_ID>
CLK020_D11 __ __ 

$$$$
