CLK029_H07
 OpenBabel03181417022D

 29 31  0  0  0  0  0  0  0  0999 V2000
   -1.1625    2.3833    0.0000 C   0  0  0  0  0  0  0  0  0  0  0  0
   -0.3375    2.3750    0.0000 N   0  0  0  0  0  0  0  0  0  0  0  0
   -1.6458    1.7208    0.0000 N   0  0  0  0  0  0  0  0  0  0  0  0
   -1.6458    3.0500    0.0000 S   0  0  0  0  0  0  0  0  0  0  0  0
    2.5667    1.6500    0.0000 N   0  3  0  0  0  0  0  0  0  0  0  0
   -2.4333    2.7958    0.0000 C   0  0  0  0  0  0  0  0  0  0  0  0
   -2.4333    1.9708    0.0000 C   0  0  0  0  0  0  0  0  0  0  0  0
    0.0750    3.0875    0.0000 C   0  0  0  0  0  0  0  0  0  0  0  0
    2.1417    2.3708    0.0000 C   0  0  0  0  0  0  0  0  0  0  0  0
   -4.5833    3.2125    0.0000 C   0  0  0  0  0  0  0  0  0  0  0  0
   -3.1458    3.2083    0.0000 C   0  0  0  0  0  0  0  0  0  0  0  0
   -3.8583    2.7958    0.0000 C   0  0  0  0  0  0  0  0  0  0  0  0
    0.9000    3.0875    0.0000 C   0  0  0  0  0  0  0  0  0  0  0  0
   -1.9458    0.3208    0.0000 C   0  0  0  0  0  0  0  0  0  0  0  0
   -3.1458    1.5583    0.0000 C   0  0  0  0  0  0  0  0  0  0  0  0
    1.3167    2.3708    0.0000 C   0  0  0  0  0  0  0  0  0  0  0  0
   -2.4958   -0.2917    0.0000 C   0  0  0  0  0  0  0  0  0  0  0  0
    2.1500    0.9333    0.0000 O   0  5  0  0  0  0  0  0  0  0  0  0
    3.3917    1.6583    0.0000 O   0  0  0  0  0  0  0  0  0  0  0  0
   -0.3375    3.8000    0.0000 O   0  0  0  0  0  0  0  0  0  0  0  0
   -3.8583    1.9708    0.0000 C   0  0  0  0  0  0  0  0  0  0  0  0
   -5.2958    2.8000    0.0000 O   0  0  0  0  0  0  0  0  0  0  0  0
   -1.3958    0.9333    0.0000 C   0  0  0  0  0  0  0  0  0  0  0  0
   -4.5708    4.0292    0.0000 O   0  0  0  0  0  0  0  0  0  0  0  0
    2.5542    3.0833    0.0000 C   0  0  0  0  0  0  0  0  0  0  0  0
    1.3167    3.8000    0.0000 C   0  0  0  0  0  0  0  0  0  0  0  0
    2.1417    3.8000    0.0000 C   0  0  0  0  0  0  0  0  0  0  0  0
   -5.2958    4.4542    0.0000 C   0  0  0  0  0  0  0  0  0  0  0  0
   -5.2875    5.2750    0.0000 C   0  0  0  0  0  0  0  0  0  0  0  0
  2  1  2  0  0  0  0
  3  1  1  0  0  0  0
  4  1  1  0  0  0  0
  5  9  1  0  0  0  0
  6  4  1  0  0  0  0
  6  7  2  0  0  0  0
  7  3  1  0  0  0  0
  8  2  1  0  0  0  0
  9 16  1  0  0  0  0
 10 12  1  0  0  0  0
 11  6  1  0  0  0  0
 12 11  2  0  0  0  0
 12 21  1  0  0  0  0
 13  8  1  0  0  0  0
 14 23  1  0  0  0  0
 15  7  1  0  0  0  0
 16 13  2  0  0  0  0
 17 14  3  0  0  0  0
 18  5  1  0  0  0  0
 19  5  2  0  0  0  0
 20  8  2  0  0  0  0
 21 15  2  0  0  0  0
 22 10  2  0  0  0  0
 23  3  1  0  0  0  0
 24 10  1  0  0  0  0
 25 27  1  0  0  0  0
 25  9  2  0  0  0  0
 26 13  1  0  0  0  0
 27 26  2  0  0  0  0
 28 24  1  0  0  0  0
 29 28  1  0  0  0  0
M  END
> <CdId>
2241

> <Mol Weight>
409.415

> <Formula>
C20H15N3O5S

> <Click_ID>
CLK029_H07 __ __ 

$$$$
