CLK016_C11
 OpenBabel03181417022D

 26 28  0  0  0  0  0  0  0  0999 V2000
    1.8666    0.7975    0.0000 C   0  0  0  0  0  0  0  0  0  0  0  0
    0.5304    0.7975    0.0000 N   0  0  0  0  0  0  0  0  0  0  0  0
    1.1943    1.2778    0.0000 C   0  0  0  0  0  0  0  0  0  0  0  0
    0.7809    0.0083    0.0000 N   0  0  0  0  0  0  0  0  0  0  0  0
    1.6077    0.0083    0.0000 C   0  0  0  0  0  0  0  0  0  0  0  0
    2.6558    1.0481    0.0000 C   0  0  0  0  0  0  0  0  0  0  0  0
    4.3011    5.3283    0.0000 C   0  0  0  0  0  0  0  0  0  0  0  0
    4.4890    6.1301    0.0000 C   0  0  0  0  0  0  0  0  0  0  0  0
   -0.2589    1.0481    0.0000 C   0  0  0  0  0  0  0  0  0  0  0  0
    1.1943    2.1046    0.0000 O   0  0  0  0  0  0  0  0  0  0  0  0
    2.3802    3.2278    0.0000 C   0  0  0  0  0  0  0  0  0  0  0  0
    2.8229    1.8624    0.0000 C   0  0  0  0  0  0  0  0  0  0  0  0
    2.2090    2.4136    0.0000 C   0  0  0  0  0  0  0  0  0  0  0  0
    3.1611    3.4701    0.0000 C   0  0  0  0  0  0  0  0  0  0  0  0
    3.7749    2.9189    0.0000 C   0  0  0  0  0  0  0  0  0  0  0  0
    3.5996    2.1129    0.0000 C   0  0  0  0  0  0  0  0  0  0  0  0
    1.7831    3.7791    0.0000 O   0  0  0  0  0  0  0  0  0  0  0  0
    3.3448    4.2760    0.0000 O   0  0  0  0  0  0  0  0  0  0  0  0
    2.0963   -0.6639    0.0000 C   0  0  0  0  0  0  0  0  0  0  0  0
    4.1257    4.5224    0.0000 C   0  0  0  0  0  0  0  0  0  0  0  0
   -0.8727    0.4969    0.0000 C   0  0  0  0  0  0  0  0  0  0  0  0
   -0.4259    1.8624    0.0000 C   0  0  0  0  0  0  0  0  0  0  0  0
    0.9939    3.5285    0.0000 C   0  0  0  0  0  0  0  0  0  0  0  0
   -1.2109    2.1129    0.0000 C   0  0  0  0  0  0  0  0  0  0  0  0
   -1.6619    0.7600    0.0000 C   0  0  0  0  0  0  0  0  0  0  0  0
   -1.8248    1.5659    0.0000 C   0  0  0  0  0  0  0  0  0  0  0  0
  2  3  1  0  0  0  0
  2  4  1  0  0  0  0
  3  1  1  0  0  0  0
  4  5  2  0  0  0  0
  5  1  1  0  0  0  0
  6  1  2  0  0  0  0
  7 20  1  0  0  0  0
  8  7  3  0  0  0  0
  9  2  1  0  0  0  0
 10  3  2  0  0  0  0
 11 13  1  0  0  0  0
 12  6  1  0  0  0  0
 13 12  2  0  0  0  0
 14 15  1  0  0  0  0
 14 11  2  0  0  0  0
 15 16  2  0  0  0  0
 16 12  1  0  0  0  0
 17 11  1  0  0  0  0
 18 14  1  0  0  0  0
 19  5  1  0  0  0  0
 20 18  1  0  0  0  0
 21  9  1  0  0  0  0
 22  9  2  0  0  0  0
 23 17  1  0  0  0  0
 24 22  1  0  0  0  0
 25 21  2  0  0  0  0
 26 24  2  0  0  0  0
 26 25  1  0  0  0  0
M  END
> <CdId>
1186

> <Mol Weight>
346.3792

> <Formula>
C21H18N2O3

> <Click_ID>
CLK016_C11 __ __ 

$$$$
