CLK035_A02
 OpenBabel03181417022D

 21 22  0  0  0  0  0  0  0  0999 V2000
   -4.5923    2.5564    0.0000 C   0  0  0  0  0  0  0  0  0  0  0  0
   -3.8596    2.9811    0.0000 N   0  0  0  0  0  0  0  0  0  0  0  0
   -4.6798    1.7320    0.0000 N   0  0  0  0  0  0  0  0  0  0  0  0
   -5.3168    2.8936    0.0000 S   0  0  0  0  0  0  0  0  0  0  0  0
   -5.4834    1.5821    0.0000 C   0  0  0  0  0  0  0  0  0  0  0  0
   -5.8914    2.2983    0.0000 C   0  0  0  0  0  0  0  0  0  0  0  0
   -3.8679    3.7971    0.0000 C   0  0  0  0  0  0  0  0  0  0  0  0
   -4.2551    0.3580    0.0000 C   0  0  0  0  0  0  0  0  0  0  0  0
   -4.4425   -0.4539    0.0000 C   0  0  0  0  0  0  0  0  0  0  0  0
   -3.1559    4.2093    0.0000 C   0  0  0  0  0  0  0  0  0  0  0  0
   -5.9163    0.8826    0.0000 C   0  0  0  0  0  0  0  0  0  0  0  0
   -4.5799    4.2135    0.0000 O   0  0  0  0  0  0  0  0  0  0  0  0
   -4.0677    1.1616    0.0000 C   0  0  0  0  0  0  0  0  0  0  0  0
   -6.6992    2.3191    0.0000 C   0  0  0  0  0  0  0  0  0  0  0  0
   -5.5166    0.1457    0.0000 O   0  0  0  0  0  0  0  0  0  0  0  0
   -7.1363    1.6196    0.0000 C   0  0  0  0  0  0  0  0  0  0  0  0
   -2.4565    3.7680    0.0000 C   0  0  0  0  0  0  0  0  0  0  0  0
   -3.1060    5.0379    0.0000 C   0  0  0  0  0  0  0  0  0  0  0  0
   -2.4482    4.6465    0.0000 C   0  0  0  0  0  0  0  0  0  0  0  0
   -6.7241    0.8868    0.0000 C   0  0  0  0  0  0  0  0  0  0  0  0
   -5.9538   -0.5538    0.0000 C   0  0  0  0  0  0  0  0  0  0  0  0
  2  1  2  0  0  0  0
  3  1  1  0  0  0  0
  4  1  1  0  0  0  0
  5  3  1  0  0  0  0
  6  4  1  0  0  0  0
  6  5  2  0  0  0  0
  7  2  1  0  0  0  0
  8 13  1  0  0  0  0
  9  8  3  0  0  0  0
 10  7  1  0  0  0  0
 11  5  1  0  0  0  0
 12  7  2  0  0  0  0
 13  3  1  0  0  0  0
 14  6  1  0  0  0  0
 15 11  1  0  0  0  0
 16 14  2  0  0  0  0
 17 10  1  0  0  0  0
 18 10  1  0  0  0  0
 19 10  1  0  0  0  0
 20 11  2  0  0  0  0
 20 16  1  0  0  0  0
 21 15  1  0  0  0  0
M  END
> <CdId>
2646

> <Mol Weight>
302.391

> <Formula>
C16H18N2O2S

> <Click_ID>
CLK035_A02 __ __ 

$$$$
