CLK004_E09
 OpenBabel03181417022D

 30 33  0  0  0  0  0  0  0  0999 V2000
    0.7862    0.3836    0.0000 C    0  0  3  0  0  0  0  0  0  0  0  0
    1.5003   -0.0189    0.0000 C    0  0  0  0  0  0  0  0  0  0  0  0
    0.7710    1.2040    0.0000 C    0  0  0  0  0  0  0  0  0  0  0  0
    0.0684   -0.0341    0.0000 C    0  0  0  0  0  0  0  0  0  0  0  0
    2.2143    0.4064    0.0000 C    0  0  0  0  0  0  0  0  0  0  0  0
    1.5117   -0.8318    0.0000 C    0  0  0  0  0  0  0  0  0  0  0  0
    1.4737    1.6218    0.0000 C    0  0  0  0  0  0  0  0  0  0  0  0
    0.0569    1.6105    0.0000 C    0  0  0  0  0  0  0  0  0  0  0  0
   -0.6457    0.3646    0.0000 C    0  0  0  0  0  0  0  0  0  0  0  0
    0.0836   -0.8584    0.0000 C    0  0  0  0  0  0  0  0  0  0  0  0
    2.1992    1.2230    0.0000 N    0  0  0  0  0  0  0  0  0  0  0  0
    2.9322    0.0000    0.0000 C    0  0  0  0  0  0  0  0  0  0  0  0
    2.2333   -1.2458    0.0000 C    0  0  0  0  0  0  0  0  0  0  0  0
    0.7938   -1.2686    0.0000 O    0  0  0  0  0  0  0  0  0  0  0  0
    1.4699    2.4574    0.0000 C    0  0  0  0  0  0  0  0  0  0  0  0
    0.0417    2.4308    0.0000 C    0  0  0  0  0  0  0  0  0  0  0  0
   -0.6609    1.1927    0.0000 O    0  0  0  0  0  0  0  0  0  0  0  0
   -1.3635   -0.0608    0.0000 C    0  0  0  0  0  0  0  0  0  0  0  0
   -0.6229   -1.2876    0.0000 C    0  0  0  0  0  0  0  0  0  0  0  0
    2.9436   -0.8280    0.0000 C    0  0  0  0  0  0  0  0  0  0  0  0
    0.7445    2.8486    0.0000 C    0  0  0  0  0  0  0  0  0  0  0  0
   -1.3483   -0.8888    0.0000 C    0  0  0  0  0  0  0  0  0  0  0  0
   -2.0776    0.3418    0.0000 O    0  0  0  0  0  0  0  0  0  0  0  0
   -0.6077   -2.1117    0.0000 Cl   0  0  0  0  0  0  0  0  0  0  0  0
   -2.0548   -1.3142    0.0000 O    0  0  0  0  0  0  0  0  0  0  0  0
   -2.0928    1.1699    0.0000 C    0  0  0  0  0  0  0  0  0  0  0  0
   -2.0396   -2.1384    0.0000 C    0  0  0  0  0  0  0  0  0  0  0  0
   -2.8221    1.5762    0.0000 C    0  0  0  0  0  0  0  0  0  0  0  0
   -2.7537   -2.5638    0.0000 C    0  0  0  0  0  0  0  0  0  0  0  0
   -2.7385   -3.3917    0.0000 C    0  0  0  0  0  0  0  0  0  0  0  0
  1  2  1  0  0  0  0
  1  3  1  0  0  0  0
  1  4  1  0  0  0  0
  2  5  2  0  0  0  0
  2  6  1  0  0  0  0
  3  7  2  0  0  0  0
  3  8  1  0  0  0  0
  4  9  1  0  0  0  0
  4 10  2  0  0  0  0
  5 11  1  0  0  0  0
  5 12  1  0  0  0  0
  6 13  1  0  0  0  0
  6 14  2  0  0  0  0
  7 15  1  0  0  0  0
  7 11  1  0  0  0  0
  8 16  1  0  0  0  0
  8 17  2  0  0  0  0
  9 18  2  0  0  0  0
 10 19  1  0  0  0  0
 12 20  1  0  0  0  0
 13 20  1  0  0  0  0
 15 21  1  0  0  0  0
 16 21  1  0  0  0  0
 18 22  1  0  0  0  0
 18 23  1  0  0  0  0
 19 24  1  0  0  0  0
 19 22  2  0  0  0  0
 22 25  1  0  0  0  0
 23 26  1  0  0  0  0
 25 27  1  0  0  0  0
 26 28  1  0  0  0  0
 27 29  1  0  0  0  0
 29 30  3  0  0  0  0
M  END
> <CdId>
288

> <Mol Weight>
425.905

> <Formula>
C24H24ClNO4

> <Click_ID>
CLK004_E09 __ __ 

$$$$
