CLK011_B11
 OpenBabel03181417022D

 29 31  0  0  0  0  0  0  0  0999 V2000
    6.6273   -1.3147    0.0000 N    0  0  0  0  0  0  0  0  0  0  0  0
    6.2903   -2.0718    0.0000 C    0  0  0  0  0  0  0  0  0  0  0  0
    6.0074   -0.7655    0.0000 C    0  0  0  0  0  0  0  0  0  0  0  0
    5.2960   -1.1774    0.0000 C    0  0  0  0  0  0  0  0  0  0  0  0
    5.4708   -1.9886    0.0000 S    0  0  0  0  0  0  0  0  0  0  0  0
    4.5430   -0.8404    0.0000 C    0  0  0  0  0  0  0  0  0  0  0  0
    2.5378   -2.3089    0.0000 C    0  0  0  0  0  0  0  0  0  0  0  0
    2.4504   -1.4852    0.0000 C    0  0  0  0  0  0  0  0  0  0  0  0
    3.2991   -2.6376    0.0000 C    0  0  0  0  0  0  0  0  0  0  0  0
    3.8732   -1.3354    0.0000 C    0  0  0  0  0  0  0  0  0  0  0  0
    7.4303   -1.1482    0.0000 C    0  0  0  0  0  0  0  0  0  0  0  0
    1.3022   -4.1062    0.0000 C    0  0  0  0  0  0  0  0  0  0  0  0
    0.6365   -4.5846    0.0000 C    0  0  0  0  0  0  0  0  0  0  0  0
    6.7064   -2.7874    0.0000 O    0  0  0  0  0  0  0  0  0  0  0  0
    6.0948    0.0582    0.0000 O    0  0  0  0  0  0  0  0  0  0  0  0
    3.1202   -0.9985    0.0000 C    0  0  0  0  0  0  0  0  0  0  0  0
    3.9606   -2.1509    0.0000 C    0  0  0  0  0  0  0  0  0  0  0  0
    1.7016   -1.1482    0.0000 Cl   0  0  0  0  0  0  0  0  0  0  0  0
    7.6799   -0.3619    0.0000 C    0  0  0  0  0  0  0  0  0  0  0  0
    1.8763   -2.7999    0.0000 O    0  0  0  0  0  0  0  0  0  0  0  0
    3.3865   -3.4489    0.0000 O    0  0  0  0  0  0  0  0  0  0  0  0
    8.1916    1.2064    0.0000 C    0  0  0  0  0  0  0  0  0  0  0  0
    8.4537    1.9844    0.0000 F    0  0  0  0  0  0  0  0  0  0  0  0
    7.1307    0.2454    0.0000 C    0  0  0  0  0  0  0  0  0  0  0  0
    8.4911   -0.1914    0.0000 C    0  0  0  0  0  0  0  0  0  0  0  0
    7.3886    1.0317    0.0000 C    0  0  0  0  0  0  0  0  0  0  0  0
    8.7407    0.5866    0.0000 C    0  0  0  0  0  0  0  0  0  0  0  0
    1.9637   -3.6111    0.0000 C    0  0  0  0  0  0  0  0  0  0  0  0
    4.1436   -3.7859    0.0000 C    0  0  0  0  0  0  0  0  0  0  0  0
  2  1  1  0  0  0  0
  3  1  1  0  0  0  0
  4  3  1  0  0  0  0
  5  2  1  0  0  0  0
  5  4  1  0  0  0  0
  6  4  2  0  0  0  0
  7  9  1  0  0  0  0
  7  8  2  0  0  0  0
  8 16  1  0  0  0  0
  9 17  2  0  0  0  0
 10  6  1  0  0  0  0
 11  1  1  0  0  0  0
 12 28  1  0  0  0  0
 13 12  3  0  0  0  0
 14  2  2  0  0  0  0
 15  3  2  0  0  0  0
 16 10  2  0  0  0  0
 17 10  1  0  0  0  0
 18  8  1  0  0  0  0
 19 11  1  0  0  0  0
 20  7  1  0  0  0  0
 21  9  1  0  0  0  0
 22 27  2  0  0  0  0
 22 26  1  0  0  0  0
 23 22  1  0  0  0  0
 24 19  1  0  0  0  0
 25 19  2  0  0  0  0
 26 24  2  0  0  0  0
 27 25  1  0  0  0  0
 28 20  1  0  0  0  0
 29 21  1  0  0  0  0
M  END
> <CdId>
776

> <Mol Weight>
431.865

> <Formula>
C21H15ClFNO4S

> <Click_ID>
CLK011_B11 __ __ 

$$$$
