CLK028_B08
 OpenBabel03181417022D

 18 19  0  0  0  0  0  0  0  0999 V2000
    0.0582   -0.4386    0.0000 O   0  0  0  0  0  0  0  0  0  0  0  0
    0.7094    0.0377    0.0000 C   0  0  0  0  0  0  0  0  0  0  0  0
    1.3811   -0.4592    0.0000 N   0  0  0  0  0  0  0  0  0  0  0  0
   -0.7128    2.4914    0.0000 N   0  3  0  0  0  0  0  0  0  0  0  0
    1.1377   -1.2371    0.0000 N   0  0  0  0  0  0  0  0  0  0  0  0
    0.3187   -1.2371    0.0000 C   0  0  0  0  0  0  0  0  0  0  0  0
   -0.0035    2.0835    0.0000 C   0  0  0  0  0  0  0  0  0  0  0  0
    0.7094    0.8567    0.0000 C   0  0  0  0  0  0  0  0  0  0  0  0
   -0.3222   -3.3172    0.0000 C   0  0  0  0  0  0  0  0  0  0  0  0
   -0.0035    1.2748    0.0000 C   0  0  0  0  0  0  0  0  0  0  0  0
   -1.1411   -3.2349    0.0000 C   0  0  0  0  0  0  0  0  0  0  0  0
   -0.7162    3.3172    0.0000 O   0  5  0  0  0  0  0  0  0  0  0  0
   -1.4290    2.0835    0.0000 O   0  0  0  0  0  0  0  0  0  0  0  0
   -0.1679   -1.9019    0.0000 S   0  0  0  0  0  0  0  0  0  0  0  0
    0.1679   -2.6524    0.0000 C   0  0  0  0  0  0  0  0  0  0  0  0
    0.7094    2.5050    0.0000 C   0  0  0  0  0  0  0  0  0  0  0  0
    1.4255    1.2748    0.0000 C   0  0  0  0  0  0  0  0  0  0  0  0
    1.4255    2.0835    0.0000 C   0  0  0  0  0  0  0  0  0  0  0  0
  2  1  1  0  0  0  0
  3  2  2  0  0  0  0
  3  5  1  0  0  0  0
  4  7  1  0  0  0  0
  5  6  2  0  0  0  0
  6  1  1  0  0  0  0
  7 10  2  0  0  0  0
  7 16  1  0  0  0  0
  8  2  1  0  0  0  0
  9 15  1  0  0  0  0
 10  8  1  0  0  0  0
 11  9  3  0  0  0  0
 12  4  1  0  0  0  0
 13  4  2  0  0  0  0
 14  6  1  0  0  0  0
 15 14  1  0  0  0  0
 16 18  2  0  0  0  0
 17  8  2  0  0  0  0
 18 17  1  0  0  0  0
M  END
> <CdId>
2102

> <Mol Weight>
261.257

> <Formula>
C11H7N3O3S

> <Click_ID>
CLK028_B08 __ __ 

$$$$
