CLK025_F11
 OpenBabel03181417022D

 24 25  0  0  0  0  0  0  0  0999 V2000
   -1.4074   -1.5104    0.0000 N   0  0  0  0  0  0  0  0  0  0  0  0
   -1.3284   -2.3342    0.0000 C   0  0  0  0  0  0  0  0  0  0  0  0
   -0.6556   -1.1705    0.0000 C   0  0  0  0  0  0  0  0  0  0  0  0
   -0.0995   -1.7850    0.0000 C   0  0  0  0  0  0  0  0  0  0  0  0
   -0.5184   -2.5024    0.0000 S   0  0  0  0  0  0  0  0  0  0  0  0
    0.7140   -1.6992    0.0000 C   0  0  0  0  0  0  0  0  0  0  0  0
   -2.1317   -1.0951    0.0000 C   0  0  0  0  0  0  0  0  0  0  0  0
    3.2198    2.1523    0.0000 C   0  0  0  0  0  0  0  0  0  0  0  0
    3.5597    2.8903    0.0000 C   0  0  0  0  0  0  0  0  0  0  0  0
   -2.8491   -1.5104    0.0000 C   0  0  0  0  0  0  0  0  0  0  0  0
   -1.9429   -2.8869    0.0000 O   0  0  0  0  0  0  0  0  0  0  0  0
    0.9028    0.4772    0.0000 C   0  0  0  0  0  0  0  0  0  0  0  0
   -0.4875   -0.3639    0.0000 O   0  0  0  0  0  0  0  0  0  0  0  0
    1.0539   -0.9440    0.0000 C   0  0  0  0  0  0  0  0  0  0  0  0
    0.5664   -0.2815    0.0000 C   0  0  0  0  0  0  0  0  0  0  0  0
    1.7198    0.5596    0.0000 C   0  0  0  0  0  0  0  0  0  0  0  0
   -2.8491   -2.3377    0.0000 O   0  0  0  0  0  0  0  0  0  0  0  0
    2.1969   -0.1064    0.0000 C   0  0  0  0  0  0  0  0  0  0  0  0
    1.8571   -0.8582    0.0000 C   0  0  0  0  0  0  0  0  0  0  0  0
   -3.5631   -1.0951    0.0000 O   0  0  0  0  0  0  0  0  0  0  0  0
    0.4257    1.1362    0.0000 O   0  0  0  0  0  0  0  0  0  0  0  0
    2.0596    1.3113    0.0000 O   0  0  0  0  0  0  0  0  0  0  0  0
    2.8731    1.4005    0.0000 C   0  0  0  0  0  0  0  0  0  0  0  0
   -0.3879    1.0539    0.0000 C   0  0  0  0  0  0  0  0  0  0  0  0
  2  1  1  0  0  0  0
  3  1  1  0  0  0  0
  4  3  1  0  0  0  0
  4  5  1  0  0  0  0
  5  2  1  0  0  0  0
  6  4  2  0  0  0  0
  7  1  1  0  0  0  0
  8 23  1  0  0  0  0
  9  8  3  0  0  0  0
 10  7  1  0  0  0  0
 11  2  2  0  0  0  0
 12 15  1  0  0  0  0
 13  3  2  0  0  0  0
 14  6  1  0  0  0  0
 15 14  2  0  0  0  0
 16 18  1  0  0  0  0
 16 12  2  0  0  0  0
 17 10  2  0  0  0  0
 18 19  2  0  0  0  0
 19 14  1  0  0  0  0
 20 10  1  0  0  0  0
 21 12  1  0  0  0  0
 22 16  1  0  0  0  0
 23 22  1  0  0  0  0
 24 21  1  0  0  0  0
M  END
> <CdId>
1916

> <Mol Weight>
347.343

> <Formula>
C16H13NO6S

> <Click_ID>
CLK025_F11 __ __ 

$$$$
