CLK020_G10
 OpenBabel03181417022D

 29 31  0  0  0  0  0  0  0  0999 V2000
   -2.0656    0.6442    0.0000 N   0  0  0  0  0  0  0  0  0  0  0  0
   -2.8803    0.7731    0.0000 C   0  0  0  0  0  0  0  0  0  0  0  0
   -1.6916    1.3798    0.0000 C   0  0  0  0  0  0  0  0  0  0  0  0
   -2.2776    1.9576    0.0000 C   0  0  0  0  0  0  0  0  0  0  0  0
   -3.0133    1.5918    0.0000 S   0  0  0  0  0  0  0  0  0  0  0  0
   -1.6916   -0.0873    0.0000 C   0  0  0  0  0  0  0  0  0  0  0  0
   -2.1446    2.7764    0.0000 C   0  0  0  0  0  0  0  0  0  0  0  0
    0.3284   -0.8895    0.0000 C   0  0  0  0  0  0  0  0  0  0  0  0
   -3.4621    0.1870    0.0000 S   0  0  0  0  0  0  0  0  0  0  0  0
   -0.8728   -0.1247    0.0000 C   0  0  0  0  0  0  0  0  0  0  0  0
    0.4281    5.2910    0.0000 C   0  0  0  0  0  0  0  0  0  0  0  0
   -0.4946   -0.8521    0.0000 C   0  0  0  0  0  0  0  0  0  0  0  0
   -0.2078    5.8146    0.0000 C   0  0  0  0  0  0  0  0  0  0  0  0
    0.0541    2.8429    0.0000 C   0  0  0  0  0  0  0  0  0  0  0  0
   -0.8811    1.5045    0.0000 O   0  0  0  0  0  0  0  0  0  0  0  0
   -1.3798    3.0756    0.0000 C   0  0  0  0  0  0  0  0  0  0  0  0
   -0.7190    2.5519    0.0000 C   0  0  0  0  0  0  0  0  0  0  0  0
    0.1870    3.6658    0.0000 C   0  0  0  0  0  0  0  0  0  0  0  0
    0.7731   -0.1995    0.0000 O   0  0  0  0  0  0  0  0  0  0  0  0
   -0.4613    4.1812    0.0000 C   0  0  0  0  0  0  0  0  0  0  0  0
    0.7024   -1.6251    0.0000 O   0  0  0  0  0  0  0  0  0  0  0  0
   -1.2427    3.8903    0.0000 C   0  0  0  0  0  0  0  0  0  0  0  0
    0.6983    2.3275    0.0000 O   0  0  0  0  0  0  0  0  0  0  0  0
   -2.1404   -0.7731    0.0000 C   0  0  0  0  0  0  0  0  0  0  0  0
    0.9601    3.9609    0.0000 O   0  0  0  0  0  0  0  0  0  0  0  0
    1.0890    4.7673    0.0000 C   0  0  0  0  0  0  0  0  0  0  0  0
   -0.9434   -1.5503    0.0000 C   0  0  0  0  0  0  0  0  0  0  0  0
   -1.7664   -1.5004    0.0000 C   0  0  0  0  0  0  0  0  0  0  0  0
    1.4755    2.6184    0.0000 C   0  0  0  0  0  0  0  0  0  0  0  0
  2  1  1  0  0  0  0
  3  1  1  0  0  0  0
  4  3  1  0  0  0  0
  5  2  1  0  0  0  0
  5  4  1  0  0  0  0
  6  1  1  0  0  0  0
  7  4  2  0  0  0  0
  8 12  1  0  0  0  0
  9  2  2  0  0  0  0
 10  6  1  0  0  0  0
 11 26  1  0  0  0  0
 12 10  2  0  0  0  0
 13 11  3  0  0  0  0
 14 17  2  0  0  0  0
 15  3  2  0  0  0  0
 16  7  1  0  0  0  0
 17 16  1  0  0  0  0
 18 20  2  0  0  0  0
 18 14  1  0  0  0  0
 19  8  2  0  0  0  0
 20 22  1  0  0  0  0
 21  8  1  0  0  0  0
 22 16  2  0  0  0  0
 23 14  1  0  0  0  0
 24  6  2  0  0  0  0
 25 18  1  0  0  0  0
 26 25  1  0  0  0  0
 27 28  2  0  0  0  0
 27 12  1  0  0  0  0
 28 24  1  0  0  0  0
 29 23  1  0  0  0  0
M  END
> <CdId>
1545

> <Mol Weight>
425.478

> <Formula>
C21H15NO5S2

> <Click_ID>
CLK020_G10 __ __ 

$$$$
