CLK002_B11
 OpenBabel03181417022D

 39 43  0  0  0  0  0  0  0  0999 V2000
   -1.0540   -0.1290    0.0000 C   0  0  0  0  0  0  0  0  0  0  0  0
   -1.0540   -0.9594    0.0000 C   0  0  0  0  0  0  0  0  0  0  0  0
   -0.2581    0.1376    0.0000 C   0  0  0  0  0  0  0  0  0  0  0  0
   -1.7767    0.2882    0.0000 C   0  0  0  0  0  0  0  0  0  0  0  0
   -0.2581   -1.1960    0.0000 C   0  0  0  0  0  0  0  0  0  0  0  0
   -1.7767   -1.3766    0.0000 C   0  0  0  0  0  0  0  0  0  0  0  0
    0.2195   -0.5377    0.0000 N   0  0  0  0  0  0  0  0  0  0  0  0
    0.0086    0.9250    0.0000 O   0  0  0  0  0  0  0  0  0  0  0  0
   -2.5038   -0.1290    0.0000 C   0  0  0  0  0  0  0  0  0  0  0  0
    0.0344   -1.9833    0.0000 O   0  0  0  0  0  0  0  0  0  0  0  0
   -2.5038   -0.9594    0.0000 C   0  0  0  0  0  0  0  0  0  0  0  0
    1.0325   -0.5377    0.0000 C   0  0  0  0  0  0  0  0  0  0  0  0
   -3.2524    0.3098    0.0000 C   0  0  0  0  0  0  0  0  0  0  0  0
    1.4412   -1.2348    0.0000 C   0  0  0  0  0  0  0  0  0  0  0  0
    1.4585    0.1634    0.0000 C   0  0  0  0  0  0  0  0  0  0  0  0
   -3.2352    1.1357    0.0000 N   0  0  0  0  0  0  0  0  0  0  0  0
   -4.0010   -0.0861    0.0000 O   0  0  0  0  0  0  0  0  0  0  0  0
    2.2715   -1.2348    0.0000 C   0  0  0  0  0  0  0  0  0  0  0  0
    2.2801    0.1462    0.0000 C   0  0  0  0  0  0  0  0  0  0  0  0
   -3.9365    1.5702    0.0000 C   0  0  0  0  0  0  0  0  0  0  0  0
    2.6759   -1.9445    0.0000 C   0  0  0  0  0  0  0  0  0  0  0  0
    2.6889   -0.5507    0.0000 C   0  0  0  0  0  0  0  0  0  0  0  0
   -3.9235    2.3833    0.0000 C   0  0  0  0  0  0  0  0  0  0  0  0
   -4.6721    1.1831    0.0000 C   0  0  0  0  0  0  0  0  0  0  0  0
    3.4847   -1.9575    0.0000 N   0  0  0  0  0  0  0  0  0  0  0  0
    2.3016   -2.6587    0.0000 O   0  0  0  0  0  0  0  0  0  0  0  0
   -4.6290    2.8308    0.0000 C   0  0  0  0  0  0  0  0  0  0  0  0
   -5.3733    1.5832    0.0000 C   0  0  0  0  0  0  0  0  0  0  0  0
    3.9020   -1.2734    0.0000 C   0  0  0  0  0  0  0  0  0  0  0  0
   -5.3561    2.4221    0.0000 C   0  0  0  0  0  0  0  0  0  0  0  0
   -4.6290    3.6395    0.0000 C   0  0  0  0  0  0  0  0  0  0  0  0
    4.7281   -1.2519    0.0000 C   0  0  0  0  0  0  0  0  0  0  0  0
    3.5277   -0.5635    0.0000 C   0  0  0  0  0  0  0  0  0  0  0  0
   -3.9365    4.0310    0.0000 C   0  0  0  0  0  0  0  0  0  0  0  0
    5.1410   -0.5635    0.0000 C   0  0  0  0  0  0  0  0  0  0  0  0
    3.9020    0.1376    0.0000 C   0  0  0  0  0  0  0  0  0  0  0  0
    4.7323    0.1462    0.0000 C   0  0  0  0  0  0  0  0  0  0  0  0
    5.9499   -0.5851    0.0000 C   0  0  0  0  0  0  0  0  0  0  0  0
    6.3241   -1.2863    0.0000 C   0  0  0  0  0  0  0  0  0  0  0  0
  1  2  2  0  0  0  0
  1  3  1  0  0  0  0
  1  4  1  0  0  0  0
  2  5  1  0  0  0  0
  2  6  1  0  0  0  0
  3  7  1  0  0  0  0
  3  8  2  0  0  0  0
  4  9  2  0  0  0  0
  5 10  2  0  0  0  0
  5  7  1  0  0  0  0
  6 11  2  0  0  0  0
  7 12  1  0  0  0  0
  9 13  1  0  0  0  0
  9 11  1  0  0  0  0
 12 14  2  0  0  0  0
 12 15  1  0  0  0  0
 13 16  1  0  0  0  0
 13 17  2  0  0  0  0
 14 18  1  0  0  0  0
 15 19  2  0  0  0  0
 16 20  1  0  0  0  0
 18 21  1  0  0  0  0
 18 22  2  0  0  0  0
 19 22  1  0  0  0  0
 20 23  2  0  0  0  0
 20 24  1  0  0  0  0
 21 25  1  0  0  0  0
 21 26  2  0  0  0  0
 23 27  1  0  0  0  0
 24 28  2  0  0  0  0
 25 29  1  0  0  0  0
 27 30  2  0  0  0  0
 27 31  1  0  0  0  0
 28 30  1  0  0  0  0
 29 32  2  0  0  0  0
 29 33  1  0  0  0  0
 31 34  3  0  0  0  0
 32 35  1  0  0  0  0
 33 36  2  0  0  0  0
 35 37  2  0  0  0  0
 35 38  1  0  0  0  0
 36 37  1  0  0  0  0
 38 39  3  0  0  0  0
M  END
> <CdId>
100

> <Mol Weight>
509.511

> <Formula>
C32H19N3O4

> <Click_ID>
CLK002_B11 __ __ 

$$$$
