CLK037G10
 OpenBabel03181417022D

 27 28  0  0  0  0  0  0  0  0999 V2000
    0.2497   -2.7762    0.0000 N   0  0  0  0  0  0  0  0  0  0  0  0
   -0.5369   -3.0300    0.0000 C   0  0  0  0  0  0  0  0  0  0  0  0
   -1.0197   -2.3641    0.0000 S   0  0  0  0  0  0  0  0  0  0  0  0
    0.2497   -1.9521    0.0000 C   0  0  0  0  0  0  0  0  0  0  0  0
   -0.5369   -1.6939    0.0000 C   0  0  3  0  0  0  0  0  0  0  0  0
   -0.7909   -0.9115    0.0000 C   0  0  0  0  0  0  0  0  0  0  0  0
   -0.2372   -0.2996    0.0000 C   0  0  0  0  0  0  0  0  0  0  0  0
    0.0999    3.2757    0.0000 C   0  0  0  0  0  0  0  0  0  0  0  0
   -0.7909   -3.8125    0.0000 N   0  0  0  0  0  0  0  0  0  0  0  0
    0.9490    5.2817    0.0000 C   0  0  0  0  0  0  0  0  0  0  0  0
    1.4983    5.8936    0.0000 C   0  0  0  0  0  0  0  0  0  0  0  0
    0.3538    2.4931    0.0000 C   0  0  0  0  0  0  0  0  0  0  0  0
   -0.4952    0.4827    0.0000 N   0  0  0  0  0  0  0  0  0  0  0  0
    0.9157   -1.4651    0.0000 O   0  0  0  0  0  0  0  0  0  0  0  0
   -0.1956    1.8812    0.0000 C   0  0  0  0  0  0  0  0  0  0  0  0
    0.0582    1.0988    0.0000 C   0  0  0  0  0  0  0  0  0  0  0  0
    0.5660   -0.4702    0.0000 O   0  0  0  0  0  0  0  0  0  0  0  0
   -0.7076    3.4463    0.0000 O   0  0  0  0  0  0  0  0  0  0  0  0
    0.6535    3.8874    0.0000 N   0  0  0  0  0  0  0  0  0  0  0  0
    0.3953    4.6699    0.0000 C   0  0  0  0  0  0  0  0  0  0  0  0
    1.1612    2.3225    0.0000 C   0  0  0  0  0  0  0  0  0  0  0  0
    1.4151    1.5400    0.0000 C   0  0  0  0  0  0  0  0  0  0  0  0
   -0.2372   -4.4244    0.0000 C   0  0  0  0  0  0  0  0  0  0  0  0
   -1.5982   -3.9831    0.0000 C   0  0  0  0  0  0  0  0  0  0  0  0
    0.8658    0.9240    0.0000 C   0  0  0  0  0  0  0  0  0  0  0  0
   -1.8521   -4.7698    0.0000 C   0  0  0  0  0  0  0  0  0  0  0  0
   -0.4952   -5.2068    0.0000 C   0  0  0  0  0  0  0  0  0  0  0  0
  2  1  2  0  0  0  0
  3  2  1  0  0  0  0
  3  5  1  0  0  0  0
  4  1  1  0  0  0  0
  5  4  1  0  0  0  0
  6  5  1  0  0  0  0
  7  6  1  0  0  0  0
  8 12  1  0  0  0  0
  9  2  1  0  0  0  0
 10 20  1  0  0  0  0
 11 10  3  0  0  0  0
 12 15  1  0  0  0  0
 13  7  1  0  0  0  0
 14  4  2  0  0  0  0
 15 16  2  0  0  0  0
 16 13  1  0  0  0  0
 17  7  2  0  0  0  0
 18  8  2  0  0  0  0
 19  8  1  0  0  0  0
 20 19  1  0  0  0  0
 21 12  2  0  0  0  0
 21 22  1  0  0  0  0
 22 25  2  0  0  0  0
 23  9  1  0  0  0  0
 24  9  1  0  0  0  0
 25 16  1  0  0  0  0
 26 24  1  0  0  0  0
 27 23  1  0  0  0  0
M  END
> <CdId>
2839

> <Mol Weight>
386.468

> <Formula>
C19H22N4O3S

> <Click_ID>
CLK037G10 __ __ 

$$$$
