CLK020_G07
 OpenBabel03181417022D

 18 19  0  0  0  0  0  0  0  0999 V2000
    4.2390   -2.4884    0.0000 C   0  0  0  0  0  0  0  0  0  0  0  0
    3.8357   -1.7644    0.0000 C   0  0  0  0  0  0  0  0  0  0  0  0
    4.2207   -3.9091    0.0000 N   0  0  0  0  0  0  0  0  0  0  0  0
    5.0593   -2.4930    0.0000 C   0  0  0  0  0  0  0  0  0  0  0  0
    5.4626   -3.2171    0.0000 O   0  0  0  0  0  0  0  0  0  0  0  0
    3.8128   -3.1942    0.0000 C   0  0  0  0  0  0  0  0  0  0  0  0
    3.0108   -1.7506    0.0000 C   0  0  0  0  0  0  0  0  0  0  0  0
    3.0567    1.0998    0.0000 C   0  0  0  0  0  0  0  0  0  0  0  0
    2.6534    1.8239    0.0000 C   0  0  0  0  0  0  0  0  0  0  0  0
    5.4764   -1.7873    0.0000 O   0  0  0  0  0  0  0  0  0  0  0  0
    2.6121   -1.0357    0.0000 C   0  0  0  0  0  0  0  0  0  0  0  0
    3.0292   -0.3208    0.0000 O   0  0  0  0  0  0  0  0  0  0  0  0
    2.6305    0.3941    0.0000 C   0  0  0  0  0  0  0  0  0  0  0  0
    2.9880   -3.1804    0.0000 C   0  0  0  0  0  0  0  0  0  0  0  0
    2.5893   -2.4655    0.0000 C   0  0  0  0  0  0  0  0  0  0  0  0
    1.7873   -1.0220    0.0000 C   0  0  0  0  0  0  0  0  0  0  0  0
    1.7644   -2.4518    0.0000 C   0  0  0  0  0  0  0  0  0  0  0  0
    1.3657   -1.7323    0.0000 C   0  0  0  0  0  0  0  0  0  0  0  0
  2  1  2  0  0  0  0
  3  6  2  0  0  0  0
  3  5  1  0  0  0  0
  4  1  1  0  0  0  0
  5  4  1  0  0  0  0
  6  1  1  0  0  0  0
  7  2  1  0  0  0  0
  8 13  1  0  0  0  0
  9  8  3  0  0  0  0
 10  4  2  0  0  0  0
 11  7  1  0  0  0  0
 12 11  1  0  0  0  0
 13 12  1  0  0  0  0
 14  6  1  0  0  0  0
 15  7  2  0  0  0  0
 16 11  2  0  0  0  0
 16 18  1  0  0  0  0
 17 15  1  0  0  0  0
 18 17  2  0  0  0  0
M  END
> <CdId>
1542

> <Mol Weight>
241.242

> <Formula>
C14H11NO3

> <Click_ID>
CLK020_G07 __ __ 

$$$$
