CLK019_D08
 OpenBabel03181417022D

 21 22  0  0  0  0  0  0  0  0999 V2000
   -2.0865   -0.9288    0.0000 C    0  0  0  0  0  0  0  0  0  0  0  0
   -1.6742   -0.2166    0.0000 C    0  0  0  0  0  0  0  0  0  0  0  0
   -2.9194   -0.9288    0.0000 C    0  0  0  0  0  0  0  0  0  0  0  0
   -3.7440   -0.9246    0.0000 N    0  0  0  0  0  0  0  0  0  0  0  0
    1.9491    2.0573    0.0000 C    0  0  0  0  0  0  0  0  0  0  0  0
    2.7737    2.0948    0.0000 C    0  0  0  0  0  0  0  0  0  0  0  0
   -1.6825   -1.6409    0.0000 C    0  0  0  0  0  0  0  0  0  0  0  0
   -0.8496   -0.1916    0.0000 C    0  0  0  0  0  0  0  0  0  0  0  0
   -2.0948   -2.3531    0.0000 C    0  0  0  0  0  0  0  0  0  0  0  0
   -0.8496   -1.6534    0.0000 C    0  0  0  0  0  0  0  0  0  0  0  0
   -0.4706    0.5330    0.0000 C    0  0  0  0  0  0  0  0  0  0  0  0
   -0.8621   -3.0777    0.0000 C    0  0  0  0  0  0  0  0  0  0  0  0
   -0.4456   -2.3656    0.0000 C    0  0  0  0  0  0  0  0  0  0  0  0
   -1.6950   -3.0735    0.0000 C    0  0  0  0  0  0  0  0  0  0  0  0
    0.3540    0.5705    0.0000 C    0  0  0  0  0  0  0  0  0  0  0  0
   -0.4623   -3.8024    0.0000 Cl   0  0  0  0  0  0  0  0  0  0  0  0
    1.5660    1.3327    0.0000 C    0  0  0  0  0  0  0  0  0  0  0  0
    0.7413    1.2952    0.0000 O    0  0  0  0  0  0  0  0  0  0  0  0
    0.4123   -0.8663    0.0000 C    0  0  0  0  0  0  0  0  0  0  0  0
   -0.4123   -0.8913    0.0000 C    0  0  0  0  0  0  0  0  0  0  0  0
    0.7996   -0.1291    0.0000 C    0  0  0  0  0  0  0  0  0  0  0  0
  2  1  2  0  0  0  0
  3  1  1  0  0  0  0
  4  3  3  0  0  0  0
  5 17  1  0  0  0  0
  6  5  3  0  0  0  0
  7  1  1  0  0  0  0
  8  2  1  0  0  0  0
  9  7  2  0  0  0  0
 10  7  1  0  0  0  0
 11  8  1  0  0  0  0
 12 13  1  0  0  0  0
 12 14  2  0  0  0  0
 13 10  2  0  0  0  0
 14  9  1  0  0  0  0
 15 11  2  0  0  0  0
 16 12  1  0  0  0  0
 17 18  1  0  0  0  0
 18 15  1  0  0  0  0
 19 20  1  0  0  0  0
 20  8  2  0  0  0  0
 21 19  2  0  0  0  0
 21 15  1  0  0  0  0
M  END
> <CdId>
1433

> <Mol Weight>
293.747

> <Formula>
C18H12ClNO

> <Click_ID>
CLK019_D08 __ __ 

$$$$
