CLK003_H10
 OpenBabel03181417022D

 16 16  0  0  0  0  0  0  0  0999 V2000
   -0.6142   -0.1525    0.0000 C   0  0  0  0  0  0  0  0  0  0  0  0
   -1.3275    0.2479    0.0000 C   0  0  0  0  0  0  0  0  0  0  0  0
    0.1106    0.2823    0.0000 C   0  0  0  0  0  0  0  0  0  0  0  0
   -0.6142   -0.9842    0.0000 C   0  0  0  0  0  0  0  0  0  0  0  0
   -2.0331   -0.1525    0.0000 C   0  0  0  0  0  0  0  0  0  0  0  0
   -0.9040    1.0910    0.0000 C   0  0  0  0  0  0  0  0  0  0  0  0
   -2.0179    0.8354    0.0000 C   0  0  0  0  0  0  0  0  0  0  0  0
    0.8239   -0.1259    0.0000 C   0  0  0  0  0  0  0  0  0  0  0  0
   -1.3275   -1.3770    0.0000 C   0  0  0  0  0  0  0  0  0  0  0  0
    0.0916   -1.4114    0.0000 C   0  0  0  0  0  0  0  0  0  0  0  0
   -2.0331   -0.9842    0.0000 C   0  0  0  0  0  0  0  0  0  0  0  0
    1.5487    0.2823    0.0000 C   0  0  3  0  0  0  0  0  0  0  0  0
    2.2620    0.7248    0.0000 C   0  0  0  0  0  0  0  0  0  0  0  0
    1.9493   -0.4158    0.0000 C   0  0  0  0  0  0  0  0  0  0  0  0
    1.1062    1.0070    0.0000 O   0  0  0  0  0  0  0  0  0  0  0  0
    2.9678    1.1329    0.0000 C   0  0  0  0  0  0  0  0  0  0  0  0
  1  2  1  0  0  0  0
  1  3  1  0  0  0  0
  1  4  2  0  0  0  0
  2  5  1  0  0  0  0
  2  6  1  0  0  0  0
  2  7  1  0  0  0  0
  3  8  1  0  0  0  0
  4  9  1  0  0  0  0
  4 10  1  0  0  0  0
  5 11  1  0  0  0  0
  8 12  1  0  0  0  0
  9 11  1  0  0  0  0
 12 13  1  0  0  0  0
 12 14  1  0  0  0  0
 12 15  1  0  0  0  0
 13 16  3  0  0  0  0
M  END
> <CdId>
239

> <Mol Weight>
220.3505

> <Formula>
C15H24O

> <Click_ID>
CLK003_H10 __ __ 

$$$$
