CLK008_A04
 OpenBabel03181417022D

 29 32  0  0  0  0  0  0  0  0999 V2000
   -0.2516   -2.3648    0.0000 C   0  0  0  0  0  0  0  0  0  0  0  0
   -0.2585   -1.5306    0.0000 C   0  0  0  0  0  0  0  0  0  0  0  0
    0.4620   -2.7785    0.0000 C   0  0  0  0  0  0  0  0  0  0  0  0
   -0.9721   -2.7785    0.0000 C   0  0  0  0  0  0  0  0  0  0  0  0
   -0.8963   -1.0273    0.0000 N   0  0  0  0  0  0  0  0  0  0  0  0
    0.4275   -1.0825    0.0000 O   0  0  0  0  0  0  0  0  0  0  0  0
    0.4516   -3.6024    0.0000 C   0  0  0  0  0  0  0  0  0  0  0  0
    1.1721   -2.3683    0.0000 C   0  0  0  0  0  0  0  0  0  0  0  0
   -0.9721   -3.6059    0.0000 C   0  0  0  0  0  0  0  0  0  0  0  0
   -0.6032   -0.2516    0.0000 C   0  0  0  0  0  0  0  0  0  0  0  0
    0.2102   -0.2896    0.0000 C   0  0  0  0  0  0  0  0  0  0  0  0
   -0.2585   -4.0195    0.0000 C   0  0  0  0  0  0  0  0  0  0  0  0
    1.1652   -4.0195    0.0000 C   0  0  0  0  0  0  0  0  0  0  0  0
    1.8857   -2.7820    0.0000 C   0  0  0  0  0  0  0  0  0  0  0  0
   -1.0583    0.4482    0.0000 C   0  0  0  0  0  0  0  0  0  0  0  0
    0.7239    0.3689    0.0000 O   0  0  0  0  0  0  0  0  0  0  0  0
    1.8857   -3.6059    0.0000 C   0  0  0  0  0  0  0  0  0  0  0  0
   -0.6757    1.1825    0.0000 C   0  0  0  0  0  0  0  0  0  0  0  0
   -1.1342    1.8823    0.0000 C   0  0  0  0  0  0  0  0  0  0  0  0
    0.1414    1.2341    0.0000 C   0  0  0  0  0  0  0  0  0  0  0  0
   -0.7584    2.6199    0.0000 C   0  0  0  0  0  0  0  0  0  0  0  0
    0.5239    1.9684    0.0000 C   0  0  0  0  0  0  0  0  0  0  0  0
    0.0655    2.6682    0.0000 C   0  0  0  0  0  0  0  0  0  0  0  0
   -1.2099    3.3024    0.0000 O   0  0  0  0  0  0  0  0  0  0  0  0
    0.4413    3.4024    0.0000 O   0  0  0  0  0  0  0  0  0  0  0  0
   -2.0339    3.2612    0.0000 C   0  0  0  0  0  0  0  0  0  0  0  0
   -0.0103    4.0919    0.0000 C   0  0  0  0  0  0  0  0  0  0  0  0
    0.3654    4.8193    0.0000 C   0  0  0  0  0  0  0  0  0  0  0  0
    1.1894    4.8607    0.0000 C   0  0  0  0  0  0  0  0  0  0  0  0
  1  2  1  0  0  0  0
  1  3  1  0  0  0  0
  1  4  2  0  0  0  0
  2  5  2  0  0  0  0
  2  6  1  0  0  0  0
  3  7  1  0  0  0  0
  3  8  2  0  0  0  0
  4  9  1  0  0  0  0
  5 10  1  0  0  0  0
  6 11  1  0  0  0  0
  7 12  1  0  0  0  0
  7 13  2  0  0  0  0
  8 14  1  0  0  0  0
  9 12  2  0  0  0  0
 10 15  2  0  0  0  0
 10 11  1  0  0  0  0
 11 16  2  0  0  0  0
 13 17  1  0  0  0  0
 14 17  2  0  0  0  0
 15 18  1  0  0  0  0
 18 19  1  0  0  0  0
 18 20  2  0  0  0  0
 19 21  2  0  0  0  0
 20 22  1  0  0  0  0
 21 23  1  0  0  0  0
 21 24  1  0  0  0  0
 22 23  2  0  0  0  0
 23 25  1  0  0  0  0
 24 26  1  0  0  0  0
 25 27  1  0  0  0  0
 27 28  1  0  0  0  0
 28 29  3  0  0  0  0
M  END
> <CdId>
563

> <Mol Weight>
383.3961

> <Formula>
C24H17NO4

> <Click_ID>
CLK008_A04 __ __ 

$$$$
