CLK012_D02
 OpenBabel03181417022D

 22 23  0  0  0  0  0  0  0  0999 V2000
    1.5629   -0.8147    0.0000 N   0  0  0  0  0  0  0  0  0  0  0  0
    1.8205   -1.6003    0.0000 C   0  0  0  0  0  0  0  0  0  0  0  0
    2.2320   -0.3284    0.0000 C   0  0  0  0  0  0  0  0  0  0  0  0
    2.6435   -1.6003    0.0000 S   0  0  0  0  0  0  0  0  0  0  0  0
    2.8971   -0.8147    0.0000 C   0  0  0  0  0  0  0  0  0  0  0  0
    0.6110    0.2452    0.0000 C   0  0  0  0  0  0  0  0  0  0  0  0
    0.3907    1.0432    0.0000 C   0  0  0  0  0  0  0  0  0  0  0  0
    3.6827   -0.5611    0.0000 C   0  0  0  0  0  0  0  0  0  0  0  0
    1.3342   -2.2611    0.0000 O   0  0  0  0  0  0  0  0  0  0  0  0
    2.2237    0.4946    0.0000 O   0  0  0  0  0  0  0  0  0  0  0  0
    3.8530    0.2452    0.0000 C   0  0  0  0  0  0  0  0  0  0  0  0
    0.7856   -0.5611    0.0000 C   0  0  0  0  0  0  0  0  0  0  0  0
    5.1623    2.9136    0.0000 C   0  0  0  0  0  0  0  0  0  0  0  0
    5.3369    3.7241    0.0000 N   0  0  0  0  0  0  0  0  0  0  0  0
    4.6428    0.4946    0.0000 C   0  0  0  0  0  0  0  0  0  0  0  0
    5.7650    2.3650    0.0000 C   0  0  0  0  0  0  0  0  0  0  0  0
    4.3767    2.6643    0.0000 C   0  0  0  0  0  0  0  0  0  0  0  0
    4.8132    1.3051    0.0000 C   0  0  0  0  0  0  0  0  0  0  0  0
    4.2064    1.8537    0.0000 C   0  0  0  0  0  0  0  0  0  0  0  0
    5.5987    1.5545    0.0000 C   0  0  0  0  0  0  0  0  0  0  0  0
    6.1142    3.9735    0.0000 C   0  0  0  0  0  0  0  0  0  0  0  0
    4.7176    4.2687    0.0000 C   0  0  0  0  0  0  0  0  0  0  0  0
  2  1  1  0  0  0  0
  3  1  1  0  0  0  0
  4  2  1  0  0  0  0
  4  5  1  0  0  0  0
  5  3  1  0  0  0  0
  6 12  1  0  0  0  0
  7  6  3  0  0  0  0
  8  5  2  0  0  0  0
  9  2  2  0  0  0  0
 10  3  2  0  0  0  0
 11  8  1  0  0  0  0
 12  1  1  0  0  0  0
 13 16  1  0  0  0  0
 14 13  1  0  0  0  0
 15 11  2  0  0  0  0
 16 20  2  0  0  0  0
 17 19  1  0  0  0  0
 17 13  2  0  0  0  0
 18 15  1  0  0  0  0
 19 18  2  0  0  0  0
 20 18  1  0  0  0  0
 21 14  1  0  0  0  0
 22 14  1  0  0  0  0
M  END
> <CdId>
867

> <Mol Weight>
312.386

> <Formula>
C17H16N2O2S

> <Click_ID>
CLK012_D02 __ __ 

$$$$
