CLK023_B07
 OpenBabel03181417022D

 26 27  0  0  0  0  0  0  0  0999 V2000
    1.4306    1.4582    0.0000 N   0  0  0  0  0  0  0  0  0  0  0  0
    1.4238    0.6397    0.0000 C   0  0  0  0  0  0  0  0  0  0  0  0
    0.6397    1.7195    0.0000 C   0  0  0  0  0  0  0  0  0  0  0  0
    0.1444    1.0524    0.0000 C   0  0  0  0  0  0  0  0  0  0  0  0
    0.6328    0.3783    0.0000 S   0  0  0  0  0  0  0  0  0  0  0  0
   -1.9156   -1.0902    0.0000 C   0  0  0  0  0  0  0  0  0  0  0  0
   -1.0971   -1.0868    0.0000 C   0  0  0  0  0  0  0  0  0  0  0  0
   -2.3283   -0.3749    0.0000 C   0  0  0  0  0  0  0  0  0  0  0  0
   -0.6809    1.0524    0.0000 C   0  0  0  0  0  0  0  0  0  0  0  0
   -1.0971    0.3370    0.0000 C   0  0  0  0  0  0  0  0  0  0  0  0
    2.8579    1.6060    0.0000 C   0  0  0  0  0  0  0  0  0  0  0  0
    3.5629    1.1900    0.0000 C   0  0  0  0  0  0  0  0  0  0  0  0
   -0.6809   -1.7987    0.0000 C   0  0  0  0  0  0  0  0  0  0  0  0
   -3.1536   -0.3749    0.0000 C   0  0  0  0  0  0  0  0  0  0  0  0
   -1.9225    0.3370    0.0000 C   0  0  0  0  0  0  0  0  0  0  0  0
   -0.6809   -0.3714    0.0000 C   0  0  0  0  0  0  0  0  0  0  0  0
    2.0944    0.1376    0.0000 O   0  0  0  0  0  0  0  0  0  0  0  0
    0.3817    2.5174    0.0000 O   0  0  0  0  0  0  0  0  0  0  0  0
    2.0979    1.9465    0.0000 C   0  0  0  0  0  0  0  0  0  0  0  0
   -2.3249   -1.8055    0.0000 O   0  0  0  0  0  0  0  0  0  0  0  0
    0.1444   -1.7918    0.0000 C   0  0  0  0  0  0  0  0  0  0  0  0
   -1.4719   -2.0119    0.0000 C   0  0  0  0  0  0  0  0  0  0  0  0
   -1.0868   -2.5140    0.0000 C   0  0  0  0  0  0  0  0  0  0  0  0
   -3.5663    0.3302    0.0000 C   0  0  0  0  0  0  0  0  0  0  0  0
   -3.5629   -1.0902    0.0000 C   0  0  0  0  0  0  0  0  0  0  0  0
   -2.9508    0.4127    0.0000 C   0  0  0  0  0  0  0  0  0  0  0  0
  2  1  1  0  0  0  0
  3  1  1  0  0  0  0
  4  3  1  0  0  0  0
  5  2  1  0  0  0  0
  5  4  1  0  0  0  0
  6  7  1  0  0  0  0
  7 16  2  0  0  0  0
  8 15  1  0  0  0  0
  8  6  2  0  0  0  0
  9  4  2  0  0  0  0
 10  9  1  0  0  0  0
 11 19  1  0  0  0  0
 12 11  3  0  0  0  0
 13  7  1  0  0  0  0
 14  8  1  0  0  0  0
 15 10  2  0  0  0  0
 16 10  1  0  0  0  0
 17  2  2  0  0  0  0
 18  3  2  0  0  0  0
 19  1  1  0  0  0  0
 20  6  1  0  0  0  0
 21 13  1  0  0  0  0
 22 13  1  0  0  0  0
 23 13  1  0  0  0  0
 24 14  1  0  0  0  0
 25 14  1  0  0  0  0
 26 14  1  0  0  0  0
M  END
> <CdId>
1712

> <Mol Weight>
371.493

> <Formula>
C21H25NO3S

> <Click_ID>
CLK023_B07 __ __ 

$$$$
