CLK001_F09
 OpenBabel03181417022D

 25 27  0  0  0  0  0  0  0  0999 V2000
    1.5095    0.8065    0.0000 C   0  0  0  0  0  0  0  0  0  0  0  0
    0.9857    0.1689    0.0000 C   0  0  0  0  0  0  0  0  0  0  0  0
    1.0580    1.5061    0.0000 C   0  0  0  0  0  0  0  0  0  0  0  0
    2.3332    0.8478    0.0000 C   0  0  0  0  0  0  0  0  0  0  0  0
    0.2206    0.4584    0.0000 C   0  0  0  0  0  0  0  0  0  0  0  0
    1.2096   -0.6307    0.0000 C   0  0  0  0  0  0  0  0  0  0  0  0
    0.2620    1.2855    0.0000 N   0  0  0  0  0  0  0  0  0  0  0  0
    1.4337    2.2298    0.0000 C   0  0  0  0  0  0  0  0  0  0  0  0
    2.6985    1.5784    0.0000 C   0  0  0  0  0  0  0  0  0  0  0  0
    0.6238   -1.2200    0.0000 C   0  0  0  0  0  0  0  0  0  0  0  0
   -0.3791    1.8059    0.0000 C   0  0  0  0  0  0  0  0  0  0  0  0
    2.2505    2.2712    0.0000 C   0  0  0  0  0  0  0  0  0  0  0  0
   -0.1758   -1.0064    0.0000 C   0  0  0  0  0  0  0  0  0  0  0  0
    0.8374   -2.0127    0.0000 C   0  0  0  0  0  0  0  0  0  0  0  0
   -0.2482    2.6158    0.0000 C   0  0  0  0  0  0  0  0  0  0  0  0
   -0.7548   -1.5922    0.0000 N   0  0  0  0  0  0  0  0  0  0  0  0
   -0.3895   -0.2137    0.0000 O   0  0  0  0  0  0  0  0  0  0  0  0
    1.0511   -2.8054    0.0000 N   0  0  0  0  0  0  0  0  0  0  0  0
   -0.0759    3.4120    0.0000 C   0  0  0  0  0  0  0  0  0  0  0  0
   -1.5784   -1.5922    0.0000 C   0  0  0  0  0  0  0  0  0  0  0  0
   -1.9989   -2.3057    0.0000 C   0  0  0  0  0  0  0  0  0  0  0  0
   -1.9851   -0.8685    0.0000 C   0  0  0  0  0  0  0  0  0  0  0  0
   -2.8364   -2.3022    0.0000 C   0  0  0  0  0  0  0  0  0  0  0  0
   -2.8157   -0.8547    0.0000 C   0  0  0  0  0  0  0  0  0  0  0  0
   -3.2362   -1.5819    0.0000 C   0  0  0  0  0  0  0  0  0  0  0  0
  1  2  1  0  0  0  0
  1  3  1  0  0  0  0
  1  4  2  0  0  0  0
  2  5  2  0  0  0  0
  2  6  1  0  0  0  0
  3  7  1  0  0  0  0
  3  8  2  0  0  0  0
  4  9  1  0  0  0  0
  5  7  1  0  0  0  0
  6 10  2  0  0  0  0
  7 11  1  0  0  0  0
  8 12  1  0  0  0  0
  9 12  2  0  0  0  0
 10 13  1  0  0  0  0
 10 14  1  0  0  0  0
 11 15  1  0  0  0  0
 13 16  1  0  0  0  0
 13 17  2  0  0  0  0
 14 18  3  0  0  0  0
 15 19  3  0  0  0  0
 16 20  1  0  0  0  0
 20 21  2  0  0  0  0
 20 22  1  0  0  0  0
 21 23  1  0  0  0  0
 22 24  2  0  0  0  0
 23 25  2  0  0  0  0
 24 25  1  0  0  0  0
M  END
> <CdId>
58

> <Mol Weight>
325.3633

> <Formula>
C21H15N3O

> <Click_ID>
CLK001_F09 __ __ 

$$$$
