CLK006_D08
 OpenBabel03181417022D

 22 24  0  0  0  0  0  0  0  0999 V2000
    4.8292   -5.8792    0.0000 C   0  0  0  0  0  0  0  0  0  0  0  0
    4.3417   -5.2167    0.0000 N   0  0  0  0  0  0  0  0  0  0  0  0
    4.3417   -6.5542    0.0000 N   0  0  0  0  0  0  0  0  0  0  0  0
    3.5625   -6.3000    0.0000 C   0  0  0  0  0  0  0  0  0  0  0  0
    3.5625   -5.4750    0.0000 C   0  0  0  0  0  0  0  0  0  0  0  0
    4.0417   -7.9500    0.0000 C   0  0  0  0  0  0  0  0  0  0  0  0
    3.4917   -8.5542    0.0000 C   0  0  0  0  0  0  0  0  0  0  0  0
    5.6542   -5.8792    0.0000 C   0  0  0  0  0  0  0  0  0  0  0  0
    4.6000   -7.3417    0.0000 C   0  0  0  0  0  0  0  0  0  0  0  0
    6.0667   -5.1667    0.0000 O   0  0  0  0  0  0  0  0  0  0  0  0
    6.8917   -5.1667    0.0000 C   0  0  0  0  0  0  0  0  0  0  0  0
    8.5500   -5.1667    0.0000 C   0  0  0  0  0  0  0  0  0  0  0  0
    7.3042   -4.4458    0.0000 C   0  0  0  0  0  0  0  0  0  0  0  0
    7.3042   -5.8792    0.0000 C   0  0  0  0  0  0  0  0  0  0  0  0
    8.1375   -4.4458    0.0000 C   0  0  0  0  0  0  0  0  0  0  0  0
    8.1375   -5.8792    0.0000 C   0  0  0  0  0  0  0  0  0  0  0  0
    2.8500   -6.7125    0.0000 C   0  0  0  0  0  0  0  0  0  0  0  0
    9.3750   -5.1667    0.0000 O   0  0  0  0  0  0  0  0  0  0  0  0
    2.8500   -5.0625    0.0000 C   0  0  0  0  0  0  0  0  0  0  0  0
    9.7875   -4.4542    0.0000 C   0  0  0  0  0  0  0  0  0  0  0  0
    2.1292   -6.3000    0.0000 C   0  0  0  0  0  0  0  0  0  0  0  0
    2.1292   -5.4750    0.0000 C   0  0  0  0  0  0  0  0  0  0  0  0
  2  1  2  0  0  0  0
  3  1  1  0  0  0  0
  4  3  1  0  0  0  0
  5  2  1  0  0  0  0
  5  4  1  0  0  0  0
  6  9  1  0  0  0  0
  7  6  3  0  0  0  0
  8  1  1  0  0  0  0
  9  3  1  0  0  0  0
 10  8  1  0  0  0  0
 11 10  1  0  0  0  0
 12 16  2  0  0  0  0
 12 15  1  0  0  0  0
 13 11  1  0  0  0  0
 14 11  2  0  0  0  0
 15 13  2  0  0  0  0
 16 14  1  0  0  0  0
 17  4  2  0  0  0  0
 18 12  1  0  0  0  0
 19  5  2  0  0  0  0
 20 18  1  0  0  0  0
 21 17  1  0  0  0  0
 22 19  1  0  0  0  0
 22 21  2  0  0  0  0
M  END
> <CdId>
437

> <Mol Weight>
292.3318

> <Formula>
C18H16N2O2

> <Click_ID>
CLK006_D08 __ __ 

$$$$
