CLK014_G10
 OpenBabel03181417022D

 28 30  0  0  0  0  0  0  0  0999 V2000
    1.5667   -0.8167    0.0000 N   0  0  0  0  0  0  0  0  0  0  0  0
    1.8250   -1.6042    0.0000 C   0  0  0  0  0  0  0  0  0  0  0  0
    2.2375   -0.3292    0.0000 C   0  0  0  0  0  0  0  0  0  0  0  0
    2.9042   -0.8167    0.0000 C   0  0  0  0  0  0  0  0  0  0  0  0
    2.6500   -1.6042    0.0000 S   0  0  0  0  0  0  0  0  0  0  0  0
    3.6917   -0.5625    0.0000 C   0  0  0  0  0  0  0  0  0  0  0  0
    0.6125    0.2458    0.0000 C   0  0  0  0  0  0  0  0  0  0  0  0
    0.3917    1.0458    0.0000 C   0  0  0  0  0  0  0  0  0  0  0  0
    1.3375   -2.2667    0.0000 O   0  0  0  0  0  0  0  0  0  0  0  0
    4.8000    1.2958    0.0000 C   0  0  0  0  0  0  0  0  0  0  0  0
    2.2292    0.4958    0.0000 O   0  0  0  0  0  0  0  0  0  0  0  0
    4.1917    1.8583    0.0000 C   0  0  0  0  0  0  0  0  0  0  0  0
    3.8542    0.2458    0.0000 C   0  0  0  0  0  0  0  0  0  0  0  0
    0.7875   -0.5625    0.0000 C   0  0  0  0  0  0  0  0  0  0  0  0
    4.6292    0.4958    0.0000 C   0  0  0  0  0  0  0  0  0  0  0  0
    4.3542    2.6583    0.0000 O   0  0  0  0  0  0  0  0  0  0  0  0
    3.4167    1.5958    0.0000 C   0  0  0  0  0  0  0  0  0  0  0  0
    3.2417    0.7875    0.0000 C   0  0  0  0  0  0  0  0  0  0  0  0
    5.1375    2.9083    0.0000 C   0  0  0  0  0  0  0  0  0  0  0  0
    4.7000    4.2542    0.0000 C   0  0  0  0  0  0  0  0  0  0  0  0
    4.8667    5.0625    0.0000 C   0  0  0  0  0  0  0  0  0  0  0  0
    5.3042    3.7125    0.0000 C   0  0  0  0  0  0  0  0  0  0  0  0
    5.5875    1.5458    0.0000 O   0  0  0  0  0  0  0  0  0  0  0  0
    4.2542    5.6042    0.0000 F   0  0  0  0  0  0  0  0  0  0  0  0
    6.2667    4.7667    0.0000 C   0  0  0  0  0  0  0  0  0  0  0  0
    5.6500    5.3167    0.0000 C   0  0  0  0  0  0  0  0  0  0  0  0
    6.0917    3.9708    0.0000 C   0  0  0  0  0  0  0  0  0  0  0  0
    5.7542    2.3583    0.0000 C   0  0  0  0  0  0  0  0  0  0  0  0
  2  1  1  0  0  0  0
  3  1  1  0  0  0  0
  4  3  1  0  0  0  0
  5  2  1  0  0  0  0
  5  4  1  0  0  0  0
  6  4  2  0  0  0  0
  7 14  1  0  0  0  0
  8  7  3  0  0  0  0
  9  2  2  0  0  0  0
 10 15  1  0  0  0  0
 11  3  2  0  0  0  0
 12 17  1  0  0  0  0
 12 10  2  0  0  0  0
 13  6  1  0  0  0  0
 14  1  1  0  0  0  0
 15 13  2  0  0  0  0
 16 12  1  0  0  0  0
 17 18  2  0  0  0  0
 18 13  1  0  0  0  0
 19 16  1  0  0  0  0
 20 22  1  0  0  0  0
 21 20  2  0  0  0  0
 21 26  1  0  0  0  0
 22 19  1  0  0  0  0
 23 10  1  0  0  0  0
 24 21  1  0  0  0  0
 25 27  1  0  0  0  0
 26 25  2  0  0  0  0
 27 22  2  0  0  0  0
 28 23  1  0  0  0  0
M  END
> <CdId>
1065

> <Mol Weight>
397.419

> <Formula>
C21H16FNO4S

> <Click_ID>
CLK014_G10 __ __ 

$$$$
