CLK011_H02
 OpenBabel03181417022D

 31 33  0  0  0  0  0  0  0  0999 V2000
    2.4875   -0.6750    0.0000 N    0  0  0  0  0  0  0  0  0  0  0  0
    3.1917   -1.9042    0.0000 C    0  0  0  0  0  0  0  0  0  0  0  0
    2.4875   -1.5000    0.0000 C    0  0  0  0  0  0  0  0  0  0  0  0
    3.1917   -0.2542    0.0000 C    0  0  0  0  0  0  0  0  0  0  0  0
    3.9042   -0.6750    0.0000 N    0  0  0  0  0  0  0  0  0  0  0  0
    3.9042   -1.5000    0.0000 C    0  0  0  0  0  0  0  0  0  0  0  0
    3.1917   -2.7292    0.0000 C    0  0  0  0  0  0  0  0  0  0  0  0
    1.7667   -0.2625    0.0000 C    0  0  0  0  0  0  0  0  0  0  0  0
    3.9125   -3.1417    0.0000 C    0  0  0  0  0  0  0  0  0  0  0  0
    4.6250   -4.3792    0.0000 C    0  0  0  0  0  0  0  0  0  0  0  0
    3.9042   -3.9667    0.0000 C    0  0  0  0  0  0  0  0  0  0  0  0
    1.0542   -0.6750    0.0000 C    0  0  0  0  0  0  0  0  0  0  0  0
    5.3417   -3.9750    0.0000 C    0  0  0  0  0  0  0  0  0  0  0  0
    4.6292   -2.7292    0.0000 C    0  0  0  0  0  0  0  0  0  0  0  0
    6.7542   -5.6542    0.0000 C    0  0  0  0  0  0  0  0  0  0  0  0
    5.3500   -3.1500    0.0000 C    0  0  0  0  0  0  0  0  0  0  0  0
    3.1917    0.5708    0.0000 O    0  0  0  0  0  0  0  0  0  0  0  0
    7.4750   -6.0667    0.0000 C    0  0  0  0  0  0  0  0  0  0  0  0
    1.7667   -1.9125    0.0000 O    0  0  0  0  0  0  0  0  0  0  0  0
    0.3417   -0.2625    0.0000 C    0  0  0  0  0  0  0  0  0  0  0  0
    4.6250   -1.9125    0.0000 O    0  0  0  0  0  0  0  0  0  0  0  0
    1.7667    0.5708    0.0000 C    0  0  0  0  0  0  0  0  0  0  0  0
    0.3417    0.5708    0.0000 C    0  0  0  0  0  0  0  0  0  0  0  0
    1.0542    0.9750    0.0000 C    0  0  0  0  0  0  0  0  0  0  0  0
    3.1917   -4.3792    0.0000 Br   0  0  0  0  0  0  0  0  0  0  0  0
    6.0542   -4.4000    0.0000 O    0  0  0  0  0  0  0  0  0  0  0  0
    6.0625   -2.7500    0.0000 O    0  0  0  0  0  0  0  0  0  0  0  0
    6.0417   -5.2292    0.0000 C    0  0  0  0  0  0  0  0  0  0  0  0
   -0.3708   -0.6750    0.0000 C    0  0  0  0  0  0  0  0  0  0  0  0
   -0.3708    0.9833    0.0000 C    0  0  0  0  0  0  0  0  0  0  0  0
    6.0667   -1.9292    0.0000 C    0  0  0  0  0  0  0  0  0  0  0  0
  2  3  1  0  0  0  0
  3  1  1  0  0  0  0
  4  1  1  0  0  0  0
  5  4  1  0  0  0  0
  6  5  1  0  0  0  0
  6  2  1  0  0  0  0
  7  2  2  0  0  0  0
  8  1  1  0  0  0  0
  9  7  1  0  0  0  0
 10 11  2  0  0  0  0
 10 13  1  0  0  0  0
 11  9  1  0  0  0  0
 12  8  1  0  0  0  0
 13 16  2  0  0  0  0
 14  9  2  0  0  0  0
 15 28  1  0  0  0  0
 16 14  1  0  0  0  0
 17  4  2  0  0  0  0
 18 15  3  0  0  0  0
 19  3  2  0  0  0  0
 20 12  2  0  0  0  0
 21  6  2  0  0  0  0
 22  8  2  0  0  0  0
 23 24  2  0  0  0  0
 23 20  1  0  0  0  0
 24 22  1  0  0  0  0
 25 11  1  0  0  0  0
 26 13  1  0  0  0  0
 27 16  1  0  0  0  0
 28 26  1  0  0  0  0
 29 20  1  0  0  0  0
 30 23  1  0  0  0  0
 31 27  1  0  0  0  0
M  END
> <CdId>
827

> <Mol Weight>
483.311

> <Formula>
C23H19BrN2O5

> <Click_ID>
CLK011_H02 __ __ 

$$$$
