CLK027_E05
 OpenBabel03181417022D

 38 41  0  0  0  0  0  0  0  0999 V2000
    0.3356    0.4299    0.0000 N   0  0  0  0  0  0  0  0  0  0  0  0
    0.3356   -0.3950    0.0000 C   0  0  0  0  0  0  0  0  0  0  0  0
    1.7617    0.4299    0.0000 C   0  0  0  0  0  0  0  0  0  0  0  0
    1.0522    0.8459    0.0000 C   0  0  3  0  0  0  0  0  0  0  0  0
   -1.0941    0.4404    0.0000 C   0  0  0  0  0  0  0  0  0  0  0  0
    1.0486   -0.8039    0.0000 N   0  0  0  0  0  0  0  0  0  0  0  0
   -1.0941   -0.3845    0.0000 C   0  0  0  0  0  0  0  0  0  0  0  0
    1.7617   -0.3845    0.0000 C   0  0  0  0  0  0  0  0  0  0  0  0
   -0.3810   -0.8039    0.0000 S   0  0  0  0  0  0  0  0  0  0  0  0
    2.4748    0.8494    0.0000 C   0  0  0  0  0  0  0  0  0  0  0  0
    1.0486    1.6709    0.0000 C   0  0  0  0  0  0  0  0  0  0  0  0
   -1.8177   -0.7900    0.0000 C   0  0  0  0  0  0  0  0  0  0  0  0
    3.1914    0.4404    0.0000 O   0  0  0  0  0  0  0  0  0  0  0  0
   -2.5168   -0.3950    0.0000 C   0  0  0  0  0  0  0  0  0  0  0  0
   -3.9150   -2.9083    0.0000 C   0  0  0  0  0  0  0  0  0  0  0  0
    0.3356    2.0763    0.0000 C   0  0  0  0  0  0  0  0  0  0  0  0
   -4.6350   -3.3312    0.0000 C   0  0  0  0  0  0  0  0  0  0  0  0
    1.7617    2.0763    0.0000 C   0  0  0  0  0  0  0  0  0  0  0  0
   -1.3737    1.1395    0.0000 O   0  0  0  0  0  0  0  0  0  0  0  0
    2.4748    1.6743    0.0000 O   0  0  0  0  0  0  0  0  0  0  0  0
   -3.2124   -0.8039    0.0000 C   0  0  0  0  0  0  0  0  0  0  0  0
    0.3356    2.9083    0.0000 C   0  0  0  0  0  0  0  0  0  0  0  0
    1.7617    2.9152    0.0000 C   0  0  0  0  0  0  0  0  0  0  0  0
    2.4818   -0.8005    0.0000 C   0  0  0  0  0  0  0  0  0  0  0  0
    1.0486    3.3242    0.0000 C   0  0  0  0  0  0  0  0  0  0  0  0
   -0.3880    1.6569    0.0000 O   0  0  0  0  0  0  0  0  0  0  0  0
   -3.2019   -1.6429    0.0000 O   0  0  0  0  0  0  0  0  0  0  0  0
   -3.9255   -2.0694    0.0000 C   0  0  0  0  0  0  0  0  0  0  0  0
    2.4853    3.3347    0.0000 O   0  0  0  0  0  0  0  0  0  0  0  0
    3.9079    0.8599    0.0000 C   0  0  0  0  0  0  0  0  0  0  0  0
   -2.5168    0.4159    0.0000 C   0  0  0  0  0  0  0  0  0  0  0  0
   -3.9115   -0.4054    0.0000 C   0  0  0  0  0  0  0  0  0  0  0  0
   -1.1185    2.0763    0.0000 C   0  0  0  0  0  0  0  0  0  0  0  0
    3.2089    2.9152    0.0000 C   0  0  0  0  0  0  0  0  0  0  0  0
    3.9079    1.6953    0.0000 C   0  0  0  0  0  0  0  0  0  0  0  0
    4.6315    0.4404    0.0000 C   0  0  0  0  0  0  0  0  0  0  0  0
   -3.2158    0.8215    0.0000 C   0  0  0  0  0  0  0  0  0  0  0  0
   -3.9255    0.4054    0.0000 C   0  0  0  0  0  0  0  0  0  0  0  0
  2  1  1  0  0  0  0
  3  4  1  0  0  0  0
  4  1  1  0  0  0  0
  5  1  1  0  0  0  0
  6  2  2  0  0  0  0
  7  5  1  0  0  0  0
  8  3  2  0  0  0  0
  8  6  1  0  0  0  0
  9  2  1  0  0  0  0
  9  7  1  0  0  0  0
 10  3  1  0  0  0  0
 11  4  1  0  0  0  0
 12  7  2  0  0  0  0
 13 10  1  0  0  0  0
 14 12  1  0  0  0  0
 15 28  1  0  0  0  0
 16 11  1  0  0  0  0
 17 15  3  0  0  0  0
 18 11  2  0  0  0  0
 19  5  2  0  0  0  0
 20 10  2  0  0  0  0
 21 14  1  0  0  0  0
 22 16  2  0  0  0  0
 22 25  1  0  0  0  0
 23 18  1  0  0  0  0
 24  8  1  0  0  0  0
 25 23  2  0  0  0  0
 26 16  1  0  0  0  0
 27 21  1  0  0  0  0
 28 27  1  0  0  0  0
 29 23  1  0  0  0  0
 30 13  1  0  0  0  0
 31 14  2  0  0  0  0
 32 21  2  0  0  0  0
 33 26  1  0  0  0  0
 34 29  1  0  0  0  0
 35 30  1  0  0  0  0
 36 30  1  0  0  0  0
 37 31  1  0  0  0  0
 38 37  2  0  0  0  0
 38 32  1  0  0  0  0
M  END
> <CdId>
2056

> <Mol Weight>
532.607

> <Formula>
C29H28N2O6S

> <Click_ID>
CLK027_E05 __ __ 

$$$$
