CLK039G07
 OpenBabel03181417022D

 19 20  0  0  0  0  0  0  0  0999 V2000
    0.0543    1.0686    0.0000 N   0  0  0  0  0  0  0  0  0  0  0  0
    0.0543   -0.2672    0.0000 N   0  0  0  0  0  0  0  0  0  0  0  0
   -0.4300    0.4007    0.0000 C   0  0  0  0  0  0  0  0  0  0  0  0
    0.8390    0.8140    0.0000 N   0  0  0  0  0  0  0  0  0  0  0  0
    0.8390   -0.0125    0.0000 N   0  0  0  0  0  0  0  0  0  0  0  0
   -0.2004   -1.0519    0.0000 C   0  0  0  0  0  0  0  0  0  0  0  0
    0.3506   -1.6655    0.0000 C   0  0  0  0  0  0  0  0  0  0  0  0
    0.3965   -3.8527    0.0000 C   0  0  0  0  0  0  0  0  0  0  0  0
   -1.2565    0.4007    0.0000 O   0  0  0  0  0  0  0  0  0  0  0  0
   -0.2004    1.8575    0.0000 C   0  0  0  0  0  0  0  0  0  0  0  0
    0.1377   -4.6375    0.0000 C   0  0  0  0  0  0  0  0  0  0  0  0
    1.1604   -1.4944    0.0000 O   0  0  0  0  0  0  0  0  0  0  0  0
    0.0960   -2.4544    0.0000 N   0  0  0  0  0  0  0  0  0  0  0  0
    0.6512   -3.0680    0.0000 C   0  0  0  0  0  0  0  0  0  0  0  0
    0.3506    2.4711    0.0000 C   0  0  0  0  0  0  0  0  0  0  0  0
   -1.0101    2.0287    0.0000 C   0  0  0  0  0  0  0  0  0  0  0  0
   -1.2648    2.8134    0.0000 C   0  0  0  0  0  0  0  0  0  0  0  0
    0.0960    3.2559    0.0000 C   0  0  0  0  0  0  0  0  0  0  0  0
   -0.7096    3.4270    0.0000 C   0  0  0  0  0  0  0  0  0  0  0  0
  2  3  1  0  0  0  0
  3  1  1  0  0  0  0
  4  1  1  0  0  0  0
  5  4  2  0  0  0  0
  5  2  1  0  0  0  0
  6  2  1  0  0  0  0
  7  6  1  0  0  0  0
  8 14  1  0  0  0  0
  9  3  2  0  0  0  0
 10  1  1  0  0  0  0
 11  8  3  0  0  0  0
 12  7  2  0  0  0  0
 13  7  1  0  0  0  0
 14 13  1  0  0  0  0
 15 10  1  0  0  0  0
 16 10  2  0  0  0  0
 17 16  1  0  0  0  0
 18 15  2  0  0  0  0
 19 17  2  0  0  0  0
 19 18  1  0  0  0  0
M  END
> <CdId>
2975

> <Mol Weight>
257.248

> <Formula>
C12H11N5O2

> <Click_ID>
CLK039G07 __ __ 

$$$$
