CLK046G10
 OpenBabel03181417022D

 31 31  0  0  0  0  0  0  0  0999 V2000
   -0.2083    0.9208    0.0000 S   0  0  0  0  0  0  0  0  0  0  0  0
   -0.2083    1.7458    0.0000 N   0  0  0  0  0  0  0  0  0  0  0  0
   -0.9250    2.1583    0.0000 C   0  0  0  0  0  0  0  0  0  0  0  0
    0.5042    2.1583    0.0000 C   0  0  0  0  0  0  0  0  0  0  0  0
    0.5042   -3.6167    0.0000 C   0  0  0  0  0  0  0  0  0  0  0  0
   -0.2083    0.0958    0.0000 C   0  0  0  0  0  0  0  0  0  0  0  0
   -1.6375    1.7458    0.0000 C   0  0  0  0  0  0  0  0  0  0  0  0
    1.2208    1.7458    0.0000 C   0  0  0  0  0  0  0  0  0  0  0  0
    0.6167    0.9208    0.0000 O   0  0  0  0  0  0  0  0  0  0  0  0
   -1.0333    0.9208    0.0000 O   0  0  0  0  0  0  0  0  0  0  0  0
   -3.7833    2.1583    0.0000 C   0  0  0  0  0  0  0  0  0  0  0  0
    3.3625    2.1583    0.0000 C   0  0  0  0  0  0  0  0  0  0  0  0
   -4.4958    2.5708    0.0000 C   0  0  0  0  0  0  0  0  0  0  0  0
    4.0792    2.5708    0.0000 C   0  0  0  0  0  0  0  0  0  0  0  0
    0.5042   -2.7917    0.0000 N   0  0  0  0  0  0  0  0  0  0  0  0
   -0.2083   -4.0292    0.0000 O   0  0  0  0  0  0  0  0  0  0  0  0
   -1.6375    0.9208    0.0000 O   0  0  0  0  0  0  0  0  0  0  0  0
    1.2208    0.9208    0.0000 O   0  0  0  0  0  0  0  0  0  0  0  0
    0.5042   -0.3167    0.0000 C   0  0  0  0  0  0  0  0  0  0  0  0
   -0.9250   -0.3167    0.0000 C   0  0  0  0  0  0  0  0  0  0  0  0
   -2.3542    2.1583    0.0000 N   0  0  0  0  0  0  0  0  0  0  0  0
    1.9333    2.1583    0.0000 N   0  0  0  0  0  0  0  0  0  0  0  0
    1.2208   -4.0292    0.0000 O   0  0  0  0  0  0  0  0  0  0  0  0
   -0.2083   -2.3792    0.0000 C   0  0  0  0  0  0  0  0  0  0  0  0
   -0.2083   -1.5542    0.0000 C   0  0  0  0  0  0  0  0  0  0  0  0
    0.5042   -1.1417    0.0000 C   0  0  0  0  0  0  0  0  0  0  0  0
   -0.9250   -1.1417    0.0000 C   0  0  0  0  0  0  0  0  0  0  0  0
   -3.0667    1.7458    0.0000 C   0  0  0  0  0  0  0  0  0  0  0  0
    2.6500    1.7458    0.0000 C   0  0  0  0  0  0  0  0  0  0  0  0
    1.2208   -4.8542    0.0000 C   0  0  0  0  0  0  0  0  0  0  0  0
    1.9333   -5.2667    0.0000 C   0  0  0  0  0  0  0  0  0  0  0  0
  2  1  1  0  0  0  0
  3  2  1  0  0  0  0
  4  2  1  0  0  0  0
  5 15  1  0  0  0  0
  6  1  1  0  0  0  0
  7  3  1  0  0  0  0
  8  4  1  0  0  0  0
  9  1  2  0  0  0  0
 10  1  2  0  0  0  0
 11 28  1  0  0  0  0
 12 29  1  0  0  0  0
 13 11  3  0  0  0  0
 14 12  3  0  0  0  0
 15 24  1  0  0  0  0
 16  5  2  0  0  0  0
 17  7  2  0  0  0  0
 18  8  2  0  0  0  0
 19  6  1  0  0  0  0
 20  6  2  0  0  0  0
 21  7  1  0  0  0  0
 22  8  1  0  0  0  0
 23  5  1  0  0  0  0
 24 25  1  0  0  0  0
 25 27  2  0  0  0  0
 26 19  2  0  0  0  0
 26 25  1  0  0  0  0
 27 20  1  0  0  0  0
 28 21  1  0  0  0  0
 29 22  1  0  0  0  0
 30 23  1  0  0  0  0
 31 30  1  0  0  0  0
M  END
> <CdId>
3559

> <Mol Weight>
448.493

> <Formula>
C20H24N4O6S

> <Click_ID>
CLK046G10 __ __ 

$$$$
