CLK008_B02
 OpenBabel03181417022D

 21 23  0  0  0  0  0  0  0  0999 V2000
   -1.7661   -0.3925    0.0000 C    0  0  0  0  0  0  0  0  0  0  0  0
   -0.9708   -0.6437    0.0000 N    0  0  0  0  0  0  0  0  0  0  0  0
   -1.7695    0.4338    0.0000 C    0  0  0  0  0  0  0  0  0  0  0  0
   -2.4856   -0.8056    0.0000 C    0  0  0  0  0  0  0  0  0  0  0  0
   -0.4923    0.0309    0.0000 C    0  0  0  0  0  0  0  0  0  0  0  0
   -0.5612   -1.3564    0.0000 C    0  0  0  0  0  0  0  0  0  0  0  0
   -0.9812    0.6989    0.0000 N    0  0  0  0  0  0  0  0  0  0  0  0
   -2.4856    0.8469    0.0000 C    0  0  0  0  0  0  0  0  0  0  0  0
   -3.1947   -0.3925    0.0000 C    0  0  0  0  0  0  0  0  0  0  0  0
    0.3305    0.0309    0.0000 C    0  0  0  0  0  0  0  0  0  0  0  0
   -0.9674   -2.0656    0.0000 C    0  0  0  0  0  0  0  0  0  0  0  0
   -3.1947    0.4338    0.0000 C    0  0  0  0  0  0  0  0  0  0  0  0
    0.7436    0.7471    0.0000 S    0  0  0  0  0  0  0  0  0  0  0  0
   -0.5543   -2.7782    0.0000 C    0  0  0  0  0  0  0  0  0  0  0  0
    1.5664    0.7471    0.0000 C    0  0  0  0  0  0  0  0  0  0  0  0
    1.9761    0.0309    0.0000 C    0  0  0  0  0  0  0  0  0  0  0  0
    1.9692    1.4562    0.0000 C    0  0  0  0  0  0  0  0  0  0  0  0
    2.7954    0.0309    0.0000 C    0  0  0  0  0  0  0  0  0  0  0  0
    2.7954    1.4597    0.0000 C    0  0  0  0  0  0  0  0  0  0  0  0
    3.2119    0.7471    0.0000 C    0  0  0  0  0  0  0  0  0  0  0  0
    4.0348    0.7471    0.0000 Cl   0  0  0  0  0  0  0  0  0  0  0  0
  1  2  1  0  0  0  0
  1  3  1  0  0  0  0
  1  4  2  0  0  0  0
  2  5  1  0  0  0  0
  2  6  1  0  0  0  0
  3  7  1  0  0  0  0
  3  8  2  0  0  0  0
  4  9  1  0  0  0  0
  5 10  1  0  0  0  0
  5  7  2  0  0  0  0
  6 11  1  0  0  0  0
  8 12  1  0  0  0  0
  9 12  2  0  0  0  0
 10 13  1  0  0  0  0
 11 14  3  0  0  0  0
 13 15  1  0  0  0  0
 15 16  2  0  0  0  0
 15 17  1  0  0  0  0
 16 18  1  0  0  0  0
 17 19  2  0  0  0  0
 18 20  2  0  0  0  0
 19 20  1  0  0  0  0
 20 21  1  0  0  0  0
M  END
> <CdId>
566

> <Mol Weight>
312.817

> <Formula>
C17H13ClN2S

> <Click_ID>
CLK008_B02 __ __ 

$$$$
