CLK051F06
 OpenBabel03181417022D

 14 14  0  0  0  0  0  0  0  0999 V2000
   -2.7583   -0.4125    0.0000 C    0  0  0  0  0  0  0  0  0  0  0  0
   -3.4708   -0.8250    0.0000 C    0  0  0  0  0  0  0  0  0  0  0  0
   -0.6125    0.0000    0.0000 C    0  0  0  0  0  0  0  0  0  0  0  0
    0.8125    0.0000    0.0000 C    0  0  0  0  0  0  0  0  0  0  0  0
    0.1000   -0.4125    0.0000 C    0  0  0  0  0  0  0  0  0  0  0  0
    1.5292   -0.4125    0.0000 C    0  0  0  0  0  0  0  0  0  0  0  0
   -0.6125    0.8250    0.0000 O    0  0  0  0  0  0  0  0  0  0  0  0
   -1.3292   -0.4125    0.0000 N    0  0  0  0  0  0  0  0  0  0  0  0
    1.5292   -1.2375    0.0000 Cl   0  0  0  0  0  0  0  0  0  0  0  0
   -2.0417    0.0000    0.0000 C    0  0  0  0  0  0  0  0  0  0  0  0
    0.8125    0.8250    0.0000 C    0  0  0  0  0  0  0  0  0  0  0  0
    2.2417    0.0000    0.0000 C    0  0  0  0  0  0  0  0  0  0  0  0
    1.5292    1.2375    0.0000 C    0  0  0  0  0  0  0  0  0  0  0  0
    2.2417    0.8250    0.0000 C    0  0  0  0  0  0  0  0  0  0  0  0
  2  1  3  0  0  0  0
  3  8  1  0  0  0  0
  4  5  1  0  0  0  0
  5  3  1  0  0  0  0
  6  4  2  0  0  0  0
  7  3  2  0  0  0  0
  8 10  1  0  0  0  0
  9  6  1  0  0  0  0
 10  1  1  0  0  0  0
 11  4  1  0  0  0  0
 12  6  1  0  0  0  0
 13 11  2  0  0  0  0
 13 14  1  0  0  0  0
 14 12  2  0  0  0  0
M  END
> <CdId>
3926

> <Mol Weight>
207.656

> <Formula>
C11H10ClNO

> <Click_ID>
CLK051F06 __ __ 

$$$$
