CLK015_C09
 OpenBabel03181417022D

 23 24  0  0  0  0  0  0  0  0999 V2000
    7.8125   -4.3000    0.0000 C   0  0  0  0  0  0  0  0  0  0  0  0
    8.5667   -4.6292    0.0000 C   0  0  0  0  0  0  0  0  0  0  0  0
    9.1167   -4.0167    0.0000 N   0  0  0  0  0  0  0  0  0  0  0  0
    7.1000   -4.7167    0.0000 C   0  0  0  0  0  0  0  0  0  0  0  0
    7.8917   -3.4792    0.0000 N   0  0  0  0  0  0  0  0  0  0  0  0
    8.7042   -3.3042    0.0000 O   0  0  0  0  0  0  0  0  0  0  0  0
    6.3792   -4.3125    0.0000 N   0  0  0  0  0  0  0  0  0  0  0  0
    5.6667   -9.6792    0.0000 C   0  0  0  0  0  0  0  0  0  0  0  0
    5.6750   -4.7167    0.0000 N   0  0  0  0  0  0  0  0  0  0  0  0
    5.6625  -10.5042    0.0000 C   0  0  0  0  0  0  0  0  0  0  0  0
    4.2500   -7.2000    0.0000 C   0  0  0  0  0  0  0  0  0  0  0  0
    4.9625   -7.6125    0.0000 C   0  0  0  0  0  0  0  0  0  0  0  0
    4.2500   -6.3750    0.0000 C   0  0  0  0  0  0  0  0  0  0  0  0
    8.7417   -5.4417    0.0000 N   0  0  0  0  0  0  0  0  0  0  0  0
    7.1042   -5.5417    0.0000 N   0  0  0  0  0  0  0  0  0  0  0  0
    5.6792   -7.2000    0.0000 C   0  0  0  0  0  0  0  0  0  0  0  0
    4.9542   -5.1292    0.0000 C   0  0  0  0  0  0  0  0  0  0  0  0
    4.9625   -5.9542    0.0000 C   0  0  0  0  0  0  0  0  0  0  0  0
    5.6792   -6.3667    0.0000 C   0  0  0  0  0  0  0  0  0  0  0  0
    3.5292   -7.6125    0.0000 O   0  0  0  0  0  0  0  0  0  0  0  0
    4.9542   -8.4417    0.0000 O   0  0  0  0  0  0  0  0  0  0  0  0
    5.6667   -8.8542    0.0000 C   0  0  0  0  0  0  0  0  0  0  0  0
    2.8167   -7.1917    0.0000 C   0  0  0  0  0  0  0  0  0  0  0  0
  2  1  1  0  0  0  0
  3  2  2  0  0  0  0
  4  1  1  0  0  0  0
  5  1  2  0  0  0  0
  6  5  1  0  0  0  0
  6  3  1  0  0  0  0
  7  4  2  0  0  0  0
  8 22  1  0  0  0  0
  9  7  1  0  0  0  0
 10  8  3  0  0  0  0
 11 13  2  0  0  0  0
 11 12  1  0  0  0  0
 12 16  2  0  0  0  0
 13 18  1  0  0  0  0
 14  2  1  0  0  0  0
 15  4  1  0  0  0  0
 16 19  1  0  0  0  0
 17  9  2  0  0  0  0
 18 17  1  0  0  0  0
 19 18  2  0  0  0  0
 20 11  1  0  0  0  0
 21 12  1  0  0  0  0
 22 21  1  0  0  0  0
 23 20  1  0  0  0  0
M  END
> <CdId>
1104

> <Mol Weight>
314.2994

> <Formula>
C14H14N6O3

> <Click_ID>
CLK015_C09 __ __ 

$$$$
