CLK041H07
 OpenBabel03181417022D

 27 29  0  0  0  0  0  0  0  0999 V2000
    0.3667   -3.1208    0.0000 S   0  0  0  0  0  0  0  0  0  0  0  0
    0.3667    0.1792    0.0000 C   0  0  0  0  0  0  0  0  0  0  0  0
   -0.3458    3.8917    0.0000 N   0  0  0  0  0  0  0  0  0  0  0  0
    0.3667   -2.2958    0.0000 C   0  0  0  0  0  0  0  0  0  0  0  0
   -0.3458    0.5917    0.0000 N   0  0  0  0  0  0  0  0  0  0  0  0
   -0.3458   -5.1833    0.0000 C   0  0  0  0  0  0  0  0  0  0  0  0
   -0.3458   -6.0083    0.0000 C   0  0  0  0  0  0  0  0  0  0  0  0
    1.1917   -3.1208    0.0000 O   0  0  0  0  0  0  0  0  0  0  0  0
   -0.4583   -3.1208    0.0000 O   0  0  0  0  0  0  0  0  0  0  0  0
    0.3667   -0.6458    0.0000 C   0  0  0  0  0  0  0  0  0  0  0  0
   -0.3458    3.0667    0.0000 C   0  0  0  0  0  0  0  0  0  0  0  0
    0.3667   -3.9458    0.0000 N   0  0  0  0  0  0  0  0  0  0  0  0
    1.0833    0.5917    0.0000 O   0  0  0  0  0  0  0  0  0  0  0  0
   -0.3458   -1.8833    0.0000 C   0  0  0  0  0  0  0  0  0  0  0  0
    1.0833   -1.8833    0.0000 C   0  0  0  0  0  0  0  0  0  0  0  0
   -0.3458   -1.0583    0.0000 C   0  0  0  0  0  0  0  0  0  0  0  0
    1.0833   -1.0583    0.0000 C   0  0  0  0  0  0  0  0  0  0  0  0
   -1.0625    2.6542    0.0000 C   0  0  0  0  0  0  0  0  0  0  0  0
    0.3667    2.6542    0.0000 C   0  0  0  0  0  0  0  0  0  0  0  0
   -0.3458    1.4167    0.0000 C   0  0  0  0  0  0  0  0  0  0  0  0
   -1.0625    1.8292    0.0000 C   0  0  0  0  0  0  0  0  0  0  0  0
    0.3667    1.8292    0.0000 C   0  0  0  0  0  0  0  0  0  0  0  0
   -0.3458   -4.3583    0.0000 C   0  0  0  0  0  0  0  0  0  0  0  0
   -1.0125    4.3708    0.0000 C   0  0  0  0  0  0  0  0  0  0  0  0
    0.3208    4.3708    0.0000 C   0  0  0  0  0  0  0  0  0  0  0  0
    0.0667    5.1542    0.0000 C   0  0  0  0  0  0  0  0  0  0  0  0
   -0.7583    5.1542    0.0000 C   0  0  0  0  0  0  0  0  0  0  0  0
  2 10  1  0  0  0  0
  3 11  1  0  0  0  0
  4  1  1  0  0  0  0
  5  2  1  0  0  0  0
  6 23  1  0  0  0  0
  7  6  3  0  0  0  0
  8  1  2  0  0  0  0
  9  1  2  0  0  0  0
 10 17  2  0  0  0  0
 11 18  2  0  0  0  0
 11 19  1  0  0  0  0
 12  1  1  0  0  0  0
 13  2  2  0  0  0  0
 14  4  1  0  0  0  0
 15  4  2  0  0  0  0
 16 14  2  0  0  0  0
 16 10  1  0  0  0  0
 17 15  1  0  0  0  0
 18 21  1  0  0  0  0
 19 22  2  0  0  0  0
 20  5  1  0  0  0  0
 21 20  2  0  0  0  0
 22 20  1  0  0  0  0
 23 12  1  0  0  0  0
 24  3  1  0  0  0  0
 25  3  1  0  0  0  0
 26 25  1  0  0  0  0
 27 24  1  0  0  0  0
 27 26  1  0  0  0  0
M  END
> <CdId>
3136

> <Mol Weight>
383.464

> <Formula>
C20H21N3O3S

> <Click_ID>
CLK041H07 __ __ 

$$$$
