CLK021_F07
 OpenBabel03181417022D

 20 20  0  0  0  0  0  0  0  0999 V2000
    4.9885    2.7760    0.0000 C    0  0  0  0  0  0  0  0  0  0  0  0
    6.4177    2.7760    0.0000 C    0  0  0  0  0  0  0  0  0  0  0  0
    5.7031    2.3637    0.0000 C    0  0  0  0  0  0  0  0  0  0  0  0
    6.4177    3.6005    0.0000 C    0  0  0  0  0  0  0  0  0  0  0  0
    4.9885    3.6005    0.0000 C    0  0  0  0  0  0  0  0  0  0  0  0
    8.5615    4.0128    0.0000 C    0  0  0  0  0  0  0  0  0  0  0  0
    5.7031    4.0128    0.0000 C    0  0  0  0  0  0  0  0  0  0  0  0
    9.2761    4.4159    0.0000 C    0  0  0  0  0  0  0  0  0  0  0  0
    4.2785    2.3637    0.0000 C    0  0  0  0  0  0  0  0  0  0  0  0
    3.5639    2.7760    0.0000 N    0  0  0  0  0  0  0  0  0  0  0  0
    2.8493    2.3637    0.0000 C    0  0  0  0  0  0  0  0  0  0  0  0
    5.7031    1.5391    0.0000 Br   0  0  0  0  0  0  0  0  0  0  0  0
    7.1323    4.0128    0.0000 O    0  0  0  0  0  0  0  0  0  0  0  0
    5.7031    4.8282    0.0000 O    0  0  0  0  0  0  0  0  0  0  0  0
    7.8469    3.6005    0.0000 C    0  0  0  0  0  0  0  0  0  0  0  0
    1.4704    2.7347    0.0000 O    0  0  0  0  0  0  0  0  0  0  0  0
    2.2675    2.9500    0.0000 C    0  0  0  0  0  0  0  0  0  0  0  0
    2.2171    1.8369    0.0000 C    0  0  0  0  0  0  0  0  0  0  0  0
    3.3165    1.6903    0.0000 C    0  0  0  0  0  0  0  0  0  0  0  0
    4.9885    5.2405    0.0000 C    0  0  0  0  0  0  0  0  0  0  0  0
  2  3  2  0  0  0  0
  2  4  1  0  0  0  0
  3  1  1  0  0  0  0
  4  7  2  0  0  0  0
  5  1  2  0  0  0  0
  6 15  1  0  0  0  0
  7  5  1  0  0  0  0
  8  6  3  0  0  0  0
  9  1  1  0  0  0  0
 10  9  1  0  0  0  0
 11 10  1  0  0  0  0
 12  3  1  0  0  0  0
 13  4  1  0  0  0  0
 14  7  1  0  0  0  0
 15 13  1  0  0  0  0
 16 17  1  0  0  0  0
 17 11  1  0  0  0  0
 18 11  1  0  0  0  0
 19 11  1  0  0  0  0
 20 14  1  0  0  0  0
M  END
> <CdId>
1612

> <Mol Weight>
342.228

> <Formula>
C15H20BrNO3

> <Click_ID>
CLK021_F07 __ __ 

$$$$
