CLK033_A08
 OpenBabel03181417022D

 32 35  0  0  0  0  0  0  0  0999 V2000
   -4.5918    2.5561    0.0000 C   0  0  0  0  0  0  0  0  0  0  0  0
   -0.9950    5.4453    0.0000 S   0  0  0  0  0  0  0  0  0  0  0  0
   -3.8592    2.9807    0.0000 N   0  0  0  0  0  0  0  0  0  0  0  0
   -4.6792    1.7318    0.0000 N   0  0  0  0  0  0  0  0  0  0  0  0
   -5.3162    2.8933    0.0000 S   0  0  0  0  0  0  0  0  0  0  0  0
   -5.4828    1.5819    0.0000 C   0  0  0  0  0  0  0  0  0  0  0  0
   -5.8907    2.2981    0.0000 C   0  0  0  0  0  0  0  0  0  0  0  0
   -3.8675    3.7968    0.0000 C   0  0  0  0  0  0  0  0  0  0  0  0
   -0.2830    5.8492    0.0000 N   0  0  0  0  0  0  0  0  0  0  0  0
   -1.7110    5.0248    0.0000 C   0  0  0  0  0  0  0  0  0  0  0  0
   -4.2546    0.3580    0.0000 C   0  0  0  0  0  0  0  0  0  0  0  0
   -0.5828    4.7251    0.0000 O   0  0  0  0  0  0  0  0  0  0  0  0
   -1.4071    6.1614    0.0000 O   0  0  0  0  0  0  0  0  0  0  0  0
   -4.4420   -0.4538    0.0000 C   0  0  0  0  0  0  0  0  0  0  0  0
   -3.1556    4.2089    0.0000 C   0  0  0  0  0  0  0  0  0  0  0  0
   -5.9157    0.8826    0.0000 C   0  0  0  0  0  0  0  0  0  0  0  0
   -4.5793    4.2131    0.0000 O   0  0  0  0  0  0  0  0  0  0  0  0
   -4.0673    1.1615    0.0000 C   0  0  0  0  0  0  0  0  0  0  0  0
   -1.7193    4.2089    0.0000 C   0  0  0  0  0  0  0  0  0  0  0  0
   -2.4312    5.4495    0.0000 C   0  0  0  0  0  0  0  0  0  0  0  0
   -2.4354    3.8051    0.0000 C   0  0  0  0  0  0  0  0  0  0  0  0
   -3.1473    5.0373    0.0000 C   0  0  0  0  0  0  0  0  0  0  0  0
   -6.6985    2.3188    0.0000 C   0  0  0  0  0  0  0  0  0  0  0  0
   -5.5161    0.1457    0.0000 O   0  0  0  0  0  0  0  0  0  0  0  0
    0.4288    5.4370    0.0000 C   0  0  0  0  0  0  0  0  0  0  0  0
   -0.2830    6.6860    0.0000 C   0  0  0  0  0  0  0  0  0  0  0  0
   -7.1356    1.6194    0.0000 C   0  0  0  0  0  0  0  0  0  0  0  0
   -6.7234    0.8868    0.0000 C   0  0  0  0  0  0  0  0  0  0  0  0
   -5.9532   -0.5537    0.0000 C   0  0  0  0  0  0  0  0  0  0  0  0
    1.1532    5.8492    0.0000 C   0  0  0  0  0  0  0  0  0  0  0  0
    0.4371    7.0981    0.0000 C   0  0  0  0  0  0  0  0  0  0  0  0
    1.1532    6.6735    0.0000 C   0  0  0  0  0  0  0  0  0  0  0  0
  2 10  1  0  0  0  0
  3  1  2  0  0  0  0
  4  1  1  0  0  0  0
  5  1  1  0  0  0  0
  6  4  1  0  0  0  0
  7  5  1  0  0  0  0
  7  6  2  0  0  0  0
  8  3  1  0  0  0  0
  9  2  1  0  0  0  0
 10 20  1  0  0  0  0
 10 19  2  0  0  0  0
 11 18  1  0  0  0  0
 12  2  2  0  0  0  0
 13  2  2  0  0  0  0
 14 11  3  0  0  0  0
 15  8  1  0  0  0  0
 16  6  1  0  0  0  0
 17  8  2  0  0  0  0
 18  4  1  0  0  0  0
 19 21  1  0  0  0  0
 20 22  2  0  0  0  0
 21 15  2  0  0  0  0
 22 15  1  0  0  0  0
 23  7  1  0  0  0  0
 24 16  1  0  0  0  0
 25  9  1  0  0  0  0
 26  9  1  0  0  0  0
 27 23  2  0  0  0  0
 28 16  2  0  0  0  0
 28 27  1  0  0  0  0
 29 24  1  0  0  0  0
 30 25  1  0  0  0  0
 30 32  1  0  0  0  0
 31 26  1  0  0  0  0
 32 31  1  0  0  0  0
M  END
> <CdId>
2492

> <Mol Weight>
469.576

> <Formula>
C23H23N3O4S2

> <Click_ID>
CLK033_A08 __ __ 

$$$$
