CLK005_D07
 OpenBabel03181417022D

 26 28  0  0  0  0  0  0  0  0999 V2000
   -1.2218    1.0118    0.0000 C   0  0  0  0  0  0  0  0  0  0  0  0
   -0.8286    1.7258    0.0000 C   0  0  0  0  0  0  0  0  0  0  0  0
   -0.8744    0.2711    0.0000 N   0  0  0  0  0  0  0  0  0  0  0  0
   -2.0351    0.9087    0.0000 S   0  0  0  0  0  0  0  0  0  0  0  0
   -0.0153    1.7373    0.0000 C   0  0  0  0  0  0  0  0  0  0  0  0
   -1.3058    2.5124    0.0000 C   0  0  0  0  0  0  0  0  0  0  0  0
   -1.4700   -0.2826    0.0000 C   0  0  0  0  0  0  0  0  0  0  0  0
   -2.1879    0.1107    0.0000 C   0  0  0  0  0  0  0  0  0  0  0  0
    0.4123    1.0232    0.0000 C   0  0  0  0  0  0  0  0  0  0  0  0
   -1.7869    3.3065    0.0000 N   0  0  0  0  0  0  0  0  0  0  0  0
   -1.4547   -1.0996    0.0000 C   0  0  0  0  0  0  0  0  0  0  0  0
   -2.8827   -0.3093    0.0000 C   0  0  0  0  0  0  0  0  0  0  0  0
    1.2409    1.0385    0.0000 C   0  0  0  0  0  0  0  0  0  0  0  0
    0.0114    0.2979    0.0000 C   0  0  0  0  0  0  0  0  0  0  0  0
   -2.1573   -1.5120    0.0000 C   0  0  0  0  0  0  0  0  0  0  0  0
   -2.8675   -1.1263    0.0000 C   0  0  0  0  0  0  0  0  0  0  0  0
    1.6723    0.3284    0.0000 C   0  0  0  0  0  0  0  0  0  0  0  0
    0.4391   -0.4047    0.0000 C   0  0  0  0  0  0  0  0  0  0  0  0
    1.2676   -0.4009    0.0000 C   0  0  0  0  0  0  0  0  0  0  0  0
    2.5009    0.3398    0.0000 O   0  0  0  0  0  0  0  0  0  0  0  0
    1.6991   -1.1110    0.0000 O   0  0  0  0  0  0  0  0  0  0  0  0
    2.9285   -0.3665    0.0000 C   0  0  0  0  0  0  0  0  0  0  0  0
    1.2982   -1.8404    0.0000 C   0  0  0  0  0  0  0  0  0  0  0  0
    3.7610   -0.3512    0.0000 C   0  0  0  0  0  0  0  0  0  0  0  0
    1.7182   -2.5505    0.0000 C   0  0  0  0  0  0  0  0  0  0  0  0
    2.1458   -3.2569    0.0000 C   0  0  0  0  0  0  0  0  0  0  0  0
  1  2  1  0  0  0  0
  1  3  2  0  0  0  0
  1  4  1  0  0  0  0
  2  5  2  0  0  0  0
  2  6  1  0  0  0  0
  3  7  1  0  0  0  0
  4  8  1  0  0  0  0
  5  9  1  0  0  0  0
  6 10  3  0  0  0  0
  7 11  1  0  0  0  0
  7  8  2  0  0  0  0
  8 12  1  0  0  0  0
  9 13  2  0  0  0  0
  9 14  1  0  0  0  0
 11 15  2  0  0  0  0
 12 16  2  0  0  0  0
 13 17  1  0  0  0  0
 14 18  2  0  0  0  0
 15 16  1  0  0  0  0
 17 19  2  0  0  0  0
 17 20  1  0  0  0  0
 18 19  1  0  0  0  0
 19 21  1  0  0  0  0
 20 22  1  0  0  0  0
 21 23  1  0  0  0  0
 22 24  1  0  0  0  0
 23 25  1  0  0  0  0
 25 26  3  0  0  0  0
M  END
> <CdId>
356

> <Mol Weight>
360.429

> <Formula>
C21H16N2O2S

> <Click_ID>
CLK005_D07 __ __ 

$$$$
