CLK026_E07
 OpenBabel03181417022D

 19 20  0  0  0  0  0  0  0  0999 V2000
   -1.6329   -0.3678    0.0000 N    0  0  0  0  0  0  0  0  0  0  0  0
   -2.0351   -1.0897    0.0000 C    0  0  0  0  0  0  0  0  0  0  0  0
   -0.8216   -0.5294    0.0000 C    0  0  0  0  0  0  0  0  0  0  0  0
   -0.7219   -1.3510    0.0000 C    0  0  0  0  0  0  0  0  0  0  0  0
   -1.4747   -1.6981    0.0000 S    0  0  0  0  0  0  0  0  0  0  0  0
    0.0000   -1.7532    0.0000 C    0  0  0  0  0  0  0  0  0  0  0  0
   -1.5022    1.0587    0.0000 C    0  0  0  0  0  0  0  0  0  0  0  0
   -1.0622    1.7566    0.0000 C    0  0  0  0  0  0  0  0  0  0  0  0
    2.1244   -1.2994    0.0000 C    0  0  0  0  0  0  0  0  0  0  0  0
   -2.8498   -1.1860    0.0000 O    0  0  0  0  0  0  0  0  0  0  0  0
   -0.2234    0.0378    0.0000 O    0  0  0  0  0  0  0  0  0  0  0  0
    0.7013   -1.3235    0.0000 C    0  0  0  0  0  0  0  0  0  0  0  0
   -1.9766    0.3747    0.0000 C    0  0  0  0  0  0  0  0  0  0  0  0
    2.1141   -0.4779    0.0000 C    0  0  0  0  0  0  0  0  0  0  0  0
    1.4232   -1.7291    0.0000 C    0  0  0  0  0  0  0  0  0  0  0  0
    1.3888   -0.0790    0.0000 C    0  0  0  0  0  0  0  0  0  0  0  0
    2.8463   -1.7051    0.0000 Cl   0  0  0  0  0  0  0  0  0  0  0  0
    0.6910   -0.5053    0.0000 C    0  0  0  0  0  0  0  0  0  0  0  0
    2.8257   -0.0516    0.0000 O    0  0  0  0  0  0  0  0  0  0  0  0
  2  1  1  0  0  0  0
  3  1  1  0  0  0  0
  4  3  1  0  0  0  0
  5  2  1  0  0  0  0
  5  4  1  0  0  0  0
  6  4  2  0  0  0  0
  7 13  1  0  0  0  0
  8  7  3  0  0  0  0
  9 15  1  0  0  0  0
 10  2  2  0  0  0  0
 11  3  2  0  0  0  0
 12  6  1  0  0  0  0
 13  1  1  0  0  0  0
 14 16  1  0  0  0  0
 14  9  2  0  0  0  0
 15 12  2  0  0  0  0
 16 18  2  0  0  0  0
 17  9  1  0  0  0  0
 18 12  1  0  0  0  0
 19 14  1  0  0  0  0
M  END
> <CdId>
1982

> <Mol Weight>
293.726

> <Formula>
C13H8ClNO3S

> <Click_ID>
CLK026_E07 __ __ 

$$$$
