CLK026_C09
 OpenBabel03181417022D

 27 29  0  0  0  0  0  0  0  0999 V2000
   -3.2862   -0.8731    0.0000 N   0  0  0  0  0  0  0  0  0  0  0  0
   -2.6262   -1.3544    0.0000 C   0  0  0  0  0  0  0  0  0  0  0  0
   -3.0353   -0.0893    0.0000 C   0  0  0  0  0  0  0  0  0  0  0  0
   -2.2240   -0.0825    0.0000 C   0  0  0  0  0  0  0  0  0  0  0  0
   -1.9594   -0.8628    0.0000 S   0  0  0  0  0  0  0  0  0  0  0  0
   -1.8082    0.6394    0.0000 C   0  0  0  0  0  0  0  0  0  0  0  0
   -4.2316   -1.9525    0.0000 C   0  0  0  0  0  0  0  0  0  0  0  0
   -4.3931   -2.7672    0.0000 C   0  0  0  0  0  0  0  0  0  0  0  0
   -2.6365   -2.1897    0.0000 O   0  0  0  0  0  0  0  0  0  0  0  0
    0.2578    1.3509    0.0000 C   0  0  0  0  0  0  0  0  0  0  0  0
   -3.5166    0.5878    0.0000 O   0  0  0  0  0  0  0  0  0  0  0  0
    0.6703    0.6394    0.0000 C   0  0  0  0  0  0  0  0  0  0  0  0
   -0.9832    0.6394    0.0000 C   0  0  0  0  0  0  0  0  0  0  0  0
   -4.0666   -1.1412    0.0000 C   0  0  0  0  0  0  0  0  0  0  0  0
   -0.5707    1.3509    0.0000 C   0  0  0  0  0  0  0  0  0  0  0  0
    1.5056    0.6428    0.0000 O   0  0  0  0  0  0  0  0  0  0  0  0
    0.2647   -0.0757    0.0000 C   0  0  0  0  0  0  0  0  0  0  0  0
   -0.5500   -0.0825    0.0000 C   0  0  0  0  0  0  0  0  0  0  0  0
    1.9216   -0.0757    0.0000 C   0  0  0  0  0  0  0  0  0  0  0  0
    0.6703    2.0660    0.0000 O   0  0  0  0  0  0  0  0  0  0  0  0
    2.7500   -0.0722    0.0000 C   0  0  0  0  0  0  0  0  0  0  0  0
    0.2578    2.7706    0.0000 C   0  0  0  0  0  0  0  0  0  0  0  0
    3.1625   -0.7769    0.0000 C   0  0  0  0  0  0  0  0  0  0  0  0
    3.1591    0.6428    0.0000 C   0  0  0  0  0  0  0  0  0  0  0  0
    3.9909   -0.7734    0.0000 C   0  0  0  0  0  0  0  0  0  0  0  0
    3.9738    0.6497    0.0000 C   0  0  0  0  0  0  0  0  0  0  0  0
    4.3897   -0.0722    0.0000 C   0  0  0  0  0  0  0  0  0  0  0  0
  2  1  1  0  0  0  0
  3  1  1  0  0  0  0
  4  3  1  0  0  0  0
  5  2  1  0  0  0  0
  5  4  1  0  0  0  0
  6  4  2  0  0  0  0
  7 14  1  0  0  0  0
  8  7  3  0  0  0  0
  9  2  2  0  0  0  0
 10 15  1  0  0  0  0
 11  3  2  0  0  0  0
 12 17  1  0  0  0  0
 12 10  2  0  0  0  0
 13  6  1  0  0  0  0
 14  1  1  0  0  0  0
 15 13  2  0  0  0  0
 16 12  1  0  0  0  0
 17 18  2  0  0  0  0
 18 13  1  0  0  0  0
 19 16  1  0  0  0  0
 20 10  1  0  0  0  0
 21 19  1  0  0  0  0
 22 20  1  0  0  0  0
 23 21  2  0  0  0  0
 24 21  1  0  0  0  0
 25 23  1  0  0  0  0
 25 27  2  0  0  0  0
 26 24  2  0  0  0  0
 27 26  1  0  0  0  0
M  END
> <CdId>
1964

> <Mol Weight>
379.429

> <Formula>
C21H17NO4S

> <Click_ID>
CLK026_C09 __ __ 

$$$$
