CLK038C10
 OpenBabel03181417022D

 27 30  0  0  0  0  0  0  0  0999 V2000
   -0.3583    1.3500    0.0000 N   0  0  0  0  0  0  0  0  0  0  0  0
   -0.3583    2.1750    0.0000 C   0  0  0  0  0  0  0  0  0  0  0  0
    0.3583    0.9375    0.0000 C   0  0  3  0  0  0  0  0  0  0  0  0
    0.3583    2.5875    0.0000 N   0  0  0  0  0  0  0  0  0  0  0  0
    1.0708    1.3500    0.0000 N   0  0  0  0  0  0  0  0  0  0  0  0
   -1.1417    2.4333    0.0000 N   0  0  0  0  0  0  0  0  0  0  0  0
    1.0708    2.1750    0.0000 C   0  0  0  0  0  0  0  0  0  0  0  0
   -1.1417    1.0958    0.0000 C   0  0  0  0  0  0  0  0  0  0  0  0
   -1.6250    1.7625    0.0000 C   0  0  0  0  0  0  0  0  0  0  0  0
    0.3583    0.1125    0.0000 C   0  0  0  0  0  0  0  0  0  0  0  0
    1.0708   -0.3000    0.0000 C   0  0  0  0  0  0  0  0  0  0  0  0
   -0.3583   -3.6000    0.0000 C   0  0  0  0  0  0  0  0  0  0  0  0
   -0.3583   -4.4250    0.0000 C   0  0  0  0  0  0  0  0  0  0  0  0
    1.0708   -1.1250    0.0000 C   0  0  0  0  0  0  0  0  0  0  0  0
    0.3583   -1.5375    0.0000 C   0  0  0  0  0  0  0  0  0  0  0  0
   -0.3583   -0.3000    0.0000 C   0  0  0  0  0  0  0  0  0  0  0  0
    1.7875    2.5875    0.0000 N   0  0  0  0  0  0  0  0  0  0  0  0
   -0.3583   -1.1250    0.0000 C   0  0  0  0  0  0  0  0  0  0  0  0
    1.7875   -1.5375    0.0000 O   0  0  0  0  0  0  0  0  0  0  0  0
    0.3583   -2.3625    0.0000 O   0  0  0  0  0  0  0  0  0  0  0  0
   -0.3583   -2.7750    0.0000 C   0  0  0  0  0  0  0  0  0  0  0  0
   -1.4792    0.3417    0.0000 C   0  0  0  0  0  0  0  0  0  0  0  0
   -2.4458    1.6792    0.0000 C   0  0  0  0  0  0  0  0  0  0  0  0
    2.5000   -1.1250    0.0000 C   0  0  0  0  0  0  0  0  0  0  0  0
   -2.2958    0.2583    0.0000 C   0  0  0  0  0  0  0  0  0  0  0  0
   -2.7833    0.9250    0.0000 C   0  0  0  0  0  0  0  0  0  0  0  0
    3.2167   -1.5375    0.0000 C   0  0  0  0  0  0  0  0  0  0  0  0
  2  1  1  0  0  0  0
  3  1  1  0  0  0  0
  4  2  1  0  0  0  0
  5  3  1  0  0  0  0
  6  2  2  0  0  0  0
  7  4  2  0  0  0  0
  7  5  1  0  0  0  0
  8  1  1  0  0  0  0
  9  8  2  0  0  0  0
  9  6  1  0  0  0  0
 10  3  1  0  0  0  0
 11 10  2  0  0  0  0
 12 21  1  0  0  0  0
 13 12  3  0  0  0  0
 14 11  1  0  0  0  0
 15 18  1  0  0  0  0
 15 14  2  0  0  0  0
 16 10  1  0  0  0  0
 17  7  1  0  0  0  0
 18 16  2  0  0  0  0
 19 14  1  0  0  0  0
 20 15  1  0  0  0  0
 21 20  1  0  0  0  0
 22  8  1  0  0  0  0
 23  9  1  0  0  0  0
 24 19  1  0  0  0  0
 25 22  2  0  0  0  0
 25 26  1  0  0  0  0
 26 23  2  0  0  0  0
 27 24  1  0  0  0  0
M  END
> <CdId>
2915

> <Mol Weight>
361.3972

> <Formula>
C20H19N5O2

> <Click_ID>
CLK038C10 __ __ 

$$$$
