CLK009_H08
 OpenBabel03181417022D

 25 26  0  0  0  0  0  0  0  0999 V2000
   -1.4007    2.7024    0.0000 N    0  0  0  0  0  0  0  0  0  0  0  0
   -0.9249    3.3761    0.0000 C    0  0  0  0  0  0  0  0  0  0  0  0
   -2.1886    2.9536    0.0000 C    0  0  0  0  0  0  0  0  0  0  0  0
   -1.4007    4.0232    0.0000 S    0  0  0  0  0  0  0  0  0  0  0  0
   -2.1886    3.7720    0.0000 C    0  0  0  0  0  0  0  0  0  0  0  0
   -1.1419    1.8917    0.0000 C    0  0  0  0  0  0  0  0  0  0  0  0
   -0.3197    1.7318    0.0000 C    0  0  0  0  0  0  0  0  0  0  0  0
    0.5938   -0.0267    0.0000 C    0  0  0  0  0  0  0  0  0  0  0  0
    0.4263   -0.8488    0.0000 C    0  0  0  0  0  0  0  0  0  0  0  0
   -0.0875    3.3761    0.0000 O    0  0  0  0  0  0  0  0  0  0  0  0
   -2.8965    2.5311    0.0000 C    0  0  0  0  0  0  0  0  0  0  0  0
    0.7575    0.7955    0.0000 C    0  0  3  0  0  0  0  0  0  0  0  0
   -0.0457    0.9592    0.0000 O    0  0  0  0  0  0  0  0  0  0  0  0
    0.2284    2.3484    0.0000 O    0  0  0  0  0  0  0  0  0  0  0  0
    3.4256    1.7318    0.0000 C    0  0  0  0  0  0  0  0  0  0  0  0
    2.8928    1.0924    0.0000 C    0  0  0  0  0  0  0  0  0  0  0  0
   -2.8965    1.7090    0.0000 Cl   0  0  0  0  0  0  0  0  0  0  0  0
   -2.8965    4.1907    0.0000 C    0  0  0  0  0  0  0  0  0  0  0  0
    2.1049    1.2522    0.0000 C    0  0  0  0  0  0  0  0  0  0  0  0
   -3.6159    3.7720    0.0000 C    0  0  0  0  0  0  0  0  0  0  0  0
    1.5568    0.6356    0.0000 C    0  0  0  0  0  0  0  0  0  0  0  0
   -3.6159    2.9536    0.0000 C    0  0  0  0  0  0  0  0  0  0  0  0
    0.9173    1.5986    0.0000 C    0  0  0  0  0  0  0  0  0  0  0  0
    4.2478    1.5644    0.0000 C    0  0  0  0  0  0  0  0  0  0  0  0
    3.1516    2.5121    0.0000 C    0  0  0  0  0  0  0  0  0  0  0  0
  2  1  1  0  0  0  0
  3  1  1  0  0  0  0
  4  2  1  0  0  0  0
  5  3  1  0  0  0  0
  5  4  1  0  0  0  0
  6  1  1  0  0  0  0
  7  6  1  0  0  0  0
  8 12  1  0  0  0  0
  9  8  3  0  0  0  0
 10  2  2  0  0  0  0
 11  3  2  0  0  0  0
 12 13  1  0  0  0  0
 13  7  1  0  0  0  0
 14  7  2  0  0  0  0
 15 16  2  0  0  0  0
 16 19  1  0  0  0  0
 17 11  1  0  0  0  0
 18  5  2  0  0  0  0
 18 20  1  0  0  0  0
 19 21  1  0  0  0  0
 20 22  2  0  0  0  0
 21 12  1  0  0  0  0
 22 11  1  0  0  0  0
 23 12  1  0  0  0  0
 24 15  1  0  0  0  0
 25 15  1  0  0  0  0
M  END
> <CdId>
673

> <Mol Weight>
377.885

> <Formula>
C19H20ClNO3S

> <Click_ID>
CLK009_H08 __ __ 

$$$$
