CLK044E11
 OpenBabel03181417022D

 24 25  0  0  0  0  0  0  0  0999 V2000
   -0.5051    2.4665    0.0000 S   0  0  0  0  0  0  0  0  0  0  0  0
   -0.2672   -2.7461    0.0000 S   0  0  0  0  0  0  0  0  0  0  0  0
    0.2171   -2.0783    0.0000 C   0  0  0  0  0  0  0  0  0  0  0  0
    1.0016   -3.1593    0.0000 N   0  0  0  0  0  0  0  0  0  0  0  0
    0.2171   -3.4138    0.0000 C   0  0  0  0  0  0  0  0  0  0  0  0
   -0.0376   -1.2896    0.0000 N   0  0  0  0  0  0  0  0  0  0  0  0
    1.0016   -2.3329    0.0000 N   0  0  0  0  0  0  0  0  0  0  0  0
    0.5134   -0.6760    0.0000 C   0  0  0  0  0  0  0  0  0  0  0  0
   -0.2504    1.6819    0.0000 C   0  0  0  0  0  0  0  0  0  0  0  0
   -0.4633    4.6491    0.0000 C   0  0  0  0  0  0  0  0  0  0  0  0
   -0.7178    5.4338    0.0000 C   0  0  0  0  0  0  0  0  0  0  0  0
    0.2797    2.7211    0.0000 O   0  0  0  0  0  0  0  0  0  0  0  0
   -1.2938    2.2118    0.0000 O   0  0  0  0  0  0  0  0  0  0  0  0
    0.2587    0.1085    0.0000 C   0  0  0  0  0  0  0  0  0  0  0  0
   -0.7637    3.2510    0.0000 N   0  0  0  0  0  0  0  0  0  0  0  0
    1.3229   -0.8471    0.0000 O   0  0  0  0  0  0  0  0  0  0  0  0
   -0.8055    1.0684    0.0000 C   0  0  0  0  0  0  0  0  0  0  0  0
    0.5551    1.5107    0.0000 C   0  0  0  0  0  0  0  0  0  0  0  0
   -0.5509    0.2797    0.0000 C   0  0  0  0  0  0  0  0  0  0  0  0
    0.8138    0.7219    0.0000 C   0  0  0  0  0  0  0  0  0  0  0  0
   -0.0376   -4.1985    0.0000 C   0  0  0  0  0  0  0  0  0  0  0  0
   -0.2087    3.8645    0.0000 C   0  0  0  0  0  0  0  0  0  0  0  0
    0.5134   -4.8119    0.0000 C   0  0  0  0  0  0  0  0  0  0  0  0
   -0.8471   -4.3738    0.0000 C   0  0  0  0  0  0  0  0  0  0  0  0
  2  3  1  0  0  0  0
  3  6  1  0  0  0  0
  4  7  1  0  0  0  0
  4  5  2  0  0  0  0
  5  2  1  0  0  0  0
  6  8  1  0  0  0  0
  7  3  2  0  0  0  0
  8 14  1  0  0  0  0
  9  1  1  0  0  0  0
 10 22  1  0  0  0  0
 11 10  3  0  0  0  0
 12  1  2  0  0  0  0
 13  1  2  0  0  0  0
 14 19  2  0  0  0  0
 15  1  1  0  0  0  0
 16  8  2  0  0  0  0
 17  9  2  0  0  0  0
 18  9  1  0  0  0  0
 19 17  1  0  0  0  0
 20 18  2  0  0  0  0
 20 14  1  0  0  0  0
 21  5  1  0  0  0  0
 22 15  1  0  0  0  0
 23 21  1  0  0  0  0
 24 21  1  0  0  0  0
M  END
> <CdId>
3405

> <Mol Weight>
364.443

> <Formula>
C15H16N4O3S2

> <Click_ID>
CLK044E11 __ __ 

$$$$
