CLK005_F03
 OpenBabel03181417022D

 30 33  0  0  0  0  0  0  0  0999 V2000
    0.7929   -0.0897    0.0000 C   0  0  3  0  0  0  0  0  0  0  0  0
    1.4617   -0.5689    0.0000 C   0  0  3  0  0  0  0  0  0  0  0  0
    0.1310   -0.5689    0.0000 C   0  0  3  0  0  0  0  0  0  0  0  0
    1.0342    1.1687    0.0000 O   0  0  0  0  0  0  0  0  0  0  0  0
   -0.0069    0.1310    0.0000 C   0  0  0  0  0  0  0  0  0  0  0  0
    2.0478    0.0207    0.0000 C   0  0  3  0  0  0  0  0  0  0  0  0
    1.2066   -1.3549    0.0000 C   0  0  0  0  0  0  0  0  0  0  0  0
    0.3827   -1.3549    0.0000 N   0  0  0  0  0  0  0  0  0  0  0  0
   -0.6515   -0.3171    0.0000 C   0  0  0  0  0  0  0  0  0  0  0  0
    1.3721    0.5068    0.0000 C   0  0  3  0  0  0  0  0  0  0  0  0
    0.5723    0.7205    0.0000 C   0  0  0  0  0  0  0  0  0  0  0  0
    2.8683    0.0862    0.0000 C   0  0  0  0  0  0  0  0  0  0  0  0
    1.6927   -2.0271    0.0000 O   0  0  0  0  0  0  0  0  0  0  0  0
   -0.1000   -2.0271    0.0000 C   0  0  0  0  0  0  0  0  0  0  0  0
   -1.2687   -0.8688    0.0000 N   0  0  0  0  0  0  0  0  0  0  0  0
   -0.8274    0.4861    0.0000 O   0  0  0  0  0  0  0  0  0  0  0  0
    3.2199    0.8308    0.0000 N   0  0  0  0  0  0  0  0  0  0  0  0
    3.3337   -0.5896    0.0000 O   0  0  0  0  0  0  0  0  0  0  0  0
    0.2309   -2.7683    0.0000 C   0  0  0  0  0  0  0  0  0  0  0  0
   -2.0512   -0.6170    0.0000 C   0  0  0  0  0  0  0  0  0  0  0  0
    4.0335    0.9067    0.0000 C   0  0  0  0  0  0  0  0  0  0  0  0
   -0.2516   -3.4370    0.0000 C   0  0  0  0  0  0  0  0  0  0  0  0
   -2.2270    0.1931    0.0000 C   0  0  0  0  0  0  0  0  0  0  0  0
   -1.6134    0.7446    0.0000 C   0  0  0  0  0  0  0  0  0  0  0  0
   -3.0061    0.4447    0.0000 C   0  0  0  0  0  0  0  0  0  0  0  0
   -1.7789    1.5444    0.0000 C   0  0  0  0  0  0  0  0  0  0  0  0
   -3.1785    1.2445    0.0000 C   0  0  0  0  0  0  0  0  0  0  0  0
   -2.5649    1.7995    0.0000 C   0  0  0  0  0  0  0  0  0  0  0  0
   -2.7372    2.6062    0.0000 O   0  0  0  0  0  0  0  0  0  0  0  0
   -2.1271    3.1613    0.0000 C   0  0  0  0  0  0  0  0  0  0  0  0
  1  2  1  0  0  0  0
  1  3  1  0  0  0  0
  1  4  1  0  0  0  0
  1  5  1  0  0  0  0
  2  6  1  0  0  0  0
  2  7  1  0  0  0  0
  3  8  1  0  0  0  0
  3  9  1  0  0  0  0
  4 10  1  0  0  0  0
  5 11  2  0  0  0  0
  6 12  1  0  0  0  0
  6 10  1  0  0  0  0
  7 13  2  0  0  0  0
  7  8  1  0  0  0  0
  8 14  1  0  0  0  0
  9 15  1  0  0  0  0
  9 16  2  0  0  0  0
 10 11  1  0  0  0  0
 12 17  1  0  0  0  0
 12 18  2  0  0  0  0
 14 19  1  0  0  0  0
 15 20  1  0  0  0  0
 17 21  1  0  0  0  0
 19 22  3  0  0  0  0
 20 23  1  0  0  0  0
 23 24  2  0  0  0  0
 23 25  1  0  0  0  0
 24 26  1  0  0  0  0
 25 27  2  0  0  0  0
 26 28  2  0  0  0  0
 27 28  1  0  0  0  0
 28 29  1  0  0  0  0
 29 30  1  0  0  0  0
M  END
> <CdId>
372

> <Mol Weight>
409.4351

> <Formula>
C22H23N3O5

> <Click_ID>
CLK005_F03 __ __ 

$$$$
