CLK018_B07
 OpenBabel03181417022D

 25 27  0  0  0  0  0  0  0  0999 V2000
    1.5629   -0.8147    0.0000 N   0  0  0  0  0  0  0  0  0  0  0  0
    1.8205   -1.6003    0.0000 C   0  0  0  0  0  0  0  0  0  0  0  0
    2.8971   -0.8147    0.0000 C   0  0  0  0  0  0  0  0  0  0  0  0
    2.2320   -0.3284    0.0000 C   0  0  0  0  0  0  0  0  0  0  0  0
    2.6435   -1.6003    0.0000 S   0  0  0  0  0  0  0  0  0  0  0  0
    3.6827   -0.5611    0.0000 C   0  0  0  0  0  0  0  0  0  0  0  0
    3.8530    0.2452    0.0000 C   0  0  0  0  0  0  0  0  0  0  0  0
    4.6054    0.5819    0.0000 N   0  0  0  0  0  0  0  0  0  0  0  0
    0.6110    0.2452    0.0000 C   0  0  0  0  0  0  0  0  0  0  0  0
    5.3286    0.1746    0.0000 C   0  0  0  0  0  0  0  0  0  0  0  0
    0.3907    1.0432    0.0000 C   0  0  0  0  0  0  0  0  0  0  0  0
    4.5181    1.4048    0.0000 C   0  0  0  0  0  0  0  0  0  0  0  0
    1.3342   -2.2611    0.0000 O   0  0  0  0  0  0  0  0  0  0  0  0
    3.2961    0.8604    0.0000 C   0  0  0  0  0  0  0  0  0  0  0  0
    2.2237    0.4946    0.0000 O   0  0  0  0  0  0  0  0  0  0  0  0
    3.7076    1.5794    0.0000 C   0  0  0  0  0  0  0  0  0  0  0  0
    0.7856   -0.5611    0.0000 C   0  0  0  0  0  0  0  0  0  0  0  0
    6.7501   -0.6526    0.0000 C   0  0  0  0  0  0  0  0  0  0  0  0
    7.4609   -1.0641    0.0000 N   0  0  0  0  0  0  0  0  0  0  0  0
    5.3244   -0.6526    0.0000 C   0  0  0  0  0  0  0  0  0  0  0  0
    6.0394    0.5861    0.0000 C   0  0  0  0  0  0  0  0  0  0  0  0
    6.0352   -1.0641    0.0000 C   0  0  0  0  0  0  0  0  0  0  0  0
    6.7501    0.1704    0.0000 C   0  0  0  0  0  0  0  0  0  0  0  0
    7.4609   -1.8995    0.0000 C   0  0  0  0  0  0  0  0  0  0  0  0
    8.1799   -0.6526    0.0000 C   0  0  0  0  0  0  0  0  0  0  0  0
  2  1  1  0  0  0  0
  3  4  1  0  0  0  0
  3  5  1  0  0  0  0
  4  1  1  0  0  0  0
  5  2  1  0  0  0  0
  6  3  2  0  0  0  0
  7  6  1  0  0  0  0
  8  7  1  0  0  0  0
  9 17  1  0  0  0  0
 10  8  1  0  0  0  0
 11  9  3  0  0  0  0
 12  8  1  0  0  0  0
 12 16  2  0  0  0  0
 13  2  2  0  0  0  0
 14  7  2  0  0  0  0
 15  4  2  0  0  0  0
 16 14  1  0  0  0  0
 17  1  1  0  0  0  0
 18 23  1  0  0  0  0
 19 18  1  0  0  0  0
 20 10  2  0  0  0  0
 21 10  1  0  0  0  0
 22 20  1  0  0  0  0
 22 18  2  0  0  0  0
 23 21  2  0  0  0  0
 24 19  1  0  0  0  0
 25 19  1  0  0  0  0
M  END
> <CdId>
1332

> <Mol Weight>
351.422

> <Formula>
C19H17N3O2S

> <Click_ID>
CLK018_B07 __ __ 

$$$$
