CLK008_D04
 OpenBabel03181417022D

 27 29  0  0  0  0  0  0  0  0999 V2000
    0.0138   -1.9997    0.0000 C    0  0  0  0  0  0  0  0  0  0  0  0
    0.0241   -2.8326    0.0000 C    0  0  0  0  0  0  0  0  0  0  0  0
   -0.6229   -1.4972    0.0000 N    0  0  0  0  0  0  0  0  0  0  0  0
    0.7021   -1.5488    0.0000 O    0  0  0  0  0  0  0  0  0  0  0  0
    0.7331   -3.2422    0.0000 C    0  0  0  0  0  0  0  0  0  0  0  0
   -0.6953   -3.2422    0.0000 C    0  0  0  0  0  0  0  0  0  0  0  0
   -0.3270   -0.7227    0.0000 C    0  0  0  0  0  0  0  0  0  0  0  0
    0.4853   -0.7607    0.0000 C    0  0  0  0  0  0  0  0  0  0  0  0
    0.7262   -4.0717    0.0000 C    0  0  0  0  0  0  0  0  0  0  0  0
   -0.6953   -4.0717    0.0000 C    0  0  0  0  0  0  0  0  0  0  0  0
   -0.7847   -0.0241    0.0000 C    0  0  0  0  0  0  0  0  0  0  0  0
    0.9981   -0.1032    0.0000 O    0  0  0  0  0  0  0  0  0  0  0  0
    0.0138   -4.4813    0.0000 C    0  0  0  0  0  0  0  0  0  0  0  0
    1.4387   -4.4813    0.0000 Cl   0  0  0  0  0  0  0  0  0  0  0  0
   -0.3993    0.7125    0.0000 C    0  0  0  0  0  0  0  0  0  0  0  0
   -0.8570    1.4112    0.0000 C    0  0  0  0  0  0  0  0  0  0  0  0
    0.4130    0.7607    0.0000 C    0  0  0  0  0  0  0  0  0  0  0  0
   -0.4853    2.1477    0.0000 C    0  0  0  0  0  0  0  0  0  0  0  0
    0.7985    1.4938    0.0000 C    0  0  0  0  0  0  0  0  0  0  0  0
    0.3408    2.1925    0.0000 C    0  0  0  0  0  0  0  0  0  0  0  0
   -0.9328    2.8292    0.0000 O    0  0  0  0  0  0  0  0  0  0  0  0
    0.7125    2.9290    0.0000 O    0  0  0  0  0  0  0  0  0  0  0  0
   -1.7553    2.7879    0.0000 C    0  0  0  0  0  0  0  0  0  0  0  0
    0.2650    3.6139    0.0000 C    0  0  0  0  0  0  0  0  0  0  0  0
   -2.2062    3.4763    0.0000 C    0  0  0  0  0  0  0  0  0  0  0  0
    0.6402    4.3436    0.0000 C    0  0  0  0  0  0  0  0  0  0  0  0
    1.4628    4.3849    0.0000 C    0  0  0  0  0  0  0  0  0  0  0  0
  1  2  1  0  0  0  0
  1  3  2  0  0  0  0
  1  4  1  0  0  0  0
  2  5  1  0  0  0  0
  2  6  2  0  0  0  0
  3  7  1  0  0  0  0
  4  8  1  0  0  0  0
  5  9  2  0  0  0  0
  6 10  1  0  0  0  0
  7 11  2  0  0  0  0
  7  8  1  0  0  0  0
  8 12  2  0  0  0  0
  9 13  1  0  0  0  0
  9 14  1  0  0  0  0
 10 13  2  0  0  0  0
 11 15  1  0  0  0  0
 15 16  1  0  0  0  0
 15 17  2  0  0  0  0
 16 18  2  0  0  0  0
 17 19  1  0  0  0  0
 18 20  1  0  0  0  0
 18 21  1  0  0  0  0
 19 20  2  0  0  0  0
 20 22  1  0  0  0  0
 21 23  1  0  0  0  0
 22 24  1  0  0  0  0
 23 25  1  0  0  0  0
 24 26  1  0  0  0  0
 26 27  3  0  0  0  0
M  END
> <CdId>
578

> <Mol Weight>
381.809

> <Formula>
C21H16ClNO4

> <Click_ID>
CLK008_D04 __ __ 

$$$$
