CLK004_B11
 OpenBabel03181417022D

 29 32  0  0  0  0  0  0  0  0999 V2000
    0.3625   -0.4729    0.0000 C   0  0  3  0  0  0  0  0  0  0  0  0
   -0.3418   -0.8838    0.0000 C   0  0  0  0  0  0  0  0  0  0  0  0
    0.3625    0.3556    0.0000 C   0  0  0  0  0  0  0  0  0  0  0  0
    1.0736   -0.8838    0.0000 C   0  0  0  0  0  0  0  0  0  0  0  0
   -0.3418   -1.7088    0.0000 C   0  0  0  0  0  0  0  0  0  0  0  0
   -1.0528   -0.4729    0.0000 C   0  0  0  0  0  0  0  0  0  0  0  0
    1.0840    0.7663    0.0000 C   0  0  0  0  0  0  0  0  0  0  0  0
   -0.3418    0.7663    0.0000 C   0  0  0  0  0  0  0  0  0  0  0  0
    1.0736   -1.7088    0.0000 C   0  0  0  0  0  0  0  0  0  0  0  0
    1.7951   -0.4729    0.0000 C   0  0  0  0  0  0  0  0  0  0  0  0
   -1.0564   -2.1230    0.0000 C   0  0  0  0  0  0  0  0  0  0  0  0
    0.3625   -2.1230    0.0000 O   0  0  0  0  0  0  0  0  0  0  0  0
   -1.7709   -0.8838    0.0000 C   0  0  0  0  0  0  0  0  0  0  0  0
    1.0840    1.5948    0.0000 C   0  0  0  0  0  0  0  0  0  0  0  0
   -0.3521    1.5948    0.0000 C   0  0  0  0  0  0  0  0  0  0  0  0
    1.7951   -2.1230    0.0000 N   0  0  0  0  0  0  0  0  0  0  0  0
    2.5096   -0.0587    0.0000 N   0  0  0  0  0  0  0  0  0  0  0  0
   -1.7640   -1.7088    0.0000 C   0  0  0  0  0  0  0  0  0  0  0  0
   -1.0528   -2.9377    0.0000 C   0  0  0  0  0  0  0  0  0  0  0  0
    0.3694    2.0056    0.0000 C   0  0  0  0  0  0  0  0  0  0  0  0
    1.7951    2.0056    0.0000 O   0  0  0  0  0  0  0  0  0  0  0  0
   -2.4717   -2.1195    0.0000 C   0  0  0  0  0  0  0  0  0  0  0  0
   -1.7571   -3.3450    0.0000 C   0  0  0  0  0  0  0  0  0  0  0  0
    0.3625    2.8307    0.0000 O   0  0  0  0  0  0  0  0  0  0  0  0
    1.7951    2.8307    0.0000 C   0  0  0  0  0  0  0  0  0  0  0  0
   -2.4717   -2.9377    0.0000 C   0  0  0  0  0  0  0  0  0  0  0  0
   -0.3521    3.2449    0.0000 C   0  0  0  0  0  0  0  0  0  0  0  0
   -0.3521    4.0699    0.0000 C   0  0  0  0  0  0  0  0  0  0  0  0
   -0.3556    4.8984    0.0000 C   0  0  0  0  0  0  0  0  0  0  0  0
  1  2  1  0  0  0  0
  1  3  1  0  0  0  0
  1  4  1  0  0  0  0
  2  5  2  0  0  0  0
  2  6  1  0  0  0  0
  3  7  2  0  0  0  0
  3  8  1  0  0  0  0
  4  9  2  0  0  0  0
  4 10  1  0  0  0  0
  5 11  1  0  0  0  0
  5 12  1  0  0  0  0
  6 13  2  0  0  0  0
  7 14  1  0  0  0  0
  8 15  2  0  0  0  0
  9 16  1  0  0  0  0
  9 12  1  0  0  0  0
 10 17  3  0  0  0  0
 11 18  1  0  0  0  0
 11 19  2  0  0  0  0
 13 18  1  0  0  0  0
 14 20  2  0  0  0  0
 14 21  1  0  0  0  0
 15 20  1  0  0  0  0
 18 22  2  0  0  0  0
 19 23  1  0  0  0  0
 20 24  1  0  0  0  0
 21 25  1  0  0  0  0
 22 26  1  0  0  0  0
 23 26  2  0  0  0  0
 24 27  1  0  0  0  0
 27 28  1  0  0  0  0
 28 29  3  0  0  0  0
M  END
> <CdId>
260

> <Mol Weight>
382.4113

> <Formula>
C24H18N2O3

> <Click_ID>
CLK004_B11 __ __ 

$$$$
