CLK010_A09
 OpenBabel03181417022D

 34 37  0  0  0  0  0  0  0  0999 V2000
    3.4814   -6.5735    0.0000 N   0  0  0  0  0  0  0  0  0  0  0  0
    2.7668   -5.3367    0.0000 C   0  0  0  0  0  0  0  0  0  0  0  0
    3.4814   -5.7489    0.0000 C   0  0  0  0  0  0  0  0  0  0  0  0
    2.7668   -6.9857    0.0000 C   0  0  0  0  0  0  0  0  0  0  0  0
    2.0522   -6.5735    0.0000 N   0  0  0  0  0  0  0  0  0  0  0  0
    2.0522   -5.7489    0.0000 C   0  0  0  0  0  0  0  0  0  0  0  0
    2.7668   -3.8525    0.0000 C   0  0  0  0  0  0  0  0  0  0  0  0
    2.0522   -3.4402    0.0000 C   0  0  0  0  0  0  0  0  0  0  0  0
    4.1960   -6.9857    0.0000 C   0  0  0  0  0  0  0  0  0  0  0  0
    1.3376   -3.8525    0.0000 C   0  0  0  0  0  0  0  0  0  0  0  0
    6.3398   -8.2226    0.0000 C   0  0  0  0  0  0  0  0  0  0  0  0
    3.4814   -0.9666    0.0000 C   0  0  0  0  0  0  0  0  0  0  0  0
    2.7668   -7.8103    0.0000 O   0  0  0  0  0  0  0  0  0  0  0  0
    3.4814   -0.1420    0.0000 C   0  0  0  0  0  0  0  0  0  0  0  0
    4.1960   -5.3367    0.0000 O   0  0  0  0  0  0  0  0  0  0  0  0
    2.0522   -2.6157    0.0000 C   0  0  0  0  0  0  0  0  0  0  0  0
    1.3376   -5.3367    0.0000 O   0  0  0  0  0  0  0  0  0  0  0  0
    5.6252   -7.8103    0.0000 C   0  0  0  0  0  0  0  0  0  0  0  0
    7.0545   -7.8103    0.0000 O   0  0  0  0  0  0  0  0  0  0  0  0
    0.6230   -3.4402    0.0000 C   0  0  0  0  0  0  0  0  0  0  0  0
    4.1960   -7.8103    0.0000 C   0  0  0  0  0  0  0  0  0  0  0  0
    4.9106   -6.5735    0.0000 C   0  0  0  0  0  0  0  0  0  0  0  0
    4.9106   -8.2226    0.0000 C   0  0  0  0  0  0  0  0  0  0  0  0
    5.6252   -6.9857    0.0000 C   0  0  0  0  0  0  0  0  0  0  0  0
    1.3376   -2.2034    0.0000 C   0  0  0  0  0  0  0  0  0  0  0  0
    0.6230   -2.6157    0.0000 C   0  0  0  0  0  0  0  0  0  0  0  0
    6.3398   -9.0471    0.0000 O   0  0  0  0  0  0  0  0  0  0  0  0
    2.7668   -2.2034    0.0000 O   0  0  0  0  0  0  0  0  0  0  0  0
    2.7668   -1.3789    0.0000 C   0  0  0  0  0  0  0  0  0  0  0  0
    1.3376   -4.6770    0.0000 C   0  0  0  0  0  0  0  0  0  0  0  0
   -0.0916   -3.8525    0.0000 C   0  0  0  0  0  0  0  0  0  0  0  0
    7.0498   -9.4594    0.0000 C   0  0  0  0  0  0  0  0  0  0  0  0
    0.6230   -5.0893    0.0000 C   0  0  0  0  0  0  0  0  0  0  0  0
   -0.0916   -4.6770    0.0000 C   0  0  0  0  0  0  0  0  0  0  0  0
  2  3  1  0  0  0  0
  3  1  1  0  0  0  0
  4  1  1  0  0  0  0
  5  4  1  0  0  0  0
  6  5  1  0  0  0  0
  6  2  1  0  0  0  0
  7  2  2  0  0  0  0
  8  7  1  0  0  0  0
  9  1  1  0  0  0  0
 10  8  2  0  0  0  0
 11 18  1  0  0  0  0
 12 29  1  0  0  0  0
 13  4  2  0  0  0  0
 14 12  3  0  0  0  0
 15  3  2  0  0  0  0
 16  8  1  0  0  0  0
 17  6  2  0  0  0  0
 18 24  2  0  0  0  0
 19 11  2  0  0  0  0
 20 10  1  0  0  0  0
 20 26  2  0  0  0  0
 21  9  1  0  0  0  0
 22  9  2  0  0  0  0
 23 21  2  0  0  0  0
 23 18  1  0  0  0  0
 24 22  1  0  0  0  0
 25 16  2  0  0  0  0
 26 25  1  0  0  0  0
 27 11  1  0  0  0  0
 28 16  1  0  0  0  0
 29 28  1  0  0  0  0
 30 10  1  0  0  0  0
 31 20  1  0  0  0  0
 32 27  1  0  0  0  0
 33 30  2  0  0  0  0
 34 33  1  0  0  0  0
 34 31  2  0  0  0  0
M  END
> <CdId>
684

> <Mol Weight>
454.4309

> <Formula>
C26H18N2O6

> <Click_ID>
CLK010_A09 __ __ 

$$$$
