CLK028_E02
 OpenBabel03181417022D

 29 30  0  0  0  0  0  0  0  0999 V2000
   -0.3615    0.8262    0.0000 C    0  0  0  0  0  0  0  0  0  0  0  0
   -1.0844    1.2359    0.0000 C    0  0  0  0  0  0  0  0  0  0  0  0
   -1.8006    0.8262    0.0000 N    0  0  0  0  0  0  0  0  0  0  0  0
    0.3512    1.2359    0.0000 C    0  0  0  0  0  0  0  0  0  0  0  0
    2.5029   -0.0069    0.0000 C    0  0  0  0  0  0  0  0  0  0  0  0
   -2.5097    1.2359    0.0000 C    0  0  0  0  0  0  0  0  0  0  0  0
   -3.2292    0.8262    0.0000 C    0  0  0  0  0  0  0  0  0  0  0  0
   -0.3615   -0.0069    0.0000 C    0  0  0  0  0  0  0  0  0  0  0  0
    2.5029    0.8262    0.0000 C    0  0  0  0  0  0  0  0  0  0  0  0
    1.7833   -0.4166    0.0000 C    0  0  0  0  0  0  0  0  0  0  0  0
    1.0673    0.8262    0.0000 C    0  0  0  0  0  0  0  0  0  0  0  0
   -0.3753   -0.8297    0.0000 N    0  0  0  0  0  0  0  0  0  0  0  0
    3.9385   -1.6560    0.0000 C    0  0  0  0  0  0  0  0  0  0  0  0
    4.6511   -2.0691    0.0000 C    0  0  0  0  0  0  0  0  0  0  0  0
    1.7833    1.2359    0.0000 C    0  0  0  0  0  0  0  0  0  0  0  0
    1.0741   -0.0069    0.0000 C    0  0  0  0  0  0  0  0  0  0  0  0
   -1.0844    2.0621    0.0000 O    0  0  0  0  0  0  0  0  0  0  0  0
   -3.9419    1.2359    0.0000 C    0  0  0  0  0  0  0  0  0  0  0  0
    3.2189    1.2359    0.0000 Cl   0  0  0  0  0  0  0  0  0  0  0  0
    3.2155   -0.4166    0.0000 O    0  0  0  0  0  0  0  0  0  0  0  0
    1.7971   -1.2462    0.0000 O    0  0  0  0  0  0  0  0  0  0  0  0
   -4.6545    0.8262    0.0000 Cl   0  0  0  0  0  0  0  0  0  0  0  0
    3.2258   -1.2428    0.0000 C    0  0  0  0  0  0  0  0  0  0  0  0
   -2.5097    2.0725    0.0000 C    0  0  0  0  0  0  0  0  0  0  0  0
   -3.2292    0.0035    0.0000 C    0  0  0  0  0  0  0  0  0  0  0  0
   -3.2292    2.4822    0.0000 C    0  0  0  0  0  0  0  0  0  0  0  0
   -3.9419    2.0725    0.0000 C    0  0  0  0  0  0  0  0  0  0  0  0
    1.0844   -1.6560    0.0000 C    0  0  0  0  0  0  0  0  0  0  0  0
    1.0948   -2.4787    0.0000 C    0  0  0  0  0  0  0  0  0  0  0  0
  2  1  1  0  0  0  0
  3  2  1  0  0  0  0
  4  1  2  0  0  0  0
  5 10  1  0  0  0  0
  5  9  2  0  0  0  0
  6  3  1  0  0  0  0
  7  6  1  0  0  0  0
  8  1  1  0  0  0  0
  9 15  1  0  0  0  0
 10 16  2  0  0  0  0
 11  4  1  0  0  0  0
 12  8  3  0  0  0  0
 13 23  1  0  0  0  0
 14 13  3  0  0  0  0
 15 11  2  0  0  0  0
 16 11  1  0  0  0  0
 17  2  2  0  0  0  0
 18  7  2  0  0  0  0
 19  9  1  0  0  0  0
 20  5  1  0  0  0  0
 21 10  1  0  0  0  0
 22 18  1  0  0  0  0
 23 20  1  0  0  0  0
 24  6  2  0  0  0  0
 25  7  1  0  0  0  0
 26 24  1  0  0  0  0
 27 26  2  0  0  0  0
 27 18  1  0  0  0  0
 28 21  1  0  0  0  0
 29 28  1  0  0  0  0
M  END
> <CdId>
2126

> <Mol Weight>
429.296

> <Formula>
C22H18Cl2N2O3

> <Click_ID>
CLK028_E02 __ __ 

$$$$
