CLK011_E05
 OpenBabel03181417022D

 29 32  0  0  0  0  0  0  0  0999 V2000
    1.0294   -0.3668    0.0000 N    0  0  0  0  0  0  0  0  0  0  0  0
    1.7378   -1.6045    0.0000 C    0  0  0  0  0  0  0  0  0  0  0  0
    1.0294   -1.1919    0.0000 C    0  0  0  0  0  0  0  0  0  0  0  0
    1.7378    0.0458    0.0000 C    0  0  0  0  0  0  0  0  0  0  0  0
    2.4422   -0.3668    0.0000 N    0  0  0  0  0  0  0  0  0  0  0  0
    2.4422   -1.1919    0.0000 C    0  0  0  0  0  0  0  0  0  0  0  0
    2.4547   -2.8380    0.0000 C    0  0  0  0  0  0  0  0  0  0  0  0
    1.7378   -2.4297    0.0000 C    0  0  0  0  0  0  0  0  0  0  0  0
    3.7632   -3.1173    0.0000 N    0  0  0  0  0  0  0  0  0  0  0  0
    3.2048   -2.5047    0.0000 C    0  0  0  0  0  0  0  0  0  0  0  0
    2.5422   -3.6549    0.0000 C    0  0  0  0  0  0  0  0  0  0  0  0
    3.3423   -3.8299    0.0000 C    0  0  0  0  0  0  0  0  0  0  0  0
    0.3126    0.0458    0.0000 C    0  0  0  0  0  0  0  0  0  0  0  0
    5.0635   -3.7007    0.0000 C    0  0  0  0  0  0  0  0  0  0  0  0
    1.7378    0.8710    0.0000 O    0  0  0  0  0  0  0  0  0  0  0  0
    5.5052   -4.3925    0.0000 C    0  0  0  0  0  0  0  0  0  0  0  0
    0.3126   -1.6045    0.0000 O    0  0  0  0  0  0  0  0  0  0  0  0
    3.1673   -1.6045    0.0000 O    0  0  0  0  0  0  0  0  0  0  0  0
    4.5801   -3.0298    0.0000 C    0  0  0  0  0  0  0  0  0  0  0  0
   -0.4001   -0.3668    0.0000 C    0  0  0  0  0  0  0  0  0  0  0  0
    0.3126    0.8710    0.0000 C    0  0  0  0  0  0  0  0  0  0  0  0
   -1.1210    0.8710    0.0000 C    0  0  0  0  0  0  0  0  0  0  0  0
   -1.1210    0.0458    0.0000 C    0  0  0  0  0  0  0  0  0  0  0  0
   -0.4001    1.2835    0.0000 C    0  0  0  0  0  0  0  0  0  0  0  0
   -1.8336    1.2835    0.0000 Br   0  0  0  0  0  0  0  0  0  0  0  0
    3.6007   -4.6134    0.0000 C    0  0  0  0  0  0  0  0  0  0  0  0
    1.9879   -4.2675    0.0000 C    0  0  0  0  0  0  0  0  0  0  0  0
    3.0506   -5.2260    0.0000 C    0  0  0  0  0  0  0  0  0  0  0  0
    2.2421   -5.0552    0.0000 C    0  0  0  0  0  0  0  0  0  0  0  0
  2  3  1  0  0  0  0
  2  6  1  0  0  0  0
  3  1  1  0  0  0  0
  4  1  1  0  0  0  0
  5  4  1  0  0  0  0
  6  5  1  0  0  0  0
  7  8  1  0  0  0  0
  8  2  2  0  0  0  0
  9 10  1  0  0  0  0
 10  7  2  0  0  0  0
 11  7  1  0  0  0  0
 12 11  1  0  0  0  0
 12  9  1  0  0  0  0
 13  1  1  0  0  0  0
 14 19  1  0  0  0  0
 15  4  2  0  0  0  0
 16 14  3  0  0  0  0
 17  3  2  0  0  0  0
 18  6  2  0  0  0  0
 19  9  1  0  0  0  0
 20 13  1  0  0  0  0
 21 13  2  0  0  0  0
 22 24  2  0  0  0  0
 23 20  2  0  0  0  0
 23 22  1  0  0  0  0
 24 21  1  0  0  0  0
 25 22  1  0  0  0  0
 26 12  2  0  0  0  0
 27 11  2  0  0  0  0
 28 29  2  0  0  0  0
 28 26  1  0  0  0  0
 29 27  1  0  0  0  0
M  END
> <CdId>
800

> <Mol Weight>
448.269

> <Formula>
C22H14BrN3O3

> <Click_ID>
CLK011_E05 __ __ 

$$$$
