CLK051C06
 OpenBabel03181417022D

 18 18  0  0  0  0  0  0  0  0999 V2000
   -0.4375    0.8500    0.0000 C   0  0  0  0  0  0  0  0  0  0  0  0
    0.2750   -2.8625    0.0000 C   0  0  0  0  0  0  0  0  0  0  0  0
   -0.4375    1.6750    0.0000 C   0  0  0  0  0  0  0  0  0  0  0  0
   -1.1542   -0.3875    0.0000 N   0  0  0  0  0  0  0  0  0  0  0  0
    0.9917    3.3250    0.0000 C   0  0  0  0  0  0  0  0  0  0  0  0
    1.7042    3.7375    0.0000 C   0  0  0  0  0  0  0  0  0  0  0  0
   -0.4375   -0.8000    0.0000 C   0  0  0  0  0  0  0  0  0  0  0  0
   -1.1542    0.4375    0.0000 C   0  0  0  0  0  0  0  0  0  0  0  0
   -1.1542    2.0875    0.0000 O   0  0  0  0  0  0  0  0  0  0  0  0
    0.2750    0.4375    0.0000 C   0  0  0  0  0  0  0  0  0  0  0  0
   -0.4375   -1.6250    0.0000 O   0  0  0  0  0  0  0  0  0  0  0  0
    0.2750   -2.0375    0.0000 C   0  0  0  0  0  0  0  0  0  0  0  0
    0.2750    2.0875    0.0000 N   0  0  0  0  0  0  0  0  0  0  0  0
    1.1000   -2.8625    0.0000 F   0  0  0  0  0  0  0  0  0  0  0  0
   -0.5500   -2.8625    0.0000 F   0  0  0  0  0  0  0  0  0  0  0  0
    0.2750   -3.6875    0.0000 F   0  0  0  0  0  0  0  0  0  0  0  0
    0.2750   -0.3875    0.0000 C   0  0  0  0  0  0  0  0  0  0  0  0
    0.2750    2.9125    0.0000 C   0  0  0  0  0  0  0  0  0  0  0  0
  2 12  1  0  0  0  0
  3  1  1  0  0  0  0
  4  8  1  0  0  0  0
  5 18  1  0  0  0  0
  6  5  3  0  0  0  0
  7  4  2  0  0  0  0
  8  1  2  0  0  0  0
  9  3  2  0  0  0  0
 10  1  1  0  0  0  0
 11  7  1  0  0  0  0
 12 11  1  0  0  0  0
 13  3  1  0  0  0  0
 14  2  1  0  0  0  0
 15  2  1  0  0  0  0
 16  2  1  0  0  0  0
 17 10  2  0  0  0  0
 17  7  1  0  0  0  0
 18 13  1  0  0  0  0
M  END
> <CdId>
3923

> <Mol Weight>
258.1966

> <Formula>
C11H9F3N2O2

> <Click_ID>
CLK051C06 __ __ 

$$$$
