CLK002_D10
 OpenBabel03181417022D

 34 38  0  0  0  0  0  0  0  0999 V2000
   -1.2490   -1.0820    0.0000 C   0  0  0  0  0  0  0  0  0  0  0  0
   -1.2490   -0.2506    0.0000 C   0  0  0  0  0  0  0  0  0  0  0  0
   -1.9664   -1.4957    0.0000 C   0  0  0  0  0  0  0  0  0  0  0  0
   -0.5353   -1.4957    0.0000 C   0  0  0  0  0  0  0  0  0  0  0  0
   -0.5353    0.1709    0.0000 C   0  0  0  0  0  0  0  0  0  0  0  0
   -1.9703    0.1594    0.0000 C   0  0  0  0  0  0  0  0  0  0  0  0
   -1.9664   -2.3195    0.0000 C   0  0  0  0  0  0  0  0  0  0  0  0
   -2.6801   -1.0820    0.0000 C   0  0  0  0  0  0  0  0  0  0  0  0
    0.1822   -1.0781    0.0000 N   0  0  0  0  0  0  0  0  0  0  0  0
   -0.5353   -2.3195    0.0000 C   0  0  0  0  0  0  0  0  0  0  0  0
    0.1822   -0.2430    0.0000 C   0  0  3  0  0  0  0  0  0  0  0  0
   -0.5353    0.9945    0.0000 C   0  0  0  0  0  0  0  0  0  0  0  0
   -1.9779    0.9945    0.0000 C   0  0  0  0  0  0  0  0  0  0  0  0
   -1.2490   -2.7333    0.0000 C   0  0  0  0  0  0  0  0  0  0  0  0
   -2.6801   -2.7333    0.0000 C   0  0  0  0  0  0  0  0  0  0  0  0
   -3.3862   -1.4957    0.0000 C   0  0  0  0  0  0  0  0  0  0  0  0
    0.8959    0.1709    0.0000 C   0  0  0  0  0  0  0  0  0  0  0  0
   -1.2527    1.4084    0.0000 C   0  0  0  0  0  0  0  0  0  0  0  0
    0.1785    1.4122    0.0000 O   0  0  0  0  0  0  0  0  0  0  0  0
   -2.3840    0.2809    0.0000 C   0  0  0  0  0  0  0  0  0  0  0  0
   -2.6953    1.4084    0.0000 C   0  0  0  0  0  0  0  0  0  0  0  0
   -3.3862   -2.3195    0.0000 C   0  0  0  0  0  0  0  0  0  0  0  0
    0.8959    0.9984    0.0000 C   0  0  0  0  0  0  0  0  0  0  0  0
    1.6134   -0.2391    0.0000 C   0  0  0  0  0  0  0  0  0  0  0  0
    1.6134    1.4122    0.0000 C   0  0  0  0  0  0  0  0  0  0  0  0
    2.3271    0.1746    0.0000 C   0  0  0  0  0  0  0  0  0  0  0  0
    2.3271    0.9984    0.0000 C   0  0  0  0  0  0  0  0  0  0  0  0
    1.6134    2.2398    0.0000 O   0  0  0  0  0  0  0  0  0  0  0  0
    3.0445   -0.2278    0.0000 I   0  0  0  0  0  0  0  0  0  0  0  0
    3.0445    1.4122    0.0000 O   0  0  0  0  0  0  0  0  0  0  0  0
    0.8959    2.6459    0.0000 C   0  0  0  0  0  0  0  0  0  0  0  0
    3.7582    0.9984    0.0000 C   0  0  0  0  0  0  0  0  0  0  0  0
    4.4757    1.4122    0.0000 C   0  0  0  0  0  0  0  0  0  0  0  0
    5.1894    1.8259    0.0000 C   0  0  0  0  0  0  0  0  0  0  0  0
  1  2  1  0  0  0  0
  1  3  2  0  0  0  0
  1  4  1  0  0  0  0
  2  5  2  0  0  0  0
  2  6  1  0  0  0  0
  3  7  1  0  0  0  0
  3  8  1  0  0  0  0
  4  9  1  0  0  0  0
  4 10  2  0  0  0  0
  5 11  1  0  0  0  0
  5 12  1  0  0  0  0
  6 13  1  0  0  0  0
  7 14  2  0  0  0  0
  7 15  1  0  0  0  0
  8 16  2  0  0  0  0
  9 11  1  0  0  0  0
 10 14  1  0  0  0  0
 11 17  1  0  0  0  0
 12 18  1  0  0  0  0
 12 19  2  0  0  0  0
 13 20  1  0  0  0  0
 13 21  1  0  0  0  0
 13 18  1  0  0  0  0
 15 22  2  0  0  0  0
 16 22  1  0  0  0  0
 17 23  1  0  0  0  0
 17 24  2  0  0  0  0
 23 25  2  0  0  0  0
 24 26  1  0  0  0  0
 25 27  1  0  0  0  0
 25 28  1  0  0  0  0
 26 29  1  0  0  0  0
 26 27  2  0  0  0  0
 27 30  1  0  0  0  0
 28 31  1  0  0  0  0
 30 32  1  0  0  0  0
 32 33  1  0  0  0  0
 33 34  3  0  0  0  0
M  END
> <CdId>
119

> <Mol Weight>
563.4261

> <Formula>
C29H26INO3

> <Click_ID>
CLK002_D10 __ __ 

$$$$
