CLK025_D06
 OpenBabel03181417022D

 26 28  0  0  0  0  0  0  0  0999 V2000
   -0.4419    0.0842    0.0000 C    0  0  3  0  0  0  0  0  0  0  0  0
    0.0246   -0.5471    0.0000 C    0  0  0  0  0  0  0  0  0  0  0  0
   -0.4419   -1.2591    0.0000 N    0  0  0  0  0  0  0  0  0  0  0  0
   -1.2275   -0.1683    0.0000 C    0  0  0  0  0  0  0  0  0  0  0  0
   -1.2275   -0.9996    0.0000 C    0  0  0  0  0  0  0  0  0  0  0  0
    0.4034    0.8558    0.0000 C    0  0  3  0  0  0  0  0  0  0  0  0
    1.3643    0.6839    0.0000 C    0  0  0  0  0  0  0  0  0  0  0  0
   -0.7014   -2.6620    0.0000 C    0  0  0  0  0  0  0  0  0  0  0  0
   -1.9465   -1.4099    0.0000 C    0  0  0  0  0  0  0  0  0  0  0  0
   -1.2380   -3.2898    0.0000 C    0  0  0  0  0  0  0  0  0  0  0  0
    0.8137   -0.6208    0.0000 O    0  0  0  0  0  0  0  0  0  0  0  0
   -1.9465    0.2420    0.0000 C    0  0  0  0  0  0  0  0  0  0  0  0
    1.8693    1.3363    0.0000 C    0  0  0  0  0  0  0  0  0  0  0  0
    1.6379    0.0982    0.0000 O    0  0  0  0  0  0  0  0  0  0  0  0
   -0.1614   -2.0307    0.0000 C    0  0  0  0  0  0  0  0  0  0  0  0
   -0.8382    0.9575    0.0000 O    0  0  0  0  0  0  0  0  0  0  0  0
    2.6866    1.2241    0.0000 C    0  0  0  0  0  0  0  0  0  0  0  0
    1.5537    2.0974    0.0000 C    0  0  0  0  0  0  0  0  0  0  0  0
   -2.6620   -0.1683    0.0000 C    0  0  0  0  0  0  0  0  0  0  0  0
   -2.6620   -0.9996    0.0000 C    0  0  0  0  0  0  0  0  0  0  0  0
    2.8760    2.6410    0.0000 C    0  0  0  0  0  0  0  0  0  0  0  0
    0.1508    1.7256    0.0000 C    0  0  0  0  0  0  0  0  0  0  0  0
    3.1845    1.8764    0.0000 C    0  0  0  0  0  0  0  0  0  0  0  0
    2.0587    2.7497    0.0000 C    0  0  0  0  0  0  0  0  0  0  0  0
   -3.3775    0.2350    0.0000 Br   0  0  0  0  0  0  0  0  0  0  0  0
    3.3739    3.2933    0.0000 Cl   0  0  0  0  0  0  0  0  0  0  0  0
  2  1  1  0  0  0  0
  3  2  1  0  0  0  0
  3  5  1  0  0  0  0
  4  1  1  0  0  0  0
  5  4  2  0  0  0  0
  6  1  1  0  0  0  0
  7  6  1  0  0  0  0
  8 15  1  0  0  0  0
  9  5  1  0  0  0  0
  9 20  2  0  0  0  0
 10  8  3  0  0  0  0
 11  2  2  0  0  0  0
 12  4  1  0  0  0  0
 13  7  1  0  0  0  0
 14  7  2  0  0  0  0
 15  3  1  0  0  0  0
 16  1  1  0  0  0  0
 17 13  1  0  0  0  0
 18 13  2  0  0  0  0
 19 12  2  0  0  0  0
 20 19  1  0  0  0  0
 21 24  2  0  0  0  0
 21 23  1  0  0  0  0
 22  6  1  0  0  0  0
 23 17  2  0  0  0  0
 24 18  1  0  0  0  0
 25 19  1  0  0  0  0
 26 21  1  0  0  0  0
M  END
> <CdId>
1891

> <Mol Weight>
432.695

> <Formula>
C20H15BrClNO3

> <Click_ID>
CLK025_D06 __ __ 

$$$$
