CLK011_B03
 OpenBabel03181417022D

 28 30  0  0  0  0  0  0  0  0999 V2000
    4.4696   -2.4198    0.0000 N    0  0  0  0  0  0  0  0  0  0  0  0
    3.8085   -2.9063    0.0000 C    0  0  0  0  0  0  0  0  0  0  0  0
    4.8812   -3.6921    0.0000 C    0  0  0  0  0  0  0  0  0  0  0  0
    5.1390   -2.9063    0.0000 C    0  0  0  0  0  0  0  0  0  0  0  0
    4.0580   -3.6921    0.0000 S    0  0  0  0  0  0  0  0  0  0  0  0
    5.3677   -4.3573    0.0000 C    0  0  0  0  0  0  0  0  0  0  0  0
    5.0309   -5.1057    0.0000 C    0  0  0  0  0  0  0  0  0  0  0  0
    3.0227   -2.6485    0.0000 N    0  0  0  0  0  0  0  0  0  0  0  0
    5.5132   -5.7751    0.0000 C    0  0  0  0  0  0  0  0  0  0  0  0
    5.1681   -6.5277    0.0000 C    0  0  0  0  0  0  0  0  0  0  0  0
    4.3532   -6.6150    0.0000 C    0  0  0  0  0  0  0  0  0  0  0  0
    7.6378   -6.2657    0.0000 C    0  0  0  0  0  0  0  0  0  0  0  0
    8.4568   -6.1867    0.0000 C    0  0  0  0  0  0  0  0  0  0  0  0
    2.8481   -1.8502    0.0000 C    0  0  0  0  0  0  0  0  0  0  0  0
    4.2077   -5.1930    0.0000 C    0  0  0  0  0  0  0  0  0  0  0  0
    3.8709   -5.9414    0.0000 C    0  0  0  0  0  0  0  0  0  0  0  0
    5.9248   -2.6485    0.0000 O    0  0  0  0  0  0  0  0  0  0  0  0
    2.0747   -1.5966    0.0000 C    0  0  0  0  0  0  0  0  0  0  0  0
    5.6546   -7.2012    0.0000 O    0  0  0  0  0  0  0  0  0  0  0  0
    6.3281   -5.6878    0.0000 O    0  0  0  0  0  0  0  0  0  0  0  0
    3.0477   -6.0246    0.0000 Br   0  0  0  0  0  0  0  0  0  0  0  0
    1.4636   -2.1454    0.0000 Cl   0  0  0  0  0  0  0  0  0  0  0  0
    6.8146   -6.3531    0.0000 C    0  0  0  0  0  0  0  0  0  0  0  0
    3.4676   -1.2972    0.0000 C    0  0  0  0  0  0  0  0  0  0  0  0
    1.9001   -0.7900    0.0000 C    0  0  0  0  0  0  0  0  0  0  0  0
    5.3178   -7.9496    0.0000 C    0  0  0  0  0  0  0  0  0  0  0  0
    3.2971   -0.4906    0.0000 C    0  0  0  0  0  0  0  0  0  0  0  0
    2.5113   -0.2370    0.0000 C    0  0  0  0  0  0  0  0  0  0  0  0
  2  1  2  0  0  0  0
  3  4  1  0  0  0  0
  4  1  1  0  0  0  0
  5  2  1  0  0  0  0
  5  3  1  0  0  0  0
  6  3  2  0  0  0  0
  7  6  1  0  0  0  0
  8  2  1  0  0  0  0
  9  7  2  0  0  0  0
 10  9  1  0  0  0  0
 10 11  2  0  0  0  0
 11 16  1  0  0  0  0
 12 23  1  0  0  0  0
 13 12  3  0  0  0  0
 14  8  1  0  0  0  0
 15  7  1  0  0  0  0
 16 15  2  0  0  0  0
 17  4  2  0  0  0  0
 18 14  1  0  0  0  0
 19 10  1  0  0  0  0
 20  9  1  0  0  0  0
 21 16  1  0  0  0  0
 22 18  1  0  0  0  0
 23 20  1  0  0  0  0
 24 14  2  0  0  0  0
 25 18  2  0  0  0  0
 26 19  1  0  0  0  0
 27 24  1  0  0  0  0
 28 27  2  0  0  0  0
 28 25  1  0  0  0  0
M  END
> <CdId>
768

> <Mol Weight>
477.759

> <Formula>
C20H14BrClN2O3S

> <Click_ID>
CLK011_B03 __ __ 

$$$$
