CLK033_C10
 OpenBabel03181417022D

 31 34  0  0  0  0  0  0  0  0999 V2000
   -4.5821    2.5493    0.0000 C   0  0  0  0  0  0  0  0  0  0  0  0
   -0.9955    5.4486    0.0000 S   0  0  0  0  0  0  0  0  0  0  0  0
   -3.8698    2.9825    0.0000 N   0  0  0  0  0  0  0  0  0  0  0  0
   -5.3486    2.8701    0.0000 S   0  0  0  0  0  0  0  0  0  0  0  0
   -4.6570    1.7371    0.0000 N   0  0  0  0  0  0  0  0  0  0  0  0
   -5.8818    2.2452    0.0000 C   0  0  0  0  0  0  0  0  0  0  0  0
   -5.4569    1.5454    0.0000 C   0  0  0  0  0  0  0  0  0  0  0  0
   -3.8698    3.7990    0.0000 C   0  0  0  0  0  0  0  0  0  0  0  0
   -6.7024    2.2327    0.0000 C   0  0  0  0  0  0  0  0  0  0  0  0
   -1.7121    5.0278    0.0000 C   0  0  0  0  0  0  0  0  0  0  0  0
   -0.2707    5.8527    0.0000 N   0  0  0  0  0  0  0  0  0  0  0  0
   -5.8443    0.8205    0.0000 C   0  0  0  0  0  0  0  0  0  0  0  0
   -3.2367    1.4621    0.0000 C   0  0  0  0  0  0  0  0  0  0  0  0
   -0.5832    4.7279    0.0000 O   0  0  0  0  0  0  0  0  0  0  0  0
   -1.4079    6.1650    0.0000 O   0  0  0  0  0  0  0  0  0  0  0  0
   -2.4618    1.7454    0.0000 C   0  0  0  0  0  0  0  0  0  0  0  0
   -3.1575    4.2114    0.0000 C   0  0  0  0  0  0  0  0  0  0  0  0
   -4.5821    4.2031    0.0000 O   0  0  0  0  0  0  0  0  0  0  0  0
   -4.0197    1.1955    0.0000 C   0  0  0  0  0  0  0  0  0  0  0  0
   -7.1023    1.5079    0.0000 C   0  0  0  0  0  0  0  0  0  0  0  0
   -6.6649    0.7955    0.0000 C   0  0  0  0  0  0  0  0  0  0  0  0
   -2.4368    5.4486    0.0000 C   0  0  0  0  0  0  0  0  0  0  0  0
   -1.7246    4.2031    0.0000 C   0  0  0  0  0  0  0  0  0  0  0  0
   -3.1492    5.0403    0.0000 C   0  0  0  0  0  0  0  0  0  0  0  0
   -2.4368    3.8073    0.0000 C   0  0  0  0  0  0  0  0  0  0  0  0
   -7.1398    2.9325    0.0000 C   0  0  0  0  0  0  0  0  0  0  0  0
   -0.2749    6.6899    0.0000 C   0  0  0  0  0  0  0  0  0  0  0  0
    0.4374    5.4528    0.0000 C   0  0  0  0  0  0  0  0  0  0  0  0
   -7.9146    1.4829    0.0000 C   0  0  0  0  0  0  0  0  0  0  0  0
   -7.9646    2.9117    0.0000 C   0  0  0  0  0  0  0  0  0  0  0  0
   -8.3520    2.1869    0.0000 C   0  0  0  0  0  0  0  0  0  0  0  0
  2 10  1  0  0  0  0
  3  1  2  0  0  0  0
  4  1  1  0  0  0  0
  5  1  1  0  0  0  0
  6  4  1  0  0  0  0
  6  7  2  0  0  0  0
  7  5  1  0  0  0  0
  8  3  1  0  0  0  0
  9  6  1  0  0  0  0
 10 23  2  0  0  0  0
 10 22  1  0  0  0  0
 11  2  1  0  0  0  0
 12  7  1  0  0  0  0
 13 19  1  0  0  0  0
 14  2  2  0  0  0  0
 15  2  2  0  0  0  0
 16 13  3  0  0  0  0
 17  8  1  0  0  0  0
 18  8  2  0  0  0  0
 19  5  1  0  0  0  0
 20  9  1  0  0  0  0
 21 12  2  0  0  0  0
 21 20  1  0  0  0  0
 22 24  2  0  0  0  0
 23 25  1  0  0  0  0
 24 17  1  0  0  0  0
 25 17  2  0  0  0  0
 26  9  2  0  0  0  0
 27 11  1  0  0  0  0
 28 11  1  0  0  0  0
 29 20  2  0  0  0  0
 29 31  1  0  0  0  0
 30 26  1  0  0  0  0
 31 30  2  0  0  0  0
M  END
> <CdId>
2514

> <Mol Weight>
449.545

> <Formula>
C23H19N3O3S2

> <Click_ID>
CLK033_C10 __ __ 

$$$$
