CLK047A03
 OpenBabel03181417022D

 22 23  0  0  0  0  0  0  0  0999 V2000
    0.3208   -0.6000    0.0000 S   0  0  0  0  0  0  0  0  0  0  0  0
    1.0375   -0.1875    0.0000 C   0  0  0  0  0  0  0  0  0  0  0  0
   -0.3917   -1.0125    0.0000 N   0  0  0  0  0  0  0  0  0  0  0  0
    1.0375    0.6375    0.0000 C   0  0  0  0  0  0  0  0  0  0  0  0
    1.7500    1.0500    0.0000 C   0  0  0  0  0  0  0  0  0  0  0  0
    1.7500    1.8750    0.0000 C   0  0  0  0  0  0  0  0  0  0  0  0
   -3.2500   -1.0125    0.0000 C   0  0  0  0  0  0  0  0  0  0  0  0
   -0.0917    0.1167    0.0000 O   0  0  0  0  0  0  0  0  0  0  0  0
    0.7333   -1.3125    0.0000 O   0  0  0  0  0  0  0  0  0  0  0  0
   -3.9625   -1.4250    0.0000 C   0  0  0  0  0  0  0  0  0  0  0  0
    1.7500   -0.6000    0.0000 C   0  0  0  0  0  0  0  0  0  0  0  0
   -1.1083   -0.6000    0.0000 C   0  0  0  0  0  0  0  0  0  0  0  0
    1.0375    2.2875    0.0000 O   0  0  0  0  0  0  0  0  0  0  0  0
    2.4667    0.6375    0.0000 C   0  0  0  0  0  0  0  0  0  0  0  0
    2.4667   -0.1875    0.0000 C   0  0  0  0  0  0  0  0  0  0  0  0
   -2.5333   -0.6000    0.0000 C   0  0  0  0  0  0  0  0  0  0  0  0
   -1.8208   -1.0125    0.0000 C   0  0  0  0  0  0  0  0  0  0  0  0
    2.4667    2.2875    0.0000 O   0  0  0  0  0  0  0  0  0  0  0  0
   -1.8208    0.6375    0.0000 C   0  0  0  0  0  0  0  0  0  0  0  0
   -1.1083    0.2250    0.0000 C   0  0  0  0  0  0  0  0  0  0  0  0
    1.7500   -1.4250    0.0000 C   0  0  0  0  0  0  0  0  0  0  0  0
   -2.5333    0.2250    0.0000 C   0  0  0  0  0  0  0  0  0  0  0  0
  2  1  1  0  0  0  0
  3  1  1  0  0  0  0
  4  2  1  0  0  0  0
  5  4  2  0  0  0  0
  5 14  1  0  0  0  0
  6  5  1  0  0  0  0
  7 16  1  0  0  0  0
  8  1  2  0  0  0  0
  9  1  2  0  0  0  0
 10  7  3  0  0  0  0
 11  2  2  0  0  0  0
 12  3  1  0  0  0  0
 13  6  2  0  0  0  0
 14 15  2  0  0  0  0
 15 11  1  0  0  0  0
 16 17  1  0  0  0  0
 17 12  2  0  0  0  0
 18  6  1  0  0  0  0
 19 20  2  0  0  0  0
 20 12  1  0  0  0  0
 21 11  1  0  0  0  0
 22 16  2  0  0  0  0
 22 19  1  0  0  0  0
M  END
> <CdId>
3577

> <Mol Weight>
315.344

> <Formula>
C16H13NO4S

> <Click_ID>
CLK047A03 __ __ 

$$$$
