CLK044E09
 OpenBabel03181417022D

 20 20  0  0  0  0  0  0  0  0999 V2000
   -0.2875    1.6917    0.0000 S   0  0  0  0  0  0  0  0  0  0  0  0
   -0.2875   -1.6083    0.0000 C   0  0  0  0  0  0  0  0  0  0  0  0
   -0.2875    0.8667    0.0000 C   0  0  0  0  0  0  0  0  0  0  0  0
    0.4250   -2.0208    0.0000 N   0  0  0  0  0  0  0  0  0  0  0  0
    0.4250    3.7542    0.0000 C   0  0  0  0  0  0  0  0  0  0  0  0
    0.4250    4.5750    0.0000 C   0  0  0  0  0  0  0  0  0  0  0  0
   -1.1125    1.6917    0.0000 O   0  0  0  0  0  0  0  0  0  0  0  0
    0.5375    1.6917    0.0000 O   0  0  0  0  0  0  0  0  0  0  0  0
   -0.2875   -0.7833    0.0000 C   0  0  0  0  0  0  0  0  0  0  0  0
   -0.2875    2.5167    0.0000 N   0  0  0  0  0  0  0  0  0  0  0  0
   -1.0042   -2.0208    0.0000 O   0  0  0  0  0  0  0  0  0  0  0  0
    0.4250    0.4542    0.0000 C   0  0  0  0  0  0  0  0  0  0  0  0
   -1.0042    0.4542    0.0000 C   0  0  0  0  0  0  0  0  0  0  0  0
    0.4250   -0.3708    0.0000 C   0  0  0  0  0  0  0  0  0  0  0  0
   -1.0042   -0.3708    0.0000 C   0  0  0  0  0  0  0  0  0  0  0  0
    0.4250    2.9292    0.0000 C   0  0  0  0  0  0  0  0  0  0  0  0
    0.4250   -2.8458    0.0000 C   0  0  3  0  0  0  0  0  0  0  0  0
    1.1417   -3.2583    0.0000 C   0  0  0  0  0  0  0  0  0  0  0  0
   -0.2875   -3.2583    0.0000 C   0  0  0  0  0  0  0  0  0  0  0  0
    1.1417   -4.0833    0.0000 C   0  0  0  0  0  0  0  0  0  0  0  0
  2  9  1  0  0  0  0
  3  1  1  0  0  0  0
  4  2  1  0  0  0  0
  5 16  1  0  0  0  0
  6  5  3  0  0  0  0
  7  1  2  0  0  0  0
  8  1  2  0  0  0  0
  9 15  2  0  0  0  0
 10  1  1  0  0  0  0
 11  2  2  0  0  0  0
 12  3  1  0  0  0  0
 13  3  2  0  0  0  0
 14 12  2  0  0  0  0
 14  9  1  0  0  0  0
 15 13  1  0  0  0  0
 16 10  1  0  0  0  0
 17  4  1  0  0  0  0
 18 17  1  0  0  0  0
 19 17  1  0  0  0  0
 20 18  1  0  0  0  0
M  END
> <CdId>
3389

> <Mol Weight>
294.369

> <Formula>
C14H18N2O3S

> <Click_ID>
CLK044E09 __ __ 

$$$$
