CLK051D09
 OpenBabel03181417022D

 19 20  0  0  0  0  0  0  0  0999 V2000
   -0.4083    3.0583    0.0000 N   0  0  0  0  0  0  0  0  0  0  0  0
    0.2625    2.5750    0.0000 C   0  0  0  0  0  0  0  0  0  0  0  0
   -0.4542   -1.9625    0.0000 C   0  0  0  0  0  0  0  0  0  0  0  0
    0.9750   -3.6125    0.0000 C   0  0  0  0  0  0  0  0  0  0  0  0
    1.6917   -4.0250    0.0000 C   0  0  0  0  0  0  0  0  0  0  0  0
    0.6750    3.8458    0.0000 S   0  0  0  0  0  0  0  0  0  0  0  0
   -0.1500    3.8458    0.0000 C   0  0  0  0  0  0  0  0  0  0  0  0
   -0.4542   -1.1375    0.0000 C   0  0  0  0  0  0  0  0  0  0  0  0
    0.9292    3.0583    0.0000 C   0  0  0  0  0  0  0  0  0  0  0  0
   -1.1667   -2.3750    0.0000 O   0  0  0  0  0  0  0  0  0  0  0  0
    0.2625   -2.3750    0.0000 N   0  0  0  0  0  0  0  0  0  0  0  0
    0.2625   -0.7250    0.0000 C   0  0  0  0  0  0  0  0  0  0  0  0
   -1.1667   -0.7250    0.0000 C   0  0  0  0  0  0  0  0  0  0  0  0
    0.2625    1.7500    0.0000 C   0  0  0  0  0  0  0  0  0  0  0  0
   -0.4542    1.3375    0.0000 O   0  0  0  0  0  0  0  0  0  0  0  0
   -0.4542    0.5125    0.0000 C   0  0  0  0  0  0  0  0  0  0  0  0
   -1.1667    0.1000    0.0000 C   0  0  0  0  0  0  0  0  0  0  0  0
    0.2625    0.1000    0.0000 C   0  0  0  0  0  0  0  0  0  0  0  0
    0.2625   -3.2000    0.0000 C   0  0  0  0  0  0  0  0  0  0  0  0
  2  1  1  0  0  0  0
  3  8  1  0  0  0  0
  4 19  1  0  0  0  0
  5  4  3  0  0  0  0
  6  7  1  0  0  0  0
  6  9  1  0  0  0  0
  7  1  2  0  0  0  0
  8 13  2  0  0  0  0
  9  2  2  0  0  0  0
 10  3  2  0  0  0  0
 11  3  1  0  0  0  0
 12 18  2  0  0  0  0
 12  8  1  0  0  0  0
 13 17  1  0  0  0  0
 14  2  1  0  0  0  0
 15 14  1  0  0  0  0
 16 15  1  0  0  0  0
 17 16  2  0  0  0  0
 18 16  1  0  0  0  0
 19 11  1  0  0  0  0
M  END
> <CdId>
3948

> <Mol Weight>
272.322

> <Formula>
C14H12N2O2S

> <Click_ID>
CLK051D09 __ __ 

$$$$
