CLK022_E03
 OpenBabel03181417022D

 21 21  0  0  0  0  0  0  0  0999 V2000
    3.6738    2.5789    0.0000 S   0  0  0  0  0  0  0  0  0  0  0  0
    4.4984    2.5789    0.0000 C   0  0  0  0  0  0  0  0  0  0  0  0
    3.4677    3.3760    0.0000 N   0  0  0  0  0  0  0  0  0  0  0  0
    4.9106    1.8643    0.0000 C   0  0  0  0  0  0  0  0  0  0  0  0
    2.6706    4.4022    0.0000 C   0  0  0  0  0  0  0  0  0  0  0  0
    2.8630    2.4324    0.0000 O   0  0  0  0  0  0  0  0  0  0  0  0
    3.7517    1.7544    0.0000 O   0  0  0  0  0  0  0  0  0  0  0  0
    4.9106    3.2936    0.0000 C   0  0  0  0  0  0  0  0  0  0  0  0
    2.6706    5.2267    0.0000 C   0  0  0  0  0  0  0  0  0  0  0  0
    5.7352    1.8643    0.0000 C   0  0  0  0  0  0  0  0  0  0  0  0
    2.6706    3.5959    0.0000 C   0  0  0  0  0  0  0  0  0  0  0  0
    6.1475    2.5789    0.0000 C   0  0  0  0  0  0  0  0  0  0  0  0
    5.7352    3.2936    0.0000 C   0  0  0  0  0  0  0  0  0  0  0  0
    4.4984    1.1497    0.0000 O   0  0  0  0  0  0  0  0  0  0  0  0
    6.9720    2.5789    0.0000 O   0  0  0  0  0  0  0  0  0  0  0  0
    1.8461    3.6646    0.0000 C   0  0  0  0  0  0  0  0  0  0  0  0
    2.5195    2.7713    0.0000 C   0  0  0  0  0  0  0  0  0  0  0  0
    4.9106    0.4351    0.0000 C   0  0  0  0  0  0  0  0  0  0  0  0
    7.3843    3.2936    0.0000 C   0  0  0  0  0  0  0  0  0  0  0  0
    1.7499    2.4965    0.0000 C   0  0  0  0  0  0  0  0  0  0  0  0
    1.4979    4.4022    0.0000 C   0  0  0  0  0  0  0  0  0  0  0  0
  2  1  1  0  0  0  0
  3  1  1  0  0  0  0
  4  2  2  0  0  0  0
  5 11  1  0  0  0  0
  6  1  2  0  0  0  0
  7  1  2  0  0  0  0
  8  2  1  0  0  0  0
  9  5  3  0  0  0  0
 10  4  1  0  0  0  0
 11  3  1  0  0  0  0
 12 13  1  0  0  0  0
 12 10  2  0  0  0  0
 13  8  2  0  0  0  0
 14  4  1  0  0  0  0
 15 12  1  0  0  0  0
 16 11  1  0  0  0  0
 17 11  1  0  0  0  0
 18 14  1  0  0  0  0
 19 15  1  0  0  0  0
 20 17  1  0  0  0  0
 21 16  1  0  0  0  0
M  END
> <CdId>
1670

> <Mol Weight>
311.397

> <Formula>
C15H21NO4S

> <Click_ID>
CLK022_E03 __ __ 

$$$$
