CLK026_D09
 OpenBabel03181417022D

 26 28  0  0  0  0  0  0  0  0999 V2000
   -2.9143   -0.2192    0.0000 N   0  0  0  0  0  0  0  0  0  0  0  0
    0.7568   -0.5102    0.0000 N   0  0  0  0  0  0  0  0  0  0  0  0
   -3.2362   -0.9794    0.0000 C   0  0  0  0  0  0  0  0  0  0  0  0
   -1.9109   -1.0993    0.0000 C   0  0  0  0  0  0  0  0  0  0  0  0
   -2.0924   -0.2945    0.0000 C   0  0  0  0  0  0  0  0  0  0  0  0
   -0.4966   -0.9178    0.0000 C   0  0  0  0  0  0  0  0  0  0  0  0
    0.2603    0.1541    0.0000 C   0  0  0  0  0  0  0  0  0  0  0  0
   -2.6163   -1.5273    0.0000 S   0  0  0  0  0  0  0  0  0  0  0  0
    0.2842   -1.1780    0.0000 C   0  0  0  0  0  0  0  0  0  0  0  0
   -1.1506   -1.4212    0.0000 C   0  0  0  0  0  0  0  0  0  0  0  0
   -0.5171   -0.1130    0.0000 C   0  0  0  0  0  0  0  0  0  0  0  0
    1.5787   -0.4829    0.0000 C   0  0  0  0  0  0  0  0  0  0  0  0
    1.9896   -1.1986    0.0000 C   0  0  0  0  0  0  0  0  0  0  0  0
   -2.9348    1.2088    0.0000 C   0  0  0  0  0  0  0  0  0  0  0  0
   -2.5752    1.9520    0.0000 C   0  0  0  0  0  0  0  0  0  0  0  0
    1.9760    0.2226    0.0000 C   0  0  0  0  0  0  0  0  0  0  0  0
   -4.0410   -1.1541    0.0000 O   0  0  0  0  0  0  0  0  0  0  0  0
   -1.5581    0.3356    0.0000 O   0  0  0  0  0  0  0  0  0  0  0  0
   -3.3321    0.4829    0.0000 C   0  0  0  0  0  0  0  0  0  0  0  0
    2.8150   -1.1883    0.0000 C   0  0  0  0  0  0  0  0  0  0  0  0
    2.7944    0.2363    0.0000 C   0  0  0  0  0  0  0  0  0  0  0  0
    3.2191   -0.4589    0.0000 C   0  0  0  0  0  0  0  0  0  0  0  0
    0.5102    0.9417    0.0000 C   0  0  0  0  0  0  0  0  0  0  0  0
    0.5513   -1.9485    0.0000 C   0  0  0  0  0  0  0  0  0  0  0  0
    1.6061   -1.9109    0.0000 C   0  0  0  0  0  0  0  0  0  0  0  0
    4.0375   -0.4691    0.0000 C   0  0  0  0  0  0  0  0  0  0  0  0
  2  9  1  0  0  0  0
  3  1  1  0  0  0  0
  4  5  1  0  0  0  0
  5  1  1  0  0  0  0
  6 10  1  0  0  0  0
  7 11  2  0  0  0  0
  7  2  1  0  0  0  0
  8  3  1  0  0  0  0
  8  4  1  0  0  0  0
  9  6  2  0  0  0  0
 10  4  2  0  0  0  0
 11  6  1  0  0  0  0
 12  2  1  0  0  0  0
 13 12  2  0  0  0  0
 14 19  1  0  0  0  0
 15 14  3  0  0  0  0
 16 12  1  0  0  0  0
 17  3  2  0  0  0  0
 18  5  2  0  0  0  0
 19  1  1  0  0  0  0
 20 13  1  0  0  0  0
 21 16  2  0  0  0  0
 22 21  1  0  0  0  0
 22 20  2  0  0  0  0
 23  7  1  0  0  0  0
 24  9  1  0  0  0  0
 25 13  1  0  0  0  0
 26 22  1  0  0  0  0
M  END
> <CdId>
1974

> <Mol Weight>
364.461

> <Formula>
C21H20N2O2S

> <Click_ID>
CLK026_D09 __ __ 

$$$$
