CLK014_F03
 OpenBabel03181417022D

 21 22  0  0  0  0  0  0  0  0999 V2000
    1.5650   -0.8158    0.0000 N    0  0  0  0  0  0  0  0  0  0  0  0
    1.8230   -1.6024    0.0000 C    0  0  0  0  0  0  0  0  0  0  0  0
    2.2350   -0.3288    0.0000 C    0  0  0  0  0  0  0  0  0  0  0  0
    2.9010   -0.8158    0.0000 C    0  0  0  0  0  0  0  0  0  0  0  0
    2.6470   -1.6024    0.0000 S    0  0  0  0  0  0  0  0  0  0  0  0
    3.6876   -0.5619    0.0000 C    0  0  0  0  0  0  0  0  0  0  0  0
    4.1995    1.8437    0.0000 C    0  0  0  0  0  0  0  0  0  0  0  0
    3.4254    1.5940    0.0000 C    0  0  0  0  0  0  0  0  0  0  0  0
    4.8113    1.2944    0.0000 C    0  0  0  0  0  0  0  0  0  0  0  0
    3.8582    0.2455    0.0000 C    0  0  0  0  0  0  0  0  0  0  0  0
    0.6118    0.2455    0.0000 C    0  0  0  0  0  0  0  0  0  0  0  0
    0.3913    1.0446    0.0000 C    0  0  0  0  0  0  0  0  0  0  0  0
    1.3360   -2.2642    0.0000 O    0  0  0  0  0  0  0  0  0  0  0  0
    3.2506    0.7824    0.0000 C    0  0  0  0  0  0  0  0  0  0  0  0
    2.2267    0.4952    0.0000 O    0  0  0  0  0  0  0  0  0  0  0  0
    4.6365    0.4952    0.0000 C    0  0  0  0  0  0  0  0  0  0  0  0
    0.7866   -0.5619    0.0000 C    0  0  0  0  0  0  0  0  0  0  0  0
    2.8011    2.1476    0.0000 Cl   0  0  0  0  0  0  0  0  0  0  0  0
    4.3826    2.6553    0.0000 O    0  0  0  0  0  0  0  0  0  0  0  0
    5.5938    1.5441    0.0000 O    0  0  0  0  0  0  0  0  0  0  0  0
    5.7728    2.3474    0.0000 C    0  0  0  0  0  0  0  0  0  0  0  0
  2  1  1  0  0  0  0
  3  1  1  0  0  0  0
  4  3  1  0  0  0  0
  4  5  1  0  0  0  0
  5  2  1  0  0  0  0
  6  4  2  0  0  0  0
  7  9  2  0  0  0  0
  7  8  1  0  0  0  0
  8 14  2  0  0  0  0
  9 16  1  0  0  0  0
 10  6  1  0  0  0  0
 11 17  1  0  0  0  0
 12 11  3  0  0  0  0
 13  2  2  0  0  0  0
 14 10  1  0  0  0  0
 15  3  2  0  0  0  0
 16 10  2  0  0  0  0
 17  1  1  0  0  0  0
 18  8  1  0  0  0  0
 19  7  1  0  0  0  0
 20  9  1  0  0  0  0
 21 20  1  0  0  0  0
M  END
> <CdId>
1048

> <Mol Weight>
323.751

> <Formula>
C14H10ClNO4S

> <Click_ID>
CLK014_F03 __ __ 

$$$$
