CLK028_E08
 OpenBabel03181417022D

 15 15  0  0  0  0  0  0  0  0999 V2000
   -0.3629   -0.1986    0.0000 N   0  0  0  0  0  0  0  0  0  0  0  0
    0.3457    1.0236    0.0000 C   0  0  0  0  0  0  0  0  0  0  0  0
   -1.0510    1.0236    0.0000 C   0  0  0  0  0  0  0  0  0  0  0  0
    0.3457    0.1986    0.0000 C   0  0  0  0  0  0  0  0  0  0  0  0
   -1.0510    0.1986    0.0000 C   0  0  0  0  0  0  0  0  0  0  0  0
   -0.3629    1.4241    0.0000 C   0  0  0  0  0  0  0  0  0  0  0  0
    1.0716    1.4379    0.0000 C   0  0  0  0  0  0  0  0  0  0  0  0
   -1.7768    1.4379    0.0000 C   0  0  0  0  0  0  0  0  0  0  0  0
   -2.4854    1.8658    0.0000 N   0  0  0  0  0  0  0  0  0  0  0  0
    1.7939    1.8487    0.0000 N   0  0  0  0  0  0  0  0  0  0  0  0
    1.7733   -1.4379    0.0000 C   0  0  0  0  0  0  0  0  0  0  0  0
    2.4820   -1.8624    0.0000 C   0  0  0  0  0  0  0  0  0  0  0  0
    1.0716   -0.2157    0.0000 S   0  0  0  0  0  0  0  0  0  0  0  0
   -1.7768   -0.2157    0.0000 N   0  0  0  0  0  0  0  0  0  0  0  0
    1.0716   -1.0408    0.0000 C   0  0  0  0  0  0  0  0  0  0  0  0
  2  4  1  0  0  0  0
  2  6  2  0  0  0  0
  3  5  2  0  0  0  0
  4  1  2  0  0  0  0
  5  1  1  0  0  0  0
  6  3  1  0  0  0  0
  7  2  1  0  0  0  0
  8  3  1  0  0  0  0
  9  8  3  0  0  0  0
 10  7  3  0  0  0  0
 11 15  1  0  0  0  0
 12 11  3  0  0  0  0
 13  4  1  0  0  0  0
 14  5  1  0  0  0  0
 15 13  1  0  0  0  0
M  END
> <CdId>
2132

> <Mol Weight>
214.246

> <Formula>
C10H6N4S

> <Click_ID>
CLK028_E08 __ __ 

$$$$
