CLK013_D08
 OpenBabel03181417022D

 25 27  0  0  0  0  0  0  0  0999 V2000
    5.6553   -2.3096    0.0000 N   0  0  0  0  0  0  0  0  0  0  0  0
    5.5222   -3.1252    0.0000 C   0  0  0  0  0  0  0  0  0  0  0  0
    4.9187   -1.9267    0.0000 C   0  0  0  0  0  0  0  0  0  0  0  0
    4.3320   -2.5135    0.0000 C   0  0  0  0  0  0  0  0  0  0  0  0
    4.6982   -3.2501    0.0000 S   0  0  0  0  0  0  0  0  0  0  0  0
    3.5122   -2.3845    0.0000 C   0  0  0  0  0  0  0  0  0  0  0  0
    6.3836   -1.9350    0.0000 C   0  0  0  0  0  0  0  0  0  0  0  0
    1.1902   -6.3711    0.0000 C   0  0  0  0  0  0  0  0  0  0  0  0
    0.6658   -7.0078    0.0000 C   0  0  0  0  0  0  0  0  0  0  0  0
    6.1047   -3.7120    0.0000 O   0  0  0  0  0  0  0  0  0  0  0  0
    4.7856   -1.1153    0.0000 O   0  0  0  0  0  0  0  0  0  0  0  0
    2.9879   -3.0253    0.0000 C   0  0  0  0  0  0  0  0  0  0  0  0
    7.0785   -2.3887    0.0000 C   0  0  0  0  0  0  0  0  0  0  0  0
    1.9392   -4.3112    0.0000 C   0  0  0  0  0  0  0  0  0  0  0  0
    3.2750   -3.7993    0.0000 C   0  0  0  0  0  0  0  0  0  0  0  0
    2.1639   -2.8880    0.0000 C   0  0  0  0  0  0  0  0  0  0  0  0
    2.7590   -4.4360    0.0000 C   0  0  0  0  0  0  0  0  0  0  0  0
    1.6396   -3.5247    0.0000 C   0  0  0  0  0  0  0  0  0  0  0  0
    1.7020   -5.7302    0.0000 C   0  0  0  0  0  0  0  0  0  0  0  0
    1.4149   -4.9604    0.0000 O   0  0  0  0  0  0  0  0  0  0  0  0
    7.8067   -2.0141    0.0000 C   0  0  0  0  0  0  0  0  0  0  0  0
    7.0285   -3.2084    0.0000 C   0  0  0  0  0  0  0  0  0  0  0  0
    8.4934   -2.4636    0.0000 C   0  0  0  0  0  0  0  0  0  0  0  0
    7.7152   -3.6578    0.0000 C   0  0  0  0  0  0  0  0  0  0  0  0
    8.4517   -3.2875    0.0000 C   0  0  0  0  0  0  0  0  0  0  0  0
  2  1  1  0  0  0  0
  3  1  1  0  0  0  0
  4  3  1  0  0  0  0
  5  2  1  0  0  0  0
  5  4  1  0  0  0  0
  6  4  2  0  0  0  0
  7  1  1  0  0  0  0
  8 19  1  0  0  0  0
  9  8  3  0  0  0  0
 10  2  2  0  0  0  0
 11  3  2  0  0  0  0
 12  6  1  0  0  0  0
 13  7  1  0  0  0  0
 14 18  2  0  0  0  0
 14 17  1  0  0  0  0
 15 12  1  0  0  0  0
 16 12  2  0  0  0  0
 17 15  2  0  0  0  0
 18 16  1  0  0  0  0
 19 20  1  0  0  0  0
 20 14  1  0  0  0  0
 21 13  1  0  0  0  0
 22 13  2  0  0  0  0
 23 21  2  0  0  0  0
 24 22  1  0  0  0  0
 25 24  2  0  0  0  0
 25 23  1  0  0  0  0
M  END
> <CdId>
953

> <Mol Weight>
349.403

> <Formula>
C20H15NO3S

> <Click_ID>
CLK013_D08 __ __ 

$$$$
