CLK033_H06
 OpenBabel03181417022D

 22 24  0  0  0  0  0  0  0  0999 V2000
   -4.6053    2.5636    0.0000 C   0  0  0  0  0  0  0  0  0  0  0  0
   -3.8705    2.9895    0.0000 N   0  0  0  0  0  0  0  0  0  0  0  0
   -4.6930    1.7369    0.0000 N   0  0  0  0  0  0  0  0  0  0  0  0
   -5.3318    2.9018    0.0000 S   0  0  0  0  0  0  0  0  0  0  0  0
   -5.4989    1.5866    0.0000 C   0  0  0  0  0  0  0  0  0  0  0  0
   -3.8788    3.8079    0.0000 C   0  0  0  0  0  0  0  0  0  0  0  0
   -5.9080    2.3048    0.0000 C   0  0  0  0  0  0  0  0  0  0  0  0
   -3.1648    4.2212    0.0000 C   0  0  0  0  0  0  0  0  0  0  0  0
   -4.2671    0.3590    0.0000 C   0  0  0  0  0  0  0  0  0  0  0  0
   -2.3924    3.8913    0.0000 S   0  0  0  0  0  0  0  0  0  0  0  0
   -4.4550   -0.4551    0.0000 C   0  0  0  0  0  0  0  0  0  0  0  0
   -5.9331    0.8851    0.0000 C   0  0  0  0  0  0  0  0  0  0  0  0
   -4.5928    4.2254    0.0000 O   0  0  0  0  0  0  0  0  0  0  0  0
   -3.0646    5.0396    0.0000 C   0  0  0  0  0  0  0  0  0  0  0  0
   -1.8496    4.5010    0.0000 C   0  0  0  0  0  0  0  0  0  0  0  0
   -4.0792    1.1649    0.0000 C   0  0  0  0  0  0  0  0  0  0  0  0
   -2.2630    5.2108    0.0000 C   0  0  0  0  0  0  0  0  0  0  0  0
   -6.7181    2.3256    0.0000 C   0  0  0  0  0  0  0  0  0  0  0  0
   -5.5322    0.1461    0.0000 O   0  0  0  0  0  0  0  0  0  0  0  0
   -7.1565    1.6242    0.0000 C   0  0  0  0  0  0  0  0  0  0  0  0
   -6.7431    0.8893    0.0000 C   0  0  0  0  0  0  0  0  0  0  0  0
   -5.9706   -0.5553    0.0000 C   0  0  0  0  0  0  0  0  0  0  0  0
  2  1  2  0  0  0  0
  3  1  1  0  0  0  0
  4  1  1  0  0  0  0
  5  3  1  0  0  0  0
  6  2  1  0  0  0  0
  7  4  1  0  0  0  0
  7  5  2  0  0  0  0
  8  6  1  0  0  0  0
  9 16  1  0  0  0  0
 10  8  1  0  0  0  0
 11  9  3  0  0  0  0
 12  5  1  0  0  0  0
 13  6  2  0  0  0  0
 14  8  2  0  0  0  0
 15 10  1  0  0  0  0
 15 17  2  0  0  0  0
 16  3  1  0  0  0  0
 17 14  1  0  0  0  0
 18  7  1  0  0  0  0
 19 12  1  0  0  0  0
 20 18  2  0  0  0  0
 21 12  2  0  0  0  0
 21 20  1  0  0  0  0
 22 19  1  0  0  0  0
M  END
> <CdId>
2560

> <Mol Weight>
328.409

> <Formula>
C16H12N2O2S2

> <Click_ID>
CLK033_H06 __ __ 

$$$$
