CLK006_E02
 OpenBabel03181417022D

 25 27  0  0  0  0  0  0  0  0999 V2000
   -0.7456   -1.3323    0.0000 C   0  0  0  0  0  0  0  0  0  0  0  0
   -0.2589   -0.8423    0.0000 C   0  0  3  0  0  0  0  0  0  0  0  0
   -0.6075   -2.1228    0.0000 C   0  0  0  0  0  0  0  0  0  0  0  0
   -1.5395   -1.2219    0.0000 C   0  0  0  0  0  0  0  0  0  0  0  0
   -0.2589   -0.0138    0.0000 C   0  0  0  0  0  0  0  0  0  0  0  0
    0.5696   -0.8318    0.0000 S   0  0  0  0  0  0  0  0  0  0  0  0
   -1.3220   -2.4956    0.0000 N   0  0  0  0  0  0  0  0  0  0  0  0
    0.1415   -2.5059    0.0000 N   0  0  0  0  0  0  0  0  0  0  0  0
   -1.8881   -1.9434    0.0000 N   0  0  0  0  0  0  0  0  0  0  0  0
   -2.2609   -0.8077    0.0000 C   0  0  0  0  0  0  0  0  0  0  0  0
    0.4557    0.4073    0.0000 C   0  0  0  0  0  0  0  0  0  0  0  0
   -0.9734    0.3935    0.0000 C   0  0  0  0  0  0  0  0  0  0  0  0
    1.0632   -1.3462    0.0000 C   0  0  3  0  0  0  0  0  0  0  0  0
    0.9181   -2.1470    0.0000 C   0  0  0  0  0  0  0  0  0  0  0  0
    0.4522    1.2322    0.0000 C   0  0  0  0  0  0  0  0  0  0  0  0
   -0.9838    1.2184    0.0000 C   0  0  0  0  0  0  0  0  0  0  0  0
    1.8536   -1.1080    0.0000 C   0  0  0  0  0  0  0  0  0  0  0  0
    1.5706   -2.6475    0.0000 O   0  0  0  0  0  0  0  0  0  0  0  0
   -0.2693    1.6362    0.0000 C   0  0  0  0  0  0  0  0  0  0  0  0
    1.1633    1.6465    0.0000 O   0  0  0  0  0  0  0  0  0  0  0  0
   -0.2693    2.4611    0.0000 O   0  0  0  0  0  0  0  0  0  0  0  0
    1.8812    1.2322    0.0000 C   0  0  0  0  0  0  0  0  0  0  0  0
    0.4418    2.8822    0.0000 C   0  0  0  0  0  0  0  0  0  0  0  0
    0.4314    3.7107    0.0000 C   0  0  0  0  0  0  0  0  0  0  0  0
    0.4314    4.5356    0.0000 C   0  0  0  0  0  0  0  0  0  0  0  0
  1  2  1  0  0  0  0
  1  3  2  0  0  0  0
  1  4  1  0  0  0  0
  2  5  1  0  0  0  0
  2  6  1  0  0  0  0
  3  7  1  0  0  0  0
  3  8  1  0  0  0  0
  4  9  2  0  0  0  0
  4 10  1  0  0  0  0
  5 11  2  0  0  0  0
  5 12  1  0  0  0  0
  6 13  1  0  0  0  0
  7  9  1  0  0  0  0
  8 14  1  0  0  0  0
 11 15  1  0  0  0  0
 12 16  2  0  0  0  0
 13 17  1  0  0  0  0
 13 14  1  0  0  0  0
 14 18  2  0  0  0  0
 15 19  2  0  0  0  0
 15 20  1  0  0  0  0
 16 19  1  0  0  0  0
 19 21  1  0  0  0  0
 20 22  1  0  0  0  0
 21 23  1  0  0  0  0
 23 24  1  0  0  0  0
 24 25  3  0  0  0  0
M  END
> <CdId>
441

> <Mol Weight>
357.427

> <Formula>
C18H19N3O3S

> <Click_ID>
CLK006_E02 __ __ 

$$$$
