CLK005_D05
 OpenBabel03181417022D

 25 26  0  0  0  0  0  0  0  0999 V2000
   -0.3891   -2.4410    0.0000 C   0  0  0  0  0  0  0  0  0  0  0  0
    0.3236   -2.0314    0.0000 C   0  0  0  0  0  0  0  0  0  0  0  0
   -1.1052   -2.0210    0.0000 C   0  0  0  0  0  0  0  0  0  0  0  0
   -0.3891   -3.2674    0.0000 O   0  0  0  0  0  0  0  0  0  0  0  0
    0.3236   -1.2084    0.0000 C   0  0  0  0  0  0  0  0  0  0  0  0
    1.0329   -2.4410    0.0000 O   0  0  0  0  0  0  0  0  0  0  0  0
   -1.1052   -1.2084    0.0000 C   0  0  0  0  0  0  0  0  0  0  0  0
   -1.1052   -3.6771    0.0000 C   0  0  0  0  0  0  0  0  0  0  0  0
   -0.3925   -0.7885    0.0000 C   0  0  0  0  0  0  0  0  0  0  0  0
    1.7456   -2.0314    0.0000 C   0  0  0  0  0  0  0  0  0  0  0  0
   -1.1052   -4.5034    0.0000 C   0  0  0  0  0  0  0  0  0  0  0  0
   -0.4028    0.0378    0.0000 C   0  0  0  0  0  0  0  0  0  0  0  0
   -1.1121   -5.3263    0.0000 C   0  0  0  0  0  0  0  0  0  0  0  0
    0.3098    0.4476    0.0000 C   0  0  0  0  0  0  0  0  0  0  0  0
    0.3098    1.2739    0.0000 C   0  0  0  0  0  0  0  0  0  0  0  0
   -0.4063    1.6836    0.0000 N   0  0  0  0  0  0  0  0  0  0  0  0
    1.0225    1.6836    0.0000 N   0  0  0  0  0  0  0  0  0  0  0  0
   -0.4063    2.5064    0.0000 C   0  0  0  0  0  0  0  0  0  0  0  0
    1.0225    2.4996    0.0000 C   0  0  0  0  0  0  0  0  0  0  0  0
    0.3064    2.9196    0.0000 C   0  0  0  0  0  0  0  0  0  0  0  0
   -1.1259    2.9196    0.0000 O   0  0  0  0  0  0  0  0  0  0  0  0
    1.7318    2.9127    0.0000 O   0  0  0  0  0  0  0  0  0  0  0  0
    0.3098    3.7425    0.0000 N   0  3  0  0  0  0  0  0  0  0  0  0
   -0.4063    4.1557    0.0000 O   0  0  0  0  0  0  0  0  0  0  0  0
    1.0225    4.1557    0.0000 O   0  5  0  0  0  0  0  0  0  0  0  0
  1  2  1  0  0  0  0
  1  3  2  0  0  0  0
  1  4  1  0  0  0  0
  2  5  2  0  0  0  0
  2  6  1  0  0  0  0
  3  7  1  0  0  0  0
  4  8  1  0  0  0  0
  5  9  1  0  0  0  0
  6 10  1  0  0  0  0
  7  9  2  0  0  0  0
  8 11  1  0  0  0  0
  9 12  1  0  0  0  0
 11 13  3  0  0  0  0
 12 14  2  0  0  0  0
 14 15  1  0  0  0  0
 15 16  1  0  0  0  0
 15 17  2  0  0  0  0
 16 18  1  0  0  0  0
 17 19  1  0  0  0  0
 18 20  1  0  0  0  0
 18 21  2  0  0  0  0
 19 22  1  0  0  0  0
 19 20  2  0  0  0  0
 20 23  1  0  0  0  0
 23 24  2  0  0  0  0
 23 25  1  0  0  0  0
M  END
> <CdId>
354

> <Mol Weight>
343.2909

> <Formula>
C16H13N3O6

> <Click_ID>
CLK005_D05 __ __ 

$$$$
