CLK018_A04
 OpenBabel03181417022D

 29 32  0  0  0  0  0  0  0  0999 V2000
    1.4307   -1.0553    0.0000 N    0  0  0  0  0  0  0  0  0  0  0  0
    1.6893   -1.8437    0.0000 C    0  0  0  0  0  0  0  0  0  0  0  0
    2.7697   -1.0553    0.0000 C    0  0  0  0  0  0  0  0  0  0  0  0
    2.1022   -0.5673    0.0000 C    0  0  0  0  0  0  0  0  0  0  0  0
    2.5069   -1.8437    0.0000 N    0  0  0  0  0  0  0  0  0  0  0  0
    3.8416   -0.7050    0.0000 C    0  0  0  0  0  0  0  0  0  0  0  0
    0.6507   -0.8009    0.0000 C    0  0  0  0  0  0  0  0  0  0  0  0
    4.0168    0.1001    0.0000 C    0  0  0  0  0  0  0  0  0  0  0  0
    4.7968    0.3587    0.0000 C    0  0  0  0  0  0  0  0  0  0  0  0
    0.0417   -1.3556    0.0000 C    0  0  0  0  0  0  0  0  0  0  0  0
    2.1815    1.7602    0.0000 C    0  0  0  0  0  0  0  0  0  0  0  0
    2.3525    2.5652    0.0000 C    0  0  0  0  0  0  0  0  0  0  0  0
    1.2013   -2.5069    0.0000 O    0  0  0  0  0  0  0  0  0  0  0  0
    3.4036    0.6507    0.0000 C    0  0  0  0  0  0  0  0  0  0  0  0
    2.0939    0.2586    0.0000 O    0  0  0  0  0  0  0  0  0  0  0  0
    4.9720    1.1595    0.0000 C    0  0  0  0  0  0  0  0  0  0  0  0
    3.5705    1.4599    0.0000 C    0  0  0  0  0  0  0  0  0  0  0  0
    4.3588    1.7143    0.0000 C    0  0  0  0  0  0  0  0  0  0  0  0
   -0.7466   -1.1054    0.0000 C    0  0  0  0  0  0  0  0  0  0  0  0
    0.4797    0.0083    0.0000 C    0  0  0  0  0  0  0  0  0  0  0  0
   -1.3597   -1.6560    0.0000 Cl   0  0  0  0  0  0  0  0  0  0  0  0
    2.6195    0.4004    0.0000 O    0  0  0  0  0  0  0  0  0  0  0  0
    2.0063    0.9593    0.0000 C    0  0  0  0  0  0  0  0  0  0  0  0
    5.4100   -0.2044    0.0000 C    0  0  0  0  0  0  0  0  0  0  0  0
   -0.3086    0.2586    0.0000 C    0  0  0  0  0  0  0  0  0  0  0  0
   -0.9218   -0.2920    0.0000 C    0  0  0  0  0  0  0  0  0  0  0  0
    5.7478    1.4140    0.0000 C    0  0  0  0  0  0  0  0  0  0  0  0
    6.1858    0.0626    0.0000 C    0  0  0  0  0  0  0  0  0  0  0  0
    6.3568    0.8717    0.0000 C    0  0  0  0  0  0  0  0  0  0  0  0
  2  1  1  0  0  0  0
  3  4  1  0  0  0  0
  3  5  1  0  0  0  0
  4  1  1  0  0  0  0
  5  2  1  0  0  0  0
  6  3  2  0  0  0  0
  7  1  1  0  0  0  0
  8  6  1  0  0  0  0
  9  8  1  0  0  0  0
 10  7  1  0  0  0  0
 11 23  1  0  0  0  0
 12 11  3  0  0  0  0
 13  2  2  0  0  0  0
 14  8  2  0  0  0  0
 15  4  2  0  0  0  0
 16  9  1  0  0  0  0
 16 18  1  0  0  0  0
 17 14  1  0  0  0  0
 18 17  2  0  0  0  0
 19 10  2  0  0  0  0
 20  7  2  0  0  0  0
 21 19  1  0  0  0  0
 22 14  1  0  0  0  0
 23 22  1  0  0  0  0
 24  9  2  0  0  0  0
 25 20  1  0  0  0  0
 26 25  2  0  0  0  0
 26 19  1  0  0  0  0
 27 16  2  0  0  0  0
 27 29  1  0  0  0  0
 28 24  1  0  0  0  0
 29 28  2  0  0  0  0
M  END
> <CdId>
1319

> <Mol Weight>
402.83

> <Formula>
C23H15ClN2O3

> <Click_ID>
CLK018_A04 __ __ 

$$$$
