CLK050E10
 OpenBabel03181417022D

 12 12  0  0  0  0  0  0  0  0999 V2000
    0.6210    0.0958    0.0000 C   0  0  0  0  0  0  0  0  0  0  0  0
   -0.0875   -0.3251    0.0000 C   0  0  0  0  0  0  0  0  0  0  0  0
    1.3796   -0.2251    0.0000 C   0  0  0  0  0  0  0  0  0  0  0  0
   -2.2382    0.0542    0.0000 C   0  0  0  0  0  0  0  0  0  0  0  0
   -2.9592    0.4584    0.0000 C   0  0  0  0  0  0  0  0  0  0  0  0
    0.6919    0.9211    0.0000 C   0  0  0  0  0  0  0  0  0  0  0  0
    1.9214    0.3959    0.0000 O   0  0  0  0  0  0  0  0  0  0  0  0
    1.4963    1.1045    0.0000 C   0  0  0  0  0  0  0  0  0  0  0  0
   -0.0792   -1.1503    0.0000 O   0  0  0  0  0  0  0  0  0  0  0  0
   -0.8085    0.0750    0.0000 N   0  0  0  0  0  0  0  0  0  0  0  0
   -1.5172   -0.3459    0.0000 C   0  0  0  0  0  0  0  0  0  0  0  0
    1.5630   -1.0295    0.0000 C   0  0  0  0  0  0  0  0  0  0  0  0
  2  1  1  0  0  0  0
  3  1  2  0  0  0  0
  4 11  1  0  0  0  0
  5  4  3  0  0  0  0
  6  1  1  0  0  0  0
  7  3  1  0  0  0  0
  8  6  2  0  0  0  0
  8  7  1  0  0  0  0
  9  2  2  0  0  0  0
 10  2  1  0  0  0  0
 11 10  1  0  0  0  0
 12  3  1  0  0  0  0
M  END
> <CdId>
3877

> <Mol Weight>
163.1733

> <Formula>
C9H9NO2

> <Click_ID>
CLK050E10 __ __ 

$$$$
