CLK015_F07
 OpenBabel03181417022D

 31 33  0  0  0  0  0  0  0  0999 V2000
    1.5629   -0.8147    0.0000 N    0  0  0  0  0  0  0  0  0  0  0  0
    1.8205   -1.6003    0.0000 C    0  0  0  0  0  0  0  0  0  0  0  0
    2.2320   -0.3284    0.0000 C    0  0  0  0  0  0  0  0  0  0  0  0
    2.8971   -0.8147    0.0000 C    0  0  0  0  0  0  0  0  0  0  0  0
    2.6435   -1.6003    0.0000 S    0  0  0  0  0  0  0  0  0  0  0  0
    7.1449    5.0044    0.0000 N    0  0  0  0  0  0  0  0  0  0  0  0
    4.2146    1.8662    0.0000 C    0  0  0  0  0  0  0  0  0  0  0  0
    3.6827   -0.5611    0.0000 C    0  0  0  0  0  0  0  0  0  0  0  0
    4.8256    1.3093    0.0000 C    0  0  0  0  0  0  0  0  0  0  0  0
    3.4208    1.6210    0.0000 C    0  0  0  0  0  0  0  0  0  0  0  0
    3.8572    0.2577    0.0000 C    0  0  0  0  0  0  0  0  0  0  0  0
    6.3511    4.7675    0.0000 C    0  0  0  0  0  0  0  0  0  0  0  0
    4.4017    2.6767    0.0000 O    0  0  0  0  0  0  0  0  0  0  0  0
    0.6110    0.2452    0.0000 C    0  0  0  0  0  0  0  0  0  0  0  0
    0.3907    1.0432    0.0000 C    0  0  0  0  0  0  0  0  0  0  0  0
    7.7559    4.4433    0.0000 O    0  0  0  0  0  0  0  0  0  0  0  0
    1.3342   -2.2611    0.0000 O    0  0  0  0  0  0  0  0  0  0  0  0
    7.3320    5.8149    0.0000 O    0  0  0  0  0  0  0  0  0  0  0  0
    4.6428    0.4946    0.0000 C    0  0  0  0  0  0  0  0  0  0  0  0
    2.2237    0.4946    0.0000 O    0  0  0  0  0  0  0  0  0  0  0  0
    3.2462    0.8105    0.0000 C    0  0  0  0  0  0  0  0  0  0  0  0
    0.7856   -0.5611    0.0000 C    0  0  0  0  0  0  0  0  0  0  0  0
    6.1641    3.9735    0.0000 C    0  0  0  0  0  0  0  0  0  0  0  0
    5.6112    1.5545    0.0000 Cl   0  0  0  0  0  0  0  0  0  0  0  0
    5.1873    2.9261    0.0000 C    0  0  0  0  0  0  0  0  0  0  0  0
    5.3743    3.7366    0.0000 C    0  0  0  0  0  0  0  0  0  0  0  0
    2.8223    2.1779    0.0000 O    0  0  0  0  0  0  0  0  0  0  0  0
    5.7401    5.3411    0.0000 C    0  0  0  0  0  0  0  0  0  0  0  0
    4.9628    5.0792    0.0000 C    0  0  0  0  0  0  0  0  0  0  0  0
    4.7675    4.2812    0.0000 C    0  0  0  0  0  0  0  0  0  0  0  0
    2.0450    1.9328    0.0000 C    0  0  0  0  0  0  0  0  0  0  0  0
  2  1  1  0  0  0  0
  3  1  1  0  0  0  0
  4  3  1  0  0  0  0
  4  5  1  0  0  0  0
  5  2  1  0  0  0  0
  6 12  1  0  0  0  0
  7 10  2  0  0  0  0
  7  9  1  0  0  0  0
  8  4  2  0  0  0  0
  9 19  2  0  0  0  0
 10 21  1  0  0  0  0
 11  8  1  0  0  0  0
 12 23  1  0  0  0  0
 12 28  2  0  0  0  0
 13  7  1  0  0  0  0
 14 22  1  0  0  0  0
 15 14  3  0  0  0  0
 16  6  1  0  0  0  0
 17  2  2  0  0  0  0
 18  6  2  0  0  0  0
 19 11  1  0  0  0  0
 20  3  2  0  0  0  0
 21 11  2  0  0  0  0
 22  1  1  0  0  0  0
 23 26  2  0  0  0  0
 24  9  1  0  0  0  0
 25 13  1  0  0  0  0
 26 25  1  0  0  0  0
 27 10  1  0  0  0  0
 28 29  1  0  0  0  0
 29 30  2  0  0  0  0
 30 26  1  0  0  0  0
 31 27  1  0  0  0  0
M  END
> <CdId>
1132

> <Mol Weight>
458.872

> <Formula>
C21H15ClN2O6S

> <Click_ID>
CLK015_F07 __ __ 

$$$$
