CLK044A04
 OpenBabel03181417022D

 26 28  0  0  0  0  0  0  0  0999 V2000
   -0.4417   -0.6500    0.0000 C   0  0  0  0  0  0  0  0  0  0  0  0
   -3.3000   -0.6500    0.0000 C   0  0  0  0  0  0  0  0  0  0  0  0
   -1.8708   -0.6500    0.0000 C   0  0  0  0  0  0  0  0  0  0  0  0
   -1.1583   -1.0625    0.0000 C   0  0  0  0  0  0  0  0  0  0  0  0
    4.5583    0.5875    0.0000 C   0  0  0  0  0  0  0  0  0  0  0  0
   -2.5875   -1.0625    0.0000 C   0  0  0  0  0  0  0  0  0  0  0  0
    5.2750    1.0000    0.0000 C   0  0  0  0  0  0  0  0  0  0  0  0
    1.7000    0.5875    0.0000 C   0  0  0  0  0  0  0  0  0  0  0  0
    0.2708   -1.0625    0.0000 C   0  0  0  0  0  0  0  0  0  0  0  0
   -3.3000    0.1750    0.0000 C   0  0  0  0  0  0  0  0  0  0  0  0
   -4.0833   -0.9042    0.0000 O   0  0  0  0  0  0  0  0  0  0  0  0
   -4.0833    0.4333    0.0000 O   0  0  0  0  0  0  0  0  0  0  0  0
   -4.5708   -0.2375    0.0000 C   0  0  0  0  0  0  0  0  0  0  0  0
    2.4167    0.1750    0.0000 C   0  0  0  0  0  0  0  0  0  0  0  0
    0.9875    0.1750    0.0000 C   0  0  0  0  0  0  0  0  0  0  0  0
   -1.8708    0.1750    0.0000 C   0  0  0  0  0  0  0  0  0  0  0  0
   -1.1583   -1.8875    0.0000 O   0  0  0  0  0  0  0  0  0  0  0  0
   -2.5875    0.5875    0.0000 C   0  0  0  0  0  0  0  0  0  0  0  0
    0.9875   -0.6500    0.0000 C   0  0  0  0  0  0  0  0  0  0  0  0
    2.4167   -0.6500    0.0000 C   0  0  0  0  0  0  0  0  0  0  0  0
    1.7000   -1.0625    0.0000 C   0  0  0  0  0  0  0  0  0  0  0  0
    1.7000    1.4125    0.0000 O   0  0  0  0  0  0  0  0  0  0  0  0
    3.1292    0.5875    0.0000 O   0  0  0  0  0  0  0  0  0  0  0  0
    3.8458    0.1750    0.0000 C   0  0  0  0  0  0  0  0  0  0  0  0
    0.9875    1.8250    0.0000 C   0  0  0  0  0  0  0  0  0  0  0  0
    0.9875    2.6500    0.0000 C   0  0  0  0  0  0  0  0  0  0  0  0
  2  6  1  0  0  0  0
  3  4  1  0  0  0  0
  4  1  1  0  0  0  0
  5 24  1  0  0  0  0
  6  3  2  0  0  0  0
  7  5  3  0  0  0  0
  8 15  1  0  0  0  0
  9  1  2  0  0  0  0
 10  2  2  0  0  0  0
 10 18  1  0  0  0  0
 11  2  1  0  0  0  0
 12 10  1  0  0  0  0
 13 11  1  0  0  0  0
 13 12  1  0  0  0  0
 14 20  1  0  0  0  0
 14  8  2  0  0  0  0
 15 19  2  0  0  0  0
 16  3  1  0  0  0  0
 17  4  2  0  0  0  0
 18 16  2  0  0  0  0
 19  9  1  0  0  0  0
 20 21  2  0  0  0  0
 21 19  1  0  0  0  0
 22  8  1  0  0  0  0
 23 14  1  0  0  0  0
 24 23  1  0  0  0  0
 25 22  1  0  0  0  0
 26 25  1  0  0  0  0
M  END
> <CdId>
3345

> <Mol Weight>
350.3646

> <Formula>
C21H18O5

> <Click_ID>
CLK044A04 __ __ 

$$$$
