CLK024_G10
 OpenBabel03181417022D

 31 34  0  0  0  0  0  0  0  0999 V2000
   -1.0816   -1.3681    0.0000 C   0  0  0  0  0  0  0  0  0  0  0  0
   -0.7127   -2.1059    0.0000 N   0  0  0  0  0  0  0  0  0  0  0  0
    0.2435   -1.1711    0.0000 C   0  0  0  0  0  0  0  0  0  0  0  0
    0.1038   -1.9841    0.0000 C   0  0  0  0  0  0  0  0  0  0  0  0
    1.0171   -0.8882    0.0000 C   0  0  0  0  0  0  0  0  0  0  0  0
   -0.4871   -0.7879    0.0000 S   0  0  0  0  0  0  0  0  0  0  0  0
    1.6224    0.9599    0.0000 C   0  0  0  0  0  0  0  0  0  0  0  0
   -1.8981   -1.2535    0.0000 N   0  0  0  0  0  0  0  0  0  0  0  0
    2.3996    1.2463    0.0000 C   0  0  0  0  0  0  0  0  0  0  0  0
   -3.1302    1.8229    0.0000 C   0  0  0  0  0  0  0  0  0  0  0  0
   -0.7306    0.1218    0.0000 C   0  0  0  0  0  0  0  0  0  0  0  0
   -1.5078   -0.1540    0.0000 C   0  0  0  0  0  0  0  0  0  0  0  0
    0.9921    1.4898    0.0000 C   0  0  0  0  0  0  0  0  0  0  0  0
   -2.8258    1.0493    0.0000 C   0  0  0  0  0  0  0  0  0  0  0  0
    0.6698   -2.5858    0.0000 O   0  0  0  0  0  0  0  0  0  0  0  0
   -3.9503    1.9483    0.0000 O   0  0  0  0  0  0  0  0  0  0  0  0
    2.5357    2.0629    0.0000 C   0  0  0  0  0  0  0  0  0  0  0  0
    1.1353    2.2993    0.0000 C   0  0  0  0  0  0  0  0  0  0  0  0
   -2.2026   -0.4871    0.0000 C   0  0  0  0  0  0  0  0  0  0  0  0
    1.9089    2.5894    0.0000 C   0  0  0  0  0  0  0  0  0  0  0  0
   -3.3379    0.3975    0.0000 C   0  0  0  0  0  0  0  0  0  0  0  0
   -2.0020    0.9276    0.0000 C   0  0  0  0  0  0  0  0  0  0  0  0
   -2.6109    2.4783    0.0000 O   0  0  0  0  0  0  0  0  0  0  0  0
   -1.6976    0.1612    0.0000 C   0  0  0  0  0  0  0  0  0  0  0  0
   -3.0263   -0.3689    0.0000 C   0  0  0  0  0  0  0  0  0  0  0  0
    0.2041    1.2141    0.0000 O   0  0  0  0  0  0  0  0  0  0  0  0
    0.0430    0.3975    0.0000 C   0  0  0  0  0  0  0  0  0  0  0  0
    3.0263    0.7235    0.0000 C   0  0  0  0  0  0  0  0  0  0  0  0
    3.3129    2.3494    0.0000 C   0  0  0  0  0  0  0  0  0  0  0  0
    3.7999    1.0028    0.0000 C   0  0  0  0  0  0  0  0  0  0  0  0
    3.9468    1.8122    0.0000 C   0  0  0  0  0  0  0  0  0  0  0  0
  2  1  1  0  0  0  0
  3  6  1  0  0  0  0
  4  2  1  0  0  0  0
  4  3  1  0  0  0  0
  5  3  2  0  0  0  0
  6  1  1  0  0  0  0
  7  5  1  0  0  0  0
  8  1  2  0  0  0  0
  9  7  2  0  0  0  0
 10 14  1  0  0  0  0
 11 27  1  0  0  0  0
 12 11  3  0  0  0  0
 13  7  1  0  0  0  0
 14 21  1  0  0  0  0
 14 22  2  0  0  0  0
 15  4  2  0  0  0  0
 16 10  2  0  0  0  0
 17  9  1  0  0  0  0
 18 13  2  0  0  0  0
 19  8  1  0  0  0  0
 20 18  1  0  0  0  0
 20 17  2  0  0  0  0
 21 25  2  0  0  0  0
 22 24  1  0  0  0  0
 23 10  1  0  0  0  0
 24 19  2  0  0  0  0
 25 19  1  0  0  0  0
 26 13  1  0  0  0  0
 27 26  1  0  0  0  0
 28  9  1  0  0  0  0
 29 17  1  0  0  0  0
 29 31  2  0  0  0  0
 30 28  2  0  0  0  0
 31 30  1  0  0  0  0
M  END
> <CdId>
1845

> <Mol Weight>
428.46

> <Formula>
C24H16N2O4S

> <Click_ID>
CLK024_G10 __ __ 

$$$$
