CLK002_C11
 OpenBabel03181417022D

 24 26  0  0  0  0  0  0  0  0999 V2000
   -1.5531    1.2356    0.0000 C   0  0  0  0  0  0  0  0  0  0  0  0
   -0.8317    0.8248    0.0000 N   0  0  0  0  0  0  0  0  0  0  0  0
   -1.5566    2.0673    0.0000 C   0  0  0  0  0  0  0  0  0  0  0  0
   -2.2779    0.8248    0.0000 C   0  0  0  0  0  0  0  0  0  0  0  0
   -0.1139    1.2425    0.0000 C   0  0  0  0  0  0  0  0  0  0  0  0
   -0.8248   -0.0034    0.0000 C   0  0  0  0  0  0  0  0  0  0  0  0
   -0.1139    2.0742    0.0000 N   0  0  0  0  0  0  0  0  0  0  0  0
   -2.2779    2.4781    0.0000 C   0  0  0  0  0  0  0  0  0  0  0  0
   -2.9924    1.2356    0.0000 C   0  0  0  0  0  0  0  0  0  0  0  0
    0.6074    0.8352    0.0000 S   0  0  0  0  0  0  0  0  0  0  0  0
   -0.1139   -0.4142    0.0000 C   0  0  0  0  0  0  0  0  0  0  0  0
   -1.5393   -0.4245    0.0000 O   0  0  0  0  0  0  0  0  0  0  0  0
   -2.9924    2.0673    0.0000 C   0  0  0  0  0  0  0  0  0  0  0  0
    1.3219    1.2494    0.0000 C   0  0  0  0  0  0  0  0  0  0  0  0
   -0.1139   -1.2390    0.0000 C   0  0  0  0  0  0  0  0  0  0  0  0
    2.0397    0.8491    0.0000 C   0  0  0  0  0  0  0  0  0  0  0  0
    0.5971   -1.6532    0.0000 C   0  0  0  0  0  0  0  0  0  0  0  0
    2.7507    0.4349    0.0000 C   0  0  0  0  0  0  0  0  0  0  0  0
    1.3081   -1.2494    0.0000 C   0  0  0  0  0  0  0  0  0  0  0  0
    0.5867   -2.4781    0.0000 C   0  0  0  0  0  0  0  0  0  0  0  0
    2.0225   -1.6601    0.0000 C   0  0  0  0  0  0  0  0  0  0  0  0
    1.3012   -2.8992    0.0000 C   0  0  0  0  0  0  0  0  0  0  0  0
    2.0225   -2.4919    0.0000 C   0  0  0  0  0  0  0  0  0  0  0  0
    2.7369   -2.9060    0.0000 F   0  0  0  0  0  0  0  0  0  0  0  0
  1  2  1  0  0  0  0
  1  3  1  0  0  0  0
  1  4  2  0  0  0  0
  2  5  1  0  0  0  0
  2  6  1  0  0  0  0
  3  7  1  0  0  0  0
  3  8  2  0  0  0  0
  4  9  1  0  0  0  0
  5 10  1  0  0  0  0
  5  7  2  0  0  0  0
  6 11  1  0  0  0  0
  6 12  2  0  0  0  0
  8 13  1  0  0  0  0
  9 13  2  0  0  0  0
 10 14  1  0  0  0  0
 11 15  2  0  0  0  0
 14 16  1  0  0  0  0
 15 17  1  0  0  0  0
 16 18  3  0  0  0  0
 17 19  1  0  0  0  0
 17 20  2  0  0  0  0
 19 21  2  0  0  0  0
 20 22  1  0  0  0  0
 21 23  1  0  0  0  0
 22 23  2  0  0  0  0
 23 24  1  0  0  0  0
M  END
> <CdId>
110

> <Mol Weight>
336.383

> <Formula>
C19H13FN2OS

> <Click_ID>
CLK002_C11 __ __ 

$$$$
