CLK046D03
 OpenBabel03181417022D

 32 36  0  0  0  0  0  0  0  0999 V2000
    0.4875    0.1917    0.0000 N   0  0  0  0  0  0  0  0  0  0  0  0
    0.4875   -0.6333    0.0000 C   0  0  0  0  0  0  0  0  0  0  0  0
    1.2000   -1.0458    0.0000 N   0  0  0  0  0  0  0  0  0  0  0  0
   -0.7833   -0.2208    0.0000 N   0  0  0  0  0  0  0  0  0  0  0  0
   -0.3000    0.4458    0.0000 C   0  0  0  0  0  0  0  0  0  0  0  0
   -0.3000   -0.8875    0.0000 N   0  0  0  0  0  0  0  0  0  0  0  0
    1.9167   -0.6333    0.0000 C   0  0  0  0  0  0  0  0  0  0  0  0
    1.2000    0.6042    0.0000 C   0  0  0  0  0  0  0  0  0  0  0  0
    1.9167    0.1917    0.0000 C   0  0  0  0  0  0  0  0  0  0  0  0
   -1.6083   -0.2208    0.0000 C   0  0  0  0  0  0  0  0  0  0  0  0
    1.2000   -1.8708    0.0000 C   0  0  0  0  0  0  0  0  0  0  0  0
   -2.0208    0.4917    0.0000 N   0  0  0  0  0  0  0  0  0  0  0  0
   -0.5542    1.2333    0.0000 S   0  0  0  0  0  0  0  0  0  0  0  0
   -2.8458    3.3500    0.0000 C   0  0  0  0  0  0  0  0  0  0  0  0
   -2.8458    1.9208    0.0000 N   0  0  0  0  0  0  0  0  0  0  0  0
   -2.4333    4.0625    0.0000 C   0  0  0  0  0  0  0  0  0  0  0  0
    2.6292   -1.0458    0.0000 O   0  0  0  0  0  0  0  0  0  0  0  0
    1.9167   -2.2833    0.0000 C   0  0  0  0  0  0  0  0  0  0  0  0
    0.4875   -2.2833    0.0000 C   0  0  0  0  0  0  0  0  0  0  0  0
   -1.6083    1.2083    0.0000 C   0  0  0  0  0  0  0  0  0  0  0  0
   -2.8458    0.4917    0.0000 C   0  0  0  0  0  0  0  0  0  0  0  0
   -3.2583    1.2083    0.0000 C   0  0  0  0  0  0  0  0  0  0  0  0
   -2.0208    1.9208    0.0000 C   0  0  0  0  0  0  0  0  0  0  0  0
   -3.2583    2.6375    0.0000 C   0  0  0  0  0  0  0  0  0  0  0  0
    2.6292    0.6042    0.0000 C   0  0  0  0  0  0  0  0  0  0  0  0
    1.2000    1.4292    0.0000 C   0  0  0  0  0  0  0  0  0  0  0  0
    0.4875   -3.1083    0.0000 C   0  0  0  0  0  0  0  0  0  0  0  0
    1.9167   -3.1083    0.0000 C   0  0  0  0  0  0  0  0  0  0  0  0
    1.2000   -3.5208    0.0000 C   0  0  0  0  0  0  0  0  0  0  0  0
    1.2000   -4.3458    0.0000 C   0  0  0  0  0  0  0  0  0  0  0  0
    2.6292    1.4292    0.0000 C   0  0  0  0  0  0  0  0  0  0  0  0
    1.9167    1.8417    0.0000 C   0  0  0  0  0  0  0  0  0  0  0  0
  2  1  1  0  0  0  0
  3  2  1  0  0  0  0
  4  5  1  0  0  0  0
  5  1  1  0  0  0  0
  6  2  2  0  0  0  0
  6  4  1  0  0  0  0
  7  3  1  0  0  0  0
  8  1  1  0  0  0  0
  9  8  2  0  0  0  0
  9  7  1  0  0  0  0
 10  4  1  0  0  0  0
 11  3  1  0  0  0  0
 12 10  1  0  0  0  0
 13  5  2  0  0  0  0
 14 24  1  0  0  0  0
 15 22  1  0  0  0  0
 15 23  1  0  0  0  0
 16 14  3  0  0  0  0
 17  7  2  0  0  0  0
 18 11  1  0  0  0  0
 19 11  2  0  0  0  0
 20 12  1  0  0  0  0
 21 12  1  0  0  0  0
 22 21  1  0  0  0  0
 23 20  1  0  0  0  0
 24 15  1  0  0  0  0
 25  9  1  0  0  0  0
 26  8  1  0  0  0  0
 27 19  1  0  0  0  0
 28 18  2  0  0  0  0
 28 29  1  0  0  0  0
 29 27  2  0  0  0  0
 30 29  1  0  0  0  0
 31 25  2  0  0  0  0
 32 26  2  0  0  0  0
 32 31  1  0  0  0  0
M  END
> <CdId>
3500

> <Mol Weight>
444.552

> <Formula>
C24H24N6OS

> <Click_ID>
CLK046D03 __ __ 

$$$$
