CLK023_E03
 OpenBabel03181417022D

 27 30  0  0  0  0  0  0  0  0999 V2000
   -2.4804    0.0035    0.0000 N    0  0  0  0  0  0  0  0  0  0  0  0
   -1.9926    0.6665    0.0000 C    0  0  0  0  0  0  0  0  0  0  0  0
   -1.9960   -0.6665    0.0000 C    0  0  0  0  0  0  0  0  0  0  0  0
   -1.2162   -0.4191    0.0000 C    0  0  0  0  0  0  0  0  0  0  0  0
   -2.4701    1.3295    0.0000 N    0  0  0  0  0  0  0  0  0  0  0  0
   -1.2059    0.4054    0.0000 S    0  0  0  0  0  0  0  0  0  0  0  0
   -3.2534    0.2542    0.0000 C    0  0  0  0  0  0  0  0  0  0  0  0
   -0.5531   -0.9070    0.0000 C    0  0  0  0  0  0  0  0  0  0  0  0
   -3.2534    1.0719    0.0000 C    0  0  0  0  0  0  0  0  0  0  0  0
    0.2096   -0.5703    0.0000 C    0  0  0  0  0  0  0  0  0  0  0  0
    1.6319   -0.7318    0.0000 C    0  0  0  0  0  0  0  0  0  0  0  0
    0.8726   -1.0581    0.0000 C    0  0  0  0  0  0  0  0  0  0  0  0
    1.7246    0.0928    0.0000 C    0  0  0  0  0  0  0  0  0  0  0  0
    0.3057    0.2542    0.0000 C    0  0  0  0  0  0  0  0  0  0  0  0
    3.9233    0.2405    0.0000 C    0  0  0  0  0  0  0  0  0  0  0  0
    1.0684    0.5840    0.0000 C    0  0  0  0  0  0  0  0  0  0  0  0
    4.6757    0.5669    0.0000 C    0  0  0  0  0  0  0  0  0  0  0  0
   -2.2537   -1.4464    0.0000 O    0  0  0  0  0  0  0  0  0  0  0  0
    0.7833   -1.8826    0.0000 Br   0  0  0  0  0  0  0  0  0  0  0  0
    2.4976    0.4157    0.0000 O    0  0  0  0  0  0  0  0  0  0  0  0
    1.1612    1.3982    0.0000 O    0  0  0  0  0  0  0  0  0  0  0  0
    3.1503   -0.0825    0.0000 C    0  0  0  0  0  0  0  0  0  0  0  0
   -3.9680   -0.1581    0.0000 C    0  0  0  0  0  0  0  0  0  0  0  0
   -3.9680    1.4910    0.0000 C    0  0  0  0  0  0  0  0  0  0  0  0
    0.5119    1.8861    0.0000 C    0  0  0  0  0  0  0  0  0  0  0  0
   -4.6791    0.2439    0.0000 C    0  0  0  0  0  0  0  0  0  0  0  0
   -4.6791    1.0719    0.0000 C    0  0  0  0  0  0  0  0  0  0  0  0
  2  1  1  0  0  0  0
  3  1  1  0  0  0  0
  4  3  1  0  0  0  0
  4  6  1  0  0  0  0
  5  2  2  0  0  0  0
  5  9  1  0  0  0  0
  6  2  1  0  0  0  0
  7  1  1  0  0  0  0
  8  4  2  0  0  0  0
  9  7  1  0  0  0  0
 10  8  1  0  0  0  0
 11 12  2  0  0  0  0
 11 13  1  0  0  0  0
 12 10  1  0  0  0  0
 13 16  2  0  0  0  0
 14 10  2  0  0  0  0
 15 22  1  0  0  0  0
 16 14  1  0  0  0  0
 17 15  3  0  0  0  0
 18  3  2  0  0  0  0
 19 12  1  0  0  0  0
 20 13  1  0  0  0  0
 21 16  1  0  0  0  0
 22 20  1  0  0  0  0
 23  7  2  0  0  0  0
 24  9  2  0  0  0  0
 24 27  1  0  0  0  0
 25 21  1  0  0  0  0
 26 23  1  0  0  0  0
 27 26  2  0  0  0  0
M  END
> <CdId>
1738

> <Mol Weight>
441.298

> <Formula>
C20H13BrN2O3S

> <Click_ID>
CLK023_E03 __ __ 

$$$$
