CLK027_C05
 OpenBabel03181417022D

 28 30  0  0  0  0  0  0  0  0999 V2000
    0.7221   -0.6740    0.0000 C   0  0  0  0  0  0  0  0  0  0  0  0
    1.6057    0.3232    0.0000 N   0  0  0  0  0  0  0  0  0  0  0  0
    0.7943    0.1479    0.0000 C   0  0  0  0  0  0  0  0  0  0  0  0
    2.0218   -0.3885    0.0000 N   0  0  0  0  0  0  0  0  0  0  0  0
    2.9227    3.3353    0.0000 S   0  0  0  0  0  0  0  0  0  0  0  0
    1.4716   -1.0109    0.0000 C   0  0  0  0  0  0  0  0  0  0  0  0
    0.0068   -1.0899    0.0000 C   0  0  0  0  0  0  0  0  0  0  0  0
    2.5926    2.5753    0.0000 C   0  0  0  0  0  0  0  0  0  0  0  0
    1.9221    1.0728    0.0000 C   0  0  0  0  0  0  0  0  0  0  0  0
   -2.8435   -3.5588    0.0000 C   0  0  0  0  0  0  0  0  0  0  0  0
   -3.5622   -3.9714    0.0000 C   0  0  0  0  0  0  0  0  0  0  0  0
    3.5588    2.8229    0.0000 O   0  0  0  0  0  0  0  0  0  0  0  0
    2.2728    3.8544    0.0000 O   0  0  0  0  0  0  0  0  0  0  0  0
    0.1857    0.6877    0.0000 O   0  0  0  0  0  0  0  0  0  0  0  0
    3.4418    3.9714    0.0000 N   0  0  0  0  0  0  0  0  0  0  0  0
    0.0068   -1.9118    0.0000 C   0  0  0  0  0  0  0  0  0  0  0  0
    3.0705    1.9221    0.0000 C   0  0  0  0  0  0  0  0  0  0  0  0
    1.7742    2.4963    0.0000 C   0  0  0  0  0  0  0  0  0  0  0  0
    2.7542    1.1588    0.0000 C   0  0  0  0  0  0  0  0  0  0  0  0
    1.4441    1.7261    0.0000 C   0  0  0  0  0  0  0  0  0  0  0  0
   -0.7049   -2.3278    0.0000 C   0  0  0  0  0  0  0  0  0  0  0  0
   -0.7049   -3.1496    0.0000 C   0  0  0  0  0  0  0  0  0  0  0  0
    1.6436   -1.8223    0.0000 C   0  0  0  0  0  0  0  0  0  0  0  0
   -2.1387   -3.1496    0.0000 C   0  0  0  0  0  0  0  0  0  0  0  0
   -1.4270   -3.5725    0.0000 O   0  0  0  0  0  0  0  0  0  0  0  0
    0.7221   -3.1496    0.0000 C   0  0  0  0  0  0  0  0  0  0  0  0
    0.7221   -2.3209    0.0000 C   0  0  0  0  0  0  0  0  0  0  0  0
    0.0068   -3.5725    0.0000 C   0  0  0  0  0  0  0  0  0  0  0  0
  2  3  1  0  0  0  0
  3  1  1  0  0  0  0
  4  6  2  0  0  0  0
  4  2  1  0  0  0  0
  5  8  1  0  0  0  0
  6  1  1  0  0  0  0
  7  1  2  0  0  0  0
  8 18  1  0  0  0  0
  9  2  1  0  0  0  0
 10 24  1  0  0  0  0
 11 10  3  0  0  0  0
 12  5  2  0  0  0  0
 13  5  2  0  0  0  0
 14  3  2  0  0  0  0
 15  5  1  0  0  0  0
 16  7  1  0  0  0  0
 17 19  1  0  0  0  0
 17  8  2  0  0  0  0
 18 20  2  0  0  0  0
 19  9  2  0  0  0  0
 20  9  1  0  0  0  0
 21 16  1  0  0  0  0
 22 21  2  0  0  0  0
 22 28  1  0  0  0  0
 23  6  1  0  0  0  0
 24 25  1  0  0  0  0
 25 22  1  0  0  0  0
 26 27  1  0  0  0  0
 27 16  2  0  0  0  0
 28 26  2  0  0  0  0
M  END
> <CdId>
2038

> <Mol Weight>
395.432

> <Formula>
C20H17N3O4S

> <Click_ID>
CLK027_C05 __ __ 

$$$$
