CLK019_B06
 OpenBabel03181417022D

 23 24  0  0  0  0  0  0  0  0999 V2000
    1.7748   -1.7336    0.0000 C    0  0  0  0  0  0  0  0  0  0  0  0
    2.1727   -2.4472    0.0000 C    0  0  0  0  0  0  0  0  0  0  0  0
    2.2002   -1.0201    0.0000 C    0  0  0  0  0  0  0  0  0  0  0  0
   -0.2973   -2.4060    0.0000 C    0  0  0  0  0  0  0  0  0  0  0  0
    6.9619   -1.8297    0.0000 C    0  0  0  0  0  0  0  0  0  0  0  0
   -0.7227   -3.1150    0.0000 C    0  0  0  0  0  0  0  0  0  0  0  0
    6.0562   -1.8022    0.0000 C    0  0  0  0  0  0  0  0  0  0  0  0
    2.9961   -2.4609    0.0000 C    0  0  0  0  0  0  0  0  0  0  0  0
    3.0235   -1.0338    0.0000 C    0  0  0  0  0  0  0  0  0  0  0  0
    7.3873   -2.6256    0.0000 C    0  0  0  0  0  0  0  0  0  0  0  0
    3.4215   -1.7565    0.0000 C    0  0  0  0  0  0  0  0  0  0  0  0
    4.6702   -2.5570    0.0000 N    0  0  0  0  0  0  0  0  0  0  0  0
    5.5759   -2.5707    0.0000 C    0  0  0  0  0  0  0  0  0  0  0  0
    6.9161   -3.3940    0.0000 C    0  0  0  0  0  0  0  0  0  0  0  0
    1.7565   -3.1562    0.0000 Br   0  0  0  0  0  0  0  0  0  0  0  0
    4.2448   -1.7702    0.0000 C    0  0  0  0  0  0  0  0  0  0  0  0
    0.9515   -1.7199    0.0000 O    0  0  0  0  0  0  0  0  0  0  0  0
    7.3873   -1.1298    0.0000 Cl   0  0  0  0  0  0  0  0  0  0  0  0
    1.7976   -0.3065    0.0000 O    0  0  0  0  0  0  0  0  0  0  0  0
    8.2106   -2.6530    0.0000 Cl   0  0  0  0  0  0  0  0  0  0  0  0
    6.0104   -3.3666    0.0000 C    0  0  0  0  0  0  0  0  0  0  0  0
    0.5261   -2.4198    0.0000 C    0  0  0  0  0  0  0  0  0  0  0  0
    2.2139    0.3979    0.0000 C    0  0  0  0  0  0  0  0  0  0  0  0
  2  1  2  0  0  0  0
  3  1  1  0  0  0  0
  4 22  1  0  0  0  0
  5  7  2  0  0  0  0
  5 10  1  0  0  0  0
  6  4  3  0  0  0  0
  7 13  1  0  0  0  0
  8  2  1  0  0  0  0
  9  3  2  0  0  0  0
 10 14  2  0  0  0  0
 11  9  1  0  0  0  0
 11  8  2  0  0  0  0
 12 16  1  0  0  0  0
 13 12  1  0  0  0  0
 14 21  1  0  0  0  0
 15  2  1  0  0  0  0
 16 11  1  0  0  0  0
 17  1  1  0  0  0  0
 18  5  1  0  0  0  0
 19  3  1  0  0  0  0
 20 10  1  0  0  0  0
 21 13  2  0  0  0  0
 22 17  1  0  0  0  0
 23 19  1  0  0  0  0
M  END
> <CdId>
1411

> <Mol Weight>
415.109

> <Formula>
C17H14BrCl2NO2

> <Click_ID>
CLK019_B06 __ __ 

$$$$
