CLK039C07
 OpenBabel03181417022D

 18 19  0  0  0  0  0  0  0  0999 V2000
    2.0208   -3.0458    0.0000 C   0  0  0  0  0  0  0  0  0  0  0  0
    2.7375   -3.4583    0.0000 C   0  0  0  0  0  0  0  0  0  0  0  0
    0.5917   -1.3958    0.0000 C   0  0  0  0  0  0  0  0  0  0  0  0
   -0.8375    1.0792    0.0000 C   0  0  0  0  0  0  0  0  0  0  0  0
   -0.1208    0.6667    0.0000 C   0  0  0  0  0  0  0  0  0  0  0  0
   -0.1208   -0.1583    0.0000 O   0  0  0  0  0  0  0  0  0  0  0  0
   -0.1208   -1.8083    0.0000 O   0  0  0  0  0  0  0  0  0  0  0  0
    0.5917   -0.5708    0.0000 C   0  0  0  0  0  0  0  0  0  0  0  0
    1.3083   -1.8083    0.0000 N   0  0  0  0  0  0  0  0  0  0  0  0
   -0.8375    1.9042    0.0000 C   0  0  0  0  0  0  0  0  0  0  0  0
    1.3083   -2.6333    0.0000 C   0  0  0  0  0  0  0  0  0  0  0  0
    0.5917    1.9042    0.0000 C   0  0  0  0  0  0  0  0  0  0  0  0
    0.5917    1.0792    0.0000 C   0  0  0  0  0  0  0  0  0  0  0  0
   -1.5500    0.6667    0.0000 C   0  0  0  0  0  0  0  0  0  0  0  0
   -0.1208    2.3167    0.0000 C   0  0  0  0  0  0  0  0  0  0  0  0
   -1.5500    2.3167    0.0000 C   0  0  0  0  0  0  0  0  0  0  0  0
   -2.2625    1.0792    0.0000 C   0  0  0  0  0  0  0  0  0  0  0  0
   -2.2625    1.9042    0.0000 C   0  0  0  0  0  0  0  0  0  0  0  0
  2  1  3  0  0  0  0
  3  9  1  0  0  0  0
  4  5  2  0  0  0  0
  5  6  1  0  0  0  0
  6  8  1  0  0  0  0
  7  3  2  0  0  0  0
  8  3  1  0  0  0  0
  9 11  1  0  0  0  0
 10  4  1  0  0  0  0
 11  1  1  0  0  0  0
 12 13  2  0  0  0  0
 13  5  1  0  0  0  0
 14  4  1  0  0  0  0
 15 10  2  0  0  0  0
 15 12  1  0  0  0  0
 16 10  1  0  0  0  0
 17 14  2  0  0  0  0
 17 18  1  0  0  0  0
 18 16  2  0  0  0  0
M  END
> <CdId>
2971

> <Mol Weight>
239.2692

> <Formula>
C15H13NO2

> <Click_ID>
CLK039C07 __ __ 

$$$$
