CLK007_G04
 OpenBabel03181417022D

 33 37  0  0  0  0  0  0  0  0999 V2000
    6.6672  -19.1884    0.0000 C   0  0  3  0  0  0  0  0  0  0  0  0
    6.2606  -19.9062    0.0000 C   0  0  0  0  0  0  0  0  0  0  0  0
    5.4391  -19.9145    0.0000 C   0  0  0  0  0  0  0  0  0  0  0  0
    6.2482  -18.4789    0.0000 C   0  0  0  0  0  0  0  0  0  0  0  0
    7.3517  -18.7279    0.0000 C   0  0  0  0  0  0  0  0  0  0  0  0
    5.0160  -19.1968    0.0000 N   0  0  0  0  0  0  0  0  0  0  0  0
    5.4267  -18.4789    0.0000 C   0  0  0  0  0  0  0  0  0  0  0  0
    8.0073  -19.2341    0.0000 N   0  0  0  0  0  0  0  0  0  0  0  0
    6.8871  -19.9767    0.0000 C   0  0  0  0  0  0  0  0  0  0  0  0
    7.7127  -20.0140    0.0000 C   0  0  0  0  0  0  0  0  0  0  0  0
    5.9494  -20.6654    0.0000 C   0  0  0  0  0  0  0  0  0  0  0  0
    6.6547  -17.7654    0.0000 C   0  0  0  0  0  0  0  0  0  0  0  0
    5.6383  -21.4288    0.0000 N   0  0  0  0  0  0  0  0  0  0  0  0
    4.1945  -19.2008    0.0000 C   0  0  0  0  0  0  0  0  0  0  0  0
    9.5299  -19.3834    0.0000 C   0  0  0  0  0  0  0  0  0  0  0  0
   10.2477  -19.7776    0.0000 C   0  0  0  0  0  0  0  0  0  0  0  0
    7.6795  -17.9686    0.0000 O   0  0  0  0  0  0  0  0  0  0  0  0
    4.8749  -20.5202    0.0000 N   0  0  0  0  0  0  0  0  0  0  0  0
    8.7955  -19.0059    0.0000 C   0  0  0  0  0  0  0  0  0  0  0  0
    7.3684  -17.3339    0.0000 O   0  0  0  0  0  0  0  0  0  0  0  0
    3.7837  -19.9186    0.0000 C   0  0  0  0  0  0  0  0  0  0  0  0
    3.7879  -18.4831    0.0000 C   0  0  0  0  0  0  0  0  0  0  0  0
    5.0035  -17.7819    0.0000 C   0  0  0  0  0  0  0  0  0  0  0  0
    6.4598  -20.6779    0.0000 C   0  0  0  0  0  0  0  0  0  0  0  0
    2.9581  -18.4873    0.0000 C   0  0  0  0  0  0  0  0  0  0  0  0
    2.9581  -19.9186    0.0000 C   0  0  0  0  0  0  0  0  0  0  0  0
    2.5391  -19.2092    0.0000 C   0  0  0  0  0  0  0  0  0  0  0  0
    8.1151  -20.7401    0.0000 C   0  0  0  0  0  0  0  0  0  0  0  0
    6.2315  -17.0518    0.0000 C   0  0  0  0  0  0  0  0  0  0  0  0
    5.4101  -17.0600    0.0000 C   0  0  0  0  0  0  0  0  0  0  0  0
    1.7176  -19.2050    0.0000 C   0  0  0  0  0  0  0  0  0  0  0  0
    6.8414  -21.4122    0.0000 C   0  0  0  0  0  0  0  0  0  0  0  0
    7.6671  -21.4412    0.0000 C   0  0  0  0  0  0  0  0  0  0  0  0
  2  1  1  0  0  0  0
  3  2  2  0  0  0  0
  4  1  1  0  0  0  0
  5  1  1  0  0  0  0
  6  7  1  0  0  0  0
  6  3  1  0  0  0  0
  7  4  2  0  0  0  0
  8  5  1  0  0  0  0
  8 10  1  0  0  0  0
  9  1  1  0  0  0  0
 10  9  2  0  0  0  0
 11  2  1  0  0  0  0
 12  4  1  0  0  0  0
 13 11  3  0  0  0  0
 14  6  1  0  0  0  0
 15 19  1  0  0  0  0
 16 15  3  0  0  0  0
 17  5  2  0  0  0  0
 18  3  1  0  0  0  0
 19  8  1  0  0  0  0
 20 12  2  0  0  0  0
 21 14  1  0  0  0  0
 22 14  2  0  0  0  0
 23  7  1  0  0  0  0
 24  9  1  0  0  0  0
 25 22  1  0  0  0  0
 26 21  2  0  0  0  0
 27 25  2  0  0  0  0
 27 26  1  0  0  0  0
 28 10  1  0  0  0  0
 29 12  1  0  0  0  0
 30 29  1  0  0  0  0
 30 23  1  0  0  0  0
 31 27  1  0  0  0  0
 32 24  2  0  0  0  0
 33 32  1  0  0  0  0
 33 28  2  0  0  0  0
M  END
> <CdId>
543

> <Mol Weight>
434.4892

> <Formula>
C27H22N4O2

> <Click_ID>
CLK007_G04 __ __ 

$$$$
