CLK050A04
 OpenBabel03181417022D

 14 14  0  0  0  0  0  0  0  0999 V2000
   -0.2042    0.7083    0.0000 C    0  0  0  0  0  0  0  0  0  0  0  0
   -0.2042   -0.1167    0.0000 C    0  0  0  0  0  0  0  0  0  0  0  0
    1.2208    2.3583    0.0000 C    0  0  0  0  0  0  0  0  0  0  0  0
   -0.9208   -1.3542    0.0000 C    0  0  0  0  0  0  0  0  0  0  0  0
    1.9375    2.7708    0.0000 C    0  0  0  0  0  0  0  0  0  0  0  0
   -0.9208   -0.5292    0.0000 C    0  0  0  0  0  0  0  0  0  0  0  0
   -0.2042   -1.7667    0.0000 C    0  0  0  0  0  0  0  0  0  0  0  0
   -0.9208    1.1208    0.0000 O    0  0  0  0  0  0  0  0  0  0  0  0
    0.5083   -0.5292    0.0000 C    0  0  0  0  0  0  0  0  0  0  0  0
    0.5083   -1.3542    0.0000 C    0  0  0  0  0  0  0  0  0  0  0  0
    0.5083    1.1208    0.0000 N    0  0  0  0  0  0  0  0  0  0  0  0
   -1.6333   -1.7667    0.0000 Cl   0  0  0  0  0  0  0  0  0  0  0  0
   -0.2042   -2.5917    0.0000 O    0  0  0  0  0  0  0  0  0  0  0  0
    0.5083    1.9458    0.0000 C    0  0  0  0  0  0  0  0  0  0  0  0
  2  1  1  0  0  0  0
  3 14  1  0  0  0  0
  4  6  1  0  0  0  0
  5  3  3  0  0  0  0
  6  2  2  0  0  0  0
  7  4  2  0  0  0  0
  8  1  2  0  0  0  0
  9  2  1  0  0  0  0
 10  9  2  0  0  0  0
 10  7  1  0  0  0  0
 11  1  1  0  0  0  0
 12  4  1  0  0  0  0
 13  7  1  0  0  0  0
 14 11  1  0  0  0  0
M  END
> <CdId>
3825

> <Mol Weight>
209.629

> <Formula>
C10H8ClNO2

> <Click_ID>
CLK050A04 __ __ 

$$$$
