CLK011_E06
 OpenBabel03181417022D

 37 40  0  0  0  0  0  0  0  0999 V2000
   -2.2491   -3.4265    0.0000 N   0  0  0  0  0  0  0  0  0  0  0  0
   -0.8062   -3.4402    0.0000 C   0  0  0  0  0  0  0  0  0  0  0  0
   -1.5208   -3.8525    0.0000 C   0  0  0  0  0  0  0  0  0  0  0  0
   -2.2400   -2.5973    0.0000 C   0  0  0  0  0  0  0  0  0  0  0  0
   -1.5208   -2.1759    0.0000 N   0  0  0  0  0  0  0  0  0  0  0  0
   -0.7971   -2.6157    0.0000 C   0  0  0  0  0  0  0  0  0  0  0  0
   -0.0916   -3.8525    0.0000 C   0  0  0  0  0  0  0  0  0  0  0  0
   -2.9637   -3.8387    0.0000 C   0  0  0  0  0  0  0  0  0  0  0  0
    3.4814   -0.9666    0.0000 C   0  0  0  0  0  0  0  0  0  0  0  0
   -2.9684   -2.1759    0.0000 O   0  0  0  0  0  0  0  0  0  0  0  0
    3.4814   -0.1420    0.0000 C   0  0  0  0  0  0  0  0  0  0  0  0
   -1.5208   -4.6770    0.0000 O   0  0  0  0  0  0  0  0  0  0  0  0
    2.0522   -3.4402    0.0000 C   0  0  0  0  0  0  0  0  0  0  0  0
   -0.0778   -2.1988    0.0000 O   0  0  0  0  0  0  0  0  0  0  0  0
    0.6230   -3.4402    0.0000 C   0  0  0  0  0  0  0  0  0  0  0  0
    1.3376   -3.8525    0.0000 C   0  0  0  0  0  0  0  0  0  0  0  0
    2.0522   -2.6157    0.0000 C   0  0  0  0  0  0  0  0  0  0  0  0
   -3.6830   -3.4265    0.0000 C   0  0  0  0  0  0  0  0  0  0  0  0
   -2.9684   -4.6633    0.0000 C   0  0  0  0  0  0  0  0  0  0  0  0
    1.3376   -2.2034    0.0000 C   0  0  0  0  0  0  0  0  0  0  0  0
   -5.1213   -5.0709    0.0000 O   0  0  0  0  0  0  0  0  0  0  0  0
   -4.3976   -4.6587    0.0000 C   0  0  0  0  0  0  0  0  0  0  0  0
    0.6230   -2.6157    0.0000 C   0  0  0  0  0  0  0  0  0  0  0  0
   -5.8405   -6.2986    0.0000 C   0  0  0  0  0  0  0  0  0  0  0  0
   -5.1213   -5.9001    0.0000 C   0  0  0  0  0  0  0  0  0  0  0  0
   -3.6921   -5.0756    0.0000 C   0  0  0  0  0  0  0  0  0  0  0  0
   -4.4067   -3.8250    0.0000 C   0  0  0  0  0  0  0  0  0  0  0  0
    2.7668   -3.8525    0.0000 O   0  0  0  0  0  0  0  0  0  0  0  0
   -7.2743   -7.1232    0.0000 C   0  0  0  0  0  0  0  0  0  0  0  0
    2.7668   -2.2034    0.0000 O   0  0  0  0  0  0  0  0  0  0  0  0
   -6.5642   -5.8864    0.0000 C   0  0  0  0  0  0  0  0  0  0  0  0
   -5.8496   -7.1323    0.0000 C   0  0  0  0  0  0  0  0  0  0  0  0
   -7.2743   -6.2986    0.0000 C   0  0  0  0  0  0  0  0  0  0  0  0
   -6.5689   -7.5446    0.0000 C   0  0  0  0  0  0  0  0  0  0  0  0
    2.7668   -1.3789    0.0000 C   0  0  0  0  0  0  0  0  0  0  0  0
   -8.0027   -7.5354    0.0000 C   0  0  0  0  0  0  0  0  0  0  0  0
    2.7668   -4.6770    0.0000 C   0  0  0  0  0  0  0  0  0  0  0  0
  2  3  1  0  0  0  0
  2  6  1  0  0  0  0
  3  1  1  0  0  0  0
  4  1  1  0  0  0  0
  5  4  1  0  0  0  0
  6  5  1  0  0  0  0
  7  2  2  0  0  0  0
  8  1  1  0  0  0  0
  9 35  1  0  0  0  0
 10  4  2  0  0  0  0
 11  9  3  0  0  0  0
 12  3  2  0  0  0  0
 13 16  2  0  0  0  0
 13 17  1  0  0  0  0
 14  6  2  0  0  0  0
 15  7  1  0  0  0  0
 16 15  1  0  0  0  0
 17 20  2  0  0  0  0
 18  8  1  0  0  0  0
 19  8  2  0  0  0  0
 20 23  1  0  0  0  0
 21 22  1  0  0  0  0
 22 26  2  0  0  0  0
 22 27  1  0  0  0  0
 23 15  2  0  0  0  0
 24 25  1  0  0  0  0
 25 21  1  0  0  0  0
 26 19  1  0  0  0  0
 27 18  2  0  0  0  0
 28 13  1  0  0  0  0
 29 34  2  0  0  0  0
 29 33  1  0  0  0  0
 30 17  1  0  0  0  0
 31 24  1  0  0  0  0
 32 24  2  0  0  0  0
 33 31  2  0  0  0  0
 34 32  1  0  0  0  0
 35 30  1  0  0  0  0
 36 29  1  0  0  0  0
 37 28  1  0  0  0  0
M  END
> <CdId>
801

> <Mol Weight>
496.5107

> <Formula>
C29H24N2O6

> <Click_ID>
CLK011_E06 __ __ 

$$$$
