CLK013_F10
 OpenBabel03181417022D

 26 28  0  0  0  0  0  0  0  0999 V2000
    0.2174    1.1410    0.0000 N    0  0  0  0  0  0  0  0  0  0  0  0
    0.4682    0.3511    0.0000 C    0  0  0  0  0  0  0  0  0  0  0  0
    0.8819    1.6258    0.0000 C    0  0  0  0  0  0  0  0  0  0  0  0
    1.5548    1.1410    0.0000 C    0  0  0  0  0  0  0  0  0  0  0  0
    1.2957    0.3511    0.0000 N    0  0  0  0  0  0  0  0  0  0  0  0
    2.3448    1.4001    0.0000 C    0  0  0  0  0  0  0  0  0  0  0  0
   -0.5768    1.4001    0.0000 C    0  0  0  0  0  0  0  0  0  0  0  0
    4.0167    5.6216    0.0000 C    0  0  0  0  0  0  0  0  0  0  0  0
    4.2005    6.4199    0.0000 C    0  0  0  0  0  0  0  0  0  0  0  0
   -0.0209   -0.3177    0.0000 O    0  0  0  0  0  0  0  0  0  0  0  0
    0.8819    2.4534    0.0000 O    0  0  0  0  0  0  0  0  0  0  0  0
    2.5120    2.1901    0.0000 C    0  0  0  0  0  0  0  0  0  0  0  0
   -1.1912    0.8484    0.0000 C    0  0  0  0  0  0  0  0  0  0  0  0
   -2.4283   -0.2550    0.0000 C    0  0  0  0  0  0  0  0  0  0  0  0
    2.8631    3.7951    0.0000 C    0  0  0  0  0  0  0  0  0  0  0  0
   -3.0427   -0.8067    0.0000 Br   0  0  0  0  0  0  0  0  0  0  0  0
    3.2894    2.4409    0.0000 C    0  0  0  0  0  0  0  0  0  0  0  0
    1.9101    2.7543    0.0000 C    0  0  0  0  0  0  0  0  0  0  0  0
   -1.9811    1.0992    0.0000 C    0  0  0  0  0  0  0  0  0  0  0  0
   -1.0240    0.0334    0.0000 C    0  0  0  0  0  0  0  0  0  0  0  0
   -2.5913    0.5517    0.0000 C    0  0  0  0  0  0  0  0  0  0  0  0
   -1.6384   -0.5183    0.0000 C    0  0  0  0  0  0  0  0  0  0  0  0
    2.0857    3.5443    0.0000 C    0  0  0  0  0  0  0  0  0  0  0  0
    3.4775    3.2434    0.0000 C    0  0  0  0  0  0  0  0  0  0  0  0
    3.8286    4.8317    0.0000 C    0  0  0  0  0  0  0  0  0  0  0  0
    3.0512    4.5809    0.0000 O    0  0  0  0  0  0  0  0  0  0  0  0
  2  1  1  0  0  0  0
  3  1  1  0  0  0  0
  4  3  1  0  0  0  0
  5  2  1  0  0  0  0
  5  4  1  0  0  0  0
  6  4  2  0  0  0  0
  7  1  1  0  0  0  0
  8 25  1  0  0  0  0
  9  8  3  0  0  0  0
 10  2  2  0  0  0  0
 11  3  2  0  0  0  0
 12  6  1  0  0  0  0
 13  7  1  0  0  0  0
 14 22  1  0  0  0  0
 15 23  2  0  0  0  0
 16 14  1  0  0  0  0
 17 12  1  0  0  0  0
 18 12  2  0  0  0  0
 19 13  2  0  0  0  0
 20 13  1  0  0  0  0
 21 19  1  0  0  0  0
 21 14  2  0  0  0  0
 22 20  2  0  0  0  0
 23 18  1  0  0  0  0
 24 17  2  0  0  0  0
 24 15  1  0  0  0  0
 25 26  1  0  0  0  0
 26 15  1  0  0  0  0
M  END
> <CdId>
975

> <Mol Weight>
411.249

> <Formula>
C20H15BrN2O3

> <Click_ID>
CLK013_F10 __ __ 

$$$$
