CLK010_H08
 OpenBabel03181417022D

 30 33  0  0  0  0  0  0  0  0999 V2000
    6.4667   -2.7167    0.0000 C    0  0  0  0  0  0  0  0  0  0  0  0
    7.2917   -2.7167    0.0000 C    0  0  0  0  0  0  0  0  0  0  0  0
    6.4667   -1.2917    0.0000 C    0  0  0  0  0  0  0  0  0  0  0  0
    6.0500   -2.0042    0.0000 C    0  0  3  0  0  0  0  0  0  0  0  0
    7.7000   -2.0042    0.0000 N    0  0  0  0  0  0  0  0  0  0  0  0
    6.2167   -3.5042    0.0000 C    0  0  0  0  0  0  0  0  0  0  0  0
    7.2917   -1.2917    0.0000 C    0  0  0  0  0  0  0  0  0  0  0  0
    7.5542   -3.5000    0.0000 C    0  0  0  0  0  0  0  0  0  0  0  0
    6.8792   -3.9875    0.0000 C    0  0  0  0  0  0  0  0  0  0  0  0
    5.2250   -2.0042    0.0000 C    0  0  0  0  0  0  0  0  0  0  0  0
    6.0542   -0.5792    0.0000 C    0  0  0  0  0  0  0  0  0  0  0  0
    4.8167   -1.2917    0.0000 C    0  0  0  0  0  0  0  0  0  0  0  0
    1.5167   -1.2667    0.0000 C    0  0  0  0  0  0  0  0  0  0  0  0
    3.9917   -1.2875    0.0000 C    0  0  0  0  0  0  0  0  0  0  0  0
    0.6917   -1.2542    0.0000 C    0  0  0  0  0  0  0  0  0  0  0  0
    5.4292   -3.7667    0.0000 O    0  0  0  0  0  0  0  0  0  0  0  0
    4.8042   -2.7167    0.0000 C    0  0  0  0  0  0  0  0  0  0  0  0
    3.5750   -2.0000    0.0000 C    0  0  0  0  0  0  0  0  0  0  0  0
    5.2292   -0.5750    0.0000 O    0  0  0  0  0  0  0  0  0  0  0  0
    3.9792   -2.7167    0.0000 C    0  0  0  0  0  0  0  0  0  0  0  0
    3.5875   -0.5750    0.0000 Br   0  0  0  0  0  0  0  0  0  0  0  0
    6.4667    0.1375    0.0000 O    0  0  0  0  0  0  0  0  0  0  0  0
    7.7042   -0.5792    0.0000 C    0  0  0  0  0  0  0  0  0  0  0  0
    2.7500   -1.9917    0.0000 O    0  0  0  0  0  0  0  0  0  0  0  0
    8.3042   -3.8292    0.0000 C    0  0  0  0  0  0  0  0  0  0  0  0
    6.9667   -4.8042    0.0000 C    0  0  0  0  0  0  0  0  0  0  0  0
    2.3417   -1.2667    0.0000 C    0  0  0  0  0  0  0  0  0  0  0  0
    6.0625    0.8500    0.0000 C    0  0  0  0  0  0  0  0  0  0  0  0
    8.3917   -4.6542    0.0000 C    0  0  0  0  0  0  0  0  0  0  0  0
    7.7250   -5.1417    0.0000 C    0  0  0  0  0  0  0  0  0  0  0  0
  2  1  2  0  0  0  0
  3  4  1  0  0  0  0
  4  1  1  0  0  0  0
  5  2  1  0  0  0  0
  6  1  1  0  0  0  0
  7  3  2  0  0  0  0
  7  5  1  0  0  0  0
  8  2  1  0  0  0  0
  9  6  1  0  0  0  0
  9  8  2  0  0  0  0
 10  4  1  0  0  0  0
 11  3  1  0  0  0  0
 12 10  1  0  0  0  0
 13 27  1  0  0  0  0
 14 12  2  0  0  0  0
 15 13  3  0  0  0  0
 16  6  2  0  0  0  0
 17 10  2  0  0  0  0
 18 20  2  0  0  0  0
 18 14  1  0  0  0  0
 19 11  2  0  0  0  0
 20 17  1  0  0  0  0
 21 14  1  0  0  0  0
 22 11  1  0  0  0  0
 23  7  1  0  0  0  0
 24 18  1  0  0  0  0
 25  8  1  0  0  0  0
 26  9  1  0  0  0  0
 27 24  1  0  0  0  0
 28 22  1  0  0  0  0
 29 25  2  0  0  0  0
 29 30  1  0  0  0  0
 30 26  2  0  0  0  0
M  END
> <CdId>
753

> <Mol Weight>
464.308

> <Formula>
C24H18BrNO4

> <Click_ID>
CLK010_H08 __ __ 

$$$$
