CLK026_D05
 OpenBabel03181417022D

 20 21  0  0  0  0  0  0  0  0999 V2000
   -1.9741   -0.3570    0.0000 N   0  0  0  0  0  0  0  0  0  0  0  0
   -2.3793   -1.0815    0.0000 C   0  0  0  0  0  0  0  0  0  0  0  0
   -1.1604   -0.5253    0.0000 C   0  0  0  0  0  0  0  0  0  0  0  0
   -1.0747   -1.3424    0.0000 C   0  0  0  0  0  0  0  0  0  0  0  0
   -1.8299   -1.6926    0.0000 S   0  0  0  0  0  0  0  0  0  0  0  0
   -0.3605   -1.7544    0.0000 C   0  0  0  0  0  0  0  0  0  0  0  0
   -1.8299    1.0574    0.0000 C   0  0  0  0  0  0  0  0  0  0  0  0
   -1.3939    1.7578    0.0000 C   0  0  0  0  0  0  0  0  0  0  0  0
   -3.1964   -1.1674    0.0000 O   0  0  0  0  0  0  0  0  0  0  0  0
   -0.5597    0.0344    0.0000 O   0  0  0  0  0  0  0  0  0  0  0  0
   -2.3106    0.3846    0.0000 C   0  0  0  0  0  0  0  0  0  0  0  0
    1.7578   -0.4909    0.0000 C   0  0  0  0  0  0  0  0  0  0  0  0
    0.3467   -1.3287    0.0000 C   0  0  0  0  0  0  0  0  0  0  0  0
    1.0335   -0.0824    0.0000 C   0  0  0  0  0  0  0  0  0  0  0  0
    1.7750   -1.3012    0.0000 C   0  0  0  0  0  0  0  0  0  0  0  0
    2.4720   -0.0686    0.0000 C   0  0  0  0  0  0  0  0  0  0  0  0
    1.0644   -1.7269    0.0000 C   0  0  0  0  0  0  0  0  0  0  0  0
    0.3364   -0.5012    0.0000 C   0  0  0  0  0  0  0  0  0  0  0  0
    3.1930   -0.4670    0.0000 C   0  0  0  0  0  0  0  0  0  0  0  0
    2.4479    0.7587    0.0000 C   0  0  0  0  0  0  0  0  0  0  0  0
  2  1  1  0  0  0  0
  3  1  1  0  0  0  0
  4  3  1  0  0  0  0
  5  2  1  0  0  0  0
  5  4  1  0  0  0  0
  6  4  2  0  0  0  0
  7 11  1  0  0  0  0
  8  7  3  0  0  0  0
  9  2  2  0  0  0  0
 10  3  2  0  0  0  0
 11  1  1  0  0  0  0
 12 14  1  0  0  0  0
 12 15  2  0  0  0  0
 13  6  1  0  0  0  0
 14 18  2  0  0  0  0
 15 17  1  0  0  0  0
 16 12  1  0  0  0  0
 17 13  2  0  0  0  0
 18 13  1  0  0  0  0
 19 16  1  0  0  0  0
 20 16  1  0  0  0  0
M  END
> <CdId>
1970

> <Mol Weight>
285.361

> <Formula>
C16H15NO2S

> <Click_ID>
CLK026_D05 __ __ 

$$$$
