CLK009_E02
 OpenBabel03181417022D

 21 22  0  0  0  0  0  0  0  0999 V2000
   -2.3440    0.9801    0.0000 C   0  0  0  0  0  0  0  0  0  0  0  0
   -3.0707    0.5552    0.0000 C   0  0  0  0  0  0  0  0  0  0  0  0
   -3.7974    0.9801    0.0000 C   0  0  0  0  0  0  0  0  0  0  0  0
   -1.6062    0.5814    0.0000 O   0  0  0  0  0  0  0  0  0  0  0  0
   -3.7974    1.8074    0.0000 C   0  0  0  0  0  0  0  0  0  0  0  0
   -0.8050    1.5764    0.0000 C   0  0  0  0  0  0  0  0  0  0  0  0
   -0.8050    0.9391    0.0000 C   0  0  3  0  0  0  0  0  0  0  0  0
   -0.2087    2.0757    0.0000 C   0  0  0  0  0  0  0  0  0  0  0  0
   -2.3366    1.8074    0.0000 O   0  0  0  0  0  0  0  0  0  0  0  0
   -4.5018    2.2360    0.0000 O   0  0  0  0  0  0  0  0  0  0  0  0
   -0.0410    0.6708    0.0000 C   0  0  0  0  0  0  0  0  0  0  0  0
   -3.0857    2.2546    0.0000 O   0  0  0  0  0  0  0  0  0  0  0  0
   -3.0707   -0.2833    0.0000 C   0  0  0  0  0  0  0  0  0  0  0  0
   -4.5167    0.5552    0.0000 C   0  0  0  0  0  0  0  0  0  0  0  0
    0.1156   -0.1342    0.0000 C   0  0  0  0  0  0  0  0  0  0  0  0
    0.5814    1.2074    0.0000 C   0  0  0  0  0  0  0  0  0  0  0  0
   -4.5167   -0.2833    0.0000 C   0  0  0  0  0  0  0  0  0  0  0  0
   -3.7974   -0.7043    0.0000 C   0  0  0  0  0  0  0  0  0  0  0  0
    1.3565    0.9391    0.0000 C   0  0  0  0  0  0  0  0  0  0  0  0
    0.8944   -0.4062    0.0000 C   0  0  0  0  0  0  0  0  0  0  0  0
    1.5093    0.1342    0.0000 C   0  0  0  0  0  0  0  0  0  0  0  0
  2  1  1  0  0  0  0
  3  2  1  0  0  0  0
  4  1  1  0  0  0  0
  5  3  1  0  0  0  0
  6  7  1  0  0  0  0
  7  4  1  0  0  0  0
  8  6  3  0  0  0  0
  9  1  2  0  0  0  0
 10  5  2  0  0  0  0
 11  7  1  0  0  0  0
 12  5  1  0  0  0  0
 13  2  2  0  0  0  0
 14  3  2  0  0  0  0
 14 17  1  0  0  0  0
 15 11  2  0  0  0  0
 16 11  1  0  0  0  0
 17 18  2  0  0  0  0
 18 13  1  0  0  0  0
 19 16  2  0  0  0  0
 20 15  1  0  0  0  0
 21 19  1  0  0  0  0
 21 20  2  0  0  0  0
M  END
> <CdId>
637

> <Mol Weight>
280.2748

> <Formula>
C17H12O4

> <Click_ID>
CLK009_E02 __ __ 

$$$$
