CLK038H10
 OpenBabel03181417022D

 20 20  0  0  0  0  0  0  0  0999 V2000
   -0.3583   -0.1625    0.0000 C   0  0  0  0  0  0  0  0  0  0  0  0
   -2.5042    3.5500    0.0000 C   0  0  0  0  0  0  0  0  0  0  0  0
   -3.2167    3.9625    0.0000 C   0  0  0  0  0  0  0  0  0  0  0  0
    0.3542   -0.5750    0.0000 C   0  0  0  0  0  0  0  0  0  0  0  0
    1.7833   -3.0500    0.0000 C   0  0  0  0  0  0  0  0  0  0  0  0
   -1.0750    1.9000    0.0000 C   0  0  0  0  0  0  0  0  0  0  0  0
    1.0708   -2.6375    0.0000 N   0  0  0  0  0  0  0  0  0  0  0  0
   -0.3583    0.6625    0.0000 O   0  0  0  0  0  0  0  0  0  0  0  0
    0.3542   -1.4000    0.0000 C   0  0  0  0  0  0  0  0  0  0  0  0
    1.0708   -1.8125    0.0000 C   0  0  0  0  0  0  0  0  0  0  0  0
   -1.0750   -0.5750    0.0000 O   0  0  0  0  0  0  0  0  0  0  0  0
    1.7833   -3.8750    0.0000 O   0  0  0  0  0  0  0  0  0  0  0  0
   -0.3583    2.3125    0.0000 O   0  0  0  0  0  0  0  0  0  0  0  0
   -1.0750    1.0750    0.0000 C   0  0  0  0  0  0  0  0  0  0  0  0
   -1.7875    2.3125    0.0000 N   0  0  0  0  0  0  0  0  0  0  0  0
   -1.7875    3.1375    0.0000 C   0  0  0  0  0  0  0  0  0  0  0  0
    1.0708   -0.1625    0.0000 C   0  0  0  0  0  0  0  0  0  0  0  0
    1.7833   -0.5750    0.0000 C   0  0  0  0  0  0  0  0  0  0  0  0
    2.5000   -2.6375    0.0000 C   0  0  0  0  0  0  0  0  0  0  0  0
    1.7833   -1.4000    0.0000 C   0  0  0  0  0  0  0  0  0  0  0  0
  2 16  1  0  0  0  0
  3  2  3  0  0  0  0
  4  1  1  0  0  0  0
  5  7  1  0  0  0  0
  6 14  1  0  0  0  0
  7 10  1  0  0  0  0
  8  1  1  0  0  0  0
  9  4  1  0  0  0  0
 10  9  2  0  0  0  0
 11  1  2  0  0  0  0
 12  5  2  0  0  0  0
 13  6  2  0  0  0  0
 14  8  1  0  0  0  0
 15  6  1  0  0  0  0
 16 15  1  0  0  0  0
 17  4  2  0  0  0  0
 18 17  1  0  0  0  0
 18 20  2  0  0  0  0
 19  5  1  0  0  0  0
 20 10  1  0  0  0  0
M  END
> <CdId>
2920

> <Mol Weight>
274.272

> <Formula>
C14H14N2O4

> <Click_ID>
CLK038H10 __ __ 

$$$$
