CLK048D09
 OpenBabel03181417022D

 16 16  0  0  0  0  0  0  0  0999 V2000
   -0.7625    0.5417    0.0000 C   0  0  0  0  0  0  0  0  0  0  0  0
    1.3833   -3.1708    0.0000 C   0  0  0  0  0  0  0  0  0  0  0  0
    1.3833   -3.9958    0.0000 C   0  0  0  0  0  0  0  0  0  0  0  0
   -0.0458    0.1292    0.0000 N   0  0  0  0  0  0  0  0  0  0  0  0
    0.6667   -1.1083    0.0000 C   0  0  0  0  0  0  0  0  0  0  0  0
   -1.4750    0.1292    0.0000 O   0  0  0  0  0  0  0  0  0  0  0  0
   -0.7625    1.3667    0.0000 C   0  0  0  0  0  0  0  0  0  0  0  0
    1.3833   -0.6958    0.0000 O   0  0  0  0  0  0  0  0  0  0  0  0
   -0.0458   -0.6958    0.0000 C   0  0  0  0  0  0  0  0  0  0  0  0
    0.6667   -1.9333    0.0000 N   0  0  0  0  0  0  0  0  0  0  0  0
    1.3833   -2.3458    0.0000 C   0  0  0  0  0  0  0  0  0  0  0  0
   -0.0458    1.7792    0.0000 C   0  0  0  0  0  0  0  0  0  0  0  0
   -1.4750    1.7792    0.0000 C   0  0  0  0  0  0  0  0  0  0  0  0
   -1.4750    2.6042    0.0000 C   0  0  0  0  0  0  0  0  0  0  0  0
   -0.0458    2.6042    0.0000 C   0  0  0  0  0  0  0  0  0  0  0  0
   -0.7625    3.0167    0.0000 C   0  0  0  0  0  0  0  0  0  0  0  0
  2 11  1  0  0  0  0
  3  2  3  0  0  0  0
  4  1  1  0  0  0  0
  5  9  1  0  0  0  0
  6  1  2  0  0  0  0
  7  1  1  0  0  0  0
  8  5  2  0  0  0  0
  9  4  1  0  0  0  0
 10  5  1  0  0  0  0
 11 10  1  0  0  0  0
 12  7  1  0  0  0  0
 13  7  2  0  0  0  0
 14 13  1  0  0  0  0
 15 12  2  0  0  0  0
 16 14  2  0  0  0  0
 16 15  1  0  0  0  0
M  END
> <CdId>
3708

> <Mol Weight>
216.2359

> <Formula>
C12H12N2O2

> <Click_ID>
CLK048D09 __ __ 

$$$$
