CLK022_C02
 OpenBabel03181417022D

 17 17  0  0  0  0  0  0  0  0999 V2000
    7.4392    0.8337    0.0000 C   0  0  0  0  0  0  0  0  0  0  0  0
    9.4456    1.4155    0.0000 C   0  0  0  0  0  0  0  0  0  0  0  0
    8.1538    1.2459    0.0000 N   0  0  0  0  0  0  0  0  0  0  0  0
   10.0365    2.0018    0.0000 C   0  0  0  0  0  0  0  0  0  0  0  0
    6.7246    1.2459    0.0000 N   0  0  0  0  0  0  0  0  0  0  0  0
    8.8684    0.8337    0.0000 C   0  0  0  0  0  0  0  0  0  0  0  0
    7.4392    0.0091    0.0000 O   0  0  0  0  0  0  0  0  0  0  0  0
    6.0100    0.8337    0.0000 C   0  0  0  0  0  0  0  0  0  0  0  0
    8.3966    0.1603    0.0000 C   0  0  0  0  0  0  0  0  0  0  0  0
    9.5006    0.3023    0.0000 C   0  0  0  0  0  0  0  0  0  0  0  0
    5.2954    1.2459    0.0000 C   0  0  0  0  0  0  0  0  0  0  0  0
    6.0100    0.0091    0.0000 C   0  0  0  0  0  0  0  0  0  0  0  0
    8.7448   -0.5818    0.0000 C   0  0  0  0  0  0  0  0  0  0  0  0
    9.3586   -0.5085    0.0000 C   0  0  0  0  0  0  0  0  0  0  0  0
    5.2954   -0.4031    0.0000 C   0  0  0  0  0  0  0  0  0  0  0  0
    4.5808    0.8337    0.0000 C   0  0  0  0  0  0  0  0  0  0  0  0
    4.5808    0.0091    0.0000 C   0  0  0  0  0  0  0  0  0  0  0  0
  2  6  1  0  0  0  0
  3  1  1  0  0  0  0
  4  2  3  0  0  0  0
  5  1  1  0  0  0  0
  6  3  1  0  0  0  0
  7  1  2  0  0  0  0
  8  5  1  0  0  0  0
  9  6  1  0  0  0  0
 10  6  1  0  0  0  0
 11  8  1  0  0  0  0
 12  8  1  0  0  0  0
 13  9  1  0  0  0  0
 14 10  1  0  0  0  0
 15 12  1  0  0  0  0
 16 11  1  0  0  0  0
 17 15  1  0  0  0  0
 17 16  1  0  0  0  0
M  END
> <CdId>
1653

> <Mol Weight>
236.3532

> <Formula>
C14H24N2O

> <Click_ID>
CLK022_C02 __ __ 

$$$$
