CLK005_H09
 OpenBabel03181417022D

 24 26  0  0  0  0  0  0  0  0999 V2000
   -1.8263   -0.0214    0.0000 C    0  0  0  0  0  0  0  0  0  0  0  0
   -2.6460    0.0854    0.0000 N    0  0  0  0  0  0  0  0  0  0  0  0
   -1.5112   -0.7876    0.0000 C    0  0  0  0  0  0  0  0  0  0  0  0
   -1.3217    0.6248    0.0000 C    0  0  0  0  0  0  0  0  0  0  0  0
   -3.1479   -0.5634    0.0000 C    0  0  0  0  0  0  0  0  0  0  0  0
   -2.9584    0.8438    0.0000 C    0  0  0  0  0  0  0  0  0  0  0  0
   -0.6942   -0.8998    0.0000 C    0  0  0  0  0  0  0  0  0  0  0  0
   -2.0158   -1.4418    0.0000 Cl   0  0  0  0  0  0  0  0  0  0  0  0
   -0.5020    0.5153    0.0000 C    0  0  0  0  0  0  0  0  0  0  0  0
   -3.9676   -0.4539    0.0000 C    0  0  0  0  0  0  0  0  0  0  0  0
   -3.7781    0.9559    0.0000 C    0  0  0  0  0  0  0  0  0  0  0  0
   -0.1895   -0.2456    0.0000 C    0  0  0  0  0  0  0  0  0  0  0  0
   -4.2800    0.3097    0.0000 O    0  0  0  0  0  0  0  0  0  0  0  0
    0.6301   -0.3551    0.0000 N    0  0  0  0  0  0  0  0  0  0  0  0
    1.1321    0.3044    0.0000 C    0  0  0  0  0  0  0  0  0  0  0  0
    1.9491    0.1895    0.0000 C    0  0  0  0  0  0  0  0  0  0  0  0
    0.8197    1.0573    0.0000 O    0  0  0  0  0  0  0  0  0  0  0  0
    2.4564    0.8384    0.0000 C    0  0  0  0  0  0  0  0  0  0  0  0
    2.2669   -0.5714    0.0000 C    0  0  0  0  0  0  0  0  0  0  0  0
    3.2761    0.7289    0.0000 C    0  0  0  0  0  0  0  0  0  0  0  0
    3.0865   -0.6862    0.0000 C    0  0  0  0  0  0  0  0  0  0  0  0
    3.5885   -0.0321    0.0000 C    0  0  0  0  0  0  0  0  0  0  0  0
    4.4082   -0.1415    0.0000 C    0  0  0  0  0  0  0  0  0  0  0  0
    5.2252   -0.2510    0.0000 C    0  0  0  0  0  0  0  0  0  0  0  0
  1  2  1  0  0  0  0
  1  3  1  0  0  0  0
  1  4  2  0  0  0  0
  2  5  1  0  0  0  0
  2  6  1  0  0  0  0
  3  7  2  0  0  0  0
  3  8  1  0  0  0  0
  4  9  1  0  0  0  0
  5 10  1  0  0  0  0
  6 11  1  0  0  0  0
  7 12  1  0  0  0  0
  9 12  2  0  0  0  0
 10 13  1  0  0  0  0
 11 13  1  0  0  0  0
 12 14  1  0  0  0  0
 14 15  1  0  0  0  0
 15 16  1  0  0  0  0
 15 17  2  0  0  0  0
 16 18  2  0  0  0  0
 16 19  1  0  0  0  0
 18 20  1  0  0  0  0
 19 21  2  0  0  0  0
 20 22  2  0  0  0  0
 21 22  1  0  0  0  0
 22 23  1  0  0  0  0
 23 24  3  0  0  0  0
M  END
> <CdId>
398

> <Mol Weight>
340.803

> <Formula>
C19H17ClN2O2

> <Click_ID>
CLK005_H09 __ __ 

$$$$
