CLK025_B10
 OpenBabel03181417022D

 23 24  0  0  0  0  0  0  0  0999 V2000
    1.6088   -1.2631    0.0000 N    0  0  0  0  0  0  0  0  0  0  0  0
    2.3688   -1.2323    0.0000 C    0  0  0  0  0  0  0  0  0  0  0  0
    1.2769   -0.4519    0.0000 C    0  0  0  0  0  0  0  0  0  0  0  0
    1.9546    0.0171    0.0000 C    0  0  0  0  0  0  0  0  0  0  0  0
    2.6119   -0.4758    0.0000 S    0  0  0  0  0  0  0  0  0  0  0  0
    2.8617   -1.8896    0.0000 N    0  0  0  0  0  0  0  0  0  0  0  0
   -0.1883    2.0744    0.0000 C    0  0  0  0  0  0  0  0  0  0  0  0
    1.9546    0.8386    0.0000 C    0  0  0  0  0  0  0  0  0  0  0  0
    0.5272    2.4852    0.0000 C    0  0  0  0  0  0  0  0  0  0  0  0
   -0.1883    1.2494    0.0000 C    0  0  0  0  0  0  0  0  0  0  0  0
    1.2391    1.2494    0.0000 C    0  0  0  0  0  0  0  0  0  0  0  0
    2.5434   -2.6460    0.0000 C    0  0  0  0  0  0  0  0  0  0  0  0
   -2.3277    2.4852    0.0000 C    0  0  0  0  0  0  0  0  0  0  0  0
   -3.0432    2.8960    0.0000 C    0  0  0  0  0  0  0  0  0  0  0  0
    0.5272    0.8386    0.0000 C    0  0  0  0  0  0  0  0  0  0  0  0
    1.2391    2.0744    0.0000 C    0  0  0  0  0  0  0  0  0  0  0  0
    0.4964   -0.2088    0.0000 O    0  0  0  0  0  0  0  0  0  0  0  0
    1.7218   -2.7522    0.0000 O    0  0  0  0  0  0  0  0  0  0  0  0
   -0.9003    0.8386    0.0000 Br   0  0  0  0  0  0  0  0  0  0  0  0
    0.5272    3.3067    0.0000 Br   0  0  0  0  0  0  0  0  0  0  0  0
   -0.9003    2.4852    0.0000 O    0  0  0  0  0  0  0  0  0  0  0  0
   -1.6157    2.0744    0.0000 C    0  0  0  0  0  0  0  0  0  0  0  0
    3.0397   -3.3067    0.0000 C    0  0  0  0  0  0  0  0  0  0  0  0
  2  1  2  0  0  0  0
  3  1  1  0  0  0  0
  4  3  1  0  0  0  0
  4  5  1  0  0  0  0
  5  2  1  0  0  0  0
  6  2  1  0  0  0  0
  7  9  1  0  0  0  0
  8  4  2  0  0  0  0
  9 16  2  0  0  0  0
 10 15  1  0  0  0  0
 10  7  2  0  0  0  0
 11  8  1  0  0  0  0
 12  6  1  0  0  0  0
 13 22  1  0  0  0  0
 14 13  3  0  0  0  0
 15 11  2  0  0  0  0
 16 11  1  0  0  0  0
 17  3  2  0  0  0  0
 18 12  2  0  0  0  0
 19 10  1  0  0  0  0
 20  9  1  0  0  0  0
 21  7  1  0  0  0  0
 22 21  1  0  0  0  0
 23 12  1  0  0  0  0
M  END
> <CdId>
1875

> <Mol Weight>
458.125

> <Formula>
C15H10Br2N2O3S

> <Click_ID>
CLK025_B10 __ __ 

$$$$
