CLK006_G05
 OpenBabel03181417022D

 21 22  0  0  0  0  0  0  0  0999 V2000
   -1.7042    0.4131    0.0000 C   0  0  0  0  0  0  0  0  0  0  0  0
   -0.9123    0.1687    0.0000 N   0  0  0  0  0  0  0  0  0  0  0  0
   -1.7111    1.2463    0.0000 C   0  0  0  0  0  0  0  0  0  0  0  0
   -2.4237    0.0034    0.0000 C   0  0  0  0  0  0  0  0  0  0  0  0
   -0.4269    0.8434    0.0000 C   0  0  0  0  0  0  0  0  0  0  0  0
   -0.4992   -0.5439    0.0000 C   0  0  0  0  0  0  0  0  0  0  0  0
   -0.9261    1.5114    0.0000 N   0  0  0  0  0  0  0  0  0  0  0  0
   -2.4237    1.6628    0.0000 C   0  0  0  0  0  0  0  0  0  0  0  0
   -3.1364    0.4165    0.0000 C   0  0  0  0  0  0  0  0  0  0  0  0
    0.3994    0.8469    0.0000 C   0  0  0  0  0  0  0  0  0  0  0  0
   -0.9088   -1.2532    0.0000 C   0  0  0  0  0  0  0  0  0  0  0  0
   -3.1364    1.2497    0.0000 C   0  0  0  0  0  0  0  0  0  0  0  0
    0.8159    0.1412    0.0000 C   0  0  0  0  0  0  0  0  0  0  0  0
   -0.4958   -1.9659    0.0000 C   0  0  0  0  0  0  0  0  0  0  0  0
    1.6388    0.1446    0.0000 N   0  0  0  0  0  0  0  0  0  0  0  0
    2.0588   -0.5681    0.0000 C   0  0  0  0  0  0  0  0  0  0  0  0
    2.8816   -0.5577    0.0000 C   0  0  0  0  0  0  0  0  0  0  0  0
    1.6491   -1.2841    0.0000 O   0  0  0  0  0  0  0  0  0  0  0  0
    3.2981   -1.2704    0.0000 C   0  0  0  0  0  0  0  0  0  0  0  0
    3.2844    0.1550    0.0000 C   0  0  0  0  0  0  0  0  0  0  0  0
    2.6750   -1.3564    0.0000 C   0  0  0  0  0  0  0  0  0  0  0  0
  1  2  1  0  0  0  0
  1  3  1  0  0  0  0
  1  4  2  0  0  0  0
  2  5  1  0  0  0  0
  2  6  1  0  0  0  0
  3  7  1  0  0  0  0
  3  8  2  0  0  0  0
  4  9  1  0  0  0  0
  5 10  1  0  0  0  0
  5  7  2  0  0  0  0
  6 11  1  0  0  0  0
  8 12  1  0  0  0  0
  9 12  2  0  0  0  0
 10 13  1  0  0  0  0
 11 14  3  0  0  0  0
 13 15  1  0  0  0  0
 15 16  1  0  0  0  0
 16 17  1  0  0  0  0
 16 18  2  0  0  0  0
 17 19  1  0  0  0  0
 17 20  1  0  0  0  0
 17 21  1  0  0  0  0
M  END
> <CdId>
464

> <Mol Weight>
283.3681

> <Formula>
C17H21N3O

> <Click_ID>
CLK006_G05 __ __ 

$$$$
