CLK035_F06
 OpenBabel03181417022D

 28 31  0  0  0  0  0  0  0  0999 V2000
   -4.5928    2.5553    0.0000 C   0  0  0  0  0  0  0  0  0  0  0  0
   -3.8788    2.9770    0.0000 N   0  0  0  0  0  0  0  0  0  0  0  0
   -4.6930    1.7369    0.0000 N   0  0  0  0  0  0  0  0  0  0  0  0
   -5.3318    2.9018    0.0000 S   0  0  0  0  0  0  0  0  0  0  0  0
   -5.4989    1.5783    0.0000 C   0  0  0  0  0  0  0  0  0  0  0  0
   -3.8788    3.8079    0.0000 C   0  0  0  0  0  0  0  0  0  0  0  0
   -5.9080    2.3006    0.0000 C   0  0  0  0  0  0  0  0  0  0  0  0
   -3.1648    4.2212    0.0000 C   0  0  3  0  0  0  0  0  0  0  0  0
   -2.4426    3.8037    0.0000 O   0  0  0  0  0  0  0  0  0  0  0  0
   -2.4383    5.4530    0.0000 O   0  0  0  0  0  0  0  0  0  0  0  0
   -1.7369    4.2129    0.0000 C   0  0  0  0  0  0  0  0  0  0  0  0
   -4.2588    0.3507    0.0000 C   0  0  0  0  0  0  0  0  0  0  0  0
   -4.4425   -0.4635    0.0000 C   0  0  0  0  0  0  0  0  0  0  0  0
   -3.1648    5.0396    0.0000 C   0  0  0  0  0  0  0  0  0  0  0  0
   -1.7244    5.0396    0.0000 C   0  0  0  0  0  0  0  0  0  0  0  0
   -5.9248    0.8726    0.0000 C   0  0  0  0  0  0  0  0  0  0  0  0
   -4.6053    4.2129    0.0000 O   0  0  0  0  0  0  0  0  0  0  0  0
   -4.0709    1.1607    0.0000 C   0  0  0  0  0  0  0  0  0  0  0  0
   -6.7181    2.3173    0.0000 C   0  0  0  0  0  0  0  0  0  0  0  0
   -5.5322    0.1378    0.0000 O   0  0  0  0  0  0  0  0  0  0  0  0
   -7.1565    1.6116    0.0000 C   0  0  0  0  0  0  0  0  0  0  0  0
   -1.0229    3.8037    0.0000 C   0  0  0  0  0  0  0  0  0  0  0  0
   -6.7431    0.8851    0.0000 C   0  0  0  0  0  0  0  0  0  0  0  0
   -1.0104    5.4488    0.0000 C   0  0  0  0  0  0  0  0  0  0  0  0
   -5.9581   -0.5679    0.0000 C   0  0  0  0  0  0  0  0  0  0  0  0
   -5.5740   -1.2819    0.0000 C   0  0  0  0  0  0  0  0  0  0  0  0
   -0.3006    4.2004    0.0000 C   0  0  0  0  0  0  0  0  0  0  0  0
   -0.2964    5.0354    0.0000 C   0  0  0  0  0  0  0  0  0  0  0  0
  2  1  2  0  0  0  0
  3  1  1  0  0  0  0
  4  1  1  0  0  0  0
  5  3  1  0  0  0  0
  6  2  1  0  0  0  0
  7  4  1  0  0  0  0
  7  5  2  0  0  0  0
  8  6  1  0  0  0  0
  9  8  1  0  0  0  0
 10 14  1  0  0  0  0
 11  9  1  0  0  0  0
 11 15  2  0  0  0  0
 12 18  1  0  0  0  0
 13 12  3  0  0  0  0
 14  8  1  0  0  0  0
 15 10  1  0  0  0  0
 16  5  1  0  0  0  0
 17  6  2  0  0  0  0
 18  3  1  0  0  0  0
 19  7  1  0  0  0  0
 20 16  1  0  0  0  0
 21 19  2  0  0  0  0
 22 11  1  0  0  0  0
 23 16  2  0  0  0  0
 23 21  1  0  0  0  0
 24 15  1  0  0  0  0
 25 20  1  0  0  0  0
 26 25  1  0  0  0  0
 27 22  2  0  0  0  0
 28 24  2  0  0  0  0
 28 27  1  0  0  0  0
M  END
> <CdId>
2700

> <Mol Weight>
394.444

> <Formula>
C21H18N2O4S

> <Click_ID>
CLK035_F06 __ __ 

$$$$
