CLK014_F11
 OpenBabel03181417022D

 28 30  0  0  0  0  0  0  0  0999 V2000
    5.3098   -0.7603    0.0000 N    0  0  0  0  0  0  0  0  0  0  0  0
    5.1769   -1.5747    0.0000 C    0  0  0  0  0  0  0  0  0  0  0  0
    4.5744   -0.3864    0.0000 C    0  0  0  0  0  0  0  0  0  0  0  0
    3.9886   -0.9639    0.0000 C    0  0  0  0  0  0  0  0  0  0  0  0
    4.3542   -1.6993    0.0000 S    0  0  0  0  0  0  0  0  0  0  0  0
    3.1701   -0.8351    0.0000 C    0  0  0  0  0  0  0  0  0  0  0  0
    1.5996   -2.7671    0.0000 C    0  0  0  0  0  0  0  0  0  0  0  0
    1.3005   -1.9818    0.0000 C    0  0  0  0  0  0  0  0  0  0  0  0
    2.4181   -2.8917    0.0000 C    0  0  0  0  0  0  0  0  0  0  0  0
    6.0369   -0.3906    0.0000 C    0  0  0  0  0  0  0  0  0  0  0  0
    2.6466   -1.4832    0.0000 C    0  0  0  0  0  0  0  0  0  0  0  0
    5.7585   -2.1605    0.0000 S    0  0  0  0  0  0  0  0  0  0  0  0
    0.8518   -4.8154    0.0000 C    0  0  0  0  0  0  0  0  0  0  0  0
    0.3283   -5.4594    0.0000 C    0  0  0  0  0  0  0  0  0  0  0  0
    4.4415    0.4321    0.0000 O    0  0  0  0  0  0  0  0  0  0  0  0
    1.8240   -1.3379    0.0000 C    0  0  0  0  0  0  0  0  0  0  0  0
    2.9333   -2.2478    0.0000 C    0  0  0  0  0  0  0  0  0  0  0  0
    8.1434   -0.9141    0.0000 N    0  0  0  0  0  0  0  0  0  0  0  0
    6.7307   -0.8393    0.0000 C    0  0  0  0  0  0  0  0  0  0  0  0
    0.4903   -1.8489    0.0000 Cl   0  0  0  0  0  0  0  0  0  0  0  0
    1.0761   -3.4069    0.0000 O    0  0  0  0  0  0  0  0  0  0  0  0
    2.7089   -3.6562    0.0000 O    0  0  0  0  0  0  0  0  0  0  0  0
    1.3628   -4.1755    0.0000 C    0  0  0  0  0  0  0  0  0  0  0  0
    7.4578   -0.4654    0.0000 C    0  0  0  0  0  0  0  0  0  0  0  0
    8.1018   -1.7367    0.0000 C    0  0  0  0  0  0  0  0  0  0  0  0
    6.6809   -1.6619    0.0000 C    0  0  0  0  0  0  0  0  0  0  0  0
    3.5274   -3.7933    0.0000 C    0  0  0  0  0  0  0  0  0  0  0  0
    7.3664   -2.1107    0.0000 C    0  0  0  0  0  0  0  0  0  0  0  0
  2  1  1  0  0  0  0
  3  1  1  0  0  0  0
  4  3  1  0  0  0  0
  5  2  1  0  0  0  0
  5  4  1  0  0  0  0
  6  4  2  0  0  0  0
  7  9  1  0  0  0  0
  7  8  2  0  0  0  0
  8 16  1  0  0  0  0
  9 17  2  0  0  0  0
 10  1  1  0  0  0  0
 11  6  1  0  0  0  0
 12  2  2  0  0  0  0
 13 23  1  0  0  0  0
 14 13  3  0  0  0  0
 15  3  2  0  0  0  0
 16 11  2  0  0  0  0
 17 11  1  0  0  0  0
 18 24  2  0  0  0  0
 19 10  1  0  0  0  0
 20  8  1  0  0  0  0
 21  7  1  0  0  0  0
 22  9  1  0  0  0  0
 23 21  1  0  0  0  0
 24 19  1  0  0  0  0
 25 28  2  0  0  0  0
 25 18  1  0  0  0  0
 26 19  2  0  0  0  0
 27 22  1  0  0  0  0
 28 26  1  0  0  0  0
M  END
> <CdId>
1056

> <Mol Weight>
430.928

> <Formula>
C20H15ClN2O3S2

> <Click_ID>
CLK014_F11 __ __ 

$$$$
