CLK029_G07
 OpenBabel03181417022D

 29 31  0  0  0  0  0  0  0  0999 V2000
   -1.1649    2.3882    0.0000 C   0  0  0  0  0  0  0  0  0  0  0  0
   -0.3382    2.3799    0.0000 N   0  0  0  0  0  0  0  0  0  0  0  0
   -1.6492    1.7244    0.0000 N   0  0  0  0  0  0  0  0  0  0  0  0
   -1.6492    3.0563    0.0000 S   0  0  0  0  0  0  0  0  0  0  0  0
    3.3862    3.0939    0.0000 N   0  3  0  0  0  0  0  0  0  0  0  0
   -2.4383    2.8016    0.0000 C   0  0  0  0  0  0  0  0  0  0  0  0
   -2.4383    1.9749    0.0000 C   0  0  0  0  0  0  0  0  0  0  0  0
    0.0752    3.0939    0.0000 C   0  0  0  0  0  0  0  0  0  0  0  0
   -4.5928    3.2192    0.0000 C   0  0  0  0  0  0  0  0  0  0  0  0
   -3.1523    3.2149    0.0000 C   0  0  0  0  0  0  0  0  0  0  0  0
   -3.8663    2.8016    0.0000 C   0  0  0  0  0  0  0  0  0  0  0  0
   -1.9498    0.3215    0.0000 C   0  0  0  0  0  0  0  0  0  0  0  0
    2.5595    3.0939    0.0000 C   0  0  0  0  0  0  0  0  0  0  0  0
   -3.1523    1.5615    0.0000 C   0  0  0  0  0  0  0  0  0  0  0  0
   -2.5010   -0.2923    0.0000 C   0  0  0  0  0  0  0  0  0  0  0  0
    3.7996    2.3799    0.0000 O   0  5  0  0  0  0  0  0  0  0  0  0
    0.9019    3.0939    0.0000 C   0  0  0  0  0  0  0  0  0  0  0  0
    3.7996    3.8162    0.0000 O   0  0  0  0  0  0  0  0  0  0  0  0
   -0.3382    3.8079    0.0000 O   0  0  0  0  0  0  0  0  0  0  0  0
   -3.8663    1.9749    0.0000 C   0  0  0  0  0  0  0  0  0  0  0  0
   -5.3068    2.8058    0.0000 O   0  0  0  0  0  0  0  0  0  0  0  0
   -1.3987    0.9352    0.0000 C   0  0  0  0  0  0  0  0  0  0  0  0
    2.1461    2.3757    0.0000 C   0  0  0  0  0  0  0  0  0  0  0  0
    2.1336    3.8037    0.0000 C   0  0  0  0  0  0  0  0  0  0  0  0
    1.3194    2.3757    0.0000 C   0  0  0  0  0  0  0  0  0  0  0  0
    1.3152    3.8037    0.0000 C   0  0  0  0  0  0  0  0  0  0  0  0
   -4.5803    4.0376    0.0000 O   0  0  0  0  0  0  0  0  0  0  0  0
   -5.3068    4.4634    0.0000 C   0  0  0  0  0  0  0  0  0  0  0  0
   -5.2985    5.2859    0.0000 C   0  0  0  0  0  0  0  0  0  0  0  0
  2  1  2  0  0  0  0
  3  1  1  0  0  0  0
  4  1  1  0  0  0  0
  5 13  1  0  0  0  0
  6  4  1  0  0  0  0
  6  7  2  0  0  0  0
  7  3  1  0  0  0  0
  8  2  1  0  0  0  0
  9 11  1  0  0  0  0
 10  6  1  0  0  0  0
 11 10  2  0  0  0  0
 11 20  1  0  0  0  0
 12 22  1  0  0  0  0
 13 24  1  0  0  0  0
 14  7  1  0  0  0  0
 15 12  3  0  0  0  0
 16  5  1  0  0  0  0
 17  8  1  0  0  0  0
 18  5  2  0  0  0  0
 19  8  2  0  0  0  0
 20 14  2  0  0  0  0
 21  9  2  0  0  0  0
 22  3  1  0  0  0  0
 23 25  1  0  0  0  0
 23 13  2  0  0  0  0
 24 26  2  0  0  0  0
 25 17  2  0  0  0  0
 26 17  1  0  0  0  0
 27  9  1  0  0  0  0
 28 27  1  0  0  0  0
 29 28  1  0  0  0  0
M  END
> <CdId>
2231

> <Mol Weight>
409.415

> <Formula>
C20H15N3O5S

> <Click_ID>
CLK029_G07 __ __ 

$$$$
