CLK003_F11
 OpenBabel03181417022D

 26 29  0  0  0  0  0  0  0  0999 V2000
    0.7779    0.4574    0.0000 C   0  0  3  0  0  0  0  0  0  0  0  0
    1.5475    0.7176    0.0000 C   0  0  3  0  0  0  0  0  0  0  0  0
    0.7779   -0.3780    0.0000 C   0  0  3  0  0  0  0  0  0  0  0  0
    0.0630    0.8682    0.0000 C   0  0  0  0  0  0  0  0  0  0  0  0
    0.7779    1.2818    0.0000 C   0  0  0  0  0  0  0  0  0  0  0  0
    2.0323    0.0520    0.0000 C   0  0  0  0  0  0  0  0  0  0  0  0
    1.0874    1.4023    0.0000 O   0  0  0  0  0  0  0  0  0  0  0  0
    2.3199    0.9806    0.0000 C   0  0  0  0  0  0  0  0  0  0  0  0
    0.0630   -0.7916    0.0000 C   0  0  3  0  0  0  0  0  0  0  0  0
    1.5557   -0.6327    0.0000 C   0  0  0  0  0  0  0  0  0  0  0  0
   -0.6519    0.4574    0.0000 C   0  0  3  0  0  0  0  0  0  0  0  0
    1.5722    2.0378    0.0000 C   0  0  0  0  0  0  0  0  0  0  0  0
    3.0978    1.2435    0.0000 C   0  0  0  0  0  0  0  0  0  0  0  0
   -0.6519   -0.3780    0.0000 C   0  0  3  0  0  0  0  0  0  0  0  0
    0.0630   -1.6160    0.0000 C   0  0  0  0  0  0  0  0  0  0  0  0
   -1.3749    0.8682    0.0000 O   0  0  0  0  0  0  0  0  0  0  0  0
    1.2709    2.7910    0.0000 C   0  0  0  0  0  0  0  0  0  0  0  0
    2.3829    1.9173    0.0000 O   0  0  0  0  0  0  0  0  0  0  0  0
   -1.3749   -0.7916    0.0000 C   0  0  0  0  0  0  0  0  0  0  0  0
   -0.6519   -2.0296    0.0000 C   0  0  0  0  0  0  0  0  0  0  0  0
   -1.3749   -1.6160    0.0000 C   0  0  0  0  0  0  0  0  0  0  0  0
   -2.0898   -0.3780    0.0000 C   0  0  0  0  0  0  0  0  0  0  0  0
   -2.0898   -2.0296    0.0000 C   0  0  0  0  0  0  0  0  0  0  0  0
   -2.8047   -0.7916    0.0000 C   0  0  0  0  0  0  0  0  0  0  0  0
   -2.8047   -1.6160    0.0000 C   0  0  0  0  0  0  0  0  0  0  0  0
   -3.5195   -2.0296    0.0000 O   0  0  0  0  0  0  0  0  0  0  0  0
  1  2  1  0  0  0  0
  1  3  1  0  0  0  0
  1  4  1  0  0  0  0
  1  5  1  0  0  0  0
  2  6  1  0  0  0  0
  2  7  1  0  0  0  0
  2  8  1  0  0  0  0
  3  9  1  0  0  0  0
  3 10  1  0  0  0  0
  4 11  1  0  0  0  0
  6 10  1  0  0  0  0
  7 12  1  0  0  0  0
  8 13  3  0  0  0  0
  9 14  1  0  0  0  0
  9 15  1  0  0  0  0
 11 16  1  0  0  0  0
 11 14  1  0  0  0  0
 12 17  1  0  0  0  0
 12 18  2  0  0  0  0
 14 19  1  0  0  0  0
 15 20  1  0  0  0  0
 19 21  2  0  0  0  0
 19 22  1  0  0  0  0
 20 21  1  0  0  0  0
 21 23  1  0  0  0  0
 22 24  2  0  0  0  0
 23 25  2  0  0  0  0
 24 25  1  0  0  0  0
 25 26  1  0  0  0  0
M  END
> <CdId>
220

> <Mol Weight>
354.4394

> <Formula>
C22H26O4

> <Click_ID>
CLK003_F11 __ __ 

$$$$
