CLK033_G11
 OpenBabel03181417022D

 28 31  0  0  0  0  0  0  0  0999 V2000
   -4.5815    2.5490    0.0000 C   0  0  0  0  0  0  0  0  0  0  0  0
   -3.8693    2.9822    0.0000 N   0  0  0  0  0  0  0  0  0  0  0  0
   -5.3479    2.8697    0.0000 S   0  0  0  0  0  0  0  0  0  0  0  0
   -4.6564    1.7368    0.0000 N   0  0  0  0  0  0  0  0  0  0  0  0
   -5.8810    2.2449    0.0000 C   0  0  0  0  0  0  0  0  0  0  0  0
   -5.4562    1.5452    0.0000 C   0  0  0  0  0  0  0  0  0  0  0  0
   -3.8693    3.7985    0.0000 C   0  0  0  0  0  0  0  0  0  0  0  0
   -6.7016    2.2324    0.0000 C   0  0  0  0  0  0  0  0  0  0  0  0
   -5.8435    0.8204    0.0000 C   0  0  0  0  0  0  0  0  0  0  0  0
   -3.2363    1.4619    0.0000 C   0  0  0  0  0  0  0  0  0  0  0  0
   -2.4615    1.7451    0.0000 C   0  0  0  0  0  0  0  0  0  0  0  0
   -3.1571    4.2109    0.0000 C   0  0  0  0  0  0  0  0  0  0  0  0
   -1.7119    5.0272    0.0000 C   0  0  0  0  0  0  0  0  0  0  0  0
   -0.9954    5.4479    0.0000 C   0  0  0  0  0  0  0  0  0  0  0  0
   -4.5815    4.2026    0.0000 O   0  0  0  0  0  0  0  0  0  0  0  0
   -4.0192    1.1953    0.0000 C   0  0  0  0  0  0  0  0  0  0  0  0
   -7.1014    1.5077    0.0000 C   0  0  0  0  0  0  0  0  0  0  0  0
   -6.6641    0.7954    0.0000 C   0  0  0  0  0  0  0  0  0  0  0  0
   -0.2832    5.0397    0.0000 O   0  0  0  0  0  0  0  0  0  0  0  0
   -3.1488    5.0397    0.0000 C   0  0  0  0  0  0  0  0  0  0  0  0
   -2.4365    3.8068    0.0000 C   0  0  0  0  0  0  0  0  0  0  0  0
   -2.4323    5.4521    0.0000 C   0  0  0  0  0  0  0  0  0  0  0  0
   -1.7202    4.2109    0.0000 C   0  0  0  0  0  0  0  0  0  0  0  0
   -7.1389    2.9322    0.0000 C   0  0  0  0  0  0  0  0  0  0  0  0
   -0.9954    6.2767    0.0000 C   0  0  0  0  0  0  0  0  0  0  0  0
   -7.9136    1.4827    0.0000 C   0  0  0  0  0  0  0  0  0  0  0  0
   -7.9636    2.9114    0.0000 C   0  0  0  0  0  0  0  0  0  0  0  0
   -8.3509    2.1866    0.0000 C   0  0  0  0  0  0  0  0  0  0  0  0
  2  1  2  0  0  0  0
  3  1  1  0  0  0  0
  4  1  1  0  0  0  0
  5  3  1  0  0  0  0
  5  6  2  0  0  0  0
  6  4  1  0  0  0  0
  7  2  1  0  0  0  0
  8  5  1  0  0  0  0
  9  6  1  0  0  0  0
 10 16  1  0  0  0  0
 11 10  3  0  0  0  0
 12  7  1  0  0  0  0
 13 23  2  0  0  0  0
 13 22  1  0  0  0  0
 14 13  1  0  0  0  0
 15  7  2  0  0  0  0
 16  4  1  0  0  0  0
 17  8  1  0  0  0  0
 18  9  2  0  0  0  0
 18 17  1  0  0  0  0
 19 14  2  0  0  0  0
 20 12  1  0  0  0  0
 21 12  2  0  0  0  0
 22 20  2  0  0  0  0
 23 21  1  0  0  0  0
 24  8  2  0  0  0  0
 25 14  1  0  0  0  0
 26 17  2  0  0  0  0
 26 28  1  0  0  0  0
 27 24  1  0  0  0  0
 28 27  2  0  0  0  0
M  END
> <CdId>
2555

> <Mol Weight>
384.45

> <Formula>
C23H16N2O2S

> <Click_ID>
CLK033_G11 __ __ 

$$$$
