CLK034_D10
 OpenBabel03181417022D

 22 25  0  0  0  0  0  0  0  0999 V2000
   -4.5815    2.5490    0.0000 C   0  0  0  0  0  0  0  0  0  0  0  0
   -3.8693    2.9822    0.0000 N   0  0  0  0  0  0  0  0  0  0  0  0
   -5.3479    2.8697    0.0000 S   0  0  0  0  0  0  0  0  0  0  0  0
   -4.6564    1.7368    0.0000 N   0  0  0  0  0  0  0  0  0  0  0  0
   -5.8810    2.2449    0.0000 C   0  0  0  0  0  0  0  0  0  0  0  0
   -5.4562    1.5452    0.0000 C   0  0  0  0  0  0  0  0  0  0  0  0
   -3.8693    3.7985    0.0000 C   0  0  0  0  0  0  0  0  0  0  0  0
   -3.1571    4.2109    0.0000 C   0  0  0  0  0  0  0  0  0  0  0  0
   -6.7016    2.2324    0.0000 C   0  0  0  0  0  0  0  0  0  0  0  0
   -2.3241    4.2109    0.0000 C   0  0  0  0  0  0  0  0  0  0  0  0
   -2.7364    4.9272    0.0000 C   0  0  0  0  0  0  0  0  0  0  0  0
   -5.8435    0.8204    0.0000 C   0  0  0  0  0  0  0  0  0  0  0  0
   -3.2363    1.4619    0.0000 C   0  0  0  0  0  0  0  0  0  0  0  0
   -2.4615    1.7451    0.0000 C   0  0  0  0  0  0  0  0  0  0  0  0
   -4.5815    4.2026    0.0000 O   0  0  0  0  0  0  0  0  0  0  0  0
   -4.0192    1.1953    0.0000 C   0  0  0  0  0  0  0  0  0  0  0  0
   -7.1014    1.5077    0.0000 C   0  0  0  0  0  0  0  0  0  0  0  0
   -6.6641    0.7954    0.0000 C   0  0  0  0  0  0  0  0  0  0  0  0
   -7.1389    2.9322    0.0000 C   0  0  0  0  0  0  0  0  0  0  0  0
   -7.9136    1.4827    0.0000 C   0  0  0  0  0  0  0  0  0  0  0  0
   -7.9636    2.9114    0.0000 C   0  0  0  0  0  0  0  0  0  0  0  0
   -8.3509    2.1866    0.0000 C   0  0  0  0  0  0  0  0  0  0  0  0
  2  1  2  0  0  0  0
  3  1  1  0  0  0  0
  4  1  1  0  0  0  0
  5  3  1  0  0  0  0
  5  6  2  0  0  0  0
  6  4  1  0  0  0  0
  7  2  1  0  0  0  0
  8  7  1  0  0  0  0
  9  5  1  0  0  0  0
 10  8  1  0  0  0  0
 10 11  1  0  0  0  0
 11  8  1  0  0  0  0
 12  6  1  0  0  0  0
 13 16  1  0  0  0  0
 14 13  3  0  0  0  0
 15  7  2  0  0  0  0
 16  4  1  0  0  0  0
 17  9  1  0  0  0  0
 18 12  2  0  0  0  0
 18 17  1  0  0  0  0
 19  9  2  0  0  0  0
 20 17  2  0  0  0  0
 20 22  1  0  0  0  0
 21 19  1  0  0  0  0
 22 21  2  0  0  0  0
M  END
> <CdId>
2604

> <Mol Weight>
306.382

> <Formula>
C18H14N2OS

> <Click_ID>
CLK034_D10 __ __ 

$$$$
