CLK015_B09
 OpenBabel03181417022D

 32 34  0  0  0  0  0  0  0  0999 V2000
    5.8476   -2.5068    0.0000 N    0  0  0  0  0  0  0  0  0  0  0  0
    4.6194   -1.7781    0.0000 C    0  0  0  0  0  0  0  0  0  0  0  0
    5.4351   -1.7919    0.0000 C    0  0  0  0  0  0  0  0  0  0  0  0
    5.4214   -3.2171    0.0000 C    0  0  0  0  0  0  0  0  0  0  0  0
    4.5965   -3.2079    0.0000 N    0  0  0  0  0  0  0  0  0  0  0  0
    4.1978   -2.4884    0.0000 C    0  0  0  0  0  0  0  0  0  0  0  0
    9.1471   -2.5480    0.0000 N    0  0  0  0  0  0  0  0  0  0  0  0
    4.2115   -1.0632    0.0000 C    0  0  0  0  0  0  0  0  0  0  0  0
    1.7460   -1.0220    0.0000 C    0  0  0  0  0  0  0  0  0  0  0  0
    2.1447   -1.7460    0.0000 C    0  0  0  0  0  0  0  0  0  0  0  0
    2.1631   -0.3162    0.0000 C    0  0  0  0  0  0  0  0  0  0  0  0
    6.6724   -2.5159    0.0000 C    0  0  0  0  0  0  0  0  0  0  0  0
    3.3866   -1.0495    0.0000 C    0  0  0  0  0  0  0  0  0  0  0  0
    8.3222   -2.5343    0.0000 C    0  0  0  0  0  0  0  0  0  0  0  0
   -0.3300   -1.7094    0.0000 C    0  0  0  0  0  0  0  0  0  0  0  0
    5.8292   -3.9366    0.0000 O    0  0  0  0  0  0  0  0  0  0  0  0
   -0.7515   -2.4105    0.0000 C    0  0  0  0  0  0  0  0  0  0  0  0
    5.8613   -1.0770    0.0000 O    0  0  0  0  0  0  0  0  0  0  0  0
    9.5458   -3.2629    0.0000 O    0  0  0  0  0  0  0  0  0  0  0  0
    2.9696   -1.7598    0.0000 C    0  0  0  0  0  0  0  0  0  0  0  0
    9.5687   -1.8331    0.0000 O    0  0  0  0  0  0  0  0  0  0  0  0
    2.9880   -0.3300    0.0000 C    0  0  0  0  0  0  0  0  0  0  0  0
    3.3729   -2.4793    0.0000 O    0  0  0  0  0  0  0  0  0  0  0  0
    7.0711   -3.2354    0.0000 C    0  0  0  0  0  0  0  0  0  0  0  0
    7.0940   -1.8056    0.0000 C    0  0  0  0  0  0  0  0  0  0  0  0
    7.8960   -3.2445    0.0000 C    0  0  0  0  0  0  0  0  0  0  0  0
    7.9189   -1.8194    0.0000 C    0  0  0  0  0  0  0  0  0  0  0  0
    1.7231   -2.4518    0.0000 Br   0  0  0  0  0  0  0  0  0  0  0  0
    0.9211   -1.0082    0.0000 O    0  0  0  0  0  0  0  0  0  0  0  0
    1.7644    0.4078    0.0000 O    0  0  0  0  0  0  0  0  0  0  0  0
    0.4949   -1.7231    0.0000 C    0  0  0  0  0  0  0  0  0  0  0  0
    2.1859    1.1090    0.0000 C    0  0  0  0  0  0  0  0  0  0  0  0
  2  3  1  0  0  0  0
  3  1  1  0  0  0  0
  4  1  1  0  0  0  0
  5  4  1  0  0  0  0
  6  5  1  0  0  0  0
  6  2  1  0  0  0  0
  7 14  1  0  0  0  0
  8  2  2  0  0  0  0
  9 11  1  0  0  0  0
  9 10  2  0  0  0  0
 10 20  1  0  0  0  0
 11 22  2  0  0  0  0
 12  1  1  0  0  0  0
 13  8  1  0  0  0  0
 14 27  2  0  0  0  0
 14 26  1  0  0  0  0
 15 31  1  0  0  0  0
 16  4  2  0  0  0  0
 17 15  3  0  0  0  0
 18  3  2  0  0  0  0
 19  7  1  0  0  0  0
 20 13  2  0  0  0  0
 21  7  2  0  0  0  0
 22 13  1  0  0  0  0
 23  6  2  0  0  0  0
 24 12  1  0  0  0  0
 25 12  2  0  0  0  0
 26 24  2  0  0  0  0
 27 25  1  0  0  0  0
 28 10  1  0  0  0  0
 29  9  1  0  0  0  0
 30 11  1  0  0  0  0
 31 29  1  0  0  0  0
 32 30  1  0  0  0  0
M  END
> <CdId>
1094

> <Mol Weight>
500.256

> <Formula>
C21H14BrN3O7

> <Click_ID>
CLK015_B09 __ __ 

$$$$
