CLK007_H08
 OpenBabel03181417022D

 25 27  0  0  0  0  0  0  0  0999 V2000
   -0.0825   -2.2668    0.0000 C    0  0  0  0  0  0  0  0  0  0  0  0
   -0.0721   -3.0978    0.0000 C    0  0  0  0  0  0  0  0  0  0  0  0
   -0.7178   -1.7653    0.0000 N    0  0  0  0  0  0  0  0  0  0  0  0
    0.6045   -1.8168    0.0000 O    0  0  0  0  0  0  0  0  0  0  0  0
   -0.7418   -3.5855    0.0000 C    0  0  0  0  0  0  0  0  0  0  0  0
    0.5976   -3.5822    0.0000 O    0  0  0  0  0  0  0  0  0  0  0  0
   -0.4224   -0.9926    0.0000 C    0  0  0  0  0  0  0  0  0  0  0  0
    0.3881   -1.0303    0.0000 C    0  0  0  0  0  0  0  0  0  0  0  0
   -0.4809   -4.3721    0.0000 C    0  0  0  0  0  0  0  0  0  0  0  0
    0.3434   -4.3617    0.0000 C    0  0  0  0  0  0  0  0  0  0  0  0
   -0.8793   -0.2954    0.0000 C    0  0  0  0  0  0  0  0  0  0  0  0
    0.8964   -0.3744    0.0000 O    0  0  0  0  0  0  0  0  0  0  0  0
   -0.4980    0.4396    0.0000 C    0  0  0  0  0  0  0  0  0  0  0  0
   -0.9514    1.1368    0.0000 C    0  0  0  0  0  0  0  0  0  0  0  0
    0.3159    0.4877    0.0000 C    0  0  0  0  0  0  0  0  0  0  0  0
   -0.5805    1.8718    0.0000 C    0  0  0  0  0  0  0  0  0  0  0  0
    0.6972    1.2192    0.0000 C    0  0  0  0  0  0  0  0  0  0  0  0
    0.2438    1.9164    0.0000 C    0  0  0  0  0  0  0  0  0  0  0  0
   -1.0269    2.5518    0.0000 O    0  0  0  0  0  0  0  0  0  0  0  0
    1.5215    1.2570    0.0000 Cl   0  0  0  0  0  0  0  0  0  0  0  0
    0.6147    2.6514    0.0000 O    0  0  0  0  0  0  0  0  0  0  0  0
   -1.8478    2.5106    0.0000 C    0  0  0  0  0  0  0  0  0  0  0  0
    0.1683    3.3349    0.0000 C    0  0  0  0  0  0  0  0  0  0  0  0
    0.5426    4.0629    0.0000 C    0  0  0  0  0  0  0  0  0  0  0  0
    1.3635    4.1042    0.0000 C    0  0  0  0  0  0  0  0  0  0  0  0
  1  2  1  0  0  0  0
  1  3  2  0  0  0  0
  1  4  1  0  0  0  0
  2  5  2  0  0  0  0
  2  6  1  0  0  0  0
  3  7  1  0  0  0  0
  4  8  1  0  0  0  0
  5  9  1  0  0  0  0
  6 10  1  0  0  0  0
  7 11  2  0  0  0  0
  7  8  1  0  0  0  0
  8 12  2  0  0  0  0
  9 10  2  0  0  0  0
 11 13  1  0  0  0  0
 13 14  1  0  0  0  0
 13 15  2  0  0  0  0
 14 16  2  0  0  0  0
 15 17  1  0  0  0  0
 16 18  1  0  0  0  0
 16 19  1  0  0  0  0
 17 20  1  0  0  0  0
 17 18  2  0  0  0  0
 18 21  1  0  0  0  0
 19 22  1  0  0  0  0
 21 23  1  0  0  0  0
 23 24  1  0  0  0  0
 24 25  3  0  0  0  0
M  END
> <CdId>
557

> <Mol Weight>
357.745

> <Formula>
C18H12ClNO5

> <Click_ID>
CLK007_H08 __ __ 

$$$$
