CLK035_A06
 OpenBabel03181417022D

 27 29  0  0  0  0  0  0  0  0999 V2000
   -4.5946    2.5576    0.0000 C   0  0  0  0  0  0  0  0  0  0  0  0
   -3.8615    2.9825    0.0000 N   0  0  0  0  0  0  0  0  0  0  0  0
   -4.6820    1.7328    0.0000 N   0  0  0  0  0  0  0  0  0  0  0  0
   -5.3194    2.8950    0.0000 S   0  0  0  0  0  0  0  0  0  0  0  0
   -5.4860    1.5829    0.0000 C   0  0  0  0  0  0  0  0  0  0  0  0
   -5.8942    2.2994    0.0000 C   0  0  0  0  0  0  0  0  0  0  0  0
   -3.8697    3.7990    0.0000 C   0  0  0  0  0  0  0  0  0  0  0  0
   -4.2571    0.3582    0.0000 C   0  0  0  0  0  0  0  0  0  0  0  0
   -4.4446   -0.4541    0.0000 C   0  0  0  0  0  0  0  0  0  0  0  0
   -3.1574    4.2114    0.0000 C   0  0  0  0  0  0  0  0  0  0  0  0
   -5.9192    0.8831    0.0000 C   0  0  0  0  0  0  0  0  0  0  0  0
   -4.5821    4.2156    0.0000 O   0  0  0  0  0  0  0  0  0  0  0  0
   -4.0697    1.1622    0.0000 C   0  0  0  0  0  0  0  0  0  0  0  0
   -3.1491    5.0278    0.0000 C   0  0  0  0  0  0  0  0  0  0  0  0
   -2.4451    3.8073    0.0000 C   0  0  0  0  0  0  0  0  0  0  0  0
   -1.0080    5.4402    0.0000 O   0  0  0  0  0  0  0  0  0  0  0  0
   -1.7245    5.0278    0.0000 C   0  0  0  0  0  0  0  0  0  0  0  0
   -1.7203    4.2031    0.0000 C   0  0  0  0  0  0  0  0  0  0  0  0
   -2.4326    5.4485    0.0000 C   0  0  0  0  0  0  0  0  0  0  0  0
   -6.7024    2.3202    0.0000 C   0  0  0  0  0  0  0  0  0  0  0  0
   -5.5193    0.1458    0.0000 O   0  0  0  0  0  0  0  0  0  0  0  0
   -7.1398    1.6204    0.0000 C   0  0  0  0  0  0  0  0  0  0  0  0
   -0.9997    6.2650    0.0000 C   0  0  0  0  0  0  0  0  0  0  0  0
   -6.7274    0.8873    0.0000 C   0  0  0  0  0  0  0  0  0  0  0  0
   -5.9567   -0.5540    0.0000 C   0  0  0  0  0  0  0  0  0  0  0  0
   -1.7120    6.6857    0.0000 C   0  0  0  0  0  0  0  0  0  0  0  0
   -0.2832    6.6857    0.0000 C   0  0  0  0  0  0  0  0  0  0  0  0
  2  1  2  0  0  0  0
  3  1  1  0  0  0  0
  4  1  1  0  0  0  0
  5  3  1  0  0  0  0
  6  4  1  0  0  0  0
  6  5  2  0  0  0  0
  7  2  1  0  0  0  0
  8 13  1  0  0  0  0
  9  8  3  0  0  0  0
 10  7  1  0  0  0  0
 11  5  1  0  0  0  0
 12  7  2  0  0  0  0
 13  3  1  0  0  0  0
 14 10  2  0  0  0  0
 15 10  1  0  0  0  0
 16 17  1  0  0  0  0
 17 18  1  0  0  0  0
 18 15  2  0  0  0  0
 19 14  1  0  0  0  0
 19 17  2  0  0  0  0
 20  6  1  0  0  0  0
 21 11  1  0  0  0  0
 22 20  2  0  0  0  0
 23 16  1  0  0  0  0
 24 11  2  0  0  0  0
 24 22  1  0  0  0  0
 25 21  1  0  0  0  0
 26 23  1  0  0  0  0
 27 23  1  0  0  0  0
M  END
> <CdId>
2650

> <Mol Weight>
380.46

> <Formula>
C21H20N2O3S

> <Click_ID>
CLK035_A06 __ __ 

$$$$
