CLK026_H10
 OpenBabel03181417022D

 24 25  0  0  0  0  0  0  0  0999 V2000
   -2.3511   -0.0893    0.0000 N    0  0  0  0  0  0  0  0  0  0  0  0
   -2.7498   -0.8146    0.0000 C    0  0  0  0  0  0  0  0  0  0  0  0
   -1.4368   -1.0656    0.0000 C    0  0  0  0  0  0  0  0  0  0  0  0
   -1.5364   -0.2440    0.0000 C    0  0  0  0  0  0  0  0  0  0  0  0
   -2.1861   -1.4195    0.0000 S    0  0  0  0  0  0  0  0  0  0  0  0
   -0.7150   -1.4643    0.0000 C    0  0  0  0  0  0  0  0  0  0  0  0
   -0.0068   -1.0312    0.0000 C    0  0  0  0  0  0  0  0  0  0  0  0
    1.4299   -1.0071    0.0000 C    0  0  0  0  0  0  0  0  0  0  0  0
    0.7184   -1.4299    0.0000 C    0  0  0  0  0  0  0  0  0  0  0  0
    1.4195   -0.1821    0.0000 C    0  0  0  0  0  0  0  0  0  0  0  0
   -2.2308    1.3337    0.0000 C    0  0  0  0  0  0  0  0  0  0  0  0
   -0.0138   -0.2062    0.0000 C    0  0  0  0  0  0  0  0  0  0  0  0
    0.6840    0.2165    0.0000 C    0  0  0  0  0  0  0  0  0  0  0  0
   -1.8011    2.0417    0.0000 C    0  0  0  0  0  0  0  0  0  0  0  0
   -3.5610   -0.9143    0.0000 O    0  0  0  0  0  0  0  0  0  0  0  0
   -0.9384    0.3300    0.0000 O    0  0  0  0  0  0  0  0  0  0  0  0
   -2.6982    0.6565    0.0000 C    0  0  0  0  0  0  0  0  0  0  0  0
    0.7218   -2.2548    0.0000 Br   0  0  0  0  0  0  0  0  0  0  0  0
    2.1311    0.2303    0.0000 O    0  0  0  0  0  0  0  0  0  0  0  0
    0.6840    1.0346    0.0000 O    0  0  0  0  0  0  0  0  0  0  0  0
   -0.0309    1.4436    0.0000 C    0  0  0  0  0  0  0  0  0  0  0  0
    2.8460   -0.1788    0.0000 C    0  0  0  0  0  0  0  0  0  0  0  0
   -0.0516    2.2583    0.0000 C    0  0  0  0  0  0  0  0  0  0  0  0
    3.5575    0.2337    0.0000 C    0  0  0  0  0  0  0  0  0  0  0  0
  2  1  1  0  0  0  0
  3  4  1  0  0  0  0
  4  1  1  0  0  0  0
  5  2  1  0  0  0  0
  5  3  1  0  0  0  0
  6  3  2  0  0  0  0
  7  6  1  0  0  0  0
  8  9  2  0  0  0  0
  9  7  1  0  0  0  0
 10 13  2  0  0  0  0
 10  8  1  0  0  0  0
 11 17  1  0  0  0  0
 12  7  2  0  0  0  0
 13 12  1  0  0  0  0
 14 11  3  0  0  0  0
 15  2  2  0  0  0  0
 16  4  2  0  0  0  0
 17  1  1  0  0  0  0
 18  9  1  0  0  0  0
 19 10  1  0  0  0  0
 20 13  1  0  0  0  0
 21 20  1  0  0  0  0
 22 19  1  0  0  0  0
 23 21  1  0  0  0  0
 24 22  1  0  0  0  0
M  END
> <CdId>
2015

> <Mol Weight>
410.282

> <Formula>
C17H16BrNO4S

> <Click_ID>
CLK026_H10 __ __ 

$$$$
