CLK011_H11
 OpenBabel03181417022D

 23 24  0  0  0  0  0  0  0  0999 V2000
   -1.1875   -1.2792    0.0000 C   0  0  0  0  0  0  0  0  0  0  0  0
   -1.1875   -0.4542    0.0000 C   0  0  0  0  0  0  0  0  0  0  0  0
    1.6625   -0.4417    0.0000 C   0  0  0  0  0  0  0  0  0  0  0  0
    1.6667   -1.2667    0.0000 N   0  0  0  0  0  0  0  0  0  0  0  0
    5.2292    0.8000    0.0000 C   0  0  0  0  0  0  0  0  0  0  0  0
    0.9542   -1.6917    0.0000 C   0  0  0  0  0  0  0  0  0  0  0  0
    0.9417   -0.0292    0.0000 O   0  0  0  0  0  0  0  0  0  0  0  0
    4.5042    1.2125    0.0000 C   0  0  0  0  0  0  0  0  0  0  0  0
    5.2292   -0.0250    0.0000 C   0  0  0  0  0  0  0  0  0  0  0  0
   -0.4750   -1.6917    0.0000 C   0  0  0  0  0  0  0  0  0  0  0  0
    3.0917   -0.4417    0.0000 O   0  0  0  0  0  0  0  0  0  0  0  0
    2.3750   -0.0292    0.0000 C   0  0  0  0  0  0  0  0  0  0  0  0
    0.2375   -1.2792    0.0000 C   0  0  0  0  0  0  0  0  0  0  0  0
    3.8042   -0.0292    0.0000 C   0  0  0  0  0  0  0  0  0  0  0  0
    5.9417    1.2208    0.0000 C   0  0  3  0  0  0  0  0  0  0  0  0
    4.5167   -0.4375    0.0000 C   0  0  0  0  0  0  0  0  0  0  0  0
    3.8000    0.7958    0.0000 C   0  0  0  0  0  0  0  0  0  0  0  0
    0.2375   -2.9292    0.0000 C   0  0  0  0  0  0  0  0  0  0  0  0
    0.9542   -2.5167    0.0000 C   0  0  0  0  0  0  0  0  0  0  0  0
   -0.4750   -2.5167    0.0000 C   0  0  0  0  0  0  0  0  0  0  0  0
    6.6542    0.8083    0.0000 C   0  0  0  0  0  0  0  0  0  0  0  0
    5.9375    2.0458    0.0000 C   0  0  0  0  0  0  0  0  0  0  0  0
    6.6542   -0.0167    0.0000 C   0  0  0  0  0  0  0  0  0  0  0  0
  2  1  3  0  0  0  0
  3  4  1  0  0  0  0
  4  6  1  0  0  0  0
  5  8  1  0  0  0  0
  6 13  2  0  0  0  0
  7  3  2  0  0  0  0
  8 17  2  0  0  0  0
  9 16  1  0  0  0  0
  9  5  2  0  0  0  0
 10  1  1  0  0  0  0
 11 12  1  0  0  0  0
 12  3  1  0  0  0  0
 13 10  1  0  0  0  0
 14 11  1  0  0  0  0
 15  5  1  0  0  0  0
 16 14  2  0  0  0  0
 17 14  1  0  0  0  0
 18 20  1  0  0  0  0
 19 18  2  0  0  0  0
 19  6  1  0  0  0  0
 20 10  2  0  0  0  0
 21 15  1  0  0  0  0
 22 15  1  0  0  0  0
 23 21  1  0  0  0  0
M  END
> <CdId>
836

> <Mol Weight>
307.3862

> <Formula>
C20H21NO2

> <Click_ID>
CLK011_H11 __ __ 

$$$$
