CLK040B07
 OpenBabel03181417022D

 21 21  0  0  0  0  0  0  0  0999 V2000
    2.0267   -0.2794    0.0000 C   0  0  0  0  0  0  0  0  0  0  0  0
    0.7506    0.1251    0.0000 N   0  0  0  0  0  0  0  0  0  0  0  0
    0.7589   -0.7006    0.0000 N   0  0  0  0  0  0  0  0  0  0  0  0
    1.5346    0.3878    0.0000 C   0  0  0  0  0  0  0  0  0  0  0  0
    1.5430   -0.9508    0.0000 C   0  0  0  0  0  0  0  0  0  0  0  0
    2.8481   -0.2710    0.0000 N   0  3  0  0  0  0  0  0  0  0  0  0
    0.0793    0.6047    0.0000 C   0  0  0  0  0  0  0  0  0  0  0  0
   -0.6714    0.2627    0.0000 C   0  0  0  0  0  0  0  0  0  0  0  0
   -2.8481    0.0583    0.0000 C   0  0  0  0  0  0  0  0  0  0  0  0
   -3.5988   -0.2835    0.0000 C   0  0  0  0  0  0  0  0  0  0  0  0
    3.2694   -0.9841    0.0000 O   0  5  0  0  0  0  0  0  0  0  0  0
   -1.3428    0.7423    0.0000 N   0  0  0  0  0  0  0  0  0  0  0  0
    3.2569    0.4462    0.0000 O   0  0  0  0  0  0  0  0  0  0  0  0
   -2.0975    0.4003    0.0000 C   0  0  0  0  0  0  0  0  0  0  0  0
   -0.7506   -0.5588    0.0000 O   0  0  0  0  0  0  0  0  0  0  0  0
    1.7807    1.1718    0.0000 C   0  0  0  0  0  0  0  0  0  0  0  0
    1.8057   -1.7347    0.0000 C   0  0  0  0  0  0  0  0  0  0  0  0
   -1.7556   -0.3503    0.0000 C   0  0  0  0  0  0  0  0  0  0  0  0
   -2.4395    1.1509    0.0000 C   0  0  0  0  0  0  0  0  0  0  0  0
   -2.2351   -1.0216    0.0000 C   0  0  0  0  0  0  0  0  0  0  0  0
   -1.9599    1.8223    0.0000 C   0  0  0  0  0  0  0  0  0  0  0  0
  2  4  1  0  0  0  0
  3  5  2  0  0  0  0
  3  2  1  0  0  0  0
  4  1  2  0  0  0  0
  5  1  1  0  0  0  0
  6  1  1  0  0  0  0
  7  2  1  0  0  0  0
  8  7  1  0  0  0  0
  9 14  1  0  0  0  0
 10  9  3  0  0  0  0
 11  6  1  0  0  0  0
 12  8  1  0  0  0  0
 13  6  2  0  0  0  0
 14 12  1  0  0  0  0
 15  8  2  0  0  0  0
 16  4  1  0  0  0  0
 17  5  1  0  0  0  0
 18 14  1  0  0  0  0
 19 14  1  0  0  0  0
 20 18  1  0  0  0  0
 21 19  1  0  0  0  0
M  END
> <CdId>
3050

> <Mol Weight>
292.3336

> <Formula>
C14H20N4O3

> <Click_ID>
CLK040B07 __ __ 

$$$$
