CLK005_H11
 OpenBabel03181417022D

 20 21  0  0  0  0  0  0  0  0999 V2000
    1.1028    0.0669    0.0000 C   0  0  0  0  0  0  0  0  0  0  0  0
   -0.3230    0.0669    0.0000 C   0  0  0  0  0  0  0  0  0  0  0  0
    0.3870    0.4772    0.0000 C   0  0  0  0  0  0  0  0  0  0  0  0
   -1.7516    0.0669    0.0000 C   0  0  0  0  0  0  0  0  0  0  0  0
   -1.0358    0.4772    0.0000 N   0  0  0  0  0  0  0  0  0  0  0  0
    0.3870   -1.1726    0.0000 N   0  0  0  0  0  0  0  0  0  0  0  0
   -3.8988    0.4772    0.0000 C   0  0  0  0  0  0  0  0  0  0  0  0
    1.1028   -0.7623    0.0000 C   0  0  0  0  0  0  0  0  0  0  0  0
   -4.6030    0.8874    0.0000 C   0  0  0  0  0  0  0  0  0  0  0  0
   -0.3230   -0.7623    0.0000 C   0  0  0  0  0  0  0  0  0  0  0  0
    1.8185    0.4772    0.0000 C   0  0  0  0  0  0  0  0  0  0  0  0
   -1.7516   -0.7623    0.0000 O   0  0  0  0  0  0  0  0  0  0  0  0
   -2.4673    0.4772    0.0000 N   0  0  0  0  0  0  0  0  0  0  0  0
    1.8185   -1.1726    0.0000 C   0  0  0  0  0  0  0  0  0  0  0  0
    0.3870    1.3006    0.0000 O   0  0  0  0  0  0  0  0  0  0  0  0
    2.5343    0.0669    0.0000 C   0  0  0  0  0  0  0  0  0  0  0  0
    2.5343   -0.7623    0.0000 C   0  0  0  0  0  0  0  0  0  0  0  0
   -3.1831    0.0669    0.0000 C   0  0  0  0  0  0  0  0  0  0  0  0
    3.2501    0.4772    0.0000 O   0  0  0  0  0  0  0  0  0  0  0  0
    3.9658    0.0669    0.0000 C   0  0  0  0  0  0  0  0  0  0  0  0
  2  3  2  0  0  0  0
  3  1  1  0  0  0  0
  4  5  1  0  0  0  0
  5  2  1  0  0  0  0
  6  8  1  0  0  0  0
  7 18  1  0  0  0  0
  8  1  1  0  0  0  0
  9  7  3  0  0  0  0
 10  6  2  0  0  0  0
 10  2  1  0  0  0  0
 11  1  2  0  0  0  0
 12  4  2  0  0  0  0
 13  4  1  0  0  0  0
 14  8  2  0  0  0  0
 15  3  1  0  0  0  0
 16 11  1  0  0  0  0
 17 16  2  0  0  0  0
 17 14  1  0  0  0  0
 18 13  1  0  0  0  0
 19 16  1  0  0  0  0
 20 19  1  0  0  0  0
M  END
> <CdId>
400

> <Mol Weight>
271.2713

> <Formula>
C14H13N3O3

> <Click_ID>
CLK005_H11 __ __ 

$$$$
