CLK024_H03
 OpenBabel03181417022D

 24 25  0  0  0  0  0  0  0  0999 V2000
   -1.1283   -1.9160    0.0000 N   0  0  0  0  0  0  0  0  0  0  0  0
   -0.8703   -2.7037    0.0000 C   0  0  0  0  0  0  0  0  0  0  0  0
   -0.4575   -1.4276    0.0000 C   0  0  0  0  0  0  0  0  0  0  0  0
    0.2099   -1.9160    0.0000 C   0  0  0  0  0  0  0  0  0  0  0  0
   -0.0447   -2.7037    0.0000 S   0  0  0  0  0  0  0  0  0  0  0  0
   -1.9160   -1.6614    0.0000 C   0  0  3  0  0  0  0  0  0  0  0  0
    1.0078   -1.6614    0.0000 C   0  0  0  0  0  0  0  0  0  0  0  0
   -2.0914   -0.8531    0.0000 C   0  0  0  0  0  0  0  0  0  0  0  0
    2.6899    2.5834    0.0000 C   0  0  0  0  0  0  0  0  0  0  0  0
    2.8757    3.3813    0.0000 C   0  0  0  0  0  0  0  0  0  0  0  0
   -1.3656   -3.3813    0.0000 O   0  0  0  0  0  0  0  0  0  0  0  0
   -0.4644   -0.5985    0.0000 O   0  0  0  0  0  0  0  0  0  0  0  0
   -2.8792   -0.6020    0.0000 O   0  0  0  0  0  0  0  0  0  0  0  0
    1.1764   -0.8634    0.0000 C   0  0  0  0  0  0  0  0  0  0  0  0
   -1.4792   -0.2993    0.0000 O   0  0  0  0  0  0  0  0  0  0  0  0
    1.5341    0.7430    0.0000 C   0  0  0  0  0  0  0  0  0  0  0  0
    1.9504   -0.6123    0.0000 C   0  0  0  0  0  0  0  0  0  0  0  0
    0.5744   -0.2993    0.0000 C   0  0  0  0  0  0  0  0  0  0  0  0
    0.7499    0.5022    0.0000 C   0  0  0  0  0  0  0  0  0  0  0  0
    2.1465    0.1926    0.0000 C   0  0  0  0  0  0  0  0  0  0  0  0
    2.5008    1.7888    0.0000 C   0  0  0  0  0  0  0  0  0  0  0  0
    1.7234    1.5376    0.0000 O   0  0  0  0  0  0  0  0  0  0  0  0
   -2.5318   -2.2152    0.0000 C   0  0  0  0  0  0  0  0  0  0  0  0
   -1.6546    0.5125    0.0000 C   0  0  0  0  0  0  0  0  0  0  0  0
  2  1  1  0  0  0  0
  3  1  1  0  0  0  0
  4  3  1  0  0  0  0
  4  5  1  0  0  0  0
  5  2  1  0  0  0  0
  6  1  1  0  0  0  0
  7  4  2  0  0  0  0
  8  6  1  0  0  0  0
  9 21  1  0  0  0  0
 10  9  3  0  0  0  0
 11  2  2  0  0  0  0
 12  3  2  0  0  0  0
 13  8  2  0  0  0  0
 14  7  1  0  0  0  0
 15  8  1  0  0  0  0
 16 19  2  0  0  0  0
 16 20  1  0  0  0  0
 17 14  1  0  0  0  0
 18 14  2  0  0  0  0
 19 18  1  0  0  0  0
 20 17  2  0  0  0  0
 21 22  1  0  0  0  0
 22 16  1  0  0  0  0
 23  6  1  0  0  0  0
 24 15  1  0  0  0  0
M  END
> <CdId>
1848

> <Mol Weight>
345.37

> <Formula>
C17H15NO5S

> <Click_ID>
CLK024_H03 __ __ 

$$$$
