CLK013_E03
 OpenBabel03181417022D

 24 25  0  0  0  0  0  0  0  0999 V2000
    5.9907   -1.5964    0.0000 N   0  0  0  0  0  0  0  0  0  0  0  0
    5.8535   -2.4113    0.0000 C   0  0  0  0  0  0  0  0  0  0  0  0
    5.2549   -1.2140    0.0000 C   0  0  0  0  0  0  0  0  0  0  0  0
    4.6687   -1.8001    0.0000 C   0  0  0  0  0  0  0  0  0  0  0  0
    5.0429   -2.5360    0.0000 S   0  0  0  0  0  0  0  0  0  0  0  0
    3.8538   -1.6712    0.0000 C   0  0  0  0  0  0  0  0  0  0  0  0
    6.7224   -1.2264    0.0000 C   0  0  0  0  0  0  0  0  0  0  0  0
    1.5507   -5.6540    0.0000 C   0  0  0  0  0  0  0  0  0  0  0  0
    1.0269   -6.2859    0.0000 C   0  0  0  0  0  0  0  0  0  0  0  0
    6.4397   -2.9975    0.0000 O   0  0  0  0  0  0  0  0  0  0  0  0
    1.9955   -2.8228    0.0000 C   0  0  0  0  0  0  0  0  0  0  0  0
    5.1260   -0.4033    0.0000 O   0  0  0  0  0  0  0  0  0  0  0  0
    3.3342   -2.3115    0.0000 C   0  0  0  0  0  0  0  0  0  0  0  0
    2.5110   -2.1826    0.0000 C   0  0  0  0  0  0  0  0  0  0  0  0
    2.2866   -3.5961    0.0000 C   0  0  0  0  0  0  0  0  0  0  0  0
    3.1055   -3.7208    0.0000 C   0  0  0  0  0  0  0  0  0  0  0  0
    3.6211   -3.0848    0.0000 C   0  0  0  0  0  0  0  0  0  0  0  0
    1.1766   -2.6939    0.0000 O   0  0  0  0  0  0  0  0  0  0  0  0
    1.7710   -4.2322    0.0000 O   0  0  0  0  0  0  0  0  0  0  0  0
    2.0621   -5.0054    0.0000 C   0  0  0  0  0  0  0  0  0  0  0  0
    7.4125   -1.6754    0.0000 C   0  0  0  0  0  0  0  0  0  0  0  0
    0.6610   -3.3342    0.0000 C   0  0  0  0  0  0  0  0  0  0  0  0
    7.3626   -2.4986    0.0000 C   0  0  0  0  0  0  0  0  0  0  0  0
    8.1484   -1.3013    0.0000 C   0  0  0  0  0  0  0  0  0  0  0  0
  2  1  1  0  0  0  0
  3  1  1  0  0  0  0
  4  3  1  0  0  0  0
  5  2  1  0  0  0  0
  5  4  1  0  0  0  0
  6  4  2  0  0  0  0
  7  1  1  0  0  0  0
  8 20  1  0  0  0  0
  9  8  3  0  0  0  0
 10  2  2  0  0  0  0
 11 14  1  0  0  0  0
 11 15  2  0  0  0  0
 12  3  2  0  0  0  0
 13  6  1  0  0  0  0
 14 13  2  0  0  0  0
 15 16  1  0  0  0  0
 16 17  2  0  0  0  0
 17 13  1  0  0  0  0
 18 11  1  0  0  0  0
 19 15  1  0  0  0  0
 20 19  1  0  0  0  0
 21  7  1  0  0  0  0
 22 18  1  0  0  0  0
 23 21  1  0  0  0  0
 24 21  1  0  0  0  0
M  END
> <CdId>
958

> <Mol Weight>
345.413

> <Formula>
C18H19NO4S

> <Click_ID>
CLK013_E03 __ __ 

$$$$
