CLK030_C03
 OpenBabel03181417022D

 29 32  0  0  0  0  0  0  0  0999 V2000
   -1.1636    2.3855    0.0000 C    0  0  0  0  0  0  0  0  0  0  0  0
   -0.3378    2.3772    0.0000 N    0  0  0  0  0  0  0  0  0  0  0  0
    2.5566    1.6516    0.0000 N    0  0  0  0  0  0  0  0  0  0  0  0
   -1.6473    1.7224    0.0000 N    0  0  0  0  0  0  0  0  0  0  0  0
   -1.6473    3.0529    0.0000 S    0  0  0  0  0  0  0  0  0  0  0  0
   -2.4356    2.7984    0.0000 C    0  0  0  0  0  0  0  0  0  0  0  0
   -2.4356    1.9727    0.0000 C    0  0  0  0  0  0  0  0  0  0  0  0
    0.0751    3.0904    0.0000 C    0  0  0  0  0  0  0  0  0  0  0  0
    2.1312    2.3730    0.0000 C    0  0  0  0  0  0  0  0  0  0  0  0
    3.3699    1.5347    0.0000 C    0  0  0  0  0  0  0  0  0  0  0  0
    2.1770    0.9134    0.0000 C    0  0  0  0  0  0  0  0  0  0  0  0
    1.3137    2.3772    0.0000 C    0  0  0  0  0  0  0  0  0  0  0  0
    0.9008    3.0904    0.0000 C    0  0  0  0  0  0  0  0  0  0  0  0
   -3.1488    3.2113    0.0000 C    0  0  0  0  0  0  0  0  0  0  0  0
   -1.9476    0.3211    0.0000 C    0  0  0  0  0  0  0  0  0  0  0  0
   -2.4981   -0.2920    0.0000 C    0  0  0  0  0  0  0  0  0  0  0  0
   -3.1488    1.5598    0.0000 C    0  0  0  0  0  0  0  0  0  0  0  0
   -0.3378    3.8036    0.0000 O    0  0  0  0  0  0  0  0  0  0  0  0
    3.5075    0.7132    0.0000 C    0  0  0  0  0  0  0  0  0  0  0  0
    2.7818    0.3253    0.0000 C    0  0  0  0  0  0  0  0  0  0  0  0
    3.9537    2.1103    0.0000 O    0  0  0  0  0  0  0  0  0  0  0  0
    1.3680    0.7840    0.0000 O    0  0  0  0  0  0  0  0  0  0  0  0
   -1.3971    0.9342    0.0000 C    0  0  0  0  0  0  0  0  0  0  0  0
   -3.8619    2.7984    0.0000 C    0  0  0  0  0  0  0  0  0  0  0  0
   -3.8619    1.9727    0.0000 C    0  0  0  0  0  0  0  0  0  0  0  0
   -4.5876    3.2155    0.0000 Br   0  0  0  0  0  0  0  0  0  0  0  0
    2.5566    3.0862    0.0000 C    0  0  0  0  0  0  0  0  0  0  0  0
    1.3179    3.8119    0.0000 C    0  0  0  0  0  0  0  0  0  0  0  0
    2.1437    3.8036    0.0000 C    0  0  0  0  0  0  0  0  0  0  0  0
  2  1  2  0  0  0  0
  3  9  1  0  0  0  0
  4  1  1  0  0  0  0
  5  1  1  0  0  0  0
  6  5  1  0  0  0  0
  6  7  2  0  0  0  0
  7  4  1  0  0  0  0
  8  2  1  0  0  0  0
  9 12  1  0  0  0  0
 10  3  1  0  0  0  0
 11  3  1  0  0  0  0
 12 13  2  0  0  0  0
 13  8  1  0  0  0  0
 14  6  1  0  0  0  0
 15 23  1  0  0  0  0
 16 15  3  0  0  0  0
 17  7  1  0  0  0  0
 18  8  2  0  0  0  0
 19 10  1  0  0  0  0
 20 11  1  0  0  0  0
 20 19  1  0  0  0  0
 21 10  2  0  0  0  0
 22 11  2  0  0  0  0
 23  4  1  0  0  0  0
 24 14  2  0  0  0  0
 24 25  1  0  0  0  0
 25 17  2  0  0  0  0
 26 24  1  0  0  0  0
 27 29  1  0  0  0  0
 27  9  2  0  0  0  0
 28 13  1  0  0  0  0
 29 28  2  0  0  0  0
M  END
> <CdId>
2267

> <Mol Weight>
468.323

> <Formula>
C21H14BrN3O3S

> <Click_ID>
CLK030_C03 __ __ 

$$$$
