CLK010_D08
 OpenBabel03181417022D

 21 23  0  0  0  0  0  0  0  0999 V2000
   -2.4667   -0.5383    0.0000 C   0  0  0  0  0  0  0  0  0  0  0  0
   -1.9213   -1.1549    0.0000 C   0  0  0  0  0  0  0  0  0  0  0  0
   -1.1122   -0.9981    0.0000 N   0  0  0  0  0  0  0  0  0  0  0  0
   -2.2100    0.2317    0.0000 C   0  0  0  0  0  0  0  0  0  0  0  0
   -1.4080    0.4242    0.0000 N   0  0  0  0  0  0  0  0  0  0  0  0
   -0.8412   -0.2139    0.0000 C   0  0  0  0  0  0  0  0  0  0  0  0
   -2.3276   -1.8536    0.0000 S   0  0  0  0  0  0  0  0  0  0  0  0
   -3.2188   -0.8805    0.0000 C   0  0  0  0  0  0  0  0  0  0  0  0
   -3.1333   -1.7003    0.0000 C   0  0  0  0  0  0  0  0  0  0  0  0
    1.0944    0.8662    0.0000 C   0  0  0  0  0  0  0  0  0  0  0  0
    1.9142    1.0016    0.0000 C   0  0  0  0  0  0  0  0  0  0  0  0
   -2.7768    0.8662    0.0000 O   0  0  0  0  0  0  0  0  0  0  0  0
    0.0000   -0.0571    0.0000 S   0  0  0  0  0  0  0  0  0  0  0  0
   -1.1513    1.2262    0.0000 C   0  0  0  0  0  0  0  0  0  0  0  0
   -0.3422    1.3973    0.0000 C   0  0  0  0  0  0  0  0  0  0  0  0
   -0.0856    2.1815    0.0000 C   0  0  0  0  0  0  0  0  0  0  0  0
   -3.9745   -0.5383    0.0000 C   0  0  0  0  0  0  0  0  0  0  0  0
   -3.8034   -2.1815    0.0000 C   0  0  0  0  0  0  0  0  0  0  0  0
    0.2887    0.7272    0.0000 C   0  0  0  0  0  0  0  0  0  0  0  0
   -4.6375   -1.0159    0.0000 C   0  0  0  0  0  0  0  0  0  0  0  0
   -4.5520   -1.8393    0.0000 C   0  0  0  0  0  0  0  0  0  0  0  0
  2  1  2  0  0  0  0
  3  2  1  0  0  0  0
  4  1  1  0  0  0  0
  5  4  1  0  0  0  0
  6  5  1  0  0  0  0
  6  3  2  0  0  0  0
  7  2  1  0  0  0  0
  8  1  1  0  0  0  0
  9  8  2  0  0  0  0
  9  7  1  0  0  0  0
 10 19  1  0  0  0  0
 11 10  3  0  0  0  0
 12  4  2  0  0  0  0
 13  6  1  0  0  0  0
 14  5  1  0  0  0  0
 15 14  1  0  0  0  0
 16 15  2  0  0  0  0
 17  8  1  0  0  0  0
 18  9  1  0  0  0  0
 18 21  1  0  0  0  0
 19 13  1  0  0  0  0
 20 17  1  0  0  0  0
 21 20  1  0  0  0  0
M  END
> <CdId>
713

> <Mol Weight>
316.441

> <Formula>
C16H16N2OS2

> <Click_ID>
CLK010_D08 __ __ 

$$$$
