CLK005_G05
 OpenBabel03181417022D

 26 28  0  0  0  0  0  0  0  0999 V2000
   -0.1925   -0.3437    0.0000 C    0  0  0  0  0  0  0  0  0  0  0  0
    0.6325   -0.3437    0.0000 C    0  0  0  0  0  0  0  0  0  0  0  0
   -0.6015    0.3644    0.0000 C    0  0  0  0  0  0  0  0  0  0  0  0
   -0.6015   -1.0553    0.0000 C    0  0  0  0  0  0  0  0  0  0  0  0
    1.0415    0.3712    0.0000 C    0  0  0  0  0  0  0  0  0  0  0  0
    1.0415   -1.0553    0.0000 C    0  0  0  0  0  0  0  0  0  0  0  0
   -0.3437    1.1516    0.0000 C    0  0  0  0  0  0  0  0  0  0  0  0
   -1.4265    0.3712    0.0000 C    0  0  0  0  0  0  0  0  0  0  0  0
   -0.3541   -1.8356    0.0000 C    0  0  0  0  0  0  0  0  0  0  0  0
   -1.4265   -1.0519    0.0000 C    0  0  0  0  0  0  0  0  0  0  0  0
    1.8769    0.3712    0.0000 C    0  0  0  0  0  0  0  0  0  0  0  0
    0.6325    1.0897    0.0000 O    0  0  0  0  0  0  0  0  0  0  0  0
    1.8734   -1.0622    0.0000 C    0  0  0  0  0  0  0  0  0  0  0  0
   -1.0140    1.6294    0.0000 N    0  0  0  0  0  0  0  0  0  0  0  0
   -0.1341    1.9491    0.0000 C    0  0  0  0  0  0  0  0  0  0  0  0
   -1.6740    1.1516    0.0000 N    0  0  0  0  0  0  0  0  0  0  0  0
   -2.1381   -0.0344    0.0000 O    0  0  0  0  0  0  0  0  0  0  0  0
   -1.0175   -2.3134    0.0000 N    0  0  0  0  0  0  0  0  0  0  0  0
    0.4331   -2.0968    0.0000 C    0  0  0  0  0  0  0  0  0  0  0  0
   -1.6740   -1.8287    0.0000 N    0  0  0  0  0  0  0  0  0  0  0  0
   -2.2240   -0.8319    0.0000 O    0  0  0  0  0  0  0  0  0  0  0  0
    2.2894   -0.3541    0.0000 C    0  0  0  0  0  0  0  0  0  0  0  0
    1.0519    1.7977    0.0000 C    0  0  0  0  0  0  0  0  0  0  0  0
    2.2756   -1.7772    0.0000 Br   0  0  0  0  0  0  0  0  0  0  0  0
    0.6325    2.5128    0.0000 C    0  0  0  0  0  0  0  0  0  0  0  0
    1.0519    3.2312    0.0000 C    0  0  0  0  0  0  0  0  0  0  0  0
  1  2  1  0  0  0  0
  1  3  1  0  0  0  0
  1  4  1  0  0  0  0
  2  5  2  0  0  0  0
  2  6  1  0  0  0  0
  3  7  1  0  0  0  0
  3  8  2  0  0  0  0
  4  9  1  0  0  0  0
  4 10  2  0  0  0  0
  5 11  1  0  0  0  0
  5 12  1  0  0  0  0
  6 13  2  0  0  0  0
  7 14  2  0  0  0  0
  7 15  1  0  0  0  0
  8 16  1  0  0  0  0
  8 17  1  0  0  0  0
  9 18  2  0  0  0  0
  9 19  1  0  0  0  0
 10 20  1  0  0  0  0
 10 21  1  0  0  0  0
 11 22  2  0  0  0  0
 12 23  1  0  0  0  0
 13 24  1  0  0  0  0
 13 22  1  0  0  0  0
 14 16  1  0  0  0  0
 18 20  1  0  0  0  0
 23 25  1  0  0  0  0
 25 26  3  0  0  0  0
M  END
> <CdId>
384

> <Mol Weight>
417.257

> <Formula>
C18H17BrN4O3

> <Click_ID>
CLK005_G05 __ __ 

$$$$
