CLK026_B08
 OpenBabel03181417022D

 27 29  0  0  0  0  0  0  0  0999 V2000
    2.4860    0.4120    0.0000 N   0  0  0  0  0  0  0  0  0  0  0  0
    3.2035    0.8206    0.0000 C   0  0  0  0  0  0  0  0  0  0  0  0
    1.7752    1.6516    0.0000 C   0  0  0  0  0  0  0  0  0  0  0  0
    1.7752    0.8206    0.0000 C   0  0  0  0  0  0  0  0  0  0  0  0
    3.2035    1.6516    0.0000 N   0  0  0  0  0  0  0  0  0  0  0  0
    2.4860    2.0705    0.0000 C   0  0  0  0  0  0  0  0  0  0  0  0
    1.0541    2.0636    0.0000 C   0  0  0  0  0  0  0  0  0  0  0  0
    2.4860   -0.4155    0.0000 C   0  0  0  0  0  0  0  0  0  0  0  0
    3.9211    0.4086    0.0000 S   0  0  0  0  0  0  0  0  0  0  0  0
   -3.2104    0.4567    0.0000 C   0  0  0  0  0  0  0  0  0  0  0  0
   -3.9246    0.0550    0.0000 C   0  0  0  0  0  0  0  0  0  0  0  0
    1.0541    0.4086    0.0000 O   0  0  0  0  0  0  0  0  0  0  0  0
    2.4860    2.8980    0.0000 O   0  0  0  0  0  0  0  0  0  0  0  0
    0.3434    1.6550    0.0000 C   0  0  0  0  0  0  0  0  0  0  0  0
    1.7614   -0.8241    0.0000 C   0  0  0  0  0  0  0  0  0  0  0  0
    3.2035   -0.8241    0.0000 C   0  0  0  0  0  0  0  0  0  0  0  0
    2.4790   -2.0670    0.0000 C   0  0  0  0  0  0  0  0  0  0  0  0
   -1.0747    0.8378    0.0000 C   0  0  0  0  0  0  0  0  0  0  0  0
    3.1932   -1.6516    0.0000 C   0  0  0  0  0  0  0  0  0  0  0  0
    1.7614   -1.6516    0.0000 C   0  0  0  0  0  0  0  0  0  0  0  0
    2.4653   -2.8945    0.0000 F   0  0  0  0  0  0  0  0  0  0  0  0
   -0.3605    2.0636    0.0000 C   0  0  0  0  0  0  0  0  0  0  0  0
    0.3399    0.8344    0.0000 C   0  0  0  0  0  0  0  0  0  0  0  0
   -0.3708    0.4326    0.0000 C   0  0  0  0  0  0  0  0  0  0  0  0
   -1.0781    1.6619    0.0000 C   0  0  0  0  0  0  0  0  0  0  0  0
   -2.4996    0.8515    0.0000 C   0  0  0  0  0  0  0  0  0  0  0  0
   -1.7923    0.4464    0.0000 O   0  0  0  0  0  0  0  0  0  0  0  0
  2  1  1  0  0  0  0
  3  4  1  0  0  0  0
  4  1  1  0  0  0  0
  5  2  1  0  0  0  0
  5  6  1  0  0  0  0
  6  3  1  0  0  0  0
  7  3  2  0  0  0  0
  8  1  1  0  0  0  0
  9  2  2  0  0  0  0
 10 26  1  0  0  0  0
 11 10  3  0  0  0  0
 12  4  2  0  0  0  0
 13  6  2  0  0  0  0
 14  7  1  0  0  0  0
 15  8  2  0  0  0  0
 16  8  1  0  0  0  0
 17 19  1  0  0  0  0
 18 24  2  0  0  0  0
 19 16  2  0  0  0  0
 20 15  1  0  0  0  0
 20 17  2  0  0  0  0
 21 17  1  0  0  0  0
 22 14  1  0  0  0  0
 23 14  2  0  0  0  0
 24 23  1  0  0  0  0
 25 22  2  0  0  0  0
 25 18  1  0  0  0  0
 26 27  1  0  0  0  0
 27 18  1  0  0  0  0
M  END
> <CdId>
1953

> <Mol Weight>
380.392

> <Formula>
C20H13FN2O3S

> <Click_ID>
CLK026_B08 __ __ 

$$$$
