CLK044D04
 OpenBabel03181417022D

 22 23  0  0  0  0  0  0  0  0999 V2000
   -0.2958    0.1333    0.0000 S   0  0  0  0  0  0  0  0  0  0  0  0
   -0.2958   -0.6917    0.0000 C   0  0  0  0  0  0  0  0  0  0  0  0
   -1.0083   -1.9292    0.0000 C   0  0  0  0  0  0  0  0  0  0  0  0
   -0.2958    0.9583    0.0000 N   0  0  0  0  0  0  0  0  0  0  0  0
   -1.0083   -1.1042    0.0000 C   0  0  0  0  0  0  0  0  0  0  0  0
   -1.7250   -2.3417    0.0000 C   0  0  0  0  0  0  0  0  0  0  0  0
    1.1333    3.4333    0.0000 C   0  0  0  0  0  0  0  0  0  0  0  0
   -1.1208    0.1333    0.0000 O   0  0  0  0  0  0  0  0  0  0  0  0
    0.5292    0.1333    0.0000 O   0  0  0  0  0  0  0  0  0  0  0  0
    1.1333    4.2542    0.0000 C   0  0  0  0  0  0  0  0  0  0  0  0
   -0.2958   -2.3417    0.0000 C   0  0  0  0  0  0  0  0  0  0  0  0
    0.4208    1.3708    0.0000 C   0  0  0  0  0  0  0  0  0  0  0  0
   -1.7250   -3.1667    0.0000 O   0  0  0  0  0  0  0  0  0  0  0  0
    0.4208   -1.1042    0.0000 C   0  0  0  0  0  0  0  0  0  0  0  0
    0.4208   -1.9292    0.0000 C   0  0  0  0  0  0  0  0  0  0  0  0
    1.1333    2.6083    0.0000 C   0  0  0  0  0  0  0  0  0  0  0  0
    0.4208    2.1958    0.0000 C   0  0  0  0  0  0  0  0  0  0  0  0
   -2.4375   -1.9292    0.0000 O   0  0  0  0  0  0  0  0  0  0  0  0
    1.8500    1.3708    0.0000 C   0  0  0  0  0  0  0  0  0  0  0  0
    1.1333    0.9583    0.0000 C   0  0  0  0  0  0  0  0  0  0  0  0
   -0.2958   -3.1667    0.0000 C   0  0  0  0  0  0  0  0  0  0  0  0
    1.8500    2.1958    0.0000 C   0  0  0  0  0  0  0  0  0  0  0  0
  2  1  1  0  0  0  0
  3  5  1  0  0  0  0
  4  1  1  0  0  0  0
  5  2  2  0  0  0  0
  6  3  1  0  0  0  0
  7 16  1  0  0  0  0
  8  1  2  0  0  0  0
  9  1  2  0  0  0  0
 10  7  3  0  0  0  0
 11  3  2  0  0  0  0
 12  4  1  0  0  0  0
 13  6  2  0  0  0  0
 14  2  1  0  0  0  0
 15 14  2  0  0  0  0
 15 11  1  0  0  0  0
 16 17  1  0  0  0  0
 17 12  2  0  0  0  0
 18  6  1  0  0  0  0
 19 20  2  0  0  0  0
 20 12  1  0  0  0  0
 21 11  1  0  0  0  0
 22 16  2  0  0  0  0
 22 19  1  0  0  0  0
M  END
> <CdId>
3348

> <Mol Weight>
315.344

> <Formula>
C16H13NO4S

> <Click_ID>
CLK044D04 __ __ 

$$$$
