CLK031_A10
 OpenBabel03181417022D

 26 28  0  0  0  0  0  0  0  0999 V2000
   -1.1627    2.3838    0.0000 C   0  0  0  0  0  0  0  0  0  0  0  0
   -0.3376    2.3754    0.0000 N   0  0  0  0  0  0  0  0  0  0  0  0
   -4.5842    3.2131    0.0000 S   0  0  0  0  0  0  0  0  0  0  0  0
   -1.6461    1.7211    0.0000 N   0  0  0  0  0  0  0  0  0  0  0  0
   -1.6461    3.0506    0.0000 S   0  0  0  0  0  0  0  0  0  0  0  0
    0.0750    3.0881    0.0000 C   0  0  0  0  0  0  0  0  0  0  0  0
   -2.4338    2.7963    0.0000 C   0  0  0  0  0  0  0  0  0  0  0  0
   -2.4338    1.9712    0.0000 C   0  0  0  0  0  0  0  0  0  0  0  0
    0.9002    3.0881    0.0000 C   0  0  0  0  0  0  0  0  0  0  0  0
   -3.8590    2.7963    0.0000 C   0  0  0  0  0  0  0  0  0  0  0  0
   -3.1464    3.2089    0.0000 C   0  0  0  0  0  0  0  0  0  0  0  0
   -1.9462    0.3209    0.0000 C   0  0  0  0  0  0  0  0  0  0  0  0
   -3.1464    1.5586    0.0000 C   0  0  0  0  0  0  0  0  0  0  0  0
   -2.4963   -0.2918    0.0000 C   0  0  0  0  0  0  0  0  0  0  0  0
   -5.0217    2.5088    0.0000 O   0  0  0  0  0  0  0  0  0  0  0  0
   -4.1466    3.9090    0.0000 O   0  0  0  0  0  0  0  0  0  0  0  0
    1.3169    2.3712    0.0000 C   0  0  0  0  0  0  0  0  0  0  0  0
   -0.3376    3.8007    0.0000 O   0  0  0  0  0  0  0  0  0  0  0  0
   -5.2843    3.6465    0.0000 N   0  0  0  0  0  0  0  0  0  0  0  0
   -3.8590    1.9712    0.0000 C   0  0  0  0  0  0  0  0  0  0  0  0
   -1.3961    0.9335    0.0000 C   0  0  0  0  0  0  0  0  0  0  0  0
    0.9044    1.6461    0.0000 I   0  0  0  0  0  0  0  0  0  0  0  0
    1.3169    3.8007    0.0000 C   0  0  0  0  0  0  0  0  0  0  0  0
    2.1296    2.3587    0.0000 C   0  0  0  0  0  0  0  0  0  0  0  0
    2.1421    3.8007    0.0000 C   0  0  0  0  0  0  0  0  0  0  0  0
    2.5505    3.0839    0.0000 C   0  0  0  0  0  0  0  0  0  0  0  0
  2  1  2  0  0  0  0
  3 10  1  0  0  0  0
  4  1  1  0  0  0  0
  5  1  1  0  0  0  0
  6  2  1  0  0  0  0
  7  5  1  0  0  0  0
  7  8  2  0  0  0  0
  8  4  1  0  0  0  0
  9  6  1  0  0  0  0
 10 11  2  0  0  0  0
 10 20  1  0  0  0  0
 11  7  1  0  0  0  0
 12 21  1  0  0  0  0
 13  8  1  0  0  0  0
 14 12  3  0  0  0  0
 15  3  2  0  0  0  0
 16  3  2  0  0  0  0
 17  9  1  0  0  0  0
 18  6  2  0  0  0  0
 19  3  1  0  0  0  0
 20 13  2  0  0  0  0
 21  4  1  0  0  0  0
 22 17  1  0  0  0  0
 23  9  2  0  0  0  0
 24 17  2  0  0  0  0
 25 23  1  0  0  0  0
 26 25  2  0  0  0  0
 26 24  1  0  0  0  0
M  END
> <CdId>
2334

> <Mol Weight>
497.33

> <Formula>
C17H12IN3O3S2

> <Click_ID>
CLK031_A10 __ __ 

$$$$
