CLK005_C10
 OpenBabel03181417022D

 19 21  0  0  0  0  0  0  0  0999 V2000
   -0.7629    0.0794    0.0000 C   0  0  0  0  0  0  0  0  0  0  0  0
    0.0656    0.0794    0.0000 C   0  0  0  0  0  0  0  0  0  0  0  0
   -1.2497    0.7560    0.0000 N   0  0  0  0  0  0  0  0  0  0  0  0
   -1.2497   -0.5834    0.0000 S   0  0  0  0  0  0  0  0  0  0  0  0
    0.4902   -0.6214    0.0000 C   0  0  0  0  0  0  0  0  0  0  0  0
    0.4798    0.7732    0.0000 C   0  0  0  0  0  0  0  0  0  0  0  0
   -2.0332    0.4936    0.0000 C   0  0  0  0  0  0  0  0  0  0  0  0
   -2.0332   -0.3314    0.0000 C   0  0  0  0  0  0  0  0  0  0  0  0
    1.3014   -0.6317    0.0000 C   0  0  0  0  0  0  0  0  0  0  0  0
    1.3014    0.7732    0.0000 C   0  0  0  0  0  0  0  0  0  0  0  0
   -2.7513    0.9079    0.0000 C   0  0  0  0  0  0  0  0  0  0  0  0
   -2.7513   -0.7456    0.0000 C   0  0  0  0  0  0  0  0  0  0  0  0
    1.7088    0.0725    0.0000 C   0  0  0  0  0  0  0  0  0  0  0  0
   -3.4659    0.4936    0.0000 C   0  0  0  0  0  0  0  0  0  0  0  0
   -3.4659   -0.3314    0.0000 C   0  0  0  0  0  0  0  0  0  0  0  0
    2.5199    0.0794    0.0000 O   0  0  0  0  0  0  0  0  0  0  0  0
    3.3830    0.0691    0.0000 C   0  0  0  0  0  0  0  0  0  0  0  0
    3.8214   -0.6697    0.0000 C   0  0  0  0  0  0  0  0  0  0  0  0
    4.6844   -0.6697    0.0000 C   0  0  0  0  0  0  0  0  0  0  0  0
  1  2  1  0  0  0  0
  1  3  2  0  0  0  0
  1  4  1  0  0  0  0
  2  5  1  0  0  0  0
  2  6  2  0  0  0  0
  3  7  1  0  0  0  0
  4  8  1  0  0  0  0
  5  9  2  0  0  0  0
  6 10  1  0  0  0  0
  7 11  2  0  0  0  0
  7  8  1  0  0  0  0
  8 12  2  0  0  0  0
  9 13  1  0  0  0  0
 10 13  2  0  0  0  0
 11 14  1  0  0  0  0
 12 15  1  0  0  0  0
 13 16  1  0  0  0  0
 14 15  2  0  0  0  0
 16 17  1  0  0  0  0
 17 18  1  0  0  0  0
 18 19  3  0  0  0  0
M  END
> <CdId>
349

> <Mol Weight>
265.33

> <Formula>
C16H11NOS

> <Click_ID>
CLK005_C10 __ __ 

$$$$
