CLK017_E05
 OpenBabel03181417022D

 22 23  0  0  0  0  0  0  0  0999 V2000
    6.2446   -1.1899    0.0000 N    0  0  0  0  0  0  0  0  0  0  0  0
    5.9076   -1.9387    0.0000 C    0  0  0  0  0  0  0  0  0  0  0  0
    5.6330   -0.6282    0.0000 C    0  0  0  0  0  0  0  0  0  0  0  0
    4.9216   -1.0401    0.0000 C    0  0  0  0  0  0  0  0  0  0  0  0
    5.0839   -1.8472    0.0000 S    0  0  0  0  0  0  0  0  0  0  0  0
    4.1686   -0.7031    0.0000 C    0  0  0  0  0  0  0  0  0  0  0  0
    2.1384   -2.1592    0.0000 C    0  0  0  0  0  0  0  0  0  0  0  0
    2.8997   -2.4879    0.0000 C    0  0  0  0  0  0  0  0  0  0  0  0
    2.0635   -1.3147    0.0000 C    0  0  0  0  0  0  0  0  0  0  0  0
    3.4946   -1.1899    0.0000 C    0  0  0  0  0  0  0  0  0  0  0  0
    6.3153   -2.6501    0.0000 S    0  0  0  0  0  0  0  0  0  0  0  0
    0.8861   -3.9481    0.0000 C    0  0  0  0  0  0  0  0  0  0  0  0
    0.2122   -4.4224    0.0000 C    0  0  0  0  0  0  0  0  0  0  0  0
    3.5737   -2.0094    0.0000 C    0  0  0  0  0  0  0  0  0  0  0  0
    2.7333   -0.8404    0.0000 C    0  0  0  0  0  0  0  0  0  0  0  0
    5.7287    0.1830    0.0000 O    0  0  0  0  0  0  0  0  0  0  0  0
    7.0516   -1.0151    0.0000 C    0  0  0  0  0  0  0  0  0  0  0  0
    1.3147   -0.9777    0.0000 Cl   0  0  0  0  0  0  0  0  0  0  0  0
    2.9746   -3.3116    0.0000 Cl   0  0  0  0  0  0  0  0  0  0  0  0
    1.4644   -2.6376    0.0000 O    0  0  0  0  0  0  0  0  0  0  0  0
    1.5518   -3.4572    0.0000 C    0  0  0  0  0  0  0  0  0  0  0  0
    7.3054   -0.2371    0.0000 C    0  0  0  0  0  0  0  0  0  0  0  0
  2  1  1  0  0  0  0
  3  1  1  0  0  0  0
  4  3  1  0  0  0  0
  5  2  1  0  0  0  0
  5  4  1  0  0  0  0
  6  4  2  0  0  0  0
  7  9  2  0  0  0  0
  7  8  1  0  0  0  0
  8 14  2  0  0  0  0
  9 15  1  0  0  0  0
 10  6  1  0  0  0  0
 11  2  2  0  0  0  0
 12 21  1  0  0  0  0
 13 12  3  0  0  0  0
 14 10  1  0  0  0  0
 15 10  2  0  0  0  0
 16  3  2  0  0  0  0
 17  1  1  0  0  0  0
 18  9  1  0  0  0  0
 19  8  1  0  0  0  0
 20  7  1  0  0  0  0
 21 20  1  0  0  0  0
 22 17  1  0  0  0  0
M  END
> <CdId>
1280

> <Mol Weight>
372.289

> <Formula>
C15H11Cl2NO2S2

> <Click_ID>
CLK017_E05 __ __ 

$$$$
