CLK043D09
 OpenBabel03181417022D

 32 34  0  0  0  0  0  0  0  0999 V2000
    0.3172    1.4775    0.0000 C   0  0  0  0  0  0  0  0  0  0  0  0
   -0.1670    0.8097    0.0000 N   0  0  0  0  0  0  0  0  0  0  0  0
    1.1019    1.2229    0.0000 N   0  0  0  0  0  0  0  0  0  0  0  0
    0.3172    0.1419    0.0000 C   0  0  0  0  0  0  0  0  0  0  0  0
    1.1019    0.3965    0.0000 N   0  0  0  0  0  0  0  0  0  0  0  0
    0.0626    2.2621    0.0000 C   0  0  3  0  0  0  0  0  0  0  0  0
    0.6135    2.8799    0.0000 N   0  0  0  0  0  0  0  0  0  0  0  0
   -0.9934    0.8097    0.0000 C   0  0  0  0  0  0  0  0  0  0  0  0
    0.4007   -4.2321    0.0000 C   0  0  0  0  0  0  0  0  0  0  0  0
    0.0626   -0.6469    0.0000 S   0  0  0  0  0  0  0  0  0  0  0  0
    0.1460   -5.0168    0.0000 C   0  0  0  0  0  0  0  0  0  0  0  0
    0.3589   -2.0451    0.0000 C   0  0  0  0  0  0  0  0  0  0  0  0
    0.9140   -2.6587    0.0000 N   0  0  0  0  0  0  0  0  0  0  0  0
    0.6553   -3.4433    0.0000 C   0  0  0  0  0  0  0  0  0  0  0  0
   -0.4466   -2.2162    0.0000 O   0  0  0  0  0  0  0  0  0  0  0  0
   -1.4066    1.5234    0.0000 C   0  0  0  0  0  0  0  0  0  0  0  0
   -1.4066    0.0919    0.0000 C   0  0  0  0  0  0  0  0  0  0  0  0
    0.6135   -1.2604    0.0000 C   0  0  0  0  0  0  0  0  0  0  0  0
   -2.6462    0.8097    0.0000 C   0  0  0  0  0  0  0  0  0  0  0  0
   -2.2330    0.0919    0.0000 C   0  0  0  0  0  0  0  0  0  0  0  0
   -2.2330    1.5234    0.0000 C   0  0  0  0  0  0  0  0  0  0  0  0
   -3.4726    0.8097    0.0000 F   0  0  0  0  0  0  0  0  0  0  0  0
    1.4232    2.7046    0.0000 C   0  0  0  0  0  0  0  0  0  0  0  0
    0.3589    3.6645    0.0000 C   0  0  0  0  0  0  0  0  0  0  0  0
   -0.7471    2.4374    0.0000 C   0  0  0  0  0  0  0  0  0  0  0  0
    1.4441   -3.7020    0.0000 C   0  0  0  0  0  0  0  0  0  0  0  0
   -0.1294   -3.1887    0.0000 C   0  0  0  0  0  0  0  0  0  0  0  0
    0.9140    4.2739    0.0000 C   0  0  0  0  0  0  0  0  0  0  0  0
    1.9783    3.3223    0.0000 C   0  0  0  0  0  0  0  0  0  0  0  0
    1.6152   -4.5076    0.0000 C   0  0  0  0  0  0  0  0  0  0  0  0
   -0.3005   -2.3832    0.0000 C   0  0  0  0  0  0  0  0  0  0  0  0
    1.7196    4.1027    0.0000 C   0  0  0  0  0  0  0  0  0  0  0  0
  2  1  1  0  0  0  0
  3  1  2  0  0  0  0
  4  2  1  0  0  0  0
  5  3  1  0  0  0  0
  5  4  2  0  0  0  0
  6  1  1  0  0  0  0
  7  6  1  0  0  0  0
  8  2  1  0  0  0  0
  9 14  1  0  0  0  0
 10  4  1  0  0  0  0
 11  9  3  0  0  0  0
 12 18  1  0  0  0  0
 13 12  1  0  0  0  0
 14 13  1  0  0  0  0
 15 12  2  0  0  0  0
 16  8  1  0  0  0  0
 17  8  2  0  0  0  0
 18 10  1  0  0  0  0
 19 20  2  0  0  0  0
 19 21  1  0  0  0  0
 20 17  1  0  0  0  0
 21 16  2  0  0  0  0
 22 19  1  0  0  0  0
 23  7  1  0  0  0  0
 24  7  1  0  0  0  0
 25  6  1  0  0  0  0
 26 14  1  0  0  0  0
 27 14  1  0  0  0  0
 28 24  1  0  0  0  0
 29 23  1  0  0  0  0
 30 26  1  0  0  0  0
 31 27  1  0  0  0  0
 32 28  1  0  0  0  0
 32 29  1  0  0  0  0
M  END
> <CdId>
3308

> <Mol Weight>
457.607

> <Formula>
C24H32FN5OS

> <Click_ID>
CLK043D09 __ __ 

$$$$
