CLK041C10
 OpenBabel03181417022D

 26 29  0  0  0  0  0  0  0  0999 V2000
   -1.0129   -0.1168    0.0000 C   0  0  0  0  0  0  0  0  0  0  0  0
   -1.5006    0.5503    0.0000 N   0  0  0  0  0  0  0  0  0  0  0  0
   -1.5006   -0.7837    0.0000 N   0  0  0  0  0  0  0  0  0  0  0  0
   -0.1876   -0.1168    0.0000 C   0  0  3  0  0  0  0  0  0  0  0  0
    1.0796    0.2959    0.0000 N   0  0  0  0  0  0  0  0  0  0  0  0
    1.0796   -0.5295    0.0000 C   0  0  0  0  0  0  0  0  0  0  0  0
    0.2959    0.5503    0.0000 C   0  0  0  0  0  0  0  0  0  0  0  0
   -2.2843   -0.5295    0.0000 C   0  0  0  0  0  0  0  0  0  0  0  0
   -2.2843    0.2959    0.0000 C   0  0  0  0  0  0  0  0  0  0  0  0
    1.7507    0.7796    0.0000 C   0  0  0  0  0  0  0  0  0  0  0  0
    0.2959   -0.7837    0.0000 C   0  0  0  0  0  0  0  0  0  0  0  0
   -1.7966   -2.1842    0.0000 C   0  0  0  0  0  0  0  0  0  0  0  0
   -2.3468   -2.7969    0.0000 C   0  0  0  0  0  0  0  0  0  0  0  0
    2.5052    0.4460    0.0000 C   0  0  0  0  0  0  0  0  0  0  0  0
    1.7507   -1.0171    0.0000 O   0  0  0  0  0  0  0  0  0  0  0  0
   -1.2422   -1.5715    0.0000 C   0  0  0  0  0  0  0  0  0  0  0  0
    3.1721    0.9295    0.0000 C   0  0  0  0  0  0  0  0  0  0  0  0
    1.6632    1.6007    0.0000 C   0  0  0  0  0  0  0  0  0  0  0  0
   -2.9970   -0.9421    0.0000 C   0  0  0  0  0  0  0  0  0  0  0  0
    3.9267    0.5961    0.0000 O   0  0  0  0  0  0  0  0  0  0  0  0
   -2.9970    0.7086    0.0000 C   0  0  0  0  0  0  0  0  0  0  0  0
    2.3302    2.0842    0.0000 C   0  0  0  0  0  0  0  0  0  0  0  0
    3.0846    1.7507    0.0000 C   0  0  0  0  0  0  0  0  0  0  0  0
    4.5936    1.0796    0.0000 C   0  0  0  0  0  0  0  0  0  0  0  0
   -3.7141   -0.5295    0.0000 C   0  0  0  0  0  0  0  0  0  0  0  0
   -3.7141    0.2959    0.0000 C   0  0  0  0  0  0  0  0  0  0  0  0
  2  1  2  0  0  0  0
  3  1  1  0  0  0  0
  4  1  1  0  0  0  0
  5  7  1  0  0  0  0
  6 11  1  0  0  0  0
  6  5  1  0  0  0  0
  7  4  1  0  0  0  0
  8  3  1  0  0  0  0
  8  9  2  0  0  0  0
  9  2  1  0  0  0  0
 10  5  1  0  0  0  0
 11  4  1  0  0  0  0
 12 16  1  0  0  0  0
 13 12  3  0  0  0  0
 14 10  1  0  0  0  0
 15  6  2  0  0  0  0
 16  3  1  0  0  0  0
 17 14  2  0  0  0  0
 18 10  2  0  0  0  0
 19  8  1  0  0  0  0
 20 17  1  0  0  0  0
 21  9  1  0  0  0  0
 22 18  1  0  0  0  0
 22 23  2  0  0  0  0
 23 17  1  0  0  0  0
 24 20  1  0  0  0  0
 25 19  2  0  0  0  0
 25 26  1  0  0  0  0
 26 21  2  0  0  0  0
M  END
> <CdId>
3155

> <Mol Weight>
345.3945

> <Formula>
C21H19N3O2

> <Click_ID>
CLK041C10 __ __ 

$$$$
