CLK043A07
 OpenBabel03181417022D

 29 31  0  0  0  0  0  0  0  0999 V2000
    2.3833   -0.7958    0.0000 S   0  0  0  0  0  0  0  0  0  0  0  0
   -2.6167    0.4417    0.0000 C   0  0  0  0  0  0  0  0  0  0  0  0
   -0.4708   -0.7958    0.0000 C   0  0  0  0  0  0  0  0  0  0  0  0
   -1.1875    0.4417    0.0000 C   0  0  0  0  0  0  0  0  0  0  0  0
   -0.4708    0.0292    0.0000 N   0  0  0  0  0  0  0  0  0  0  0  0
   -2.6167    1.2667    0.0000 C   0  0  0  0  0  0  0  0  0  0  0  0
   -3.4000    0.1875    0.0000 O   0  0  0  0  0  0  0  0  0  0  0  0
   -1.9000    0.0292    0.0000 C   0  0  0  0  0  0  0  0  0  0  0  0
    1.6708   -1.2083    0.0000 C   0  0  0  0  0  0  0  0  0  0  0  0
   -1.1875    1.2667    0.0000 C   0  0  0  0  0  0  0  0  0  0  0  0
    0.2417   -1.2083    0.0000 C   0  0  0  0  0  0  0  0  0  0  0  0
   -1.9000    1.6792    0.0000 C   0  0  0  0  0  0  0  0  0  0  0  0
    4.5292   -0.3833    0.0000 C   0  0  0  0  0  0  0  0  0  0  0  0
    0.9583   -0.7958    0.0000 C   0  0  0  0  0  0  0  0  0  0  0  0
    5.2417    0.0292    0.0000 C   0  0  0  0  0  0  0  0  0  0  0  0
    1.9708   -0.0792    0.0000 O   0  0  0  0  0  0  0  0  0  0  0  0
    2.7958   -1.5083    0.0000 O   0  0  0  0  0  0  0  0  0  0  0  0
    3.1000   -0.3833    0.0000 N   0  0  0  0  0  0  0  0  0  0  0  0
   -3.4000    1.5250    0.0000 C   0  0  0  0  0  0  0  0  0  0  0  0
   -1.1875   -1.2083    0.0000 O   0  0  0  0  0  0  0  0  0  0  0  0
   -3.8875    0.8542    0.0000 C   0  0  3  0  0  0  0  0  0  0  0  0
   -0.4708    1.6792    0.0000 O   0  0  0  0  0  0  0  0  0  0  0  0
    3.8125   -0.7958    0.0000 C   0  0  0  0  0  0  0  0  0  0  0  0
    1.6708   -2.0333    0.0000 C   0  0  0  0  0  0  0  0  0  0  0  0
    0.2417   -2.0333    0.0000 C   0  0  0  0  0  0  0  0  0  0  0  0
    0.9583   -2.4458    0.0000 C   0  0  0  0  0  0  0  0  0  0  0  0
   -4.7125    0.8542    0.0000 C   0  0  0  0  0  0  0  0  0  0  0  0
   -0.4708    2.5042    0.0000 C   0  0  0  0  0  0  0  0  0  0  0  0
    0.2417    2.9167    0.0000 C   0  0  0  0  0  0  0  0  0  0  0  0
  2  8  2  0  0  0  0
  2  6  1  0  0  0  0
  3 11  1  0  0  0  0
  4  5  1  0  0  0  0
  5  3  1  0  0  0  0
  6 12  2  0  0  0  0
  7  2  1  0  0  0  0
  8  4  1  0  0  0  0
  9  1  1  0  0  0  0
 10  4  2  0  0  0  0
 11 14  2  0  0  0  0
 12 10  1  0  0  0  0
 13 23  1  0  0  0  0
 14  9  1  0  0  0  0
 15 13  3  0  0  0  0
 16  1  2  0  0  0  0
 17  1  2  0  0  0  0
 18  1  1  0  0  0  0
 19  6  1  0  0  0  0
 20  3  2  0  0  0  0
 21  7  1  0  0  0  0
 21 19  1  0  0  0  0
 22 10  1  0  0  0  0
 23 18  1  0  0  0  0
 24  9  2  0  0  0  0
 25 11  1  0  0  0  0
 26 24  1  0  0  0  0
 26 25  2  0  0  0  0
 27 21  1  0  0  0  0
 28 22  1  0  0  0  0
 29 28  1  0  0  0  0
M  END
> <CdId>
3289

> <Mol Weight>
414.475

> <Formula>
C21H22N2O5S

> <Click_ID>
CLK043A07 __ __ 

$$$$
