CLK048A02
 OpenBabel03181417022D

 13 13  0  0  0  0  0  0  0  0999 V2000
   -0.5500    0.0667    0.0000 C    0  0  0  0  0  0  0  0  0  0  0  0
    0.1625   -0.3458    0.0000 C    0  0  0  0  0  0  0  0  0  0  0  0
   -1.2667    2.1292    0.0000 C    0  0  0  0  0  0  0  0  0  0  0  0
   -1.2667    2.9542    0.0000 C    0  0  0  0  0  0  0  0  0  0  0  0
    0.1625   -1.1708    0.0000 C    0  0  0  0  0  0  0  0  0  0  0  0
    0.8792    0.0667    0.0000 N    0  0  0  0  0  0  0  0  0  0  0  0
   -1.2667   -0.3458    0.0000 O    0  0  0  0  0  0  0  0  0  0  0  0
   -0.5500    0.8917    0.0000 N    0  0  0  0  0  0  0  0  0  0  0  0
    0.8792   -1.5833    0.0000 C    0  0  0  0  0  0  0  0  0  0  0  0
    1.5917   -0.3458    0.0000 C    0  0  0  0  0  0  0  0  0  0  0  0
    1.5917   -1.1708    0.0000 C    0  0  0  0  0  0  0  0  0  0  0  0
    0.8792   -2.4083    0.0000 Cl   0  0  0  0  0  0  0  0  0  0  0  0
   -1.2667    1.3042    0.0000 C    0  0  0  0  0  0  0  0  0  0  0  0
  2  1  1  0  0  0  0
  3 13  1  0  0  0  0
  4  3  3  0  0  0  0
  5  2  1  0  0  0  0
  6  2  2  0  0  0  0
  7  1  2  0  0  0  0
  8  1  1  0  0  0  0
  9  5  2  0  0  0  0
 10  6  1  0  0  0  0
 10 11  2  0  0  0  0
 11  9  1  0  0  0  0
 12  9  1  0  0  0  0
 13  8  1  0  0  0  0
M  END
> <CdId>
3649

> <Mol Weight>
194.618

> <Formula>
C9H7ClN2O

> <Click_ID>
CLK048A02 __ __ 

$$$$
