CLK004_G09
 OpenBabel03181417022D

 29 32  0  0  0  0  0  0  0  0999 V2000
    0.6880    0.4372    0.0000 C    0  0  3  0  0  0  0  0  0  0  0  0
    1.4065    0.0342    0.0000 C    0  0  0  0  0  0  0  0  0  0  0  0
    0.6766    1.2620    0.0000 C    0  0  0  0  0  0  0  0  0  0  0  0
   -0.0266    0.0190    0.0000 C    0  0  0  0  0  0  0  0  0  0  0  0
    2.1174    0.4599    0.0000 C    0  0  0  0  0  0  0  0  0  0  0  0
    1.4142   -0.7793    0.0000 C    0  0  0  0  0  0  0  0  0  0  0  0
    1.3799    1.6802    0.0000 C    0  0  0  0  0  0  0  0  0  0  0  0
   -0.0418    1.6649    0.0000 C    0  0  0  0  0  0  0  0  0  0  0  0
   -0.7451    0.4220    0.0000 C    0  0  0  0  0  0  0  0  0  0  0  0
   -0.0152   -0.8059    0.0000 C    0  0  0  0  0  0  0  0  0  0  0  0
    2.1022    1.2811    0.0000 N    0  0  0  0  0  0  0  0  0  0  0  0
    2.8397    0.0532    0.0000 C    0  0  0  0  0  0  0  0  0  0  0  0
    2.1363   -1.1937    0.0000 C    0  0  0  0  0  0  0  0  0  0  0  0
    0.6995   -1.2164    0.0000 O    0  0  0  0  0  0  0  0  0  0  0  0
    1.3723    2.5165    0.0000 C    0  0  0  0  0  0  0  0  0  0  0  0
   -0.0532    2.4861    0.0000 C    0  0  0  0  0  0  0  0  0  0  0  0
   -0.7565    1.2468    0.0000 O    0  0  0  0  0  0  0  0  0  0  0  0
   -1.4597   -0.0076    0.0000 C    0  0  0  0  0  0  0  0  0  0  0  0
   -0.7223   -1.2316    0.0000 C    0  0  0  0  0  0  0  0  0  0  0  0
    2.8473   -0.7754    0.0000 C    0  0  0  0  0  0  0  0  0  0  0  0
    0.6462    2.9043    0.0000 C    0  0  0  0  0  0  0  0  0  0  0  0
   -1.4483   -0.8325    0.0000 C    0  0  0  0  0  0  0  0  0  0  0  0
   -2.1782    0.3992    0.0000 O    0  0  0  0  0  0  0  0  0  0  0  0
   -0.7071   -2.0604    0.0000 Cl   0  0  0  0  0  0  0  0  0  0  0  0
   -2.1554   -1.2544    0.0000 O    0  0  0  0  0  0  0  0  0  0  0  0
   -2.1896    1.2240    0.0000 C    0  0  0  0  0  0  0  0  0  0  0  0
   -2.1402   -2.0869    0.0000 C    0  0  0  0  0  0  0  0  0  0  0  0
   -2.8510   -2.5089    0.0000 C    0  0  0  0  0  0  0  0  0  0  0  0
   -2.8397   -3.3376    0.0000 C    0  0  0  0  0  0  0  0  0  0  0  0
  1  2  1  0  0  0  0
  1  3  1  0  0  0  0
  1  4  1  0  0  0  0
  2  5  2  0  0  0  0
  2  6  1  0  0  0  0
  3  7  2  0  0  0  0
  3  8  1  0  0  0  0
  4  9  1  0  0  0  0
  4 10  2  0  0  0  0
  5 11  1  0  0  0  0
  5 12  1  0  0  0  0
  6 13  1  0  0  0  0
  6 14  2  0  0  0  0
  7 15  1  0  0  0  0
  7 11  1  0  0  0  0
  8 16  1  0  0  0  0
  8 17  2  0  0  0  0
  9 18  2  0  0  0  0
 10 19  1  0  0  0  0
 12 20  1  0  0  0  0
 13 20  1  0  0  0  0
 15 21  1  0  0  0  0
 16 21  1  0  0  0  0
 18 22  1  0  0  0  0
 18 23  1  0  0  0  0
 19 24  1  0  0  0  0
 19 22  2  0  0  0  0
 22 25  1  0  0  0  0
 23 26  1  0  0  0  0
 25 27  1  0  0  0  0
 27 28  1  0  0  0  0
 28 29  3  0  0  0  0
M  END
> <CdId>
308

> <Mol Weight>
411.878

> <Formula>
C23H22ClNO4

> <Click_ID>
CLK004_G09 __ __ 

$$$$
