CLK046B10
 OpenBabel03181417022D

 16 17  0  0  0  0  0  0  0  0999 V2000
   -1.6542    2.3875    0.0000 C   0  0  0  0  0  0  0  0  0  0  0  0
   -2.3708    2.8000    0.0000 C   0  0  0  0  0  0  0  0  0  0  0  0
    1.2042   -2.5625    0.0000 C   0  0  0  0  0  0  0  0  0  0  0  0
    0.4875   -1.3250    0.0000 C   0  0  0  0  0  0  0  0  0  0  0  0
    1.2042   -1.7375    0.0000 N   0  0  0  0  0  0  0  0  0  0  0  0
    0.7917   -3.2792    0.0000 C   0  0  0  0  0  0  0  0  0  0  0  0
    1.6167   -3.2792    0.0000 C   0  0  0  0  0  0  0  0  0  0  0  0
   -0.2250   -0.0875    0.0000 N   0  0  0  0  0  0  0  0  0  0  0  0
   -0.2250   -1.7375    0.0000 O   0  0  0  0  0  0  0  0  0  0  0  0
   -0.9417    1.9750    0.0000 C   0  0  0  0  0  0  0  0  0  0  0  0
    0.4875   -0.5000    0.0000 C   0  0  0  0  0  0  0  0  0  0  0  0
   -0.2250    0.7375    0.0000 C   0  0  0  0  0  0  0  0  0  0  0  0
   -0.9417    1.1500    0.0000 C   0  0  0  0  0  0  0  0  0  0  0  0
    0.4875    1.9750    0.0000 C   0  0  0  0  0  0  0  0  0  0  0  0
   -0.2250    2.3875    0.0000 C   0  0  0  0  0  0  0  0  0  0  0  0
    0.4875    1.1500    0.0000 C   0  0  0  0  0  0  0  0  0  0  0  0
  2  1  3  0  0  0  0
  3  5  1  0  0  0  0
  4 11  1  0  0  0  0
  5  4  1  0  0  0  0
  6  3  1  0  0  0  0
  7  3  1  0  0  0  0
  7  6  1  0  0  0  0
  8 12  1  0  0  0  0
  9  4  2  0  0  0  0
 10  1  1  0  0  0  0
 11  8  1  0  0  0  0
 12 13  2  0  0  0  0
 13 10  1  0  0  0  0
 14 15  1  0  0  0  0
 14 16  2  0  0  0  0
 15 10  2  0  0  0  0
 16 12  1  0  0  0  0
M  END
> <CdId>
3554

> <Mol Weight>
214.2631

> <Formula>
C13H14N2O

> <Click_ID>
CLK046B10 __ __ 

$$$$
