CLK004_F11
 OpenBabel03181417022D

 15 15  0  0  0  0  0  0  0  0999 V2000
   -0.0647    0.0419    0.0000 C   0  0  3  0  0  0  0  0  0  0  0  0
   -0.7697   -0.3734    0.0000 C   0  0  3  0  0  0  0  0  0  0  0  0
    0.6629   -0.3734    0.0000 C   0  0  3  0  0  0  0  0  0  0  0  0
   -0.6363    0.6211    0.0000 O   0  0  0  0  0  0  0  0  0  0  0  0
    0.6972    0.4838    0.0000 C   0  0  0  0  0  0  0  0  0  0  0  0
   -0.7544   -1.1964    0.0000 C   0  0  0  0  0  0  0  0  0  0  0  0
   -1.4859    0.0534    0.0000 C   0  0  0  0  0  0  0  0  0  0  0  0
    0.6629   -1.1964    0.0000 C   0  0  0  0  0  0  0  0  0  0  0  0
    1.3945    0.0534    0.0000 C   0  0  0  0  0  0  0  0  0  0  0  0
   -0.4267    1.3945    0.0000 C   0  0  0  0  0  0  0  0  0  0  0  0
    1.4401    0.9373    0.0000 C   0  0  0  0  0  0  0  0  0  0  0  0
   -0.0419   -1.6040    0.0000 N   0  0  0  0  0  0  0  0  0  0  0  0
    0.3657    1.6155    0.0000 C   0  0  0  0  0  0  0  0  0  0  0  0
   -1.0058    1.9736    0.0000 O   0  0  0  0  0  0  0  0  0  0  0  0
   -0.0419   -2.4308    0.0000 C   0  0  0  0  0  0  0  0  0  0  0  0
  1  2  1  0  0  0  0
  1  3  1  0  0  0  0
  1  4  1  0  0  0  0
  1  5  1  0  0  0  0
  2  6  1  0  0  0  0
  2  7  1  0  0  0  0
  3  8  1  0  0  0  0
  3  9  1  0  0  0  0
  4 10  1  0  0  0  0
  5 11  3  0  0  0  0
  6 12  1  0  0  0  0
  8 12  1  0  0  0  0
 10 13  1  0  0  0  0
 10 14  2  0  0  0  0
 12 15  1  0  0  0  0
M  END
> <CdId>
300

> <Mol Weight>
209.2848

> <Formula>
C12H19NO2

> <Click_ID>
CLK004_F11 __ __ 

$$$$
