CLK014_C07
 OpenBabel03181417022D

 28 31  0  0  0  0  0  0  0  0999 V2000
    0.2166    1.1369    0.0000 N    0  0  0  0  0  0  0  0  0  0  0  0
    0.4665    0.3498    0.0000 C    0  0  0  0  0  0  0  0  0  0  0  0
    0.8788    1.6200    0.0000 C    0  0  0  0  0  0  0  0  0  0  0  0
    1.5492    1.1369    0.0000 C    0  0  0  0  0  0  0  0  0  0  0  0
    2.5030    2.1947    0.0000 C    0  0  0  0  0  0  0  0  0  0  0  0
    1.2911    0.3498    0.0000 N    0  0  0  0  0  0  0  0  0  0  0  0
    2.3780    3.5316    0.0000 N    0  0  0  0  0  0  0  0  0  0  0  0
    2.3364    1.3951    0.0000 C    0  0  0  0  0  0  0  0  0  0  0  0
    1.9615    2.8194    0.0000 C    0  0  0  0  0  0  0  0  0  0  0  0
    3.2651    2.5321    0.0000 C    0  0  0  0  0  0  0  0  0  0  0  0
    3.1859    3.3566    0.0000 C    0  0  0  0  0  0  0  0  0  0  0  0
   -0.5747    1.3951    0.0000 C    0  0  0  0  0  0  0  0  0  0  0  0
    2.5404    4.9476    0.0000 C    0  0  0  0  0  0  0  0  0  0  0  0
    3.0652    5.5765    0.0000 C    0  0  0  0  0  0  0  0  0  0  0  0
   -0.0208   -0.3165    0.0000 O    0  0  0  0  0  0  0  0  0  0  0  0
    0.8788    2.4446    0.0000 O    0  0  0  0  0  0  0  0  0  0  0  0
    2.0490    4.2771    0.0000 C    0  0  0  0  0  0  0  0  0  0  0  0
   -1.1869    0.8454    0.0000 C    0  0  0  0  0  0  0  0  0  0  0  0
   -2.4196   -0.2541    0.0000 C    0  0  0  0  0  0  0  0  0  0  0  0
   -3.0318   -0.8038    0.0000 Br   0  0  0  0  0  0  0  0  0  0  0  0
   -1.9740    1.0953    0.0000 C    0  0  0  0  0  0  0  0  0  0  0  0
   -1.0203    0.0333    0.0000 C    0  0  0  0  0  0  0  0  0  0  0  0
   -2.5820    0.5497    0.0000 C    0  0  0  0  0  0  0  0  0  0  0  0
   -1.6325   -0.5164    0.0000 C    0  0  0  0  0  0  0  0  0  0  0  0
    3.8523    3.8314    0.0000 C    0  0  0  0  0  0  0  0  0  0  0  0
    4.0230    2.1822    0.0000 C    0  0  0  0  0  0  0  0  0  0  0  0
    4.6852    2.6737    0.0000 C    0  0  0  0  0  0  0  0  0  0  0  0
    4.6019    3.4941    0.0000 C    0  0  0  0  0  0  0  0  0  0  0  0
  2  1  1  0  0  0  0
  3  1  1  0  0  0  0
  4  3  1  0  0  0  0
  5  8  1  0  0  0  0
  6  2  1  0  0  0  0
  6  4  1  0  0  0  0
  7  9  1  0  0  0  0
  8  4  2  0  0  0  0
  9  5  2  0  0  0  0
 10  5  1  0  0  0  0
 11 10  1  0  0  0  0
 11  7  1  0  0  0  0
 12  1  1  0  0  0  0
 13 17  1  0  0  0  0
 14 13  3  0  0  0  0
 15  2  2  0  0  0  0
 16  3  2  0  0  0  0
 17  7  1  0  0  0  0
 18 12  1  0  0  0  0
 19 24  1  0  0  0  0
 20 19  1  0  0  0  0
 21 18  2  0  0  0  0
 22 18  1  0  0  0  0
 23 21  1  0  0  0  0
 23 19  2  0  0  0  0
 24 22  2  0  0  0  0
 25 11  2  0  0  0  0
 26 10  2  0  0  0  0
 27 26  1  0  0  0  0
 28 27  2  0  0  0  0
 28 25  1  0  0  0  0
M  END
> <CdId>
1022

> <Mol Weight>
434.285

> <Formula>
C22H16BrN3O2

> <Click_ID>
CLK014_C07 __ __ 

$$$$
