CLK037C05
 OpenBabel03181417022D

 23 25  0  0  0  0  0  0  0  0999 V2000
   -0.2208    0.0542    0.0000 N    0  0  0  0  0  0  0  0  0  0  0  0
   -0.2208    0.8792    0.0000 C    0  0  0  0  0  0  0  0  0  0  0  0
   -0.9333   -0.3583    0.0000 C    0  0  0  0  0  0  0  0  0  0  0  0
   -0.9333    1.2917    0.0000 N    0  0  0  0  0  0  0  0  0  0  0  0
   -1.6500    0.0542    0.0000 C    0  0  0  0  0  0  0  0  0  0  0  0
    0.4958   -0.3583    0.0000 C    0  0  0  0  0  0  0  0  0  0  0  0
   -1.6500    0.8792    0.0000 C    0  0  0  0  0  0  0  0  0  0  0  0
    0.4958   -1.1833    0.0000 C    0  0  0  0  0  0  0  0  0  0  0  0
    1.2083   -1.5958    0.0000 C    0  0  0  0  0  0  0  0  0  0  0  0
    1.9250    1.2917    0.0000 C    0  0  0  0  0  0  0  0  0  0  0  0
    2.6375    1.7042    0.0000 C    0  0  0  0  0  0  0  0  0  0  0  0
   -0.9333   -1.1833    0.0000 O    0  0  0  0  0  0  0  0  0  0  0  0
    0.4958    1.2917    0.0000 S    0  0  0  0  0  0  0  0  0  0  0  0
    1.2083    0.0542    0.0000 C    0  0  0  0  0  0  0  0  0  0  0  0
    1.9250   -1.1833    0.0000 C    0  0  0  0  0  0  0  0  0  0  0  0
    1.9250   -0.3583    0.0000 C    0  0  0  0  0  0  0  0  0  0  0  0
    1.2083   -2.4208    0.0000 Cl   0  0  0  0  0  0  0  0  0  0  0  0
   -2.3625   -0.3583    0.0000 C    0  0  0  0  0  0  0  0  0  0  0  0
    1.2083    0.8792    0.0000 C    0  0  0  0  0  0  0  0  0  0  0  0
   -2.3625    1.2917    0.0000 C    0  0  0  0  0  0  0  0  0  0  0  0
    2.6375   -1.5958    0.0000 C    0  0  0  0  0  0  0  0  0  0  0  0
   -3.0792    0.0542    0.0000 C    0  0  0  0  0  0  0  0  0  0  0  0
   -3.0792    0.8792    0.0000 C    0  0  0  0  0  0  0  0  0  0  0  0
  2  1  1  0  0  0  0
  3  1  1  0  0  0  0
  4  2  2  0  0  0  0
  5  3  1  0  0  0  0
  6  1  1  0  0  0  0
  7  5  2  0  0  0  0
  7  4  1  0  0  0  0
  8  6  2  0  0  0  0
  9  8  1  0  0  0  0
 10 19  1  0  0  0  0
 11 10  3  0  0  0  0
 12  3  2  0  0  0  0
 13  2  1  0  0  0  0
 14  6  1  0  0  0  0
 15  9  2  0  0  0  0
 16 14  2  0  0  0  0
 16 15  1  0  0  0  0
 17  9  1  0  0  0  0
 18  5  1  0  0  0  0
 19 13  1  0  0  0  0
 20  7  1  0  0  0  0
 21 15  1  0  0  0  0
 22 18  2  0  0  0  0
 22 23  1  0  0  0  0
 23 20  2  0  0  0  0
M  END
> <CdId>
2795

> <Mol Weight>
340.827

> <Formula>
C18H13ClN2OS

> <Click_ID>
CLK037C05 __ __ 

$$$$
