CLK049B04
 OpenBabel03181417022D

 18 19  0  0  0  0  0  0  0  0999 V2000
    0.2455   -1.2485    0.0000 C   0  0  0  0  0  0  0  0  0  0  0  0
    1.0279   -1.5024    0.0000 C   0  0  0  0  0  0  0  0  0  0  0  0
    1.0279   -2.3263    0.0000 N   0  0  0  0  0  0  0  0  0  0  0  0
   -0.0083   -0.4619    0.0000 C   0  0  0  0  0  0  0  0  0  0  0  0
   -0.2372   -1.9144    0.0000 S   0  0  0  0  0  0  0  0  0  0  0  0
    0.2455   -2.5801    0.0000 C   0  0  0  0  0  0  0  0  0  0  0  0
    0.5410    0.1498    0.0000 N   0  0  0  0  0  0  0  0  0  0  0  0
   -1.5773    2.0600    0.0000 C   0  0  0  0  0  0  0  0  0  0  0  0
   -2.3846    2.2306    0.0000 C   0  0  0  0  0  0  0  0  0  0  0  0
   -0.8157   -0.2913    0.0000 O   0  0  0  0  0  0  0  0  0  0  0  0
    0.2871    0.9322    0.0000 C   0  0  0  0  0  0  0  0  0  0  0  0
   -0.7741    1.8894    0.0000 C   0  0  0  0  0  0  0  0  0  0  0  0
   -0.5161    1.1028    0.0000 C   0  0  0  0  0  0  0  0  0  0  0  0
    1.6979   -1.0155    0.0000 C   0  0  0  0  0  0  0  0  0  0  0  0
   -0.0083   -3.3626    0.0000 C   0  0  0  0  0  0  0  0  0  0  0  0
    0.5868    2.3304    0.0000 C   0  0  0  0  0  0  0  0  0  0  0  0
    0.8407    1.5439    0.0000 C   0  0  0  0  0  0  0  0  0  0  0  0
   -0.2205    2.5011    0.0000 C   0  0  0  0  0  0  0  0  0  0  0  0
  2  1  2  0  0  0  0
  3  2  1  0  0  0  0
  3  6  2  0  0  0  0
  4  1  1  0  0  0  0
  5  1  1  0  0  0  0
  6  5  1  0  0  0  0
  7  4  1  0  0  0  0
  8 12  1  0  0  0  0
  9  8  3  0  0  0  0
 10  4  2  0  0  0  0
 11  7  1  0  0  0  0
 12 13  1  0  0  0  0
 13 11  2  0  0  0  0
 14  2  1  0  0  0  0
 15  6  1  0  0  0  0
 16 17  2  0  0  0  0
 17 11  1  0  0  0  0
 18 12  2  0  0  0  0
 18 16  1  0  0  0  0
M  END
> <CdId>
3746

> <Mol Weight>
256.323

> <Formula>
C14H12N2OS

> <Click_ID>
CLK049B04 __ __ 

$$$$
