CLK050C03
 OpenBabel03181417022D

 20 22  0  0  0  0  0  0  0  0999 V2000
    1.2472    0.9093    0.0000 C   0  0  0  0  0  0  0  0  0  0  0  0
    0.5673    0.4422    0.0000 C   0  0  0  0  0  0  0  0  0  0  0  0
    1.9647    0.4963    0.0000 C   0  0  0  0  0  0  0  0  0  0  0  0
    1.9647    1.3223    0.0000 C   0  0  0  0  0  0  0  0  0  0  0  0
    0.6299   -0.3796    0.0000 N   0  0  0  0  0  0  0  0  0  0  0  0
   -0.6090   -2.9575    0.0000 C   0  0  0  0  0  0  0  0  0  0  0  0
   -0.5423   -3.7834    0.0000 C   0  0  0  0  0  0  0  0  0  0  0  0
    0.5673    1.3765    0.0000 C   0  0  0  0  0  0  0  0  0  0  0  0
   -0.1794    0.8009    0.0000 O   0  0  0  0  0  0  0  0  0  0  0  0
   -0.0501   -0.8467    0.0000 C   0  0  0  0  0  0  0  0  0  0  0  0
   -0.6715   -2.1357    0.0000 C   0  0  0  0  0  0  0  0  0  0  0  0
    0.0125   -1.6685    0.0000 C   0  0  0  0  0  0  0  0  0  0  0  0
   -1.4766   -0.9553    0.0000 C   0  0  0  0  0  0  0  0  0  0  0  0
   -0.7967   -0.4880    0.0000 C   0  0  0  0  0  0  0  0  0  0  0  0
    0.6299    2.1982    0.0000 C   0  0  0  0  0  0  0  0  0  0  0  0
   -0.1794    1.0178    0.0000 C   0  0  0  0  0  0  0  0  0  0  0  0
   -1.4141   -1.7770    0.0000 C   0  0  0  0  0  0  0  0  0  0  0  0
   -0.8592    1.4849    0.0000 C   0  0  0  0  0  0  0  0  0  0  0  0
   -0.0501    2.6654    0.0000 C   0  0  0  0  0  0  0  0  0  0  0  0
   -0.7967    2.3109    0.0000 C   0  0  0  0  0  0  0  0  0  0  0  0
  2  1  1  0  0  0  0
  3  1  1  0  0  0  0
  4  1  1  0  0  0  0
  4  3  1  0  0  0  0
  5  2  1  0  0  0  0
  6 11  1  0  0  0  0
  7  6  3  0  0  0  0
  8  1  1  0  0  0  0
  9  2  2  0  0  0  0
 10  5  1  0  0  0  0
 11 12  1  0  0  0  0
 12 10  2  0  0  0  0
 13 14  2  0  0  0  0
 14 10  1  0  0  0  0
 15  8  1  0  0  0  0
 16  8  2  0  0  0  0
 17 11  2  0  0  0  0
 17 13  1  0  0  0  0
 18 16  1  0  0  0  0
 19 15  2  0  0  0  0
 20 18  2  0  0  0  0
 20 19  1  0  0  0  0
M  END
> <CdId>
3819

> <Mol Weight>
261.3178

> <Formula>
C18H15NO

> <Click_ID>
CLK050C03 __ __ 

$$$$
