CLK042H10
 OpenBabel03181417022D

 27 28  0  0  0  0  0  0  0  0999 V2000
    0.6583   -0.0417    0.0000 N   0  0  0  0  0  0  0  0  0  0  0  0
   -2.2000   -0.0417    0.0000 S   0  0  0  0  0  0  0  0  0  0  0  0
    1.3750   -0.4542    0.0000 C   0  0  0  0  0  0  0  0  0  0  0  0
    1.3750   -1.2792    0.0000 C   0  0  0  0  0  0  0  0  0  0  0  0
   -0.0542   -0.4542    0.0000 C   0  0  0  0  0  0  0  0  0  0  0  0
    0.6583   -1.6917    0.0000 N   0  0  0  0  0  0  0  0  0  0  0  0
   -0.0542   -1.2792    0.0000 C   0  0  0  0  0  0  0  0  0  0  0  0
   -1.4833   -0.4542    0.0000 C   0  0  0  0  0  0  0  0  0  0  0  0
   -0.7708   -0.0417    0.0000 C   0  0  0  0  0  0  0  0  0  0  0  0
    0.6583    0.7833    0.0000 C   0  0  0  0  0  0  0  0  0  0  0  0
   -2.9125    0.3708    0.0000 N   0  0  0  0  0  0  0  0  0  0  0  0
   -0.7708   -1.6917    0.0000 C   0  0  0  0  0  0  0  0  0  0  0  0
   -1.7875    0.6708    0.0000 O   0  0  0  0  0  0  0  0  0  0  0  0
   -2.6125   -0.7583    0.0000 O   0  0  0  0  0  0  0  0  0  0  0  0
    2.0875    3.2583    0.0000 C   0  0  0  0  0  0  0  0  0  0  0  0
    2.0875    4.0792    0.0000 C   0  0  0  0  0  0  0  0  0  0  0  0
    1.3750    1.1958    0.0000 C   0  0  0  0  0  0  0  0  0  0  0  0
    2.0875   -0.0417    0.0000 O   0  0  0  0  0  0  0  0  0  0  0  0
    2.0875   -1.6917    0.0000 O   0  0  0  0  0  0  0  0  0  0  0  0
   -1.4833   -1.2792    0.0000 C   0  0  0  0  0  0  0  0  0  0  0  0
    2.0875    0.7833    0.0000 O   0  0  0  0  0  0  0  0  0  0  0  0
    1.3750    2.0208    0.0000 N   0  0  0  0  0  0  0  0  0  0  0  0
    0.6583   -2.5167    0.0000 C   0  0  0  0  0  0  0  0  0  0  0  0
    2.0875    2.4333    0.0000 C   0  0  0  0  0  0  0  0  0  0  0  0
   -3.6292   -0.0417    0.0000 C   0  0  0  0  0  0  0  0  0  0  0  0
   -2.9125    1.1958    0.0000 C   0  0  0  0  0  0  0  0  0  0  0  0
   -0.0542   -2.9292    0.0000 C   0  0  0  0  0  0  0  0  0  0  0  0
  2  8  1  0  0  0  0
  3  1  1  0  0  0  0
  4  3  1  0  0  0  0
  4  6  1  0  0  0  0
  5  1  1  0  0  0  0
  6  7  1  0  0  0  0
  7  5  2  0  0  0  0
  8  9  2  0  0  0  0
  9  5  1  0  0  0  0
 10  1  1  0  0  0  0
 11  2  1  0  0  0  0
 12  7  1  0  0  0  0
 13  2  2  0  0  0  0
 14  2  2  0  0  0  0
 15 24  1  0  0  0  0
 16 15  3  0  0  0  0
 17 10  1  0  0  0  0
 18  3  2  0  0  0  0
 19  4  2  0  0  0  0
 20 12  2  0  0  0  0
 20  8  1  0  0  0  0
 21 17  2  0  0  0  0
 22 17  1  0  0  0  0
 23  6  1  0  0  0  0
 24 22  1  0  0  0  0
 25 11  1  0  0  0  0
 26 11  1  0  0  0  0
 27 23  1  0  0  0  0
M  END
> <CdId>
3240

> <Mol Weight>
392.429

> <Formula>
C17H20N4O5S

> <Click_ID>
CLK042H10 __ __ 

$$$$
