CLK028_H10
 OpenBabel03181417022D

 22 24  0  0  0  0  0  0  0  0999 V2000
   -2.0831   -0.6978    0.0000 N   0  0  0  0  0  0  0  0  0  0  0  0
   -0.7803   -0.4160    0.0000 C   0  0  0  0  0  0  0  0  0  0  0  0
   -1.6706   -1.4060    0.0000 C   0  0  0  0  0  0  0  0  0  0  0  0
   -1.5297   -0.0825    0.0000 C   0  0  0  0  0  0  0  0  0  0  0  0
   -0.0653   -0.0035    0.0000 C   0  0  0  0  0  0  0  0  0  0  0  0
   -0.8662   -1.2410    0.0000 S   0  0  0  0  0  0  0  0  0  0  0  0
    0.6497   -0.4160    0.0000 C   0  0  0  0  0  0  0  0  0  0  0  0
    0.6531   -1.2410    0.0000 C   0  0  0  0  0  0  0  0  0  0  0  0
    0.6531    2.0659    0.0000 C   0  0  0  0  0  0  0  0  0  0  0  0
    0.6531    2.8909    0.0000 C   0  0  0  0  0  0  0  0  0  0  0  0
    1.3681    0.0000    0.0000 C   0  0  0  0  0  0  0  0  0  0  0  0
   -2.0041   -2.1621    0.0000 O   0  0  0  0  0  0  0  0  0  0  0  0
   -1.7015    0.7253    0.0000 O   0  0  0  0  0  0  0  0  0  0  0  0
    1.3612   -1.6500    0.0000 C   0  0  0  0  0  0  0  0  0  0  0  0
    2.0796   -0.4090    0.0000 C   0  0  0  0  0  0  0  0  0  0  0  0
    2.0796   -1.2340    0.0000 C   0  0  0  0  0  0  0  0  0  0  0  0
    1.3681    0.8250    0.0000 O   0  0  0  0  0  0  0  0  0  0  0  0
    0.6531    1.2375    0.0000 C   0  0  0  0  0  0  0  0  0  0  0  0
   -0.0653   -1.6535    0.0000 C   0  0  0  0  0  0  0  0  0  0  0  0
    1.3647   -2.4750    0.0000 C   0  0  0  0  0  0  0  0  0  0  0  0
   -0.0653   -2.4784    0.0000 C   0  0  0  0  0  0  0  0  0  0  0  0
    0.6462   -2.8875    0.0000 C   0  0  0  0  0  0  0  0  0  0  0  0
  2  4  1  0  0  0  0
  3  1  1  0  0  0  0
  4  1  1  0  0  0  0
  5  2  2  0  0  0  0
  6  3  1  0  0  0  0
  6  2  1  0  0  0  0
  7  5  1  0  0  0  0
  8  7  1  0  0  0  0
  9 18  1  0  0  0  0
 10  9  3  0  0  0  0
 11  7  2  0  0  0  0
 12  3  2  0  0  0  0
 13  4  2  0  0  0  0
 14  8  1  0  0  0  0
 15 11  1  0  0  0  0
 16 15  2  0  0  0  0
 16 14  1  0  0  0  0
 17 11  1  0  0  0  0
 18 17  1  0  0  0  0
 19  8  2  0  0  0  0
 20 14  2  0  0  0  0
 21 19  1  0  0  0  0
 22 21  2  0  0  0  0
 22 20  1  0  0  0  0
M  END
> <CdId>
2164

> <Mol Weight>
309.339

> <Formula>
C17H11NO3S

> <Click_ID>
CLK028_H10 __ __ 

$$$$
