CLK049G07
 OpenBabel03181417022D

 20 21  0  0  0  0  0  0  0  0999 V2000
    0.5750   -1.5667    0.0000 N   0  0  0  0  0  0  0  0  0  0  0  0
    1.2583   -1.1000    0.0000 C   0  0  0  0  0  0  0  0  0  0  0  0
   -0.1375   -0.3292    0.0000 C   0  0  0  0  0  0  0  0  0  0  0  0
   -2.2833    2.5583    0.0000 C   0  0  0  0  0  0  0  0  0  0  0  0
   -0.1375   -1.1542    0.0000 C   0  0  0  0  0  0  0  0  0  0  0  0
   -2.9958    2.9708    0.0000 C   0  0  0  0  0  0  0  0  0  0  0  0
   -0.8542    0.0833    0.0000 N   0  0  0  0  0  0  0  0  0  0  0  0
    1.1333   -0.2875    0.0000 O   0  0  0  0  0  0  0  0  0  0  0  0
    0.5750    0.0833    0.0000 O   0  0  0  0  0  0  0  0  0  0  0  0
   -0.8542    0.9083    0.0000 C   0  0  0  0  0  0  0  0  0  0  0  0
   -1.5667    2.1458    0.0000 C   0  0  0  0  0  0  0  0  0  0  0  0
   -1.5667    1.3208    0.0000 C   0  0  0  0  0  0  0  0  0  0  0  0
    0.5125   -2.3875    0.0000 C   0  0  0  0  0  0  0  0  0  0  0  0
    2.0458   -1.3458    0.0000 C   0  0  0  0  0  0  0  0  0  0  0  0
   -0.1375    2.1458    0.0000 C   0  0  0  0  0  0  0  0  0  0  0  0
   -0.1375    1.3208    0.0000 C   0  0  0  0  0  0  0  0  0  0  0  0
   -0.8542    2.5583    0.0000 C   0  0  0  0  0  0  0  0  0  0  0  0
    1.1167   -2.9500    0.0000 C   0  0  0  0  0  0  0  0  0  0  0  0
    2.3458   -2.1125    0.0000 C   0  0  0  0  0  0  0  0  0  0  0  0
    1.9333   -2.8292    0.0000 C   0  0  0  0  0  0  0  0  0  0  0  0
  2  1  1  0  0  0  0
  3  5  1  0  0  0  0
  4 11  1  0  0  0  0
  5  1  1  0  0  0  0
  6  4  3  0  0  0  0
  7  3  1  0  0  0  0
  8  2  2  0  0  0  0
  9  3  2  0  0  0  0
 10  7  1  0  0  0  0
 11 12  1  0  0  0  0
 12 10  2  0  0  0  0
 13  1  1  0  0  0  0
 14  2  1  0  0  0  0
 15 16  2  0  0  0  0
 16 10  1  0  0  0  0
 17 11  2  0  0  0  0
 17 15  1  0  0  0  0
 18 13  1  0  0  0  0
 19 14  1  0  0  0  0
 19 20  1  0  0  0  0
 20 18  1  0  0  0  0
M  END
> <CdId>
3775

> <Mol Weight>
270.3263

> <Formula>
C16H18N2O2

> <Click_ID>
CLK049G07 __ __ 

$$$$
