CLK029_F10
 OpenBabel03181417022D

 27 30  0  0  0  0  0  0  0  0999 V2000
   -1.1625    2.3833    0.0000 C   0  0  0  0  0  0  0  0  0  0  0  0
   -1.6458    1.7208    0.0000 N   0  0  0  0  0  0  0  0  0  0  0  0
   -0.3375    2.3750    0.0000 N   0  0  0  0  0  0  0  0  0  0  0  0
   -1.6458    3.0500    0.0000 S   0  0  0  0  0  0  0  0  0  0  0  0
   -2.4333    1.9708    0.0000 C   0  0  0  0  0  0  0  0  0  0  0  0
   -2.4333    2.7958    0.0000 C   0  0  0  0  0  0  0  0  0  0  0  0
    0.0750    3.0875    0.0000 C   0  0  0  0  0  0  0  0  0  0  0  0
    1.3167    3.8083    0.0000 C   0  0  0  0  0  0  0  0  0  0  0  0
   -1.9458    0.3208    0.0000 C   0  0  0  0  0  0  0  0  0  0  0  0
   -2.4958   -0.2917    0.0000 C   0  0  0  0  0  0  0  0  0  0  0  0
    0.9000    3.0875    0.0000 C   0  0  0  0  0  0  0  0  0  0  0  0
    0.8917    4.5125    0.0000 C   0  0  0  0  0  0  0  0  0  0  0  0
   -0.3375    3.8000    0.0000 O   0  0  0  0  0  0  0  0  0  0  0  0
   -1.3958    0.9333    0.0000 C   0  0  0  0  0  0  0  0  0  0  0  0
    1.3042    5.2292    0.0000 C   0  0  0  0  0  0  0  0  0  0  0  0
   -3.1458    1.5583    0.0000 C   0  0  0  0  0  0  0  0  0  0  0  0
    2.1417    3.8083    0.0000 C   0  0  0  0  0  0  0  0  0  0  0  0
   -3.1458    3.2083    0.0000 C   0  0  0  0  0  0  0  0  0  0  0  0
    2.5417    4.5250    0.0000 C   0  0  0  0  0  0  0  0  0  0  0  0
    0.0667    4.5042    0.0000 C   0  0  0  0  0  0  0  0  0  0  0  0
    2.1292    5.2417    0.0000 C   0  0  0  0  0  0  0  0  0  0  0  0
    0.8875    5.9417    0.0000 C   0  0  0  0  0  0  0  0  0  0  0  0
   -3.8583    1.9708    0.0000 C   0  0  0  0  0  0  0  0  0  0  0  0
   -3.8583    2.7958    0.0000 C   0  0  0  0  0  0  0  0  0  0  0  0
   -0.3458    5.2125    0.0000 C   0  0  0  0  0  0  0  0  0  0  0  0
    0.0625    5.9375    0.0000 C   0  0  0  0  0  0  0  0  0  0  0  0
   -4.5833    3.2125    0.0000 H   0  0  0  0  0  0  0  0  0  0  0  0
  2  1  1  0  0  0  0
  3  1  2  0  0  0  0
  4  1  1  0  0  0  0
  5  2  1  0  0  0  0
  6  4  1  0  0  0  0
  6  5  2  0  0  0  0
  7  3  1  0  0  0  0
  8 11  1  0  0  0  0
  9 14  1  0  0  0  0
 10  9  3  0  0  0  0
 11  7  1  0  0  0  0
 12  8  1  0  0  0  0
 13  7  2  0  0  0  0
 14  2  1  0  0  0  0
 15 12  1  0  0  0  0
 15 21  1  0  0  0  0
 16  5  1  0  0  0  0
 17  8  2  0  0  0  0
 18  6  1  0  0  0  0
 19 17  1  0  0  0  0
 20 12  2  0  0  0  0
 21 19  2  0  0  0  0
 22 15  2  0  0  0  0
 23 16  2  0  0  0  0
 24 18  2  0  0  0  0
 24 23  1  0  0  0  0
 25 20  1  0  0  0  0
 26 25  2  0  0  0  0
 26 22  1  0  0  0  0
 27 24  1  0  0  0  0
M  END
> <CdId>
2224

> <Mol Weight>
356.44

> <Formula>
C22H16N2OS

> <Click_ID>
CLK029_F10 __ __ 

$$$$
