CLK034_G03
 OpenBabel03181417022D

 26 29  0  0  0  0  0  0  0  0999 V2000
   -4.5932    2.5568    0.0000 C   0  0  0  0  0  0  0  0  0  0  0  0
   -3.8603    2.9816    0.0000 N   0  0  0  0  0  0  0  0  0  0  0  0
   -4.6806    1.7323    0.0000 N   0  0  0  0  0  0  0  0  0  0  0  0
   -3.1565    4.2101    0.0000 C   0  0  0  0  0  0  0  0  0  0  0  0
   -3.0690    5.0388    0.0000 N   0  0  0  0  0  0  0  0  0  0  0  0
   -5.3177    2.8941    0.0000 S   0  0  0  0  0  0  0  0  0  0  0  0
   -5.4844    1.5824    0.0000 C   0  0  0  0  0  0  0  0  0  0  0  0
   -3.8686    3.7978    0.0000 C   0  0  0  0  0  0  0  0  0  0  0  0
   -2.4194    3.8936    0.0000 S   0  0  0  0  0  0  0  0  0  0  0  0
   -5.8924    2.2987    0.0000 C   0  0  0  0  0  0  0  0  0  0  0  0
   -2.2487    5.2012    0.0000 C   0  0  0  0  0  0  0  0  0  0  0  0
   -1.8572    4.4641    0.0000 C   0  0  0  0  0  0  0  0  0  0  0  0
   -4.2559    0.3581    0.0000 C   0  0  0  0  0  0  0  0  0  0  0  0
   -4.4433   -0.4539    0.0000 C   0  0  0  0  0  0  0  0  0  0  0  0
   -5.9174    0.8828    0.0000 C   0  0  0  0  0  0  0  0  0  0  0  0
   -4.5807    4.2143    0.0000 O   0  0  0  0  0  0  0  0  0  0  0  0
   -4.0685    1.1618    0.0000 C   0  0  0  0  0  0  0  0  0  0  0  0
   -6.7004    2.3195    0.0000 C   0  0  0  0  0  0  0  0  0  0  0  0
   -5.5176    0.1457    0.0000 O   0  0  0  0  0  0  0  0  0  0  0  0
   -7.1376    1.6199    0.0000 C   0  0  0  0  0  0  0  0  0  0  0  0
   -1.8322    5.9133    0.0000 C   0  0  0  0  0  0  0  0  0  0  0  0
   -1.0202    4.4641    0.0000 C   0  0  0  0  0  0  0  0  0  0  0  0
   -6.7253    0.8870    0.0000 C   0  0  0  0  0  0  0  0  0  0  0  0
   -5.9549   -0.5539    0.0000 C   0  0  0  0  0  0  0  0  0  0  0  0
   -0.9994    5.9008    0.0000 C   0  0  0  0  0  0  0  0  0  0  0  0
   -0.5955    5.1637    0.0000 C   0  0  0  0  0  0  0  0  0  0  0  0
  2  1  2  0  0  0  0
  3  1  1  0  0  0  0
  4  8  1  0  0  0  0
  5  4  2  0  0  0  0
  6  1  1  0  0  0  0
  7  3  1  0  0  0  0
  8  2  1  0  0  0  0
  9  4  1  0  0  0  0
 10  6  1  0  0  0  0
 10  7  2  0  0  0  0
 11  5  1  0  0  0  0
 11 12  2  0  0  0  0
 12  9  1  0  0  0  0
 13 17  1  0  0  0  0
 14 13  3  0  0  0  0
 15  7  1  0  0  0  0
 16  8  2  0  0  0  0
 17  3  1  0  0  0  0
 18 10  1  0  0  0  0
 19 15  1  0  0  0  0
 20 18  2  0  0  0  0
 21 11  1  0  0  0  0
 22 12  1  0  0  0  0
 23 15  2  0  0  0  0
 23 20  1  0  0  0  0
 24 19  1  0  0  0  0
 25 21  2  0  0  0  0
 25 26  1  0  0  0  0
 26 22  2  0  0  0  0
M  END
> <CdId>
2627

> <Mol Weight>
379.455

> <Formula>
C19H13N3O2S2

> <Click_ID>
CLK034_G03 __ __ 

$$$$
