CLK002_G03
 OpenBabel03181417022D

 22 23  0  0  0  0  0  0  0  0999 V2000
   -1.0951   -1.1704    0.0000 C   0  0  0  0  0  0  0  0  0  0  0  0
   -0.3901   -0.7597    0.0000 N   0  0  0  0  0  0  0  0  0  0  0  0
   -1.8172   -0.7597    0.0000 C   0  0  0  0  0  0  0  0  0  0  0  0
   -1.0951   -2.0020    0.0000 C   0  0  0  0  0  0  0  0  0  0  0  0
   -0.3901    0.0616    0.0000 S   0  0  0  0  0  0  0  0  0  0  0  0
   -2.5223   -1.1704    0.0000 C   0  0  0  0  0  0  0  0  0  0  0  0
   -1.8172   -2.4093    0.0000 C   0  0  0  0  0  0  0  0  0  0  0  0
    0.3183    0.4792    0.0000 C   0  0  0  0  0  0  0  0  0  0  0  0
    0.4038   -0.1472    0.0000 O   0  0  0  0  0  0  0  0  0  0  0  0
   -1.1088    0.4723    0.0000 O   0  0  0  0  0  0  0  0  0  0  0  0
   -2.5223   -2.0020    0.0000 C   0  0  0  0  0  0  0  0  0  0  0  0
   -3.2307   -0.7701    0.0000 C   0  0  0  0  0  0  0  0  0  0  0  0
    0.3148    1.3004    0.0000 C   0  0  0  0  0  0  0  0  0  0  0  0
    1.0336    0.0616    0.0000 C   0  0  0  0  0  0  0  0  0  0  0  0
   -3.2307    0.0582    0.0000 C   0  0  0  0  0  0  0  0  0  0  0  0
    1.0199    1.7078    0.0000 C   0  0  0  0  0  0  0  0  0  0  0  0
    1.7454    0.4792    0.0000 C   0  0  0  0  0  0  0  0  0  0  0  0
    1.7385    1.3039    0.0000 C   0  0  0  0  0  0  0  0  0  0  0  0
    2.4504    1.7214    0.0000 N   0  0  0  0  0  0  0  0  0  0  0  0
    3.1588    1.3108    0.0000 C   0  0  0  0  0  0  0  0  0  0  0  0
    3.8740    1.7351    0.0000 C   0  0  0  0  0  0  0  0  0  0  0  0
    3.1657    0.4929    0.0000 O   0  0  0  0  0  0  0  0  0  0  0  0
  1  2  1  0  0  0  0
  1  3  2  0  0  0  0
  1  4  1  0  0  0  0
  2  5  1  0  0  0  0
  3  6  1  0  0  0  0
  4  7  2  0  0  0  0
  5  8  1  0  0  0  0
  5  9  2  0  0  0  0
  5 10  2  0  0  0  0
  6 11  2  0  0  0  0
  6 12  1  0  0  0  0
  7 11  1  0  0  0  0
  8 13  1  0  0  0  0
  8 14  2  0  0  0  0
 12 15  3  0  0  0  0
 13 16  2  0  0  0  0
 14 17  1  0  0  0  0
 16 18  1  0  0  0  0
 17 18  2  0  0  0  0
 18 19  1  0  0  0  0
 19 20  1  0  0  0  0
 20 21  1  0  0  0  0
 20 22  2  0  0  0  0
M  END
> <CdId>
142

> <Mol Weight>
314.359

> <Formula>
C16H14N2O3S

> <Click_ID>
CLK002_G03 __ __ 

$$$$
