CLK036_B03
 OpenBabel03181417022D

 16 17  0  0  0  0  0  0  0  0999 V2000
   -3.2679    7.3196    0.0000 N   0  0  0  0  0  0  0  0  0  0  0  0
   -2.5575    6.9071    0.0000 C   0  0  0  0  0  0  0  0  0  0  0  0
   -3.9829    6.9071    0.0000 C   0  0  0  0  0  0  0  0  0  0  0  0
   -2.5575    6.0821    0.0000 N   0  0  0  0  0  0  0  0  0  0  0  0
   -3.9829    6.0821    0.0000 N   0  0  0  0  0  0  0  0  0  0  0  0
   -3.2679    5.6696    0.0000 C   0  0  0  0  0  0  0  0  0  0  0  0
   -3.2679    8.1446    0.0000 C   0  0  0  0  0  0  0  0  0  0  0  0
   -1.8425    7.3196    0.0000 C   0  0  0  0  0  0  0  0  0  0  0  0
   -2.5575    8.5571    0.0000 C   0  0  0  0  0  0  0  0  0  0  0  0
   -2.5575    3.6116    0.0000 C   0  0  0  0  0  0  0  0  0  0  0  0
   -1.8425    8.1446    0.0000 C   0  0  0  0  0  0  0  0  0  0  0  0
   -2.5575    2.7866    0.0000 C   0  0  0  0  0  0  0  0  0  0  0  0
   -4.7116    7.3196    0.0000 O   0  0  0  0  0  0  0  0  0  0  0  0
   -3.2679    4.8446    0.0000 S   0  0  0  0  0  0  0  0  0  0  0  0
   -2.5529    4.4321    0.0000 C   0  0  0  0  0  0  0  0  0  0  0  0
   -1.1229    8.5571    0.0000 C   0  0  0  0  0  0  0  0  0  0  0  0
  2  1  1  0  0  0  0
  3  1  1  0  0  0  0
  4  2  2  0  0  0  0
  4  6  1  0  0  0  0
  5  3  1  0  0  0  0
  6  5  2  0  0  0  0
  7  1  1  0  0  0  0
  8  2  1  0  0  0  0
  9  7  2  0  0  0  0
 10 15  1  0  0  0  0
 11  9  1  0  0  0  0
 11  8  2  0  0  0  0
 12 10  3  0  0  0  0
 13  3  2  0  0  0  0
 14  6  1  0  0  0  0
 15 14  1  0  0  0  0
 16 11  1  0  0  0  0
M  END
> <CdId>
2733

> <Mol Weight>
231.274

> <Formula>
C11H9N3OS

> <Click_ID>
CLK036_B03 __ __ 

$$$$
