CLK028_F02
 OpenBabel03181417022D

 27 28  0  0  0  0  0  0  0  0999 V2000
   -0.3609    0.6187    0.0000 C    0  0  0  0  0  0  0  0  0  0  0  0
   -1.0828    1.0381    0.0000 C    0  0  0  0  0  0  0  0  0  0  0  0
   -1.7944    0.6187    0.0000 N    0  0  0  0  0  0  0  0  0  0  0  0
    0.3472    1.0381    0.0000 C    0  0  0  0  0  0  0  0  0  0  0  0
   -2.5059    1.0381    0.0000 C    0  0  0  0  0  0  0  0  0  0  0  0
   -3.2243    0.6256    0.0000 C    0  0  0  0  0  0  0  0  0  0  0  0
   -0.3609   -0.2062    0.0000 C    0  0  0  0  0  0  0  0  0  0  0  0
   -0.3747   -1.0278    0.0000 N    0  0  0  0  0  0  0  0  0  0  0  0
    3.9291   -1.8597    0.0000 C    0  0  0  0  0  0  0  0  0  0  0  0
    4.6441   -2.2687    0.0000 C    0  0  0  0  0  0  0  0  0  0  0  0
    1.7806   -0.6187    0.0000 C    0  0  0  0  0  0  0  0  0  0  0  0
    1.0657    0.6187    0.0000 C    0  0  0  0  0  0  0  0  0  0  0  0
   -1.0828    1.8597    0.0000 O    0  0  0  0  0  0  0  0  0  0  0  0
   -3.9325    1.0381    0.0000 C    0  0  0  0  0  0  0  0  0  0  0  0
    1.0725   -0.2062    0.0000 C    0  0  0  0  0  0  0  0  0  0  0  0
    2.4991   -0.2062    0.0000 C    0  0  0  0  0  0  0  0  0  0  0  0
    2.4991    0.6187    0.0000 C    0  0  0  0  0  0  0  0  0  0  0  0
    1.7806    1.0381    0.0000 C    0  0  0  0  0  0  0  0  0  0  0  0
   -4.6475    0.6256    0.0000 Cl   0  0  0  0  0  0  0  0  0  0  0  0
    1.7944   -1.4403    0.0000 O    0  0  0  0  0  0  0  0  0  0  0  0
    3.2072   -0.6187    0.0000 O    0  0  0  0  0  0  0  0  0  0  0  0
    3.2072   -1.4403    0.0000 C    0  0  0  0  0  0  0  0  0  0  0  0
   -2.5059    1.8631    0.0000 C    0  0  0  0  0  0  0  0  0  0  0  0
   -3.2243   -0.1959    0.0000 C    0  0  0  0  0  0  0  0  0  0  0  0
   -3.2243    2.2722    0.0000 C    0  0  0  0  0  0  0  0  0  0  0  0
   -3.9325    1.8631    0.0000 C    0  0  0  0  0  0  0  0  0  0  0  0
    1.0828   -1.8597    0.0000 C    0  0  0  0  0  0  0  0  0  0  0  0
  2  1  1  0  0  0  0
  3  2  1  0  0  0  0
  4  1  2  0  0  0  0
  5  3  1  0  0  0  0
  6  5  1  0  0  0  0
  7  1  1  0  0  0  0
  8  7  3  0  0  0  0
  9 22  1  0  0  0  0
 10  9  3  0  0  0  0
 11 15  2  0  0  0  0
 12  4  1  0  0  0  0
 13  2  2  0  0  0  0
 14  6  2  0  0  0  0
 15 12  1  0  0  0  0
 16 17  2  0  0  0  0
 16 11  1  0  0  0  0
 17 18  1  0  0  0  0
 18 12  2  0  0  0  0
 19 14  1  0  0  0  0
 20 11  1  0  0  0  0
 21 16  1  0  0  0  0
 22 21  1  0  0  0  0
 23  5  2  0  0  0  0
 24  6  1  0  0  0  0
 25 23  1  0  0  0  0
 26 25  2  0  0  0  0
 26 14  1  0  0  0  0
 27 20  1  0  0  0  0
M  END
> <CdId>
2136

> <Mol Weight>
380.824

> <Formula>
C21H17ClN2O3

> <Click_ID>
CLK028_F02 __ __ 

$$$$
