CLK006_F10
 OpenBabel03181417022D

 25 26  0  0  0  0  0  0  0  0999 V2000
   -1.2845   -1.5822    0.0000 N   0  0  0  0  0  0  0  0  0  0  0  0
   -0.6197   -1.1010    0.0000 C   0  0  0  0  0  0  0  0  0  0  0  0
   -1.0352   -2.3716    0.0000 C   0  0  0  0  0  0  0  0  0  0  0  0
   -2.0738   -1.3294    0.0000 C   0  0  0  0  0  0  0  0  0  0  0  0
    0.0485   -1.5822    0.0000 C   0  0  0  0  0  0  0  0  0  0  0  0
   -0.6197   -0.2735    0.0000 O   0  0  0  0  0  0  0  0  0  0  0  0
   -0.2077   -2.3716    0.0000 N   0  0  0  0  0  0  0  0  0  0  0  0
   -1.5199   -3.0467    0.0000 O   0  0  0  0  0  0  0  0  0  0  0  0
   -2.2469   -0.5228    0.0000 C   0  0  0  0  0  0  0  0  0  0  0  0
    0.8379   -1.3294    0.0000 C   0  0  0  0  0  0  0  0  0  0  0  0
   -1.6342    0.0277    0.0000 O   0  0  0  0  0  0  0  0  0  0  0  0
   -3.0398   -0.2632    0.0000 O   0  0  0  0  0  0  0  0  0  0  0  0
    1.0110   -0.5228    0.0000 C   0  0  0  0  0  0  0  0  0  0  0  0
   -1.8107    0.8413    0.0000 C   0  0  0  0  0  0  0  0  0  0  0  0
    0.3947    0.0277    0.0000 C   0  0  0  0  0  0  0  0  0  0  0  0
    1.7795   -0.2735    0.0000 C   0  0  0  0  0  0  0  0  0  0  0  0
    0.5644    0.8413    0.0000 C   0  0  0  0  0  0  0  0  0  0  0  0
    1.9561    0.5401    0.0000 C   0  0  0  0  0  0  0  0  0  0  0  0
    1.3502    1.0733    0.0000 C   0  0  0  0  0  0  0  0  0  0  0  0
   -0.0311    1.3745    0.0000 O   0  0  0  0  0  0  0  0  0  0  0  0
    1.5302    1.8869    0.0000 O   0  0  0  0  0  0  0  0  0  0  0  0
   -0.8171    1.1321    0.0000 C   0  0  0  0  0  0  0  0  0  0  0  0
    2.3059    2.1362    0.0000 C   0  0  0  0  0  0  0  0  0  0  0  0
    2.4928    2.9428    0.0000 C   0  0  0  0  0  0  0  0  0  0  0  0
    2.6728    3.7460    0.0000 C   0  0  0  0  0  0  0  0  0  0  0  0
  1  2  1  0  0  0  0
  1  3  1  0  0  0  0
  1  4  1  0  0  0  0
  2  5  1  0  0  0  0
  2  6  2  0  0  0  0
  3  7  1  0  0  0  0
  3  8  2  0  0  0  0
  4  9  1  0  0  0  0
  5 10  2  0  0  0  0
  5  7  1  0  0  0  0
  9 11  1  0  0  0  0
  9 12  2  0  0  0  0
 10 13  1  0  0  0  0
 11 14  1  0  0  0  0
 13 15  2  0  0  0  0
 13 16  1  0  0  0  0
 15 17  1  0  0  0  0
 16 18  2  0  0  0  0
 17 19  2  0  0  0  0
 17 20  1  0  0  0  0
 18 19  1  0  0  0  0
 19 21  1  0  0  0  0
 20 22  1  0  0  0  0
 21 23  1  0  0  0  0
 23 24  1  0  0  0  0
 24 25  3  0  0  0  0
M  END
> <CdId>
459

> <Mol Weight>
344.3187

> <Formula>
C17H16N2O6

> <Click_ID>
CLK006_F10 __ __ 

$$$$
