CLK007_F03
 OpenBabel03181417022D

 34 38  0  0  0  0  0  0  0  0999 V2000
   -0.1518    0.7385    0.0000 C    0  0  3  0  0  0  0  0  0  0  0  0
   -0.8731    0.3209    0.0000 C    0  0  0  0  0  0  0  0  0  0  0  0
    0.6419    0.9490    0.0000 C    0  0  0  0  0  0  0  0  0  0  0  0
    0.5521    0.3209    0.0000 C    0  0  0  0  0  0  0  0  0  0  0  0
   -0.6108    1.4252    0.0000 C    0  0  0  0  0  0  0  0  0  0  0  0
   -0.8731   -0.5038    0.0000 C    0  0  0  0  0  0  0  0  0  0  0  0
   -1.5874    0.7385    0.0000 C    0  0  0  0  0  0  0  0  0  0  0  0
    0.6764    1.7773    0.0000 C    0  0  0  0  0  0  0  0  0  0  0  0
    1.3286    0.5073    0.0000 C    0  0  0  0  0  0  0  0  0  0  0  0
    0.5521   -0.5038    0.0000 C    0  0  0  0  0  0  0  0  0  0  0  0
    1.2665   -0.0932    0.0000 C    0  0  0  0  0  0  0  0  0  0  0  0
   -0.0898    2.0740    0.0000 N    0  0  0  0  0  0  0  0  0  0  0  0
   -1.1975    2.0223    0.0000 O    0  0  0  0  0  0  0  0  0  0  0  0
   -0.1587   -0.9179    0.0000 N    0  0  0  0  0  0  0  0  0  0  0  0
   -1.5874   -0.9145    0.0000 C    0  0  0  0  0  0  0  0  0  0  0  0
   -2.2915    0.3209    0.0000 C    0  0  0  0  0  0  0  0  0  0  0  0
   -2.1741    1.3251    0.0000 O    0  0  0  0  0  0  0  0  0  0  0  0
    1.4149    2.1603    0.0000 C    0  0  0  0  0  0  0  0  0  0  0  0
    2.0671    0.8835    0.0000 C    0  0  0  0  0  0  0  0  0  0  0  0
    1.2665   -0.9248    0.0000 N    0  0  0  0  0  0  0  0  0  0  0  0
    1.9774   -0.5038    0.0000 N    0  0  0  0  0  0  0  0  0  0  0  0
   -0.3105    2.8746    0.0000 C    0  0  0  0  0  0  0  0  0  0  0  0
   -0.1725   -1.7392    0.0000 C    0  0  0  0  0  0  0  0  0  0  0  0
   -2.2915   -0.5038    0.0000 C    0  0  0  0  0  0  0  0  0  0  0  0
    2.1050    1.7082    0.0000 C    0  0  0  0  0  0  0  0  0  0  0  0
    0.2726    3.4509    0.0000 C    0  0  0  0  0  0  0  0  0  0  0  0
    0.5418   -2.1569    0.0000 C    0  0  0  0  0  0  0  0  0  0  0  0
   -0.8869   -2.1430    0.0000 C    0  0  0  0  0  0  0  0  0  0  0  0
    0.0517    4.2481    0.0000 C    0  0  0  0  0  0  0  0  0  0  0  0
    0.5418   -2.9782    0.0000 C    0  0  0  0  0  0  0  0  0  0  0  0
   -0.8904   -2.9678    0.0000 C    0  0  0  0  0  0  0  0  0  0  0  0
   -0.1760   -3.3888    0.0000 C    0  0  0  0  0  0  0  0  0  0  0  0
    1.2527   -3.3888    0.0000 Cl   0  0  0  0  0  0  0  0  0  0  0  0
   -0.1863   -4.2170    0.0000 C    0  0  0  0  0  0  0  0  0  0  0  0
  1  2  1  0  0  0  0
  1  3  1  0  0  0  0
  1  4  1  0  0  0  0
  1  5  1  0  0  0  0
  2  6  2  0  0  0  0
  2  7  1  0  0  0  0
  3  8  2  0  0  0  0
  3  9  1  0  0  0  0
  4 10  2  0  0  0  0
  4 11  1  0  0  0  0
  5 12  1  0  0  0  0
  5 13  2  0  0  0  0
  6 14  1  0  0  0  0
  6 15  1  0  0  0  0
  7 16  1  0  0  0  0
  7 17  2  0  0  0  0
  8 18  1  0  0  0  0
  8 12  1  0  0  0  0
  9 19  2  0  0  0  0
 10 20  1  0  0  0  0
 10 14  1  0  0  0  0
 11 21  3  0  0  0  0
 12 22  1  0  0  0  0
 14 23  1  0  0  0  0
 15 24  1  0  0  0  0
 16 24  1  0  0  0  0
 18 25  2  0  0  0  0
 19 25  1  0  0  0  0
 22 26  1  0  0  0  0
 23 27  1  0  0  0  0
 23 28  2  0  0  0  0
 26 29  3  0  0  0  0
 27 30  2  0  0  0  0
 28 31  1  0  0  0  0
 30 32  1  0  0  0  0
 30 33  1  0  0  0  0
 31 32  2  0  0  0  0
 32 34  1  0  0  0  0
M  END
> <CdId>
532

> <Mol Weight>
468.934

> <Formula>
C27H21ClN4O2

> <Click_ID>
CLK007_F03 __ __ 

$$$$
