CLK050C07
 OpenBabel03181417022D

 22 23  0  0  0  0  0  0  0  0999 V2000
    1.1333    0.4333    0.0000 C   0  0  0  0  0  0  0  0  0  0  0  0
   -0.2958   -0.3917    0.0000 C   0  0  0  0  0  0  0  0  0  0  0  0
   -0.2958    0.4333    0.0000 C   0  0  3  0  0  0  0  0  0  0  0  0
    0.4208    0.8458    0.0000 N   0  0  0  0  0  0  0  0  0  0  0  0
    3.2792    0.8458    0.0000 C   0  0  0  0  0  0  0  0  0  0  0  0
   -1.0083   -0.8042    0.0000 C   0  0  0  0  0  0  0  0  0  0  0  0
    3.9917    1.2583    0.0000 C   0  0  0  0  0  0  0  0  0  0  0  0
   -1.0083   -1.6292    0.0000 C   0  0  0  0  0  0  0  0  0  0  0  0
    1.1333   -0.3917    0.0000 O   0  0  0  0  0  0  0  0  0  0  0  0
   -0.2958   -2.0417    0.0000 C   0  0  0  0  0  0  0  0  0  0  0  0
    0.4208   -0.8042    0.0000 C   0  0  0  0  0  0  0  0  0  0  0  0
   -1.0083    0.8458    0.0000 C   0  0  0  0  0  0  0  0  0  0  0  0
    0.4208   -1.6292    0.0000 C   0  0  0  0  0  0  0  0  0  0  0  0
    1.8500    0.8458    0.0000 N   0  0  0  0  0  0  0  0  0  0  0  0
    2.5625    0.4333    0.0000 C   0  0  0  0  0  0  0  0  0  0  0  0
   -1.7250   -2.0417    0.0000 C   0  0  0  0  0  0  0  0  0  0  0  0
   -0.2958   -2.8667    0.0000 C   0  0  0  0  0  0  0  0  0  0  0  0
   -1.0083    1.6708    0.0000 C   0  0  0  0  0  0  0  0  0  0  0  0
   -1.7250    0.4333    0.0000 C   0  0  0  0  0  0  0  0  0  0  0  0
   -2.4375    0.8458    0.0000 C   0  0  0  0  0  0  0  0  0  0  0  0
   -1.7250    2.0833    0.0000 C   0  0  0  0  0  0  0  0  0  0  0  0
   -2.4375    1.6708    0.0000 C   0  0  0  0  0  0  0  0  0  0  0  0
  2  3  1  0  0  0  0
  3  4  1  0  0  0  0
  4  1  1  0  0  0  0
  5 15  1  0  0  0  0
  6  2  2  0  0  0  0
  7  5  3  0  0  0  0
  8  6  1  0  0  0  0
  9  1  2  0  0  0  0
 10  8  2  0  0  0  0
 11  2  1  0  0  0  0
 12  3  1  0  0  0  0
 13 11  2  0  0  0  0
 13 10  1  0  0  0  0
 14  1  1  0  0  0  0
 15 14  1  0  0  0  0
 16  8  1  0  0  0  0
 17 10  1  0  0  0  0
 18 12  1  0  0  0  0
 19 12  2  0  0  0  0
 20 19  1  0  0  0  0
 21 18  2  0  0  0  0
 22 20  2  0  0  0  0
 22 21  1  0  0  0  0
M  END
> <CdId>
3851

> <Mol Weight>
292.3749

> <Formula>
C19H20N2O

> <Click_ID>
CLK050C07 __ __ 

$$$$
