CLK003_C07
 OpenBabel03181417022D

 33 36  0  0  0  0  0  0  0  0999 V2000
    1.0494   -0.3935    0.0000 C    0  0  0  0  0  0  0  0  0  0  0  0
    0.6385    0.3175    0.0000 C    0  0  3  0  0  0  0  0  0  0  0  0
    1.8778   -0.3935    0.0000 C    0  0  0  0  0  0  0  0  0  0  0  0
    0.8008   -1.1840    0.0000 C    0  0  0  0  0  0  0  0  0  0  0  0
   -0.1864    0.3175    0.0000 C    0  0  0  0  0  0  0  0  0  0  0  0
    1.0494    1.0320    0.0000 C    0  0  0  0  0  0  0  0  0  0  0  0
    2.1401   -1.1771    0.0000 C    0  0  0  0  0  0  0  0  0  0  0  0
    2.2885    0.3175    0.0000 N    0  0  0  0  0  0  0  0  0  0  0  0
    1.4705   -1.6569    0.0000 C    0  0  0  0  0  0  0  0  0  0  0  0
    0.0207   -1.4463    0.0000 O    0  0  0  0  0  0  0  0  0  0  0  0
   -0.6040   -0.3935    0.0000 C    0  0  0  0  0  0  0  0  0  0  0  0
   -0.6006    1.0320    0.0000 C    0  0  0  0  0  0  0  0  0  0  0  0
    1.8778    1.0320    0.0000 C    0  0  0  0  0  0  0  0  0  0  0  0
    0.6455    1.7570    0.0000 C    0  0  0  0  0  0  0  0  0  0  0  0
    2.8995   -1.5084    0.0000 C    0  0  0  0  0  0  0  0  0  0  0  0
    1.5602   -2.4853    0.0000 C    0  0  0  0  0  0  0  0  0  0  0  0
   -1.4324   -0.3901    0.0000 C    0  0  0  0  0  0  0  0  0  0  0  0
   -1.4255    1.0355    0.0000 C    0  0  0  0  0  0  0  0  0  0  0  0
    2.2885    1.7466    0.0000 C    0  0  0  0  0  0  0  0  0  0  0  0
    1.0597    2.4611    0.0000 O    0  0  0  0  0  0  0  0  0  0  0  0
   -0.1795    1.7570    0.0000 O    0  0  0  0  0  0  0  0  0  0  0  0
    2.9789   -2.3334    0.0000 C    0  0  0  0  0  0  0  0  0  0  0  0
    2.3161   -2.8166    0.0000 C    0  0  0  0  0  0  0  0  0  0  0  0
   -1.8398    0.3313    0.0000 C    0  0  0  0  0  0  0  0  0  0  0  0
   -1.8433   -1.0942    0.0000 O    0  0  0  0  0  0  0  0  0  0  0  0
   -1.8259    1.7570    0.0000 Br   0  0  0  0  0  0  0  0  0  0  0  0
    0.6490    3.1860    0.0000 C    0  0  0  0  0  0  0  0  0  0  0  0
   -2.6648    0.3313    0.0000 O    0  0  0  0  0  0  0  0  0  0  0  0
   -1.4394   -1.8087    0.0000 C    0  0  0  0  0  0  0  0  0  0  0  0
   -3.0790    1.0563    0.0000 C    0  0  0  0  0  0  0  0  0  0  0  0
   -1.8536   -2.5197    0.0000 C    0  0  0  0  0  0  0  0  0  0  0  0
   -3.9039    1.0597    0.0000 C    0  0  0  0  0  0  0  0  0  0  0  0
   -4.7289    1.0701    0.0000 C    0  0  0  0  0  0  0  0  0  0  0  0
  1  2  1  0  0  0  0
  1  3  2  0  0  0  0
  1  4  1  0  0  0  0
  2  5  1  0  0  0  0
  2  6  1  0  0  0  0
  3  7  1  0  0  0  0
  3  8  1  0  0  0  0
  4  9  1  0  0  0  0
  4 10  2  0  0  0  0
  5 11  2  0  0  0  0
  5 12  1  0  0  0  0
  6 13  2  0  0  0  0
  6 14  1  0  0  0  0
  7 15  1  0  0  0  0
  7  9  2  0  0  0  0
  8 13  1  0  0  0  0
  9 16  1  0  0  0  0
 11 17  1  0  0  0  0
 12 18  2  0  0  0  0
 13 19  1  0  0  0  0
 14 20  1  0  0  0  0
 14 21  2  0  0  0  0
 15 22  2  0  0  0  0
 16 23  2  0  0  0  0
 17 24  2  0  0  0  0
 17 25  1  0  0  0  0
 18 26  1  0  0  0  0
 18 24  1  0  0  0  0
 20 27  1  0  0  0  0
 22 23  1  0  0  0  0
 24 28  1  0  0  0  0
 25 29  1  0  0  0  0
 28 30  1  0  0  0  0
 29 31  1  0  0  0  0
 30 32  1  0  0  0  0
 32 33  3  0  0  0  0
M  END
> <CdId>
186

> <Mol Weight>
508.361

> <Formula>
C26H22BrNO5

> <Click_ID>
CLK003_C07 __ __ 

$$$$
