CLK040H07
 OpenBabel03181417022D

 22 23  0  0  0  0  0  0  0  0999 V2000
    0.0042    0.5417    0.0000 N   0  0  0  0  0  0  0  0  0  0  0  0
   -0.6625    0.0583    0.0000 C   0  0  0  0  0  0  0  0  0  0  0  0
   -1.3292    0.5417    0.0000 S   0  0  0  0  0  0  0  0  0  0  0  0
   -0.2500    1.3292    0.0000 C   0  0  0  0  0  0  0  0  0  0  0  0
   -0.6625   -0.7667    0.0000 C   0  0  0  0  0  0  0  0  0  0  0  0
    0.2333    1.9958    0.0000 C   0  0  0  0  0  0  0  0  0  0  0  0
   -1.0750    1.3292    0.0000 C   0  0  0  0  0  0  0  0  0  0  0  0
    2.8458    3.1583    0.0000 C   0  0  0  0  0  0  0  0  0  0  0  0
    1.0542    1.9083    0.0000 C   0  0  0  0  0  0  0  0  0  0  0  0
   -1.3792   -1.1792    0.0000 C   0  0  0  0  0  0  0  0  0  0  0  0
    3.3292    3.8250    0.0000 C   0  0  0  0  0  0  0  0  0  0  0  0
   -1.3792   -2.0042    0.0000 C   0  0  0  0  0  0  0  0  0  0  0  0
   -0.6625   -2.4167    0.0000 C   0  0  0  0  0  0  0  0  0  0  0  0
    0.0500   -1.1792    0.0000 C   0  0  0  0  0  0  0  0  0  0  0  0
    1.3917    1.1542    0.0000 O   0  0  0  0  0  0  0  0  0  0  0  0
    0.0500   -2.0042    0.0000 C   0  0  0  0  0  0  0  0  0  0  0  0
    1.5417    2.5750    0.0000 N   0  0  0  0  0  0  0  0  0  0  0  0
   -2.0917   -2.4167    0.0000 O   0  0  0  0  0  0  0  0  0  0  0  0
    2.3625    2.4917    0.0000 C   0  0  0  0  0  0  0  0  0  0  0  0
   -0.6625   -3.2417    0.0000 O   0  0  0  0  0  0  0  0  0  0  0  0
   -2.8083   -2.0042    0.0000 C   0  0  0  0  0  0  0  0  0  0  0  0
    0.0500   -3.6542    0.0000 C   0  0  0  0  0  0  0  0  0  0  0  0
  2  1  2  0  0  0  0
  3  2  1  0  0  0  0
  3  7  1  0  0  0  0
  4  1  1  0  0  0  0
  5  2  1  0  0  0  0
  6  4  1  0  0  0  0
  7  4  2  0  0  0  0
  8 19  1  0  0  0  0
  9  6  1  0  0  0  0
 10  5  2  0  0  0  0
 11  8  3  0  0  0  0
 12 10  1  0  0  0  0
 13 12  2  0  0  0  0
 14  5  1  0  0  0  0
 15  9  2  0  0  0  0
 16 14  2  0  0  0  0
 16 13  1  0  0  0  0
 17  9  1  0  0  0  0
 18 12  1  0  0  0  0
 19 17  1  0  0  0  0
 20 13  1  0  0  0  0
 21 18  1  0  0  0  0
 22 20  1  0  0  0  0
M  END
> <CdId>
3056

> <Mol Weight>
316.375

> <Formula>
C16H16N2O3S

> <Click_ID>
CLK040H07 __ __ 

$$$$
