CLK016_D11
 OpenBabel03181417022D

 29 31  0  0  0  0  0  0  0  0999 V2000
    1.5677   -0.8172    0.0000 N    0  0  0  0  0  0  0  0  0  0  0  0
    1.8262   -1.6052    0.0000 C    0  0  0  0  0  0  0  0  0  0  0  0
    2.2389   -0.3294    0.0000 C    0  0  0  0  0  0  0  0  0  0  0  0
    2.9061   -0.8172    0.0000 C    0  0  0  0  0  0  0  0  0  0  0  0
    2.6517   -1.6052    0.0000 S    0  0  0  0  0  0  0  0  0  0  0  0
    3.6941   -0.5629    0.0000 C    0  0  0  0  0  0  0  0  0  0  0  0
    0.6129    0.2460    0.0000 C    0  0  0  0  0  0  0  0  0  0  0  0
    0.3920    1.0465    0.0000 C    0  0  0  0  0  0  0  0  0  0  0  0
    1.3384   -2.2681    0.0000 O    0  0  0  0  0  0  0  0  0  0  0  0
    3.4189    1.6010    0.0000 C    0  0  0  0  0  0  0  0  0  0  0  0
    2.2306    0.4961    0.0000 O    0  0  0  0  0  0  0  0  0  0  0  0
    4.2069    1.8512    0.0000 C    0  0  0  0  0  0  0  0  0  0  0  0
    3.8567    0.2460    0.0000 C    0  0  0  0  0  0  0  0  0  0  0  0
    0.7880   -0.5629    0.0000 C    0  0  0  0  0  0  0  0  0  0  0  0
    3.2521    0.7963    0.0000 C    0  0  0  0  0  0  0  0  0  0  0  0
    4.3945    2.6600    0.0000 O    0  0  0  0  0  0  0  0  0  0  0  0
    4.8073    1.3091    0.0000 C    0  0  0  0  0  0  0  0  0  0  0  0
    4.6322    0.4961    0.0000 C    0  0  0  0  0  0  0  0  0  0  0  0
    5.1700    2.9102    0.0000 C    0  0  0  0  0  0  0  0  0  0  0  0
    5.7078    5.3076    0.0000 C    0  0  0  0  0  0  0  0  0  0  0  0
    5.3451    3.7107    0.0000 C    0  0  0  0  0  0  0  0  0  0  0  0
    2.8185    2.1597    0.0000 O    0  0  0  0  0  0  0  0  0  0  0  0
    5.8955    6.1081    0.0000 Cl   0  0  0  0  0  0  0  0  0  0  0  0
    4.9198    5.0574    0.0000 C    0  0  0  0  0  0  0  0  0  0  0  0
    6.3207    4.7530    0.0000 C    0  0  0  0  0  0  0  0  0  0  0  0
    6.1414    3.9608    0.0000 C    0  0  0  0  0  0  0  0  0  0  0  0
    4.7447    4.2652    0.0000 C    0  0  0  0  0  0  0  0  0  0  0  0
    2.0388    1.9012    0.0000 C    0  0  0  0  0  0  0  0  0  0  0  0
    1.4301    2.4474    0.0000 C    0  0  0  0  0  0  0  0  0  0  0  0
  2  1  1  0  0  0  0
  3  1  1  0  0  0  0
  4  3  1  0  0  0  0
  4  5  1  0  0  0  0
  5  2  1  0  0  0  0
  6  4  2  0  0  0  0
  7 14  1  0  0  0  0
  8  7  3  0  0  0  0
  9  2  2  0  0  0  0
 10 15  1  0  0  0  0
 10 12  2  0  0  0  0
 11  3  2  0  0  0  0
 12 17  1  0  0  0  0
 13  6  1  0  0  0  0
 14  1  1  0  0  0  0
 15 13  2  0  0  0  0
 16 12  1  0  0  0  0
 17 18  2  0  0  0  0
 18 13  1  0  0  0  0
 19 16  1  0  0  0  0
 20 24  1  0  0  0  0
 21 19  1  0  0  0  0
 22 10  1  0  0  0  0
 23 20  1  0  0  0  0
 24 27  2  0  0  0  0
 25 26  1  0  0  0  0
 25 20  2  0  0  0  0
 26 21  2  0  0  0  0
 27 21  1  0  0  0  0
 28 22  1  0  0  0  0
 29 28  1  0  0  0  0
M  END
> <CdId>
1196

> <Mol Weight>
427.901

> <Formula>
C22H18ClNO4S

> <Click_ID>
CLK016_D11 __ __ 

$$$$
