CLK011_G09
 OpenBabel03181417022D

 20 21  0  0  0  0  0  0  0  0999 V2000
    2.0522   -0.1970    0.0000 C   0  0  0  0  0  0  0  0  0  0  0  0
    3.4814   -0.1970    0.0000 N   0  0  0  0  0  0  0  0  0  0  0  0
    2.7668   -1.4338    0.0000 N   0  0  0  0  0  0  0  0  0  0  0  0
    2.7668    0.2153    0.0000 C   0  0  0  0  0  0  0  0  0  0  0  0
    2.0522   -1.0216    0.0000 C   0  0  0  0  0  0  0  0  0  0  0  0
    3.4814   -1.0216    0.0000 C   0  0  0  0  0  0  0  0  0  0  0  0
    1.3376    0.2153    0.0000 C   0  0  0  0  0  0  0  0  0  0  0  0
    0.6230   -0.1970    0.0000 C   0  0  0  0  0  0  0  0  0  0  0  0
   -0.8062    2.2766    0.0000 C   0  0  0  0  0  0  0  0  0  0  0  0
   -1.5208    2.6889    0.0000 C   0  0  0  0  0  0  0  0  0  0  0  0
    4.1960   -1.4338    0.0000 S   0  0  0  0  0  0  0  0  0  0  0  0
    1.3376   -1.4338    0.0000 O   0  0  0  0  0  0  0  0  0  0  0  0
    2.7668    1.0398    0.0000 O   0  0  0  0  0  0  0  0  0  0  0  0
   -0.0916    0.2153    0.0000 C   0  0  0  0  0  0  0  0  0  0  0  0
   -0.0916    1.0398    0.0000 O   0  0  0  0  0  0  0  0  0  0  0  0
   -0.8062    1.4521    0.0000 C   0  0  0  0  0  0  0  0  0  0  0  0
    0.6230   -1.0216    0.0000 C   0  0  0  0  0  0  0  0  0  0  0  0
   -0.8062   -0.1970    0.0000 C   0  0  0  0  0  0  0  0  0  0  0  0
   -0.0916   -1.4338    0.0000 C   0  0  0  0  0  0  0  0  0  0  0  0
   -0.8062   -1.0216    0.0000 C   0  0  0  0  0  0  0  0  0  0  0  0
  2  4  1  0  0  0  0
  2  6  1  0  0  0  0
  3  5  1  0  0  0  0
  4  1  1  0  0  0  0
  5  1  1  0  0  0  0
  6  3  1  0  0  0  0
  7  1  2  0  0  0  0
  8  7  1  0  0  0  0
  9 16  1  0  0  0  0
 10  9  3  0  0  0  0
 11  6  2  0  0  0  0
 12  5  2  0  0  0  0
 13  4  2  0  0  0  0
 14  8  1  0  0  0  0
 15 14  1  0  0  0  0
 16 15  1  0  0  0  0
 17  8  2  0  0  0  0
 18 14  2  0  0  0  0
 18 20  1  0  0  0  0
 19 17  1  0  0  0  0
 20 19  2  0  0  0  0
M  END
> <CdId>
824

> <Mol Weight>
286.306

> <Formula>
C14H10N2O3S

> <Click_ID>
CLK011_G09 __ __ 

$$$$
