CLK037D11
 OpenBabel03181417022D

 20 21  0  0  0  0  0  0  0  0999 V2000
   -2.6083   -3.0292    0.0000 C    0  0  0  0  0  0  0  0  0  0  0  0
   -3.3250   -3.4417    0.0000 C    0  0  0  0  0  0  0  0  0  0  0  0
    1.6750    1.0958    0.0000 C    0  0  0  0  0  0  0  0  0  0  0  0
    2.3917    0.6833    0.0000 C    0  0  0  0  0  0  0  0  0  0  0  0
    0.9625    0.6833    0.0000 C    0  0  0  0  0  0  0  0  0  0  0  0
    0.2500    1.0958    0.0000 O    0  0  0  0  0  0  0  0  0  0  0  0
   -0.4667    0.6833    0.0000 C    0  0  0  0  0  0  0  0  0  0  0  0
    2.3917   -0.1417    0.0000 Cl   0  0  0  0  0  0  0  0  0  0  0  0
   -0.4667   -0.1417    0.0000 C    0  0  0  0  0  0  0  0  0  0  0  0
   -1.8958   -1.7917    0.0000 N    0  0  0  0  0  0  0  0  0  0  0  0
   -1.8958   -2.6167    0.0000 C    0  0  0  0  0  0  0  0  0  0  0  0
   -1.1792   -0.5542    0.0000 C    0  0  0  0  0  0  0  0  0  0  0  0
   -1.8958    0.6833    0.0000 C    0  0  0  0  0  0  0  0  0  0  0  0
    1.6750    1.9208    0.0000 C    0  0  0  0  0  0  0  0  0  0  0  0
   -1.1792   -1.3792    0.0000 C    0  0  0  0  0  0  0  0  0  0  0  0
    3.1042    1.0958    0.0000 C    0  0  0  0  0  0  0  0  0  0  0  0
   -1.1792    1.0958    0.0000 C    0  0  0  0  0  0  0  0  0  0  0  0
   -1.8958   -0.1417    0.0000 C    0  0  0  0  0  0  0  0  0  0  0  0
    2.3917    2.3333    0.0000 C    0  0  0  0  0  0  0  0  0  0  0  0
    3.1042    1.9208    0.0000 C    0  0  0  0  0  0  0  0  0  0  0  0
  2  1  3  0  0  0  0
  3  5  1  0  0  0  0
  4  3  2  0  0  0  0
  5  6  1  0  0  0  0
  6  7  1  0  0  0  0
  7  9  2  0  0  0  0
  8  4  1  0  0  0  0
  9 12  1  0  0  0  0
 10 11  1  0  0  0  0
 11  1  1  0  0  0  0
 12 15  1  0  0  0  0
 13 18  1  0  0  0  0
 13 17  2  0  0  0  0
 14  3  1  0  0  0  0
 15 10  1  0  0  0  0
 16  4  1  0  0  0  0
 17  7  1  0  0  0  0
 18 12  2  0  0  0  0
 19 14  2  0  0  0  0
 19 20  1  0  0  0  0
 20 16  2  0  0  0  0
M  END
> <CdId>
2844

> <Mol Weight>
285.768

> <Formula>
C17H16ClNO

> <Click_ID>
CLK037D11 __ __ 

$$$$
