CLK032_F10
 OpenBabel03181417022D

 23 25  0  0  0  0  0  0  0  0999 V2000
   -1.8958    2.1583    0.0000 C   0  0  0  0  0  0  0  0  0  0  0  0
   -1.0708    2.1583    0.0000 N   0  0  0  0  0  0  0  0  0  0  0  0
   -2.3750    2.8208    0.0000 N   0  0  0  0  0  0  0  0  0  0  0  0
   -2.3750    1.4833    0.0000 S   0  0  0  0  0  0  0  0  0  0  0  0
   -3.1625    2.5583    0.0000 C   0  0  0  0  0  0  0  0  0  0  0  0
   -0.6583    1.4458    0.0000 C   0  0  0  0  0  0  0  0  0  0  0  0
   -3.1583    1.7333    0.0000 C   0  0  0  0  0  0  0  0  0  0  0  0
    0.1667    1.4458    0.0000 C   0  0  0  0  0  0  0  0  0  0  0  0
   -1.3208    3.7708    0.0000 C   0  0  0  0  0  0  0  0  0  0  0  0
   -0.5208    3.9458    0.0000 C   0  0  0  0  0  0  0  0  0  0  0  0
   -3.8750    2.9833    0.0000 C   0  0  0  0  0  0  0  0  0  0  0  0
   -1.0625    0.7250    0.0000 O   0  0  0  0  0  0  0  0  0  0  0  0
   -2.1250    3.6083    0.0000 C   0  0  0  0  0  0  0  0  0  0  0  0
    0.5667    2.1500    0.0000 C   0  0  0  0  0  0  0  0  0  0  0  0
   -3.8750    3.8000    0.0000 F   0  0  0  0  0  0  0  0  0  0  0  0
   -3.8750    1.3250    0.0000 C   0  0  0  0  0  0  0  0  0  0  0  0
   -4.5833    1.7333    0.0000 C   0  0  0  0  0  0  0  0  0  0  0  0
    0.5792    0.7333    0.0000 C   0  0  0  0  0  0  0  0  0  0  0  0
   -4.5833    2.5583    0.0000 C   0  0  0  0  0  0  0  0  0  0  0  0
    0.1500    2.8708    0.0000 C   0  0  0  0  0  0  0  0  0  0  0  0
    1.3917    2.1708    0.0000 C   0  0  0  0  0  0  0  0  0  0  0  0
    1.4042    0.7458    0.0000 C   0  0  0  0  0  0  0  0  0  0  0  0
    1.8125    1.4583    0.0000 C   0  0  0  0  0  0  0  0  0  0  0  0
  2  1  2  0  0  0  0
  3  1  1  0  0  0  0
  4  1  1  0  0  0  0
  5  3  1  0  0  0  0
  6  2  1  0  0  0  0
  7  4  1  0  0  0  0
  7  5  2  0  0  0  0
  8  6  1  0  0  0  0
  9 13  1  0  0  0  0
 10  9  3  0  0  0  0
 11  5  1  0  0  0  0
 12  6  2  0  0  0  0
 13  3  1  0  0  0  0
 14  8  1  0  0  0  0
 15 11  1  0  0  0  0
 16  7  1  0  0  0  0
 17 16  2  0  0  0  0
 17 19  1  0  0  0  0
 18  8  2  0  0  0  0
 19 11  2  0  0  0  0
 20 14  1  0  0  0  0
 21 14  2  0  0  0  0
 22 18  1  0  0  0  0
 23 22  2  0  0  0  0
 23 21  1  0  0  0  0
M  END
> <CdId>
2464

> <Mol Weight>
324.372

> <Formula>
C18H13FN2OS

> <Click_ID>
CLK032_F10 __ __ 

$$$$
