CLK017_F04
 OpenBabel03181417022D

 29 31  0  0  0  0  0  0  0  0999 V2000
    5.7330   -2.6992    0.0000 C    0  0  0  0  0  0  0  0  0  0  0  0
    4.4727   -3.1346    0.0000 N    0  0  0  0  0  0  0  0  0  0  0  0
    5.2655   -3.3729    0.0000 C    0  0  0  0  0  0  0  0  0  0  0  0
    4.4681   -2.3097    0.0000 N    0  0  0  0  0  0  0  0  0  0  0  0
    5.2380   -2.0485    0.0000 C    0  0  0  0  0  0  0  0  0  0  0  0
    3.8128   -3.6204    0.0000 C    0  0  0  0  0  0  0  0  0  0  0  0
    6.5578   -2.6855    0.0000 C    0  0  0  0  0  0  0  0  0  0  0  0
    3.9091   -4.4453    0.0000 C    0  0  0  0  0  0  0  0  0  0  0  0
    3.2445   -4.9402    0.0000 C    0  0  0  0  0  0  0  0  0  0  0  0
    8.2810   -6.9428    0.0000 C    0  0  0  0  0  0  0  0  0  0  0  0
    8.7072   -7.6486    0.0000 C    0  0  0  0  0  0  0  0  0  0  0  0
    5.5314   -4.1565    0.0000 O    0  0  0  0  0  0  0  0  0  0  0  0
    8.2260   -4.0832    0.0000 C    0  0  0  0  0  0  0  0  0  0  0  0
    5.4764   -1.2648    0.0000 O    0  0  0  0  0  0  0  0  0  0  0  0
    6.9749   -3.3866    0.0000 C    0  0  0  0  0  0  0  0  0  0  0  0
    7.7998   -3.3729    0.0000 C    0  0  0  0  0  0  0  0  0  0  0  0
    7.8273   -4.8027    0.0000 C    0  0  0  0  0  0  0  0  0  0  0  0
    3.0567   -3.2995    0.0000 C    0  0  0  0  0  0  0  0  0  0  0  0
    2.4793   -4.6102    0.0000 C    0  0  0  0  0  0  0  0  0  0  0  0
    2.3922   -3.7945    0.0000 C    0  0  0  0  0  0  0  0  0  0  0  0
    7.0024   -4.8165    0.0000 C    0  0  0  0  0  0  0  0  0  0  0  0
    3.3408   -5.7604    0.0000 Cl   0  0  0  0  0  0  0  0  0  0  0  0
    6.5762   -4.1153    0.0000 C    0  0  0  0  0  0  0  0  0  0  0  0
    9.0509   -4.0694    0.0000 O    0  0  0  0  0  0  0  0  0  0  0  0
    8.2535   -5.5130    0.0000 O    0  0  0  0  0  0  0  0  0  0  0  0
    7.8548   -6.2325    0.0000 C    0  0  0  0  0  0  0  0  0  0  0  0
    1.8285   -5.1052    0.0000 C    0  0  0  0  0  0  0  0  0  0  0  0
    9.4771   -4.7752    0.0000 C    0  0  0  0  0  0  0  0  0  0  0  0
   10.3019   -4.7615    0.0000 C    0  0  0  0  0  0  0  0  0  0  0  0
  2  3  1  0  0  0  0
  3  1  1  0  0  0  0
  4  5  1  0  0  0  0
  4  2  1  0  0  0  0
  5  1  1  0  0  0  0
  6  2  1  0  0  0  0
  7  1  2  0  0  0  0
  8  6  2  0  0  0  0
  9  8  1  0  0  0  0
 10 26  1  0  0  0  0
 11 10  3  0  0  0  0
 12  3  2  0  0  0  0
 13 16  1  0  0  0  0
 14  5  2  0  0  0  0
 15  7  1  0  0  0  0
 16 15  2  0  0  0  0
 17 21  1  0  0  0  0
 17 13  2  0  0  0  0
 18  6  1  0  0  0  0
 19 20  1  0  0  0  0
 19  9  2  0  0  0  0
 20 18  2  0  0  0  0
 21 23  2  0  0  0  0
 22  9  1  0  0  0  0
 23 15  1  0  0  0  0
 24 13  1  0  0  0  0
 25 17  1  0  0  0  0
 26 25  1  0  0  0  0
 27 19  1  0  0  0  0
 28 24  1  0  0  0  0
 29 28  1  0  0  0  0
M  END
> <CdId>
1289

> <Mol Weight>
410.85

> <Formula>
C22H19ClN2O4

> <Click_ID>
CLK017_F04 __ __ 

$$$$
