CLK049C04
 OpenBabel03181417022D

 19 20  0  0  0  0  0  0  0  0999 V2000
    0.3039   -1.1446    0.0000 C   0  0  0  0  0  0  0  0  0  0  0  0
    0.0458   -0.3621    0.0000 C   0  0  0  0  0  0  0  0  0  0  0  0
    1.0864   -1.4028    0.0000 C   0  0  0  0  0  0  0  0  0  0  0  0
   -0.1831   -1.8149    0.0000 C   0  0  0  0  0  0  0  0  0  0  0  0
    1.0864   -2.2269    0.0000 O   0  0  0  0  0  0  0  0  0  0  0  0
    0.3039   -2.4808    0.0000 C   0  0  0  0  0  0  0  0  0  0  0  0
    0.5994    0.2497    0.0000 N   0  0  0  0  0  0  0  0  0  0  0  0
   -1.5234    2.1603    0.0000 C   0  0  0  0  0  0  0  0  0  0  0  0
   -2.3309    2.3309    0.0000 C   0  0  0  0  0  0  0  0  0  0  0  0
   -0.7575   -0.1915    0.0000 O   0  0  0  0  0  0  0  0  0  0  0  0
    0.3454    1.0322    0.0000 C   0  0  0  0  0  0  0  0  0  0  0  0
   -0.7160    1.9897    0.0000 C   0  0  0  0  0  0  0  0  0  0  0  0
   -0.4620    1.2071    0.0000 C   0  0  0  0  0  0  0  0  0  0  0  0
    1.7524   -0.9158    0.0000 C   0  0  0  0  0  0  0  0  0  0  0  0
   -1.0073   -1.8149    0.0000 C   0  0  0  0  0  0  0  0  0  0  0  0
    0.0458   -3.2634    0.0000 C   0  0  0  0  0  0  0  0  0  0  0  0
    0.6410    2.4308    0.0000 C   0  0  0  0  0  0  0  0  0  0  0  0
    0.8949    1.6483    0.0000 C   0  0  0  0  0  0  0  0  0  0  0  0
   -0.1665    2.6016    0.0000 C   0  0  0  0  0  0  0  0  0  0  0  0
  2  1  1  0  0  0  0
  3  1  2  0  0  0  0
  4  1  1  0  0  0  0
  5  3  1  0  0  0  0
  5  6  1  0  0  0  0
  6  4  2  0  0  0  0
  7  2  1  0  0  0  0
  8 12  1  0  0  0  0
  9  8  3  0  0  0  0
 10  2  2  0  0  0  0
 11  7  1  0  0  0  0
 12 13  1  0  0  0  0
 13 11  2  0  0  0  0
 14  3  1  0  0  0  0
 15  4  1  0  0  0  0
 16  6  1  0  0  0  0
 17 18  2  0  0  0  0
 18 11  1  0  0  0  0
 19 12  2  0  0  0  0
 19 17  1  0  0  0  0
M  END
> <CdId>
3747

> <Mol Weight>
253.2958

> <Formula>
C16H15NO2

> <Click_ID>
CLK049C04 __ __ 

$$$$
