CLK041H11
 OpenBabel03181417022D

 22 23  0  0  0  0  0  0  0  0999 V2000
   -0.5875   -0.1875    0.0000 N   0  0  0  0  0  0  0  0  0  0  0  0
   -1.3000   -0.6000    0.0000 C   0  0  0  0  0  0  0  0  0  0  0  0
   -2.0167   -0.1875    0.0000 C   0  0  0  0  0  0  0  0  0  0  0  0
   -1.3000    1.0500    0.0000 N   0  0  0  0  0  0  0  0  0  0  0  0
   -0.5875    0.6375    0.0000 C   0  0  0  0  0  0  0  0  0  0  0  0
    0.8417   -0.1875    0.0000 C   0  0  0  0  0  0  0  0  0  0  0  0
   -2.0167    0.6375    0.0000 C   0  0  0  0  0  0  0  0  0  0  0  0
    0.1292   -0.6000    0.0000 C   0  0  0  0  0  0  0  0  0  0  0  0
    2.9875    0.2250    0.0000 C   0  0  0  0  0  0  0  0  0  0  0  0
    3.7000    0.6375    0.0000 C   0  0  0  0  0  0  0  0  0  0  0  0
    1.5583   -0.6000    0.0000 N   0  0  0  0  0  0  0  0  0  0  0  0
   -1.3000   -1.4250    0.0000 O   0  0  0  0  0  0  0  0  0  0  0  0
    2.2708   -0.1875    0.0000 C   0  0  0  0  0  0  0  0  0  0  0  0
    0.8417    0.6375    0.0000 O   0  0  0  0  0  0  0  0  0  0  0  0
   -2.7292   -0.6000    0.0000 C   0  0  0  0  0  0  0  0  0  0  0  0
   -2.7292    1.0500    0.0000 C   0  0  0  0  0  0  0  0  0  0  0  0
    2.6833   -0.9000    0.0000 C   0  0  0  0  0  0  0  0  0  0  0  0
    1.8583    0.5292    0.0000 C   0  0  0  0  0  0  0  0  0  0  0  0
   -3.4458   -0.1875    0.0000 C   0  0  0  0  0  0  0  0  0  0  0  0
    2.2708    1.2417    0.0000 C   0  0  0  0  0  0  0  0  0  0  0  0
    2.2708   -1.6125    0.0000 C   0  0  0  0  0  0  0  0  0  0  0  0
   -3.4458    0.6375    0.0000 C   0  0  0  0  0  0  0  0  0  0  0  0
  2  1  1  0  0  0  0
  3  2  1  0  0  0  0
  4  5  2  0  0  0  0
  5  1  1  0  0  0  0
  6  8  1  0  0  0  0
  7  3  2  0  0  0  0
  7  4  1  0  0  0  0
  8  1  1  0  0  0  0
  9 13  1  0  0  0  0
 10  9  3  0  0  0  0
 11  6  1  0  0  0  0
 12  2  2  0  0  0  0
 13 11  1  0  0  0  0
 14  6  2  0  0  0  0
 15  3  1  0  0  0  0
 16  7  1  0  0  0  0
 17 13  1  0  0  0  0
 18 13  1  0  0  0  0
 19 15  2  0  0  0  0
 19 22  1  0  0  0  0
 20 18  1  0  0  0  0
 21 17  1  0  0  0  0
 22 16  2  0  0  0  0
M  END
> <CdId>
3168

> <Mol Weight>
297.3517

> <Formula>
C17H19N3O2

> <Click_ID>
CLK041H11 __ __ 

$$$$
