CLK046H07
 OpenBabel03181417022D

 25 28  0  0  0  0  0  0  0  0999 V2000
   -0.5802    0.0584    0.0000 C   0  0  0  0  0  0  0  0  0  0  0  0
   -0.0919    0.7262    0.0000 N   0  0  0  0  0  0  0  0  0  0  0  0
   -0.5802    1.3982    0.0000 N   0  0  0  0  0  0  0  0  0  0  0  0
   -1.3648    0.3130    0.0000 C   0  0  0  0  0  0  0  0  0  0  0  0
   -1.3648    1.1394    0.0000 C   0  0  0  0  0  0  0  0  0  0  0  0
   -0.3255   -0.7262    0.0000 C   0  0  0  0  0  0  0  0  0  0  0  0
    0.4841   -0.8973    0.0000 N   0  0  0  0  0  0  0  0  0  0  0  0
    2.6127   -2.8130    0.0000 C   0  0  0  0  0  0  0  0  0  0  0  0
    3.4183   -2.9842    0.0000 C   0  0  0  0  0  0  0  0  0  0  0  0
   -0.3255    2.1829    0.0000 C   0  0  0  0  0  0  0  0  0  0  0  0
   -0.8765   -1.3398    0.0000 O   0  0  0  0  0  0  0  0  0  0  0  0
    0.7387   -1.6861    0.0000 C   0  0  0  0  0  0  0  0  0  0  0  0
    1.8030   -2.6420    0.0000 C   0  0  0  0  0  0  0  0  0  0  0  0
   -2.1494    0.0584    0.0000 C   0  0  0  0  0  0  0  0  0  0  0  0
   -2.1494    1.3982    0.0000 C   0  0  0  0  0  0  0  0  0  0  0  0
    1.5484   -1.8573    0.0000 C   0  0  0  0  0  0  0  0  0  0  0  0
   -2.6377    0.7262    0.0000 C   0  0  0  0  0  0  0  0  0  0  0  0
    0.4424   -3.0844    0.0000 C   0  0  0  0  0  0  0  0  0  0  0  0
    0.1878   -2.2997    0.0000 C   0  0  0  0  0  0  0  0  0  0  0  0
    0.4841    2.3540    0.0000 C   0  0  0  0  0  0  0  0  0  0  0  0
   -0.8765    2.7964    0.0000 C   0  0  0  0  0  0  0  0  0  0  0  0
    1.2521   -3.2555    0.0000 C   0  0  0  0  0  0  0  0  0  0  0  0
   -0.6218    3.5810    0.0000 C   0  0  0  0  0  0  0  0  0  0  0  0
    0.7387    3.1386    0.0000 C   0  0  0  0  0  0  0  0  0  0  0  0
    0.1878    3.7563    0.0000 C   0  0  0  0  0  0  0  0  0  0  0  0
  2  1  2  0  0  0  0
  3  2  1  0  0  0  0
  4  1  1  0  0  0  0
  5  4  2  0  0  0  0
  5  3  1  0  0  0  0
  6  1  1  0  0  0  0
  7  6  1  0  0  0  0
  8 13  1  0  0  0  0
  9  8  3  0  0  0  0
 10  3  1  0  0  0  0
 11  6  2  0  0  0  0
 12  7  1  0  0  0  0
 13 16  1  0  0  0  0
 14  4  1  0  0  0  0
 15  5  1  0  0  0  0
 16 12  2  0  0  0  0
 17 14  1  0  0  0  0
 17 15  1  0  0  0  0
 18 19  2  0  0  0  0
 19 12  1  0  0  0  0
 20 10  1  0  0  0  0
 21 10  2  0  0  0  0
 22 13  2  0  0  0  0
 22 18  1  0  0  0  0
 23 21  1  0  0  0  0
 24 20  2  0  0  0  0
 25 23  2  0  0  0  0
 25 24  1  0  0  0  0
M  END
> <CdId>
3536

> <Mol Weight>
327.3792

> <Formula>
C21H17N3O

> <Click_ID>
CLK046H07 __ __ 

$$$$
