CLK025_G09
 OpenBabel03181417022D

 33 35  0  0  0  0  0  0  0  0999 V2000
    2.1415    0.8297    0.0000 N   0  0  0  0  0  0  0  0  0  0  0  0
    0.7265    0.8297    0.0000 C   0  0  0  0  0  0  0  0  0  0  0  0
    1.4288    1.2463    0.0000 C   0  0  0  0  0  0  0  0  0  0  0  0
    2.1415    0.0069    0.0000 C   0  0  0  0  0  0  0  0  0  0  0  0
    1.4288   -0.4028    0.0000 N   0  0  0  0  0  0  0  0  0  0  0  0
    0.7265    0.0069    0.0000 C   0  0  0  0  0  0  0  0  0  0  0  0
    0.0035    1.2429    0.0000 C   0  0  0  0  0  0  0  0  0  0  0  0
    2.8645    1.2429    0.0000 C   0  0  0  0  0  0  0  0  0  0  0  0
   -0.7092    0.8297    0.0000 C   0  0  0  0  0  0  0  0  0  0  0  0
   -1.4253   -0.4166    0.0000 C   0  0  0  0  0  0  0  0  0  0  0  0
   -2.1448    0.0069    0.0000 C   0  0  0  0  0  0  0  0  0  0  0  0
   -2.1380    0.8297    0.0000 C   0  0  0  0  0  0  0  0  0  0  0  0
   -4.3001   -0.3890    0.0000 C   0  0  0  0  0  0  0  0  0  0  0  0
    2.8645   -0.4063    0.0000 O   0  0  0  0  0  0  0  0  0  0  0  0
   -5.0196   -0.8056    0.0000 C   0  0  0  0  0  0  0  0  0  0  0  0
    1.4288    2.0725    0.0000 O   0  0  0  0  0  0  0  0  0  0  0  0
   -0.7092   -0.0035    0.0000 C   0  0  0  0  0  0  0  0  0  0  0  0
   -1.4219    1.2429    0.0000 C   0  0  0  0  0  0  0  0  0  0  0  0
    0.0035   -0.4063    0.0000 O   0  0  0  0  0  0  0  0  0  0  0  0
    2.8645    2.0692    0.0000 C   0  0  0  0  0  0  0  0  0  0  0  0
    3.5771    0.8228    0.0000 C   0  0  0  0  0  0  0  0  0  0  0  0
   -2.8713    2.0622    0.0000 C   0  0  0  0  0  0  0  0  0  0  0  0
   -3.5840    2.4685    0.0000 C   0  0  0  0  0  0  0  0  0  0  0  0
    4.2932    2.0554    0.0000 C   0  0  0  0  0  0  0  0  0  0  0  0
   -1.4391   -1.2326    0.0000 O   0  0  0  0  0  0  0  0  0  0  0  0
   -2.8645   -0.4063    0.0000 O   0  0  0  0  0  0  0  0  0  0  0  0
    3.5805    2.4720    0.0000 C   0  0  0  0  0  0  0  0  0  0  0  0
    4.2932    1.2326    0.0000 C   0  0  0  0  0  0  0  0  0  0  0  0
   -2.8575    1.2326    0.0000 C   0  0  0  0  0  0  0  0  0  0  0  0
    5.0196    2.4616    0.0000 F   0  0  0  0  0  0  0  0  0  0  0  0
   -3.5840    0.0172    0.0000 C   0  0  0  0  0  0  0  0  0  0  0  0
   -0.7265   -1.6457    0.0000 C   0  0  0  0  0  0  0  0  0  0  0  0
   -0.7333   -2.4685    0.0000 C   0  0  0  0  0  0  0  0  0  0  0  0
  2  3  1  0  0  0  0
  2  6  1  0  0  0  0
  3  1  1  0  0  0  0
  4  1  1  0  0  0  0
  5  4  1  0  0  0  0
  6  5  1  0  0  0  0
  7  2  2  0  0  0  0
  8  1  1  0  0  0  0
  9  7  1  0  0  0  0
 10 17  1  0  0  0  0
 10 11  2  0  0  0  0
 11 12  1  0  0  0  0
 12 18  2  0  0  0  0
 13 31  1  0  0  0  0
 14  4  2  0  0  0  0
 15 13  3  0  0  0  0
 16  3  2  0  0  0  0
 17  9  2  0  0  0  0
 18  9  1  0  0  0  0
 19  6  2  0  0  0  0
 20  8  1  0  0  0  0
 21  8  2  0  0  0  0
 22 29  1  0  0  0  0
 23 22  2  0  0  0  0
 24 28  2  0  0  0  0
 25 10  1  0  0  0  0
 26 11  1  0  0  0  0
 27 20  2  0  0  0  0
 27 24  1  0  0  0  0
 28 21  1  0  0  0  0
 29 12  1  0  0  0  0
 30 24  1  0  0  0  0
 31 26  1  0  0  0  0
 32 25  1  0  0  0  0
 33 32  1  0  0  0  0
M  END
> <CdId>
1924

> <Mol Weight>
448.443

> <Formula>
C25H21FN2O5

> <Click_ID>
CLK025_G09 __ __ 

$$$$
