CLK020_F03
 OpenBabel03181417022D

 21 22  0  0  0  0  0  0  0  0999 V2000
    5.0847    1.7544    0.0000 C    0  0  0  0  0  0  0  0  0  0  0  0
    4.2601    1.7544    0.0000 C    0  0  0  0  0  0  0  0  0  0  0  0
    2.6110    1.7544    0.0000 C    0  0  0  0  0  0  0  0  0  0  0  0
    5.4969    2.4690    0.0000 N    0  0  0  0  0  0  0  0  0  0  0  0
    3.0233    1.0398    0.0000 C    0  0  0  0  0  0  0  0  0  0  0  0
    3.0233    2.4690    0.0000 C    0  0  0  0  0  0  0  0  0  0  0  0
    3.8479    1.0398    0.0000 C    0  0  0  0  0  0  0  0  0  0  0  0
    3.8479    2.4690    0.0000 C    0  0  0  0  0  0  0  0  0  0  0  0
    0.5497    2.4690    0.0000 C    0  0  0  0  0  0  0  0  0  0  0  0
   -0.2748    2.4690    0.0000 C    0  0  0  0  0  0  0  0  0  0  0  0
    5.4969    1.0398    0.0000 S    0  0  0  0  0  0  0  0  0  0  0  0
    6.3215    3.8982    0.0000 O    0  0  0  0  0  0  0  0  0  0  0  0
    2.6110    0.3252    0.0000 Cl   0  0  0  0  0  0  0  0  0  0  0  0
    1.7865    1.7544    0.0000 O    0  0  0  0  0  0  0  0  0  0  0  0
    2.6110    3.1836    0.0000 O    0  0  0  0  0  0  0  0  0  0  0  0
    5.0847    3.1836    0.0000 C    0  0  0  0  0  0  0  0  0  0  0  0
    6.3215    2.4690    0.0000 C    0  0  0  0  0  0  0  0  0  0  0  0
    1.3742    2.4690    0.0000 C    0  0  0  0  0  0  0  0  0  0  0  0
    5.4969    3.8982    0.0000 C    0  0  0  0  0  0  0  0  0  0  0  0
    6.7338    3.1836    0.0000 C    0  0  0  0  0  0  0  0  0  0  0  0
    3.0233    3.8982    0.0000 C    0  0  0  0  0  0  0  0  0  0  0  0
  2  1  1  0  0  0  0
  3  6  1  0  0  0  0
  4  1  1  0  0  0  0
  5  7  1  0  0  0  0
  5  3  2  0  0  0  0
  6  8  2  0  0  0  0
  7  2  2  0  0  0  0
  8  2  1  0  0  0  0
  9 18  1  0  0  0  0
 10  9  3  0  0  0  0
 11  1  2  0  0  0  0
 12 20  1  0  0  0  0
 13  5  1  0  0  0  0
 14  3  1  0  0  0  0
 15  6  1  0  0  0  0
 16  4  1  0  0  0  0
 17  4  1  0  0  0  0
 18 14  1  0  0  0  0
 19 16  1  0  0  0  0
 19 12  1  0  0  0  0
 20 17  1  0  0  0  0
 21 15  1  0  0  0  0
M  END
> <CdId>
1528

> <Mol Weight>
325.81

> <Formula>
C15H16ClNO3S

> <Click_ID>
CLK020_F03 __ __ 

$$$$
