CLK042B04
 OpenBabel03181417022D

 24 26  0  0  0  0  0  0  0  0999 V2000
   -1.1208   -0.2167    0.0000 C   0  0  0  0  0  0  0  0  0  0  0  0
   -1.6042    0.4500    0.0000 N   0  0  0  0  0  0  0  0  0  0  0  0
   -1.6042   -0.8833    0.0000 N   0  0  0  0  0  0  0  0  0  0  0  0
   -2.3917   -0.6292    0.0000 C   0  0  0  0  0  0  0  0  0  0  0  0
   -2.3917    0.1958    0.0000 C   0  0  0  0  0  0  0  0  0  0  0  0
   -1.9042   -2.2792    0.0000 C   0  0  0  0  0  0  0  0  0  0  0  0
   -2.4542   -2.8958    0.0000 C   0  0  0  0  0  0  0  0  0  0  0  0
   -0.2958   -0.2167    0.0000 S   0  0  0  0  0  0  0  0  0  0  0  0
   -1.3500   -1.6667    0.0000 C   0  0  0  0  0  0  0  0  0  0  0  0
    2.5917    0.5000    0.0000 C   0  0  0  0  0  0  0  0  0  0  0  0
    3.4167    0.5000    0.0000 C   0  0  0  0  0  0  0  0  0  0  0  0
    2.1792    1.2125    0.0000 C   0  0  0  0  0  0  0  0  0  0  0  0
   -3.1042   -1.0417    0.0000 C   0  0  0  0  0  0  0  0  0  0  0  0
    3.8292   -0.2167    0.0000 O   0  0  0  0  0  0  0  0  0  0  0  0
    1.3542    1.2125    0.0000 O   0  0  0  0  0  0  0  0  0  0  0  0
   -3.1042    0.6083    0.0000 C   0  0  0  0  0  0  0  0  0  0  0  0
    3.4167    1.9292    0.0000 C   0  0  0  0  0  0  0  0  0  0  0  0
    0.1167    0.5000    0.0000 C   0  0  0  0  0  0  0  0  0  0  0  0
    2.5917    1.9292    0.0000 C   0  0  0  0  0  0  0  0  0  0  0  0
    3.8292    1.2125    0.0000 C   0  0  0  0  0  0  0  0  0  0  0  0
    0.9417    0.5000    0.0000 C   0  0  0  0  0  0  0  0  0  0  0  0
    4.6542   -0.2167    0.0000 C   0  0  0  0  0  0  0  0  0  0  0  0
   -3.8208   -0.6292    0.0000 C   0  0  0  0  0  0  0  0  0  0  0  0
   -3.8208    0.1958    0.0000 C   0  0  0  0  0  0  0  0  0  0  0  0
  2  1  2  0  0  0  0
  3  1  1  0  0  0  0
  4  3  1  0  0  0  0
  4  5  2  0  0  0  0
  5  2  1  0  0  0  0
  6  9  1  0  0  0  0
  7  6  3  0  0  0  0
  8  1  1  0  0  0  0
  9  3  1  0  0  0  0
 10 12  1  0  0  0  0
 11 10  2  0  0  0  0
 12 15  1  0  0  0  0
 13  4  1  0  0  0  0
 14 11  1  0  0  0  0
 15 21  1  0  0  0  0
 16  5  1  0  0  0  0
 17 19  1  0  0  0  0
 17 20  2  0  0  0  0
 18  8  1  0  0  0  0
 19 12  2  0  0  0  0
 20 11  1  0  0  0  0
 21 18  1  0  0  0  0
 22 14  1  0  0  0  0
 23 13  2  0  0  0  0
 23 24  1  0  0  0  0
 24 16  2  0  0  0  0
M  END
> <CdId>
3186

> <Mol Weight>
338.423

> <Formula>
C19H18N2O2S

> <Click_ID>
CLK042B04 __ __ 

$$$$
