CLK045D09
 OpenBabel03181417022D

 26 28  0  0  0  0  0  0  0  0999 V2000
    1.6379   -1.0128    0.0000 S   0  0  0  0  0  0  0  0  0  0  0  0
    1.8922   -1.8005    0.0000 C   0  0  0  0  0  0  0  0  0  0  0  0
    1.3796   -0.2293    0.0000 N   0  0  0  0  0  0  0  0  0  0  0  0
    1.4046   -2.4673    0.0000 S   0  0  0  0  0  0  0  0  0  0  0  0
   -0.4876    0.9002    0.0000 C   0  0  0  0  0  0  0  0  0  0  0  0
    0.3209    0.7252    0.0000 C   0  0  3  0  0  0  0  0  0  0  0  0
    2.6757   -2.0547    0.0000 C   0  0  0  0  0  0  0  0  0  0  0  0
    0.5751   -0.0583    0.0000 C   0  0  0  0  0  0  0  0  0  0  0  0
   -0.7419    1.6837    0.0000 N   0  0  0  0  0  0  0  0  0  0  0  0
    1.8922   -3.1341    0.0000 C   0  0  0  0  0  0  0  0  0  0  0  0
   -3.4634    0.8002    0.0000 C   0  0  0  0  0  0  0  0  0  0  0  0
    0.8502   -1.2711    0.0000 O   0  0  0  0  0  0  0  0  0  0  0  0
    2.4214   -0.7585    0.0000 O   0  0  0  0  0  0  0  0  0  0  0  0
    2.6757   -2.8799    0.0000 C   0  0  0  0  0  0  0  0  0  0  0  0
   -4.0135    0.1875    0.0000 C   0  0  0  0  0  0  0  0  0  0  0  0
   -1.0420    0.2834    0.0000 O   0  0  0  0  0  0  0  0  0  0  0  0
   -1.5504    1.8547    0.0000 C   0  0  0  0  0  0  0  0  0  0  0  0
   -2.9090    1.4129    0.0000 C   0  0  0  0  0  0  0  0  0  0  0  0
    1.9338    0.3834    0.0000 C   0  0  0  0  0  0  0  0  0  0  0  0
   -2.1047    1.2420    0.0000 C   0  0  0  0  0  0  0  0  0  0  0  0
    0.8710    1.3420    0.0000 C   0  0  0  0  0  0  0  0  0  0  0  0
    1.6796    1.1670    0.0000 C   0  0  0  0  0  0  0  0  0  0  0  0
   -2.6132    2.8132    0.0000 C   0  0  0  0  0  0  0  0  0  0  0  0
    1.6379   -3.9177    0.0000 C   0  0  0  0  0  0  0  0  0  0  0  0
   -1.8047    2.6382    0.0000 C   0  0  0  0  0  0  0  0  0  0  0  0
   -3.1633    2.1964    0.0000 C   0  0  0  0  0  0  0  0  0  0  0  0
  2  1  1  0  0  0  0
  3  1  1  0  0  0  0
  4  2  1  0  0  0  0
  5  6  1  0  0  0  0
  6  8  1  0  0  0  0
  7  2  2  0  0  0  0
  8  3  1  0  0  0  0
  9  5  1  0  0  0  0
 10  4  1  0  0  0  0
 11 18  1  0  0  0  0
 12  1  2  0  0  0  0
 13  1  2  0  0  0  0
 14  7  1  0  0  0  0
 14 10  2  0  0  0  0
 15 11  3  0  0  0  0
 16  5  2  0  0  0  0
 17  9  1  0  0  0  0
 18 20  1  0  0  0  0
 19  3  1  0  0  0  0
 20 17  2  0  0  0  0
 21  6  1  0  0  0  0
 21 22  1  0  0  0  0
 22 19  1  0  0  0  0
 23 25  2  0  0  0  0
 24 10  1  0  0  0  0
 25 17  1  0  0  0  0
 26 18  2  0  0  0  0
 26 23  1  0  0  0  0
M  END
> <CdId>
3468

> <Mol Weight>
388.504

> <Formula>
C19H20N2O3S2

> <Click_ID>
CLK045D09 __ __ 

$$$$
