CLK039F03
 OpenBabel03181417022D

 18 19  0  0  0  0  0  0  0  0999 V2000
   -0.5542   -0.0875    0.0000 C   0  0  0  0  0  0  0  0  0  0  0  0
   -0.0667   -0.7542    0.0000 C   0  0  0  0  0  0  0  0  0  0  0  0
   -0.0667    0.5792    0.0000 O   0  0  0  0  0  0  0  0  0  0  0  0
    0.7167   -0.5000    0.0000 C   0  0  0  0  0  0  0  0  0  0  0  0
    0.7167    0.3250    0.0000 C   0  0  0  0  0  0  0  0  0  0  0  0
   -1.3792   -0.0875    0.0000 C   0  0  0  0  0  0  0  0  0  0  0  0
   -3.0292    1.3417    0.0000 C   0  0  0  0  0  0  0  0  0  0  0  0
   -3.4417    2.0583    0.0000 C   0  0  0  0  0  0  0  0  0  0  0  0
    1.4292   -0.9125    0.0000 C   0  0  0  0  0  0  0  0  0  0  0  0
   -1.7917   -0.8000    0.0000 O   0  0  0  0  0  0  0  0  0  0  0  0
    1.4292    0.7375    0.0000 C   0  0  0  0  0  0  0  0  0  0  0  0
   -1.7917    0.6292    0.0000 N   0  0  0  0  0  0  0  0  0  0  0  0
    2.1458   -0.5000    0.0000 C   0  0  0  0  0  0  0  0  0  0  0  0
   -0.3250   -1.5375    0.0000 C   0  0  0  0  0  0  0  0  0  0  0  0
    2.1458    0.3250    0.0000 C   0  0  0  0  0  0  0  0  0  0  0  0
   -2.6167    0.6292    0.0000 C   0  0  0  0  0  0  0  0  0  0  0  0
    2.8583   -0.9125    0.0000 O   0  0  0  0  0  0  0  0  0  0  0  0
    3.5750   -0.5000    0.0000 C   0  0  0  0  0  0  0  0  0  0  0  0
  2  1  2  0  0  0  0
  3  1  1  0  0  0  0
  4  2  1  0  0  0  0
  4  5  2  0  0  0  0
  5  3  1  0  0  0  0
  6  1  1  0  0  0  0
  7 16  1  0  0  0  0
  8  7  3  0  0  0  0
  9  4  1  0  0  0  0
 10  6  2  0  0  0  0
 11  5  1  0  0  0  0
 12  6  1  0  0  0  0
 13  9  2  0  0  0  0
 14  2  1  0  0  0  0
 15 11  2  0  0  0  0
 15 13  1  0  0  0  0
 16 12  1  0  0  0  0
 17 13  1  0  0  0  0
 18 17  1  0  0  0  0
M  END
> <CdId>
2942

> <Mol Weight>
243.2579

> <Formula>
C14H13NO3

> <Click_ID>
CLK039F03 __ __ 

$$$$
