CLK047E02
 OpenBabel03181417022D

 17 18  0  0  0  0  0  0  0  0999 V2000
    0.1667    0.0000    0.0000 C   0  0  0  0  0  0  0  0  0  0  0  0
    0.8792    0.4125    0.0000 N   0  0  0  0  0  0  0  0  0  0  0  0
   -0.5500    0.4125    0.0000 C   0  0  0  0  0  0  0  0  0  0  0  0
    0.8792    1.2375    0.0000 N   0  0  0  0  0  0  0  0  0  0  0  0
    0.1667    1.6500    0.0000 C   0  0  0  0  0  0  0  0  0  0  0  0
   -0.5500    1.2375    0.0000 C   0  0  0  0  0  0  0  0  0  0  0  0
    0.1667   -0.8250    0.0000 C   0  0  0  0  0  0  0  0  0  0  0  0
    1.5958   -2.4750    0.0000 C   0  0  0  0  0  0  0  0  0  0  0  0
    2.3083   -2.8875    0.0000 C   0  0  0  0  0  0  0  0  0  0  0  0
    0.1667    2.4750    0.0000 O   0  0  0  0  0  0  0  0  0  0  0  0
   -0.5500   -1.2375    0.0000 O   0  0  0  0  0  0  0  0  0  0  0  0
    0.8792   -1.2375    0.0000 N   0  0  0  0  0  0  0  0  0  0  0  0
    0.8792   -2.0625    0.0000 C   0  0  0  0  0  0  0  0  0  0  0  0
   -1.2625    0.0000    0.0000 C   0  0  0  0  0  0  0  0  0  0  0  0
   -1.2625    1.6500    0.0000 C   0  0  0  0  0  0  0  0  0  0  0  0
   -1.9792    0.4125    0.0000 C   0  0  0  0  0  0  0  0  0  0  0  0
   -1.9792    1.2375    0.0000 C   0  0  0  0  0  0  0  0  0  0  0  0
  2  1  2  0  0  0  0
  3  1  1  0  0  0  0
  4  2  1  0  0  0  0
  5  6  1  0  0  0  0
  5  4  1  0  0  0  0
  6  3  2  0  0  0  0
  7  1  1  0  0  0  0
  8 13  1  0  0  0  0
  9  8  3  0  0  0  0
 10  5  2  0  0  0  0
 11  7  2  0  0  0  0
 12  7  1  0  0  0  0
 13 12  1  0  0  0  0
 14  3  1  0  0  0  0
 15  6  1  0  0  0  0
 16 14  2  0  0  0  0
 16 17  1  0  0  0  0
 17 15  2  0  0  0  0
M  END
> <CdId>
3573

> <Mol Weight>
227.2188

> <Formula>
C12H9N3O2

> <Click_ID>
CLK047E02 __ __ 

$$$$
