CLK036_F05
 OpenBabel03181417022D

 26 28  0  0  0  0  0  0  0  0999 V2000
   -0.4626    4.8785    0.0000 C   0  0  0  0  0  0  0  0  0  0  0  0
   -0.0504    4.1502    0.0000 N   0  0  0  0  0  0  0  0  0  0  0  0
   -1.2734    4.9610    0.0000 N   0  0  0  0  0  0  0  0  0  0  0  0
   -0.1237    5.6252    0.0000 S   0  0  0  0  0  0  0  0  0  0  0  0
    2.4324    1.2780    0.0000 S   0  0  0  0  0  0  0  0  0  0  0  0
   -0.7375    6.1841    0.0000 C   0  0  0  0  0  0  0  0  0  0  0  0
   -1.4521    5.7718    0.0000 C   0  0  0  0  0  0  0  0  0  0  0  0
    0.7833    4.1456    0.0000 C   0  0  0  0  0  0  0  0  0  0  0  0
    2.0201    2.0018    0.0000 C   0  0  0  0  0  0  0  0  0  0  0  0
   -1.5529    3.5684    0.0000 C   0  0  0  0  0  0  0  0  0  0  0  0
   -1.2918    2.7851    0.0000 C   0  0  0  0  0  0  0  0  0  0  0  0
   -2.1667    6.1841    0.0000 C   0  0  0  0  0  0  0  0  0  0  0  0
    1.1956    3.4310    0.0000 C   0  0  0  0  0  0  0  0  0  0  0  0
    3.1516    1.6903    0.0000 O   0  0  0  0  0  0  0  0  0  0  0  0
    1.7087    0.8658    0.0000 O   0  0  0  0  0  0  0  0  0  0  0  0
   -0.7375    7.0086    0.0000 C   0  0  0  0  0  0  0  0  0  0  0  0
    1.1956    4.8557    0.0000 O   0  0  0  0  0  0  0  0  0  0  0  0
   -1.8140    4.3517    0.0000 C   0  0  0  0  0  0  0  0  0  0  0  0
    1.1956    2.0018    0.0000 C   0  0  0  0  0  0  0  0  0  0  0  0
    2.4324    2.7210    0.0000 C   0  0  0  0  0  0  0  0  0  0  0  0
    0.7833    2.7164    0.0000 C   0  0  0  0  0  0  0  0  0  0  0  0
    2.0201    3.4310    0.0000 C   0  0  0  0  0  0  0  0  0  0  0  0
   -2.1667    7.0086    0.0000 C   0  0  0  0  0  0  0  0  0  0  0  0
   -1.4521    7.4209    0.0000 C   0  0  0  0  0  0  0  0  0  0  0  0
    2.8447    0.5588    0.0000 C   0  0  0  0  0  0  0  0  0  0  0  0
   -1.4521    8.2454    0.0000 C   0  0  0  0  0  0  0  0  0  0  0  0
  2  1  2  0  0  0  0
  3  1  1  0  0  0  0
  4  1  1  0  0  0  0
  5  9  1  0  0  0  0
  6  4  1  0  0  0  0
  7  3  1  0  0  0  0
  7  6  2  0  0  0  0
  8  2  1  0  0  0  0
  9 20  1  0  0  0  0
  9 19  2  0  0  0  0
 10 18  1  0  0  0  0
 11 10  3  0  0  0  0
 12  7  1  0  0  0  0
 13  8  1  0  0  0  0
 14  5  2  0  0  0  0
 15  5  2  0  0  0  0
 16  6  1  0  0  0  0
 17  8  2  0  0  0  0
 18  3  1  0  0  0  0
 19 21  1  0  0  0  0
 20 22  2  0  0  0  0
 21 13  2  0  0  0  0
 22 13  1  0  0  0  0
 23 12  2  0  0  0  0
 23 24  1  0  0  0  0
 24 16  2  0  0  0  0
 25  5  1  0  0  0  0
 26 24  1  0  0  0  0
M  END
> <CdId>
2757

> <Mol Weight>
384.472

> <Formula>
C19H16N2O3S2

> <Click_ID>
CLK036_F05 __ __ 

$$$$
