CLK038B07
 OpenBabel03181417022D

 25 27  0  0  0  0  0  0  0  0999 V2000
    1.0375    1.3000    0.0000 C    0  0  0  0  0  0  0  0  0  0  0  0
    1.5250    1.9667    0.0000 C    0  0  0  0  0  0  0  0  0  0  0  0
    1.0375    2.6375    0.0000 N    0  0  0  0  0  0  0  0  0  0  0  0
    0.2542    1.5542    0.0000 C    0  0  0  0  0  0  0  0  0  0  0  0
    0.2542    2.3792    0.0000 C    0  0  0  0  0  0  0  0  0  0  0  0
    1.2917    0.5167    0.0000 C    0  0  0  0  0  0  0  0  0  0  0  0
   -2.2750   -2.3792    0.0000 C    0  0  0  0  0  0  0  0  0  0  0  0
   -2.8250   -2.9917    0.0000 C    0  0  0  0  0  0  0  0  0  0  0  0
    0.4458   -1.4958    0.0000 C    0  0  0  0  0  0  0  0  0  0  0  0
    0.7417   -0.0958    0.0000 C    0  0  0  0  0  0  0  0  0  0  0  0
   -0.4625    1.1417    0.0000 C    0  0  0  0  0  0  0  0  0  0  0  0
    2.3500    1.9667    0.0000 O    0  0  0  0  0  0  0  0  0  0  0  0
    0.9958   -0.8833    0.0000 C    0  0  0  0  0  0  0  0  0  0  0  0
   -0.3625   -1.3250    0.0000 C    0  0  0  0  0  0  0  0  0  0  0  0
   -0.4625    2.7917    0.0000 C    0  0  0  0  0  0  0  0  0  0  0  0
   -0.6167   -0.5375    0.0000 C    0  0  0  0  0  0  0  0  0  0  0  0
   -1.1750    1.5542    0.0000 C    0  0  0  0  0  0  0  0  0  0  0  0
   -0.0667    0.0750    0.0000 C    0  0  0  0  0  0  0  0  0  0  0  0
   -1.1750    2.3792    0.0000 C    0  0  0  0  0  0  0  0  0  0  0  0
    0.7000   -2.2792    0.0000 O    0  0  0  0  0  0  0  0  0  0  0  0
   -1.8917    1.1417    0.0000 Cl   0  0  0  0  0  0  0  0  0  0  0  0
   -0.9167   -1.9375    0.0000 O    0  0  0  0  0  0  0  0  0  0  0  0
   -1.7208   -1.7625    0.0000 C    0  0  0  0  0  0  0  0  0  0  0  0
    1.5042   -2.4500    0.0000 C    0  0  0  0  0  0  0  0  0  0  0  0
    1.7625   -3.2333    0.0000 C    0  0  0  0  0  0  0  0  0  0  0  0
  2  1  1  0  0  0  0
  3  2  1  0  0  0  0
  4  1  1  0  0  0  0
  5  4  2  0  0  0  0
  5  3  1  0  0  0  0
  6  1  2  0  0  0  0
  7 23  1  0  0  0  0
  8  7  3  0  0  0  0
  9 13  1  0  0  0  0
 10  6  1  0  0  0  0
 11  4  1  0  0  0  0
 12  2  2  0  0  0  0
 13 10  2  0  0  0  0
 14 16  1  0  0  0  0
 14  9  2  0  0  0  0
 15  5  1  0  0  0  0
 16 18  2  0  0  0  0
 17 11  2  0  0  0  0
 17 19  1  0  0  0  0
 18 10  1  0  0  0  0
 19 15  2  0  0  0  0
 20  9  1  0  0  0  0
 21 17  1  0  0  0  0
 22 14  1  0  0  0  0
 23 22  1  0  0  0  0
 24 20  1  0  0  0  0
 25 24  1  0  0  0  0
M  END
> <CdId>
2890

> <Mol Weight>
353.799

> <Formula>
C20H16ClNO3

> <Click_ID>
CLK038B07 __ __ 

$$$$
