CLK006_E04
 OpenBabel03181417022D

 20 22  0  0  0  0  0  0  0  0999 V2000
   -0.1683    0.3468    0.0000 C   0  0  0  0  0  0  0  0  0  0  0  0
   -0.6524   -0.3262    0.0000 N   0  0  0  0  0  0  0  0  0  0  0  0
    0.6593    0.3537    0.0000 C   0  0  0  0  0  0  0  0  0  0  0  0
   -0.6661    1.0163    0.0000 N   0  0  0  0  0  0  0  0  0  0  0  0
   -1.4421   -0.0790    0.0000 C   0  0  0  0  0  0  0  0  0  0  0  0
   -0.2404   -1.0403    0.0000 C   0  0  0  0  0  0  0  0  0  0  0  0
    1.0609    1.0678    0.0000 C   0  0  0  0  0  0  0  0  0  0  0  0
    1.0782   -0.3571    0.0000 C   0  0  0  0  0  0  0  0  0  0  0  0
   -1.4490    0.7485    0.0000 C   0  0  0  0  0  0  0  0  0  0  0  0
   -2.1597   -0.4910    0.0000 C   0  0  0  0  0  0  0  0  0  0  0  0
   -0.6524   -1.7477    0.0000 C   0  0  0  0  0  0  0  0  0  0  0  0
    1.8885    1.0782    0.0000 C   0  0  0  0  0  0  0  0  0  0  0  0
    1.8987   -0.3433    0.0000 C   0  0  0  0  0  0  0  0  0  0  0  0
   -2.1597    1.1640    0.0000 C   0  0  0  0  0  0  0  0  0  0  0  0
   -2.8704   -0.0756    0.0000 C   0  0  0  0  0  0  0  0  0  0  0  0
   -0.2335   -2.4653    0.0000 C   0  0  0  0  0  0  0  0  0  0  0  0
    2.3073    0.3639    0.0000 C   0  0  0  0  0  0  0  0  0  0  0  0
   -2.8704    0.7520    0.0000 C   0  0  0  0  0  0  0  0  0  0  0  0
    3.1279    0.3708    0.0000 O   0  0  0  0  0  0  0  0  0  0  0  0
    3.5433   -0.3365    0.0000 C   0  0  0  0  0  0  0  0  0  0  0  0
  1  2  1  0  0  0  0
  1  3  1  0  0  0  0
  1  4  2  0  0  0  0
  2  5  1  0  0  0  0
  2  6  1  0  0  0  0
  3  7  1  0  0  0  0
  3  8  2  0  0  0  0
  4  9  1  0  0  0  0
  5 10  2  0  0  0  0
  5  9  1  0  0  0  0
  6 11  1  0  0  0  0
  7 12  2  0  0  0  0
  8 13  1  0  0  0  0
  9 14  2  0  0  0  0
 10 15  1  0  0  0  0
 11 16  3  0  0  0  0
 12 17  1  0  0  0  0
 13 17  2  0  0  0  0
 14 18  1  0  0  0  0
 15 18  2  0  0  0  0
 17 19  1  0  0  0  0
 19 20  1  0  0  0  0
M  END
> <CdId>
443

> <Mol Weight>
262.3059

> <Formula>
C17H14N2O

> <Click_ID>
CLK006_E04 __ __ 

$$$$
