CLK040E04
 OpenBabel03181417022D

 20 21  0  0  0  0  0  0  0  0999 V2000
   -0.6083    1.8458    0.0000 S   0  0  0  0  0  0  0  0  0  0  0  0
   -0.1208    1.1792    0.0000 N   0  0  0  0  0  0  0  0  0  0  0  0
   -0.6083    0.5125    0.0000 C   0  0  0  0  0  0  0  0  0  0  0  0
   -1.3917    0.7667    0.0000 C   0  0  0  0  0  0  0  0  0  0  0  0
   -1.3917    1.5917    0.0000 C   0  0  0  0  0  0  0  0  0  0  0  0
   -0.5958    2.6708    0.0000 O   0  0  0  0  0  0  0  0  0  0  0  0
   -0.1333    2.5208    0.0000 O   0  0  0  0  0  0  0  0  0  0  0  0
    2.8333   -3.1417    0.0000 C   0  0  0  0  0  0  0  0  0  0  0  0
    3.0875   -3.9250    0.0000 C   0  0  0  0  0  0  0  0  0  0  0  0
    1.5167   -1.4000    0.0000 C   0  0  0  0  0  0  0  0  0  0  0  0
   -0.3542   -0.2750    0.0000 N   0  0  0  0  0  0  0  0  0  0  0  0
    0.7083   -1.2292    0.0000 C   0  0  0  0  0  0  0  0  0  0  0  0
    2.0667   -0.7875    0.0000 O   0  0  0  0  0  0  0  0  0  0  0  0
    1.7708   -2.1875    0.0000 N   0  0  0  0  0  0  0  0  0  0  0  0
    0.4542   -0.4458    0.0000 C   0  0  0  0  0  0  0  0  0  0  0  0
   -2.1083    0.3542    0.0000 C   0  0  0  0  0  0  0  0  0  0  0  0
    2.5792   -2.3583    0.0000 C   0  0  0  0  0  0  0  0  0  0  0  0
   -2.1083    2.0042    0.0000 C   0  0  0  0  0  0  0  0  0  0  0  0
   -2.8208    0.7667    0.0000 C   0  0  0  0  0  0  0  0  0  0  0  0
   -2.8208    1.5917    0.0000 C   0  0  0  0  0  0  0  0  0  0  0  0
  2  1  1  0  0  0  0
  3  2  2  0  0  0  0
  4  5  2  0  0  0  0
  4  3  1  0  0  0  0
  5  1  1  0  0  0  0
  6  1  2  0  0  0  0
  7  1  2  0  0  0  0
  8 17  1  0  0  0  0
  9  8  3  0  0  0  0
 10 12  1  0  0  0  0
 11  3  1  0  0  0  0
 12 15  1  0  0  0  0
 13 10  2  0  0  0  0
 14 10  1  0  0  0  0
 15 11  1  0  0  0  0
 16  4  1  0  0  0  0
 17 14  1  0  0  0  0
 18  5  1  0  0  0  0
 19 16  2  0  0  0  0
 19 20  1  0  0  0  0
 20 18  2  0  0  0  0
M  END
> <CdId>
3029

> <Mol Weight>
291.326

> <Formula>
C13H13N3O3S

> <Click_ID>
CLK040E04 __ __ 

$$$$
