CLK046F10
 OpenBabel03181417022D

 33 36  0  0  0  0  0  0  0  0999 V2000
   -0.0667   -0.4042    0.0000 C   0  0  0  0  0  0  0  0  0  0  0  0
   -1.4958    0.4208    0.0000 C   0  0  0  0  0  0  0  0  0  0  0  0
   -0.7792   -0.8167    0.0000 C   0  0  0  0  0  0  0  0  0  0  0  0
   -1.4958   -0.4042    0.0000 N   0  0  0  0  0  0  0  0  0  0  0  0
   -0.0667    0.4208    0.0000 C   0  0  3  0  0  0  0  0  0  0  0  0
   -0.7792    0.8333    0.0000 N   0  0  0  0  0  0  0  0  0  0  0  0
    0.6500   -0.8167    0.0000 C   0  0  0  0  0  0  0  0  0  0  0  0
    2.0750   -0.8167    0.0000 C   0  0  0  0  0  0  0  0  0  0  0  0
    1.3625   -0.4042    0.0000 N   0  0  0  0  0  0  0  0  0  0  0  0
    2.8292   -0.4833    0.0000 N   0  0  0  0  0  0  0  0  0  0  0  0
    0.6500    0.8333    0.0000 C   0  0  0  0  0  0  0  0  0  0  0  0
    2.1625   -1.6375    0.0000 C   0  0  0  0  0  0  0  0  0  0  0  0
    3.3833   -1.0958    0.0000 O   0  0  0  0  0  0  0  0  0  0  0  0
   -2.2083    0.8333    0.0000 S   0  0  0  0  0  0  0  0  0  0  0  0
    2.9708   -1.8083    0.0000 C   0  0  0  0  0  0  0  0  0  0  0  0
   -0.7792    3.3083    0.0000 C   0  0  0  0  0  0  0  0  0  0  0  0
   -1.4958    3.7208    0.0000 C   0  0  0  0  0  0  0  0  0  0  0  0
   -2.2083   -0.8167    0.0000 C   0  0  0  0  0  0  0  0  0  0  0  0
    0.6500   -1.6417    0.0000 O   0  0  0  0  0  0  0  0  0  0  0  0
    0.6500    1.6583    0.0000 C   0  0  0  0  0  0  0  0  0  0  0  0
   -0.7792   -1.6417    0.0000 C   0  0  0  0  0  0  0  0  0  0  0  0
   -0.0667    2.0708    0.0000 O   0  0  0  0  0  0  0  0  0  0  0  0
    1.3625    0.4208    0.0000 C   0  0  0  0  0  0  0  0  0  0  0  0
   -0.0667    2.8958    0.0000 C   0  0  0  0  0  0  0  0  0  0  0  0
    3.3042   -2.5625    0.0000 C   0  0  0  0  0  0  0  0  0  0  0  0
   -2.9250   -0.4042    0.0000 C   0  0  0  0  0  0  0  0  0  0  0  0
   -2.2083   -1.6417    0.0000 C   0  0  0  0  0  0  0  0  0  0  0  0
    1.3625    2.0708    0.0000 C   0  0  0  0  0  0  0  0  0  0  0  0
    2.0750    0.8333    0.0000 C   0  0  0  0  0  0  0  0  0  0  0  0
   -3.6375   -0.8167    0.0000 C   0  0  0  0  0  0  0  0  0  0  0  0
   -2.9250   -2.0542    0.0000 C   0  0  0  0  0  0  0  0  0  0  0  0
    2.0750    1.6583    0.0000 C   0  0  0  0  0  0  0  0  0  0  0  0
   -3.6375   -1.6417    0.0000 C   0  0  0  0  0  0  0  0  0  0  0  0
  2  6  1  0  0  0  0
  3  1  2  0  0  0  0
  4  3  1  0  0  0  0
  4  2  1  0  0  0  0
  5  1  1  0  0  0  0
  6  5  1  0  0  0  0
  7  1  1  0  0  0  0
  8  9  1  0  0  0  0
  9  7  1  0  0  0  0
 10  8  2  0  0  0  0
 11  5  1  0  0  0  0
 12  8  1  0  0  0  0
 13 10  1  0  0  0  0
 13 15  1  0  0  0  0
 14  2  2  0  0  0  0
 15 12  2  0  0  0  0
 16 24  1  0  0  0  0
 17 16  3  0  0  0  0
 18  4  1  0  0  0  0
 19  7  2  0  0  0  0
 20 11  2  0  0  0  0
 21  3  1  0  0  0  0
 22 20  1  0  0  0  0
 23 11  1  0  0  0  0
 24 22  1  0  0  0  0
 25 15  1  0  0  0  0
 26 18  1  0  0  0  0
 27 18  2  0  0  0  0
 28 20  1  0  0  0  0
 29 23  2  0  0  0  0
 30 26  2  0  0  0  0
 31 27  1  0  0  0  0
 32 28  2  0  0  0  0
 32 29  1  0  0  0  0
 33 31  2  0  0  0  0
 33 30  1  0  0  0  0
M  END
> <CdId>
3558

> <Mol Weight>
458.532

> <Formula>
C25H22N4O3S

> <Click_ID>
CLK046F10 __ __ 

$$$$
