CLK048A05
 OpenBabel03181417022D

 28 30  0  0  0  0  0  0  0  0999 V2000
    0.1000   -0.8250    0.0000 C   0  0  0  0  0  0  0  0  0  0  0  0
    0.8125   -2.8875    0.0000 N   0  3  0  0  0  0  0  0  0  0  0  0
   -0.6125   -0.4125    0.0000 C   0  0  0  0  0  0  0  0  0  0  0  0
    0.8125   -0.4125    0.0000 C   0  0  0  0  0  0  0  0  0  0  0  0
    0.1000   -1.6500    0.0000 C   0  0  0  0  0  0  0  0  0  0  0  0
    0.8125   -2.0625    0.0000 C   0  0  0  0  0  0  0  0  0  0  0  0
    0.8125    0.4125    0.0000 S   0  0  0  0  0  0  0  0  0  0  0  0
   -0.6125    0.4125    0.0000 N   0  0  0  0  0  0  0  0  0  0  0  0
   -3.4708    0.4125    0.0000 C   0  0  0  0  0  0  0  0  0  0  0  0
    1.5292    0.8250    0.0000 C   0  0  0  0  0  0  0  0  0  0  0  0
   -4.1875    0.0000    0.0000 C   0  0  0  0  0  0  0  0  0  0  0  0
    0.1000   -3.3000    0.0000 O   0  5  0  0  0  0  0  0  0  0  0  0
    1.5292   -3.3000    0.0000 O   0  0  0  0  0  0  0  0  0  0  0  0
   -1.3292   -0.8250    0.0000 O   0  0  0  0  0  0  0  0  0  0  0  0
    1.5292   -0.8250    0.0000 C   0  0  0  0  0  0  0  0  0  0  0  0
   -1.3292    0.8250    0.0000 C   0  0  0  0  0  0  0  0  0  0  0  0
    1.5292    1.6500    0.0000 C   0  0  0  0  0  0  0  0  0  0  0  0
    1.5292   -1.6500    0.0000 C   0  0  0  0  0  0  0  0  0  0  0  0
   -2.7583    0.8250    0.0000 C   0  0  0  0  0  0  0  0  0  0  0  0
   -2.0417    0.4125    0.0000 C   0  0  0  0  0  0  0  0  0  0  0  0
    0.8125    2.0625    0.0000 F   0  0  0  0  0  0  0  0  0  0  0  0
   -2.0417    2.0625    0.0000 C   0  0  0  0  0  0  0  0  0  0  0  0
    2.2417    0.4125    0.0000 C   0  0  0  0  0  0  0  0  0  0  0  0
   -1.3292    1.6500    0.0000 C   0  0  0  0  0  0  0  0  0  0  0  0
    2.2417    2.0625    0.0000 C   0  0  0  0  0  0  0  0  0  0  0  0
   -2.7583    1.6500    0.0000 C   0  0  0  0  0  0  0  0  0  0  0  0
    2.9583    0.8250    0.0000 C   0  0  0  0  0  0  0  0  0  0  0  0
    2.9583    1.6500    0.0000 C   0  0  0  0  0  0  0  0  0  0  0  0
  2  6  1  0  0  0  0
  3  1  1  0  0  0  0
  4  1  2  0  0  0  0
  5  1  1  0  0  0  0
  6  5  2  0  0  0  0
  7  4  1  0  0  0  0
  8  3  1  0  0  0  0
  9 19  1  0  0  0  0
 10  7  1  0  0  0  0
 11  9  3  0  0  0  0
 12  2  1  0  0  0  0
 13  2  2  0  0  0  0
 14  3  2  0  0  0  0
 15  4  1  0  0  0  0
 15 18  2  0  0  0  0
 16  8  1  0  0  0  0
 17 10  2  0  0  0  0
 18  6  1  0  0  0  0
 19 20  1  0  0  0  0
 20 16  2  0  0  0  0
 21 17  1  0  0  0  0
 22 24  2  0  0  0  0
 23 10  1  0  0  0  0
 24 16  1  0  0  0  0
 25 17  1  0  0  0  0
 26 19  2  0  0  0  0
 26 22  1  0  0  0  0
 27 23  2  0  0  0  0
 28 25  2  0  0  0  0
 28 27  1  0  0  0  0
M  END
> <CdId>
3673

> <Mol Weight>
392.403

> <Formula>
C21H13FN2O3S

> <Click_ID>
CLK048A05 __ __ 

$$$$
