CLK020_H06
 OpenBabel03181417022D

 17 17  0  0  0  0  0  0  0  0999 V2000
    4.0196    1.8654    0.0000 C   0  0  0  0  0  0  0  0  0  0  0  0
    3.2359    2.1129    0.0000 C   0  0  0  0  0  0  0  0  0  0  0  0
    5.1013    1.0816    0.0000 N   0  0  0  0  0  0  0  0  0  0  0  0
    5.3534    1.8654    0.0000 O   0  0  0  0  0  0  0  0  0  0  0  0
    4.6887    2.3466    0.0000 C   0  0  0  0  0  0  0  0  0  0  0  0
    4.2763    1.0816    0.0000 C   0  0  0  0  0  0  0  0  0  0  0  0
    2.6171    1.5629    0.0000 N   0  0  0  0  0  0  0  0  0  0  0  0
    1.3887    1.1275    0.0000 C   0  0  0  0  0  0  0  0  0  0  0  0
    0.9396    0.4354    0.0000 C   0  0  0  0  0  0  0  0  0  0  0  0
    1.8334    1.8241    0.0000 C   0  0  0  0  0  0  0  0  0  0  0  0
    3.0662    2.9241    0.0000 O   0  0  0  0  0  0  0  0  0  0  0  0
    4.6887    3.1716    0.0000 C   0  0  0  0  0  0  0  0  0  0  0  0
    3.7859    0.4079    0.0000 C   0  0  0  0  0  0  0  0  0  0  0  0
    2.1634    2.5804    0.0000 C   0  0  0  0  0  0  0  0  0  0  0  0
    1.1046    2.2091    0.0000 C   0  0  0  0  0  0  0  0  0  0  0  0
    1.6637    3.2404    0.0000 C   0  0  0  0  0  0  0  0  0  0  0  0
    0.4125    1.7691    0.0000 C   0  0  0  0  0  0  0  0  0  0  0  0
  2  1  1  0  0  0  0
  3  6  2  0  0  0  0
  4  5  1  0  0  0  0
  4  3  1  0  0  0  0
  5  1  2  0  0  0  0
  6  1  1  0  0  0  0
  7  2  1  0  0  0  0
  8 10  1  0  0  0  0
  9  8  3  0  0  0  0
 10  7  1  0  0  0  0
 11  2  2  0  0  0  0
 12  5  1  0  0  0  0
 13  6  1  0  0  0  0
 14 10  1  0  0  0  0
 15 10  1  0  0  0  0
 16 14  1  0  0  0  0
 17 15  1  0  0  0  0
M  END
> <CdId>
1551

> <Mol Weight>
234.2942

> <Formula>
C13H18N2O2

> <Click_ID>
CLK020_H06 __ __ 

$$$$
