CLK003_G02
 OpenBabel03181417022D

 27 30  0  0  0  0  0  0  0  0999 V2000
   -1.8805    0.1249    0.0000 C   0  0  0  0  0  0  0  0  0  0  0  0
   -1.9978   -0.6848    0.0000 C   0  0  0  0  0  0  0  0  0  0  0  0
   -1.0708    0.2649    0.0000 C   0  0  3  0  0  0  0  0  0  0  0  0
   -2.5274    0.6356    0.0000 C   0  0  0  0  0  0  0  0  0  0  0  0
   -1.2637   -1.0518    0.0000 N   0  0  0  0  0  0  0  0  0  0  0  0
   -2.7583   -0.9951    0.0000 C   0  0  0  0  0  0  0  0  0  0  0  0
   -0.6886   -0.4616    0.0000 C   0  0  0  0  0  0  0  0  0  0  0  0
   -0.1437    0.8930    0.0000 C   0  0  0  0  0  0  0  0  0  0  0  0
   -1.3319    1.2070    0.0000 O   0  0  0  0  0  0  0  0  0  0  0  0
   -3.2955    0.3292    0.0000 C   0  0  0  0  0  0  0  0  0  0  0  0
   -1.1200   -1.8616    0.0000 C   0  0  0  0  0  0  0  0  0  0  0  0
   -3.4091   -0.4881    0.0000 C   0  0  0  0  0  0  0  0  0  0  0  0
    0.1286   -0.5751    0.0000 O   0  0  0  0  0  0  0  0  0  0  0  0
    0.6432    0.4805    0.0000 C   0  0  0  0  0  0  0  0  0  0  0  0
   -1.7481   -2.3837    0.0000 C   0  0  0  0  0  0  0  0  0  0  0  0
    1.3432    0.9232    0.0000 C   0  0  0  0  0  0  0  0  0  0  0  0
    0.6772   -0.2043    0.0000 O   0  0  0  0  0  0  0  0  0  0  0  0
   -2.3800   -2.9172    0.0000 C   0  0  0  0  0  0  0  0  0  0  0  0
    2.0697    0.5486    0.0000 C   0  0  0  0  0  0  0  0  0  0  0  0
    1.3016    1.7481    0.0000 C   0  0  0  0  0  0  0  0  0  0  0  0
    2.7620    0.9875    0.0000 C   0  0  0  0  0  0  0  0  0  0  0  0
    2.1037   -0.2725    0.0000 C   0  0  0  0  0  0  0  0  0  0  0  0
    1.9940    2.1945    0.0000 C   0  0  0  0  0  0  0  0  0  0  0  0
    2.7280    1.8124    0.0000 C   0  0  0  0  0  0  0  0  0  0  0  0
    3.4961    0.6092    0.0000 C   0  0  0  0  0  0  0  0  0  0  0  0
    2.8378   -0.6584    0.0000 C   0  0  0  0  0  0  0  0  0  0  0  0
    3.5301   -0.2157    0.0000 C   0  0  0  0  0  0  0  0  0  0  0  0
  1  2  2  0  0  0  0
  1  3  1  0  0  0  0
  1  4  1  0  0  0  0
  2  5  1  0  0  0  0
  2  6  1  0  0  0  0
  3  7  1  0  0  0  0
  3  8  1  0  0  0  0
  3  9  1  0  0  0  0
  4 10  2  0  0  0  0
  5 11  1  0  0  0  0
  5  7  1  0  0  0  0
  6 12  2  0  0  0  0
  7 13  2  0  0  0  0
  8 14  1  0  0  0  0
 10 12  1  0  0  0  0
 11 15  1  0  0  0  0
 14 16  1  0  0  0  0
 14 17  2  0  0  0  0
 15 18  3  0  0  0  0
 16 19  1  0  0  0  0
 16 20  2  0  0  0  0
 19 21  1  0  0  0  0
 19 22  2  0  0  0  0
 20 23  1  0  0  0  0
 21 24  1  0  0  0  0
 21 25  2  0  0  0  0
 22 26  1  0  0  0  0
 23 24  2  0  0  0  0
 25 27  1  0  0  0  0
 26 27  2  0  0  0  0
M  END
> <CdId>
221

> <Mol Weight>
355.386

> <Formula>
C23H17NO3

> <Click_ID>
CLK003_G02 __ __ 

$$$$
