CLK002_G07
 OpenBabel03181417022D

 15 16  0  0  0  0  0  0  0  0999 V2000
   -0.0681   -0.1550    0.0000 C    0  0  0  0  0  0  0  0  0  0  0  0
   -0.0681    0.6727    0.0000 C    0  0  0  0  0  0  0  0  0  0  0  0
    0.7142   -0.4006    0.0000 N    0  0  0  0  0  0  0  0  0  0  0  0
   -0.7860   -0.5668    0.0000 C    0  0  0  0  0  0  0  0  0  0  0  0
    0.7142    0.9259    0.0000 C    0  0  0  0  0  0  0  0  0  0  0  0
   -0.7860    1.0922    0.0000 C    0  0  0  0  0  0  0  0  0  0  0  0
    1.2056    0.2607    0.0000 C    0  0  0  0  0  0  0  0  0  0  0  0
    0.9713   -1.1904    0.0000 C    0  0  0  0  0  0  0  0  0  0  0  0
   -1.4928   -0.1550    0.0000 C    0  0  0  0  0  0  0  0  0  0  0  0
    0.9713    1.7120    0.0000 O    0  0  0  0  0  0  0  0  0  0  0  0
   -1.4928    0.6727    0.0000 C    0  0  0  0  0  0  0  0  0  0  0  0
    2.0294    0.2607    0.0000 O    0  0  0  0  0  0  0  0  0  0  0  0
    0.4233   -1.7989    0.0000 C    0  0  0  0  0  0  0  0  0  0  0  0
   -2.2108    1.0808    0.0000 Br   0  0  0  0  0  0  0  0  0  0  0  0
   -0.1284   -2.4111    0.0000 C    0  0  0  0  0  0  0  0  0  0  0  0
  1  2  2  0  0  0  0
  1  3  1  0  0  0  0
  1  4  1  0  0  0  0
  2  5  1  0  0  0  0
  2  6  1  0  0  0  0
  3  7  1  0  0  0  0
  3  8  1  0  0  0  0
  4  9  2  0  0  0  0
  5 10  2  0  0  0  0
  5  7  1  0  0  0  0
  6 11  2  0  0  0  0
  7 12  2  0  0  0  0
  8 13  1  0  0  0  0
  9 11  1  0  0  0  0
 11 14  1  0  0  0  0
 13 15  3  0  0  0  0
M  END
> <CdId>
146

> <Mol Weight>
264.075

> <Formula>
C11H6BrNO2

> <Click_ID>
CLK002_G07 __ __ 

$$$$
