CLK044H05
 OpenBabel03181417022D

 19 20  0  0  0  0  0  0  0  0999 V2000
   -0.3333   -0.3000    0.0000 C   0  0  0  0  0  0  0  0  0  0  0  0
   -0.8208    0.3667    0.0000 N   0  0  0  0  0  0  0  0  0  0  0  0
   -0.8208   -0.9708    0.0000 N   0  0  0  0  0  0  0  0  0  0  0  0
   -1.6042   -0.7125    0.0000 C   0  0  0  0  0  0  0  0  0  0  0  0
   -1.6042    0.1125    0.0000 C   0  0  0  0  0  0  0  0  0  0  0  0
    0.4917   -0.3000    0.0000 S   0  0  0  0  0  0  0  0  0  0  0  0
    3.3792    1.8417    0.0000 C   0  0  0  0  0  0  0  0  0  0  0  0
    3.7917    2.5583    0.0000 C   0  0  0  0  0  0  0  0  0  0  0  0
    1.7292    0.4125    0.0000 C   0  0  0  0  0  0  0  0  0  0  0  0
    2.1417   -0.3000    0.0000 O   0  0  0  0  0  0  0  0  0  0  0  0
    0.9042    0.4125    0.0000 C   0  0  0  0  0  0  0  0  0  0  0  0
    2.1417    1.1292    0.0000 N   0  0  0  0  0  0  0  0  0  0  0  0
   -0.5667   -1.7542    0.0000 C   0  0  0  0  0  0  0  0  0  0  0  0
    2.9667    1.1292    0.0000 C   0  0  0  0  0  0  0  0  0  0  0  0
   -2.3208   -1.1250    0.0000 C   0  0  0  0  0  0  0  0  0  0  0  0
   -2.3208    0.5250    0.0000 C   0  0  0  0  0  0  0  0  0  0  0  0
   -1.1167   -2.3667    0.0000 C   0  0  0  0  0  0  0  0  0  0  0  0
   -3.0333   -0.7125    0.0000 C   0  0  0  0  0  0  0  0  0  0  0  0
   -3.0333    0.1125    0.0000 C   0  0  0  0  0  0  0  0  0  0  0  0
  2  1  2  0  0  0  0
  3  1  1  0  0  0  0
  4  3  1  0  0  0  0
  4  5  2  0  0  0  0
  5  2  1  0  0  0  0
  6  1  1  0  0  0  0
  7 14  1  0  0  0  0
  8  7  3  0  0  0  0
  9 11  1  0  0  0  0
 10  9  2  0  0  0  0
 11  6  1  0  0  0  0
 12  9  1  0  0  0  0
 13  3  1  0  0  0  0
 14 12  1  0  0  0  0
 15  4  1  0  0  0  0
 16  5  1  0  0  0  0
 17 13  1  0  0  0  0
 18 15  2  0  0  0  0
 18 19  1  0  0  0  0
 19 16  2  0  0  0  0
M  END
> <CdId>
3360

> <Mol Weight>
273.353

> <Formula>
C14H15N3OS

> <Click_ID>
CLK044H05 __ __ 

$$$$
