CLK027_G07
 OpenBabel03181417022D

 24 26  0  0  0  0  0  0  0  0999 V2000
    1.9279    0.9726    0.0000 N   0  0  0  0  0  0  0  0  0  0  0  0
    2.6805    0.6357    0.0000 C   0  0  0  0  0  0  0  0  0  0  0  0
    2.0139    1.7871    0.0000 C   0  0  0  0  0  0  0  0  0  0  0  0
    3.2270    1.2475    0.0000 N   0  0  0  0  0  0  0  0  0  0  0  0
    2.8146    1.9554    0.0000 N   0  0  0  0  0  0  0  0  0  0  0  0
    1.2166    0.5602    0.0000 N   0  0  0  0  0  0  0  0  0  0  0  0
   -3.0929   -1.9211    0.0000 C   0  0  0  0  0  0  0  0  0  0  0  0
   -3.8043   -2.3403    0.0000 C   0  0  0  0  0  0  0  0  0  0  0  0
    2.8490   -0.1615    0.0000 C   0  0  0  0  0  0  0  0  0  0  0  0
    0.4983    0.9726    0.0000 C   0  0  0  0  0  0  0  0  0  0  0  0
    1.4021    2.3438    0.0000 S   0  0  0  0  0  0  0  0  0  0  0  0
   -0.2268    0.5533    0.0000 C   0  0  0  0  0  0  0  0  0  0  0  0
   -1.6599   -0.2749    0.0000 C   0  0  0  0  0  0  0  0  0  0  0  0
   -0.2268   -0.2715    0.0000 C   0  0  0  0  0  0  0  0  0  0  0  0
   -0.9417    0.9760    0.0000 C   0  0  0  0  0  0  0  0  0  0  0  0
   -0.9382   -0.6804    0.0000 C   0  0  0  0  0  0  0  0  0  0  0  0
   -1.6599    0.5636    0.0000 C   0  0  0  0  0  0  0  0  0  0  0  0
   -2.3816   -1.5087    0.0000 C   0  0  0  0  0  0  0  0  0  0  0  0
   -2.3747   -0.6873    0.0000 O   0  0  0  0  0  0  0  0  0  0  0  0
    2.2372   -0.7114    0.0000 C   0  0  0  0  0  0  0  0  0  0  0  0
    3.6359   -0.4124    0.0000 C   0  0  0  0  0  0  0  0  0  0  0  0
    2.4056   -1.5190    0.0000 C   0  0  0  0  0  0  0  0  0  0  0  0
    3.8008   -1.2234    0.0000 C   0  0  0  0  0  0  0  0  0  0  0  0
    3.1892   -1.7698    0.0000 C   0  0  0  0  0  0  0  0  0  0  0  0
  2  1  1  0  0  0  0
  3  1  1  0  0  0  0
  4  2  2  0  0  0  0
  5  3  2  0  0  0  0
  5  4  1  0  0  0  0
  6  1  1  0  0  0  0
  7 18  1  0  0  0  0
  8  7  3  0  0  0  0
  9  2  1  0  0  0  0
 10  6  2  0  0  0  0
 11  3  1  0  0  0  0
 12 10  1  0  0  0  0
 13 17  2  0  0  0  0
 13 16  1  0  0  0  0
 14 12  1  0  0  0  0
 15 12  2  0  0  0  0
 16 14  2  0  0  0  0
 17 15  1  0  0  0  0
 18 19  1  0  0  0  0
 19 13  1  0  0  0  0
 20  9  2  0  0  0  0
 21  9  1  0  0  0  0
 22 20  1  0  0  0  0
 23 21  2  0  0  0  0
 24 23  1  0  0  0  0
 24 22  2  0  0  0  0
M  END
> <CdId>
2075

> <Mol Weight>
334.395

> <Formula>
C18H14N4OS

> <Click_ID>
CLK027_G07 __ __ 

$$$$
