CLK020_C05
 OpenBabel03181417022D

 25 27  0  0  0  0  0  0  0  0999 V2000
    3.8066    3.5821    0.0000 C   0  0  0  0  0  0  0  0  0  0  0  0
    3.5227    2.8126    0.0000 C   0  0  0  0  0  0  0  0  0  0  0  0
    4.6174    3.7288    0.0000 C   0  0  0  0  0  0  0  0  0  0  0  0
    2.6981    2.8126    0.0000 C   0  0  0  0  0  0  0  0  0  0  0  0
    4.8969    4.4938    0.0000 C   0  0  0  0  0  0  0  0  0  0  0  0
    5.1855    5.2679    0.0000 N   0  0  0  0  0  0  0  0  0  0  0  0
    4.1777    0.7237    0.0000 C   0  0  0  0  0  0  0  0  0  0  0  0
    3.4631    0.3115    0.0000 C   0  0  0  0  0  0  0  0  0  0  0  0
    3.9349    2.0980    0.0000 C   0  0  0  0  0  0  0  0  0  0  0  0
    5.2496    3.1974    0.0000 C   0  0  0  0  0  0  0  0  0  0  0  0
    2.2859    2.0980    0.0000 C   0  0  0  0  0  0  0  0  0  0  0  0
    3.5227    1.3834    0.0000 C   0  0  0  0  0  0  0  0  0  0  0  0
    2.6981    1.3834    0.0000 C   0  0  0  0  0  0  0  0  0  0  0  0
    5.1030    2.3866    0.0000 C   0  0  0  0  0  0  0  0  0  0  0  0
    6.0238    3.4814    0.0000 C   0  0  0  0  0  0  0  0  0  0  0  0
    6.5139    2.1392    0.0000 C   0  0  0  0  0  0  0  0  0  0  0  0
    5.7352    1.8506    0.0000 C   0  0  0  0  0  0  0  0  0  0  0  0
    6.6559    2.9500    0.0000 C   0  0  0  0  0  0  0  0  0  0  0  0
    7.1460    1.6032    0.0000 F   0  0  0  0  0  0  0  0  0  0  0  0
    4.7457    1.9514    0.0000 O   0  0  0  0  0  0  0  0  0  0  0  0
    4.8923    1.1360    0.0000 C   0  0  0  0  0  0  0  0  0  0  0  0
    2.2859    3.5272    0.0000 C   0  0  0  0  0  0  0  0  0  0  0  0
    1.4613    2.0980    0.0000 C   0  0  0  0  0  0  0  0  0  0  0  0
    1.4613    3.5272    0.0000 C   0  0  0  0  0  0  0  0  0  0  0  0
    1.0490    2.8126    0.0000 C   0  0  0  0  0  0  0  0  0  0  0  0
  2  1  1  0  0  0  0
  3  1  2  0  0  0  0
  4  2  1  0  0  0  0
  5  3  1  0  0  0  0
  6  5  3  0  0  0  0
  7 21  1  0  0  0  0
  8  7  3  0  0  0  0
  9  2  2  0  0  0  0
 10  3  1  0  0  0  0
 11  4  1  0  0  0  0
 11 13  1  0  0  0  0
 12  9  1  0  0  0  0
 13 12  2  0  0  0  0
 14 10  1  0  0  0  0
 15 10  2  0  0  0  0
 16 18  2  0  0  0  0
 16 17  1  0  0  0  0
 17 14  2  0  0  0  0
 18 15  1  0  0  0  0
 19 16  1  0  0  0  0
 20  9  1  0  0  0  0
 21 20  1  0  0  0  0
 22  4  2  0  0  0  0
 23 11  2  0  0  0  0
 23 25  1  0  0  0  0
 24 22  1  0  0  0  0
 25 24  2  0  0  0  0
M  END
> <CdId>
1500

> <Mol Weight>
327.3511

> <Formula>
C22H14FNO

> <Click_ID>
CLK020_C05 __ __ 

$$$$
