CLK025_D11
 OpenBabel03181417022D

 26 27  0  0  0  0  0  0  0  0999 V2000
    0.0241   -3.7228    0.0000 N   0  3  0  0  0  0  0  0  0  0  0  0
   -0.6984   -3.3066    0.0000 C   0  0  0  0  0  0  0  0  0  0  0  0
   -0.6984   -2.4739    0.0000 C   0  0  0  0  0  0  0  0  0  0  0  0
    0.7122    1.6550    0.0000 C   0  0  0  0  0  0  0  0  0  0  0  0
    1.4210    1.2558    0.0000 C   0  0  0  0  0  0  0  0  0  0  0  0
    0.0000    1.2558    0.0000 C   0  0  0  0  0  0  0  0  0  0  0  0
    1.4313    3.7160    0.0000 C   0  0  0  0  0  0  0  0  0  0  0  0
    1.4313    4.5521    0.0000 C   0  0  0  0  0  0  0  0  0  0  0  0
    0.0103   -1.2215    0.0000 N   0  0  0  0  0  0  0  0  0  0  0  0
    0.0241   -4.5521    0.0000 O   0  5  0  0  0  0  0  0  0  0  0  0
   -1.4245   -2.0576    0.0000 N   0  0  0  0  0  0  0  0  0  0  0  0
    0.7397   -3.3031    0.0000 O   0  0  0  0  0  0  0  0  0  0  0  0
    0.0206   -2.0506    0.0000 N   0  0  0  0  0  0  0  0  0  0  0  0
    1.4279    0.4404    0.0000 C   0  0  0  0  0  0  0  0  0  0  0  0
    0.0000    0.4404    0.0000 C   0  0  0  0  0  0  0  0  0  0  0  0
    0.7226    0.0172    0.0000 C   0  0  0  0  0  0  0  0  0  0  0  0
    0.7260   -0.8051    0.0000 C   0  0  0  0  0  0  0  0  0  0  0  0
    2.1367    1.6687    0.0000 I   0  0  0  0  0  0  0  0  0  0  0  0
    0.7157    2.4842    0.0000 O   0  0  0  0  0  0  0  0  0  0  0  0
   -0.7054    1.6550    0.0000 O   0  0  0  0  0  0  0  0  0  0  0  0
   -1.4245   -3.7228    0.0000 C   0  0  0  0  0  0  0  0  0  0  0  0
    1.4279    2.9005    0.0000 C   0  0  0  0  0  0  0  0  0  0  0  0
   -2.1402   -2.4739    0.0000 C   0  0  0  0  0  0  0  0  0  0  0  0
   -1.4141    1.2558    0.0000 C   0  0  0  0  0  0  0  0  0  0  0  0
   -2.1402   -3.3066    0.0000 C   0  0  0  0  0  0  0  0  0  0  0  0
   -2.1264    1.6447    0.0000 C   0  0  0  0  0  0  0  0  0  0  0  0
  2  1  1  0  0  0  0
  3  2  1  0  0  0  0
  4  6  2  0  0  0  0
  5 14  2  0  0  0  0
  5  4  1  0  0  0  0
  6 15  1  0  0  0  0
  7 22  1  0  0  0  0
  8  7  3  0  0  0  0
  9 13  1  0  0  0  0
 10  1  1  0  0  0  0
 11  3  2  0  0  0  0
 11 23  1  0  0  0  0
 12  1  2  0  0  0  0
 13  3  1  0  0  0  0
 14 16  1  0  0  0  0
 15 16  2  0  0  0  0
 16 17  1  0  0  0  0
 17  9  2  0  0  0  0
 18  5  1  0  0  0  0
 19  4  1  0  0  0  0
 20  6  1  0  0  0  0
 21  2  2  0  0  0  0
 22 19  1  0  0  0  0
 23 25  2  0  0  0  0
 24 20  1  0  0  0  0
 25 21  1  0  0  0  0
 26 24  1  0  0  0  0
M  END
> <CdId>
1896

> <Mol Weight>
466.2299

> <Formula>
C17H15IN4O4

> <Click_ID>
CLK025_D11 __ __ 

$$$$
