CLK003_B05
 OpenBabel03181417022D

 20 22  0  0  0  0  0  0  0  0999 V2000
    0.0898   -0.1899    0.0000 C   0  0  0  0  0  0  0  0  0  0  0  0
   -0.3935    0.4729    0.0000 C   0  0  0  0  0  0  0  0  0  0  0  0
   -0.3935   -0.8595    0.0000 N   0  0  0  0  0  0  0  0  0  0  0  0
    0.9113   -0.1035    0.0000 N   0  0  0  0  0  0  0  0  0  0  0  0
   -1.1772    0.2174    0.0000 C   0  0  0  0  0  0  0  0  0  0  0  0
   -0.0553    1.2254    0.0000 N   0  0  0  0  0  0  0  0  0  0  0  0
   -1.1806   -0.6076    0.0000 C   0  0  0  0  0  0  0  0  0  0  0  0
   -0.1380   -1.6535    0.0000 C   0  0  0  0  0  0  0  0  0  0  0  0
    1.2497    0.6524    0.0000 C   0  0  0  0  0  0  0  0  0  0  0  0
   -1.8917    0.6317    0.0000 C   0  0  0  0  0  0  0  0  0  0  0  0
    0.7663    1.3117    0.0000 N   0  0  0  0  0  0  0  0  0  0  0  0
   -1.8917   -1.0218    0.0000 C   0  0  0  0  0  0  0  0  0  0  0  0
   -0.6939   -2.2576    0.0000 C   0  0  0  0  0  0  0  0  0  0  0  0
    2.0746    0.7456    0.0000 S   0  0  0  0  0  0  0  0  0  0  0  0
   -2.6062    0.2174    0.0000 C   0  0  0  0  0  0  0  0  0  0  0  0
   -2.6097   -0.6076    0.0000 C   0  0  0  0  0  0  0  0  0  0  0  0
   -1.5223   -2.2576    0.0000 C   0  0  0  0  0  0  0  0  0  0  0  0
    2.4129    1.4947    0.0000 C   0  0  0  0  0  0  0  0  0  0  0  0
    3.2311    1.5845    0.0000 C   0  0  0  0  0  0  0  0  0  0  0  0
    3.8144    1.0011    0.0000 C   0  0  0  0  0  0  0  0  0  0  0  0
  1  2  2  0  0  0  0
  1  3  1  0  0  0  0
  1  4  1  0  0  0  0
  2  5  1  0  0  0  0
  2  6  1  0  0  0  0
  3  7  1  0  0  0  0
  3  8  1  0  0  0  0
  4  9  2  0  0  0  0
  5 10  1  0  0  0  0
  5  7  2  0  0  0  0
  6 11  2  0  0  0  0
  7 12  1  0  0  0  0
  8 13  1  0  0  0  0
  9 14  1  0  0  0  0
  9 11  1  0  0  0  0
 10 15  2  0  0  0  0
 12 16  2  0  0  0  0
 13 17  2  0  0  0  0
 14 18  1  0  0  0  0
 15 16  1  0  0  0  0
 18 19  1  0  0  0  0
 19 20  3  0  0  0  0
M  END
> <CdId>
174

> <Mol Weight>
280.348

> <Formula>
C15H12N4S

> <Click_ID>
CLK003_B05 __ __ 

$$$$
