CLK017_E07
 OpenBabel03181417022D

 29 31  0  0  0  0  0  0  0  0999 V2000
    5.6248   -3.6557    0.0000 N    0  0  0  0  0  0  0  0  0  0  0  0
    4.9144   -4.0670    0.0000 C    0  0  0  0  0  0  0  0  0  0  0  0
    5.4628   -2.8456    0.0000 C    0  0  0  0  0  0  0  0  0  0  0  0
    4.6402   -2.7542    0.0000 C    0  0  0  0  0  0  0  0  0  0  0  0
    4.3037   -3.5061    0.0000 S    0  0  0  0  0  0  0  0  0  0  0  0
   -2.7749   -2.7542    0.0000 N    0  0  0  0  0  0  0  0  0  0  0  0
    4.2290   -2.0356    0.0000 C    0  0  0  0  0  0  0  0  0  0  0  0
    6.4680   -4.8147    0.0000 C    0  0  0  0  0  0  0  0  0  0  0  0
   -1.9524   -2.7542    0.0000 C    0  0  0  0  0  0  0  0  0  0  0  0
    6.4598   -5.6372    0.0000 C    0  0  0  0  0  0  0  0  0  0  0  0
    2.1685   -2.7459    0.0000 C    0  0  0  0  0  0  0  0  0  0  0  0
   -3.1862   -2.0438    0.0000 O    0  0  0  0  0  0  0  0  0  0  0  0
    4.8230   -4.8895    0.0000 O    0  0  0  0  0  0  0  0  0  0  0  0
   -3.1862   -3.4646    0.0000 O    0  0  0  0  0  0  0  0  0  0  0  0
    6.0194   -2.2350    0.0000 O    0  0  0  0  0  0  0  0  0  0  0  0
    1.7489   -2.0356    0.0000 C    0  0  0  0  0  0  0  0  0  0  0  0
    3.4064   -2.0356    0.0000 C    0  0  0  0  0  0  0  0  0  0  0  0
    6.3850   -3.9922    0.0000 C    0  0  0  0  0  0  0  0  0  0  0  0
    2.9952   -2.7459    0.0000 C    0  0  0  0  0  0  0  0  0  0  0  0
    0.9264   -2.0356    0.0000 O    0  0  0  0  0  0  0  0  0  0  0  0
   -1.5329   -2.0438    0.0000 C    0  0  0  0  0  0  0  0  0  0  0  0
   -1.5329   -3.4646    0.0000 C    0  0  0  0  0  0  0  0  0  0  0  0
    2.1685   -1.3210    0.0000 C    0  0  0  0  0  0  0  0  0  0  0  0
    1.7489   -3.4563    0.0000 Cl   0  0  0  0  0  0  0  0  0  0  0  0
    2.9952   -1.3210    0.0000 C    0  0  0  0  0  0  0  0  0  0  0  0
    0.5151   -2.7542    0.0000 C    0  0  0  0  0  0  0  0  0  0  0  0
   -0.3074   -2.7542    0.0000 C    0  0  0  0  0  0  0  0  0  0  0  0
   -0.7104   -3.4646    0.0000 C    0  0  0  0  0  0  0  0  0  0  0  0
   -0.7186   -2.0438    0.0000 C    0  0  0  0  0  0  0  0  0  0  0  0
  2  1  1  0  0  0  0
  3  1  1  0  0  0  0
  4  3  1  0  0  0  0
  5  2  1  0  0  0  0
  5  4  1  0  0  0  0
  6  9  1  0  0  0  0
  7  4  2  0  0  0  0
  8 18  1  0  0  0  0
  9 21  2  0  0  0  0
 10  8  3  0  0  0  0
 11 19  2  0  0  0  0
 11 16  1  0  0  0  0
 12  6  1  0  0  0  0
 13  2  2  0  0  0  0
 14  6  2  0  0  0  0
 15  3  2  0  0  0  0
 16 23  2  0  0  0  0
 17  7  1  0  0  0  0
 18  1  1  0  0  0  0
 19 17  1  0  0  0  0
 20 16  1  0  0  0  0
 21 29  1  0  0  0  0
 22 28  2  0  0  0  0
 22  9  1  0  0  0  0
 23 25  1  0  0  0  0
 24 11  1  0  0  0  0
 25 17  2  0  0  0  0
 26 20  1  0  0  0  0
 27 26  1  0  0  0  0
 28 27  1  0  0  0  0
 29 27  2  0  0  0  0
M  END
> <CdId>
1282

> <Mol Weight>
428.846

> <Formula>
C20H13ClN2O5S

> <Click_ID>
CLK017_E07 __ __ 

$$$$
