CLK016_C09
 OpenBabel03181417022D

 26 28  0  0  0  0  0  0  0  0999 V2000
    1.5667   -0.8167    0.0000 N    0  0  0  0  0  0  0  0  0  0  0  0
    1.8250   -1.6042    0.0000 C    0  0  0  0  0  0  0  0  0  0  0  0
    2.9042   -0.8167    0.0000 C    0  0  0  0  0  0  0  0  0  0  0  0
    2.2375   -0.3292    0.0000 C    0  0  0  0  0  0  0  0  0  0  0  0
    2.6500   -1.6042    0.0000 S    0  0  0  0  0  0  0  0  0  0  0  0
    2.7250    3.8333    0.0000 C    0  0  0  0  0  0  0  0  0  0  0  0
    3.6917   -0.5625    0.0000 C    0  0  0  0  0  0  0  0  0  0  0  0
    3.7167    1.5708    0.0000 C    0  0  0  0  0  0  0  0  0  0  0  0
    3.3042    0.8583    0.0000 O    0  0  0  0  0  0  0  0  0  0  0  0
    3.8542    0.2458    0.0000 C    0  0  0  0  0  0  0  0  0  0  0  0
    2.2417    3.1708    0.0000 C    0  0  0  0  0  0  0  0  0  0  0  0
    2.3917    4.5792    0.0000 C    0  0  0  0  0  0  0  0  0  0  0  0
    4.5292    1.4000    0.0000 C    0  0  0  0  0  0  0  0  0  0  0  0
    3.3917    2.3333    0.0000 C    0  0  0  0  0  0  0  0  0  0  0  0
    3.5417    3.7458    0.0000 C    0  0  0  0  0  0  0  0  0  0  0  0
    0.6125    0.2458    0.0000 C    0  0  0  0  0  0  0  0  0  0  0  0
    4.6167    0.5833    0.0000 C    0  0  0  0  0  0  0  0  0  0  0  0
    2.5750    2.4083    0.0000 C    0  0  0  0  0  0  0  0  0  0  0  0
    0.3917    1.0458    0.0000 C    0  0  0  0  0  0  0  0  0  0  0  0
    1.3375   -2.2667    0.0000 O    0  0  0  0  0  0  0  0  0  0  0  0
    2.2292    0.4958    0.0000 O    0  0  0  0  0  0  0  0  0  0  0  0
    0.7875   -0.5625    0.0000 C    0  0  0  0  0  0  0  0  0  0  0  0
    3.8750    2.9958    0.0000 C    0  0  0  0  0  0  0  0  0  0  0  0
    1.5750    4.6667    0.0000 O    0  0  0  0  0  0  0  0  0  0  0  0
    1.4167    3.2583    0.0000 Cl   0  0  0  0  0  0  0  0  0  0  0  0
    2.8792    5.2500    0.0000 O    0  0  0  0  0  0  0  0  0  0  0  0
  2  1  1  0  0  0  0
  3  4  1  0  0  0  0
  4  1  1  0  0  0  0
  5  2  1  0  0  0  0
  5  3  1  0  0  0  0
  6 15  2  0  0  0  0
  7  3  2  0  0  0  0
  8  9  1  0  0  0  0
  9 10  1  0  0  0  0
 10  7  1  0  0  0  0
 11 18  2  0  0  0  0
 11  6  1  0  0  0  0
 12  6  1  0  0  0  0
 13 17  1  0  0  0  0
 13  8  2  0  0  0  0
 14  8  1  0  0  0  0
 15 23  1  0  0  0  0
 16 22  1  0  0  0  0
 17 10  2  0  0  0  0
 18 14  1  0  0  0  0
 19 16  3  0  0  0  0
 20  2  2  0  0  0  0
 21  4  2  0  0  0  0
 22  1  1  0  0  0  0
 23 14  2  0  0  0  0
 24 12  2  0  0  0  0
 25 11  1  0  0  0  0
 26 12  1  0  0  0  0
M  END
> <CdId>
1184

> <Mol Weight>
387.794

> <Formula>
C18H10ClNO5S

> <Click_ID>
CLK016_C09 __ __ 

$$$$
