CLK035_H03
 OpenBabel03181417022D

 26 28  0  0  0  0  0  0  0  0999 V2000
   -4.5958    2.5583    0.0000 C   0  0  0  0  0  0  0  0  0  0  0  0
   -3.8625    2.9833    0.0000 N   0  0  0  0  0  0  0  0  0  0  0  0
   -4.6833    1.7333    0.0000 N   0  0  0  0  0  0  0  0  0  0  0  0
   -5.3208    2.8958    0.0000 S   0  0  0  0  0  0  0  0  0  0  0  0
   -5.4875    1.5833    0.0000 C   0  0  0  0  0  0  0  0  0  0  0  0
   -5.8958    2.3000    0.0000 C   0  0  0  0  0  0  0  0  0  0  0  0
   -3.8708    3.8000    0.0000 C   0  0  0  0  0  0  0  0  0  0  0  0
   -4.2583    0.3583    0.0000 C   0  0  0  0  0  0  0  0  0  0  0  0
   -4.4458   -0.4542    0.0000 C   0  0  0  0  0  0  0  0  0  0  0  0
   -3.1583    4.2125    0.0000 C   0  0  0  0  0  0  0  0  0  0  0  0
   -5.9208    0.8833    0.0000 C   0  0  0  0  0  0  0  0  0  0  0  0
   -4.5833    4.2167    0.0000 O   0  0  0  0  0  0  0  0  0  0  0  0
   -4.0708    1.1625    0.0000 C   0  0  0  0  0  0  0  0  0  0  0  0
   -2.4333    3.7958    0.0000 C   0  0  0  0  0  0  0  0  0  0  0  0
   -3.1583    5.0167    0.0000 C   0  0  0  0  0  0  0  0  0  0  0  0
   -1.7250    5.0292    0.0000 C   0  0  0  0  0  0  0  0  0  0  0  0
   -6.7042    2.3208    0.0000 C   0  0  0  0  0  0  0  0  0  0  0  0
   -1.7208    4.2042    0.0000 C   0  0  0  0  0  0  0  0  0  0  0  0
   -2.4375    5.4417    0.0000 C   0  0  0  0  0  0  0  0  0  0  0  0
   -5.5208    0.1458    0.0000 O   0  0  0  0  0  0  0  0  0  0  0  0
   -1.0083    5.4417    0.0000 O   0  0  0  0  0  0  0  0  0  0  0  0
   -7.1417    1.6208    0.0000 C   0  0  0  0  0  0  0  0  0  0  0  0
   -6.7292    0.8875    0.0000 C   0  0  0  0  0  0  0  0  0  0  0  0
   -0.2875    5.0292    0.0000 C   0  0  0  0  0  0  0  0  0  0  0  0
   -5.9583   -0.5542    0.0000 C   0  0  0  0  0  0  0  0  0  0  0  0
    0.4292    5.4417    0.0000 C   0  0  0  0  0  0  0  0  0  0  0  0
  2  1  2  0  0  0  0
  3  1  1  0  0  0  0
  4  1  1  0  0  0  0
  5  3  1  0  0  0  0
  6  4  1  0  0  0  0
  6  5  2  0  0  0  0
  7  2  1  0  0  0  0
  8 13  1  0  0  0  0
  9  8  3  0  0  0  0
 10  7  1  0  0  0  0
 11  5  1  0  0  0  0
 12  7  2  0  0  0  0
 13  3  1  0  0  0  0
 14 10  2  0  0  0  0
 15 10  1  0  0  0  0
 16 19  1  0  0  0  0
 16 18  2  0  0  0  0
 17  6  1  0  0  0  0
 18 14  1  0  0  0  0
 19 15  2  0  0  0  0
 20 11  1  0  0  0  0
 21 16  1  0  0  0  0
 22 17  2  0  0  0  0
 23 11  2  0  0  0  0
 23 22  1  0  0  0  0
 24 21  1  0  0  0  0
 25 20  1  0  0  0  0
 26 24  1  0  0  0  0
M  END
> <CdId>
2717

> <Mol Weight>
366.434

> <Formula>
C20H18N2O3S

> <Click_ID>
CLK035_H03 __ __ 

$$$$
