CLK009_C07
 OpenBabel03181417022D

 22 22  0  0  0  0  0  0  0  0999 V2000
   -2.4681   -0.6273    0.0000 C   0  0  0  0  0  0  0  0  0  0  0  0
   -2.4681   -1.4586    0.0000 N   0  3  0  0  0  0  0  0  0  0  0  0
   -3.9045    1.0355    0.0000 N   0  3  0  0  0  0  0  0  0  0  0  0
   -3.1807   -0.2116    0.0000 C   0  0  0  0  0  0  0  0  0  0  0  0
   -3.1807    0.6198    0.0000 C   0  0  0  0  0  0  0  0  0  0  0  0
    3.9639   -0.2264    0.0000 C   0  0  0  0  0  0  0  0  0  0  0  0
   -1.7555   -0.2116    0.0000 C   0  0  0  0  0  0  0  0  0  0  0  0
    4.6653   -0.6384    0.0000 C   0  0  0  0  0  0  0  0  0  0  0  0
   -3.1807   -1.8595    0.0000 O   0  5  0  0  0  0  0  0  0  0  0  0
   -4.6059    0.6198    0.0000 O   0  5  0  0  0  0  0  0  0  0  0  0
   -1.7555   -1.8521    0.0000 O   0  0  0  0  0  0  0  0  0  0  0  0
   -3.9045    1.8668    0.0000 O   0  0  0  0  0  0  0  0  0  0  0  0
    1.8260   -0.6495    0.0000 C   0  0  0  0  0  0  0  0  0  0  0  0
   -2.4681    1.0355    0.0000 C   0  0  0  0  0  0  0  0  0  0  0  0
    1.8260   -1.4697    0.0000 O   0  0  0  0  0  0  0  0  0  0  0  0
   -1.7555    0.6198    0.0000 C   0  0  0  0  0  0  0  0  0  0  0  0
   -1.0429   -0.6273    0.0000 N   0  0  0  0  0  0  0  0  0  0  0  0
    2.5387   -0.2376    0.0000 O   0  0  0  0  0  0  0  0  0  0  0  0
    3.2550   -0.6384    0.0000 C   0  0  0  0  0  0  0  0  0  0  0  0
    1.1134   -0.2264    0.0000 C   0  0  0  0  0  0  0  0  0  0  0  0
   -0.3229   -0.2227    0.0000 C   0  0  0  0  0  0  0  0  0  0  0  0
    0.3897   -0.6384    0.0000 C   0  0  0  0  0  0  0  0  0  0  0  0
  2  1  1  0  0  0  0
  3  5  1  0  0  0  0
  4  1  2  0  0  0  0
  5  4  1  0  0  0  0
  6 19  1  0  0  0  0
  7  1  1  0  0  0  0
  8  6  3  0  0  0  0
  9  2  1  0  0  0  0
 10  3  1  0  0  0  0
 11  2  2  0  0  0  0
 12  3  2  0  0  0  0
 13 20  1  0  0  0  0
 14 16  1  0  0  0  0
 14  5  2  0  0  0  0
 15 13  2  0  0  0  0
 16  7  2  0  0  0  0
 17  7  1  0  0  0  0
 18 13  1  0  0  0  0
 19 18  1  0  0  0  0
 20 22  1  0  0  0  0
 21 17  1  0  0  0  0
 22 21  1  0  0  0  0
M  END
> <CdId>
622

> <Mol Weight>
307.2588

> <Formula>
C13H13N3O6

> <Click_ID>
CLK009_C07 __ __ 

$$$$
