CLK019_E06
 OpenBabel03181417022D

 21 21  0  0  0  0  0  0  0  0999 V2000
    5.8039    3.9120    0.0000 Cl   0  0  0  0  0  0  0  0  0  0  0  0
    9.1021    0.7237    0.0000 C    0  0  0  0  0  0  0  0  0  0  0  0
    9.9266    0.7237    0.0000 C    0  0  0  0  0  0  0  0  0  0  0  0
    6.6284    2.1529    0.0000 C    0  0  0  0  0  0  0  0  0  0  0  0
    7.0407    1.4383    0.0000 C    0  0  0  0  0  0  0  0  0  0  0  0
    5.8039    2.1529    0.0000 C    0  0  0  0  0  0  0  0  0  0  0  0
    4.1548    2.1529    0.0000 N    0  0  0  0  0  0  0  0  0  0  0  0
    6.6284    0.7237    0.0000 C    0  0  0  0  0  0  0  0  0  0  0  0
    5.3916    1.4383    0.0000 C    0  0  0  0  0  0  0  0  0  0  0  0
    3.3303    2.1529    0.0000 C    0  0  0  0  0  0  0  0  0  0  0  0
    7.0407    2.8675    0.0000 Br   0  0  0  0  0  0  0  0  0  0  0  0
    4.5671    1.4383    0.0000 C    0  0  0  0  0  0  0  0  0  0  0  0
    1.6812    2.1529    0.0000 C    0  0  0  0  0  0  0  0  0  0  0  0
    5.8039    0.7237    0.0000 C    0  0  0  0  0  0  0  0  0  0  0  0
    0.8566    2.1529    0.0000 F    0  0  0  0  0  0  0  0  0  0  0  0
    7.8653    1.4383    0.0000 O    0  0  0  0  0  0  0  0  0  0  0  0
    2.9180    2.8675    0.0000 C    0  0  0  0  0  0  0  0  0  0  0  0
    2.9180    1.4383    0.0000 C    0  0  0  0  0  0  0  0  0  0  0  0
    2.0935    1.4383    0.0000 C    0  0  0  0  0  0  0  0  0  0  0  0
    2.0935    2.8675    0.0000 C    0  0  0  0  0  0  0  0  0  0  0  0
    8.2775    0.7237    0.0000 C    0  0  0  0  0  0  0  0  0  0  0  0
  3  2  3  0  0  0  0
  4  5  2  0  0  0  0
  5 16  1  0  0  0  0
  6  4  1  0  0  0  0
  7 12  1  0  0  0  0
  8  5  1  0  0  0  0
  9 14  1  0  0  0  0
  9  6  2  0  0  0  0
 10  7  1  0  0  0  0
 11  4  1  0  0  0  0
 12  9  1  0  0  0  0
 13 20  1  0  0  0  0
 13 19  2  0  0  0  0
 14  8  2  0  0  0  0
 15 13  1  0  0  0  0
 16 21  1  0  0  0  0
 17 10  1  0  0  0  0
 18 10  2  0  0  0  0
 19 18  1  0  0  0  0
 20 17  2  0  0  0  0
 21  2  1  0  0  0  0
M  END
> <CdId>
1441

> <Mol Weight>
370.644

> <Formula>
C16H14BrClFNO

> <Click_ID>
CLK019_E06 __ __ 

$$$$
