CLK010_A07
 OpenBabel03181417022D

 24 25  0  0  0  0  0  0  0  0999 V2000
   -0.0877    2.0852    0.0000 C   0  0  0  0  0  0  0  0  0  0  0  0
    0.5007    1.5123    0.0000 N   0  0  0  0  0  0  0  0  0  0  0  0
   -0.8826    1.8839    0.0000 N   0  0  0  0  0  0  0  0  0  0  0  0
   -0.5368    0.4955    0.0000 N   0  0  0  0  0  0  0  0  0  0  0  0
    3.3808    3.6182    0.0000 N   0  3  0  0  0  0  0  0  0  0  0  0
   -1.1097    1.0942    0.0000 C   0  0  0  0  0  0  0  0  0  0  0  0
    0.2839    0.7226    0.0000 C   0  0  0  0  0  0  0  0  0  0  0  0
    2.5602    3.4685    0.0000 C   0  0  0  0  0  0  0  0  0  0  0  0
   -3.2827    1.3884    0.0000 C   0  0  0  0  0  0  0  0  0  0  0  0
    1.2440   -1.2388    0.0000 C   0  0  0  0  0  0  0  0  0  0  0  0
    0.1600    2.8749    0.0000 N   0  0  0  0  0  0  0  0  0  0  0  0
   -4.1034    1.2388    0.0000 C   0  0  0  0  0  0  0  0  0  0  0  0
    1.8427   -1.8014    0.0000 C   0  0  0  0  0  0  0  0  0  0  0  0
    3.9228    2.9988    0.0000 O   0  5  0  0  0  0  0  0  0  0  0  0
    3.6750    4.4131    0.0000 O   0  0  0  0  0  0  0  0  0  0  0  0
    1.9665    4.0879    0.0000 C   0  0  0  0  0  0  0  0  0  0  0  0
    2.3124    2.6788    0.0000 C   0  0  0  0  0  0  0  0  0  0  0  0
    0.9498    3.0969    0.0000 C   0  0  0  0  0  0  0  0  0  0  0  0
    0.8723    0.1032    0.0000 O   0  0  0  0  0  0  0  0  0  0  0  0
   -1.9201    0.9239    0.0000 O   0  0  0  0  0  0  0  0  0  0  0  0
    1.5227    2.5033    0.0000 C   0  0  0  0  0  0  0  0  0  0  0  0
    1.1768    3.8659    0.0000 C   0  0  0  0  0  0  0  0  0  0  0  0
   -2.4723    1.5639    0.0000 C   0  0  0  0  0  0  0  0  0  0  0  0
    0.6556   -0.6658    0.0000 C   0  0  0  0  0  0  0  0  0  0  0  0
  2  1  1  0  0  0  0
  3  1  2  0  0  0  0
  4  6  2  0  0  0  0
  5  8  1  0  0  0  0
  6  3  1  0  0  0  0
  7  2  2  0  0  0  0
  7  4  1  0  0  0  0
  8 16  2  0  0  0  0
  8 17  1  0  0  0  0
  9 23  1  0  0  0  0
 10 24  1  0  0  0  0
 11  1  1  0  0  0  0
 12  9  3  0  0  0  0
 13 10  3  0  0  0  0
 14  5  1  0  0  0  0
 15  5  2  0  0  0  0
 16 22  1  0  0  0  0
 17 21  2  0  0  0  0
 18 11  1  0  0  0  0
 19  7  1  0  0  0  0
 20  6  1  0  0  0  0
 21 18  1  0  0  0  0
 22 18  2  0  0  0  0
 23 20  1  0  0  0  0
 24 19  1  0  0  0  0
M  END
> <CdId>
682

> <Mol Weight>
325.2789

> <Formula>
C15H11N5O4

> <Click_ID>
CLK010_A07 __ __ 

$$$$
