CLK045G08
 OpenBabel03181417022D

 20 21  0  0  0  0  0  0  0  0999 V2000
    1.1750    0.0625    0.0000 N   0  0  0  0  0  0  0  0  0  0  0  0
   -2.3958   -2.0000    0.0000 C   0  0  0  0  0  0  0  0  0  0  0  0
    0.4625    0.4750    0.0000 C   0  0  0  0  0  0  0  0  0  0  0  0
   -2.3958   -2.8250    0.0000 C   0  0  0  0  0  0  0  0  0  0  0  0
    1.8917    0.4750    0.0000 C   0  0  3  0  0  0  0  0  0  0  0  0
   -0.9667    0.4750    0.0000 N   0  0  0  0  0  0  0  0  0  0  0  0
    0.4625    1.3000    0.0000 O   0  0  0  0  0  0  0  0  0  0  0  0
   -2.3958   -1.1750    0.0000 C   0  0  0  0  0  0  0  0  0  0  0  0
   -0.2542    0.0625    0.0000 C   0  0  0  0  0  0  0  0  0  0  0  0
    2.6042    0.0625    0.0000 C   0  0  3  0  0  0  0  0  0  0  0  0
   -1.6792    0.0625    0.0000 C   0  0  0  0  0  0  0  0  0  0  0  0
   -1.6792   -0.7625    0.0000 C   0  0  0  0  0  0  0  0  0  0  0  0
   -3.1083    0.0625    0.0000 C   0  0  0  0  0  0  0  0  0  0  0  0
    1.8917    1.3000    0.0000 C   0  0  0  0  0  0  0  0  0  0  0  0
   -3.1083   -0.7625    0.0000 C   0  0  0  0  0  0  0  0  0  0  0  0
   -2.3958    0.4750    0.0000 C   0  0  0  0  0  0  0  0  0  0  0  0
    2.6042   -0.7625    0.0000 C   0  0  0  0  0  0  0  0  0  0  0  0
    3.3208    0.4750    0.0000 C   0  0  0  0  0  0  0  0  0  0  0  0
    2.6042    1.7125    0.0000 C   0  0  0  0  0  0  0  0  0  0  0  0
    3.3208    1.3000    0.0000 C   0  0  0  0  0  0  0  0  0  0  0  0
  2  8  1  0  0  0  0
  3  1  1  0  0  0  0
  4  2  3  0  0  0  0
  5  1  1  0  0  0  0
  6  9  1  0  0  0  0
  7  3  2  0  0  0  0
  8 12  1  0  0  0  0
  9  3  1  0  0  0  0
 10  5  1  0  0  0  0
 11  6  1  0  0  0  0
 12 11  2  0  0  0  0
 13 16  2  0  0  0  0
 14  5  1  0  0  0  0
 15  8  2  0  0  0  0
 15 13  1  0  0  0  0
 16 11  1  0  0  0  0
 17 10  1  0  0  0  0
 18 10  1  0  0  0  0
 19 14  1  0  0  0  0
 19 20  1  0  0  0  0
 20 18  1  0  0  0  0
M  END
> <CdId>
3463

> <Mol Weight>
270.3694

> <Formula>
C17H22N2O

> <Click_ID>
CLK045G08 __ __ 

$$$$
