CLK046F08
 OpenBabel03181417022D

 23 25  0  0  0  0  0  0  0  0999 V2000
   -0.9333    0.0375    0.0000 S   0  0  0  0  0  0  0  0  0  0  0  0
   -0.9333   -0.7875    0.0000 C   0  0  0  0  0  0  0  0  0  0  0  0
   -0.2208   -1.2000    0.0000 C   0  0  0  0  0  0  0  0  0  0  0  0
    0.4958   -0.7875    0.0000 N   0  0  0  0  0  0  0  0  0  0  0  0
   -0.9333    0.8625    0.0000 N   0  0  0  0  0  0  0  0  0  0  0  0
   -0.1083    0.0375    0.0000 O   0  0  0  0  0  0  0  0  0  0  0  0
   -1.7583    0.0375    0.0000 O   0  0  0  0  0  0  0  0  0  0  0  0
    0.4958    3.3375    0.0000 C   0  0  0  0  0  0  0  0  0  0  0  0
   -0.2208   -2.0250    0.0000 C   0  0  0  0  0  0  0  0  0  0  0  0
    0.4958    4.1583    0.0000 C   0  0  0  0  0  0  0  0  0  0  0  0
   -0.2208    1.2750    0.0000 C   0  0  0  0  0  0  0  0  0  0  0  0
    0.4958   -2.4375    0.0000 C   0  0  0  0  0  0  0  0  0  0  0  0
    1.2083   -1.2000    0.0000 C   0  0  0  0  0  0  0  0  0  0  0  0
    0.4958    2.5125    0.0000 C   0  0  0  0  0  0  0  0  0  0  0  0
   -0.2208    2.1000    0.0000 C   0  0  0  0  0  0  0  0  0  0  0  0
   -1.6500   -1.2000    0.0000 C   0  0  0  0  0  0  0  0  0  0  0  0
    1.2083   -2.0250    0.0000 C   0  0  0  0  0  0  0  0  0  0  0  0
   -0.9333   -2.4375    0.0000 C   0  0  0  0  0  0  0  0  0  0  0  0
   -1.6500   -2.0250    0.0000 C   0  0  0  0  0  0  0  0  0  0  0  0
    1.2083    1.2750    0.0000 C   0  0  0  0  0  0  0  0  0  0  0  0
    0.4958    0.8625    0.0000 C   0  0  0  0  0  0  0  0  0  0  0  0
    1.2083    2.1000    0.0000 C   0  0  0  0  0  0  0  0  0  0  0  0
    1.9250   -2.4375    0.0000 C   0  0  0  0  0  0  0  0  0  0  0  0
  2  1  1  0  0  0  0
  3  2  1  0  0  0  0
  4  3  1  0  0  0  0
  5  1  1  0  0  0  0
  6  1  2  0  0  0  0
  7  1  2  0  0  0  0
  8 14  1  0  0  0  0
  9  3  2  0  0  0  0
  9 18  1  0  0  0  0
 10  8  3  0  0  0  0
 11  5  1  0  0  0  0
 12  9  1  0  0  0  0
 13  4  2  0  0  0  0
 13 17  1  0  0  0  0
 14 15  1  0  0  0  0
 15 11  2  0  0  0  0
 16  2  2  0  0  0  0
 17 12  2  0  0  0  0
 18 19  2  0  0  0  0
 19 16  1  0  0  0  0
 20 21  2  0  0  0  0
 21 11  1  0  0  0  0
 22 14  2  0  0  0  0
 22 20  1  0  0  0  0
 23 17  1  0  0  0  0
M  END
> <CdId>
3542

> <Mol Weight>
322.381

> <Formula>
C18H14N2O2S

> <Click_ID>
CLK046F08 __ __ 

$$$$
