CLK049B10
 OpenBabel03181417022D

 22 24  0  0  0  0  0  0  0  0999 V2000
    0.8458   -0.3875    0.0000 N   0  0  0  0  0  0  0  0  0  0  0  0
    0.8458    0.9500    0.0000 C   0  0  3  0  0  0  0  0  0  0  0  0
    0.3625    0.2792    0.0000 C   0  0  0  0  0  0  0  0  0  0  0  0
    1.6292   -0.1333    0.0000 C   0  0  0  0  0  0  0  0  0  0  0  0
    1.6292    0.6917    0.0000 N   0  0  0  0  0  0  0  0  0  0  0  0
    0.0625    1.2042    0.0000 C   0  0  0  0  0  0  0  0  0  0  0  0
    0.5917   -1.1708    0.0000 C   0  0  0  0  0  0  0  0  0  0  0  0
    1.3333    1.6167    0.0000 C   0  0  0  0  0  0  0  0  0  0  0  0
   -1.5333   -3.0833    0.0000 C   0  0  0  0  0  0  0  0  0  0  0  0
   -1.7875   -3.8667    0.0000 C   0  0  0  0  0  0  0  0  0  0  0  0
   -0.2167   -1.3417    0.0000 C   0  0  0  0  0  0  0  0  0  0  0  0
    2.3000   -0.6167    0.0000 O   0  0  0  0  0  0  0  0  0  0  0  0
   -0.4625    0.2792    0.0000 O   0  0  0  0  0  0  0  0  0  0  0  0
    0.0625    2.0292    0.0000 C   0  0  0  0  0  0  0  0  0  0  0  0
    0.8458    2.2833    0.0000 C   0  0  0  0  0  0  0  0  0  0  0  0
   -0.7667   -0.7292    0.0000 O   0  0  0  0  0  0  0  0  0  0  0  0
   -0.4708   -2.1292    0.0000 N   0  0  0  0  0  0  0  0  0  0  0  0
   -1.2792   -2.3000    0.0000 C   0  0  0  0  0  0  0  0  0  0  0  0
   -0.6542    0.7917    0.0000 C   0  0  0  0  0  0  0  0  0  0  0  0
   -0.6542    2.4417    0.0000 C   0  0  0  0  0  0  0  0  0  0  0  0
   -1.3667    1.2042    0.0000 C   0  0  0  0  0  0  0  0  0  0  0  0
   -1.3667    2.0292    0.0000 C   0  0  0  0  0  0  0  0  0  0  0  0
  2  3  1  0  0  0  0
  2  5  1  0  0  0  0
  3  1  1  0  0  0  0
  4  1  1  0  0  0  0
  5  4  1  0  0  0  0
  6  2  1  0  0  0  0
  7  1  1  0  0  0  0
  8  2  1  0  0  0  0
  9 18  1  0  0  0  0
 10  9  3  0  0  0  0
 11  7  1  0  0  0  0
 12  4  2  0  0  0  0
 13  3  2  0  0  0  0
 14  6  2  0  0  0  0
 14 15  1  0  0  0  0
 15  8  1  0  0  0  0
 16 11  2  0  0  0  0
 17 11  1  0  0  0  0
 18 17  1  0  0  0  0
 19  6  1  0  0  0  0
 20 14  1  0  0  0  0
 21 19  2  0  0  0  0
 21 22  1  0  0  0  0
 22 20  2  0  0  0  0
M  END
> <CdId>
3794

> <Mol Weight>
297.3086

> <Formula>
C16H15N3O3

> <Click_ID>
CLK049B10 __ __ 

$$$$
