CLK019_A04
 OpenBabel03181417022D

 32 34  0  0  0  0  0  0  0  0999 V2000
    4.8388   -9.3082    0.0000 C    0  0  0  0  0  0  0  0  0  0  0  0
    5.5437   -9.7158    0.0000 C    0  0  3  0  0  0  0  0  0  0  0  0
    4.1434   -9.7302    0.0000 C    0  0  0  0  0  0  0  0  0  0  0  0
    4.8483  -10.9483    0.0000 C    0  0  0  0  0  0  0  0  0  0  0  0
    4.1434  -10.5359    0.0000 N    0  0  0  0  0  0  0  0  0  0  0  0
    5.5581  -10.5359    0.0000 N    0  0  0  0  0  0  0  0  0  0  0  0
    6.2582   -9.2986    0.0000 C    0  0  0  0  0  0  0  0  0  0  0  0
    4.8388   -8.4930    0.0000 C    0  0  0  0  0  0  0  0  0  0  0  0
    7.6873   -8.4642    0.0000 C    0  0  0  0  0  0  0  0  0  0  0  0
    6.9680   -8.0470    0.0000 C    0  0  0  0  0  0  0  0  0  0  0  0
    7.6873   -9.2842    0.0000 C    0  0  0  0  0  0  0  0  0  0  0  0
    6.2438   -8.4738    0.0000 C    0  0  0  0  0  0  0  0  0  0  0  0
    6.9775   -9.7110    0.0000 C    0  0  0  0  0  0  0  0  0  0  0  0
    9.1116   -6.8049    0.0000 C    0  0  0  0  0  0  0  0  0  0  0  0
    4.1338   -8.1045    0.0000 N    0  0  0  0  0  0  0  0  0  0  0  0
    9.8261   -6.3925    0.0000 C    0  0  0  0  0  0  0  0  0  0  0  0
    4.8531  -11.7587    0.0000 S    0  0  0  0  0  0  0  0  0  0  0  0
    5.5437   -8.0853    0.0000 O    0  0  0  0  0  0  0  0  0  0  0  0
    6.9680   -7.2126    0.0000 Br   0  0  0  0  0  0  0  0  0  0  0  0
    8.4018   -8.0470    0.0000 O    0  0  0  0  0  0  0  0  0  0  0  0
    4.1194   -7.2797    0.0000 C    0  0  0  0  0  0  0  0  0  0  0  0
    8.4210   -9.6966    0.0000 O    0  0  0  0  0  0  0  0  0  0  0  0
    3.4289   -9.3274    0.0000 C    0  0  0  0  0  0  0  0  0  0  0  0
    3.4240   -6.8673    0.0000 C    0  0  0  0  0  0  0  0  0  0  0  0
    8.3923   -7.2269    0.0000 C    0  0  0  0  0  0  0  0  0  0  0  0
    8.4210  -10.5310    0.0000 C    0  0  0  0  0  0  0  0  0  0  0  0
    3.4145   -6.0568    0.0000 C    0  0  0  0  0  0  0  0  0  0  0  0
    2.7095   -7.2845    0.0000 C    0  0  0  0  0  0  0  0  0  0  0  0
    9.1499  -10.9387    0.0000 C    0  0  0  0  0  0  0  0  0  0  0  0
    2.7095   -5.6396    0.0000 C    0  0  0  0  0  0  0  0  0  0  0  0
    1.9997   -6.8817    0.0000 C    0  0  0  0  0  0  0  0  0  0  0  0
    1.9902   -6.0472    0.0000 C    0  0  0  0  0  0  0  0  0  0  0  0
  2  1  1  0  0  0  0
  3  1  2  0  0  0  0
  4  5  1  0  0  0  0
  5  3  1  0  0  0  0
  6  2  1  0  0  0  0
  6  4  1  0  0  0  0
  7  2  1  0  0  0  0
  8  1  1  0  0  0  0
  9 11  2  0  0  0  0
 10 12  2  0  0  0  0
 10  9  1  0  0  0  0
 11 13  1  0  0  0  0
 12  7  1  0  0  0  0
 13  7  2  0  0  0  0
 14 25  1  0  0  0  0
 15  8  1  0  0  0  0
 16 14  3  0  0  0  0
 17  4  2  0  0  0  0
 18  8  2  0  0  0  0
 19 10  1  0  0  0  0
 20  9  1  0  0  0  0
 21 15  1  0  0  0  0
 22 11  1  0  0  0  0
 23  3  1  0  0  0  0
 24 21  1  0  0  0  0
 25 20  1  0  0  0  0
 26 22  1  0  0  0  0
 27 24  2  0  0  0  0
 28 24  1  0  0  0  0
 29 26  1  0  0  0  0
 30 27  1  0  0  0  0
 30 32  2  0  0  0  0
 31 28  2  0  0  0  0
 32 31  1  0  0  0  0
M  END
> <CdId>
1399

> <Mol Weight>
514.435

> <Formula>
C24H24BrN3O3S

> <Click_ID>
CLK019_A04 __ __ 

$$$$
