CLK051F09
 OpenBabel03181417022D

 27 29  0  0  0  0  0  0  0  0999 V2000
   -0.8208   -0.1375    0.0000 N   0  0  0  0  0  0  0  0  0  0  0  0
   -0.8208    0.6875    0.0000 C   0  0  0  0  0  0  0  0  0  0  0  0
   -1.5375   -0.5500    0.0000 C   0  0  0  0  0  0  0  0  0  0  0  0
   -1.5375    1.1000    0.0000 N   0  0  0  0  0  0  0  0  0  0  0  0
   -2.2500   -0.1375    0.0000 C   0  0  0  0  0  0  0  0  0  0  0  0
   -2.2500    0.6875    0.0000 C   0  0  0  0  0  0  0  0  0  0  0  0
   -0.1083    1.1000    0.0000 S   0  0  0  0  0  0  0  0  0  0  0  0
   -0.1083   -0.5500    0.0000 C   0  0  0  0  0  0  0  0  0  0  0  0
    3.4625    0.6875    0.0000 C   0  0  0  0  0  0  0  0  0  0  0  0
    4.1792    0.2750    0.0000 C   0  0  0  0  0  0  0  0  0  0  0  0
   -1.5375   -1.3750    0.0000 O   0  0  0  0  0  0  0  0  0  0  0  0
    1.3208    1.1000    0.0000 C   0  0  0  0  0  0  0  0  0  0  0  0
    1.3208    1.9250    0.0000 O   0  0  0  0  0  0  0  0  0  0  0  0
    0.6083    0.6875    0.0000 C   0  0  0  0  0  0  0  0  0  0  0  0
   -0.1083   -1.3750    0.0000 C   0  0  0  0  0  0  0  0  0  0  0  0
    0.6083   -0.1375    0.0000 C   0  0  0  0  0  0  0  0  0  0  0  0
    2.0375    0.6875    0.0000 N   0  0  0  0  0  0  0  0  0  0  0  0
   -2.9667   -0.5500    0.0000 C   0  0  0  0  0  0  0  0  0  0  0  0
    1.3208   -1.3750    0.0000 C   0  0  0  0  0  0  0  0  0  0  0  0
    0.6083   -1.7875    0.0000 C   0  0  0  0  0  0  0  0  0  0  0  0
    1.3208   -0.5500    0.0000 C   0  0  0  0  0  0  0  0  0  0  0  0
    2.7500    1.1000    0.0000 C   0  0  0  0  0  0  0  0  0  0  0  0
   -2.9667    1.1000    0.0000 C   0  0  0  0  0  0  0  0  0  0  0  0
    2.0375   -1.7875    0.0000 O   0  0  0  0  0  0  0  0  0  0  0  0
    2.7500   -1.3750    0.0000 C   0  0  0  0  0  0  0  0  0  0  0  0
   -3.6792   -0.1375    0.0000 C   0  0  0  0  0  0  0  0  0  0  0  0
   -3.6792    0.6875    0.0000 C   0  0  0  0  0  0  0  0  0  0  0  0
  2  1  1  0  0  0  0
  3  1  1  0  0  0  0
  4  2  2  0  0  0  0
  5  3  1  0  0  0  0
  6  5  2  0  0  0  0
  6  4  1  0  0  0  0
  7  2  1  0  0  0  0
  8  1  1  0  0  0  0
  9 22  1  0  0  0  0
 10  9  3  0  0  0  0
 11  3  2  0  0  0  0
 12 14  1  0  0  0  0
 13 12  2  0  0  0  0
 14  7  1  0  0  0  0
 15  8  2  0  0  0  0
 16  8  1  0  0  0  0
 17 12  1  0  0  0  0
 18  5  1  0  0  0  0
 19 20  2  0  0  0  0
 20 15  1  0  0  0  0
 21 16  2  0  0  0  0
 21 19  1  0  0  0  0
 22 17  1  0  0  0  0
 23  6  1  0  0  0  0
 24 19  1  0  0  0  0
 25 24  1  0  0  0  0
 26 18  2  0  0  0  0
 26 27  1  0  0  0  0
 27 23  2  0  0  0  0
M  END
> <CdId>
3950

> <Mol Weight>
379.432

> <Formula>
C20H17N3O3S

> <Click_ID>
CLK051F09 __ __ 

$$$$
