CLK026_A11
 OpenBabel03181417022D

 25 26  0  0  0  0  0  0  0  0999 V2000
   -2.3437   -0.4811    0.0000 N    0  0  0  0  0  0  0  0  0  0  0  0
   -2.7320   -1.2062    0.0000 C    0  0  0  0  0  0  0  0  0  0  0  0
   -1.5258   -0.6392    0.0000 C    0  0  0  0  0  0  0  0  0  0  0  0
   -1.4262   -1.4537    0.0000 C    0  0  0  0  0  0  0  0  0  0  0  0
   -2.1719   -1.8110    0.0000 S    0  0  0  0  0  0  0  0  0  0  0  0
    1.4262   -0.5705    0.0000 C    0  0  0  0  0  0  0  0  0  0  0  0
   -0.7114   -1.8592    0.0000 C    0  0  0  0  0  0  0  0  0  0  0  0
    1.4399   -1.4021    0.0000 C    0  0  0  0  0  0  0  0  0  0  0  0
    0.6942   -0.1718    0.0000 C    0  0  0  0  0  0  0  0  0  0  0  0
    0.0000   -1.4296    0.0000 C    0  0  0  0  0  0  0  0  0  0  0  0
   -2.2200    0.9382    0.0000 C    0  0  0  0  0  0  0  0  0  0  0  0
   -1.7836    1.6392    0.0000 C    0  0  0  0  0  0  0  0  0  0  0  0
    2.1238   -0.1478    0.0000 O    0  0  0  0  0  0  0  0  0  0  0  0
   -3.5500   -1.3025    0.0000 O    0  0  0  0  0  0  0  0  0  0  0  0
    0.7285   -1.8283    0.0000 C    0  0  0  0  0  0  0  0  0  0  0  0
   -0.0138   -0.5945    0.0000 C    0  0  0  0  0  0  0  0  0  0  0  0
   -0.9347   -0.0722    0.0000 O    0  0  0  0  0  0  0  0  0  0  0  0
   -2.6840    0.2577    0.0000 C    0  0  0  0  0  0  0  0  0  0  0  0
    2.1616   -1.8007    0.0000 Cl   0  0  0  0  0  0  0  0  0  0  0  0
    0.6839    0.6427    0.0000 O    0  0  0  0  0  0  0  0  0  0  0  0
    2.8386   -0.5429    0.0000 C    0  0  0  0  0  0  0  0  0  0  0  0
   -0.0378    1.0378    0.0000 C    0  0  0  0  0  0  0  0  0  0  0  0
    2.8626   -1.3677    0.0000 C    0  0  0  0  0  0  0  0  0  0  0  0
    3.5465   -0.1203    0.0000 C    0  0  0  0  0  0  0  0  0  0  0  0
   -0.0515    1.8626    0.0000 C    0  0  0  0  0  0  0  0  0  0  0  0
  2  1  1  0  0  0  0
  3  1  1  0  0  0  0
  4  3  1  0  0  0  0
  5  2  1  0  0  0  0
  5  4  1  0  0  0  0
  6  9  2  0  0  0  0
  7  4  2  0  0  0  0
  8 15  2  0  0  0  0
  8  6  1  0  0  0  0
  9 16  1  0  0  0  0
 10  7  1  0  0  0  0
 11 18  1  0  0  0  0
 12 11  3  0  0  0  0
 13  6  1  0  0  0  0
 14  2  2  0  0  0  0
 15 10  1  0  0  0  0
 16 10  2  0  0  0  0
 17  3  2  0  0  0  0
 18  1  1  0  0  0  0
 19  8  1  0  0  0  0
 20  9  1  0  0  0  0
 21 13  1  0  0  0  0
 22 20  1  0  0  0  0
 23 21  1  0  0  0  0
 24 21  1  0  0  0  0
 25 22  1  0  0  0  0
M  END
> <CdId>
1946

> <Mol Weight>
379.858

> <Formula>
C18H18ClNO4S

> <Click_ID>
CLK026_A11 __ __ 

$$$$
