CLK041F04
 OpenBabel03181417022D

 31 33  0  0  0  0  0  0  0  0999 V2000
    1.8417   -1.7542    0.0000 S    0  0  0  0  0  0  0  0  0  0  0  0
   -2.4458    2.3708    0.0000 S    0  0  0  0  0  0  0  0  0  0  0  0
    1.1292   -1.3417    0.0000 N    0  0  0  0  0  0  0  0  0  0  0  0
   -1.0167   -0.1042    0.0000 C    0  0  0  0  0  0  0  0  0  0  0  0
   -0.3000   -0.5167    0.0000 N    0  0  0  0  0  0  0  0  0  0  0  0
    2.5542   -2.1667    0.0000 C    0  0  0  0  0  0  0  0  0  0  0  0
   -1.7292    1.9583    0.0000 C    0  0  0  0  0  0  0  0  0  0  0  0
   -1.0167    0.7208    0.0000 C    0  0  0  0  0  0  0  0  0  0  0  0
   -1.7292    1.1333    0.0000 C    0  0  0  0  0  0  0  0  0  0  0  0
    2.2542   -1.0417    0.0000 O    0  0  0  0  0  0  0  0  0  0  0  0
    1.4292   -2.4708    0.0000 O    0  0  0  0  0  0  0  0  0  0  0  0
    0.4125   -1.7542    0.0000 C    0  0  0  0  0  0  0  0  0  0  0  0
    1.1292   -0.5167    0.0000 C    0  0  0  0  0  0  0  0  0  0  0  0
   -3.8750    4.0167    0.0000 C    0  0  0  0  0  0  0  0  0  0  0  0
    2.5542   -2.9917    0.0000 C    0  0  0  0  0  0  0  0  0  0  0  0
   -4.5875    4.4292    0.0000 C    0  0  0  0  0  0  0  0  0  0  0  0
   -2.8583    1.6542    0.0000 O    0  0  0  0  0  0  0  0  0  0  0  0
   -2.0333    3.0833    0.0000 O    0  0  0  0  0  0  0  0  0  0  0  0
   -3.1583    2.7833    0.0000 N    0  0  0  0  0  0  0  0  0  0  0  0
   -0.3000   -1.3417    0.0000 C    0  0  0  0  0  0  0  0  0  0  0  0
    0.4125   -0.1042    0.0000 C    0  0  0  0  0  0  0  0  0  0  0  0
   -1.7292   -0.5167    0.0000 O    0  0  0  0  0  0  0  0  0  0  0  0
    3.2708   -3.4042    0.0000 C    0  0  0  0  0  0  0  0  0  0  0  0
   -3.1583    3.6083    0.0000 C    0  0  0  0  0  0  0  0  0  0  0  0
    3.2708   -4.2292    0.0000 Cl   0  0  0  0  0  0  0  0  0  0  0  0
    3.2708   -1.7542    0.0000 C    0  0  0  0  0  0  0  0  0  0  0  0
   -0.3000    1.1333    0.0000 C    0  0  0  0  0  0  0  0  0  0  0  0
   -1.0167    2.3708    0.0000 C    0  0  0  0  0  0  0  0  0  0  0  0
   -0.3000    1.9583    0.0000 C    0  0  0  0  0  0  0  0  0  0  0  0
    3.9833   -2.1667    0.0000 C    0  0  0  0  0  0  0  0  0  0  0  0
    3.9833   -2.9917    0.0000 C    0  0  0  0  0  0  0  0  0  0  0  0
  2  7  1  0  0  0  0
  3  1  1  0  0  0  0
  4  5  1  0  0  0  0
  5 20  1  0  0  0  0
  5 21  1  0  0  0  0
  6  1  1  0  0  0  0
  7  9  1  0  0  0  0
  8  4  1  0  0  0  0
  9  8  2  0  0  0  0
 10  1  2  0  0  0  0
 11  1  2  0  0  0  0
 12  3  1  0  0  0  0
 13  3  1  0  0  0  0
 14 24  1  0  0  0  0
 15  6  1  0  0  0  0
 16 14  3  0  0  0  0
 17  2  2  0  0  0  0
 18  2  2  0  0  0  0
 19  2  1  0  0  0  0
 20 12  1  0  0  0  0
 21 13  1  0  0  0  0
 22  4  2  0  0  0  0
 23 15  2  0  0  0  0
 24 19  1  0  0  0  0
 25 23  1  0  0  0  0
 26  6  2  0  0  0  0
 27  8  1  0  0  0  0
 28  7  2  0  0  0  0
 28 29  1  0  0  0  0
 29 27  2  0  0  0  0
 30 26  1  0  0  0  0
 30 31  2  0  0  0  0
 31 23  1  0  0  0  0
M  END
> <CdId>
3110

> <Mol Weight>
481.973

> <Formula>
C20H20ClN3O5S2

> <Click_ID>
CLK041F04 __ __ 

$$$$
