CLK027_E09
 OpenBabel03181417022D

 34 37  0  0  0  0  0  0  0  0999 V2000
    0.0103   -1.6412    0.0000 C    0  0  0  0  0  0  0  0  0  0  0  0
   -0.7069   -1.2275    0.0000 N    0  0  0  0  0  0  0  0  0  0  0  0
    0.7241   -1.2275    0.0000 N    0  0  0  0  0  0  0  0  0  0  0  0
   -0.7069   -0.3999    0.0000 C    0  0  0  0  0  0  0  0  0  0  0  0
    0.0103    0.0138    0.0000 N    0  0  0  0  0  0  0  0  0  0  0  0
    0.7241   -0.3999    0.0000 C    0  0  0  0  0  0  0  0  0  0  0  0
    0.0103   -2.4654    0.0000 N    0  0  0  0  0  0  0  0  0  0  0  0
    2.1481    2.0930    0.0000 C    0  0  0  0  0  0  0  0  0  0  0  0
    1.4343    2.5067    0.0000 C    0  0  0  0  0  0  0  0  0  0  0  0
    1.4343    3.3273    0.0000 C    0  0  0  0  0  0  0  0  0  0  0  0
    2.1481    3.7411    0.0000 C    0  0  0  0  0  0  0  0  0  0  0  0
   -0.7172    2.0688    0.0000 C    0  0  0  0  0  0  0  0  0  0  0  0
   -1.4275    0.0207    0.0000 N    0  0  0  0  0  0  0  0  0  0  0  0
   -1.4378    1.6447    0.0000 C    0  0  0  0  0  0  0  0  0  0  0  0
    1.4343    0.8482    0.0000 N    0  0  0  0  0  0  0  0  0  0  0  0
    2.8688    2.5067    0.0000 C    0  0  0  0  0  0  0  0  0  0  0  0
    1.4447    0.0207    0.0000 N    0  0  0  0  0  0  0  0  0  0  0  0
    2.8688    3.3273    0.0000 C    0  0  0  0  0  0  0  0  0  0  0  0
    2.1481    1.2620    0.0000 C    0  0  0  0  0  0  0  0  0  0  0  0
    0.7172    3.7514    0.0000 O    0  0  0  0  0  0  0  0  0  0  0  0
   -2.1516   -0.3931    0.0000 C    0  0  0  0  0  0  0  0  0  0  0  0
    0.7172    2.0826    0.0000 O    0  0  0  0  0  0  0  0  0  0  0  0
    3.5825    3.7514    0.0000 Br   0  0  0  0  0  0  0  0  0  0  0  0
    0.6482   -2.9791    0.0000 C    0  0  0  0  0  0  0  0  0  0  0  0
   -0.6758   -2.9239    0.0000 C    0  0  0  0  0  0  0  0  0  0  0  0
   -0.0138    2.4861    0.0000 C    0  0  0  0  0  0  0  0  0  0  0  0
   -0.0138    3.3446    0.0000 C    0  0  0  0  0  0  0  0  0  0  0  0
   -2.1516   -1.2171    0.0000 C    0  0  0  0  0  0  0  0  0  0  0  0
   -2.8618    0.0242    0.0000 C    0  0  0  0  0  0  0  0  0  0  0  0
   -0.4517   -3.7135    0.0000 C    0  0  0  0  0  0  0  0  0  0  0  0
    0.3620   -3.7514    0.0000 C    0  0  0  0  0  0  0  0  0  0  0  0
   -3.5790   -0.3793    0.0000 C    0  0  0  0  0  0  0  0  0  0  0  0
   -2.8618   -1.6275    0.0000 C    0  0  0  0  0  0  0  0  0  0  0  0
   -3.5859   -1.2137    0.0000 C    0  0  0  0  0  0  0  0  0  0  0  0
  2  1  2  0  0  0  0
  3  1  1  0  0  0  0
  4  2  1  0  0  0  0
  5  6  1  0  0  0  0
  5  4  2  0  0  0  0
  6  3  2  0  0  0  0
  7  1  1  0  0  0  0
  8 19  1  0  0  0  0
  9  8  2  0  0  0  0
 10  9  1  0  0  0  0
 11 18  1  0  0  0  0
 11 10  2  0  0  0  0
 12 26  1  0  0  0  0
 13  4  1  0  0  0  0
 14 12  3  0  0  0  0
 15 17  1  0  0  0  0
 16  8  1  0  0  0  0
 17  6  1  0  0  0  0
 18 16  2  0  0  0  0
 19 15  2  0  0  0  0
 20 10  1  0  0  0  0
 21 13  1  0  0  0  0
 22  9  1  0  0  0  0
 23 18  1  0  0  0  0
 24  7  1  0  0  0  0
 25  7  1  0  0  0  0
 26 22  1  0  0  0  0
 27 20  1  0  0  0  0
 28 21  2  0  0  0  0
 29 21  1  0  0  0  0
 30 25  1  0  0  0  0
 31 24  1  0  0  0  0
 31 30  1  0  0  0  0
 32 29  2  0  0  0  0
 33 28  1  0  0  0  0
 34 32  1  0  0  0  0
 34 33  2  0  0  0  0
M  END
> <CdId>
2060

> <Mol Weight>
522.397

> <Formula>
C24H24BrN7O2

> <Click_ID>
CLK027_E09 __ __ 

$$$$
