CLK014_F04
 OpenBabel03181417022D

 25 27  0  0  0  0  0  0  0  0999 V2000
    1.5643   -0.8154    0.0000 N   0  0  0  0  0  0  0  0  0  0  0  0
    1.8222   -1.6017    0.0000 C   0  0  0  0  0  0  0  0  0  0  0  0
    2.8997   -0.8154    0.0000 C   0  0  0  0  0  0  0  0  0  0  0  0
    2.2341   -0.3287    0.0000 C   0  0  0  0  0  0  0  0  0  0  0  0
    5.5165   -1.6517    0.0000 N   0  0  0  0  0  0  0  0  0  0  0  0
    4.2976   -1.1108    0.0000 C   0  0  0  0  0  0  0  0  0  0  0  0
    2.6459   -1.6017    0.0000 S   0  0  0  0  0  0  0  0  0  0  0  0
    4.9591   -2.2632    0.0000 C   0  0  0  0  0  0  0  0  0  0  0  0
    5.1088   -0.9403    0.0000 C   0  0  0  0  0  0  0  0  0  0  0  0
    3.6860   -0.5616    0.0000 C   0  0  0  0  0  0  0  0  0  0  0  0
    4.2102   -1.9220    0.0000 C   0  0  0  0  0  0  0  0  0  0  0  0
    6.3402   -1.7473    0.0000 C   0  0  0  0  0  0  0  0  0  0  0  0
    0.6116    0.2454    0.0000 C   0  0  0  0  0  0  0  0  0  0  0  0
    0.3911    1.0442    0.0000 C   0  0  0  0  0  0  0  0  0  0  0  0
    1.3354   -2.2632    0.0000 O   0  0  0  0  0  0  0  0  0  0  0  0
    2.2258    0.4950    0.0000 O   0  0  0  0  0  0  0  0  0  0  0  0
    0.7863   -0.5616    0.0000 C   0  0  0  0  0  0  0  0  0  0  0  0
    6.8187   -1.0900    0.0000 C   0  0  0  0  0  0  0  0  0  0  0  0
    6.6647   -2.5128    0.0000 C   0  0  0  0  0  0  0  0  0  0  0  0
    7.9752   -1.9512    0.0000 C   0  0  0  0  0  0  0  0  0  0  0  0
    5.1296   -3.0703    0.0000 C   0  0  0  0  0  0  0  0  0  0  0  0
    5.4458   -0.1872    0.0000 C   0  0  0  0  0  0  0  0  0  0  0  0
    7.4760   -2.6085    0.0000 C   0  0  0  0  0  0  0  0  0  0  0  0
    7.6507   -1.1857    0.0000 C   0  0  0  0  0  0  0  0  0  0  0  0
    8.7907   -2.0386    0.0000 I   0  0  0  0  0  0  0  0  0  0  0  0
  2  1  1  0  0  0  0
  3  4  1  0  0  0  0
  3  7  1  0  0  0  0
  4  1  1  0  0  0  0
  5  9  1  0  0  0  0
  5  8  1  0  0  0  0
  6 10  1  0  0  0  0
  7  2  1  0  0  0  0
  8 11  2  0  0  0  0
  9  6  2  0  0  0  0
 10  3  2  0  0  0  0
 11  6  1  0  0  0  0
 12  5  1  0  0  0  0
 13 17  1  0  0  0  0
 14 13  3  0  0  0  0
 15  2  2  0  0  0  0
 16  4  2  0  0  0  0
 17  1  1  0  0  0  0
 18 12  1  0  0  0  0
 19 12  2  0  0  0  0
 20 23  2  0  0  0  0
 21  8  1  0  0  0  0
 22  9  1  0  0  0  0
 23 19  1  0  0  0  0
 24 18  2  0  0  0  0
 24 20  1  0  0  0  0
 25 20  1  0  0  0  0
M  END
> <CdId>
1049

> <Mol Weight>
462.304

> <Formula>
C19H15IN2O2S

> <Click_ID>
CLK014_F04 __ __ 

$$$$
