CLK033_E10
 OpenBabel03181417022D

 25 27  0  0  0  0  0  0  0  0999 V2000
   -4.5935    2.5570    0.0000 C    0  0  0  0  0  0  0  0  0  0  0  0
   -3.8606    2.9818    0.0000 N    0  0  0  0  0  0  0  0  0  0  0  0
   -4.6810    1.7324    0.0000 N    0  0  0  0  0  0  0  0  0  0  0  0
   -5.4848    1.5825    0.0000 C    0  0  0  0  0  0  0  0  0  0  0  0
   -5.3182    2.8944    0.0000 S    0  0  0  0  0  0  0  0  0  0  0  0
   -5.8929    2.2989    0.0000 C    0  0  0  0  0  0  0  0  0  0  0  0
   -3.8689    3.7981    0.0000 C    0  0  0  0  0  0  0  0  0  0  0  0
   -5.9179    0.8829    0.0000 C    0  0  0  0  0  0  0  0  0  0  0  0
   -0.2707    5.8388    0.0000 N    0  0  0  0  0  0  0  0  0  0  0  0
   -4.2562    0.3581    0.0000 C    0  0  0  0  0  0  0  0  0  0  0  0
   -4.4436   -0.4540    0.0000 C    0  0  0  0  0  0  0  0  0  0  0  0
   -0.9870    5.4348    0.0000 C    0  0  0  0  0  0  0  0  0  0  0  0
   -6.7259    0.8871    0.0000 C    0  0  0  0  0  0  0  0  0  0  0  0
   -3.1567    4.2104    0.0000 C    0  0  0  0  0  0  0  0  0  0  0  0
   -6.7009    2.3197    0.0000 C    0  0  0  0  0  0  0  0  0  0  0  0
   -4.5810    4.2146    0.0000 O    0  0  0  0  0  0  0  0  0  0  0  0
   -4.0688    1.1619    0.0000 C    0  0  0  0  0  0  0  0  0  0  0  0
   -7.1382    1.6200    0.0000 C    0  0  0  0  0  0  0  0  0  0  0  0
   -5.5181    0.1457    0.0000 Cl   0  0  0  0  0  0  0  0  0  0  0  0
   -3.1443    5.0267    0.0000 C    0  0  0  0  0  0  0  0  0  0  0  0
   -2.4321    3.8064    0.0000 C    0  0  0  0  0  0  0  0  0  0  0  0
   -1.7075    5.0267    0.0000 C    0  0  0  0  0  0  0  0  0  0  0  0
   -7.1340    0.1707    0.0000 Cl   0  0  0  0  0  0  0  0  0  0  0  0
   -2.4238    5.4390    0.0000 C    0  0  0  0  0  0  0  0  0  0  0  0
   -1.7200    4.2021    0.0000 C    0  0  0  0  0  0  0  0  0  0  0  0
  2  1  2  0  0  0  0
  3  1  1  0  0  0  0
  4  3  1  0  0  0  0
  5  1  1  0  0  0  0
  6  5  1  0  0  0  0
  6  4  2  0  0  0  0
  7  2  1  0  0  0  0
  8  4  1  0  0  0  0
  9 12  3  0  0  0  0
 10 17  1  0  0  0  0
 11 10  3  0  0  0  0
 12 22  1  0  0  0  0
 13  8  2  0  0  0  0
 13 18  1  0  0  0  0
 14  7  1  0  0  0  0
 15  6  1  0  0  0  0
 16  7  2  0  0  0  0
 17  3  1  0  0  0  0
 18 15  2  0  0  0  0
 19  8  1  0  0  0  0
 20 14  1  0  0  0  0
 21 14  2  0  0  0  0
 22 25  2  0  0  0  0
 22 24  1  0  0  0  0
 23 13  1  0  0  0  0
 24 20  2  0  0  0  0
 25 21  1  0  0  0  0
M  END
> <CdId>
2534

> <Mol Weight>
386.255

> <Formula>
C18H9Cl2N3OS

> <Click_ID>
CLK033_E10 __ __ 

$$$$
