CLK019_B02
 OpenBabel03181417022D

 24 25  0  0  0  0  0  0  0  0999 V2000
    6.5048    0.3252    0.0000 C    0  0  0  0  0  0  0  0  0  0  0  0
    5.7993    0.7375    0.0000 C    0  0  0  0  0  0  0  0  0  0  0  0
    6.5185   -0.4993    0.0000 C    0  0  0  0  0  0  0  0  0  0  0  0
    2.8081   -0.9207    0.0000 C    0  0  0  0  0  0  0  0  0  0  0  0
    7.9340    1.9743    0.0000 C    0  0  0  0  0  0  0  0  0  0  0  0
    7.9340    2.7988    0.0000 C    0  0  0  0  0  0  0  0  0  0  0  0
    3.5914   -0.4672    0.0000 N    0  0  0  0  0  0  0  0  0  0  0  0
    2.8081   -1.8415    0.0000 C    0  0  0  0  0  0  0  0  0  0  0  0
    5.0847    0.3252    0.0000 C    0  0  0  0  0  0  0  0  0  0  0  0
    5.8039   -0.9116    0.0000 C    0  0  0  0  0  0  0  0  0  0  0  0
    5.0893   -0.4993    0.0000 C    0  0  0  0  0  0  0  0  0  0  0  0
    2.0110   -0.4672    0.0000 C    0  0  0  0  0  0  0  0  0  0  0  0
    1.2277   -0.9345    0.0000 C    0  0  0  0  0  0  0  0  0  0  0  0
    2.0110   -2.2950    0.0000 C    0  0  0  0  0  0  0  0  0  0  0  0
    4.3747   -0.9207    0.0000 C    0  0  0  0  0  0  0  0  0  0  0  0
    5.7902    1.5620    0.0000 Cl   0  0  0  0  0  0  0  0  0  0  0  0
    7.2194    0.7375    0.0000 O    0  0  0  0  0  0  0  0  0  0  0  0
    7.2331   -0.9116    0.0000 O    0  0  0  0  0  0  0  0  0  0  0  0
    1.2277   -1.8415    0.0000 C    0  0  0  0  0  0  0  0  0  0  0  0
    2.0110   -3.1195    0.0000 Cl   0  0  0  0  0  0  0  0  0  0  0  0
    7.2194    1.5620    0.0000 C    0  0  0  0  0  0  0  0  0  0  0  0
    2.0110    0.3573    0.0000 C    0  0  0  0  0  0  0  0  0  0  0  0
    7.2331   -1.7315    0.0000 C    0  0  0  0  0  0  0  0  0  0  0  0
    7.9477   -2.1484    0.0000 C    0  0  0  0  0  0  0  0  0  0  0  0
  2  1  2  0  0  0  0
  3  1  1  0  0  0  0
  4  7  1  0  0  0  0
  5 21  1  0  0  0  0
  6  5  3  0  0  0  0
  7 15  1  0  0  0  0
  8  4  1  0  0  0  0
  9  2  1  0  0  0  0
 10  3  2  0  0  0  0
 11 10  1  0  0  0  0
 11  9  2  0  0  0  0
 12  4  2  0  0  0  0
 13 12  1  0  0  0  0
 14  8  2  0  0  0  0
 14 19  1  0  0  0  0
 15 11  1  0  0  0  0
 16  2  1  0  0  0  0
 17  1  1  0  0  0  0
 18  3  1  0  0  0  0
 19 13  2  0  0  0  0
 20 14  1  0  0  0  0
 21 17  1  0  0  0  0
 22 12  1  0  0  0  0
 23 18  1  0  0  0  0
 24 23  1  0  0  0  0
M  END
> <CdId>
1407

> <Mol Weight>
364.266

> <Formula>
C19H19Cl2NO2

> <Click_ID>
CLK019_B02 __ __ 

$$$$
