CLK029_B06
 OpenBabel03181417022D

 25 28  0  0  0  0  0  0  0  0999 V2000
   -4.7286    5.0247    0.0000 C   0  0  0  0  0  0  0  0  0  0  0  0
   -2.6398    5.3947    0.0000 N   0  0  0  0  0  0  0  0  0  0  0  0
   -5.1974    5.6661    0.0000 N   0  0  0  0  0  0  0  0  0  0  0  0
   -5.1974    4.3585    0.0000 N   0  0  0  0  0  0  0  0  0  0  0  0
   -3.9144    4.9753    0.0000 C   0  0  3  0  0  0  0  0  0  0  0  0
   -2.6398    4.5642    0.0000 C   0  0  0  0  0  0  0  0  0  0  0  0
   -3.4210    5.6414    0.0000 C   0  0  0  0  0  0  0  0  0  0  0  0
   -5.9868    4.6052    0.0000 C   0  0  0  0  0  0  0  0  0  0  0  0
   -5.9868    5.4194    0.0000 C   0  0  0  0  0  0  0  0  0  0  0  0
   -1.9654    5.8388    0.0000 C   0  0  0  0  0  0  0  0  0  0  0  0
   -3.4210    4.3092    0.0000 C   0  0  0  0  0  0  0  0  0  0  0  0
   -5.4770    2.9359    0.0000 C   0  0  0  0  0  0  0  0  0  0  0  0
   -6.0198    2.3191    0.0000 C   0  0  0  0  0  0  0  0  0  0  0  0
   -1.9654    4.0871    0.0000 O   0  0  0  0  0  0  0  0  0  0  0  0
   -2.0148    6.6613    0.0000 C   0  0  0  0  0  0  0  0  0  0  0  0
   -4.9260    3.5690    0.0000 C   0  0  0  0  0  0  0  0  0  0  0  0
   -2.7385    7.0477    0.0000 F   0  0  0  0  0  0  0  0  0  0  0  0
   -6.6859    4.1858    0.0000 C   0  0  0  0  0  0  0  0  0  0  0  0
   -1.2253    5.4687    0.0000 C   0  0  0  0  0  0  0  0  0  0  0  0
   -6.6859    5.8388    0.0000 C   0  0  0  0  0  0  0  0  0  0  0  0
   -1.3240    7.1217    0.0000 C   0  0  0  0  0  0  0  0  0  0  0  0
   -7.4014    4.6052    0.0000 C   0  0  0  0  0  0  0  0  0  0  0  0
   -0.5428    5.9211    0.0000 C   0  0  0  0  0  0  0  0  0  0  0  0
   -7.4014    5.4194    0.0000 C   0  0  0  0  0  0  0  0  0  0  0  0
   -0.5838    6.7516    0.0000 C   0  0  0  0  0  0  0  0  0  0  0  0
  2  7  1  0  0  0  0
  3  1  2  0  0  0  0
  4  1  1  0  0  0  0
  5  1  1  0  0  0  0
  6 11  1  0  0  0  0
  6  2  1  0  0  0  0
  7  5  1  0  0  0  0
  8  4  1  0  0  0  0
  8  9  2  0  0  0  0
  9  3  1  0  0  0  0
 10  2  1  0  0  0  0
 11  5  1  0  0  0  0
 12 16  1  0  0  0  0
 13 12  3  0  0  0  0
 14  6  2  0  0  0  0
 15 10  2  0  0  0  0
 16  4  1  0  0  0  0
 17 15  1  0  0  0  0
 18  8  1  0  0  0  0
 19 10  1  0  0  0  0
 20  9  1  0  0  0  0
 21 15  1  0  0  0  0
 22 18  2  0  0  0  0
 23 19  2  0  0  0  0
 24 20  2  0  0  0  0
 24 22  1  0  0  0  0
 25 23  1  0  0  0  0
 25 21  2  0  0  0  0
M  END
> <CdId>
2180

> <Mol Weight>
333.3589

> <Formula>
C20H16FN3O

> <Click_ID>
CLK029_B06 __ __ 

$$$$
