CLK017_H05
 OpenBabel03181417022D

 21 22  0  0  0  0  0  0  0  0999 V2000
    5.9975   -1.4734    0.0000 N    0  0  0  0  0  0  0  0  0  0  0  0
    6.0849   -2.2891    0.0000 C    0  0  0  0  0  0  0  0  0  0  0  0
    4.7822   -2.0020    0.0000 C    0  0  0  0  0  0  0  0  0  0  0  0
    5.1942   -1.2903    0.0000 C    0  0  0  0  0  0  0  0  0  0  0  0
    5.3233   -2.6221    0.0000 N    0  0  0  0  0  0  0  0  0  0  0  0
    3.9623   -2.0894    0.0000 C    0  0  0  0  0  0  0  0  0  0  0  0
    3.6210   -2.8468    0.0000 C    0  0  0  0  0  0  0  0  0  0  0  0
    6.7966   -2.7012    0.0000 S    0  0  0  0  0  0  0  0  0  0  0  0
    1.0156   -1.6773    0.0000 C    0  0  0  0  0  0  0  0  0  0  0  0
    0.5286   -1.0114    0.0000 C    0  0  0  0  0  0  0  0  0  0  0  0
    4.8613   -0.5411    0.0000 O    0  0  0  0  0  0  0  0  0  0  0  0
    2.7969   -2.9259    0.0000 C    0  0  0  0  0  0  0  0  0  0  0  0
    4.0996   -3.5128    0.0000 C    0  0  0  0  0  0  0  0  0  0  0  0
    6.6176   -0.9240    0.0000 C    0  0  0  0  0  0  0  0  0  0  0  0
    2.4515   -3.6751    0.0000 C    0  0  0  0  0  0  0  0  0  0  0  0
    3.7625   -4.2744    0.0000 C    0  0  0  0  0  0  0  0  0  0  0  0
    2.9384   -4.3576    0.0000 C    0  0  0  0  0  0  0  0  0  0  0  0
    4.2453   -4.9362    0.0000 Br   0  0  0  0  0  0  0  0  0  0  0  0
    2.3141   -2.2642    0.0000 O    0  0  0  0  0  0  0  0  0  0  0  0
    1.4983   -2.3391    0.0000 C    0  0  0  0  0  0  0  0  0  0  0  0
    6.4470   -0.1166    0.0000 C    0  0  0  0  0  0  0  0  0  0  0  0
  2  1  1  0  0  0  0
  3  4  1  0  0  0  0
  4  1  1  0  0  0  0
  5  2  1  0  0  0  0
  5  3  1  0  0  0  0
  6  3  2  0  0  0  0
  7  6  1  0  0  0  0
  8  2  2  0  0  0  0
  9 20  1  0  0  0  0
 10  9  3  0  0  0  0
 11  4  2  0  0  0  0
 12  7  2  0  0  0  0
 13  7  1  0  0  0  0
 14  1  1  0  0  0  0
 15 12  1  0  0  0  0
 16 13  2  0  0  0  0
 17 16  1  0  0  0  0
 17 15  2  0  0  0  0
 18 16  1  0  0  0  0
 19 12  1  0  0  0  0
 20 19  1  0  0  0  0
 21 14  1  0  0  0  0
M  END
> <CdId>
1310

> <Mol Weight>
365.245

> <Formula>
C15H13BrN2O2S

> <Click_ID>
CLK017_H05 __ __ 

$$$$
