CLK022_D04
 OpenBabel03181417022D

 23 24  0  0  0  0  0  0  0  0999 V2000
    6.1737    4.1341    0.0000 C   0  0  0  0  0  0  0  0  0  0  0  0
    6.5862    3.4237    0.0000 N   0  0  0  0  0  0  0  0  0  0  0  0
    7.4112    1.9938    0.0000 N   0  0  0  0  0  0  0  0  0  0  0  0
    7.4112    3.4237    0.0000 C   0  0  0  0  0  0  0  0  0  0  0  0
    1.6362    3.4237    0.0000 C   0  0  0  0  0  0  0  0  0  0  0  0
    7.8237    2.7087    0.0000 C   0  0  0  0  0  0  0  0  0  0  0  0
    0.8112    3.4237    0.0000 C   0  0  0  0  0  0  0  0  0  0  0  0
    7.8237    1.2788    0.0000 C   0  0  0  0  0  0  0  0  0  0  0  0
    5.3487    4.1341    0.0000 C   0  0  0  0  0  0  0  0  0  0  0  0
    6.5862    4.8446    0.0000 O   0  0  0  0  0  0  0  0  0  0  0  0
    7.4112    0.5637    0.0000 O   0  0  0  0  0  0  0  0  0  0  0  0
    4.9362    4.8446    0.0000 C   0  0  0  0  0  0  0  0  0  0  0  0
    4.9362    3.4237    0.0000 C   0  0  0  0  0  0  0  0  0  0  0  0
    3.6987    4.1341    0.0000 C   0  0  0  0  0  0  0  0  0  0  0  0
    4.1112    4.8446    0.0000 C   0  0  0  0  0  0  0  0  0  0  0  0
    4.1112    3.4237    0.0000 C   0  0  0  0  0  0  0  0  0  0  0  0
    2.4612    3.4237    0.0000 C   0  0  0  0  0  0  0  0  0  0  0  0
    2.8737    4.1341    0.0000 O   0  0  0  0  0  0  0  0  0  0  0  0
    7.8237    4.1341    0.0000 C   0  0  0  0  0  0  0  0  0  0  0  0
    8.6487    2.7087    0.0000 C   0  0  0  0  0  0  0  0  0  0  0  0
    8.6487    1.2788    0.0000 C   0  0  0  0  0  0  0  0  0  0  0  0
    8.6487    4.1341    0.0000 C   0  0  0  0  0  0  0  0  0  0  0  0
    9.0613    3.4237    0.0000 C   0  0  0  0  0  0  0  0  0  0  0  0
  2  1  1  0  0  0  0
  3  6  1  0  0  0  0
  4  2  1  0  0  0  0
  5 17  1  0  0  0  0
  6  4  1  0  0  0  0
  7  5  3  0  0  0  0
  8  3  1  0  0  0  0
  9  1  1  0  0  0  0
 10  1  2  0  0  0  0
 11  8  2  0  0  0  0
 12  9  1  0  0  0  0
 13  9  2  0  0  0  0
 14 16  2  0  0  0  0
 14 15  1  0  0  0  0
 15 12  2  0  0  0  0
 16 13  1  0  0  0  0
 17 18  1  0  0  0  0
 18 14  1  0  0  0  0
 19  4  2  0  0  0  0
 20  6  2  0  0  0  0
 20 23  1  0  0  0  0
 21  8  1  0  0  0  0
 22 19  1  0  0  0  0
 23 22  2  0  0  0  0
M  END
> <CdId>
1663

> <Mol Weight>
308.3312

> <Formula>
C18H16N2O3

> <Click_ID>
CLK022_D04 __ __ 

$$$$
