CLK037D05
 OpenBabel03181417022D

 17 17  0  0  0  0  0  0  0  0999 V2000
   -0.2125   -0.0208    0.0000 C    0  0  0  0  0  0  0  0  0  0  0  0
    0.5042   -0.4333    0.0000 N    0  0  0  0  0  0  0  0  0  0  0  0
    0.5042   -2.0833    0.0000 C    0  0  0  0  0  0  0  0  0  0  0  0
   -0.2125    0.8042    0.0000 C    0  0  0  0  0  0  0  0  0  0  0  0
    0.5042   -2.9083    0.0000 C    0  0  0  0  0  0  0  0  0  0  0  0
    0.5042   -1.2583    0.0000 C    0  0  0  0  0  0  0  0  0  0  0  0
   -0.9250   -0.4333    0.0000 O    0  0  0  0  0  0  0  0  0  0  0  0
   -0.9250    1.2167    0.0000 C    0  0  0  0  0  0  0  0  0  0  0  0
   -0.9250    2.0417    0.0000 C    0  0  0  0  0  0  0  0  0  0  0  0
   -1.6417    2.4542    0.0000 Cl   0  0  0  0  0  0  0  0  0  0  0  0
    0.5042    1.2167    0.0000 C    0  0  0  0  0  0  0  0  0  0  0  0
    0.5042    2.0417    0.0000 C    0  0  0  0  0  0  0  0  0  0  0  0
   -0.3208   -1.2583    0.0000 C    0  0  0  0  0  0  0  0  0  0  0  0
    1.3292   -1.2583    0.0000 C    0  0  0  0  0  0  0  0  0  0  0  0
   -0.2125    2.4542    0.0000 C    0  0  0  0  0  0  0  0  0  0  0  0
    1.7417   -1.9750    0.0000 C    0  0  0  0  0  0  0  0  0  0  0  0
   -0.7333   -0.5458    0.0000 C    0  0  0  0  0  0  0  0  0  0  0  0
  2  1  1  0  0  0  0
  3  6  1  0  0  0  0
  4  1  1  0  0  0  0
  5  3  3  0  0  0  0
  6  2  1  0  0  0  0
  7  1  2  0  0  0  0
  8  4  2  0  0  0  0
  9  8  1  0  0  0  0
 10  9  1  0  0  0  0
 11  4  1  0  0  0  0
 12 11  2  0  0  0  0
 13  6  1  0  0  0  0
 14  6  1  0  0  0  0
 15  9  2  0  0  0  0
 15 12  1  0  0  0  0
 16 14  1  0  0  0  0
 17 13  1  0  0  0  0
M  END
> <CdId>
2796

> <Mol Weight>
249.736

> <Formula>
C14H16ClNO

> <Click_ID>
CLK037D05 __ __ 

$$$$
