CLK015_H06
 OpenBabel03181417022D

 17 19  0  0  0  0  0  0  0  0999 V2000
    0.3323   -1.5166    0.0000 C   0  0  3  0  0  0  0  0  0  0  0  0
    0.4964   -0.8794    0.0000 C   0  0  3  0  0  0  0  0  0  0  0  0
   -0.4651   -1.5166    0.0000 C   0  0  3  0  0  0  0  0  0  0  0  0
    0.9185   -0.9381    0.0000 C   0  0  0  0  0  0  0  0  0  0  0  0
    1.8332   -0.7309    0.0000 C   0  0  0  0  0  0  0  0  0  0  0  0
    0.9185   -2.0989    0.0000 O   0  0  0  0  0  0  0  0  0  0  0  0
   -0.6097   -0.1564    0.0000 C   0  0  3  0  0  0  0  0  0  0  0  0
   -1.1100   -0.3909    0.0000 C   0  0  3  0  0  0  0  0  0  0  0  0
    1.7237   -1.8918    0.0000 C   0  0  0  0  0  0  0  0  0  0  0  0
   -0.1250   -0.3557    0.0000 C   0  0  0  0  0  0  0  0  0  0  0  0
   -1.2976   -1.0670    0.0000 C   0  0  0  0  0  0  0  0  0  0  0  0
   -0.7934   -0.8794    0.0000 C   0  0  0  0  0  0  0  0  0  0  0  0
    0.1290   -0.0039    0.0000 C   0  0  0  0  0  0  0  0  0  0  0  0
    2.3256   -2.4859    0.0000 O   0  0  0  0  0  0  0  0  0  0  0  0
   -1.4735    0.4339    0.0000 C   0  0  0  0  0  0  0  0  0  0  0  0
    2.7204   -0.4573    0.0000 I   0  0  0  0  0  0  0  0  0  0  0  0
    1.9270   -1.0827    0.0000 C   0  0  0  0  0  0  0  0  0  0  0  0
  2  1  1  0  0  0  0
  3  1  1  0  0  0  0
  4  1  1  0  0  0  0
  5  4  3  0  0  0  0
  6  1  1  0  0  0  0
  7 12  1  0  0  0  0
  7 13  1  0  0  0  0
  8 11  1  0  0  0  0
  8 10  1  0  0  0  0
  9  6  1  0  0  0  0
 10  2  1  0  0  0  0
 11  3  1  0  0  0  0
 12  3  1  0  0  0  0
 13  2  1  0  0  0  0
 14  9  2  0  0  0  0
 15  7  1  0  0  0  0
 15  8  1  0  0  0  0
 16  5  1  0  0  0  0
 17  9  1  0  0  0  0
M  END
> <CdId>
1151

> <Mol Weight>
344.1881

> <Formula>
C14H17IO2

> <Click_ID>
CLK015_H06 __ __ 

$$$$
