CLK045G05
 OpenBabel03181417022D

 23 25  0  0  0  0  0  0  0  0999 V2000
    2.3292   -0.0875    0.0000 N   0  0  0  0  0  0  0  0  0  0  0  0
    2.3292    1.5625    0.0000 N   0  0  0  0  0  0  0  0  0  0  0  0
   -0.5292   -0.0875    0.0000 C   0  0  0  0  0  0  0  0  0  0  0  0
    1.6125    0.3250    0.0000 C   0  0  0  0  0  0  0  0  0  0  0  0
   -1.2458    0.3250    0.0000 N   0  0  0  0  0  0  0  0  0  0  0  0
    0.1833    0.3250    0.0000 C   0  0  0  0  0  0  0  0  0  0  0  0
    1.6125    1.1500    0.0000 C   0  0  0  0  0  0  0  0  0  0  0  0
    3.0417    0.3250    0.0000 C   0  0  0  0  0  0  0  0  0  0  0  0
    3.0417    1.1500    0.0000 C   0  0  0  0  0  0  0  0  0  0  0  0
   -2.6750   -2.1500    0.0000 C   0  0  0  0  0  0  0  0  0  0  0  0
    0.9000   -0.0875    0.0000 C   0  0  0  0  0  0  0  0  0  0  0  0
   -2.6750   -2.9750    0.0000 C   0  0  0  0  0  0  0  0  0  0  0  0
   -0.5292   -0.9125    0.0000 O   0  0  0  0  0  0  0  0  0  0  0  0
   -1.9583   -0.0875    0.0000 C   0  0  0  0  0  0  0  0  0  0  0  0
    0.1833    1.1500    0.0000 C   0  0  0  0  0  0  0  0  0  0  0  0
    0.9000    1.5625    0.0000 C   0  0  0  0  0  0  0  0  0  0  0  0
   -2.6750   -1.3250    0.0000 C   0  0  0  0  0  0  0  0  0  0  0  0
   -1.9583   -0.9125    0.0000 C   0  0  0  0  0  0  0  0  0  0  0  0
   -3.3875   -0.0875    0.0000 C   0  0  0  0  0  0  0  0  0  0  0  0
    3.7583   -0.0875    0.0000 C   0  0  0  0  0  0  0  0  0  0  0  0
    3.7583    1.5625    0.0000 C   0  0  0  0  0  0  0  0  0  0  0  0
   -2.6750    0.3250    0.0000 C   0  0  0  0  0  0  0  0  0  0  0  0
   -3.3875   -0.9125    0.0000 C   0  0  0  0  0  0  0  0  0  0  0  0
  2  9  1  0  0  0  0
  3  6  1  0  0  0  0
  4  1  2  0  0  0  0
  5  3  1  0  0  0  0
  6 11  2  0  0  0  0
  6 15  1  0  0  0  0
  7  4  1  0  0  0  0
  7  2  2  0  0  0  0
  8  1  1  0  0  0  0
  9  8  2  0  0  0  0
 10 17  1  0  0  0  0
 11  4  1  0  0  0  0
 12 10  3  0  0  0  0
 13  3  2  0  0  0  0
 14  5  1  0  0  0  0
 15 16  2  0  0  0  0
 16  7  1  0  0  0  0
 17 18  1  0  0  0  0
 18 14  2  0  0  0  0
 19 22  2  0  0  0  0
 20  8  1  0  0  0  0
 21  9  1  0  0  0  0
 22 14  1  0  0  0  0
 23 17  2  0  0  0  0
 23 19  1  0  0  0  0
M  END
> <CdId>
3439

> <Mol Weight>
301.3419

> <Formula>
C19H15N3O

> <Click_ID>
CLK045G05 __ __ 

$$$$
