CLK015_E11
 OpenBabel03181417022D

 30 32  0  0  0  0  0  0  0  0999 V2000
    2.0290   -1.0814    0.0000 N    0  0  0  0  0  0  0  0  0  0  0  0
    2.2795   -1.8704    0.0000 C    0  0  0  0  0  0  0  0  0  0  0  0
    2.6929   -0.5929    0.0000 C    0  0  0  0  0  0  0  0  0  0  0  0
    3.3609   -1.0814    0.0000 C    0  0  0  0  0  0  0  0  0  0  0  0
    3.1062   -1.8704    0.0000 S    0  0  0  0  0  0  0  0  0  0  0  0
   -1.5614   -1.4070    0.0000 N    0  0  0  0  0  0  0  0  0  0  0  0
    4.1500   -0.8266    0.0000 C    0  0  0  0  0  0  0  0  0  0  0  0
    4.6510    1.5865    0.0000 C    0  0  0  0  0  0  0  0  0  0  0  0
    5.2605    1.0396    0.0000 C    0  0  0  0  0  0  0  0  0  0  0  0
    3.8744    1.3360    0.0000 C    0  0  0  0  0  0  0  0  0  0  0  0
    1.2442   -0.8266    0.0000 C    0  0  0  0  0  0  0  0  0  0  0  0
    4.3211   -0.0167    0.0000 C    0  0  0  0  0  0  0  0  0  0  0  0
   -0.7723   -1.6700    0.0000 C    0  0  0  0  0  0  0  0  0  0  0  0
    5.7991    3.4444    0.0000 C    0  0  0  0  0  0  0  0  0  0  0  0
    5.9744    4.2376    0.0000 C    0  0  0  0  0  0  0  0  0  0  0  0
   -1.7284   -0.6012    0.0000 O    0  0  0  0  0  0  0  0  0  0  0  0
    1.7953   -2.5342    0.0000 O    0  0  0  0  0  0  0  0  0  0  0  0
   -2.1751   -1.9581    0.0000 O    0  0  0  0  0  0  0  0  0  0  0  0
    2.6929    0.2338    0.0000 O    0  0  0  0  0  0  0  0  0  0  0  0
    3.6991    0.5344    0.0000 C    0  0  0  0  0  0  0  0  0  0  0  0
    5.0893    0.2338    0.0000 C    0  0  0  0  0  0  0  0  0  0  0  0
   -0.1586   -1.1189    0.0000 C    0  0  0  0  0  0  0  0  0  0  0  0
    0.6262   -1.3820    0.0000 C    0  0  0  0  0  0  0  0  0  0  0  0
    6.0412    1.2901    0.0000 Cl   0  0  0  0  0  0  0  0  0  0  0  0
    3.2732    1.8996    0.0000 Cl   0  0  0  0  0  0  0  0  0  0  0  0
    4.8263    2.4006    0.0000 O    0  0  0  0  0  0  0  0  0  0  0  0
    5.6154    2.6386    0.0000 C    0  0  0  0  0  0  0  0  0  0  0  0
   -0.6095   -2.4716    0.0000 C    0  0  0  0  0  0  0  0  0  0  0  0
    0.1796   -2.7346    0.0000 C    0  0  0  0  0  0  0  0  0  0  0  0
    0.8016   -2.1835    0.0000 C    0  0  0  0  0  0  0  0  0  0  0  0
  2  1  1  0  0  0  0
  3  1  1  0  0  0  0
  4  3  1  0  0  0  0
  4  5  1  0  0  0  0
  5  2  1  0  0  0  0
  6 13  1  0  0  0  0
  7  4  2  0  0  0  0
  8  9  1  0  0  0  0
  8 10  2  0  0  0  0
  9 21  2  0  0  0  0
 10 20  1  0  0  0  0
 11  1  1  0  0  0  0
 12  7  1  0  0  0  0
 13 22  1  0  0  0  0
 14 27  1  0  0  0  0
 15 14  3  0  0  0  0
 16  6  1  0  0  0  0
 17  2  2  0  0  0  0
 18  6  2  0  0  0  0
 19  3  2  0  0  0  0
 20 12  2  0  0  0  0
 21 12  1  0  0  0  0
 22 23  2  0  0  0  0
 23 11  1  0  0  0  0
 24  9  1  0  0  0  0
 25 10  1  0  0  0  0
 26  8  1  0  0  0  0
 27 26  1  0  0  0  0
 28 29  1  0  0  0  0
 28 13  2  0  0  0  0
 29 30  2  0  0  0  0
 30 23  1  0  0  0  0
M  END
> <CdId>
1126

> <Mol Weight>
463.291

> <Formula>
C20H12Cl2N2O5S

> <Click_ID>
CLK015_E11 __ __ 

$$$$
