CLK046C04
 OpenBabel03181417022D

 27 28  0  0  0  0  0  0  0  0999 V2000
   -0.4792    2.3833    0.0000 S   0  0  0  0  0  0  0  0  0  0  0  0
   -0.4792    3.2083    0.0000 N   0  0  0  0  0  0  0  0  0  0  0  0
   -0.4792    1.5583    0.0000 C   0  0  0  0  0  0  0  0  0  0  0  0
    0.9500   -4.2167    0.0000 C   0  0  0  0  0  0  0  0  0  0  0  0
   -1.3042    2.3833    0.0000 O   0  0  0  0  0  0  0  0  0  0  0  0
    0.3458    2.3833    0.0000 O   0  0  0  0  0  0  0  0  0  0  0  0
    0.9500   -5.0417    0.0000 C   0  0  0  0  0  0  0  0  0  0  0  0
    0.2375   -2.1542    0.0000 C   0  0  0  0  0  0  0  0  0  0  0  0
    0.9500   -2.5667    0.0000 N   0  0  0  0  0  0  0  0  0  0  0  0
    0.9500   -3.3917    0.0000 C   0  0  0  0  0  0  0  0  0  0  0  0
   -0.4792   -2.5667    0.0000 O   0  0  0  0  0  0  0  0  0  0  0  0
    0.2375    1.1458    0.0000 C   0  0  0  0  0  0  0  0  0  0  0  0
   -1.1917    1.1458    0.0000 C   0  0  0  0  0  0  0  0  0  0  0  0
    0.2375   -1.3292    0.0000 C   0  0  0  0  0  0  0  0  0  0  0  0
   -0.4792   -0.0917    0.0000 C   0  0  0  0  0  0  0  0  0  0  0  0
    0.2375    0.3208    0.0000 C   0  0  0  0  0  0  0  0  0  0  0  0
   -1.1917    0.3208    0.0000 C   0  0  0  0  0  0  0  0  0  0  0  0
   -0.4792   -0.9167    0.0000 C   0  0  0  0  0  0  0  0  0  0  0  0
    0.2375    3.6208    0.0000 C   0  0  0  0  0  0  0  0  0  0  0  0
   -1.1917    3.6208    0.0000 C   0  0  0  0  0  0  0  0  0  0  0  0
    0.1250   -3.3917    0.0000 C   0  0  0  0  0  0  0  0  0  0  0  0
    1.7750   -3.3917    0.0000 C   0  0  0  0  0  0  0  0  0  0  0  0
   -1.1917    4.4417    0.0000 C   0  0  0  0  0  0  0  0  0  0  0  0
    0.2375    4.4417    0.0000 C   0  0  0  0  0  0  0  0  0  0  0  0
   -0.2875   -2.6750    0.0000 C   0  0  0  0  0  0  0  0  0  0  0  0
    2.1875   -4.1042    0.0000 C   0  0  0  0  0  0  0  0  0  0  0  0
   -0.4792    4.8542    0.0000 C   0  0  0  0  0  0  0  0  0  0  0  0
  2  1  1  0  0  0  0
  3  1  1  0  0  0  0
  4 10  1  0  0  0  0
  5  1  2  0  0  0  0
  6  1  2  0  0  0  0
  7  4  3  0  0  0  0
  8 14  1  0  0  0  0
  9  8  1  0  0  0  0
 10  9  1  0  0  0  0
 11  8  2  0  0  0  0
 12  3  1  0  0  0  0
 13  3  2  0  0  0  0
 14 18  1  0  0  0  0
 15 17  2  0  0  0  0
 16 12  2  0  0  0  0
 16 15  1  0  0  0  0
 17 13  1  0  0  0  0
 18 15  1  0  0  0  0
 19  2  1  0  0  0  0
 20  2  1  0  0  0  0
 21 10  1  0  0  0  0
 22 10  1  0  0  0  0
 23 20  1  0  0  0  0
 24 19  1  0  0  0  0
 25 21  1  0  0  0  0
 26 22  1  0  0  0  0
 27 23  1  0  0  0  0
 27 24  1  0  0  0  0
M  END
> <CdId>
3507

> <Mol Weight>
390.54

> <Formula>
C21H30N2O3S

> <Click_ID>
CLK046C04 __ __ 

$$$$
