CLK017_F07
 OpenBabel03181417022D

 25 26  0  0  0  0  0  0  0  0999 V2000
    3.7214   -0.6516    0.0000 N   0  0  0  0  0  0  0  0  0  0  0  0
    3.9720   -1.4410    0.0000 C   0  0  0  0  0  0  0  0  0  0  0  0
    4.3855   -0.1671    0.0000 C   0  0  0  0  0  0  0  0  0  0  0  0
    5.0538   -0.6516    0.0000 C   0  0  0  0  0  0  0  0  0  0  0  0
    4.7990   -1.4410    0.0000 S   0  0  0  0  0  0  0  0  0  0  0  0
    5.8432   -0.3926    0.0000 C   0  0  0  0  0  0  0  0  0  0  0  0
    2.9362   -0.3926    0.0000 C   0  0  0  0  0  0  0  0  0  0  0  0
    7.4930    3.8801    0.0000 C   0  0  0  0  0  0  0  0  0  0  0  0
    7.6726    4.6654    0.0000 C   0  0  0  0  0  0  0  0  0  0  0  0
    2.3181   -0.9523    0.0000 C   0  0  0  0  0  0  0  0  0  0  0  0
    3.4876   -2.1093    0.0000 O   0  0  0  0  0  0  0  0  0  0  0  0
    5.5676    1.7667    0.0000 C   0  0  0  0  0  0  0  0  0  0  0  0
    4.3855    0.6599    0.0000 O   0  0  0  0  0  0  0  0  0  0  0  0
    6.0144    0.4093    0.0000 C   0  0  0  0  0  0  0  0  0  0  0  0
    5.4005    0.9606    0.0000 C   0  0  0  0  0  0  0  0  0  0  0  0
    6.3527    2.0131    0.0000 C   0  0  0  0  0  0  0  0  0  0  0  0
    2.4935   -1.7584    0.0000 O   0  0  0  0  0  0  0  0  0  0  0  0
    6.9584    1.4660    0.0000 C   0  0  0  0  0  0  0  0  0  0  0  0
    6.7830    0.6599    0.0000 C   0  0  0  0  0  0  0  0  0  0  0  0
    4.9744    2.3139    0.0000 O   0  0  0  0  0  0  0  0  0  0  0  0
    1.5329   -0.6934    0.0000 O   0  0  0  0  0  0  0  0  0  0  0  0
    6.5324    2.8193    0.0000 O   0  0  0  0  0  0  0  0  0  0  0  0
    7.3092    3.0699    0.0000 C   0  0  0  0  0  0  0  0  0  0  0  0
    4.1893    2.0675    0.0000 C   0  0  0  0  0  0  0  0  0  0  0  0
    1.3575    0.1086    0.0000 C   0  0  0  0  0  0  0  0  0  0  0  0
  2  1  1  0  0  0  0
  3  1  1  0  0  0  0
  4  3  1  0  0  0  0
  5  2  1  0  0  0  0
  5  4  1  0  0  0  0
  6  4  2  0  0  0  0
  7  1  1  0  0  0  0
  8 23  1  0  0  0  0
  9  8  3  0  0  0  0
 10  7  1  0  0  0  0
 11  2  2  0  0  0  0
 12 15  1  0  0  0  0
 12 16  2  0  0  0  0
 13  3  2  0  0  0  0
 14  6  1  0  0  0  0
 15 14  2  0  0  0  0
 16 18  1  0  0  0  0
 17 10  2  0  0  0  0
 18 19  2  0  0  0  0
 19 14  1  0  0  0  0
 20 12  1  0  0  0  0
 21 10  1  0  0  0  0
 22 16  1  0  0  0  0
 23 22  1  0  0  0  0
 24 20  1  0  0  0  0
 25 21  1  0  0  0  0
M  END
> <CdId>
1292

> <Mol Weight>
361.369

> <Formula>
C17H15NO6S

> <Click_ID>
CLK017_F07 __ __ 

$$$$
