CLK042G08
 OpenBabel03181417022D

 24 25  0  0  0  0  0  0  0  0999 V2000
    0.0000   -0.7208    0.0000 S    0  0  0  0  0  0  0  0  0  0  0  0
    0.0000   -1.5458    0.0000 N    0  0  0  0  0  0  0  0  0  0  0  0
    0.7125   -1.9583    0.0000 C    0  0  0  0  0  0  0  0  0  0  0  0
    0.0000    0.1042    0.0000 C    0  0  0  0  0  0  0  0  0  0  0  0
   -1.4292    1.7542    0.0000 C    0  0  0  0  0  0  0  0  0  0  0  0
   -2.1458    3.8167    0.0000 C    0  0  0  0  0  0  0  0  0  0  0  0
    0.8250   -0.7208    0.0000 O    0  0  0  0  0  0  0  0  0  0  0  0
   -0.8250   -0.7208    0.0000 O    0  0  0  0  0  0  0  0  0  0  0  0
   -0.7167    1.3417    0.0000 C    0  0  0  0  0  0  0  0  0  0  0  0
   -0.7167    0.5167    0.0000 C    0  0  0  0  0  0  0  0  0  0  0  0
   -2.1458    4.6375    0.0000 C    0  0  0  0  0  0  0  0  0  0  0  0
    1.4250   -1.5458    0.0000 C    0  0  0  0  0  0  0  0  0  0  0  0
    0.7125   -2.7833    0.0000 C    0  0  0  0  0  0  0  0  0  0  0  0
   -2.1458    1.3417    0.0000 O    0  0  0  0  0  0  0  0  0  0  0  0
   -1.4292    2.5792    0.0000 N    0  0  0  0  0  0  0  0  0  0  0  0
    2.1417   -1.9583    0.0000 C    0  0  0  0  0  0  0  0  0  0  0  0
    1.4250   -3.1958    0.0000 C    0  0  0  0  0  0  0  0  0  0  0  0
    1.4250   -0.7208    0.0000 Br   0  0  0  0  0  0  0  0  0  0  0  0
    2.1417   -2.7833    0.0000 C    0  0  0  0  0  0  0  0  0  0  0  0
   -2.1458    2.9917    0.0000 C    0  0  0  0  0  0  0  0  0  0  0  0
    0.7125    0.5167    0.0000 C    0  0  0  0  0  0  0  0  0  0  0  0
    0.0000    1.7542    0.0000 C    0  0  0  0  0  0  0  0  0  0  0  0
    0.7125    1.3417    0.0000 C    0  0  0  0  0  0  0  0  0  0  0  0
    1.4250   -4.0208    0.0000 C    0  0  0  0  0  0  0  0  0  0  0  0
  2  1  1  0  0  0  0
  3  2  1  0  0  0  0
  4  1  1  0  0  0  0
  5  9  1  0  0  0  0
  6 20  1  0  0  0  0
  7  1  2  0  0  0  0
  8  1  2  0  0  0  0
  9 10  1  0  0  0  0
 10  4  2  0  0  0  0
 11  6  3  0  0  0  0
 12  3  2  0  0  0  0
 13  3  1  0  0  0  0
 14  5  2  0  0  0  0
 15  5  1  0  0  0  0
 16 12  1  0  0  0  0
 16 19  2  0  0  0  0
 17 13  2  0  0  0  0
 18 12  1  0  0  0  0
 19 17  1  0  0  0  0
 20 15  1  0  0  0  0
 21  4  1  0  0  0  0
 22  9  2  0  0  0  0
 22 23  1  0  0  0  0
 23 21  2  0  0  0  0
 24 17  1  0  0  0  0
M  END
> <CdId>
3223

> <Mol Weight>
407.282

> <Formula>
C17H15BrN2O3S

> <Click_ID>
CLK042G08 __ __ 

$$$$
