CLK037F11
 OpenBabel03181417022D

 26 29  0  0  0  0  0  0  0  0999 V2000
   -0.9167   -0.2500    0.0000 C    0  0  0  0  0  0  0  0  0  0  0  0
   -1.4000    0.4167    0.0000 N    0  0  0  0  0  0  0  0  0  0  0  0
   -1.4000   -0.9167    0.0000 N    0  0  0  0  0  0  0  0  0  0  0  0
    1.1792    0.1625    0.0000 N    0  0  0  0  0  0  0  0  0  0  0  0
   -0.0917   -0.2500    0.0000 C    0  0  3  0  0  0  0  0  0  0  0  0
    1.1792   -0.6625    0.0000 C    0  0  0  0  0  0  0  0  0  0  0  0
    0.3917    0.4167    0.0000 C    0  0  0  0  0  0  0  0  0  0  0  0
   -2.1875   -0.6625    0.0000 C    0  0  0  0  0  0  0  0  0  0  0  0
   -2.1875    0.1625    0.0000 C    0  0  0  0  0  0  0  0  0  0  0  0
    1.8458    0.6458    0.0000 C    0  0  0  0  0  0  0  0  0  0  0  0
    0.3917   -0.9167    0.0000 C    0  0  0  0  0  0  0  0  0  0  0  0
   -1.7000   -2.3167    0.0000 C    0  0  0  0  0  0  0  0  0  0  0  0
    1.7583    1.4667    0.0000 C    0  0  0  0  0  0  0  0  0  0  0  0
   -2.2500   -2.9292    0.0000 C    0  0  0  0  0  0  0  0  0  0  0  0
    2.4250    1.9500    0.0000 C    0  0  0  0  0  0  0  0  0  0  0  0
    1.8458   -1.1500    0.0000 O    0  0  0  0  0  0  0  0  0  0  0  0
    3.1792    1.6167    0.0000 C    0  0  0  0  0  0  0  0  0  0  0  0
    2.6000    0.3125    0.0000 C    0  0  0  0  0  0  0  0  0  0  0  0
   -1.1458   -1.7042    0.0000 C    0  0  0  0  0  0  0  0  0  0  0  0
    3.2667    0.7958    0.0000 C    0  0  0  0  0  0  0  0  0  0  0  0
    3.8458    2.1000    0.0000 Cl   0  0  0  0  0  0  0  0  0  0  0  0
   -2.9000   -1.0750    0.0000 C    0  0  0  0  0  0  0  0  0  0  0  0
   -2.9000    0.5750    0.0000 C    0  0  0  0  0  0  0  0  0  0  0  0
    2.3417    2.7708    0.0000 C    0  0  0  0  0  0  0  0  0  0  0  0
   -3.6167   -0.6625    0.0000 C    0  0  0  0  0  0  0  0  0  0  0  0
   -3.6167    0.1625    0.0000 C    0  0  0  0  0  0  0  0  0  0  0  0
  2  1  2  0  0  0  0
  3  1  1  0  0  0  0
  4  7  1  0  0  0  0
  5  1  1  0  0  0  0
  6 11  1  0  0  0  0
  6  4  1  0  0  0  0
  7  5  1  0  0  0  0
  8  3  1  0  0  0  0
  8  9  2  0  0  0  0
  9  2  1  0  0  0  0
 10  4  1  0  0  0  0
 11  5  1  0  0  0  0
 12 19  1  0  0  0  0
 13 10  2  0  0  0  0
 14 12  3  0  0  0  0
 15 13  1  0  0  0  0
 16  6  2  0  0  0  0
 17 20  1  0  0  0  0
 17 15  2  0  0  0  0
 18 10  1  0  0  0  0
 19  3  1  0  0  0  0
 20 18  2  0  0  0  0
 21 17  1  0  0  0  0
 22  8  1  0  0  0  0
 23  9  1  0  0  0  0
 24 15  1  0  0  0  0
 25 22  2  0  0  0  0
 25 26  1  0  0  0  0
 26 23  2  0  0  0  0
M  END
> <CdId>
2846

> <Mol Weight>
363.84

> <Formula>
C21H18ClN3O

> <Click_ID>
CLK037F11 __ __ 

$$$$
