CLK003_H08
 OpenBabel03181417022D

 16 17  0  0  0  0  0  0  0  0999 V2000
   -0.4502   -0.7159    0.0000 C   0  0  0  0  0  0  0  0  0  0  0  0
   -0.8620   -0.0061    0.0000 C   0  0  0  0  0  0  0  0  0  0  0  0
    0.3894   -0.7159    0.0000 N   0  0  0  0  0  0  0  0  0  0  0  0
   -1.0019   -1.3285    0.0000 S   0  0  0  0  0  0  0  0  0  0  0  0
   -0.4502    0.7119    0.0000 C   0  0  0  0  0  0  0  0  0  0  0  0
   -1.6692   -0.1765    0.0000 C   0  0  0  0  0  0  0  0  0  0  0  0
    0.8012   -0.0061    0.0000 C   0  0  0  0  0  0  0  0  0  0  0  0
   -1.7504   -0.9938    0.0000 C   0  0  0  0  0  0  0  0  0  0  0  0
    0.3894    0.7119    0.0000 N   0  0  0  0  0  0  0  0  0  0  0  0
   -0.8620    1.4481    0.0000 O   0  0  0  0  0  0  0  0  0  0  0  0
   -2.2919    0.3590    0.0000 C   0  0  0  0  0  0  0  0  0  0  0  0
    1.6327   -0.0061    0.0000 S   0  0  0  0  0  0  0  0  0  0  0  0
   -2.4805   -1.4056    0.0000 C   0  0  0  0  0  0  0  0  0  0  0  0
    2.0444    0.7119    0.0000 C   0  0  0  0  0  0  0  0  0  0  0  0
    2.8679    0.7119    0.0000 C   0  0  0  0  0  0  0  0  0  0  0  0
    3.6954    0.6957    0.0000 C   0  0  0  0  0  0  0  0  0  0  0  0
  1  2  2  0  0  0  0
  1  3  1  0  0  0  0
  1  4  1  0  0  0  0
  2  5  1  0  0  0  0
  2  6  1  0  0  0  0
  3  7  2  0  0  0  0
  4  8  1  0  0  0  0
  5  9  1  0  0  0  0
  5 10  2  0  0  0  0
  6 11  1  0  0  0  0
  6  8  2  0  0  0  0
  7 12  1  0  0  0  0
  7  9  1  0  0  0  0
  8 13  1  0  0  0  0
 12 14  1  0  0  0  0
 14 15  1  0  0  0  0
 15 16  3  0  0  0  0
M  END
> <CdId>
237

> <Mol Weight>
250.34

> <Formula>
C11H10N2OS2

> <Click_ID>
CLK003_H08 __ __ 

$$$$
