CLK023_C09
 OpenBabel03181417022D

 24 26  0  0  0  0  0  0  0  0999 V2000
    2.6356    0.0241    0.0000 N    0  0  0  0  0  0  0  0  0  0  0  0
    2.1374   -0.6185    0.0000 C    0  0  0  0  0  0  0  0  0  0  0  0
    1.3745    0.4742    0.0000 C    0  0  0  0  0  0  0  0  0  0  0  0
    2.1717    0.7113    0.0000 C    0  0  0  0  0  0  0  0  0  0  0  0
    1.3608   -0.3540    0.0000 S    0  0  0  0  0  0  0  0  0  0  0  0
    0.7732    1.0343    0.0000 C    0  0  0  0  0  0  0  0  0  0  0  0
   -1.3505    0.8076    0.0000 C    0  0  0  0  0  0  0  0  0  0  0  0
   -0.0138    0.7972    0.0000 C    0  0  0  0  0  0  0  0  0  0  0  0
   -0.6804    1.2921    0.0000 S    0  0  0  0  0  0  0  0  0  0  0  0
   -1.0893    0.0241    0.0000 C    0  0  0  0  0  0  0  0  0  0  0  0
    3.9071    0.6838    0.0000 C    0  0  0  0  0  0  0  0  0  0  0  0
   -0.2680    0.0241    0.0000 C    0  0  0  0  0  0  0  0  0  0  0  0
    4.3469    1.3849    0.0000 C    0  0  0  0  0  0  0  0  0  0  0  0
   -2.1511    0.9725    0.0000 S    0  0  0  0  0  0  0  0  0  0  0  0
    2.3745   -1.4158    0.0000 O    0  0  0  0  0  0  0  0  0  0  0  0
    2.4467    1.4948    0.0000 O    0  0  0  0  0  0  0  0  0  0  0  0
    3.4672   -0.0068    0.0000 C    0  0  0  0  0  0  0  0  0  0  0  0
   -2.7044    0.3573    0.0000 C    0  0  0  0  0  0  0  0  0  0  0  0
   -3.8005   -0.8694    0.0000 C    0  0  0  0  0  0  0  0  0  0  0  0
   -4.3503   -1.4913    0.0000 Cl   0  0  0  0  0  0  0  0  0  0  0  0
   -3.5153    0.5223    0.0000 C    0  0  0  0  0  0  0  0  0  0  0  0
   -2.4500   -0.4330    0.0000 C    0  0  0  0  0  0  0  0  0  0  0  0
   -4.0652   -0.0928    0.0000 C    0  0  0  0  0  0  0  0  0  0  0  0
   -2.9930   -1.0412    0.0000 C    0  0  0  0  0  0  0  0  0  0  0  0
  2  1  1  0  0  0  0
  3  4  1  0  0  0  0
  4  1  1  0  0  0  0
  5  2  1  0  0  0  0
  5  3  1  0  0  0  0
  6  3  2  0  0  0  0
  7  9  1  0  0  0  0
  8  6  1  0  0  0  0
  9  8  1  0  0  0  0
 10 12  1  0  0  0  0
 10  7  2  0  0  0  0
 11 17  1  0  0  0  0
 12  8  2  0  0  0  0
 13 11  3  0  0  0  0
 14  7  1  0  0  0  0
 15  2  2  0  0  0  0
 16  4  2  0  0  0  0
 17  1  1  0  0  0  0
 18 14  1  0  0  0  0
 19 24  1  0  0  0  0
 19 23  2  0  0  0  0
 20 19  1  0  0  0  0
 21 18  2  0  0  0  0
 22 18  1  0  0  0  0
 23 21  1  0  0  0  0
 24 22  2  0  0  0  0
M  END
> <CdId>
1724

> <Mol Weight>
391.915

> <Formula>
C17H10ClNO2S3

> <Click_ID>
CLK023_C09 __ __ 

$$$$
