CLK019_G10
 OpenBabel03181417022D

 19 19  0  0  0  0  0  0  0  0999 V2000
    3.7023    2.6393    0.0000 C   0  0  0  0  0  0  0  0  0  0  0  0
    4.1147    1.9245    0.0000 N   0  0  0  0  0  0  0  0  0  0  0  0
    4.1147    3.3541    0.0000 N   0  0  0  0  0  0  0  0  0  0  0  0
    4.9395    1.9245    0.0000 C   0  0  0  0  0  0  0  0  0  0  0  0
    5.3519    2.6393    0.0000 N   0  0  0  0  0  0  0  0  0  0  0  0
    4.9395    3.3541    0.0000 C   0  0  0  0  0  0  0  0  0  0  0  0
    2.8776    2.6393    0.0000 N   0  0  0  0  0  0  0  0  0  0  0  0
    2.4652    3.3541    0.0000 C   0  0  0  0  0  0  0  0  0  0  0  0
    2.0528    4.0780    0.0000 N   0  0  0  0  0  0  0  0  0  0  0  0
    1.6404    1.9245    0.0000 C   0  0  0  0  0  0  0  0  0  0  0  0
    0.8156    1.9245    0.0000 C   0  0  0  0  0  0  0  0  0  0  0  0
    5.3519    1.2097    0.0000 N   0  0  0  0  0  0  0  0  0  0  0  0
    5.3519    4.0780    0.0000 N   0  0  0  0  0  0  0  0  0  0  0  0
    2.4652    1.9245    0.0000 C   0  0  0  0  0  0  0  0  0  0  0  0
    6.1767    1.2097    0.0000 C   0  0  0  0  0  0  0  0  0  0  0  0
    6.1767    4.0780    0.0000 C   0  0  0  0  0  0  0  0  0  0  0  0
    6.5890    0.4949    0.0000 C   0  0  0  0  0  0  0  0  0  0  0  0
    6.5890    1.9245    0.0000 C   0  0  0  0  0  0  0  0  0  0  0  0
    6.5890    4.7745    0.0000 C   0  0  0  0  0  0  0  0  0  0  0  0
  2  1  1  0  0  0  0
  3  1  2  0  0  0  0
  4  2  2  0  0  0  0
  5  6  2  0  0  0  0
  5  4  1  0  0  0  0
  6  3  1  0  0  0  0
  7  1  1  0  0  0  0
  8  7  1  0  0  0  0
  9  8  3  0  0  0  0
 10 14  1  0  0  0  0
 11 10  3  0  0  0  0
 12  4  1  0  0  0  0
 13  6  1  0  0  0  0
 14  7  1  0  0  0  0
 15 12  1  0  0  0  0
 16 13  1  0  0  0  0
 17 15  1  0  0  0  0
 18 15  1  0  0  0  0
 19 16  1  0  0  0  0
M  END
> <CdId>
1465

> <Mol Weight>
259.3103

> <Formula>
C12H17N7

> <Click_ID>
CLK019_G10 __ __ 

$$$$
