CLK003_A07
 OpenBabel03181417022D

 28 31  0  0  0  0  0  0  0  0999 V2000
   -0.7062    1.0442    0.0000 N   0  0  0  0  0  0  0  0  0  0  0  0
   -1.4922    1.2909    0.0000 C   0  0  0  0  0  0  0  0  0  0  0  0
   -0.2240    1.7048    0.0000 C   0  0  0  0  0  0  0  0  0  0  0  0
   -0.2240    0.3683    0.0000 C   0  0  0  0  0  0  0  0  0  0  0  0
   -1.4922    2.1073    0.0000 C   0  0  0  0  0  0  0  0  0  0  0  0
   -2.2059    0.8771    0.0000 C   0  0  0  0  0  0  0  0  0  0  0  0
   -0.7062    2.3655    0.0000 N   0  0  0  0  0  0  0  0  0  0  0  0
    0.5581    1.4466    0.0000 S   0  0  0  0  0  0  0  0  0  0  0  0
    0.5581    0.6189    0.0000 C   0  0  0  0  0  0  0  0  0  0  0  0
   -0.4708   -0.4176    0.0000 O   0  0  0  0  0  0  0  0  0  0  0  0
   -2.2059    2.5288    0.0000 C   0  0  0  0  0  0  0  0  0  0  0  0
   -2.9084    1.2909    0.0000 C   0  0  0  0  0  0  0  0  0  0  0  0
    1.2340    0.1405    0.0000 C   0  0  0  0  0  0  0  0  0  0  0  0
   -2.9084    2.1073    0.0000 C   0  0  0  0  0  0  0  0  0  0  0  0
   -3.6260    0.8771    0.0000 C   0  0  0  0  0  0  0  0  0  0  0  0
    1.1504   -0.6796    0.0000 C   0  0  0  0  0  0  0  0  0  0  0  0
   -3.6260    2.5212    0.0000 C   0  0  0  0  0  0  0  0  0  0  0  0
    1.8225   -1.1580    0.0000 C   0  0  0  0  0  0  0  0  0  0  0  0
    0.3949   -1.0214    0.0000 C   0  0  0  0  0  0  0  0  0  0  0  0
    1.7428   -1.9857    0.0000 C   0  0  0  0  0  0  0  0  0  0  0  0
    2.5705   -0.8240    0.0000 O   0  0  0  0  0  0  0  0  0  0  0  0
    0.3114   -1.8415    0.0000 C   0  0  0  0  0  0  0  0  0  0  0  0
    0.9872   -2.3312    0.0000 C   0  0  0  0  0  0  0  0  0  0  0  0
    2.4148   -2.4680    0.0000 I   0  0  0  0  0  0  0  0  0  0  0  0
    3.2425   -1.3061    0.0000 C   0  0  0  0  0  0  0  0  0  0  0  0
   -0.4367   -2.1794    0.0000 I   0  0  0  0  0  0  0  0  0  0  0  0
    3.1628   -2.1225    0.0000 C   0  0  0  0  0  0  0  0  0  0  0  0
    3.0793   -2.9426    0.0000 C   0  0  0  0  0  0  0  0  0  0  0  0
  1  2  1  0  0  0  0
  1  3  1  0  0  0  0
  1  4  1  0  0  0  0
  2  5  2  0  0  0  0
  2  6  1  0  0  0  0
  3  7  2  0  0  0  0
  3  8  1  0  0  0  0
  4  9  1  0  0  0  0
  4 10  2  0  0  0  0
  5 11  1  0  0  0  0
  5  7  1  0  0  0  0
  6 12  2  0  0  0  0
  8  9  1  0  0  0  0
  9 13  2  0  0  0  0
 11 14  2  0  0  0  0
 12 15  1  0  0  0  0
 12 14  1  0  0  0  0
 13 16  1  0  0  0  0
 14 17  1  0  0  0  0
 16 18  1  0  0  0  0
 16 19  2  0  0  0  0
 18 20  2  0  0  0  0
 18 21  1  0  0  0  0
 19 22  1  0  0  0  0
 20 23  1  0  0  0  0
 20 24  1  0  0  0  0
 21 25  1  0  0  0  0
 22 26  1  0  0  0  0
 22 23  2  0  0  0  0
 25 27  1  0  0  0  0
 27 28  3  0  0  0  0
M  END
> <CdId>
166

> <Mol Weight>
612.222

> <Formula>
C21H14I2N2O2S

> <Click_ID>
CLK003_A07 __ __ 

$$$$
