CLK004_B06
 OpenBabel03181417022D

 26 29  0  0  0  0  0  0  0  0999 V2000
    0.4942    0.4220    0.0000 C   0  0  3  0  0  0  0  0  0  0  0  0
    1.2089    0.0190    0.0000 C   0  0  0  0  0  0  0  0  0  0  0  0
    0.4790    1.2431    0.0000 C   0  0  0  0  0  0  0  0  0  0  0  0
   -0.2242    0.0037    0.0000 C   0  0  0  0  0  0  0  0  0  0  0  0
    1.9235    0.4447    0.0000 C   0  0  0  0  0  0  0  0  0  0  0  0
    1.2202   -0.7945    0.0000 C   0  0  0  0  0  0  0  0  0  0  0  0
    1.1822    1.6612    0.0000 C   0  0  0  0  0  0  0  0  0  0  0  0
   -0.2357    1.6499    0.0000 C   0  0  0  0  0  0  0  0  0  0  0  0
   -0.2091   -0.8211    0.0000 C   0  0  0  0  0  0  0  0  0  0  0  0
   -0.9389    0.4029    0.0000 C   0  0  0  0  0  0  0  0  0  0  0  0
    1.9083    1.2620    0.0000 N   0  0  0  0  0  0  0  0  0  0  0  0
    2.6420    0.0342    0.0000 C   0  0  0  0  0  0  0  0  0  0  0  0
    1.9425   -1.2089    0.0000 C   0  0  0  0  0  0  0  0  0  0  0  0
    0.5018   -1.2316    0.0000 O   0  0  0  0  0  0  0  0  0  0  0  0
    1.1785    2.4975    0.0000 C   0  0  0  0  0  0  0  0  0  0  0  0
   -0.2509    2.4709    0.0000 C   0  0  0  0  0  0  0  0  0  0  0  0
   -0.9541    1.2316    0.0000 O   0  0  0  0  0  0  0  0  0  0  0  0
   -0.9161   -1.2507    0.0000 C   0  0  0  0  0  0  0  0  0  0  0  0
   -1.6573   -0.0228    0.0000 C   0  0  0  0  0  0  0  0  0  0  0  0
    2.6534   -0.7906    0.0000 C   0  0  0  0  0  0  0  0  0  0  0  0
    0.4523    2.8891    0.0000 C   0  0  0  0  0  0  0  0  0  0  0  0
   -1.6422   -0.8515    0.0000 C   0  0  0  0  0  0  0  0  0  0  0  0
   -2.3492   -1.2735    0.0000 O   0  0  0  0  0  0  0  0  0  0  0  0
   -2.3340   -2.1059    0.0000 C   0  0  0  0  0  0  0  0  0  0  0  0
   -3.0487   -2.5279    0.0000 C   0  0  0  0  0  0  0  0  0  0  0  0
   -3.0335   -3.3528    0.0000 C   0  0  0  0  0  0  0  0  0  0  0  0
  1  2  1  0  0  0  0
  1  3  1  0  0  0  0
  1  4  1  0  0  0  0
  2  5  2  0  0  0  0
  2  6  1  0  0  0  0
  3  7  2  0  0  0  0
  3  8  1  0  0  0  0
  4  9  2  0  0  0  0
  4 10  1  0  0  0  0
  5 11  1  0  0  0  0
  5 12  1  0  0  0  0
  6 13  1  0  0  0  0
  6 14  2  0  0  0  0
  7 15  1  0  0  0  0
  7 11  1  0  0  0  0
  8 16  1  0  0  0  0
  8 17  2  0  0  0  0
  9 18  1  0  0  0  0
 10 19  2  0  0  0  0
 12 20  1  0  0  0  0
 13 20  1  0  0  0  0
 15 21  1  0  0  0  0
 16 21  1  0  0  0  0
 18 22  2  0  0  0  0
 19 22  1  0  0  0  0
 22 23  1  0  0  0  0
 23 24  1  0  0  0  0
 24 25  1  0  0  0  0
 25 26  3  0  0  0  0
M  END
> <CdId>
255

> <Mol Weight>
347.407

> <Formula>
C22H21NO3

> <Click_ID>
CLK004_B06 __ __ 

$$$$
