CLK038B04
 OpenBabel03181417022D

 20 21  0  0  0  0  0  0  0  0999 V2000
    1.2500   -1.2167    0.0000 N   0  0  0  0  0  0  0  0  0  0  0  0
    1.9625   -0.8042    0.0000 C   0  0  0  0  0  0  0  0  0  0  0  0
    1.9625    0.0208    0.0000 C   0  0  0  0  0  0  0  0  0  0  0  0
    1.2500    0.4333    0.0000 N   0  0  0  0  0  0  0  0  0  0  0  0
    0.5333    0.0208    0.0000 C   0  0  0  0  0  0  0  0  0  0  0  0
    0.5333   -0.8042    0.0000 C   0  0  0  0  0  0  0  0  0  0  0  0
   -1.6083    0.4333    0.0000 C   0  0  0  0  0  0  0  0  0  0  0  0
   -0.1792    0.4333    0.0000 C   0  0  0  0  0  0  0  0  0  0  0  0
   -0.8958    0.0208    0.0000 C   0  0  0  0  0  0  0  0  0  0  0  0
   -2.3250    2.4958    0.0000 C   0  0  0  0  0  0  0  0  0  0  0  0
   -0.1792   -1.2167    0.0000 C   0  0  0  0  0  0  0  0  0  0  0  0
   -2.3250    3.3208    0.0000 C   0  0  0  0  0  0  0  0  0  0  0  0
    2.6792   -1.2167    0.0000 O   0  0  0  0  0  0  0  0  0  0  0  0
    2.6792    0.4333    0.0000 O   0  0  0  0  0  0  0  0  0  0  0  0
   -0.8958   -0.8042    0.0000 C   0  0  0  0  0  0  0  0  0  0  0  0
   -2.3250    0.0208    0.0000 O   0  0  0  0  0  0  0  0  0  0  0  0
   -1.6083    1.2583    0.0000 N   0  0  0  0  0  0  0  0  0  0  0  0
    1.2500   -2.0417    0.0000 C   0  0  0  0  0  0  0  0  0  0  0  0
   -2.3250    1.6708    0.0000 C   0  0  0  0  0  0  0  0  0  0  0  0
    0.5333   -2.4542    0.0000 C   0  0  0  0  0  0  0  0  0  0  0  0
  2  1  1  0  0  0  0
  3  2  1  0  0  0  0
  4  5  1  0  0  0  0
  4  3  1  0  0  0  0
  5  6  2  0  0  0  0
  6  1  1  0  0  0  0
  7  9  1  0  0  0  0
  8  5  1  0  0  0  0
  9  8  2  0  0  0  0
 10 19  1  0  0  0  0
 11  6  1  0  0  0  0
 12 10  3  0  0  0  0
 13  2  2  0  0  0  0
 14  3  2  0  0  0  0
 15 11  2  0  0  0  0
 15  9  1  0  0  0  0
 16  7  2  0  0  0  0
 17  7  1  0  0  0  0
 18  1  1  0  0  0  0
 19 17  1  0  0  0  0
 20 18  1  0  0  0  0
M  END
> <CdId>
2866

> <Mol Weight>
271.2713

> <Formula>
C14H13N3O3

> <Click_ID>
CLK038B04 __ __ 

$$$$
