CLK044A02
 OpenBabel03181417022D

 20 20  0  0  0  0  0  0  0  0999 V2000
   -1.9292   -0.3292    0.0000 C    0  0  0  0  0  0  0  0  0  0  0  0
   -1.9292    0.4958    0.0000 C    0  0  0  0  0  0  0  0  0  0  0  0
   -1.2167   -0.7417    0.0000 C    0  0  0  0  0  0  0  0  0  0  0  0
    3.7833    0.4958    0.0000 C    0  0  0  0  0  0  0  0  0  0  0  0
    4.5000    0.0833    0.0000 C    0  0  0  0  0  0  0  0  0  0  0  0
    1.6417    0.9083    0.0000 C    0  0  0  0  0  0  0  0  0  0  0  0
    0.9250    0.4958    0.0000 C    0  0  0  0  0  0  0  0  0  0  0  0
    0.2125    0.9083    0.0000 C    0  0  0  0  0  0  0  0  0  0  0  0
   -0.5042    0.4958    0.0000 C    0  0  0  0  0  0  0  0  0  0  0  0
   -1.2167    0.9083    0.0000 C    0  0  0  0  0  0  0  0  0  0  0  0
   -0.5042   -0.3292    0.0000 C    0  0  0  0  0  0  0  0  0  0  0  0
    1.6417    1.7333    0.0000 O    0  0  0  0  0  0  0  0  0  0  0  0
    2.3542    0.4958    0.0000 N    0  0  0  0  0  0  0  0  0  0  0  0
   -2.6458    0.9083    0.0000 Cl   0  0  0  0  0  0  0  0  0  0  0  0
   -2.6458   -0.7417    0.0000 O    0  0  0  0  0  0  0  0  0  0  0  0
   -1.2167   -1.5667    0.0000 O    0  0  0  0  0  0  0  0  0  0  0  0
    3.0708    0.9083    0.0000 C    0  0  0  0  0  0  0  0  0  0  0  0
   -0.5042   -1.9792    0.0000 C    0  0  0  0  0  0  0  0  0  0  0  0
   -3.3583   -0.3292    0.0000 C    0  0  0  0  0  0  0  0  0  0  0  0
   -0.5042   -2.8042    0.0000 C    0  0  0  0  0  0  0  0  0  0  0  0
  2  1  1  0  0  0  0
  3  1  2  0  0  0  0
  4 17  1  0  0  0  0
  5  4  3  0  0  0  0
  6  7  1  0  0  0  0
  7  8  2  0  0  0  0
  8  9  1  0  0  0  0
  9 11  2  0  0  0  0
 10  2  2  0  0  0  0
 10  9  1  0  0  0  0
 11  3  1  0  0  0  0
 12  6  2  0  0  0  0
 13  6  1  0  0  0  0
 14  2  1  0  0  0  0
 15  1  1  0  0  0  0
 16  3  1  0  0  0  0
 17 13  1  0  0  0  0
 18 16  1  0  0  0  0
 19 15  1  0  0  0  0
 20 18  1  0  0  0  0
M  END
> <CdId>
3329

> <Mol Weight>
293.745

> <Formula>
C15H16ClNO3

> <Click_ID>
CLK044A02 __ __ 

$$$$
