CLK038A09
 OpenBabel03181417022D

 31 32  0  0  0  0  0  0  0  0999 V2000
   -0.6417    0.5792    0.0000 C   0  0  0  0  0  0  0  0  0  0  0  0
    0.6292    0.1667    0.0000 N   0  0  0  0  0  0  0  0  0  0  0  0
    0.6292    0.9917    0.0000 N   0  0  0  0  0  0  0  0  0  0  0  0
   -0.1542   -0.0917    0.0000 C   0  0  0  0  0  0  0  0  0  0  0  0
   -0.1542    1.2458    0.0000 C   0  0  0  0  0  0  0  0  0  0  0  0
    6.4458    0.3583    0.0000 C   0  0  0  0  0  0  0  0  0  0  0  0
    6.0333   -0.3542    0.0000 C   0  0  0  0  0  0  0  0  0  0  0  0
   -3.1167    2.0083    0.0000 C   0  0  0  0  0  0  0  0  0  0  0  0
   -3.5292    2.7208    0.0000 C   0  0  0  0  0  0  0  0  0  0  0  0
   -0.4083   -0.8750    0.0000 C   0  0  0  0  0  0  0  0  0  0  0  0
    1.2958    1.4750    0.0000 C   0  0  0  0  0  0  0  0  0  0  0  0
    7.2708    0.3583    0.0000 O   0  0  0  0  0  0  0  0  0  0  0  0
    6.4458   -1.0708    0.0000 O   0  0  0  0  0  0  0  0  0  0  0  0
    0.1417   -1.4875    0.0000 C   0  0  0  0  0  0  0  0  0  0  0  0
   -1.2167   -1.0458    0.0000 C   0  0  0  0  0  0  0  0  0  0  0  0
   -1.4667    0.5792    0.0000 C   0  0  0  0  0  0  0  0  0  0  0  0
    6.0333    1.0750    0.0000 O   0  0  0  0  0  0  0  0  0  0  0  0
    5.2083   -0.3542    0.0000 O   0  0  0  0  0  0  0  0  0  0  0  0
   -0.9208   -2.4417    0.0000 C   0  0  0  0  0  0  0  0  0  0  0  0
   -1.8792    1.2917    0.0000 N   0  0  0  0  0  0  0  0  0  0  0  0
   -0.1125   -2.2708    0.0000 C   0  0  0  0  0  0  0  0  0  0  0  0
   -1.4708   -1.8292    0.0000 C   0  0  0  0  0  0  0  0  0  0  0  0
    2.0500    1.1375    0.0000 C   0  0  0  0  0  0  0  0  0  0  0  0
   -2.7042    1.2917    0.0000 C   0  0  0  0  0  0  0  0  0  0  0  0
   -1.1750   -3.2292    0.0000 O   0  0  0  0  0  0  0  0  0  0  0  0
    2.7167    1.6250    0.0000 C   0  0  0  0  0  0  0  0  0  0  0  0
    2.1375    0.3208    0.0000 C   0  0  0  0  0  0  0  0  0  0  0  0
   -0.6250   -3.8417    0.0000 C   0  0  0  0  0  0  0  0  0  0  0  0
    2.8917   -0.0167    0.0000 C   0  0  0  0  0  0  0  0  0  0  0  0
    3.4708    1.2875    0.0000 C   0  0  0  0  0  0  0  0  0  0  0  0
    3.5583    0.4667    0.0000 C   0  0  0  0  0  0  0  0  0  0  0  0
  2  4  2  0  0  0  0
  3  5  1  0  0  0  0
  3  2  1  0  0  0  0
  4  1  1  0  0  0  0
  5  1  2  0  0  0  0
  7  6  1  0  0  0  0
  8 24  1  0  0  0  0
  9  8  3  0  0  0  0
 10  4  1  0  0  0  0
 11  3  1  0  0  0  0
 12  6  2  0  0  0  0
 13  7  2  0  0  0  0
 14 10  1  0  0  0  0
 15 10  2  0  0  0  0
 16  1  1  0  0  0  0
 17  6  1  0  0  0  0
 18  7  1  0  0  0  0
 19 22  2  0  0  0  0
 20 16  1  0  0  0  0
 21 14  2  0  0  0  0
 21 19  1  0  0  0  0
 22 15  1  0  0  0  0
 23 11  1  0  0  0  0
 24 20  1  0  0  0  0
 25 19  1  0  0  0  0
 26 23  2  0  0  0  0
 27 23  1  0  0  0  0
 28 25  1  0  0  0  0
 29 27  2  0  0  0  0
 30 26  1  0  0  0  0
 31 30  2  0  0  0  0
 31 29  1  0  0  0  0
M  END
> <CdId>
2905

> <Mol Weight>
421.4458

> <Formula>
C23H23N3O5

> <Click_ID>
CLK038A09 __ __ 

$$$$
