CLK021_G08
 OpenBabel03181417022D

 17 18  0  0  0  0  0  0  0  0999 V2000
    4.0700    2.9241    0.0000 C   0  0  0  0  0  0  0  0  0  0  0  0
    4.1571    3.7491    0.0000 N   0  0  0  0  0  0  0  0  0  0  0  0
    4.8171    2.5941    0.0000 N   0  0  0  0  0  0  0  0  0  0  0  0
    5.3762    3.2037    0.0000 C   0  0  0  0  0  0  0  0  0  0  0  0
    4.9637    3.9187    0.0000 C   0  0  0  0  0  0  0  0  0  0  0  0
    5.7796    1.5262    0.0000 C   0  0  0  0  0  0  0  0  0  0  0  0
    6.5634    1.2741    0.0000 C   0  0  0  0  0  0  0  0  0  0  0  0
    3.3550    2.5116    0.0000 C   0  0  3  0  0  0  0  0  0  0  0  0
    1.9250    2.5116    0.0000 C   0  0  0  0  0  0  0  0  0  0  0  0
    4.9959    1.7829    0.0000 C   0  0  0  0  0  0  0  0  0  0  0  0
    1.2100    2.9241    0.0000 O   0  0  0  0  0  0  0  0  0  0  0  0
    2.6400    2.9241    0.0000 N   0  0  0  0  0  0  0  0  0  0  0  0
    6.2012    3.2037    0.0000 C   0  0  0  0  0  0  0  0  0  0  0  0
    5.3762    4.6246    0.0000 C   0  0  0  0  0  0  0  0  0  0  0  0
    3.3550    1.6866    0.0000 C   0  0  0  0  0  0  0  0  0  0  0  0
    6.6137    3.9187    0.0000 C   0  0  0  0  0  0  0  0  0  0  0  0
    6.2012    4.6246    0.0000 C   0  0  0  0  0  0  0  0  0  0  0  0
  2  1  2  0  0  0  0
  3  1  1  0  0  0  0
  4  3  1  0  0  0  0
  5  2  1  0  0  0  0
  5  4  1  0  0  0  0
  6 10  1  0  0  0  0
  7  6  3  0  0  0  0
  8  1  1  0  0  0  0
  9 12  1  0  0  0  0
 10  3  1  0  0  0  0
 11  9  2  0  0  0  0
 12  8  1  0  0  0  0
 13  4  2  0  0  0  0
 14  5  2  0  0  0  0
 15  8  1  0  0  0  0
 16 13  1  0  0  0  0
 17 14  1  0  0  0  0
 17 16  2  0  0  0  0
M  END
> <CdId>
1623

> <Mol Weight>
227.2618

> <Formula>
C13H13N3O

> <Click_ID>
CLK021_G08 __ __ 

$$$$
