CLK031_D02
 OpenBabel03181417022D

 27 29  0  0  0  0  0  0  0  0999 V2000
   -1.1649    2.3882    0.0000 C   0  0  0  0  0  0  0  0  0  0  0  0
   -0.3382    2.3799    0.0000 N   0  0  0  0  0  0  0  0  0  0  0  0
   -4.5928    3.2192    0.0000 S   0  0  0  0  0  0  0  0  0  0  0  0
   -1.6492    1.7244    0.0000 N   0  0  0  0  0  0  0  0  0  0  0  0
    2.1712    2.6889    0.0000 C   0  0  0  0  0  0  0  0  0  0  0  0
   -1.6492    3.0563    0.0000 S   0  0  0  0  0  0  0  0  0  0  0  0
    2.8559    2.2004    0.0000 N   0  3  0  0  0  0  0  0  0  0  0  0
    1.3946    2.4175    0.0000 S   0  0  0  0  0  0  0  0  0  0  0  0
   -2.4383    2.8016    0.0000 C   0  0  0  0  0  0  0  0  0  0  0  0
    0.0752    3.0939    0.0000 C   0  0  0  0  0  0  0  0  0  0  0  0
    0.9019    3.0939    0.0000 C   0  0  0  0  0  0  0  0  0  0  0  0
   -2.4383    1.9749    0.0000 C   0  0  0  0  0  0  0  0  0  0  0  0
   -3.8663    2.8016    0.0000 C   0  0  0  0  0  0  0  0  0  0  0  0
   -3.1523    3.2149    0.0000 C   0  0  0  0  0  0  0  0  0  0  0  0
    2.1587    3.5281    0.0000 C   0  0  0  0  0  0  0  0  0  0  0  0
    1.3821    3.7536    0.0000 C   0  0  0  0  0  0  0  0  0  0  0  0
   -1.9498    0.3215    0.0000 C   0  0  0  0  0  0  0  0  0  0  0  0
   -3.1523    1.5615    0.0000 C   0  0  0  0  0  0  0  0  0  0  0  0
   -2.5010   -0.2923    0.0000 C   0  0  0  0  0  0  0  0  0  0  0  0
   -4.1544    3.9164    0.0000 O   0  0  0  0  0  0  0  0  0  0  0  0
   -5.0312    2.5135    0.0000 O   0  0  0  0  0  0  0  0  0  0  0  0
    2.7808    1.3736    0.0000 O   0  5  0  0  0  0  0  0  0  0  0  0
    3.6075    2.5511    0.0000 O   0  0  0  0  0  0  0  0  0  0  0  0
   -5.2942    3.6534    0.0000 N   0  0  0  0  0  0  0  0  0  0  0  0
   -0.3382    3.8079    0.0000 O   0  0  0  0  0  0  0  0  0  0  0  0
   -3.8663    1.9749    0.0000 C   0  0  0  0  0  0  0  0  0  0  0  0
   -1.3987    0.9352    0.0000 C   0  0  0  0  0  0  0  0  0  0  0  0
  2  1  2  0  0  0  0
  3 13  1  0  0  0  0
  4  1  1  0  0  0  0
  5  8  1  0  0  0  0
  6  1  1  0  0  0  0
  7  5  1  0  0  0  0
  8 11  1  0  0  0  0
  9  6  1  0  0  0  0
  9 12  2  0  0  0  0
 10  2  1  0  0  0  0
 11 10  1  0  0  0  0
 12  4  1  0  0  0  0
 13 14  2  0  0  0  0
 13 26  1  0  0  0  0
 14  9  1  0  0  0  0
 15 16  1  0  0  0  0
 15  5  2  0  0  0  0
 16 11  2  0  0  0  0
 17 27  1  0  0  0  0
 18 12  1  0  0  0  0
 19 17  3  0  0  0  0
 20  3  2  0  0  0  0
 21  3  2  0  0  0  0
 22  7  1  0  0  0  0
 23  7  2  0  0  0  0
 24  3  1  0  0  0  0
 25 10  2  0  0  0  0
 26 18  2  0  0  0  0
 27  4  1  0  0  0  0
M  END
> <CdId>
2356

> <Mol Weight>
422.459

> <Formula>
C15H10N4O5S3

> <Click_ID>
CLK031_D02 __ __ 

$$$$
