CLK043E07
 OpenBabel03181417022D

 31 34  0  0  0  0  0  0  0  0999 V2000
    3.0417    0.9792    0.0000 S   0  0  0  0  0  0  0  0  0  0  0  0
   -2.8208   -0.2875    0.0000 C   0  0  0  0  0  0  0  0  0  0  0  0
   -3.3042    0.3792    0.0000 N   0  0  0  0  0  0  0  0  0  0  0  0
   -3.3042   -0.9542    0.0000 S   0  0  0  0  0  0  0  0  0  0  0  0
   -1.9958   -0.2875    0.0000 C   0  0  0  0  0  0  0  0  0  0  0  0
   -1.5083   -0.9542    0.0000 O   0  0  0  0  0  0  0  0  0  0  0  0
    2.9583    0.1583    0.0000 C   0  0  0  0  0  0  0  0  0  0  0  0
    1.3625   -1.3333    0.0000 C   0  0  0  0  0  0  0  0  0  0  0  0
   -4.0917    0.1250    0.0000 C   0  0  0  0  0  0  0  0  0  0  0  0
   -1.5083    0.3792    0.0000 C   0  0  0  0  0  0  0  0  0  0  0  0
   -4.0917   -0.7000    0.0000 C   0  0  0  0  0  0  0  0  0  0  0  0
   -0.7250   -0.7000    0.0000 C   0  0  0  0  0  0  0  0  0  0  0  0
    3.9667    2.9542    0.0000 C   0  0  0  0  0  0  0  0  0  0  0  0
    2.1167   -1.0000    0.0000 C   0  0  0  0  0  0  0  0  0  0  0  0
    2.2042   -0.1792    0.0000 C   0  0  0  0  0  0  0  0  0  0  0  0
    0.6958   -0.8500    0.0000 N   0  0  0  0  0  0  0  0  0  0  0  0
    4.0542    3.7750    0.0000 C   0  0  0  0  0  0  0  0  0  0  0  0
   -0.7250    0.1250    0.0000 C   0  0  0  0  0  0  0  0  0  0  0  0
    2.2208    1.0625    0.0000 O   0  0  0  0  0  0  0  0  0  0  0  0
    3.8625    0.8917    0.0000 O   0  0  0  0  0  0  0  0  0  0  0  0
    3.1292    1.8000    0.0000 N   0  0  0  0  0  0  0  0  0  0  0  0
    1.2750   -2.1542    0.0000 O   0  0  0  0  0  0  0  0  0  0  0  0
   -0.0583   -1.1833    0.0000 C   0  0  0  0  0  0  0  0  0  0  0  0
    3.8833    2.1333    0.0000 C   0  0  0  0  0  0  0  0  0  0  0  0
    3.6250   -0.3292    0.0000 C   0  0  0  0  0  0  0  0  0  0  0  0
    2.7833   -1.4833    0.0000 C   0  0  0  0  0  0  0  0  0  0  0  0
    3.5375   -1.1500    0.0000 C   0  0  0  0  0  0  0  0  0  0  0  0
   -4.8042    0.5375    0.0000 C   0  0  0  0  0  0  0  0  0  0  0  0
   -4.8042   -1.1125    0.0000 C   0  0  0  0  0  0  0  0  0  0  0  0
   -5.5208    0.1250    0.0000 C   0  0  0  0  0  0  0  0  0  0  0  0
   -5.5208   -0.7000    0.0000 C   0  0  0  0  0  0  0  0  0  0  0  0
  2  5  1  0  0  0  0
  3  2  2  0  0  0  0
  4  2  1  0  0  0  0
  5  6  1  0  0  0  0
  5 10  2  0  0  0  0
  6 12  1  0  0  0  0
  7  1  1  0  0  0  0
  8 14  1  0  0  0  0
  9  3  1  0  0  0  0
 10 18  1  0  0  0  0
 11  4  1  0  0  0  0
 11  9  2  0  0  0  0
 12 23  1  0  0  0  0
 13 24  1  0  0  0  0
 14 15  2  0  0  0  0
 15  7  1  0  0  0  0
 16  8  1  0  0  0  0
 17 13  3  0  0  0  0
 18 12  2  0  0  0  0
 19  1  2  0  0  0  0
 20  1  2  0  0  0  0
 21  1  1  0  0  0  0
 22  8  2  0  0  0  0
 23 16  1  0  0  0  0
 24 21  1  0  0  0  0
 25  7  2  0  0  0  0
 26 14  1  0  0  0  0
 27 25  1  0  0  0  0
 27 26  2  0  0  0  0
 28  9  1  0  0  0  0
 29 11  1  0  0  0  0
 30 28  2  0  0  0  0
 31 29  2  0  0  0  0
 31 30  1  0  0  0  0
M  END
> <CdId>
3293

> <Mol Weight>
451.518

> <Formula>
C22H17N3O4S2

> <Click_ID>
CLK043E07 __ __ 

$$$$
