CLK027_A04
 OpenBabel03181417022D

 27 29  0  0  0  0  0  0  0  0999 V2000
   -2.3234    0.8970    0.0000 N    0  0  0  0  0  0  0  0  0  0  0  0
   -2.7495    0.1924    0.0000 C    0  0  0  0  0  0  0  0  0  0  0  0
   -1.4400   -0.0928    0.0000 C    0  0  0  0  0  0  0  0  0  0  0  0
   -1.5260    0.7183    0.0000 C    0  0  0  0  0  0  0  0  0  0  0  0
   -2.1997   -0.4262    0.0000 S    0  0  0  0  0  0  0  0  0  0  0  0
   -0.7286   -0.5190    0.0000 C    0  0  0  0  0  0  0  0  0  0  0  0
   -2.1618    2.3165    0.0000 C    0  0  0  0  0  0  0  0  0  0  0  0
   -0.7424   -1.3439    0.0000 C    0  0  0  0  0  0  0  0  0  0  0  0
   -1.7116    3.0004    0.0000 C    0  0  0  0  0  0  0  0  0  0  0  0
    2.8320   -0.1684    0.0000 C    0  0  0  0  0  0  0  0  0  0  0  0
   -3.5710    0.1100    0.0000 O    0  0  0  0  0  0  0  0  0  0  0  0
   -0.9142    1.2682    0.0000 O    0  0  0  0  0  0  0  0  0  0  0  0
   -2.6533    1.6532    0.0000 C    0  0  0  0  0  0  0  0  0  0  0  0
    2.8561    0.6461    0.0000 C    0  0  0  0  0  0  0  0  0  0  0  0
   -0.0378   -1.7666    0.0000 C    0  0  0  0  0  0  0  0  0  0  0  0
    0.6805   -1.3748    0.0000 O    0  0  0  0  0  0  0  0  0  0  0  0
    2.1206   -0.5671    0.0000 C    0  0  0  0  0  0  0  0  0  0  0  0
    2.1549    1.0723    0.0000 C    0  0  0  0  0  0  0  0  0  0  0  0
    1.4091   -0.1444    0.0000 C    0  0  0  0  0  0  0  0  0  0  0  0
    3.5434   -0.6049    0.0000 Cl   0  0  0  0  0  0  0  0  0  0  0  0
    0.6840   -0.5430    0.0000 C    0  0  0  0  0  0  0  0  0  0  0  0
    3.5675    1.0414    0.0000 Cl   0  0  0  0  0  0  0  0  0  0  0  0
    1.4160    0.6805    0.0000 C    0  0  0  0  0  0  0  0  0  0  0  0
   -1.4744   -1.7494    0.0000 C    0  0  0  0  0  0  0  0  0  0  0  0
   -0.0550   -2.5983    0.0000 C    0  0  0  0  0  0  0  0  0  0  0  0
   -1.4916   -2.5639    0.0000 C    0  0  0  0  0  0  0  0  0  0  0  0
   -0.7871   -2.9970    0.0000 C    0  0  0  0  0  0  0  0  0  0  0  0
  2  1  1  0  0  0  0
  3  4  1  0  0  0  0
  4  1  1  0  0  0  0
  5  2  1  0  0  0  0
  5  3  1  0  0  0  0
  6  3  2  0  0  0  0
  7 13  1  0  0  0  0
  8  6  1  0  0  0  0
  9  7  3  0  0  0  0
 10 17  1  0  0  0  0
 10 14  2  0  0  0  0
 11  2  2  0  0  0  0
 12  4  2  0  0  0  0
 13  1  1  0  0  0  0
 14 18  1  0  0  0  0
 15  8  1  0  0  0  0
 16 15  1  0  0  0  0
 17 19  2  0  0  0  0
 18 23  2  0  0  0  0
 19 21  1  0  0  0  0
 20 10  1  0  0  0  0
 21 16  1  0  0  0  0
 22 14  1  0  0  0  0
 23 19  1  0  0  0  0
 24  8  2  0  0  0  0
 25 15  2  0  0  0  0
 26 24  1  0  0  0  0
 27 26  2  0  0  0  0
 27 25  1  0  0  0  0
M  END
> <CdId>
2019

> <Mol Weight>
418.293

> <Formula>
C20H13Cl2NO3S

> <Click_ID>
CLK027_A04 __ __ 

$$$$
