CLK016_A03
 OpenBabel03181417022D

 28 31  0  0  0  0  0  0  0  0999 V2000
    1.5736   -0.8203    0.0000 N   0  0  0  0  0  0  0  0  0  0  0  0
    1.8331   -1.6113    0.0000 C   0  0  0  0  0  0  0  0  0  0  0  0
    2.9170   -0.8203    0.0000 C   0  0  0  0  0  0  0  0  0  0  0  0
    2.2474   -0.3307    0.0000 C   0  0  0  0  0  0  0  0  0  0  0  0
    3.7414    1.5652    0.0000 N   0  0  0  0  0  0  0  0  0  0  0  0
    3.8796    0.2385    0.0000 C   0  0  0  0  0  0  0  0  0  0  0  0
    2.6617   -1.6113    0.0000 S   0  0  0  0  0  0  0  0  0  0  0  0
    3.3271    0.8538    0.0000 C   0  0  0  0  0  0  0  0  0  0  0  0
    3.7080   -0.5650    0.0000 C   0  0  0  0  0  0  0  0  0  0  0  0
    4.5450    1.3936    0.0000 C   0  0  0  0  0  0  0  0  0  0  0  0
    4.6329    0.5650    0.0000 C   0  0  0  0  0  0  0  0  0  0  0  0
    0.6152    0.2469    0.0000 C   0  0  0  0  0  0  0  0  0  0  0  0
    3.4067    2.3185    0.0000 C   0  0  0  0  0  0  0  0  0  0  0  0
    0.3934    1.0504    0.0000 C   0  0  0  0  0  0  0  0  0  0  0  0
    1.3434   -2.2767    0.0000 O   0  0  0  0  0  0  0  0  0  0  0  0
    2.2390    0.4980    0.0000 O   0  0  0  0  0  0  0  0  0  0  0  0
    0.7910   -0.5650    0.0000 C   0  0  0  0  0  0  0  0  0  0  0  0
    2.5864    2.4064    0.0000 C   0  0  0  0  0  0  0  0  0  0  0  0
    0.9459    2.5947    0.0000 C   0  0  0  0  0  0  0  0  0  0  0  0
    0.1256    2.6868    0.0000 F   0  0  0  0  0  0  0  0  0  0  0  0
    2.1009    1.7535    0.0000 C   0  0  0  0  0  0  0  0  0  0  0  0
    2.2516    3.1597    0.0000 C   0  0  0  0  0  0  0  0  0  0  0  0
    1.2723    1.8331    0.0000 C   0  0  0  0  0  0  0  0  0  0  0  0
    1.4355    3.2601    0.0000 C   0  0  0  0  0  0  0  0  0  0  0  0
    5.2146    1.8665    0.0000 C   0  0  0  0  0  0  0  0  0  0  0  0
    5.3778    0.2343    0.0000 C   0  0  0  0  0  0  0  0  0  0  0  0
    5.9637    1.5317    0.0000 C   0  0  0  0  0  0  0  0  0  0  0  0
    6.0433    0.7156    0.0000 C   0  0  0  0  0  0  0  0  0  0  0  0
  2  1  1  0  0  0  0
  3  4  1  0  0  0  0
  3  7  1  0  0  0  0
  4  1  1  0  0  0  0
  5  8  1  0  0  0  0
  5 10  1  0  0  0  0
  6  9  1  0  0  0  0
  7  2  1  0  0  0  0
  8  6  2  0  0  0  0
  9  3  2  0  0  0  0
 10 11  1  0  0  0  0
 11  6  1  0  0  0  0
 12 17  1  0  0  0  0
 13  5  1  0  0  0  0
 14 12  3  0  0  0  0
 15  2  2  0  0  0  0
 16  4  2  0  0  0  0
 17  1  1  0  0  0  0
 18 13  1  0  0  0  0
 19 24  2  0  0  0  0
 20 19  1  0  0  0  0
 21 18  1  0  0  0  0
 22 18  2  0  0  0  0
 23 21  2  0  0  0  0
 23 19  1  0  0  0  0
 24 22  1  0  0  0  0
 25 10  2  0  0  0  0
 25 27  1  0  0  0  0
 26 11  2  0  0  0  0
 27 28  2  0  0  0  0
 28 26  1  0  0  0  0
M  END
> <CdId>
1158

> <Mol Weight>
390.43

> <Formula>
C22H15FN2O2S

> <Click_ID>
CLK016_A03 __ __ 

$$$$
