CLK003_G10
 OpenBabel03181417022D

 18 19  0  0  0  0  0  0  0  0999 V2000
    1.4202   -0.2276    0.0000 N   0  0  0  0  0  0  0  0  0  0  0  0
    0.9445   -0.9173    0.0000 C   0  0  0  0  0  0  0  0  0  0  0  0
    1.0634    0.5028    0.0000 C   0  0  0  0  0  0  0  0  0  0  0  0
    2.2084   -0.4825    0.0000 C   0  0  0  0  0  0  0  0  0  0  0  0
    1.4371   -1.5663    0.0000 N   0  0  0  0  0  0  0  0  0  0  0  0
    0.1189   -0.9173    0.0000 S   0  0  0  0  0  0  0  0  0  0  0  0
    0.2548    0.5844    0.0000 C   0  0  0  0  0  0  0  0  0  0  0  0
    1.5357    1.1925    0.0000 O   0  0  0  0  0  0  0  0  0  0  0  0
    2.2084   -1.3114    0.0000 N   0  0  0  0  0  0  0  0  0  0  0  0
   -0.2989   -1.6274    0.0000 C   0  0  0  0  0  0  0  0  0  0  0  0
   -0.1019    1.3285    0.0000 C   0  0  0  0  0  0  0  0  0  0  0  0
   -1.1246   -1.6274    0.0000 C   0  0  0  0  0  0  0  0  0  0  0  0
   -0.9275    1.4099    0.0000 C   0  0  0  0  0  0  0  0  0  0  0  0
   -1.5357   -2.3341    0.0000 C   0  0  0  0  0  0  0  0  0  0  0  0
   -1.3386    2.1167    0.0000 C   0  0  0  0  0  0  0  0  0  0  0  0
   -1.4813    0.7984    0.0000 S   0  0  0  0  0  0  0  0  0  0  0  0
   -2.1472    1.9400    0.0000 C   0  0  0  0  0  0  0  0  0  0  0  0
   -2.2254    1.1314    0.0000 C   0  0  0  0  0  0  0  0  0  0  0  0
  1  2  1  0  0  0  0
  1  3  1  0  0  0  0
  1  4  1  0  0  0  0
  2  5  2  0  0  0  0
  2  6  1  0  0  0  0
  3  7  1  0  0  0  0
  3  8  2  0  0  0  0
  4  9  2  0  0  0  0
  5  9  1  0  0  0  0
  6 10  1  0  0  0  0
  7 11  2  0  0  0  0
 10 12  1  0  0  0  0
 11 13  1  0  0  0  0
 12 14  3  0  0  0  0
 13 15  2  0  0  0  0
 13 16  1  0  0  0  0
 15 17  1  0  0  0  0
 16 18  1  0  0  0  0
 17 18  2  0  0  0  0
M  END
> <CdId>
229

> <Mol Weight>
275.349

> <Formula>
C12H9N3OS2

> <Click_ID>
CLK003_G10 __ __ 

$$$$
