CLK036_B05
 OpenBabel03181417022D

 28 30  0  0  0  0  0  0  0  0999 V2000
    4.1703   -1.3402    0.0000 C   0  0  0  0  0  0  0  0  0  0  0  0
    4.5075   -2.1019    0.0000 N   0  0  0  0  0  0  0  0  0  0  0  0
    3.3629   -1.1779    0.0000 N   0  0  0  0  0  0  0  0  0  0  0  0
    4.5824   -0.6368    0.0000 S   0  0  0  0  0  0  0  0  0  0  0  0
    7.6457   -3.8624    0.0000 S   0  0  0  0  0  0  0  0  0  0  0  0
    4.0247   -0.0167    0.0000 C   0  0  0  0  0  0  0  0  0  0  0  0
    3.2755   -0.3538    0.0000 C   0  0  0  0  0  0  0  0  0  0  0  0
    5.3233   -2.1893    0.0000 C   0  0  0  0  0  0  0  0  0  0  0  0
    6.8216   -3.7833    0.0000 C   0  0  0  0  0  0  0  0  0  0  0  0
    5.6604   -2.9384    0.0000 C   0  0  0  0  0  0  0  0  0  0  0  0
    4.1121    0.7991    0.0000 C   0  0  0  0  0  0  0  0  0  0  0  0
    2.9384   -2.5264    0.0000 C   0  0  0  0  0  0  0  0  0  0  0  0
    6.4845   -3.0258    0.0000 C   0  0  0  0  0  0  0  0  0  0  0  0
    3.1215   -3.3255    0.0000 C   0  0  0  0  0  0  0  0  0  0  0  0
    2.6096    0.1332    0.0000 C   0  0  0  0  0  0  0  0  0  0  0  0
    7.5583   -4.6865    0.0000 O   0  0  0  0  0  0  0  0  0  0  0  0
    7.7289   -3.0383    0.0000 O   0  0  0  0  0  0  0  0  0  0  0  0
    5.8102   -1.5150    0.0000 O   0  0  0  0  0  0  0  0  0  0  0  0
    2.7636   -1.7273    0.0000 C   0  0  0  0  0  0  0  0  0  0  0  0
    3.4462    1.2861    0.0000 C   0  0  0  0  0  0  0  0  0  0  0  0
    2.6970    0.9572    0.0000 C   0  0  0  0  0  0  0  0  0  0  0  0
    8.4697   -3.9498    0.0000 C   0  0  0  0  0  0  0  0  0  0  0  0
    3.5211    2.1101    0.0000 O   0  0  0  0  0  0  0  0  0  0  0  0
    6.3346   -4.4492    0.0000 C   0  0  0  0  0  0  0  0  0  0  0  0
    5.1734   -3.6127    0.0000 C   0  0  0  0  0  0  0  0  0  0  0  0
    5.5105   -4.3618    0.0000 C   0  0  0  0  0  0  0  0  0  0  0  0
    2.8468    2.5846    0.0000 C   0  0  0  0  0  0  0  0  0  0  0  0
    2.9217    3.4170    0.0000 C   0  0  0  0  0  0  0  0  0  0  0  0
  2  1  2  0  0  0  0
  3  1  1  0  0  0  0
  4  1  1  0  0  0  0
  5  9  1  0  0  0  0
  6  4  1  0  0  0  0
  7  3  1  0  0  0  0
  7  6  2  0  0  0  0
  8  2  1  0  0  0  0
  9 13  2  0  0  0  0
  9 24  1  0  0  0  0
 10  8  1  0  0  0  0
 11  6  1  0  0  0  0
 12 19  1  0  0  0  0
 13 10  1  0  0  0  0
 14 12  3  0  0  0  0
 15  7  1  0  0  0  0
 16  5  2  0  0  0  0
 17  5  2  0  0  0  0
 18  8  2  0  0  0  0
 19  3  1  0  0  0  0
 20 11  2  0  0  0  0
 21 15  2  0  0  0  0
 21 20  1  0  0  0  0
 22  5  1  0  0  0  0
 23 20  1  0  0  0  0
 24 26  2  0  0  0  0
 25 10  2  0  0  0  0
 26 25  1  0  0  0  0
 27 23  1  0  0  0  0
 28 27  1  0  0  0  0
M  END
> <CdId>
2735

> <Mol Weight>
414.498

> <Formula>
C20H18N2O4S2

> <Click_ID>
CLK036_B05 __ __ 

$$$$
