CLK044C08
 OpenBabel03181417022D

 23 24  0  0  0  0  0  0  0  0999 V2000
    2.0880    0.6085    0.0000 S   0  0  0  0  0  0  0  0  0  0  0  0
   -3.6259   -0.0708    0.0000 N   0  0  0  0  0  0  0  0  0  0  0  0
    1.4212    0.1250    0.0000 C   0  0  0  0  0  0  0  0  0  0  0  0
   -2.8424   -0.3251    0.0000 C   0  0  0  0  0  0  0  0  0  0  0  0
   -2.8424   -1.1503    0.0000 C   0  0  0  0  0  0  0  0  0  0  0  0
   -0.7544    0.3126    0.0000 C   0  0  0  0  0  0  0  0  0  0  0  0
   -4.1135   -0.7377    0.0000 O   0  0  0  0  0  0  0  0  0  0  0  0
   -3.6259   -1.4046    0.0000 C   0  0  0  0  0  0  0  0  0  0  0  0
    4.1761    1.2420    0.0000 C   0  0  0  0  0  0  0  0  0  0  0  0
    0.0000   -0.0250    0.0000 C   0  0  0  0  0  0  0  0  0  0  0  0
    0.6669    0.4584    0.0000 C   0  0  0  0  0  0  0  0  0  0  0  0
    4.8470    1.7296    0.0000 C   0  0  0  0  0  0  0  0  0  0  0  0
    1.6046    1.2753    0.0000 O   0  0  0  0  0  0  0  0  0  0  0  0
    2.5757   -0.0583    0.0000 O   0  0  0  0  0  0  0  0  0  0  0  0
    2.7549    1.0961    0.0000 N   0  0  0  0  0  0  0  0  0  0  0  0
   -1.4212   -0.1750    0.0000 O   0  0  0  0  0  0  0  0  0  0  0  0
   -0.8419    1.1295    0.0000 O   0  0  0  0  0  0  0  0  0  0  0  0
   -2.1756    0.1625    0.0000 C   0  0  0  0  0  0  0  0  0  0  0  0
    3.5092    0.7585    0.0000 C   0  0  0  0  0  0  0  0  0  0  0  0
    1.5087   -0.6960    0.0000 C   0  0  0  0  0  0  0  0  0  0  0  0
    0.0875   -0.8460    0.0000 C   0  0  0  0  0  0  0  0  0  0  0  0
    0.8419   -1.1795    0.0000 C   0  0  0  0  0  0  0  0  0  0  0  0
   -3.8843   -2.1881    0.0000 C   0  0  0  0  0  0  0  0  0  0  0  0
  2  4  2  0  0  0  0
  3  1  1  0  0  0  0
  4 18  1  0  0  0  0
  5  4  1  0  0  0  0
  6 10  1  0  0  0  0
  7  2  1  0  0  0  0
  7  8  1  0  0  0  0
  8  5  2  0  0  0  0
  9 19  1  0  0  0  0
 10 11  2  0  0  0  0
 11  3  1  0  0  0  0
 12  9  3  0  0  0  0
 13  1  2  0  0  0  0
 14  1  2  0  0  0  0
 15  1  1  0  0  0  0
 16  6  1  0  0  0  0
 17  6  2  0  0  0  0
 18 16  1  0  0  0  0
 19 15  1  0  0  0  0
 20  3  2  0  0  0  0
 21 10  1  0  0  0  0
 22 20  1  0  0  0  0
 22 21  2  0  0  0  0
 23  8  1  0  0  0  0
M  END
> <CdId>
3379

> <Mol Weight>
334.347

> <Formula>
C15H14N2O5S

> <Click_ID>
CLK044C08 __ __ 

$$$$
