CLK040C10
 OpenBabel03181417022D

 26 27  0  0  0  0  0  0  0  0999 V2000
   -0.1958    1.6042    0.0000 S   0  0  0  0  0  0  0  0  0  0  0  0
   -0.1958    0.7792    0.0000 N   0  0  0  0  0  0  0  0  0  0  0  0
   -0.1958   -1.6958    0.0000 C   0  0  0  0  0  0  0  0  0  0  0  0
   -0.1958    2.4292    0.0000 C   0  0  0  0  0  0  0  0  0  0  0  0
    0.5208   -2.1083    0.0000 N   0  0  0  0  0  0  0  0  0  0  0  0
    0.5208   -3.7583    0.0000 C   0  0  0  0  0  0  0  0  0  0  0  0
   -1.0208    1.6042    0.0000 O   0  0  0  0  0  0  0  0  0  0  0  0
    0.6292    1.6042    0.0000 O   0  0  0  0  0  0  0  0  0  0  0  0
    0.5208   -4.5833    0.0000 C   0  0  0  0  0  0  0  0  0  0  0  0
    0.5208   -2.9333    0.0000 C   0  0  0  0  0  0  0  0  0  0  0  0
   -0.1958   -0.8708    0.0000 C   0  0  0  0  0  0  0  0  0  0  0  0
    0.5208    0.3667    0.0000 C   0  0  0  0  0  0  0  0  0  0  0  0
   -0.9083    0.3667    0.0000 C   0  0  0  0  0  0  0  0  0  0  0  0
   -0.9083   -2.1083    0.0000 O   0  0  0  0  0  0  0  0  0  0  0  0
    0.5208   -0.4583    0.0000 C   0  0  0  0  0  0  0  0  0  0  0  0
   -0.9083   -0.4583    0.0000 C   0  0  0  0  0  0  0  0  0  0  0  0
    0.5208    2.8417    0.0000 C   0  0  0  0  0  0  0  0  0  0  0  0
   -0.9083    2.8417    0.0000 C   0  0  0  0  0  0  0  0  0  0  0  0
   -0.1958    4.0750    0.0000 C   0  0  0  0  0  0  0  0  0  0  0  0
   -0.9083    3.6667    0.0000 C   0  0  0  0  0  0  0  0  0  0  0  0
    0.5208    3.6667    0.0000 C   0  0  0  0  0  0  0  0  0  0  0  0
   -0.1958    4.9000    0.0000 F   0  0  0  0  0  0  0  0  0  0  0  0
   -0.3042   -2.9333    0.0000 C   0  0  0  0  0  0  0  0  0  0  0  0
    1.3458   -2.9333    0.0000 C   0  0  0  0  0  0  0  0  0  0  0  0
   -0.7167   -2.2167    0.0000 C   0  0  0  0  0  0  0  0  0  0  0  0
    1.7583   -3.6458    0.0000 C   0  0  0  0  0  0  0  0  0  0  0  0
  2  1  1  0  0  0  0
  3 11  1  0  0  0  0
  4  1  1  0  0  0  0
  5  3  1  0  0  0  0
  6 10  1  0  0  0  0
  7  1  2  0  0  0  0
  8  1  2  0  0  0  0
  9  6  3  0  0  0  0
 10  5  1  0  0  0  0
 11 16  1  0  0  0  0
 12  2  1  0  0  0  0
 13  2  1  0  0  0  0
 14  3  2  0  0  0  0
 15 12  1  0  0  0  0
 15 11  1  0  0  0  0
 16 13  1  0  0  0  0
 17  4  1  0  0  0  0
 18  4  2  0  0  0  0
 19 20  2  0  0  0  0
 19 21  1  0  0  0  0
 20 18  1  0  0  0  0
 21 17  2  0  0  0  0
 22 19  1  0  0  0  0
 23 10  1  0  0  0  0
 24 10  1  0  0  0  0
 25 23  1  0  0  0  0
 26 24  1  0  0  0  0
M  END
> <CdId>
3075

> <Mol Weight>
380.477

> <Formula>
C19H25FN2O3S

> <Click_ID>
CLK040C10 __ __ 

$$$$
