CLK024_G09
 OpenBabel03181417022D

 35 38  0  0  0  0  0  0  0  0999 V2000
   -1.5552   -1.4263    0.0000 C   0  0  0  0  0  0  0  0  0  0  0  0
   -1.0601   -2.0923    0.0000 N   0  0  0  0  0  0  0  0  0  0  0  0
   -0.2860   -1.8656    0.0000 C   0  0  0  0  0  0  0  0  0  0  0  0
   -0.2720   -1.0949    0.0000 C   0  0  0  0  0  0  0  0  0  0  0  0
   -1.0217   -0.7706    0.0000 S   0  0  0  0  0  0  0  0  0  0  0  0
   -2.4131   -1.4332    0.0000 N   0  0  0  0  0  0  0  0  0  0  0  0
    0.4185   -0.6486    0.0000 C   0  0  0  0  0  0  0  0  0  0  0  0
   -4.1811    1.5343    0.0000 N   0  0  0  0  0  0  0  0  0  0  0  0
    4.7635   -2.0609    0.0000 C   0  0  0  0  0  0  0  0  0  0  0  0
    5.4887   -2.4340    0.0000 C   0  0  0  0  0  0  0  0  0  0  0  0
    2.5631   -0.9415    0.0000 C   0  0  0  0  0  0  0  0  0  0  0  0
   -3.7382    0.7951    0.0000 C   0  0  0  0  0  0  0  0  0  0  0  0
    0.2999   -2.4410    0.0000 O   0  0  0  0  0  0  0  0  0  0  0  0
    1.1543   -1.0217    0.0000 C   0  0  0  0  0  0  0  0  0  0  0  0
    1.8308   -0.5719    0.0000 C   0  0  0  0  0  0  0  0  0  0  0  0
    2.6084   -1.7680    0.0000 C   0  0  0  0  0  0  0  0  0  0  0  0
   -2.8525   -0.6940    0.0000 C   0  0  0  0  0  0  0  0  0  0  0  0
   -1.3321   -2.8699    0.0000 C   0  0  0  0  0  0  0  0  0  0  0  0
   -4.1601    0.0383    0.0000 C   0  0  0  0  0  0  0  0  0  0  0  0
   -2.8734    0.8020    0.0000 C   0  0  0  0  0  0  0  0  0  0  0  0
    1.9180   -2.2143    0.0000 C   0  0  0  0  0  0  0  0  0  0  0  0
    1.1926   -1.8412    0.0000 C   0  0  0  0  0  0  0  0  0  0  0  0
   -3.7208   -0.7114    0.0000 C   0  0  0  0  0  0  0  0  0  0  0  0
   -2.4306    0.0628    0.0000 C   0  0  0  0  0  0  0  0  0  0  0  0
    3.2500   -0.4986    0.0000 O   0  0  0  0  0  0  0  0  0  0  0  0
    3.3372   -2.1376    0.0000 O   0  0  0  0  0  0  0  0  0  0  0  0
    4.0277   -1.6948    0.0000 C   0  0  0  0  0  0  0  0  0  0  0  0
   -5.0494    1.5239    0.0000 C   0  0  0  0  0  0  0  0  0  0  0  0
   -3.7626    2.2911    0.0000 C   0  0  0  0  0  0  0  0  0  0  0  0
    3.2081    0.3243    0.0000 C   0  0  0  0  0  0  0  0  0  0  0  0
   -2.1306   -3.0234    0.0000 C   0  0  0  0  0  0  0  0  0  0  0  0
   -4.1985    3.0269    0.0000 C   0  0  0  0  0  0  0  0  0  0  0  0
   -5.4887    2.2771    0.0000 C   0  0  0  0  0  0  0  0  0  0  0  0
    3.8917    0.7706    0.0000 C   0  0  0  0  0  0  0  0  0  0  0  0
   -5.0633    3.0269    0.0000 C   0  0  0  0  0  0  0  0  0  0  0  0
  2  1  1  0  0  0  0
  3  2  1  0  0  0  0
  4  5  1  0  0  0  0
  4  3  1  0  0  0  0
  5  1  1  0  0  0  0
  6  1  2  0  0  0  0
  7  4  2  0  0  0  0
  8 12  1  0  0  0  0
  9 27  1  0  0  0  0
 10  9  3  0  0  0  0
 11 15  2  0  0  0  0
 11 16  1  0  0  0  0
 12 20  2  0  0  0  0
 12 19  1  0  0  0  0
 13  3  2  0  0  0  0
 14  7  1  0  0  0  0
 15 14  1  0  0  0  0
 16 21  2  0  0  0  0
 17  6  1  0  0  0  0
 18  2  1  0  0  0  0
 19 23  2  0  0  0  0
 20 24  1  0  0  0  0
 21 22  1  0  0  0  0
 22 14  2  0  0  0  0
 23 17  1  0  0  0  0
 24 17  2  0  0  0  0
 25 11  1  0  0  0  0
 26 16  1  0  0  0  0
 27 26  1  0  0  0  0
 28  8  1  0  0  0  0
 29  8  1  0  0  0  0
 30 25  1  0  0  0  0
 31 18  1  0  0  0  0
 32 29  1  0  0  0  0
 33 28  1  0  0  0  0
 33 35  1  0  0  0  0
 34 30  1  0  0  0  0
 35 32  1  0  0  0  0
M  END
> <CdId>
1844

> <Mol Weight>
489.629

> <Formula>
C28H31N3O3S

> <Click_ID>
CLK024_G09 __ __ 

$$$$
