CLK026_C04
 OpenBabel03181417022D

 27 30  0  0  0  0  0  0  0  0999 V2000
   -1.4915    0.1203    0.0000 C   0  0  3  0  0  0  0  0  0  0  0  0
   -2.0448   -0.4949    0.0000 C   0  0  0  0  0  0  0  0  0  0  0  0
   -2.7940   -0.1615    0.0000 N   0  0  0  0  0  0  0  0  0  0  0  0
   -1.9005    0.8351    0.0000 C   0  0  0  0  0  0  0  0  0  0  0  0
   -2.7080    0.6598    0.0000 C   0  0  0  0  0  0  0  0  0  0  0  0
   -0.7767    0.5327    0.0000 C   0  0  0  0  0  0  0  0  0  0  0  0
   -0.0584    0.1203    0.0000 C   0  0  0  0  0  0  0  0  0  0  0  0
    0.6530    0.5327    0.0000 C   0  0  0  0  0  0  0  0  0  0  0  0
   -3.5122   -1.3953    0.0000 C   0  0  0  0  0  0  0  0  0  0  0  0
   -3.5122   -2.2235    0.0000 C   0  0  0  0  0  0  0  0  0  0  0  0
    1.3747    0.1203    0.0000 C   0  0  0  0  0  0  0  0  0  0  0  0
    2.0826    0.5361    0.0000 C   0  0  0  0  0  0  0  0  0  0  0  0
   -1.8729   -1.2956    0.0000 O   0  0  0  0  0  0  0  0  0  0  0  0
    2.0826    1.3644    0.0000 C   0  0  0  0  0  0  0  0  0  0  0  0
   -3.5122   -0.5739    0.0000 C   0  0  0  0  0  0  0  0  0  0  0  0
   -1.0791   -0.5877    0.0000 O   0  0  0  0  0  0  0  0  0  0  0  0
   -0.0687   -0.6976    0.0000 O   0  0  0  0  0  0  0  0  0  0  0  0
    0.6530    1.3574    0.0000 C   0  0  0  0  0  0  0  0  0  0  0  0
    1.3747    1.7768    0.0000 C   0  0  0  0  0  0  0  0  0  0  0  0
   -1.6461    1.6187    0.0000 C   0  0  0  0  0  0  0  0  0  0  0  0
   -3.2648    1.2681    0.0000 C   0  0  0  0  0  0  0  0  0  0  0  0
    2.7940    0.1272    0.0000 C   0  0  0  0  0  0  0  0  0  0  0  0
    2.7940    1.7768    0.0000 C   0  0  0  0  0  0  0  0  0  0  0  0
   -2.2063    2.2269    0.0000 C   0  0  0  0  0  0  0  0  0  0  0  0
   -3.0173    2.0551    0.0000 C   0  0  0  0  0  0  0  0  0  0  0  0
    3.5088    0.5361    0.0000 C   0  0  0  0  0  0  0  0  0  0  0  0
    3.5088    1.3644    0.0000 C   0  0  0  0  0  0  0  0  0  0  0  0
  2  1  1  0  0  0  0
  3  2  1  0  0  0  0
  4  1  1  0  0  0  0
  5  4  2  0  0  0  0
  5  3  1  0  0  0  0
  6  1  1  0  0  0  0
  7  6  1  0  0  0  0
  8  7  1  0  0  0  0
  9 15  1  0  0  0  0
 10  9  3  0  0  0  0
 11  8  1  0  0  0  0
 12 11  2  0  0  0  0
 13  2  2  0  0  0  0
 14 19  2  0  0  0  0
 14 12  1  0  0  0  0
 15  3  1  0  0  0  0
 16  1  1  0  0  0  0
 17  7  2  0  0  0  0
 18  8  2  0  0  0  0
 19 18  1  0  0  0  0
 20  4  1  0  0  0  0
 21  5  1  0  0  0  0
 21 25  2  0  0  0  0
 22 12  1  0  0  0  0
 23 14  1  0  0  0  0
 24 20  2  0  0  0  0
 25 24  1  0  0  0  0
 26 22  1  0  0  0  0
 26 27  1  0  0  0  0
 27 23  1  0  0  0  0
M  END
> <CdId>
1959

> <Mol Weight>
359.4177

> <Formula>
C23H21NO3

> <Click_ID>
CLK026_C04 __ __ 

$$$$
