CLK009_E06
 OpenBabel03181417022D

 40 43  0  0  0  0  0  0  0  0999 V2000
    3.6348   -0.4538    0.0000 N   0  3  0  0  0  0  0  0  0  0  0  0
    1.3802    1.2289    0.0000 C   0  0  0  0  0  0  0  0  0  0  0  0
   -1.4700    1.2289    0.0000 C   0  0  0  0  0  0  0  0  0  0  0  0
    0.6665   -1.6496    0.0000 C   0  0  0  0  0  0  0  0  0  0  0  0
   -0.7751    0.8319    0.0000 C   0  0  0  0  0  0  0  0  0  0  0  0
    0.6806    0.8319    0.0000 C   0  0  0  0  0  0  0  0  0  0  0  0
   -0.0378   -1.2337    0.0000 N   0  0  0  0  0  0  0  0  0  0  0  0
    2.0609    0.8319    0.0000 N   0  0  0  0  0  0  0  0  0  0  0  0
   -2.1506    0.8508    0.0000 N   0  0  0  0  0  0  0  0  0  0  0  0
   -0.0378   -0.4302    0.0000 C   0  0  0  0  0  0  0  0  0  0  0  0
   -0.0378    1.2289    0.0000 C   0  0  0  0  0  0  0  0  0  0  0  0
   -4.9866    0.9784    0.0000 C   0  0  0  0  0  0  0  0  0  0  0  0
    4.9394    0.8177    0.0000 C   0  0  0  0  0  0  0  0  0  0  0  0
    2.8218   -0.4538    0.0000 C   0  0  0  0  0  0  0  0  0  0  0  0
   -5.6956    1.4180    0.0000 C   0  0  0  0  0  0  0  0  0  0  0  0
    5.6578    1.2431    0.0000 C   0  0  0  0  0  0  0  0  0  0  0  0
    4.1264   -1.0635    0.0000 O   0  5  0  0  0  0  0  0  0  0  0  0
    1.3613   -1.2526    0.0000 C   0  0  0  0  0  0  0  0  0  0  0  0
    0.6806   -0.0048    0.0000 C   0  0  0  0  0  0  0  0  0  0  0  0
   -0.7751   -0.0048    0.0000 C   0  0  0  0  0  0  0  0  0  0  0  0
    4.1453    0.2221    0.0000 O   0  0  0  0  0  0  0  0  0  0  0  0
    1.3660    2.0419    0.0000 O   0  0  0  0  0  0  0  0  0  0  0  0
   -1.4558    2.0655    0.0000 O   0  0  0  0  0  0  0  0  0  0  0  0
    0.6665   -2.4248    0.0000 O   0  0  0  0  0  0  0  0  0  0  0  0
    2.7651    1.2289    0.0000 C   0  0  0  0  0  0  0  0  0  0  0  0
   -2.7793    1.3423    0.0000 C   0  0  0  0  0  0  0  0  0  0  0  0
    2.0986   -0.0567    0.0000 C   0  0  0  0  0  0  0  0  0  0  0  0
    2.8218   -1.2526    0.0000 C   0  0  0  0  0  0  0  0  0  0  0  0
    1.3613   -0.4727    0.0000 C   0  0  0  0  0  0  0  0  0  0  0  0
    2.0750   -1.6638    0.0000 C   0  0  0  0  0  0  0  0  0  0  0  0
    4.2398    1.2431    0.0000 C   0  0  0  0  0  0  0  0  0  0  0  0
   -4.2682    1.3755    0.0000 C   0  0  0  0  0  0  0  0  0  0  0  0
    3.5024    0.8177    0.0000 C   0  0  0  0  0  0  0  0  0  0  0  0
   -3.5686    0.9217    0.0000 C   0  0  0  0  0  0  0  0  0  0  0  0
   -3.5166    2.5760    0.0000 C   0  0  0  0  0  0  0  0  0  0  0  0
    3.4789    2.4390    0.0000 C   0  0  0  0  0  0  0  0  0  0  0  0
   -2.7793    2.1506    0.0000 C   0  0  0  0  0  0  0  0  0  0  0  0
    2.7651    2.0371    0.0000 C   0  0  0  0  0  0  0  0  0  0  0  0
   -4.2776    2.1695    0.0000 C   0  0  0  0  0  0  0  0  0  0  0  0
    4.2398    2.0655    0.0000 C   0  0  0  0  0  0  0  0  0  0  0  0
  2  6  1  0  0  0  0
  3  5  1  0  0  0  0
  4 18  1  0  0  0  0
  5 20  1  0  0  0  0
  6 19  2  0  0  0  0
  7  4  1  0  0  0  0
  8  2  1  0  0  0  0
  9  3  1  0  0  0  0
 10  7  1  0  0  0  0
 11  5  2  0  0  0  0
 11  6  1  0  0  0  0
 12 32  1  0  0  0  0
 13 31  1  0  0  0  0
 14  1  1  0  0  0  0
 15 12  3  0  0  0  0
 16 13  3  0  0  0  0
 17  1  1  0  0  0  0
 18 30  2  0  0  0  0
 19 10  1  0  0  0  0
 20 10  2  0  0  0  0
 21  1  2  0  0  0  0
 22  2  2  0  0  0  0
 23  3  2  0  0  0  0
 24  4  2  0  0  0  0
 25  8  1  0  0  0  0
 26  9  1  0  0  0  0
 27 14  1  0  0  0  0
 28 14  2  0  0  0  0
 29 27  2  0  0  0  0
 29 18  1  0  0  0  0
 30 28  1  0  0  0  0
 31 33  1  0  0  0  0
 31 40  2  0  0  0  0
 32 34  2  0  0  0  0
 32 39  1  0  0  0  0
 33 25  2  0  0  0  0
 34 26  1  0  0  0  0
 35 37  1  0  0  0  0
 36 38  2  0  0  0  0
 37 26  2  0  0  0  0
 38 25  1  0  0  0  0
 39 35  2  0  0  0  0
 40 36  1  0  0  0  0
M  END
> <CdId>
641

> <Mol Weight>
528.5143

> <Formula>
C31H20N4O5

> <Click_ID>
CLK009_E06 __ __ 

$$$$
