CLK037A05
 OpenBabel03181417022D

 24 23  0  0  0  0  0  0  0  0999 V2000
    4.3542    0.3583    0.0000 C   0  0  0  0  0  0  0  0  0  0  0  0
    3.9417   -0.3542    0.0000 C   0  0  0  0  0  0  0  0  0  0  0  0
    1.4667    3.8750    0.0000 C   0  0  0  0  0  0  0  0  0  0  0  0
    1.4667    4.6958    0.0000 C   0  0  0  0  0  0  0  0  0  0  0  0
    5.1792    0.3583    0.0000 O   0  0  0  0  0  0  0  0  0  0  0  0
    4.3542   -1.0708    0.0000 O   0  0  0  0  0  0  0  0  0  0  0  0
   -0.6750    0.1625    0.0000 O   0  0  0  0  0  0  0  0  0  0  0  0
    3.9417    1.0750    0.0000 O   0  0  0  0  0  0  0  0  0  0  0  0
    3.1167   -0.3542    0.0000 O   0  0  0  0  0  0  0  0  0  0  0  0
   -0.6750   -0.6625    0.0000 C   0  0  0  0  0  0  0  0  0  0  0  0
    0.0375    1.4000    0.0000 C   0  0  3  0  0  0  0  0  0  0  0  0
   -0.6750   -2.3125    0.0000 C   0  0  0  0  0  0  0  0  0  0  0  0
    0.0375    0.5750    0.0000 C   0  0  0  0  0  0  0  0  0  0  0  0
    0.7542    2.6375    0.0000 N   0  0  0  0  0  0  0  0  0  0  0  0
    1.4667    3.0500    0.0000 C   0  0  0  0  0  0  0  0  0  0  0  0
    0.0375   -1.0750    0.0000 C   0  0  0  0  0  0  0  0  0  0  0  0
   -1.3917   -1.0750    0.0000 C   0  0  0  0  0  0  0  0  0  0  0  0
    0.0375   -1.9000    0.0000 C   0  0  0  0  0  0  0  0  0  0  0  0
   -1.3917   -1.9000    0.0000 C   0  0  0  0  0  0  0  0  0  0  0  0
   -0.6750    1.8125    0.0000 O   0  0  0  0  0  0  0  0  0  0  0  0
   -0.6750   -3.1375    0.0000 O   0  0  0  0  0  0  0  0  0  0  0  0
    0.7542    1.8125    0.0000 C   0  0  0  0  0  0  0  0  0  0  0  0
    0.0375   -3.5500    0.0000 C   0  0  0  0  0  0  0  0  0  0  0  0
    0.0375   -4.3750    0.0000 C   0  0  0  0  0  0  0  0  0  0  0  0
  2  1  1  0  0  0  0
  4  3  3  0  0  0  0
  5  1  2  0  0  0  0
  6  2  2  0  0  0  0
  7 13  1  0  0  0  0
  8  1  1  0  0  0  0
  9  2  1  0  0  0  0
 10  7  1  0  0  0  0
 11 22  1  0  0  0  0
 12 19  2  0  0  0  0
 13 11  1  0  0  0  0
 14 15  1  0  0  0  0
 15  3  1  0  0  0  0
 16 10  1  0  0  0  0
 17 10  2  0  0  0  0
 18 16  2  0  0  0  0
 18 12  1  0  0  0  0
 19 17  1  0  0  0  0
 20 11  1  0  0  0  0
 21 12  1  0  0  0  0
 22 14  1  0  0  0  0
 23 21  1  0  0  0  0
 24 23  1  0  0  0  0
M  END
> <CdId>
2793

> <Mol Weight>
339.3404

> <Formula>
C16H21NO7

> <Click_ID>
CLK037A05 __ __ 

$$$$
