CLK011_F02
 OpenBabel03181417022D

 28 30  0  0  0  0  0  0  0  0999 V2000
    2.4950   -0.6770    0.0000 N    0  0  0  0  0  0  0  0  0  0  0  0
    3.2014   -0.2550    0.0000 C    0  0  0  0  0  0  0  0  0  0  0  0
    2.4950   -1.5045    0.0000 C    0  0  0  0  0  0  0  0  0  0  0  0
    3.2014   -1.9100    0.0000 C    0  0  0  0  0  0  0  0  0  0  0  0
    3.9160   -0.6770    0.0000 N    0  0  0  0  0  0  0  0  0  0  0  0
    3.9160   -1.5045    0.0000 C    0  0  0  0  0  0  0  0  0  0  0  0
    1.7720   -0.2633    0.0000 C    0  0  0  0  0  0  0  0  0  0  0  0
    1.7720    0.5725    0.0000 C    0  0  0  0  0  0  0  0  0  0  0  0
    3.2014   -2.7375    0.0000 C    0  0  0  0  0  0  0  0  0  0  0  0
    3.2014    0.5725    0.0000 S    0  0  0  0  0  0  0  0  0  0  0  0
    6.7496   -5.6546    0.0000 C    0  0  0  0  0  0  0  0  0  0  0  0
    1.7720   -1.9183    0.0000 O    0  0  0  0  0  0  0  0  0  0  0  0
    7.4600   -6.0725    0.0000 C    0  0  0  0  0  0  0  0  0  0  0  0
    4.6390   -1.9183    0.0000 O    0  0  0  0  0  0  0  0  0  0  0  0
    1.0574    0.9780    0.0000 C    0  0  0  0  0  0  0  0  0  0  0  0
    3.9160   -3.1512    0.0000 C    0  0  0  0  0  0  0  0  0  0  0  0
    2.4950    0.9863    0.0000 Cl   0  0  0  0  0  0  0  0  0  0  0  0
    1.0574   -0.6770    0.0000 C    0  0  0  0  0  0  0  0  0  0  0  0
    1.0574    1.8138    0.0000 Cl   0  0  0  0  0  0  0  0  0  0  0  0
    5.3411   -3.9787    0.0000 C    0  0  0  0  0  0  0  0  0  0  0  0
    3.9160   -3.9745    0.0000 C    0  0  0  0  0  0  0  0  0  0  0  0
    4.6390   -2.7458    0.0000 C    0  0  0  0  0  0  0  0  0  0  0  0
    5.3453   -3.1637    0.0000 C    0  0  0  0  0  0  0  0  0  0  0  0
    4.6307   -4.3925    0.0000 C    0  0  0  0  0  0  0  0  0  0  0  0
    6.0432   -5.2283    0.0000 C    0  0  0  0  0  0  0  0  0  0  0  0
    6.0475   -4.4050    0.0000 O    0  0  0  0  0  0  0  0  0  0  0  0
    0.3427   -0.2633    0.0000 C    0  0  0  0  0  0  0  0  0  0  0  0
    0.3427    0.5725    0.0000 C    0  0  0  0  0  0  0  0  0  0  0  0
  2  1  1  0  0  0  0
  3  1  1  0  0  0  0
  4  3  1  0  0  0  0
  5  2  1  0  0  0  0
  6  4  1  0  0  0  0
  6  5  1  0  0  0  0
  7  1  1  0  0  0  0
  8  7  2  0  0  0  0
  9  4  2  0  0  0  0
 10  2  2  0  0  0  0
 11 25  1  0  0  0  0
 12  3  2  0  0  0  0
 13 11  3  0  0  0  0
 14  6  2  0  0  0  0
 15  8  1  0  0  0  0
 16  9  1  0  0  0  0
 17  8  1  0  0  0  0
 18  7  1  0  0  0  0
 19 15  1  0  0  0  0
 20 23  2  0  0  0  0
 20 24  1  0  0  0  0
 21 16  1  0  0  0  0
 22 16  2  0  0  0  0
 23 22  1  0  0  0  0
 24 21  2  0  0  0  0
 25 26  1  0  0  0  0
 26 20  1  0  0  0  0
 27 18  2  0  0  0  0
 28 27  1  0  0  0  0
 28 15  2  0  0  0  0
M  END
> <CdId>
807

> <Mol Weight>
431.292

> <Formula>
C20H12Cl2N2O3S

> <Click_ID>
CLK011_F02 __ __ 

$$$$
