CLK035_B04
 OpenBabel03181417022D

 25 27  0  0  0  0  0  0  0  0999 V2000
   -4.5967    2.5588    0.0000 C   0  0  0  0  0  0  0  0  0  0  0  0
   -3.8632    2.9839    0.0000 N   0  0  0  0  0  0  0  0  0  0  0  0
   -4.6842    1.7336    0.0000 N   0  0  0  0  0  0  0  0  0  0  0  0
   -3.8715    3.8007    0.0000 C   0  0  0  0  0  0  0  0  0  0  0  0
   -5.3218    2.8963    0.0000 S   0  0  0  0  0  0  0  0  0  0  0  0
   -5.4885    1.5836    0.0000 C   0  0  0  0  0  0  0  0  0  0  0  0
   -3.1589    4.2133    0.0000 C   0  0  0  0  0  0  0  0  0  0  0  0
   -5.8969    2.3004    0.0000 C   0  0  0  0  0  0  0  0  0  0  0  0
   -4.2591    0.3584    0.0000 C   0  0  0  0  0  0  0  0  0  0  0  0
   -4.4466   -0.4543    0.0000 C   0  0  0  0  0  0  0  0  0  0  0  0
   -4.5842    4.2175    0.0000 O   0  0  0  0  0  0  0  0  0  0  0  0
   -2.4380    3.7965    0.0000 C   0  0  0  0  0  0  0  0  0  0  0  0
   -3.1589    5.0302    0.0000 C   0  0  0  0  0  0  0  0  0  0  0  0
   -5.9219    0.8835    0.0000 C   0  0  0  0  0  0  0  0  0  0  0  0
   -4.0716    1.1627    0.0000 C   0  0  0  0  0  0  0  0  0  0  0  0
   -2.4463    2.9839    0.0000 F   0  0  0  0  0  0  0  0  0  0  0  0
   -3.8757    5.4385    0.0000 F   0  0  0  0  0  0  0  0  0  0  0  0
   -6.7055    2.3212    0.0000 C   0  0  0  0  0  0  0  0  0  0  0  0
   -5.5218    0.1458    0.0000 O   0  0  0  0  0  0  0  0  0  0  0  0
   -7.1430    1.6211    0.0000 C   0  0  0  0  0  0  0  0  0  0  0  0
   -1.7253    5.0302    0.0000 C   0  0  0  0  0  0  0  0  0  0  0  0
   -1.7253    4.2050    0.0000 C   0  0  0  0  0  0  0  0  0  0  0  0
   -2.4463    5.4427    0.0000 C   0  0  0  0  0  0  0  0  0  0  0  0
   -6.7305    0.8877    0.0000 C   0  0  0  0  0  0  0  0  0  0  0  0
   -5.9594   -0.5543    0.0000 C   0  0  0  0  0  0  0  0  0  0  0  0
  2  1  2  0  0  0  0
  3  1  1  0  0  0  0
  4  2  1  0  0  0  0
  5  1  1  0  0  0  0
  6  3  1  0  0  0  0
  7  4  1  0  0  0  0
  8  5  1  0  0  0  0
  8  6  2  0  0  0  0
  9 15  1  0  0  0  0
 10  9  3  0  0  0  0
 11  4  2  0  0  0  0
 12  7  2  0  0  0  0
 13  7  1  0  0  0  0
 14  6  1  0  0  0  0
 15  3  1  0  0  0  0
 16 12  1  0  0  0  0
 17 13  1  0  0  0  0
 18  8  1  0  0  0  0
 19 14  1  0  0  0  0
 20 18  2  0  0  0  0
 21 23  1  0  0  0  0
 21 22  2  0  0  0  0
 22 12  1  0  0  0  0
 23 13  2  0  0  0  0
 24 14  2  0  0  0  0
 24 20  1  0  0  0  0
 25 19  1  0  0  0  0
M  END
> <CdId>
2658

> <Mol Weight>
358.362

> <Formula>
C18H12F2N2O2S

> <Click_ID>
CLK035_B04 __ __ 

$$$$
