CLK039E10
 OpenBabel03181417022D

 17 18  0  0  0  0  0  0  0  0999 V2000
    3.6542   -0.0958    0.0000 C   0  0  0  0  0  0  0  0  0  0  0  0
    4.3667    0.3167    0.0000 C   0  0  0  0  0  0  0  0  0  0  0  0
   -2.0625   -0.0958    0.0000 C   0  0  0  0  0  0  0  0  0  0  0  0
    1.5083   -0.5083    0.0000 C   0  0  0  0  0  0  0  0  0  0  0  0
   -2.0625    0.7292    0.0000 C   0  0  0  0  0  0  0  0  0  0  0  0
   -1.3500   -0.5083    0.0000 C   0  0  0  0  0  0  0  0  0  0  0  0
    1.5083   -1.3333    0.0000 O   0  0  0  0  0  0  0  0  0  0  0  0
   -1.3500    1.1417    0.0000 C   0  0  0  0  0  0  0  0  0  0  0  0
    2.2250   -0.0958    0.0000 N   0  0  0  0  0  0  0  0  0  0  0  0
   -0.6333   -0.0958    0.0000 C   0  0  0  0  0  0  0  0  0  0  0  0
    0.0792   -0.5083    0.0000 O   0  0  0  0  0  0  0  0  0  0  0  0
    0.7958   -0.0958    0.0000 C   0  0  0  0  0  0  0  0  0  0  0  0
   -0.6333    0.7292    0.0000 C   0  0  0  0  0  0  0  0  0  0  0  0
    2.9375   -0.5083    0.0000 C   0  0  0  0  0  0  0  0  0  0  0  0
   -2.8458   -0.3500    0.0000 C   0  0  0  0  0  0  0  0  0  0  0  0
   -3.3333    0.3167    0.0000 C   0  0  0  0  0  0  0  0  0  0  0  0
   -2.8458    0.9833    0.0000 C   0  0  0  0  0  0  0  0  0  0  0  0
  2  1  3  0  0  0  0
  3  6  1  0  0  0  0
  4  9  1  0  0  0  0
  5  3  2  0  0  0  0
  5  8  1  0  0  0  0
  6 10  2  0  0  0  0
  7  4  2  0  0  0  0
  8 13  2  0  0  0  0
  9 14  1  0  0  0  0
 10 11  1  0  0  0  0
 11 12  1  0  0  0  0
 12  4  1  0  0  0  0
 13 10  1  0  0  0  0
 14  1  1  0  0  0  0
 15  3  1  0  0  0  0
 16 15  1  0  0  0  0
 16 17  1  0  0  0  0
 17  5  1  0  0  0  0
M  END
> <CdId>
2997

> <Mol Weight>
229.2744

> <Formula>
C14H15NO2

> <Click_ID>
CLK039E10 __ __ 

$$$$
