CLK040C05
 OpenBabel03181417022D

 25 25  0  0  0  0  0  0  0  0999 V2000
   -1.0292   -1.1875    0.0000 S    0  0  0  0  0  0  0  0  0  0  0  0
   -1.0292   -0.3625    0.0000 C    0  0  0  0  0  0  0  0  0  0  0  0
   -0.3167    0.0500    0.0000 C    0  0  0  0  0  0  0  0  0  0  0  0
    0.4000    1.2875    0.0000 C    0  0  0  0  0  0  0  0  0  0  0  0
   -0.3167    0.8750    0.0000 C    0  0  0  0  0  0  0  0  0  0  0  0
   -1.0292   -2.0125    0.0000 N    0  0  0  0  0  0  0  0  0  0  0  0
    1.1125    0.8750    0.0000 N    0  0  0  0  0  0  0  0  0  0  0  0
    2.5417    1.7000    0.0000 C    0  0  0  0  0  0  0  0  0  0  0  0
   -0.2042   -1.1875    0.0000 O    0  0  0  0  0  0  0  0  0  0  0  0
   -1.8542   -1.1875    0.0000 O    0  0  0  0  0  0  0  0  0  0  0  0
   -1.7458    0.0500    0.0000 C    0  0  0  0  0  0  0  0  0  0  0  0
    3.2542    2.1125    0.0000 C    0  0  0  0  0  0  0  0  0  0  0  0
    1.8250    1.2875    0.0000 C    0  0  0  0  0  0  0  0  0  0  0  0
    0.4000    2.1125    0.0000 O    0  0  0  0  0  0  0  0  0  0  0  0
   -1.0292    1.2875    0.0000 C    0  0  0  0  0  0  0  0  0  0  0  0
   -1.7458    0.8750    0.0000 C    0  0  0  0  0  0  0  0  0  0  0  0
   -2.4583   -0.3625    0.0000 Cl   0  0  0  0  0  0  0  0  0  0  0  0
   -0.3167   -2.4250    0.0000 C    0  0  0  0  0  0  0  0  0  0  0  0
   -1.7458   -2.4250    0.0000 C    0  0  0  0  0  0  0  0  0  0  0  0
    1.4125    2.0042    0.0000 C    0  0  0  0  0  0  0  0  0  0  0  0
    2.2375    0.5750    0.0000 C    0  0  0  0  0  0  0  0  0  0  0  0
   -0.3167   -3.2500    0.0000 C    0  0  0  0  0  0  0  0  0  0  0  0
   -1.7458   -3.2500    0.0000 C    0  0  0  0  0  0  0  0  0  0  0  0
    1.8250    2.7167    0.0000 C    0  0  0  0  0  0  0  0  0  0  0  0
    1.8250   -0.1417    0.0000 C    0  0  0  0  0  0  0  0  0  0  0  0
  2  1  1  0  0  0  0
  3  2  1  0  0  0  0
  4  5  1  0  0  0  0
  5  3  2  0  0  0  0
  6  1  1  0  0  0  0
  7  4  1  0  0  0  0
  8 13  1  0  0  0  0
  9  1  2  0  0  0  0
 10  1  2  0  0  0  0
 11  2  2  0  0  0  0
 12  8  3  0  0  0  0
 13  7  1  0  0  0  0
 14  4  2  0  0  0  0
 15 16  2  0  0  0  0
 15  5  1  0  0  0  0
 16 11  1  0  0  0  0
 17 11  1  0  0  0  0
 18  6  1  0  0  0  0
 19  6  1  0  0  0  0
 20 13  1  0  0  0  0
 21 13  1  0  0  0  0
 22 18  1  0  0  0  0
 23 19  1  0  0  0  0
 24 20  1  0  0  0  0
 25 21  1  0  0  0  0
M  END
> <CdId>
3035

> <Mol Weight>
384.921

> <Formula>
C18H25ClN2O3S

> <Click_ID>
CLK040C05 __ __ 

$$$$
