CLK027_F08
 OpenBabel03181417022D

 27 29  0  0  0  0  0  0  0  0999 V2000
    1.9674   -0.7335    0.0000 C    0  0  0  0  0  0  0  0  0  0  0  0
    1.2065   -0.4319    0.0000 N    0  0  0  0  0  0  0  0  0  0  0  0
    2.1696   -1.5355    0.0000 C    0  0  0  0  0  0  0  0  0  0  0  0
    2.4918   -0.0960    0.0000 N    0  0  0  0  0  0  0  0  0  0  0  0
    2.0530    0.5998    0.0000 C    0  0  0  0  0  0  0  0  0  0  0  0
    1.5697   -2.1079    0.0000 C    0  0  0  0  0  0  0  0  0  0  0  0
    1.2544    0.3873    0.0000 C    0  0  0  0  0  0  0  0  0  0  0  0
   -0.7815   -1.4087    0.0000 C    0  0  0  0  0  0  0  0  0  0  0  0
    2.9510   -1.7754    0.0000 C    0  0  0  0  0  0  0  0  0  0  0  0
   -0.1816   -0.8363    0.0000 C    0  0  0  0  0  0  0  0  0  0  0  0
   -0.5861   -2.2072    0.0000 C    0  0  0  0  0  0  0  0  0  0  0  0
    0.7952   -1.8748    0.0000 C    0  0  0  0  0  0  0  0  0  0  0  0
    3.7428   -2.0119    0.0000 N    0  0  0  0  0  0  0  0  0  0  0  0
   -2.9545   -1.5218    0.0000 C    0  0  0  0  0  0  0  0  0  0  0  0
   -3.7462   -1.2887    0.0000 C    0  0  0  0  0  0  0  0  0  0  0  0
    0.6067   -1.0831    0.0000 C    0  0  0  0  0  0  0  0  0  0  0  0
    0.1954   -2.4369    0.0000 C    0  0  0  0  0  0  0  0  0  0  0  0
    2.2689    1.3984    0.0000 C    0  0  0  0  0  0  0  0  0  0  0  0
    0.6683    0.9734    0.0000 C    0  0  0  0  0  0  0  0  0  0  0  0
   -0.3736   -0.0343    0.0000 Br   0  0  0  0  0  0  0  0  0  0  0  0
   -1.5732   -1.1756    0.0000 O    0  0  0  0  0  0  0  0  0  0  0  0
    1.6898    1.9777    0.0000 C    0  0  0  0  0  0  0  0  0  0  0  0
   -1.1790   -2.7728    0.0000 O    0  0  0  0  0  0  0  0  0  0  0  0
    0.8808    1.7617    0.0000 C    0  0  0  0  0  0  0  0  0  0  0  0
   -2.1661   -1.7445    0.0000 C    0  0  0  0  0  0  0  0  0  0  0  0
    1.9057    2.7762    0.0000 C    0  0  0  0  0  0  0  0  0  0  0  0
   -1.9605   -2.5500    0.0000 C    0  0  0  0  0  0  0  0  0  0  0  0
  2  1  2  0  0  0  0
  3  1  1  0  0  0  0
  4  1  1  0  0  0  0
  5  4  1  0  0  0  0
  5  7  2  0  0  0  0
  6  3  2  0  0  0  0
  7  2  1  0  0  0  0
  8 11  2  0  0  0  0
  9  3  1  0  0  0  0
 10 16  2  0  0  0  0
 10  8  1  0  0  0  0
 11 17  1  0  0  0  0
 12  6  1  0  0  0  0
 13  9  3  0  0  0  0
 14 25  1  0  0  0  0
 15 14  3  0  0  0  0
 16 12  1  0  0  0  0
 17 12  2  0  0  0  0
 18  5  1  0  0  0  0
 19  7  1  0  0  0  0
 20 10  1  0  0  0  0
 21  8  1  0  0  0  0
 22 18  2  0  0  0  0
 22 24  1  0  0  0  0
 23 11  1  0  0  0  0
 24 19  2  0  0  0  0
 25 21  1  0  0  0  0
 26 22  1  0  0  0  0
 27 23  1  0  0  0  0
M  END
> <CdId>
2068

> <Mol Weight>
422.275

> <Formula>
C21H16BrN3O2

> <Click_ID>
CLK027_F08 __ __ 

$$$$
