CLK021_A10
 OpenBabel03181417022D

 20 21  0  0  0  0  0  0  0  0999 V2000
    4.4184    2.0029    0.0000 C   0  0  0  0  0  0  0  0  0  0  0  0
    4.8309    1.2879    0.0000 C   0  0  0  0  0  0  0  0  0  0  0  0
    3.5934    2.0029    0.0000 C   0  0  0  0  0  0  0  0  0  0  0  0
    4.8309    2.7179    0.0000 C   0  0  0  0  0  0  0  0  0  0  0  0
    5.6559    1.2879    0.0000 O   0  0  0  0  0  0  0  0  0  0  0  0
    3.1809    2.7179    0.0000 N   0  0  0  0  0  0  0  0  0  0  0  0
    5.6559    2.7179    0.0000 C   0  0  0  0  0  0  0  0  0  0  0  0
    6.0684    2.0029    0.0000 C   0  0  0  0  0  0  0  0  0  0  0  0
    2.1496    3.5062    0.0000 C   0  0  0  0  0  0  0  0  0  0  0  0
    1.9296    4.3129    0.0000 C   0  0  0  0  0  0  0  0  0  0  0  0
    2.3559    2.7179    0.0000 C   0  0  3  0  0  0  0  0  0  0  0  0
    4.4184    0.5729    0.0000 O   0  0  0  0  0  0  0  0  0  0  0  0
    3.1809    1.2879    0.0000 O   0  0  0  0  0  0  0  0  0  0  0  0
    6.0684    3.4237    0.0000 C   0  0  0  0  0  0  0  0  0  0  0  0
    6.8934    2.0029    0.0000 C   0  0  0  0  0  0  0  0  0  0  0  0
    1.5446    2.5666    0.0000 C   0  0  0  0  0  0  0  0  0  0  0  0
    2.4337    1.8929    0.0000 C   0  0  0  0  0  0  0  0  0  0  0  0
    1.0175    3.1991    0.0000 C   0  0  0  0  0  0  0  0  0  0  0  0
    7.3059    2.7179    0.0000 C   0  0  0  0  0  0  0  0  0  0  0  0
    6.8934    3.4237    0.0000 C   0  0  0  0  0  0  0  0  0  0  0  0
  2  1  1  0  0  0  0
  3  1  1  0  0  0  0
  4  1  2  0  0  0  0
  5  2  1  0  0  0  0
  5  8  1  0  0  0  0
  6  3  1  0  0  0  0
  7  4  1  0  0  0  0
  8  7  2  0  0  0  0
  9 11  1  0  0  0  0
 10  9  3  0  0  0  0
 11  6  1  0  0  0  0
 12  2  2  0  0  0  0
 13  3  2  0  0  0  0
 14  7  1  0  0  0  0
 15  8  1  0  0  0  0
 16 11  1  0  0  0  0
 17 11  1  0  0  0  0
 18 16  1  0  0  0  0
 19 20  1  0  0  0  0
 19 15  2  0  0  0  0
 20 14  2  0  0  0  0
M  END
> <CdId>
1565

> <Mol Weight>
269.2952

> <Formula>
C16H15NO3

> <Click_ID>
CLK021_A10 __ __ 

$$$$
