CLK010_C05
 OpenBabel03181417022D

 23 25  0  0  0  0  0  0  0  0999 V2000
   -0.7001    0.4084    0.0000 C   0  0  0  0  0  0  0  0  0  0  0  0
   -1.1210   -0.3043    0.0000 N   0  0  0  0  0  0  0  0  0  0  0  0
   -3.5965   -1.7295    0.0000 C   0  0  0  0  0  0  0  0  0  0  0  0
   -3.1881   -2.4422    0.0000 C   0  0  0  0  0  0  0  0  0  0  0  0
    0.1250    0.4084    0.0000 C   0  0  0  0  0  0  0  0  0  0  0  0
    1.7795    0.4084    0.0000 C   0  0  0  0  0  0  0  0  0  0  0  0
   -1.1210    1.1210    0.0000 O   0  0  0  0  0  0  0  0  0  0  0  0
   -1.9462   -0.3043    0.0000 C   0  0  0  0  0  0  0  0  0  0  0  0
    0.5376   -0.3043    0.0000 C   0  0  0  0  0  0  0  0  0  0  0  0
    0.5376    1.1210    0.0000 C   0  0  0  0  0  0  0  0  0  0  0  0
    1.3670   -0.3043    0.0000 C   0  0  0  0  0  0  0  0  0  0  0  0
    1.3670    1.1210    0.0000 C   0  0  0  0  0  0  0  0  0  0  0  0
    2.6047    0.4001    0.0000 C   0  0  0  0  0  0  0  0  0  0  0  0
   -3.1839   -1.0169    0.0000 C   0  0  0  0  0  0  0  0  0  0  0  0
   -2.3587   -1.0169    0.0000 C   0  0  0  0  0  0  0  0  0  0  0  0
   -3.1839    0.4084    0.0000 C   0  0  0  0  0  0  0  0  0  0  0  0
   -2.3587    0.4126    0.0000 C   0  0  0  0  0  0  0  0  0  0  0  0
   -3.5965   -0.3043    0.0000 C   0  0  0  0  0  0  0  0  0  0  0  0
    3.0131   -0.3168    0.0000 C   0  0  0  0  0  0  0  0  0  0  0  0
    3.0131    1.1127    0.0000 C   0  0  0  0  0  0  0  0  0  0  0  0
    3.8382   -0.3168    0.0000 C   0  0  0  0  0  0  0  0  0  0  0  0
    3.8382    1.1127    0.0000 C   0  0  0  0  0  0  0  0  0  0  0  0
    4.2508    0.3959    0.0000 C   0  0  0  0  0  0  0  0  0  0  0  0
  2  1  1  0  0  0  0
  3 14  1  0  0  0  0
  4  3  3  0  0  0  0
  5  1  1  0  0  0  0
  6 12  2  0  0  0  0
  6 11  1  0  0  0  0
  7  1  2  0  0  0  0
  8  2  1  0  0  0  0
  9  5  1  0  0  0  0
 10  5  2  0  0  0  0
 11  9  2  0  0  0  0
 12 10  1  0  0  0  0
 13  6  1  0  0  0  0
 14 15  2  0  0  0  0
 15  8  1  0  0  0  0
 16 17  1  0  0  0  0
 17  8  2  0  0  0  0
 18 16  2  0  0  0  0
 18 14  1  0  0  0  0
 19 13  2  0  0  0  0
 20 13  1  0  0  0  0
 21 19  1  0  0  0  0
 22 20  2  0  0  0  0
 23 22  1  0  0  0  0
 23 21  2  0  0  0  0
M  END
> <CdId>
700

> <Mol Weight>
297.3499

> <Formula>
C21H15NO

> <Click_ID>
CLK010_C05 __ __ 

$$$$
