CLK010_G03
 OpenBabel03181417022D

 18 18  0  0  0  0  0  0  0  0999 V2000
    4.2939   -2.7271    0.0000 C   0  0  0  0  0  0  0  0  0  0  0  0
    5.0065   -1.4846    0.0000 C   0  0  0  0  0  0  0  0  0  0  0  0
    4.2939   -1.9048    0.0000 C   0  0  0  0  0  0  0  0  0  0  0  0
    1.4572   -2.7271    0.0000 C   0  0  0  0  0  0  0  0  0  0  0  0
    5.7328   -1.9048    0.0000 C   0  0  0  0  0  0  0  0  0  0  0  0
    4.2939   -0.2604    0.0000 C   0  0  0  0  0  0  0  0  0  0  0  0
    5.0065    0.1461    0.0000 C   0  0  0  0  0  0  0  0  0  0  0  0
    2.8824   -2.7271    0.0000 N   0  0  0  0  0  0  0  0  0  0  0  0
    5.0065   -3.1428    0.0000 C   0  0  0  0  0  0  0  0  0  0  0  0
    0.7446   -3.1428    0.0000 S   0  0  0  0  0  0  0  0  0  0  0  0
    5.7328   -2.7271    0.0000 C   0  0  0  0  0  0  0  0  0  0  0  0
    2.1698   -3.1428    0.0000 N   0  0  0  0  0  0  0  0  0  0  0  0
    3.5813   -3.1428    0.0000 C   0  0  0  0  0  0  0  0  0  0  0  0
    1.4572   -1.9048    0.0000 N   0  0  0  0  0  0  0  0  0  0  0  0
    5.0065   -0.6624    0.0000 I   0  0  0  0  0  0  0  0  0  0  0  0
    3.5813   -1.4846    0.0000 O   0  0  0  0  0  0  0  0  0  0  0  0
    6.4454   -3.1428    0.0000 I   0  0  0  0  0  0  0  0  0  0  0  0
    3.5813   -0.6624    0.0000 C   0  0  0  0  0  0  0  0  0  0  0  0
  2  3  2  0  0  0  0
  3  1  1  0  0  0  0
  4 12  1  0  0  0  0
  5 11  2  0  0  0  0
  5  2  1  0  0  0  0
  6 18  1  0  0  0  0
  7  6  3  0  0  0  0
  8 13  2  0  0  0  0
  9  1  2  0  0  0  0
 10  4  2  0  0  0  0
 11  9  1  0  0  0  0
 12  8  1  0  0  0  0
 13  1  1  0  0  0  0
 14  4  1  0  0  0  0
 15  2  1  0  0  0  0
 16  3  1  0  0  0  0
 17 11  1  0  0  0  0
 18 16  1  0  0  0  0
M  END
> <CdId>
738

> <Mol Weight>
485.083

> <Formula>
C11H9I2N3OS

> <Click_ID>
CLK010_G03 __ __ 

$$$$
