CLK013_C06
 OpenBabel03181417022D

 29 31  0  0  0  0  0  0  0  0999 V2000
    1.5790   -0.8231    0.0000 N    0  0  0  0  0  0  0  0  0  0  0  0
    1.8393   -1.6168    0.0000 C    0  0  0  0  0  0  0  0  0  0  0  0
    2.2551   -0.3318    0.0000 C    0  0  0  0  0  0  0  0  0  0  0  0
    2.9270   -0.8231    0.0000 C    0  0  0  0  0  0  0  0  0  0  0  0
    2.6708   -1.6168    0.0000 S    0  0  0  0  0  0  0  0  0  0  0  0
    4.2204    1.8603    0.0000 C    0  0  0  0  0  0  0  0  0  0  0  0
    3.7207   -0.5669    0.0000 C    0  0  0  0  0  0  0  0  0  0  0  0
    4.8294    1.3186    0.0000 C    0  0  0  0  0  0  0  0  0  0  0  0
    3.4436    1.6000    0.0000 C    0  0  0  0  0  0  0  0  0  0  0  0
    3.8845    0.2477    0.0000 C    0  0  0  0  0  0  0  0  0  0  0  0
    4.4010    2.6792    0.0000 O    0  0  0  0  0  0  0  0  0  0  0  0
    0.6173    0.2477    0.0000 C    0  0  0  0  0  0  0  0  0  0  0  0
    0.3948    1.0540    0.0000 C    0  0  0  0  0  0  0  0  0  0  0  0
    1.3480   -2.2845    0.0000 O    0  0  0  0  0  0  0  0  0  0  0  0
    4.6656    0.4997    0.0000 C    0  0  0  0  0  0  0  0  0  0  0  0
    2.2467    0.4997    0.0000 O    0  0  0  0  0  0  0  0  0  0  0  0
    3.2630    0.8021    0.0000 C    0  0  0  0  0  0  0  0  0  0  0  0
    0.7937   -0.5669    0.0000 C    0  0  0  0  0  0  0  0  0  0  0  0
    5.6231    1.5580    0.0000 Cl   0  0  0  0  0  0  0  0  0  0  0  0
    5.1905    2.9186    0.0000 C    0  0  0  0  0  0  0  0  0  0  0  0
    2.8346    2.1627    0.0000 O    0  0  0  0  0  0  0  0  0  0  0  0
    5.7196    5.3333    0.0000 C    0  0  0  0  0  0  0  0  0  0  0  0
    5.3711    3.7249    0.0000 C    0  0  0  0  0  0  0  0  0  0  0  0
    5.9128    6.1354    0.0000 Br   0  0  0  0  0  0  0  0  0  0  0  0
    6.3286    4.7790    0.0000 C    0  0  0  0  0  0  0  0  0  0  0  0
    4.9428    5.0687    0.0000 C    0  0  0  0  0  0  0  0  0  0  0  0
    4.7622    4.2751    0.0000 C    0  0  0  0  0  0  0  0  0  0  0  0
    6.1522    3.9768    0.0000 C    0  0  0  0  0  0  0  0  0  0  0  0
    2.0535    1.9107    0.0000 C    0  0  0  0  0  0  0  0  0  0  0  0
  2  1  1  0  0  0  0
  3  1  1  0  0  0  0
  4  3  1  0  0  0  0
  4  5  1  0  0  0  0
  5  2  1  0  0  0  0
  6  9  2  0  0  0  0
  6  8  1  0  0  0  0
  7  4  2  0  0  0  0
  8 15  2  0  0  0  0
  9 17  1  0  0  0  0
 10  7  1  0  0  0  0
 11  6  1  0  0  0  0
 12 18  1  0  0  0  0
 13 12  3  0  0  0  0
 14  2  2  0  0  0  0
 15 10  1  0  0  0  0
 16  3  2  0  0  0  0
 17 10  2  0  0  0  0
 18  1  1  0  0  0  0
 19  8  1  0  0  0  0
 20 11  1  0  0  0  0
 21  9  1  0  0  0  0
 22 25  2  0  0  0  0
 23 20  1  0  0  0  0
 24 22  1  0  0  0  0
 25 28  1  0  0  0  0
 26 27  2  0  0  0  0
 26 22  1  0  0  0  0
 27 23  1  0  0  0  0
 28 23  2  0  0  0  0
 29 21  1  0  0  0  0
M  END
> <CdId>
941

> <Mol Weight>
492.77

> <Formula>
C21H15BrClNO4S

> <Click_ID>
CLK013_C06 __ __ 

$$$$
