CLK038G08
 OpenBabel03181417022D

 26 27  0  0  0  0  0  0  0  0999 V2000
    0.6623   -0.3791    0.0000 N   0  0  0  0  0  0  0  0  0  0  0  0
    1.4454   -0.1250    0.0000 C   0  0  0  0  0  0  0  0  0  0  0  0
    0.1749    0.2874    0.0000 C   0  0  0  0  0  0  0  0  0  0  0  0
    1.4454    0.6998    0.0000 N   0  0  0  0  0  0  0  0  0  0  0  0
    0.6623    0.9580    0.0000 C   0  0  3  0  0  0  0  0  0  0  0  0
    0.4041   -1.1622    0.0000 C   0  0  0  0  0  0  0  0  0  0  0  0
   -0.3999   -1.3329    0.0000 C   0  0  0  0  0  0  0  0  0  0  0  0
   -2.2701   -2.4618    0.0000 C   0  0  0  0  0  0  0  0  0  0  0  0
    0.8914    1.7453    0.0000 C   0  0  0  0  0  0  0  0  0  0  0  0
   -3.0741   -2.6325    0.0000 C   0  0  0  0  0  0  0  0  0  0  0  0
   -0.6540   -2.1202    0.0000 N   0  0  0  0  0  0  0  0  0  0  0  0
    2.1119   -0.6081    0.0000 O   0  0  0  0  0  0  0  0  0  0  0  0
   -0.6498    0.2874    0.0000 O   0  0  0  0  0  0  0  0  0  0  0  0
   -1.4621   -2.2910    0.0000 C   0  0  0  0  0  0  0  0  0  0  0  0
   -0.9539   -0.7206    0.0000 O   0  0  0  0  0  0  0  0  0  0  0  0
    1.6953    1.9411    0.0000 C   0  0  0  0  0  0  0  0  0  0  0  0
    0.3249    2.3451    0.0000 C   0  0  0  0  0  0  0  0  0  0  0  0
    0.0083    1.4579    0.0000 C   0  0  0  0  0  0  0  0  0  0  0  0
    0.5581    3.1366    0.0000 C   0  0  0  0  0  0  0  0  0  0  0  0
    1.9286    2.7325    0.0000 C   0  0  0  0  0  0  0  0  0  0  0  0
    1.3579    3.3282    0.0000 C   0  0  0  0  0  0  0  0  0  0  0  0
   -1.2913   -3.0949    0.0000 C   0  0  0  0  0  0  0  0  0  0  0  0
   -1.6328   -1.4829    0.0000 C   0  0  0  0  0  0  0  0  0  0  0  0
    1.5912    4.1155    0.0000 C   0  0  0  0  0  0  0  0  0  0  0  0
   -1.0205   -0.9330    0.0000 C   0  0  0  0  0  0  0  0  0  0  0  0
   -1.9036   -3.6489    0.0000 C   0  0  0  0  0  0  0  0  0  0  0  0
  2  1  1  0  0  0  0
  3  1  1  0  0  0  0
  4  2  1  0  0  0  0
  5  3  1  0  0  0  0
  5  4  1  0  0  0  0
  6  1  1  0  0  0  0
  7  6  1  0  0  0  0
  8 14  1  0  0  0  0
  9  5  1  0  0  0  0
 10  8  3  0  0  0  0
 11  7  1  0  0  0  0
 12  2  2  0  0  0  0
 13  3  2  0  0  0  0
 14 11  1  0  0  0  0
 15  7  2  0  0  0  0
 16  9  1  0  0  0  0
 17  9  2  0  0  0  0
 18  5  1  0  0  0  0
 19 17  1  0  0  0  0
 20 16  2  0  0  0  0
 21 19  2  0  0  0  0
 21 20  1  0  0  0  0
 22 14  1  0  0  0  0
 23 14  1  0  0  0  0
 24 21  1  0  0  0  0
 25 23  1  0  0  0  0
 26 22  1  0  0  0  0
M  END
> <CdId>
2903

> <Mol Weight>
355.4308

> <Formula>
C20H25N3O3

> <Click_ID>
CLK038G08 __ __ 

$$$$
