CLK051A02
 OpenBabel03181417022D

 24 25  0  0  0  0  0  0  0  0999 V2000
   -0.8958   -1.3750    0.0000 C   0  0  0  0  0  0  0  0  0  0  0  0
   -0.8958   -0.5500    0.0000 N   0  0  0  0  0  0  0  0  0  0  0  0
   -0.1792   -1.7875    0.0000 C   0  0  0  0  0  0  0  0  0  0  0  0
   -0.8958    1.1000    0.0000 N   0  0  0  0  0  0  0  0  0  0  0  0
    0.5333    4.4000    0.0000 C   0  0  0  0  0  0  0  0  0  0  0  0
    0.5333    5.2208    0.0000 C   0  0  0  0  0  0  0  0  0  0  0  0
   -0.1792    2.3375    0.0000 C   0  0  0  0  0  0  0  0  0  0  0  0
   -1.6083   -1.7875    0.0000 O   0  0  0  0  0  0  0  0  0  0  0  0
   -0.1792   -0.1375    0.0000 C   0  0  0  0  0  0  0  0  0  0  0  0
   -1.6083   -0.1375    0.0000 C   0  0  0  0  0  0  0  0  0  0  0  0
    0.5333   -2.2000    0.0000 C   0  0  0  0  0  0  0  0  0  0  0  0
   -0.8958    1.9250    0.0000 C   0  0  0  0  0  0  0  0  0  0  0  0
    0.5333    1.9250    0.0000 O   0  0  0  0  0  0  0  0  0  0  0  0
   -0.1792    0.6875    0.0000 C   0  0  0  0  0  0  0  0  0  0  0  0
   -1.6083    0.6875    0.0000 C   0  0  0  0  0  0  0  0  0  0  0  0
   -0.1792    3.1667    0.0000 N   0  0  0  0  0  0  0  0  0  0  0  0
    0.5333    3.5792    0.0000 C   0  0  0  0  0  0  0  0  0  0  0  0
    0.2333   -1.0708    0.0000 C   0  0  0  0  0  0  0  0  0  0  0  0
   -0.5917   -2.5000    0.0000 C   0  0  0  0  0  0  0  0  0  0  0  0
    0.5333   -3.0250    0.0000 C   0  0  0  0  0  0  0  0  0  0  0  0
    1.2500   -1.7875    0.0000 C   0  0  0  0  0  0  0  0  0  0  0  0
    1.9625   -2.2000    0.0000 C   0  0  0  0  0  0  0  0  0  0  0  0
    1.2500   -3.4375    0.0000 C   0  0  0  0  0  0  0  0  0  0  0  0
    1.9625   -3.0250    0.0000 C   0  0  0  0  0  0  0  0  0  0  0  0
  2  1  1  0  0  0  0
  3  1  1  0  0  0  0
  4 15  1  0  0  0  0
  4 14  1  0  0  0  0
  5 17  1  0  0  0  0
  6  5  3  0  0  0  0
  7 12  1  0  0  0  0
  8  1  2  0  0  0  0
  9  2  1  0  0  0  0
 10  2  1  0  0  0  0
 11  3  1  0  0  0  0
 12  4  1  0  0  0  0
 13  7  2  0  0  0  0
 14  9  1  0  0  0  0
 15 10  1  0  0  0  0
 16  7  1  0  0  0  0
 17 16  1  0  0  0  0
 18  3  1  0  0  0  0
 19  3  1  0  0  0  0
 20 11  1  0  0  0  0
 21 11  2  0  0  0  0
 22 21  1  0  0  0  0
 23 20  2  0  0  0  0
 24 22  2  0  0  0  0
 24 23  1  0  0  0  0
M  END
> <CdId>
3889

> <Mol Weight>
327.4207

> <Formula>
C19H25N3O2

> <Click_ID>
CLK051A02 __ __ 

$$$$
