CLK035_F05
 OpenBabel03181417022D

 24 26  0  0  0  0  0  0  0  0999 V2000
   -4.5890    2.5545    0.0000 C   0  0  0  0  0  0  0  0  0  0  0  0
   -3.1536    5.0342    0.0000 N   0  0  0  0  0  0  0  0  0  0  0  0
   -4.6805    1.7307    0.0000 N   0  0  0  0  0  0  0  0  0  0  0  0
   -3.8567    2.9789    0.0000 N   0  0  0  0  0  0  0  0  0  0  0  0
   -5.3129    2.8957    0.0000 S   0  0  0  0  0  0  0  0  0  0  0  0
   -5.4876    1.5809    0.0000 C   0  0  0  0  0  0  0  0  0  0  0  0
   -5.8870    2.3049    0.0000 C   0  0  0  0  0  0  0  0  0  0  0  0
   -2.4796    5.5085    0.0000 C   0  0  0  0  0  0  0  0  0  0  0  0
   -3.8151    5.5085    0.0000 C   0  0  0  0  0  0  0  0  0  0  0  0
   -3.8650    3.7943    0.0000 C   0  0  0  0  0  0  0  0  0  0  0  0
   -3.1536    4.2062    0.0000 C   0  0  0  0  0  0  0  0  0  0  0  0
   -4.2644    0.3578    0.0000 C   0  0  0  0  0  0  0  0  0  0  0  0
   -4.4517   -0.4535    0.0000 C   0  0  0  0  0  0  0  0  0  0  0  0
   -2.7417    6.3031    0.0000 C   0  0  0  0  0  0  0  0  0  0  0  0
   -3.5655    6.2948    0.0000 C   0  0  0  0  0  0  0  0  0  0  0  0
   -1.6933    5.2547    0.0000 O   0  0  0  0  0  0  0  0  0  0  0  0
   -4.6014    5.2671    0.0000 O   0  0  0  0  0  0  0  0  0  0  0  0
   -5.9162    0.8820    0.0000 C   0  0  0  0  0  0  0  0  0  0  0  0
   -4.5765    4.2062    0.0000 O   0  0  0  0  0  0  0  0  0  0  0  0
   -4.0772    1.1608    0.0000 C   0  0  0  0  0  0  0  0  0  0  0  0
   -6.7025    2.3298    0.0000 C   0  0  0  0  0  0  0  0  0  0  0  0
   -7.1311    1.6226    0.0000 C   0  0  0  0  0  0  0  0  0  0  0  0
   -6.7192    0.8945    0.0000 C   0  0  0  0  0  0  0  0  0  0  0  0
   -5.5251    0.1498    0.0000 C   0  0  0  0  0  0  0  0  0  0  0  0
  2 11  1  0  0  0  0
  3  1  1  0  0  0  0
  4  1  2  0  0  0  0
  5  1  1  0  0  0  0
  6  3  1  0  0  0  0
  7  5  1  0  0  0  0
  7  6  2  0  0  0  0
  8  2  1  0  0  0  0
  9  2  1  0  0  0  0
 10  4  1  0  0  0  0
 11 10  1  0  0  0  0
 12 20  1  0  0  0  0
 13 12  3  0  0  0  0
 14  8  1  0  0  0  0
 15  9  1  0  0  0  0
 15 14  1  0  0  0  0
 16  8  2  0  0  0  0
 17  9  2  0  0  0  0
 18  6  1  0  0  0  0
 19 10  2  0  0  0  0
 20  3  1  0  0  0  0
 21  7  1  0  0  0  0
 22 21  2  0  0  0  0
 23 18  2  0  0  0  0
 23 22  1  0  0  0  0
 24 18  1  0  0  0  0
M  END
> <CdId>
2699

> <Mol Weight>
341.384

> <Formula>
C17H15N3O3S

> <Click_ID>
CLK035_F05 __ __ 

$$$$
