CLK012_E07
 OpenBabel03181417022D

 33 35  0  0  0  0  0  0  0  0999 V2000
    3.9344    0.5471    0.0000 N    0  0  0  0  0  0  0  0  0  0  0  0
    3.6755   -0.2423    0.0000 C    0  0  0  0  0  0  0  0  0  0  0  0
    3.2620    1.0275    0.0000 C    0  0  0  0  0  0  0  0  0  0  0  0
    2.5979    0.5471    0.0000 C    0  0  0  0  0  0  0  0  0  0  0  0
    2.8485   -0.2423    0.0000 S    0  0  0  0  0  0  0  0  0  0  0  0
    1.8085    0.7977    0.0000 C    0  0  0  0  0  0  0  0  0  0  0  0
   -0.0125   -0.8646    0.0000 C    0  0  0  0  0  0  0  0  0  0  0  0
    4.7238    0.7977    0.0000 C    0  0  0  0  0  0  0  0  0  0  0  0
   -0.1837   -0.0543    0.0000 C    0  0  0  0  0  0  0  0  0  0  0  0
    0.7643   -1.1152    0.0000 C    0  0  0  0  0  0  0  0  0  0  0  0
    5.3295    0.2464    0.0000 C    0  0  0  0  0  0  0  0  0  0  0  0
    1.2029    0.2464    0.0000 C    0  0  0  0  0  0  0  0  0  0  0  0
   -2.0257   -1.6958    0.0000 C    0  0  0  0  0  0  0  0  0  0  0  0
   -2.6438   -2.2471    0.0000 C    0  0  0  0  0  0  0  0  0  0  0  0
    4.1642   -0.9147    0.0000 O    0  0  0  0  0  0  0  0  0  0  0  0
    6.1189    0.4970    0.0000 N    0  0  0  0  0  0  0  0  0  0  0  0
    3.2620    1.8544    0.0000 O    0  0  0  0  0  0  0  0  0  0  0  0
    0.4302    0.4970    0.0000 C    0  0  0  0  0  0  0  0  0  0  0  0
    1.3783   -0.5681    0.0000 C    0  0  0  0  0  0  0  0  0  0  0  0
    5.1624   -0.5681    0.0000 O    0  0  0  0  0  0  0  0  0  0  0  0
   -0.9606    0.1963    0.0000 Cl   0  0  0  0  0  0  0  0  0  0  0  0
    6.7329   -0.0543    0.0000 C    0  0  0  0  0  0  0  0  0  0  0  0
   -0.6348   -1.4076    0.0000 O    0  0  0  0  0  0  0  0  0  0  0  0
    0.9314   -1.9088    0.0000 O    0  0  0  0  0  0  0  0  0  0  0  0
    7.9566   -1.1695    0.0000 C    0  0  0  0  0  0  0  0  0  0  0  0
    6.5574   -0.8688    0.0000 C    0  0  0  0  0  0  0  0  0  0  0  0
    7.5180    0.1963    0.0000 C    0  0  0  0  0  0  0  0  0  0  0  0
    7.1672   -1.4201    0.0000 C    0  0  0  0  0  0  0  0  0  0  0  0
    8.1320   -0.3634    0.0000 C    0  0  0  0  0  0  0  0  0  0  0  0
   -1.4117   -1.1528    0.0000 C    0  0  0  0  0  0  0  0  0  0  0  0
    1.7083   -2.1594    0.0000 C    0  0  0  0  0  0  0  0  0  0  0  0
    8.5706   -1.7291    0.0000 C    0  0  0  0  0  0  0  0  0  0  0  0
    1.8837   -2.9613    0.0000 C    0  0  0  0  0  0  0  0  0  0  0  0
  2  1  1  0  0  0  0
  3  1  1  0  0  0  0
  4  3  1  0  0  0  0
  5  2  1  0  0  0  0
  5  4  1  0  0  0  0
  6  4  2  0  0  0  0
  7 10  2  0  0  0  0
  7  9  1  0  0  0  0
  8  1  1  0  0  0  0
  9 18  2  0  0  0  0
 10 19  1  0  0  0  0
 11  8  1  0  0  0  0
 12  6  1  0  0  0  0
 13 30  1  0  0  0  0
 14 13  3  0  0  0  0
 15  2  2  0  0  0  0
 16 11  1  0  0  0  0
 17  3  2  0  0  0  0
 18 12  1  0  0  0  0
 19 12  2  0  0  0  0
 20 11  2  0  0  0  0
 21  9  1  0  0  0  0
 22 16  1  0  0  0  0
 23  7  1  0  0  0  0
 24 10  1  0  0  0  0
 25 29  1  0  0  0  0
 25 28  2  0  0  0  0
 26 22  2  0  0  0  0
 27 22  1  0  0  0  0
 28 26  1  0  0  0  0
 29 27  2  0  0  0  0
 30 23  1  0  0  0  0
 31 24  1  0  0  0  0
 32 25  1  0  0  0  0
 33 31  1  0  0  0  0
M  END
> <CdId>
882

> <Mol Weight>
484.952

> <Formula>
C24H21ClN2O5S

> <Click_ID>
CLK012_E07 __ __ 

$$$$
