CLK037B11
 OpenBabel03181417022D

 26 27  0  0  0  0  0  0  0  0999 V2000
   -2.0917    0.0667    0.0000 C    0  0  0  0  0  0  0  0  0  0  0  0
   -2.0917    0.8917    0.0000 C    0  0  0  0  0  0  0  0  0  0  0  0
   -1.3750   -0.3458    0.0000 C    0  0  0  0  0  0  0  0  0  0  0  0
    2.9125   -0.3458    0.0000 N    0  0  0  0  0  0  0  0  0  0  0  0
   -4.2333   -0.3458    0.0000 C    0  0  0  0  0  0  0  0  0  0  0  0
   -4.9500   -0.7583    0.0000 C    0  0  0  0  0  0  0  0  0  0  0  0
   -1.3750    1.3042    0.0000 C    0  0  0  0  0  0  0  0  0  0  0  0
   -0.6625    0.0667    0.0000 C    0  0  0  0  0  0  0  0  0  0  0  0
    2.9125    1.3042    0.0000 O    0  0  0  0  0  0  0  0  0  0  0  0
   -0.6625    0.8917    0.0000 C    0  0  0  0  0  0  0  0  0  0  0  0
    2.1958    0.0667    0.0000 C    0  0  0  0  0  0  0  0  0  0  0  0
    2.1958    0.8917    0.0000 C    0  0  3  0  0  0  0  0  0  0  0  0
    2.9125   -1.1708    0.0000 C    0  0  0  0  0  0  0  0  0  0  0  0
    0.7667    0.8917    0.0000 N    0  0  0  0  0  0  0  0  0  0  0  0
   -2.8042    1.3042    0.0000 Cl   0  0  0  0  0  0  0  0  0  0  0  0
   -2.8042   -0.3458    0.0000 O    0  0  0  0  0  0  0  0  0  0  0  0
   -1.3750   -1.1708    0.0000 O    0  0  0  0  0  0  0  0  0  0  0  0
    3.6250    0.8917    0.0000 C    0  0  0  0  0  0  0  0  0  0  0  0
    3.6250    0.0667    0.0000 C    0  0  0  0  0  0  0  0  0  0  0  0
   -3.5208    0.0667    0.0000 C    0  0  0  0  0  0  0  0  0  0  0  0
    0.0542    1.3042    0.0000 C    0  0  0  0  0  0  0  0  0  0  0  0
    1.4833    1.3042    0.0000 C    0  0  0  0  0  0  0  0  0  0  0  0
    2.1958   -1.5833    0.0000 C    0  0  0  0  0  0  0  0  0  0  0  0
   -0.6625   -1.5833    0.0000 C    0  0  0  0  0  0  0  0  0  0  0  0
    2.1958   -2.4083    0.0000 C    0  0  0  0  0  0  0  0  0  0  0  0
    1.4833   -1.1708    0.0000 C    0  0  0  0  0  0  0  0  0  0  0  0
  2  1  1  0  0  0  0
  3  1  2  0  0  0  0
  4 11  1  0  0  0  0
  5 20  1  0  0  0  0
  6  5  3  0  0  0  0
  7  2  2  0  0  0  0
  7 10  1  0  0  0  0
  8  3  1  0  0  0  0
  9 12  1  0  0  0  0
 10  8  2  0  0  0  0
 11 12  1  0  0  0  0
 12 22  1  0  0  0  0
 13  4  1  0  0  0  0
 14 21  1  0  0  0  0
 15  2  1  0  0  0  0
 16  1  1  0  0  0  0
 17  3  1  0  0  0  0
 18  9  1  0  0  0  0
 19 18  1  0  0  0  0
 19  4  1  0  0  0  0
 20 16  1  0  0  0  0
 21 10  1  0  0  0  0
 22 14  1  0  0  0  0
 23 13  1  0  0  0  0
 24 17  1  0  0  0  0
 25 23  1  0  0  0  0
 26 23  1  0  0  0  0
M  END
> <CdId>
2842

> <Mol Weight>
380.909

> <Formula>
C20H29ClN2O3

> <Click_ID>
CLK037B11 __ __ 

$$$$
