CLK051C07
 OpenBabel03181417022D

 25 28  0  0  0  0  0  0  0  0999 V2000
   -2.9167    0.7792    0.0000 N   0  0  0  0  0  0  0  0  0  0  0  0
   -2.2042    1.1917    0.0000 C   0  0  0  0  0  0  0  0  0  0  0  0
   -1.4875    0.7792    0.0000 C   0  0  0  0  0  0  0  0  0  0  0  0
   -2.2042   -0.4583    0.0000 N   0  0  0  0  0  0  0  0  0  0  0  0
   -2.9167   -0.0458    0.0000 C   0  0  0  0  0  0  0  0  0  0  0  0
   -1.4875   -0.0458    0.0000 C   0  0  0  0  0  0  0  0  0  0  0  0
    0.6542   -0.4583    0.0000 C   0  0  0  0  0  0  0  0  0  0  0  0
   -0.0583   -0.0458    0.0000 C   0  0  0  0  0  0  0  0  0  0  0  0
    1.3708   -0.0458    0.0000 N   0  0  0  0  0  0  0  0  0  0  0  0
   -0.7750   -0.4583    0.0000 C   0  0  0  0  0  0  0  0  0  0  0  0
   -0.7750    1.1917    0.0000 C   0  0  0  0  0  0  0  0  0  0  0  0
    4.2250   -0.0458    0.0000 C   0  0  0  0  0  0  0  0  0  0  0  0
    4.9417    0.3667    0.0000 C   0  0  0  0  0  0  0  0  0  0  0  0
   -2.2042    2.0167    0.0000 O   0  0  0  0  0  0  0  0  0  0  0  0
    0.6542   -1.2833    0.0000 O   0  0  0  0  0  0  0  0  0  0  0  0
   -0.0583    0.7792    0.0000 C   0  0  0  0  0  0  0  0  0  0  0  0
    2.0833   -0.4583    0.0000 C   0  0  0  0  0  0  0  0  0  0  0  0
   -3.7042    1.0333    0.0000 C   0  0  0  0  0  0  0  0  0  0  0  0
    3.5125   -0.4583    0.0000 C   0  0  0  0  0  0  0  0  0  0  0  0
    2.8000   -0.0458    0.0000 C   0  0  0  0  0  0  0  0  0  0  0  0
   -3.7042   -0.3042    0.0000 C   0  0  0  0  0  0  0  0  0  0  0  0
   -4.1875    0.3667    0.0000 C   0  0  0  0  0  0  0  0  0  0  0  0
    2.8000   -1.6958    0.0000 C   0  0  0  0  0  0  0  0  0  0  0  0
    2.0833   -1.2833    0.0000 C   0  0  0  0  0  0  0  0  0  0  0  0
    3.5125   -1.2833    0.0000 C   0  0  0  0  0  0  0  0  0  0  0  0
  2  1  1  0  0  0  0
  3  2  1  0  0  0  0
  4  5  2  0  0  0  0
  5  1  1  0  0  0  0
  6  4  1  0  0  0  0
  6  3  2  0  0  0  0
  7  8  1  0  0  0  0
  8 10  2  0  0  0  0
  9  7  1  0  0  0  0
 10  6  1  0  0  0  0
 11  3  1  0  0  0  0
 12 19  1  0  0  0  0
 13 12  3  0  0  0  0
 14  2  2  0  0  0  0
 15  7  2  0  0  0  0
 16 11  2  0  0  0  0
 16  8  1  0  0  0  0
 17  9  1  0  0  0  0
 18  1  1  0  0  0  0
 19 20  1  0  0  0  0
 20 17  2  0  0  0  0
 21  5  1  0  0  0  0
 21 22  1  0  0  0  0
 22 18  1  0  0  0  0
 23 24  2  0  0  0  0
 24 17  1  0  0  0  0
 25 19  2  0  0  0  0
 25 23  1  0  0  0  0
M  END
> <CdId>
3931

> <Mol Weight>
329.352

> <Formula>
C20H15N3O2

> <Click_ID>
CLK051C07 __ __ 

$$$$
