CLK052C02
 OpenBabel03181417022D

 18 18  0  0  0  0  0  0  0  0999 V2000
   -0.8375    0.8958    0.0000 C   0  0  0  0  0  0  0  0  0  0  0  0
   -0.1208    0.4833    0.0000 N   0  0  0  0  0  0  0  0  0  0  0  0
    2.0208   -3.2292    0.0000 C   0  0  0  0  0  0  0  0  0  0  0  0
    0.5917   -1.5792    0.0000 C   0  0  0  0  0  0  0  0  0  0  0  0
    0.5917   -0.7542    0.0000 C   0  0  0  0  0  0  0  0  0  0  0  0
    2.7375   -3.6417    0.0000 C   0  0  0  0  0  0  0  0  0  0  0  0
   -1.5500    0.4833    0.0000 O   0  0  0  0  0  0  0  0  0  0  0  0
   -0.8375    1.7208    0.0000 C   0  0  0  0  0  0  0  0  0  0  0  0
   -0.1208   -0.3417    0.0000 C   0  0  3  0  0  0  0  0  0  0  0  0
   -0.1208   -1.9917    0.0000 O   0  0  0  0  0  0  0  0  0  0  0  0
    1.3083   -1.9917    0.0000 N   0  0  0  0  0  0  0  0  0  0  0  0
    1.3083   -2.8167    0.0000 C   0  0  0  0  0  0  0  0  0  0  0  0
   -0.1208    2.1333    0.0000 C   0  0  0  0  0  0  0  0  0  0  0  0
   -1.5500    2.1333    0.0000 C   0  0  0  0  0  0  0  0  0  0  0  0
   -0.8375   -0.7542    0.0000 C   0  0  0  0  0  0  0  0  0  0  0  0
   -1.5500    2.9583    0.0000 C   0  0  0  0  0  0  0  0  0  0  0  0
   -0.1208    2.9583    0.0000 C   0  0  0  0  0  0  0  0  0  0  0  0
   -0.8375    3.3708    0.0000 C   0  0  0  0  0  0  0  0  0  0  0  0
  2  1  1  0  0  0  0
  3 12  1  0  0  0  0
  4  5  1  0  0  0  0
  5  9  1  0  0  0  0
  6  3  3  0  0  0  0
  7  1  2  0  0  0  0
  8  1  1  0  0  0  0
  9  2  1  0  0  0  0
 10  4  2  0  0  0  0
 11  4  1  0  0  0  0
 12 11  1  0  0  0  0
 13  8  1  0  0  0  0
 14  8  2  0  0  0  0
 15  9  1  0  0  0  0
 16 14  1  0  0  0  0
 17 13  2  0  0  0  0
 18 16  2  0  0  0  0
 18 17  1  0  0  0  0
M  END
> <CdId>
3971

> <Mol Weight>
244.289

> <Formula>
C14H16N2O2

> <Click_ID>
CLK052C02 __ __ 

$$$$
