CLK051E02
 OpenBabel03181417022D

 18 19  0  0  0  0  0  0  0  0999 V2000
    0.6834    0.5459    0.0000 C   0  0  0  0  0  0  0  0  0  0  0  0
    1.1670    1.2170    0.0000 C   0  0  0  0  0  0  0  0  0  0  0  0
    0.6834    1.8837    0.0000 N   0  0  0  0  0  0  0  0  0  0  0  0
   -0.1000    0.8044    0.0000 C   0  0  0  0  0  0  0  0  0  0  0  0
   -0.1000    1.6296    0.0000 C   0  0  0  0  0  0  0  0  0  0  0  0
    0.9377   -0.2376    0.0000 C   0  0  0  0  0  0  0  0  0  0  0  0
    0.3459   -3.0340    0.0000 C   0  0  0  0  0  0  0  0  0  0  0  0
    0.6001   -3.8175    0.0000 C   0  0  0  0  0  0  0  0  0  0  0  0
    0.3876   -0.8502    0.0000 C   0  0  0  0  0  0  0  0  0  0  0  0
   -0.8169    0.3918    0.0000 C   0  0  0  0  0  0  0  0  0  0  0  0
   -0.8169    2.0421    0.0000 C   0  0  0  0  0  0  0  0  0  0  0  0
   -0.4209   -0.6793    0.0000 O   0  0  0  0  0  0  0  0  0  0  0  0
    0.6418   -1.6337    0.0000 N   0  0  0  0  0  0  0  0  0  0  0  0
   -1.5295    0.8044    0.0000 C   0  0  0  0  0  0  0  0  0  0  0  0
   -1.5295    1.6296    0.0000 C   0  0  0  0  0  0  0  0  0  0  0  0
   -2.2463    0.3918    0.0000 F   0  0  0  0  0  0  0  0  0  0  0  0
    1.9921    1.2170    0.0000 C   0  0  0  0  0  0  0  0  0  0  0  0
    0.0875   -2.2505    0.0000 C   0  0  0  0  0  0  0  0  0  0  0  0
  2  1  2  0  0  0  0
  3  2  1  0  0  0  0
  4  1  1  0  0  0  0
  5  4  2  0  0  0  0
  5  3  1  0  0  0  0
  6  1  1  0  0  0  0
  7 18  1  0  0  0  0
  8  7  3  0  0  0  0
  9  6  1  0  0  0  0
 10  4  1  0  0  0  0
 11  5  1  0  0  0  0
 12  9  2  0  0  0  0
 13  9  1  0  0  0  0
 14 10  2  0  0  0  0
 14 15  1  0  0  0  0
 15 11  2  0  0  0  0
 16 14  1  0  0  0  0
 17  2  1  0  0  0  0
 18 13  1  0  0  0  0
M  END
> <CdId>
3893

> <Mol Weight>
244.2642

> <Formula>
C14H13FN2O

> <Click_ID>
CLK051E02 __ __ 

$$$$
