CLK011_E08
 OpenBabel03181417022D

 25 26  0  0  0  0  0  0  0  0999 V2000
    4.3399   -0.7689    0.0000 C    0  0  0  0  0  0  0  0  0  0  0  0
    5.0625   -0.3659    0.0000 C    0  0  0  0  0  0  0  0  0  0  0  0
    3.6313   -0.3382    0.0000 C    0  0  0  0  0  0  0  0  0  0  0  0
    2.9180   -0.7411    0.0000 C    0  0  0  0  0  0  0  0  0  0  0  0
    4.3214   -1.5887    0.0000 C    0  0  0  0  0  0  0  0  0  0  0  0
    5.0764    0.4539    0.0000 N    0  0  0  0  0  0  0  0  0  0  0  0
    4.2936   -2.5428    0.0000 N    0  0  0  0  0  0  0  0  0  0  0  0
    1.5470    1.7508    0.0000 C    0  0  0  0  0  0  0  0  0  0  0  0
    0.8384    2.1769    0.0000 C    0  0  0  0  0  0  0  0  0  0  0  0
    2.2140   -0.3104    0.0000 C    0  0  0  0  0  0  0  0  0  0  0  0
    5.7665   -0.7967    0.0000 O    0  0  0  0  0  0  0  0  0  0  0  0
    2.9041   -1.5609    0.0000 C    0  0  0  0  0  0  0  0  0  0  0  0
    1.4914   -0.7087    0.0000 C    0  0  0  0  0  0  0  0  0  0  0  0
    5.7989    0.8429    0.0000 C    0  0  0  0  0  0  0  0  0  0  0  0
    2.1815   -1.9500    0.0000 C    0  0  0  0  0  0  0  0  0  0  0  0
    7.2533    1.6350    0.0000 C    0  0  0  0  0  0  0  0  0  0  0  0
    1.4776   -1.5331    0.0000 C    0  0  0  0  0  0  0  0  0  0  0  0
    2.1676   -2.7790    0.0000 Br   0  0  0  0  0  0  0  0  0  0  0  0
    7.9805    2.0287    0.0000 F    0  0  0  0  0  0  0  0  0  0  0  0
    2.2279    0.5095    0.0000 O    0  0  0  0  0  0  0  0  0  0  0  0
    5.8267    1.6674    0.0000 C    0  0  0  0  0  0  0  0  0  0  0  0
    6.5076    0.4169    0.0000 C    0  0  0  0  0  0  0  0  0  0  0  0
    6.5493    2.0657    0.0000 C    0  0  0  0  0  0  0  0  0  0  0  0
    7.2301    0.8059    0.0000 C    0  0  0  0  0  0  0  0  0  0  0  0
    1.5285    0.9310    0.0000 C    0  0  0  0  0  0  0  0  0  0  0  0
  2  1  1  0  0  0  0
  3  1  2  0  0  0  0
  4  3  1  0  0  0  0
  5  1  1  0  0  0  0
  6  2  1  0  0  0  0
  7  5  3  0  0  0  0
  8 25  1  0  0  0  0
  9  8  3  0  0  0  0
 10  4  1  0  0  0  0
 11  2  2  0  0  0  0
 12  4  2  0  0  0  0
 13 10  2  0  0  0  0
 13 17  1  0  0  0  0
 14  6  1  0  0  0  0
 15 12  1  0  0  0  0
 16 24  1  0  0  0  0
 17 15  2  0  0  0  0
 18 15  1  0  0  0  0
 19 16  1  0  0  0  0
 20 10  1  0  0  0  0
 21 14  2  0  0  0  0
 22 14  1  0  0  0  0
 23 21  1  0  0  0  0
 23 16  2  0  0  0  0
 24 22  2  0  0  0  0
 25 20  1  0  0  0  0
M  END
> <CdId>
803

> <Mol Weight>
399.213

> <Formula>
C19H12BrFN2O2

> <Click_ID>
CLK011_E08 __ __ 

$$$$
