CLK027_D03
 OpenBabel03181417022D

 28 30  0  0  0  0  0  0  0  0999 V2000
   -1.4163   -0.5328    0.0000 C    0  0  3  0  0  0  0  0  0  0  0  0
   -2.0969   -1.0141    0.0000 C    0  0  0  0  0  0  0  0  0  0  0  0
   -1.6706    0.2510    0.0000 C    0  0  0  0  0  0  0  0  0  0  0  0
   -2.7603   -0.5259    0.0000 N    0  0  0  0  0  0  0  0  0  0  0  0
   -2.5059    0.2543    0.0000 C    0  0  0  0  0  0  0  0  0  0  0  0
   -0.5947   -0.5328    0.0000 C    0  0  0  0  0  0  0  0  0  0  0  0
   -0.1856    0.1856    0.0000 C    0  0  0  0  0  0  0  0  0  0  0  0
   -3.7160   -1.5881    0.0000 C    0  0  0  0  0  0  0  0  0  0  0  0
   -2.9047    0.9728    0.0000 C    0  0  0  0  0  0  0  0  0  0  0  0
   -3.9325   -2.3822    0.0000 C    0  0  0  0  0  0  0  0  0  0  0  0
   -1.2547    0.9625    0.0000 C    0  0  0  0  0  0  0  0  0  0  0  0
   -2.1106   -1.8494    0.0000 O    0  0  0  0  0  0  0  0  0  0  0  0
    0.6394    0.1856    0.0000 C    0  0  0  0  0  0  0  0  0  0  0  0
    3.1041    0.1994    0.0000 C    0  0  0  0  0  0  0  0  0  0  0  0
    2.2791    0.1925    0.0000 C    0  0  0  0  0  0  0  0  0  0  0  0
   -3.5407   -0.7734    0.0000 C    0  0  0  0  0  0  0  0  0  0  0  0
   -1.2066   -1.3235    0.0000 O    0  0  0  0  0  0  0  0  0  0  0  0
   -0.6050    0.9007    0.0000 O    0  0  0  0  0  0  0  0  0  0  0  0
    1.0519   -0.5259    0.0000 C    0  0  0  0  0  0  0  0  0  0  0  0
    1.0450    0.9007    0.0000 C    0  0  0  0  0  0  0  0  0  0  0  0
    1.8631    0.9110    0.0000 C    0  0  0  0  0  0  0  0  0  0  0  0
    1.8666   -0.5259    0.0000 C    0  0  0  0  0  0  0  0  0  0  0  0
   -1.6672    1.6741    0.0000 C    0  0  0  0  0  0  0  0  0  0  0  0
   -2.4922    1.6878    0.0000 C    0  0  0  0  0  0  0  0  0  0  0  0
   -1.2443    2.3857    0.0000 Br   0  0  0  0  0  0  0  0  0  0  0  0
    3.9291    0.1994    0.0000 C    0  0  0  0  0  0  0  0  0  0  0  0
    3.1041    1.0244    0.0000 C    0  0  0  0  0  0  0  0  0  0  0  0
    3.1144   -0.6256    0.0000 C    0  0  0  0  0  0  0  0  0  0  0  0
  2  1  1  0  0  0  0
  3  1  1  0  0  0  0
  4  2  1  0  0  0  0
  5  3  2  0  0  0  0
  5  4  1  0  0  0  0
  6  1  1  0  0  0  0
  7  6  1  0  0  0  0
  8 16  1  0  0  0  0
  9  5  1  0  0  0  0
 10  8  3  0  0  0  0
 11  3  1  0  0  0  0
 12  2  2  0  0  0  0
 13  7  1  0  0  0  0
 14 15  1  0  0  0  0
 15 21  1  0  0  0  0
 16  4  1  0  0  0  0
 17  1  1  0  0  0  0
 18  7  2  0  0  0  0
 19 13  2  0  0  0  0
 20 13  1  0  0  0  0
 21 20  2  0  0  0  0
 22 19  1  0  0  0  0
 22 15  2  0  0  0  0
 23 11  2  0  0  0  0
 24 23  1  0  0  0  0
 24  9  2  0  0  0  0
 25 23  1  0  0  0  0
 26 14  1  0  0  0  0
 27 14  1  0  0  0  0
 28 14  1  0  0  0  0
M  END
> <CdId>
2045

> <Mol Weight>
440.33

> <Formula>
C23H22BrNO3

> <Click_ID>
CLK027_D03 __ __ 

$$$$
