CLK009_H09
 OpenBabel03181417022D

 33 36  0  0  0  0  0  0  0  0999 V2000
    0.1286   -2.2644    0.0000 C   0  0  0  0  0  0  0  0  0  0  0  0
    0.3353   -1.4882    0.0000 C   0  0  0  0  0  0  0  0  0  0  0  0
    0.7027   -2.8523    0.0000 N   0  0  0  0  0  0  0  0  0  0  0  0
    1.1345   -1.2677    0.0000 N   0  0  0  0  0  0  0  0  0  0  0  0
    1.5066   -2.6456    0.0000 C   0  0  0  0  0  0  0  0  0  0  0  0
    1.7133   -1.8373    0.0000 C   0  0  0  0  0  0  0  0  0  0  0  0
   -0.3307   -1.0335    0.0000 N   0  0  0  0  0  0  0  0  0  0  0  0
   -0.6752   -2.3149    0.0000 N   0  0  0  0  0  0  0  0  0  0  0  0
   -0.9737   -1.5479    0.0000 O   0  0  0  0  0  0  0  0  0  0  0  0
    1.8189   -6.9999    0.0000 C   0  0  0  0  0  0  0  0  0  0  0  0
    1.2310   -6.4120    0.0000 C   0  0  0  0  0  0  0  0  0  0  0  0
    2.5538   -1.5846    0.0000 N   0  0  0  0  0  0  0  0  0  0  0  0
    2.6089   -6.7841    0.0000 C   0  0  0  0  0  0  0  0  0  0  0  0
    0.5834   -8.8050    0.0000 C   0  0  0  0  0  0  0  0  0  0  0  0
    0.3720   -9.5951    0.0000 C   0  0  0  0  0  0  0  0  0  0  0  0
    2.0945   -3.2152    0.0000 N   0  0  0  0  0  0  0  0  0  0  0  0
    1.8740   -4.0098    0.0000 N   0  0  0  0  0  0  0  0  0  0  0  0
    1.4377   -5.6082    0.0000 C   0  0  0  0  0  0  0  0  0  0  0  0
    2.8294   -5.9849    0.0000 C   0  0  0  0  0  0  0  0  0  0  0  0
    2.2460   -5.3877    0.0000 C   0  0  0  0  0  0  0  0  0  0  0  0
    2.4574   -4.5932    0.0000 C   0  0  0  0  0  0  0  0  0  0  0  0
    3.1188   -2.1909    0.0000 C   0  0  0  0  0  0  0  0  0  0  0  0
    0.4272   -6.6187    0.0000 I   0  0  0  0  0  0  0  0  0  0  0  0
    1.5984   -7.7900    0.0000 O   0  0  0  0  0  0  0  0  0  0  0  0
    3.1968   -7.3720    0.0000 O   0  0  0  0  0  0  0  0  0  0  0  0
    4.2073   -3.4173    0.0000 C   0  0  0  0  0  0  0  0  0  0  0  0
    4.7723   -4.0236    0.0000 I   0  0  0  0  0  0  0  0  0  0  0  0
    3.9180   -2.0164    0.0000 C   0  0  0  0  0  0  0  0  0  0  0  0
    2.8661   -2.9763    0.0000 C   0  0  0  0  0  0  0  0  0  0  0  0
    3.4173   -3.5826    0.0000 C   0  0  0  0  0  0  0  0  0  0  0  0
    4.4645   -2.6319    0.0000 C   0  0  0  0  0  0  0  0  0  0  0  0
    0.8038   -7.9967    0.0000 C   0  0  0  0  0  0  0  0  0  0  0  0
    3.9869   -7.1515    0.0000 C   0  0  0  0  0  0  0  0  0  0  0  0
  2  1  1  0  0  0  0
  3  1  1  0  0  0  0
  4  2  1  0  0  0  0
  4  6  2  0  0  0  0
  5  3  2  0  0  0  0
  6  5  1  0  0  0  0
  7  2  2  0  0  0  0
  8  1  2  0  0  0  0
  9  8  1  0  0  0  0
  9  7  1  0  0  0  0
 10 13  1  0  0  0  0
 10 11  2  0  0  0  0
 11 18  1  0  0  0  0
 12  6  1  0  0  0  0
 13 19  2  0  0  0  0
 14 32  1  0  0  0  0
 15 14  3  0  0  0  0
 16  5  1  0  0  0  0
 17 16  1  0  0  0  0
 18 20  2  0  0  0  0
 19 20  1  0  0  0  0
 20 21  1  0  0  0  0
 21 17  2  0  0  0  0
 22 12  1  0  0  0  0
 23 11  1  0  0  0  0
 24 10  1  0  0  0  0
 25 13  1  0  0  0  0
 26 30  1  0  0  0  0
 27 26  1  0  0  0  0
 28 22  2  0  0  0  0
 29 22  1  0  0  0  0
 30 29  2  0  0  0  0
 31 28  1  0  0  0  0
 31 26  2  0  0  0  0
 32 24  1  0  0  0  0
 33 25  1  0  0  0  0
M  END
> <CdId>
674

> <Mol Weight>
667.1978

> <Formula>
C21H15I2N7O3

> <Click_ID>
CLK009_H09 __ __ 

$$$$
