CLK021_H08
 OpenBabel03181417022D

 16 17  0  0  0  0  0  0  0  0999 V2000
    3.4100    2.9104    0.0000 C   0  0  0  0  0  0  0  0  0  0  0  0
    3.4971    3.7354    0.0000 N   0  0  0  0  0  0  0  0  0  0  0  0
    4.1662    2.5804    0.0000 N   0  0  0  0  0  0  0  0  0  0  0  0
    4.7162    3.1854    0.0000 C   0  0  0  0  0  0  0  0  0  0  0  0
    4.3037    3.9004    0.0000 C   0  0  0  0  0  0  0  0  0  0  0  0
    5.1196    1.5125    0.0000 C   0  0  0  0  0  0  0  0  0  0  0  0
    5.9034    1.2604    0.0000 C   0  0  0  0  0  0  0  0  0  0  0  0
    2.6904    2.4979    0.0000 C   0  0  0  0  0  0  0  0  0  0  0  0
    4.3359    1.7691    0.0000 C   0  0  0  0  0  0  0  0  0  0  0  0
    5.5412    3.1854    0.0000 C   0  0  0  0  0  0  0  0  0  0  0  0
    4.7162    4.6109    0.0000 C   0  0  0  0  0  0  0  0  0  0  0  0
    1.9846    2.9104    0.0000 C   0  0  0  0  0  0  0  0  0  0  0  0
    1.2696    2.4979    0.0000 C   0  0  0  0  0  0  0  0  0  0  0  0
    1.9846    3.7354    0.0000 C   0  0  0  0  0  0  0  0  0  0  0  0
    5.9537    3.9004    0.0000 C   0  0  0  0  0  0  0  0  0  0  0  0
    5.5412    4.6109    0.0000 C   0  0  0  0  0  0  0  0  0  0  0  0
  2  1  2  0  0  0  0
  3  1  1  0  0  0  0
  4  3  1  0  0  0  0
  5  2  1  0  0  0  0
  5  4  1  0  0  0  0
  6  9  1  0  0  0  0
  7  6  3  0  0  0  0
  8  1  1  0  0  0  0
  9  3  1  0  0  0  0
 10  4  2  0  0  0  0
 11  5  2  0  0  0  0
 12  8  1  0  0  0  0
 13 12  1  0  0  0  0
 14 12  1  0  0  0  0
 15 10  1  0  0  0  0
 16 11  1  0  0  0  0
 16 15  2  0  0  0  0
M  END
> <CdId>
1633

> <Mol Weight>
212.2902

> <Formula>
C14H16N2

> <Click_ID>
CLK021_H08 __ __ 

$$$$
