CLK012_D05
 OpenBabel03181417022D

 24 25  0  0  0  0  0  0  0  0999 V2000
    1.5677   -0.8172    0.0000 N    0  0  0  0  0  0  0  0  0  0  0  0
    1.8262   -1.6052    0.0000 C    0  0  0  0  0  0  0  0  0  0  0  0
    2.9061   -0.8172    0.0000 C    0  0  0  0  0  0  0  0  0  0  0  0
    2.2389   -0.3294    0.0000 C    0  0  0  0  0  0  0  0  0  0  0  0
    2.6517   -1.6052    0.0000 S    0  0  0  0  0  0  0  0  0  0  0  0
    3.6941   -0.5629    0.0000 C    0  0  0  0  0  0  0  0  0  0  0  0
    3.8567    0.2460    0.0000 C    0  0  0  0  0  0  0  0  0  0  0  0
    4.7948    1.3091    0.0000 C    0  0  0  0  0  0  0  0  0  0  0  0
    4.6322    0.5003    0.0000 C    0  0  0  0  0  0  0  0  0  0  0  0
    4.2027    1.8470    0.0000 C    0  0  0  0  0  0  0  0  0  0  0  0
    0.6129    0.2460    0.0000 C    0  0  0  0  0  0  0  0  0  0  0  0
    3.2521    0.7880    0.0000 C    0  0  0  0  0  0  0  0  0  0  0  0
    3.4189    1.5968    0.0000 C    0  0  0  0  0  0  0  0  0  0  0  0
    0.3920    1.0465    0.0000 C    0  0  0  0  0  0  0  0  0  0  0  0
    1.3384   -2.2681    0.0000 O    0  0  0  0  0  0  0  0  0  0  0  0
    2.2306    0.4961    0.0000 O    0  0  0  0  0  0  0  0  0  0  0  0
    0.7880   -0.5629    0.0000 C    0  0  0  0  0  0  0  0  0  0  0  0
    5.3326    3.7107    0.0000 C    0  0  0  0  0  0  0  0  0  0  0  0
    6.1164    3.9483    0.0000 C    0  0  0  0  0  0  0  0  0  0  0  0
    5.2409   -0.0417    0.0000 Br   0  0  0  0  0  0  0  0  0  0  0  0
    4.3820    2.6475    0.0000 O    0  0  0  0  0  0  0  0  0  0  0  0
    2.8268    2.1472    0.0000 O    0  0  0  0  0  0  0  0  0  0  0  0
    5.1533    2.8977    0.0000 C    0  0  0  0  0  0  0  0  0  0  0  0
    2.0430    1.8970    0.0000 C    0  0  0  0  0  0  0  0  0  0  0  0
  2  1  1  0  0  0  0
  3  4  1  0  0  0  0
  3  5  1  0  0  0  0
  4  1  1  0  0  0  0
  5  2  1  0  0  0  0
  6  3  2  0  0  0  0
  7  6  1  0  0  0  0
  8  9  2  0  0  0  0
  9  7  1  0  0  0  0
 10 13  2  0  0  0  0
 10  8  1  0  0  0  0
 11 17  1  0  0  0  0
 12  7  2  0  0  0  0
 13 12  1  0  0  0  0
 14 11  3  0  0  0  0
 15  2  2  0  0  0  0
 16  4  2  0  0  0  0
 17  1  1  0  0  0  0
 18 23  1  0  0  0  0
 19 18  2  0  0  0  0
 20  9  1  0  0  0  0
 21 10  1  0  0  0  0
 22 13  1  0  0  0  0
 23 21  1  0  0  0  0
 24 22  1  0  0  0  0
M  END
> <CdId>
870

> <Mol Weight>
408.266

> <Formula>
C17H14BrNO4S

> <Click_ID>
CLK012_D05 __ __ 

$$$$
