CLK025_B03
 OpenBabel03181417022D

 31 33  0  0  0  0  0  0  0  0999 V2000
   -1.6994    0.8841    0.0000 N    0  0  0  0  0  0  0  0  0  0  0  0
   -0.8669    0.8841    0.0000 C    0  0  0  0  0  0  0  0  0  0  0  0
   -1.9540    1.6719    0.0000 C    0  0  0  0  0  0  0  0  0  0  0  0
   -0.6124    1.6719    0.0000 C    0  0  0  0  0  0  0  0  0  0  0  0
   -1.2797    2.1569    0.0000 S    0  0  0  0  0  0  0  0  0  0  0  0
   -2.1879    0.2133    0.0000 N    0  0  0  0  0  0  0  0  0  0  0  0
   -3.0032    0.2993    0.0000 C    0  0  0  0  0  0  0  0  0  0  0  0
    0.1720    1.9264    0.0000 C    0  0  0  0  0  0  0  0  0  0  0  0
    2.0124    0.2718    0.0000 C    0  0  0  0  0  0  0  0  0  0  0  0
    2.1879    1.0733    0.0000 C    0  0  0  0  0  0  0  0  0  0  0  0
    1.2246    0.0069    0.0000 C    0  0  0  0  0  0  0  0  0  0  0  0
    0.7878    1.3691    0.0000 C    0  0  0  0  0  0  0  0  0  0  0  0
   -2.7383    1.9264    0.0000 S    0  0  0  0  0  0  0  0  0  0  0  0
    4.0627   -0.2683    0.0000 C    0  0  0  0  0  0  0  0  0  0  0  0
    4.7886   -0.6673    0.0000 C    0  0  0  0  0  0  0  0  0  0  0  0
   -0.3887    0.2133    0.0000 O    0  0  0  0  0  0  0  0  0  0  0  0
    1.5721    1.6237    0.0000 C    0  0  0  0  0  0  0  0  0  0  0  0
    0.6124    0.5608    0.0000 C    0  0  0  0  0  0  0  0  0  0  0  0
   -3.3369    1.0595    0.0000 O    0  0  0  0  0  0  0  0  0  0  0  0
   -3.4882   -0.3681    0.0000 C    0  0  0  0  0  0  0  0  0  0  0  0
    2.9619    1.3348    0.0000 Br   0  0  0  0  0  0  0  0  0  0  0  0
    2.6385   -0.2786    0.0000 O    0  0  0  0  0  0  0  0  0  0  0  0
    1.0630   -0.8015    0.0000 O    0  0  0  0  0  0  0  0  0  0  0  0
    3.3506    0.1376    0.0000 C    0  0  0  0  0  0  0  0  0  0  0  0
   -3.1511   -1.1181    0.0000 C    0  0  0  0  0  0  0  0  0  0  0  0
   -4.3035   -0.2786    0.0000 C    0  0  0  0  0  0  0  0  0  0  0  0
    1.6822   -1.3485    0.0000 C    0  0  0  0  0  0  0  0  0  0  0  0
    1.5136   -2.1535    0.0000 C    0  0  0  0  0  0  0  0  0  0  0  0
   -4.7920   -0.9426    0.0000 C    0  0  0  0  0  0  0  0  0  0  0  0
   -3.6292   -1.7785    0.0000 C    0  0  0  0  0  0  0  0  0  0  0  0
   -4.4549   -1.6994    0.0000 C    0  0  0  0  0  0  0  0  0  0  0  0
  2  1  1  0  0  0  0
  3  1  1  0  0  0  0
  4  2  1  0  0  0  0
  5  3  1  0  0  0  0
  5  4  1  0  0  0  0
  6  1  1  0  0  0  0
  7  6  1  0  0  0  0
  8  4  2  0  0  0  0
  9 11  1  0  0  0  0
 10 17  1  0  0  0  0
 10  9  2  0  0  0  0
 11 18  2  0  0  0  0
 12  8  1  0  0  0  0
 13  3  2  0  0  0  0
 14 24  1  0  0  0  0
 15 14  3  0  0  0  0
 16  2  2  0  0  0  0
 17 12  2  0  0  0  0
 18 12  1  0  0  0  0
 19  7  2  0  0  0  0
 20  7  1  0  0  0  0
 21 10  1  0  0  0  0
 22  9  1  0  0  0  0
 23 11  1  0  0  0  0
 24 22  1  0  0  0  0
 25 20  1  0  0  0  0
 26 20  2  0  0  0  0
 27 23  1  0  0  0  0
 28 27  1  0  0  0  0
 29 26  1  0  0  0  0
 30 25  2  0  0  0  0
 30 31  1  0  0  0  0
 31 29  2  0  0  0  0
M  END
> <CdId>
1868

> <Mol Weight>
517.415

> <Formula>
C22H17BrN2O4S2

> <Click_ID>
CLK025_B03 __ __ 

$$$$
