CLK028_B09
 OpenBabel03181417022D

 27 29  0  0  0  0  0  0  0  0999 V2000
    1.6740    0.8936    0.0000 C   0  0  0  0  0  0  0  0  0  0  0  0
    1.7564    0.0756    0.0000 C   0  0  0  0  0  0  0  0  0  0  0  0
    2.5641   -0.0928    0.0000 N   0  0  0  0  0  0  0  0  0  0  0  0
    2.4267    1.2305    0.0000 C   0  0  0  0  0  0  0  0  0  0  0  0
    2.9766    0.6187    0.0000 C   0  0  0  0  0  0  0  0  0  0  0  0
    0.9590    1.3061    0.0000 N   0  0  0  0  0  0  0  0  0  0  0  0
   -0.4675    1.3061    0.0000 C   0  0  0  0  0  0  0  0  0  0  0  0
   -2.6123    0.8936    0.0000 C   0  0  0  0  0  0  0  0  0  0  0  0
    0.2440    0.8936    0.0000 N   0  0  0  0  0  0  0  0  0  0  0  0
   -1.8973    1.3061    0.0000 O   0  0  0  0  0  0  0  0  0  0  0  0
    2.4129   -1.5193    0.0000 C   0  0  0  0  0  0  0  0  0  0  0  0
    1.9214   -2.1826    0.0000 C   0  0  0  0  0  0  0  0  0  0  0  0
    1.1377   -0.4778    0.0000 O   0  0  0  0  0  0  0  0  0  0  0  0
    2.8976   -0.8490    0.0000 C   0  0  0  0  0  0  0  0  0  0  0  0
   -0.4675    2.1310    0.0000 O   0  0  0  0  0  0  0  0  0  0  0  0
   -1.1824    0.8936    0.0000 C   0  0  0  0  0  0  0  0  0  0  0  0
   -3.3307    1.3130    0.0000 C   0  0  0  0  0  0  0  0  0  0  0  0
   -2.6123    0.0687    0.0000 C   0  0  0  0  0  0  0  0  0  0  0  0
    2.6776    2.0142    0.0000 C   0  0  0  0  0  0  0  0  0  0  0  0
    3.7775    0.7837    0.0000 C   0  0  0  0  0  0  0  0  0  0  0  0
   -4.0422    0.0687    0.0000 C   0  0  0  0  0  0  0  0  0  0  0  0
   -4.0422    0.8936    0.0000 C   0  0  0  0  0  0  0  0  0  0  0  0
   -3.3307   -0.3403    0.0000 C   0  0  0  0  0  0  0  0  0  0  0  0
   -1.8973   -0.3403    0.0000 C   0  0  0  0  0  0  0  0  0  0  0  0
   -3.3307    2.1345    0.0000 C   0  0  0  0  0  0  0  0  0  0  0  0
    3.4888    2.1861    0.0000 C   0  0  0  0  0  0  0  0  0  0  0  0
    4.0387    1.5674    0.0000 C   0  0  0  0  0  0  0  0  0  0  0  0
  2  1  1  0  0  0  0
  3  2  1  0  0  0  0
  4  1  1  0  0  0  0
  5  4  2  0  0  0  0
  5  3  1  0  0  0  0
  6  1  2  0  0  0  0
  7  9  1  0  0  0  0
  8 10  1  0  0  0  0
  9  6  1  0  0  0  0
 10 16  1  0  0  0  0
 11 14  1  0  0  0  0
 12 11  3  0  0  0  0
 13  2  2  0  0  0  0
 14  3  1  0  0  0  0
 15  7  2  0  0  0  0
 16  7  1  0  0  0  0
 17  8  1  0  0  0  0
 18  8  2  0  0  0  0
 19  4  1  0  0  0  0
 20  5  1  0  0  0  0
 21 23  2  0  0  0  0
 21 22  1  0  0  0  0
 22 17  2  0  0  0  0
 23 18  1  0  0  0  0
 24 18  1  0  0  0  0
 25 17  1  0  0  0  0
 26 19  2  0  0  0  0
 27 26  1  0  0  0  0
 27 20  2  0  0  0  0
M  END
> <CdId>
2103

> <Mol Weight>
361.3939

> <Formula>
C21H19N3O3

> <Click_ID>
CLK028_B09 __ __ 

$$$$
