CLK042G03
 OpenBabel03181417022D

 25 27  0  0  0  0  0  0  0  0999 V2000
   -0.4583    0.2333    0.0000 S   0  0  0  0  0  0  0  0  0  0  0  0
    0.2542   -0.1792    0.0000 N   0  0  0  0  0  0  0  0  0  0  0  0
   -1.1750    0.6458    0.0000 C   0  0  0  0  0  0  0  0  0  0  0  0
    2.4000   -1.4167    0.0000 C   0  0  0  0  0  0  0  0  0  0  0  0
    1.6833   -1.0042    0.0000 N   0  0  0  0  0  0  0  0  0  0  0  0
   -1.8875    0.2333    0.0000 C   0  0  0  0  0  0  0  0  0  0  0  0
   -2.6042    0.6458    0.0000 C   0  0  0  0  0  0  0  0  0  0  0  0
   -0.8708   -0.4833    0.0000 O   0  0  0  0  0  0  0  0  0  0  0  0
   -0.0458    0.9458    0.0000 O   0  0  0  0  0  0  0  0  0  0  0  0
    0.9708    0.2333    0.0000 C   0  0  0  0  0  0  0  0  0  0  0  0
    0.2542   -1.0042    0.0000 C   0  0  0  0  0  0  0  0  0  0  0  0
    4.5417   -1.0042    0.0000 C   0  0  0  0  0  0  0  0  0  0  0  0
    5.2583   -0.5917    0.0000 C   0  0  0  0  0  0  0  0  0  0  0  0
   -2.6042    1.4708    0.0000 C   0  0  0  0  0  0  0  0  0  0  0  0
    0.9708   -1.4167    0.0000 C   0  0  0  0  0  0  0  0  0  0  0  0
    1.6833   -0.1792    0.0000 C   0  0  0  0  0  0  0  0  0  0  0  0
    2.4000   -2.2417    0.0000 O   0  0  0  0  0  0  0  0  0  0  0  0
   -3.3167    0.2333    0.0000 O   0  0  0  0  0  0  0  0  0  0  0  0
   -1.1750    1.4708    0.0000 C   0  0  0  0  0  0  0  0  0  0  0  0
   -3.3167    1.8833    0.0000 O   0  0  0  0  0  0  0  0  0  0  0  0
    3.1125   -1.0042    0.0000 N   0  0  0  0  0  0  0  0  0  0  0  0
   -1.8875    1.8833    0.0000 C   0  0  0  0  0  0  0  0  0  0  0  0
    3.8292   -1.4167    0.0000 C   0  0  0  0  0  0  0  0  0  0  0  0
   -4.0333    0.6458    0.0000 C   0  0  0  0  0  0  0  0  0  0  0  0
   -4.0333    1.4708    0.0000 C   0  0  0  0  0  0  0  0  0  0  0  0
  2  1  1  0  0  0  0
  3  1  1  0  0  0  0
  4  5  1  0  0  0  0
  5 15  1  0  0  0  0
  6  3  2  0  0  0  0
  7  6  1  0  0  0  0
  8  1  2  0  0  0  0
  9  1  2  0  0  0  0
 10  2  1  0  0  0  0
 11  2  1  0  0  0  0
 12 23  1  0  0  0  0
 13 12  3  0  0  0  0
 14  7  2  0  0  0  0
 14 22  1  0  0  0  0
 15 11  1  0  0  0  0
 16 10  1  0  0  0  0
 16  5  1  0  0  0  0
 17  4  2  0  0  0  0
 18  7  1  0  0  0  0
 19  3  1  0  0  0  0
 20 14  1  0  0  0  0
 21  4  1  0  0  0  0
 22 19  2  0  0  0  0
 23 21  1  0  0  0  0
 24 18  1  0  0  0  0
 24 25  1  0  0  0  0
 25 20  1  0  0  0  0
M  END
> <CdId>
3183

> <Mol Weight>
365.404

> <Formula>
C16H19N3O5S

> <Click_ID>
CLK042G03 __ __ 

$$$$
