CLK015_H03
 OpenBabel03181417022D

 24 25  0  0  0  0  0  0  0  0999 V2000
    7.6862   -6.6095    0.0000 C   0  0  0  0  0  0  0  0  0  0  0  0
    7.6862   -5.7782    0.0000 C   0  0  0  0  0  0  0  0  0  0  0  0
    8.3970   -7.0253    0.0000 C   0  0  0  0  0  0  0  0  0  0  0  0
    8.3970   -5.3749    0.0000 O   0  0  0  0  0  0  0  0  0  0  0  0
    9.1162   -6.6137    0.0000 O   0  0  0  0  0  0  0  0  0  0  0  0
    9.1079   -5.7865    0.0000 C   0  0  0  0  0  0  0  0  0  0  0  0
    6.9712   -7.0211    0.0000 C   0  0  0  0  0  0  0  0  0  0  0  0
    2.7062   -5.3500    0.0000 C   0  0  0  0  0  0  0  0  0  0  0  0
    1.9995   -4.9302    0.0000 C   0  0  0  0  0  0  0  0  0  0  0  0
    4.8387   -6.6012    0.0000 C   0  0  0  0  0  0  0  0  0  0  0  0
    6.2603   -6.6012    0.0000 C   0  0  0  0  0  0  0  0  0  0  0  0
    8.3970   -7.8483    0.0000 O   0  0  0  0  0  0  0  0  0  0  0  0
    6.9754   -5.3666    0.0000 O   0  0  0  0  0  0  0  0  0  0  0  0
    5.5537   -7.0128    0.0000 C   0  0  0  0  0  0  0  0  0  0  0  0
    4.8387   -5.7740    0.0000 C   0  0  0  0  0  0  0  0  0  0  0  0
    5.5537   -5.3666    0.0000 C   0  0  0  0  0  0  0  0  0  0  0  0
    6.2645   -5.7865    0.0000 C   0  0  0  0  0  0  0  0  0  0  0  0
    4.1196   -7.0086    0.0000 O   0  0  0  0  0  0  0  0  0  0  0  0
    4.1320   -5.3542    0.0000 O   0  0  0  0  0  0  0  0  0  0  0  0
    9.5277   -5.0673    0.0000 C   0  0  0  0  0  0  0  0  0  0  0  0
    9.9185   -5.9985    0.0000 C   0  0  0  0  0  0  0  0  0  0  0  0
    3.4170   -5.7657    0.0000 C   0  0  0  0  0  0  0  0  0  0  0  0
    4.1154   -7.8234    0.0000 C   0  0  0  0  0  0  0  0  0  0  0  0
    3.3963   -8.2307    0.0000 C   0  0  0  0  0  0  0  0  0  0  0  0
  2  1  1  0  0  0  0
  3  1  1  0  0  0  0
  4  2  1  0  0  0  0
  5  3  1  0  0  0  0
  6  5  1  0  0  0  0
  6  4  1  0  0  0  0
  7  1  2  0  0  0  0
  8 22  1  0  0  0  0
  9  8  3  0  0  0  0
 10 14  1  0  0  0  0
 11  7  1  0  0  0  0
 12  3  2  0  0  0  0
 13  2  2  0  0  0  0
 14 11  2  0  0  0  0
 15 16  1  0  0  0  0
 15 10  2  0  0  0  0
 16 17  2  0  0  0  0
 17 11  1  0  0  0  0
 18 10  1  0  0  0  0
 19 15  1  0  0  0  0
 20  6  1  0  0  0  0
 21  6  1  0  0  0  0
 22 19  1  0  0  0  0
 23 18  1  0  0  0  0
 24 23  1  0  0  0  0
M  END
> <CdId>
1148

> <Mol Weight>
330.3319

> <Formula>
C18H18O6

> <Click_ID>
CLK015_H03 __ __ 

$$$$
