CLK045H11
 OpenBabel03181417022D

 30 31  0  0  0  0  0  0  0  0999 V2000
    0.8333   -0.9458    0.0000 C   0  0  0  0  0  0  0  0  0  0  0  0
    0.8333   -0.1208    0.0000 C   0  0  0  0  0  0  0  0  0  0  0  0
    0.1167    0.2917    0.0000 C   0  0  0  0  0  0  0  0  0  0  0  0
    0.1167   -1.3583    0.0000 N   0  0  0  0  0  0  0  0  0  0  0  0
   -1.3125    4.4125    0.0000 C   0  0  0  0  0  0  0  0  0  0  0  0
   -1.3125    5.2375    0.0000 C   0  0  0  0  0  0  0  0  0  0  0  0
    1.5458   -1.3583    0.0000 N   0  0  0  0  0  0  0  0  0  0  0  0
   -0.5958    2.3542    0.0000 C   0  0  0  0  0  0  0  0  0  0  0  0
   -1.3125    2.7667    0.0000 N   0  0  0  0  0  0  0  0  0  0  0  0
    0.1167    1.1167    0.0000 O   0  0  0  0  0  0  0  0  0  0  0  0
   -1.3125    3.5917    0.0000 C   0  0  0  0  0  0  0  0  0  0  0  0
   -0.5958   -0.1208    0.0000 O   0  0  0  0  0  0  0  0  0  0  0  0
    0.1167    2.7667    0.0000 O   0  0  0  0  0  0  0  0  0  0  0  0
    0.1167   -2.1833    0.0000 C   0  0  0  0  0  0  0  0  0  0  0  0
   -0.5958    1.5292    0.0000 C   0  0  0  0  0  0  0  0  0  0  0  0
    0.1167   -3.8333    0.0000 C   0  0  0  0  0  0  0  0  0  0  0  0
    1.5458    0.2917    0.0000 C   0  0  0  0  0  0  0  0  0  0  0  0
    0.8333   -2.5958    0.0000 C   0  0  0  0  0  0  0  0  0  0  0  0
   -0.5958   -2.5958    0.0000 C   0  0  0  0  0  0  0  0  0  0  0  0
    0.8333   -3.4208    0.0000 C   0  0  0  0  0  0  0  0  0  0  0  0
   -0.5958   -3.4208    0.0000 C   0  0  0  0  0  0  0  0  0  0  0  0
    0.1167   -4.6583    0.0000 O   0  0  0  0  0  0  0  0  0  0  0  0
    2.2583   -0.9458    0.0000 C   0  0  0  0  0  0  0  0  0  0  0  0
   -2.1375    3.5917    0.0000 C   0  0  0  0  0  0  0  0  0  0  0  0
   -0.4875    3.5917    0.0000 C   0  0  0  0  0  0  0  0  0  0  0  0
    0.8333   -5.0708    0.0000 C   0  0  0  0  0  0  0  0  0  0  0  0
    2.2583   -0.1208    0.0000 C   0  0  0  0  0  0  0  0  0  0  0  0
   -2.5500    4.3000    0.0000 C   0  0  0  0  0  0  0  0  0  0  0  0
   -0.0750    2.8750    0.0000 C   0  0  0  0  0  0  0  0  0  0  0  0
    0.8333   -5.8958    0.0000 C   0  0  0  0  0  0  0  0  0  0  0  0
  2  1  2  0  0  0  0
  3  2  1  0  0  0  0
  4  1  1  0  0  0  0
  5 11  1  0  0  0  0
  6  5  3  0  0  0  0
  7  1  1  0  0  0  0
  8 15  1  0  0  0  0
  9  8  1  0  0  0  0
 10  3  1  0  0  0  0
 11  9  1  0  0  0  0
 12  3  2  0  0  0  0
 13  8  2  0  0  0  0
 14  4  1  0  0  0  0
 15 10  1  0  0  0  0
 16 21  2  0  0  0  0
 17  2  1  0  0  0  0
 18 14  1  0  0  0  0
 19 14  2  0  0  0  0
 20 18  2  0  0  0  0
 20 16  1  0  0  0  0
 21 19  1  0  0  0  0
 22 16  1  0  0  0  0
 23  7  2  0  0  0  0
 24 11  1  0  0  0  0
 25 11  1  0  0  0  0
 26 22  1  0  0  0  0
 27 17  2  0  0  0  0
 27 23  1  0  0  0  0
 28 24  1  0  0  0  0
 29 25  1  0  0  0  0
 30 26  1  0  0  0  0
M  END
> <CdId>
3488

> <Mol Weight>
409.4782

> <Formula>
C23H27N3O4

> <Click_ID>
CLK045H11 __ __ 

$$$$
