CLK041B02
 OpenBabel03181417022D

 26 27  0  0  0  0  0  0  0  0999 V2000
   -0.1375    1.7000    0.0000 S   0  0  0  0  0  0  0  0  0  0  0  0
   -0.1375    2.5250    0.0000 C   0  0  0  0  0  0  0  0  0  0  0  0
   -0.1375    0.8750    0.0000 N   0  0  0  0  0  0  0  0  0  0  0  0
   -0.1375   -1.6000    0.0000 C   0  0  0  0  0  0  0  0  0  0  0  0
    0.5750   -2.0125    0.0000 N   0  0  0  0  0  0  0  0  0  0  0  0
    0.5750   -3.6625    0.0000 C   0  0  0  0  0  0  0  0  0  0  0  0
   -0.9625    1.7000    0.0000 O   0  0  0  0  0  0  0  0  0  0  0  0
    0.6875    1.7000    0.0000 O   0  0  0  0  0  0  0  0  0  0  0  0
    0.5750   -4.4875    0.0000 C   0  0  0  0  0  0  0  0  0  0  0  0
    0.5750   -2.8375    0.0000 C   0  0  0  0  0  0  0  0  0  0  0  0
   -0.8542    2.9375    0.0000 C   0  0  0  0  0  0  0  0  0  0  0  0
   -0.1375   -0.7750    0.0000 C   0  0  0  0  0  0  0  0  0  0  0  0
   -0.8542    0.4625    0.0000 C   0  0  0  0  0  0  0  0  0  0  0  0
    0.5750    0.4625    0.0000 C   0  0  0  0  0  0  0  0  0  0  0  0
   -0.8542   -2.0125    0.0000 O   0  0  0  0  0  0  0  0  0  0  0  0
   -0.8542   -0.3625    0.0000 C   0  0  0  0  0  0  0  0  0  0  0  0
    0.5750   -0.3625    0.0000 C   0  0  0  0  0  0  0  0  0  0  0  0
   -1.5667    2.5250    0.0000 F   0  0  0  0  0  0  0  0  0  0  0  0
    0.5750    2.9375    0.0000 C   0  0  0  0  0  0  0  0  0  0  0  0
    1.4000   -2.8375    0.0000 C   0  0  0  0  0  0  0  0  0  0  0  0
   -0.2500   -2.8375    0.0000 C   0  0  0  0  0  0  0  0  0  0  0  0
   -0.8542    3.7625    0.0000 C   0  0  0  0  0  0  0  0  0  0  0  0
    0.5750    3.7625    0.0000 C   0  0  0  0  0  0  0  0  0  0  0  0
    1.8125   -3.5542    0.0000 C   0  0  0  0  0  0  0  0  0  0  0  0
   -0.6625   -2.1250    0.0000 C   0  0  0  0  0  0  0  0  0  0  0  0
   -0.1375    4.1708    0.0000 C   0  0  0  0  0  0  0  0  0  0  0  0
  2  1  1  0  0  0  0
  3  1  1  0  0  0  0
  4 12  1  0  0  0  0
  5  4  1  0  0  0  0
  6 10  1  0  0  0  0
  7  1  2  0  0  0  0
  8  1  2  0  0  0  0
  9  6  3  0  0  0  0
 10  5  1  0  0  0  0
 11  2  2  0  0  0  0
 12 16  1  0  0  0  0
 13  3  1  0  0  0  0
 14  3  1  0  0  0  0
 15  4  2  0  0  0  0
 16 13  1  0  0  0  0
 17 14  1  0  0  0  0
 17 12  1  0  0  0  0
 18 11  1  0  0  0  0
 19  2  1  0  0  0  0
 20 10  1  0  0  0  0
 21 10  1  0  0  0  0
 22 11  1  0  0  0  0
 23 19  2  0  0  0  0
 24 20  1  0  0  0  0
 25 21  1  0  0  0  0
 26 22  2  0  0  0  0
 26 23  1  0  0  0  0
M  END
> <CdId>
3090

> <Mol Weight>
380.477

> <Formula>
C19H25FN2O3S

> <Click_ID>
CLK041B02 __ __ 

$$$$
