CLK042H02
 OpenBabel03181417022D

 24 26  0  0  0  0  0  0  0  0999 V2000
   -0.6292    0.2750    0.0000 S   0  0  0  0  0  0  0  0  0  0  0  0
    0.0875   -0.1375    0.0000 N   0  0  0  0  0  0  0  0  0  0  0  0
   -1.3417    0.6875    0.0000 C   0  0  0  0  0  0  0  0  0  0  0  0
    2.2292   -1.3750    0.0000 C   0  0  0  0  0  0  0  0  0  0  0  0
   -2.0583    0.2750    0.0000 C   0  0  0  0  0  0  0  0  0  0  0  0
   -0.2167    0.9917    0.0000 O   0  0  0  0  0  0  0  0  0  0  0  0
   -1.0417   -0.4375    0.0000 O   0  0  0  0  0  0  0  0  0  0  0  0
    4.3750   -0.9625    0.0000 C   0  0  0  0  0  0  0  0  0  0  0  0
    5.0875   -0.5500    0.0000 C   0  0  0  0  0  0  0  0  0  0  0  0
   -2.7708    0.6875    0.0000 C   0  0  0  0  0  0  0  0  0  0  0  0
    0.8000    0.2750    0.0000 C   0  0  0  0  0  0  0  0  0  0  0  0
    0.0875   -0.9625    0.0000 C   0  0  0  0  0  0  0  0  0  0  0  0
    1.5167   -0.9625    0.0000 C   0  0  0  0  0  0  0  0  0  0  0  0
   -2.7708    1.5125    0.0000 C   0  0  0  0  0  0  0  0  0  0  0  0
   -1.3417    1.5125    0.0000 C   0  0  0  0  0  0  0  0  0  0  0  0
    2.2292   -2.2000    0.0000 O   0  0  0  0  0  0  0  0  0  0  0  0
   -2.0583    1.9250    0.0000 C   0  0  0  0  0  0  0  0  0  0  0  0
    0.8000   -1.3750    0.0000 C   0  0  0  0  0  0  0  0  0  0  0  0
    1.5167   -0.1375    0.0000 C   0  0  0  0  0  0  0  0  0  0  0  0
    2.9458   -0.9625    0.0000 N   0  0  0  0  0  0  0  0  0  0  0  0
    3.6583   -1.3750    0.0000 C   0  0  0  0  0  0  0  0  0  0  0  0
   -3.5542    0.4333    0.0000 C   0  0  0  0  0  0  0  0  0  0  0  0
   -4.0417    1.1000    0.0000 C   0  0  0  0  0  0  0  0  0  0  0  0
   -3.5542    1.7708    0.0000 C   0  0  0  0  0  0  0  0  0  0  0  0
  2  1  1  0  0  0  0
  3  1  1  0  0  0  0
  4 13  1  0  0  0  0
  5  3  2  0  0  0  0
  6  1  2  0  0  0  0
  7  1  2  0  0  0  0
  8 21  1  0  0  0  0
  9  8  3  0  0  0  0
 10  5  1  0  0  0  0
 11  2  1  0  0  0  0
 12  2  1  0  0  0  0
 13 18  1  0  0  0  0
 14 10  2  0  0  0  0
 14 17  1  0  0  0  0
 15  3  1  0  0  0  0
 16  4  2  0  0  0  0
 17 15  2  0  0  0  0
 18 12  1  0  0  0  0
 19 11  1  0  0  0  0
 19 13  1  0  0  0  0
 20  4  1  0  0  0  0
 21 20  1  0  0  0  0
 22 10  1  0  0  0  0
 23 22  1  0  0  0  0
 23 24  1  0  0  0  0
 24 14  1  0  0  0  0
M  END
> <CdId>
3176

> <Mol Weight>
346.444

> <Formula>
C18H22N2O3S

> <Click_ID>
CLK042H02 __ __ 

$$$$
