CLK050A05
 OpenBabel03181417022D

 17 17  0  0  0  0  0  0  0  0999 V2000
    0.2917   -1.1875    0.0000 C   0  0  0  0  0  0  0  0  0  0  0  0
    0.2917   -0.3625    0.0000 N   0  0  0  0  0  0  0  0  0  0  0  0
    1.7208   -2.8375    0.0000 C   0  0  0  0  0  0  0  0  0  0  0  0
    2.4375   -3.2500    0.0000 C   0  0  0  0  0  0  0  0  0  0  0  0
   -0.4208    0.0500    0.0000 C   0  0  3  0  0  0  0  0  0  0  0  0
   -0.4208    0.8750    0.0000 C   0  0  0  0  0  0  0  0  0  0  0  0
   -0.4208   -1.6000    0.0000 O   0  0  0  0  0  0  0  0  0  0  0  0
    1.0083   -1.6000    0.0000 N   0  0  0  0  0  0  0  0  0  0  0  0
    0.2917    1.2875    0.0000 C   0  0  0  0  0  0  0  0  0  0  0  0
   -1.1375    1.2875    0.0000 C   0  0  0  0  0  0  0  0  0  0  0  0
   -1.1375    2.1125    0.0000 C   0  0  0  0  0  0  0  0  0  0  0  0
    0.2917    2.1125    0.0000 C   0  0  0  0  0  0  0  0  0  0  0  0
   -0.4208    2.5250    0.0000 C   0  0  0  0  0  0  0  0  0  0  0  0
    1.0083   -2.4250    0.0000 C   0  0  0  0  0  0  0  0  0  0  0  0
   -1.1375   -0.3625    0.0000 C   0  0  0  0  0  0  0  0  0  0  0  0
   -0.4208    3.3500    0.0000 C   0  0  0  0  0  0  0  0  0  0  0  0
   -1.8500    0.0500    0.0000 C   0  0  0  0  0  0  0  0  0  0  0  0
  2  1  1  0  0  0  0
  3 14  1  0  0  0  0
  4  3  3  0  0  0  0
  5  2  1  0  0  0  0
  6  5  1  0  0  0  0
  7  1  2  0  0  0  0
  8  1  1  0  0  0  0
  9  6  1  0  0  0  0
 10  6  2  0  0  0  0
 11 10  1  0  0  0  0
 12  9  2  0  0  0  0
 13 11  2  0  0  0  0
 13 12  1  0  0  0  0
 14  8  1  0  0  0  0
 15  5  1  0  0  0  0
 16 13  1  0  0  0  0
 17 15  1  0  0  0  0
M  END
> <CdId>
3833

> <Mol Weight>
230.3055

> <Formula>
C14H18N2O

> <Click_ID>
CLK050A05 __ __ 

$$$$
