CLK045D10
 OpenBabel03181417022D

 27 30  0  0  0  0  0  0  0  0999 V2000
    1.0167    1.5833    0.0000 C   0  0  0  0  0  0  0  0  0  0  0  0
    1.0167    0.7583    0.0000 C   0  0  0  0  0  0  0  0  0  0  0  0
    0.3042    0.3458    0.0000 C   0  0  0  0  0  0  0  0  0  0  0  0
    0.3042    1.9958    0.0000 N   0  0  0  0  0  0  0  0  0  0  0  0
    0.3042   -0.4792    0.0000 C   0  0  0  0  0  0  0  0  0  0  0  0
    2.2875    1.1708    0.0000 N   0  0  0  0  0  0  0  0  0  0  0  0
    1.8042    1.8375    0.0000 O   0  0  0  0  0  0  0  0  0  0  0  0
   -0.4083    1.5833    0.0000 C   0  0  0  0  0  0  0  0  0  0  0  0
   -0.4083    0.7583    0.0000 C   0  0  0  0  0  0  0  0  0  0  0  0
    1.8042    0.5042    0.0000 C   0  0  0  0  0  0  0  0  0  0  0  0
   -0.4083   -0.8917    0.0000 N   0  0  0  0  0  0  0  0  0  0  0  0
    1.0167   -3.3667    0.0000 C   0  0  0  0  0  0  0  0  0  0  0  0
    1.7333   -3.7792    0.0000 C   0  0  0  0  0  0  0  0  0  0  0  0
    1.0167   -0.8917    0.0000 O   0  0  0  0  0  0  0  0  0  0  0  0
   -0.4083   -1.7167    0.0000 C   0  0  0  0  0  0  0  0  0  0  0  0
   -1.1250    1.9958    0.0000 C   0  0  0  0  0  0  0  0  0  0  0  0
    0.3042   -2.9542    0.0000 C   0  0  0  0  0  0  0  0  0  0  0  0
    0.3042   -2.1292    0.0000 C   0  0  0  0  0  0  0  0  0  0  0  0
    2.0583   -0.2792    0.0000 C   0  0  0  0  0  0  0  0  0  0  0  0
   -1.1250   -2.9542    0.0000 C   0  0  0  0  0  0  0  0  0  0  0  0
   -1.1250   -2.1292    0.0000 C   0  0  0  0  0  0  0  0  0  0  0  0
   -1.1250    2.8208    0.0000 C   0  0  0  0  0  0  0  0  0  0  0  0
   -1.8375    1.5833    0.0000 C   0  0  0  0  0  0  0  0  0  0  0  0
   -0.4083   -3.3667    0.0000 C   0  0  0  0  0  0  0  0  0  0  0  0
   -2.5542    1.9958    0.0000 C   0  0  0  0  0  0  0  0  0  0  0  0
   -1.8375    3.2333    0.0000 C   0  0  0  0  0  0  0  0  0  0  0  0
   -2.5542    2.8208    0.0000 C   0  0  0  0  0  0  0  0  0  0  0  0
  2  1  2  0  0  0  0
  3  2  1  0  0  0  0
  4  1  1  0  0  0  0
  5  3  1  0  0  0  0
  6  7  1  0  0  0  0
  6 10  2  0  0  0  0
  7  1  1  0  0  0  0
  8  4  2  0  0  0  0
  9  3  2  0  0  0  0
  9  8  1  0  0  0  0
 10  2  1  0  0  0  0
 11  5  1  0  0  0  0
 12 17  1  0  0  0  0
 13 12  3  0  0  0  0
 14  5  2  0  0  0  0
 15 11  1  0  0  0  0
 16  8  1  0  0  0  0
 17 18  1  0  0  0  0
 18 15  2  0  0  0  0
 19 10  1  0  0  0  0
 20 21  2  0  0  0  0
 21 15  1  0  0  0  0
 22 16  1  0  0  0  0
 23 16  2  0  0  0  0
 24 17  2  0  0  0  0
 24 20  1  0  0  0  0
 25 23  1  0  0  0  0
 26 22  2  0  0  0  0
 27 25  2  0  0  0  0
 27 26  1  0  0  0  0
M  END
> <CdId>
3476

> <Mol Weight>
353.3734

> <Formula>
C22H15N3O2

> <Click_ID>
CLK045D10 __ __ 

$$$$
