CLK050H04
 OpenBabel03181417022D

 18 19  0  0  0  0  0  0  0  0999 V2000
    1.5042   -0.4333    0.0000 C   0  0  0  0  0  0  0  0  0  0  0  0
    0.7917   -0.0208    0.0000 N   0  0  0  0  0  0  0  0  0  0  0  0
   -2.0667   -0.0208    0.0000 C   0  0  0  0  0  0  0  0  0  0  0  0
    3.6500   -0.0208    0.0000 C   0  0  0  0  0  0  0  0  0  0  0  0
   -0.6375   -0.0208    0.0000 C   0  0  0  0  0  0  0  0  0  0  0  0
   -1.3542   -0.4333    0.0000 C   0  0  0  0  0  0  0  0  0  0  0  0
    4.3625    0.3917    0.0000 C   0  0  0  0  0  0  0  0  0  0  0  0
   -2.0667    0.8042    0.0000 C   0  0  0  0  0  0  0  0  0  0  0  0
   -2.8500   -0.2750    0.0000 O   0  0  0  0  0  0  0  0  0  0  0  0
    0.0750   -0.4333    0.0000 C   0  0  3  0  0  0  0  0  0  0  0  0
   -2.8500    1.0583    0.0000 O   0  0  0  0  0  0  0  0  0  0  0  0
   -3.3375    0.3917    0.0000 C   0  0  0  0  0  0  0  0  0  0  0  0
    1.5042   -1.2583    0.0000 O   0  0  0  0  0  0  0  0  0  0  0  0
   -0.6375    0.8042    0.0000 C   0  0  0  0  0  0  0  0  0  0  0  0
   -1.3542    1.2167    0.0000 C   0  0  0  0  0  0  0  0  0  0  0  0
    2.2208   -0.0208    0.0000 N   0  0  0  0  0  0  0  0  0  0  0  0
    2.9333   -0.4333    0.0000 C   0  0  0  0  0  0  0  0  0  0  0  0
    0.0750   -1.2583    0.0000 C   0  0  0  0  0  0  0  0  0  0  0  0
  2  1  1  0  0  0  0
  3  6  1  0  0  0  0
  4 17  1  0  0  0  0
  5 10  1  0  0  0  0
  6  5  2  0  0  0  0
  7  4  3  0  0  0  0
  8  3  2  0  0  0  0
  8 15  1  0  0  0  0
  9  3  1  0  0  0  0
 10  2  1  0  0  0  0
 11  8  1  0  0  0  0
 12  9  1  0  0  0  0
 12 11  1  0  0  0  0
 13  1  2  0  0  0  0
 14  5  1  0  0  0  0
 15 14  2  0  0  0  0
 16  1  1  0  0  0  0
 17 16  1  0  0  0  0
 18 10  1  0  0  0  0
M  END
> <CdId>
3832

> <Mol Weight>
246.2619

> <Formula>
C13H14N2O3

> <Click_ID>
CLK050H04 __ __ 

$$$$
