CLK036_D03
 OpenBabel03181417022D

 27 29  0  0  0  0  0  0  0  0999 V2000
    2.1461   -1.7704    0.0000 C   0  0  0  0  0  0  0  0  0  0  0  0
    1.4322   -2.1962    0.0000 N   0  0  0  0  0  0  0  0  0  0  0  0
    2.2296   -0.9437    0.0000 N   0  0  0  0  0  0  0  0  0  0  0  0
    2.8935   -2.1044    0.0000 S   0  0  0  0  0  0  0  0  0  0  0  0
    1.4447   -3.0230    0.0000 C   0  0  0  0  0  0  0  0  0  0  0  0
    5.5239   -0.7683    0.0000 S   0  0  0  0  0  0  0  0  0  0  0  0
    3.4488   -1.4823    0.0000 C   0  0  0  0  0  0  0  0  0  0  0  0
    3.0355   -0.7683    0.0000 C   0  0  0  0  0  0  0  0  0  0  0  0
    0.7390   -3.4446    0.0000 C   0  0  0  0  0  0  0  0  0  0  0  0
    4.6972   -0.7683    0.0000 C   0  0  0  0  0  0  0  0  0  0  0  0
    4.2839   -1.4823    0.0000 C   0  0  0  0  0  0  0  0  0  0  0  0
    0.8267   -0.6556    0.0000 C   0  0  0  0  0  0  0  0  0  0  0  0
    3.4488   -0.0543    0.0000 C   0  0  0  0  0  0  0  0  0  0  0  0
    0.0376   -0.9144    0.0000 C   0  0  0  0  0  0  0  0  0  0  0  0
    5.5239    0.0584    0.0000 O   0  0  0  0  0  0  0  0  0  0  0  0
    6.3506   -0.7683    0.0000 O   0  0  0  0  0  0  0  0  0  0  0  0
    0.7432   -4.2755    0.0000 C   0  0  0  0  0  0  0  0  0  0  0  0
    2.1712   -3.4238    0.0000 O   0  0  0  0  0  0  0  0  0  0  0  0
    4.2839   -0.0543    0.0000 C   0  0  0  0  0  0  0  0  0  0  0  0
    1.6075   -0.3925    0.0000 C   0  0  0  0  0  0  0  0  0  0  0  0
    1.4697   -4.6972    0.0000 S   0  0  0  0  0  0  0  0  0  0  0  0
    5.5239   -1.5950    0.0000 C   0  0  0  0  0  0  0  0  0  0  0  0
    0.0251   -3.0313    0.0000 C   0  0  0  0  0  0  0  0  0  0  0  0
    0.0293   -4.6889    0.0000 C   0  0  0  0  0  0  0  0  0  0  0  0
    2.1920   -4.2839    0.0000 C   0  0  0  0  0  0  0  0  0  0  0  0
   -0.6972   -3.4446    0.0000 C   0  0  0  0  0  0  0  0  0  0  0  0
   -0.6847   -4.2755    0.0000 C   0  0  0  0  0  0  0  0  0  0  0  0
  2  1  2  0  0  0  0
  3  1  1  0  0  0  0
  4  1  1  0  0  0  0
  5  2  1  0  0  0  0
  6 10  1  0  0  0  0
  7  4  1  0  0  0  0
  8  3  1  0  0  0  0
  8  7  2  0  0  0  0
  9  5  1  0  0  0  0
 10 11  2  0  0  0  0
 11  7  1  0  0  0  0
 12 20  1  0  0  0  0
 13  8  1  0  0  0  0
 14 12  3  0  0  0  0
 15  6  2  0  0  0  0
 16  6  2  0  0  0  0
 17  9  1  0  0  0  0
 18  5  2  0  0  0  0
 19 13  2  0  0  0  0
 19 10  1  0  0  0  0
 20  3  1  0  0  0  0
 21 17  1  0  0  0  0
 22  6  1  0  0  0  0
 23  9  2  0  0  0  0
 24 17  2  0  0  0  0
 24 27  1  0  0  0  0
 25 21  1  0  0  0  0
 26 23  1  0  0  0  0
 27 26  2  0  0  0  0
M  END
> <CdId>
2745

> <Mol Weight>
416.537

> <Formula>
C19H16N2O3S3

> <Click_ID>
CLK036_D03 __ __ 

$$$$
