CLK027_D07
 OpenBabel03181417022D

 25 27  0  0  0  0  0  0  0  0999 V2000
   -1.3475   -2.0831    0.0000 C   0  0  0  0  0  0  0  0  0  0  0  0
   -1.8288   -2.7569    0.0000 N   0  0  0  0  0  0  0  0  0  0  0  0
   -1.8288   -1.4197    0.0000 S   0  0  0  0  0  0  0  0  0  0  0  0
    1.9559    0.7769    0.0000 C   0  0  0  0  0  0  0  0  0  0  0  0
    1.1309    0.7769    0.0000 C   0  0  0  0  0  0  0  0  0  0  0  0
    2.3650    0.0550    0.0000 C   0  0  0  0  0  0  0  0  0  0  0  0
   -2.6159   -2.5025    0.0000 C   0  0  0  0  0  0  0  0  0  0  0  0
   -2.6159   -1.6775    0.0000 C   0  0  0  0  0  0  0  0  0  0  0  0
    3.6162    2.1966    0.0000 C   0  0  0  0  0  0  0  0  0  0  0  0
    4.0357    2.9184    0.0000 C   0  0  0  0  0  0  0  0  0  0  0  0
   -0.1100   -1.3681    0.0000 N   0  0  0  0  0  0  0  0  0  0  0  0
   -0.5225   -2.0831    0.0000 N   0  0  0  0  0  0  0  0  0  0  0  0
    0.7184    0.0550    0.0000 C   0  0  0  0  0  0  0  0  0  0  0  0
    1.9559   -0.6565    0.0000 C   0  0  0  0  0  0  0  0  0  0  0  0
    1.1309   -0.6565    0.0000 C   0  0  0  0  0  0  0  0  0  0  0  0
    0.7184   -1.3681    0.0000 C   0  0  0  0  0  0  0  0  0  0  0  0
    0.7047    1.4850    0.0000 I   0  0  0  0  0  0  0  0  0  0  0  0
    2.3787    1.4850    0.0000 O   0  0  0  0  0  0  0  0  0  0  0  0
    3.1900    0.0550    0.0000 O   0  0  0  0  0  0  0  0  0  0  0  0
    3.2037    1.4850    0.0000 C   0  0  0  0  0  0  0  0  0  0  0  0
   -3.3275   -2.9150    0.0000 C   0  0  0  0  0  0  0  0  0  0  0  0
   -3.3275   -1.2650    0.0000 C   0  0  0  0  0  0  0  0  0  0  0  0
    3.6025    0.7666    0.0000 C   0  0  0  0  0  0  0  0  0  0  0  0
   -4.0390   -1.6775    0.0000 C   0  0  0  0  0  0  0  0  0  0  0  0
   -4.0390   -2.5025    0.0000 C   0  0  0  0  0  0  0  0  0  0  0  0
  2  1  2  0  0  0  0
  3  1  1  0  0  0  0
  4  6  1  0  0  0  0
  4  5  2  0  0  0  0
  5 13  1  0  0  0  0
  6 14  2  0  0  0  0
  7  2  1  0  0  0  0
  7  8  2  0  0  0  0
  8  3  1  0  0  0  0
  9 20  1  0  0  0  0
 10  9  3  0  0  0  0
 11 12  1  0  0  0  0
 12  1  1  0  0  0  0
 13 15  2  0  0  0  0
 14 15  1  0  0  0  0
 15 16  1  0  0  0  0
 16 11  2  0  0  0  0
 17  5  1  0  0  0  0
 18  4  1  0  0  0  0
 19  6  1  0  0  0  0
 20 18  1  0  0  0  0
 21  7  1  0  0  0  0
 22  8  1  0  0  0  0
 23 19  1  0  0  0  0
 24 22  2  0  0  0  0
 25 21  2  0  0  0  0
 25 24  1  0  0  0  0
M  END
> <CdId>
2049

> <Mol Weight>
463.292

> <Formula>
C18H14IN3O2S

> <Click_ID>
CLK027_D07 __ __ 

$$$$
