CLK026_B09
 OpenBabel03181417022D

 29 31  0  0  0  0  0  0  0  0999 V2000
   -3.4177   -0.2929    0.0000 N    0  0  0  0  0  0  0  0  0  0  0  0
   -3.8518   -1.0060    0.0000 C    0  0  0  0  0  0  0  0  0  0  0  0
   -2.6046   -0.4893    0.0000 C    0  0  0  0  0  0  0  0  0  0  0  0
   -2.5391   -1.3161    0.0000 C    0  0  0  0  0  0  0  0  0  0  0  0
   -3.3109   -1.6399    0.0000 S    0  0  0  0  0  0  0  0  0  0  0  0
    0.3376   -0.5547    0.0000 C    0  0  0  0  0  0  0  0  0  0  0  0
   -1.8329   -1.7606    0.0000 C    0  0  0  0  0  0  0  0  0  0  0  0
    0.3169   -1.3781    0.0000 C    0  0  0  0  0  0  0  0  0  0  0  0
   -0.3686   -0.1378    0.0000 C    0  0  0  0  0  0  0  0  0  0  0  0
   -1.1094   -1.3540    0.0000 C    0  0  0  0  0  0  0  0  0  0  0  0
    1.0715   -0.1688    0.0000 O    0  0  0  0  0  0  0  0  0  0  0  0
   -3.2282    1.1266    0.0000 C    0  0  0  0  0  0  0  0  0  0  0  0
   -2.7631    1.8260    0.0000 C    0  0  0  0  0  0  0  0  0  0  0  0
   -4.6856   -1.0681    0.0000 O    0  0  0  0  0  0  0  0  0  0  0  0
   -0.4066   -1.7778    0.0000 C    0  0  0  0  0  0  0  0  0  0  0  0
   -1.9776    0.0552    0.0000 O    0  0  0  0  0  0  0  0  0  0  0  0
   -1.0921   -0.5168    0.0000 C    0  0  0  0  0  0  0  0  0  0  0  0
   -3.7381    0.4686    0.0000 C    0  0  0  0  0  0  0  0  0  0  0  0
    1.0129   -1.8226    0.0000 Cl   0  0  0  0  0  0  0  0  0  0  0  0
    1.7709   -0.6063    0.0000 C    0  0  0  0  0  0  0  0  0  0  0  0
   -0.3307    0.6925    0.0000 O    0  0  0  0  0  0  0  0  0  0  0  0
    3.9518    0.5581    0.0000 C    0  0  0  0  0  0  0  0  0  0  0  0
    2.4978   -0.2171    0.0000 C    0  0  0  0  0  0  0  0  0  0  0  0
    4.6821    0.9302    0.0000 Cl   0  0  0  0  0  0  0  0  0  0  0  0
    3.9173   -0.2687    0.0000 C    0  0  0  0  0  0  0  0  0  0  0  0
    3.2454    0.9784    0.0000 C    0  0  0  0  0  0  0  0  0  0  0  0
    2.5219    0.5960    0.0000 C    0  0  0  0  0  0  0  0  0  0  0  0
    3.1972   -0.6512    0.0000 C    0  0  0  0  0  0  0  0  0  0  0  0
   -1.0336    1.1163    0.0000 C    0  0  0  0  0  0  0  0  0  0  0  0
  2  1  1  0  0  0  0
  3  1  1  0  0  0  0
  4  3  1  0  0  0  0
  5  2  1  0  0  0  0
  5  4  1  0  0  0  0
  6  9  2  0  0  0  0
  7  4  2  0  0  0  0
  8 15  2  0  0  0  0
  8  6  1  0  0  0  0
  9 17  1  0  0  0  0
 10  7  1  0  0  0  0
 11  6  1  0  0  0  0
 12 18  1  0  0  0  0
 13 12  3  0  0  0  0
 14  2  2  0  0  0  0
 15 10  1  0  0  0  0
 16  3  2  0  0  0  0
 17 10  2  0  0  0  0
 18  1  1  0  0  0  0
 19  8  1  0  0  0  0
 20 11  1  0  0  0  0
 21  9  1  0  0  0  0
 22 25  2  0  0  0  0
 22 26  1  0  0  0  0
 23 20  1  0  0  0  0
 24 22  1  0  0  0  0
 25 28  1  0  0  0  0
 26 27  2  0  0  0  0
 27 23  1  0  0  0  0
 28 23  2  0  0  0  0
 29 21  1  0  0  0  0
M  END
> <CdId>
1954

> <Mol Weight>
448.319

> <Formula>
C21H15Cl2NO4S

> <Click_ID>
CLK026_B09 __ __ 

$$$$
