CLK046F03
 OpenBabel03181417022D

 29 32  0  0  0  0  0  0  0  0999 V2000
   -1.6241    1.0994    0.0000 C   0  0  0  0  0  0  0  0  0  0  0  0
   -1.1369    1.7657    0.0000 C   0  0  0  0  0  0  0  0  0  0  0  0
   -0.4664    0.2624    0.0000 N   0  0  0  0  0  0  0  0  0  0  0  0
    0.0167    0.9287    0.0000 C   0  0  0  0  0  0  0  0  0  0  0  0
   -0.3206    1.6824    0.0000 N   0  0  0  0  0  0  0  0  0  0  0  0
   -1.2868    0.3456    0.0000 C   0  0  0  0  0  0  0  0  0  0  0  0
   -1.6241    2.4362    0.0000 S   0  0  0  0  0  0  0  0  0  0  0  0
   -2.4070    1.3535    0.0000 C   0  0  0  0  0  0  0  0  0  0  0  0
   -2.4070    2.1780    0.0000 C   0  0  0  0  0  0  0  0  0  0  0  0
    0.8370    0.8412    0.0000 S   0  0  0  0  0  0  0  0  0  0  0  0
   -0.1332   -0.4914    0.0000 C   0  0  0  0  0  0  0  0  0  0  0  0
    3.4814   -1.5908    0.0000 C   0  0  0  0  0  0  0  0  0  0  0  0
    3.8187   -2.3445    0.0000 C   0  0  0  0  0  0  0  0  0  0  0  0
   -1.7740   -0.3206    0.0000 O   0  0  0  0  0  0  0  0  0  0  0  0
    1.9906    0.0042    0.0000 C   0  0  0  0  0  0  0  0  0  0  0  0
    2.4778    0.6704    0.0000 O   0  0  0  0  0  0  0  0  0  0  0  0
    1.1702    0.0875    0.0000 C   0  0  0  0  0  0  0  0  0  0  0  0
    0.6871   -0.5789    0.0000 C   0  0  0  0  0  0  0  0  0  0  0  0
   -0.6164   -1.1577    0.0000 C   0  0  0  0  0  0  0  0  0  0  0  0
    2.3279   -0.7496    0.0000 N   0  0  0  0  0  0  0  0  0  0  0  0
   -3.1941    1.0994    0.0000 C   0  0  0  0  0  0  0  0  0  0  0  0
    0.5372   -1.9989    0.0000 C   0  0  0  0  0  0  0  0  0  0  0  0
   -3.1941    2.4362    0.0000 C   0  0  0  0  0  0  0  0  0  0  0  0
   -0.2831   -1.9115    0.0000 C   0  0  0  0  0  0  0  0  0  0  0  0
    1.0244   -1.3326    0.0000 C   0  0  0  0  0  0  0  0  0  0  0  0
    3.1483   -0.8370    0.0000 C   0  0  0  0  0  0  0  0  0  0  0  0
    0.8745   -2.7527    0.0000 O   0  0  0  0  0  0  0  0  0  0  0  0
   -3.6772    1.7657    0.0000 C   0  0  0  0  0  0  0  0  0  0  0  0
    1.6949   -2.8401    0.0000 C   0  0  0  0  0  0  0  0  0  0  0  0
  2  1  2  0  0  0  0
  3  6  1  0  0  0  0
  4  3  1  0  0  0  0
  5  2  1  0  0  0  0
  5  4  2  0  0  0  0
  6  1  1  0  0  0  0
  7  2  1  0  0  0  0
  8  1  1  0  0  0  0
  9  8  2  0  0  0  0
  9  7  1  0  0  0  0
 10  4  1  0  0  0  0
 11  3  1  0  0  0  0
 12 26  1  0  0  0  0
 13 12  3  0  0  0  0
 14  6  2  0  0  0  0
 15 17  1  0  0  0  0
 16 15  2  0  0  0  0
 17 10  1  0  0  0  0
 18 11  1  0  0  0  0
 19 11  2  0  0  0  0
 20 15  1  0  0  0  0
 21  8  1  0  0  0  0
 22 24  2  0  0  0  0
 23  9  1  0  0  0  0
 24 19  1  0  0  0  0
 25 18  2  0  0  0  0
 25 22  1  0  0  0  0
 26 20  1  0  0  0  0
 27 22  1  0  0  0  0
 28 21  1  0  0  0  0
 28 23  1  0  0  0  0
 29 27  1  0  0  0  0
M  END
> <CdId>
3502

> <Mol Weight>
425.524

> <Formula>
C21H19N3O3S2

> <Click_ID>
CLK046F03 __ __ 

$$$$
