CLK052G03
 OpenBabel03181417022D

 22 22  0  0  0  0  0  0  0  0999 V2000
    0.2250   -1.5542    0.0000 C    0  0  0  0  0  0  0  0  0  0  0  0
   -0.4875   -1.1417    0.0000 C    0  0  0  0  0  0  0  0  0  0  0  0
   -0.4875    1.3333    0.0000 C    0  0  0  0  0  0  0  0  0  0  0  0
    0.2250   -2.3792    0.0000 C    0  0  0  0  0  0  0  0  0  0  0  0
    0.2250    0.9208    0.0000 C    0  0  0  0  0  0  0  0  0  0  0  0
    0.9417   -1.1417    0.0000 C    0  0  0  0  0  0  0  0  0  0  0  0
   -1.2042    0.9208    0.0000 C    0  0  0  0  0  0  0  0  0  0  0  0
   -0.4875   -0.3167    0.0000 C    0  0  0  0  0  0  0  0  0  0  0  0
    1.6542   -0.7292    0.0000 N    0  0  0  0  0  0  0  0  0  0  0  0
    0.2250    3.3958    0.0000 C    0  0  0  0  0  0  0  0  0  0  0  0
    0.2250    4.2167    0.0000 C    0  0  0  0  0  0  0  0  0  0  0  0
    0.2250    0.0958    0.0000 C    0  0  0  0  0  0  0  0  0  0  0  0
   -1.2042    0.0958    0.0000 C    0  0  0  0  0  0  0  0  0  0  0  0
   -0.4875   -2.7917    0.0000 O    0  0  0  0  0  0  0  0  0  0  0  0
    0.9417    1.3333    0.0000 Cl   0  0  0  0  0  0  0  0  0  0  0  0
   -0.4875    2.1583    0.0000 O    0  0  0  0  0  0  0  0  0  0  0  0
    0.9417   -2.7917    0.0000 O    0  0  0  0  0  0  0  0  0  0  0  0
   -1.9167    1.3333    0.0000 O    0  0  0  0  0  0  0  0  0  0  0  0
    0.2250    2.5708    0.0000 C    0  0  0  0  0  0  0  0  0  0  0  0
    0.9417   -3.6167    0.0000 C    0  0  0  0  0  0  0  0  0  0  0  0
   -1.9167    2.1583    0.0000 C    0  0  0  0  0  0  0  0  0  0  0  0
    1.6542   -4.0292    0.0000 C    0  0  0  0  0  0  0  0  0  0  0  0
  2  1  2  0  0  0  0
  3  7  2  0  0  0  0
  3  5  1  0  0  0  0
  4  1  1  0  0  0  0
  5 12  2  0  0  0  0
  6  1  1  0  0  0  0
  7 13  1  0  0  0  0
  8  2  1  0  0  0  0
  9  6  3  0  0  0  0
 10 19  1  0  0  0  0
 11 10  3  0  0  0  0
 12  8  1  0  0  0  0
 13  8  2  0  0  0  0
 14  4  2  0  0  0  0
 15  5  1  0  0  0  0
 16  3  1  0  0  0  0
 17  4  1  0  0  0  0
 18  7  1  0  0  0  0
 19 16  1  0  0  0  0
 20 17  1  0  0  0  0
 21 18  1  0  0  0  0
 22 20  1  0  0  0  0
M  END
> <CdId>
3983

> <Mol Weight>
319.74

> <Formula>
C16H14ClNO4

> <Click_ID>
CLK052G03 __ __ 

$$$$
