CLK017_A06
 OpenBabel03181417022D

 35 37  0  0  0  0  0  0  0  0999 V2000
    2.8832   -1.5768    0.0000 N   0  0  0  0  0  0  0  0  0  0  0  0
    3.1328   -2.3632    0.0000 C   0  0  0  0  0  0  0  0  0  0  0  0
    3.5447   -1.0901    0.0000 C   0  0  0  0  0  0  0  0  0  0  0  0
    4.2104   -1.5768    0.0000 C   0  0  0  0  0  0  0  0  0  0  0  0
    3.9566   -2.3632    0.0000 N   0  0  0  0  0  0  0  0  0  0  0  0
    4.9967   -1.3230    0.0000 C   0  0  0  0  0  0  0  0  0  0  0  0
    2.1011   -1.3230    0.0000 C   0  0  0  0  0  0  0  0  0  0  0  0
    1.4853   -1.8764    0.0000 C   0  0  0  0  0  0  0  0  0  0  0  0
    5.1715   -0.5159    0.0000 C   0  0  0  0  0  0  0  0  0  0  0  0
    4.7346    0.8487    0.0000 C   0  0  0  0  0  0  0  0  0  0  0  0
    5.5210    1.0984    0.0000 C   0  0  0  0  0  0  0  0  0  0  0  0
    6.1326    0.5450    0.0000 C   0  0  0  0  0  0  0  0  0  0  0  0
    6.6817    2.9581    0.0000 C   0  0  0  0  0  0  0  0  0  0  0  0
    6.8565    3.7694    0.0000 C   0  0  0  0  0  0  0  0  0  0  0  0
    2.6502   -3.0247    0.0000 O   0  0  0  0  0  0  0  0  0  0  0  0
    0.7032   -1.6226    0.0000 N   0  0  0  0  0  0  0  0  0  0  0  0
    3.5447   -0.2663    0.0000 O   0  0  0  0  0  0  0  0  0  0  0  0
    4.5599    0.0457    0.0000 C   0  0  0  0  0  0  0  0  0  0  0  0
    5.9578   -0.2663    0.0000 C   0  0  0  0  0  0  0  0  0  0  0  0
    1.6600   -2.6752    0.0000 O   0  0  0  0  0  0  0  0  0  0  0  0
    7.5305    0.2496    0.0000 C   0  0  0  0  0  0  0  0  0  0  0  0
    8.3126    0.5075    0.0000 C   0  0  0  0  0  0  0  0  0  0  0  0
    0.5284   -0.8155    0.0000 C   0  0  0  0  0  0  0  0  0  0  0  0
    4.1355    1.4062    0.0000 O   0  0  0  0  0  0  0  0  0  0  0  0
    5.7082    1.9055    0.0000 O   0  0  0  0  0  0  0  0  0  0  0  0
    6.9147    0.8071    0.0000 C   0  0  0  0  0  0  0  0  0  0  0  0
    0.1914    0.7946    0.0000 C   0  0  0  0  0  0  0  0  0  0  0  0
    1.1483   -0.2663    0.0000 C   0  0  0  0  0  0  0  0  0  0  0  0
   -0.2496   -0.5617    0.0000 C   0  0  0  0  0  0  0  0  0  0  0  0
    0.9777    0.5367    0.0000 C   0  0  0  0  0  0  0  0  0  0  0  0
   -0.4202    0.2454    0.0000 C   0  0  0  0  0  0  0  0  0  0  0  0
    6.4945    2.1551    0.0000 C   0  0  0  0  0  0  0  0  0  0  0  0
    3.3575    1.1566    0.0000 C   0  0  0  0  0  0  0  0  0  0  0  0
    0.0292    1.6059    0.0000 C   0  0  0  0  0  0  0  0  0  0  0  0
    2.7501    1.7182    0.0000 C   0  0  0  0  0  0  0  0  0  0  0  0
  2  1  1  0  0  0  0
  3  1  1  0  0  0  0
  4  3  1  0  0  0  0
  4  5  1  0  0  0  0
  5  2  1  0  0  0  0
  6  4  2  0  0  0  0
  7  1  1  0  0  0  0
  8  7  1  0  0  0  0
  9  6  1  0  0  0  0
 10 18  1  0  0  0  0
 11 12  1  0  0  0  0
 11 10  2  0  0  0  0
 12 19  2  0  0  0  0
 13 32  1  0  0  0  0
 14 13  3  0  0  0  0
 15  2  2  0  0  0  0
 16  8  1  0  0  0  0
 17  3  2  0  0  0  0
 18  9  2  0  0  0  0
 19  9  1  0  0  0  0
 20  8  2  0  0  0  0
 21 26  1  0  0  0  0
 22 21  2  0  0  0  0
 23 16  1  0  0  0  0
 24 10  1  0  0  0  0
 25 11  1  0  0  0  0
 26 12  1  0  0  0  0
 27 31  1  0  0  0  0
 27 30  2  0  0  0  0
 28 23  2  0  0  0  0
 29 23  1  0  0  0  0
 30 28  1  0  0  0  0
 31 29  2  0  0  0  0
 32 25  1  0  0  0  0
 33 24  1  0  0  0  0
 34 27  1  0  0  0  0
 35 33  1  0  0  0  0
M  END
> <CdId>
1241

> <Mol Weight>
473.5204

> <Formula>
C27H27N3O5

> <Click_ID>
CLK017_A06 __ __ 

$$$$
