CLK027_A10
 OpenBabel03181417022D

 22 24  0  0  0  0  0  0  0  0999 V2000
   -1.2218   -0.1239    0.0000 N   0  0  0  0  0  0  0  0  0  0  0  0
   -1.8103   -0.7056    0.0000 C   0  0  0  0  0  0  0  0  0  0  0  0
   -0.4956   -0.5059    0.0000 C   0  0  0  0  0  0  0  0  0  0  0  0
   -1.4386   -1.4420    0.0000 N   0  0  0  0  0  0  0  0  0  0  0  0
   -0.6195   -1.3181    0.0000 O   0  0  0  0  0  0  0  0  0  0  0  0
   -2.6157   -0.5300    0.0000 C   0  0  0  0  0  0  0  0  0  0  0  0
    3.8030    1.1632    0.0000 C   0  0  0  0  0  0  0  0  0  0  0  0
    4.5188    1.5832    0.0000 C   0  0  0  0  0  0  0  0  0  0  0  0
    0.2168   -0.0929    0.0000 C   0  0  0  0  0  0  0  0  0  0  0  0
   -3.1732   -1.1392    0.0000 C   0  0  0  0  0  0  0  0  0  0  0  0
    0.9292   -0.5059    0.0000 C   0  0  0  0  0  0  0  0  0  0  0  0
    0.2168    0.7434    0.0000 C   0  0  0  0  0  0  0  0  0  0  0  0
    1.6416    0.7434    0.0000 C   0  0  0  0  0  0  0  0  0  0  0  0
   -3.9716   -0.9637    0.0000 C   0  0  0  0  0  0  0  0  0  0  0  0
    0.9292    1.1495    0.0000 C   0  0  0  0  0  0  0  0  0  0  0  0
    1.6416   -0.0929    0.0000 C   0  0  0  0  0  0  0  0  0  0  0  0
    3.0906    0.7469    0.0000 C   0  0  0  0  0  0  0  0  0  0  0  0
    2.3679    1.1599    0.0000 O   0  0  0  0  0  0  0  0  0  0  0  0
   -2.8738    0.2581    0.0000 C   0  0  0  0  0  0  0  0  0  0  0  0
   -3.6722    0.4336    0.0000 C   0  0  0  0  0  0  0  0  0  0  0  0
   -4.2263   -0.1790    0.0000 C   0  0  0  0  0  0  0  0  0  0  0  0
   -4.5223   -1.5797    0.0000 C   0  0  0  0  0  0  0  0  0  0  0  0
  2  1  1  0  0  0  0
  3  1  2  0  0  0  0
  4  2  2  0  0  0  0
  4  5  1  0  0  0  0
  5  3  1  0  0  0  0
  6  2  1  0  0  0  0
  7 17  1  0  0  0  0
  8  7  3  0  0  0  0
  9  3  1  0  0  0  0
 10  6  1  0  0  0  0
 11  9  2  0  0  0  0
 12  9  1  0  0  0  0
 13 15  1  0  0  0  0
 14 10  2  0  0  0  0
 14 21  1  0  0  0  0
 15 12  2  0  0  0  0
 16 11  1  0  0  0  0
 16 13  2  0  0  0  0
 17 18  1  0  0  0  0
 18 13  1  0  0  0  0
 19  6  2  0  0  0  0
 20 19  1  0  0  0  0
 21 20  2  0  0  0  0
 22 14  1  0  0  0  0
M  END
> <CdId>
2025

> <Mol Weight>
290.316

> <Formula>
C18H14N2O2

> <Click_ID>
CLK027_A10 __ __ 

$$$$
