CLK010_F08
 OpenBabel03181417022D

 20 22  0  0  0  0  0  0  0  0999 V2000
    1.7823    3.9137    0.0000 C   0  0  0  0  0  0  0  0  0  0  0  0
    0.9796    3.7233    0.0000 C   0  0  0  0  0  0  0  0  0  0  0  0
    0.7393    2.9342    0.0000 N   0  0  0  0  0  0  0  0  0  0  0  0
    2.3447    3.3197    0.0000 C   0  0  0  0  0  0  0  0  0  0  0  0
    2.1270    2.5396    0.0000 N   0  0  0  0  0  0  0  0  0  0  0  0
    1.3243    2.3083    0.0000 C   0  0  0  0  0  0  0  0  0  0  0  0
    0.5442    4.4263    0.0000 S   0  0  0  0  0  0  0  0  0  0  0  0
    1.8277    4.7210    0.0000 C   0  0  0  0  0  0  0  0  0  0  0  0
    1.0386    5.0113    0.0000 C   0  0  0  0  0  0  0  0  0  0  0  0
    1.5238    0.1224    0.0000 C   0  0  0  0  0  0  0  0  0  0  0  0
    1.3243   -0.6939    0.0000 C   0  0  0  0  0  0  0  0  0  0  0  0
    3.1972    3.4920    0.0000 O   0  0  0  0  0  0  0  0  0  0  0  0
    1.1292    1.4920    0.0000 S   0  0  0  0  0  0  0  0  0  0  0  0
    2.7211    1.9546    0.0000 C   0  0  0  0  0  0  0  0  0  0  0  0
    2.5034    1.1655    0.0000 C   0  0  0  0  0  0  0  0  0  0  0  0
    3.1066    0.5805    0.0000 C   0  0  0  0  0  0  0  0  0  0  0  0
    2.3175    5.3741    0.0000 C   0  0  0  0  0  0  0  0  0  0  0  0
    1.0658    5.8276    0.0000 C   0  0  0  0  0  0  0  0  0  0  0  0
    1.7188    0.9388    0.0000 C   0  0  0  0  0  0  0  0  0  0  0  0
    1.8503    6.0589    0.0000 C   0  0  0  0  0  0  0  0  0  0  0  0
  2  1  2  0  0  0  0
  3  2  1  0  0  0  0
  3  6  2  0  0  0  0
  4  1  1  0  0  0  0
  5  4  1  0  0  0  0
  6  5  1  0  0  0  0
  7  2  1  0  0  0  0
  7  9  1  0  0  0  0
  8  1  1  0  0  0  0
  9  8  2  0  0  0  0
 10 19  1  0  0  0  0
 11 10  3  0  0  0  0
 12  4  2  0  0  0  0
 13  6  1  0  0  0  0
 14  5  1  0  0  0  0
 15 14  1  0  0  0  0
 16 15  2  0  0  0  0
 17  8  1  0  0  0  0
 18  9  1  0  0  0  0
 19 13  1  0  0  0  0
 20 17  1  0  0  0  0
 20 18  1  0  0  0  0
M  END
> <CdId>
733

> <Mol Weight>
302.414

> <Formula>
C15H14N2OS2

> <Click_ID>
CLK010_F08 __ __ 

$$$$
