CLK043G11
 OpenBabel03181417022D

 29 32  0  0  0  0  0  0  0  0999 V2000
    3.2167   -0.9583    0.0000 S   0  0  0  0  0  0  0  0  0  0  0  0
   -2.5000    0.6917    0.0000 C   0  0  0  0  0  0  0  0  0  0  0  0
    0.3583    0.6917    0.0000 C   0  0  0  0  0  0  0  0  0  0  0  0
   -3.2875    0.4333    0.0000 C   0  0  0  0  0  0  0  0  0  0  0  0
   -2.5000    1.5167    0.0000 C   0  0  0  0  0  0  0  0  0  0  0  0
   -3.7708    1.1042    0.0000 C   0  0  0  0  0  0  0  0  0  0  0  0
   -0.3583    0.2792    0.0000 N   0  0  0  0  0  0  0  0  0  0  0  0
    2.5000   -0.5458    0.0000 C   0  0  0  0  0  0  0  0  0  0  0  0
   -3.2875    1.7708    0.0000 C   0  0  0  0  0  0  0  0  0  0  0  0
    4.6458   -2.6083    0.0000 C   0  0  0  0  0  0  0  0  0  0  0  0
    5.3583   -3.0208    0.0000 C   0  0  0  0  0  0  0  0  0  0  0  0
    3.6292   -0.2458    0.0000 O   0  0  0  0  0  0  0  0  0  0  0  0
    2.8042   -1.6750    0.0000 O   0  0  0  0  0  0  0  0  0  0  0  0
    1.0708    0.2792    0.0000 C   0  0  0  0  0  0  0  0  0  0  0  0
   -1.7875    0.2792    0.0000 C   0  0  0  0  0  0  0  0  0  0  0  0
    3.9292   -1.3708    0.0000 N   0  0  0  0  0  0  0  0  0  0  0  0
   -1.0708    0.6917    0.0000 C   0  0  0  0  0  0  0  0  0  0  0  0
    0.3583    1.5167    0.0000 O   0  0  0  0  0  0  0  0  0  0  0  0
   -1.7875    1.9292    0.0000 C   0  0  0  0  0  0  0  0  0  0  0  0
    1.7875   -0.9583    0.0000 C   0  0  0  0  0  0  0  0  0  0  0  0
    2.5000    0.2792    0.0000 C   0  0  0  0  0  0  0  0  0  0  0  0
    1.0708   -0.5458    0.0000 C   0  0  0  0  0  0  0  0  0  0  0  0
    1.7875    0.6917    0.0000 C   0  0  0  0  0  0  0  0  0  0  0  0
   -1.0708    1.5167    0.0000 C   0  0  0  0  0  0  0  0  0  0  0  0
    3.9292   -2.1958    0.0000 C   0  0  0  0  0  0  0  0  0  0  0  0
   -3.6208   -0.3208    0.0000 C   0  0  0  0  0  0  0  0  0  0  0  0
   -4.5917    1.0167    0.0000 C   0  0  0  0  0  0  0  0  0  0  0  0
   -4.4417   -0.4042    0.0000 C   0  0  0  0  0  0  0  0  0  0  0  0
   -4.9250    0.2625    0.0000 C   0  0  0  0  0  0  0  0  0  0  0  0
  2 15  1  0  0  0  0
  3 14  1  0  0  0  0
  4  2  1  0  0  0  0
  5  2  2  0  0  0  0
  5 19  1  0  0  0  0
  6  4  2  0  0  0  0
  6  9  1  0  0  0  0
  7  3  1  0  0  0  0
  8  1  1  0  0  0  0
  9  5  1  0  0  0  0
 10 25  1  0  0  0  0
 11 10  3  0  0  0  0
 12  1  2  0  0  0  0
 13  1  2  0  0  0  0
 14 23  2  0  0  0  0
 15 17  2  0  0  0  0
 16  1  1  0  0  0  0
 17  7  1  0  0  0  0
 18  3  2  0  0  0  0
 19 24  2  0  0  0  0
 20  8  1  0  0  0  0
 21  8  2  0  0  0  0
 22 20  2  0  0  0  0
 22 14  1  0  0  0  0
 23 21  1  0  0  0  0
 24 17  1  0  0  0  0
 25 16  1  0  0  0  0
 26  4  1  0  0  0  0
 27  6  1  0  0  0  0
 28 26  2  0  0  0  0
 28 29  1  0  0  0  0
 29 27  2  0  0  0  0
M  END
> <CdId>
3327

> <Mol Weight>
402.466

> <Formula>
C23H18N2O3S

> <Click_ID>
CLK043G11 __ __ 

$$$$
