CLK048F07
 OpenBabel03181417022D

 21 22  0  0  0  0  0  0  0  0999 V2000
    0.9250    0.5667    0.0000 C   0  0  0  0  0  0  0  0  0  0  0  0
   -1.2167    0.9792    0.0000 C   0  0  0  0  0  0  0  0  0  0  0  0
   -0.5042    0.5667    0.0000 C   0  0  3  0  0  0  0  0  0  0  0  0
    0.2125    0.9792    0.0000 N   0  0  0  0  0  0  0  0  0  0  0  0
   -1.9708    0.6417    0.0000 S   0  0  0  0  0  0  0  0  0  0  0  0
    3.0667    0.9792    0.0000 C   0  0  0  0  0  0  0  0  0  0  0  0
    3.7833    1.3917    0.0000 C   0  0  0  0  0  0  0  0  0  0  0  0
   -0.5042   -0.2583    0.0000 C   0  0  0  0  0  0  0  0  0  0  0  0
   -1.3042    1.8000    0.0000 C   0  0  0  0  0  0  0  0  0  0  0  0
   -2.5250    1.2583    0.0000 C   0  0  0  0  0  0  0  0  0  0  0  0
    0.9250   -0.2583    0.0000 O   0  0  0  0  0  0  0  0  0  0  0  0
   -2.1125    1.9708    0.0000 C   0  0  0  0  0  0  0  0  0  0  0  0
    1.6417    0.9792    0.0000 N   0  0  0  0  0  0  0  0  0  0  0  0
    0.2125   -0.6708    0.0000 C   0  0  0  0  0  0  0  0  0  0  0  0
   -1.2167   -0.6708    0.0000 C   0  0  0  0  0  0  0  0  0  0  0  0
    0.2125   -1.4958    0.0000 C   0  0  0  0  0  0  0  0  0  0  0  0
   -1.2167   -1.4958    0.0000 C   0  0  0  0  0  0  0  0  0  0  0  0
   -0.5042   -1.9083    0.0000 C   0  0  0  0  0  0  0  0  0  0  0  0
    2.3542    0.5667    0.0000 C   0  0  0  0  0  0  0  0  0  0  0  0
   -0.5042   -2.7333    0.0000 C   0  0  0  0  0  0  0  0  0  0  0  0
    0.2125   -3.1458    0.0000 C   0  0  0  0  0  0  0  0  0  0  0  0
  2  3  1  0  0  0  0
  3  4  1  0  0  0  0
  4  1  1  0  0  0  0
  5  2  1  0  0  0  0
  6 19  1  0  0  0  0
  7  6  3  0  0  0  0
  8  3  1  0  0  0  0
  9  2  2  0  0  0  0
 10  5  1  0  0  0  0
 10 12  2  0  0  0  0
 11  1  2  0  0  0  0
 12  9  1  0  0  0  0
 13  1  1  0  0  0  0
 14  8  1  0  0  0  0
 15  8  2  0  0  0  0
 16 14  2  0  0  0  0
 16 18  1  0  0  0  0
 17 15  1  0  0  0  0
 18 17  2  0  0  0  0
 19 13  1  0  0  0  0
 20 18  1  0  0  0  0
 21 20  1  0  0  0  0
M  END
> <CdId>
3694

> <Mol Weight>
298.403

> <Formula>
C17H18N2OS

> <Click_ID>
CLK048F07 __ __ 

$$$$
