CLK014_H10
 OpenBabel03181417022D

 25 26  0  0  0  0  0  0  0  0999 V2000
    1.5717   -0.8193    0.0000 N    0  0  0  0  0  0  0  0  0  0  0  0
    1.8308   -1.6093    0.0000 C    0  0  0  0  0  0  0  0  0  0  0  0
    2.9134   -0.8193    0.0000 C    0  0  0  0  0  0  0  0  0  0  0  0
    2.2446   -0.3302    0.0000 C    0  0  0  0  0  0  0  0  0  0  0  0
    2.6584   -1.6093    0.0000 S    0  0  0  0  0  0  0  0  0  0  0  0
    3.7035   -0.5643    0.0000 C    0  0  0  0  0  0  0  0  0  0  0  0
    3.8665    0.2340    0.0000 C    0  0  0  0  0  0  0  0  0  0  0  0
    4.8070    1.3125    0.0000 C    0  0  0  0  0  0  0  0  0  0  0  0
    4.2134    1.8517    0.0000 C    0  0  0  0  0  0  0  0  0  0  0  0
    4.6439    0.4974    0.0000 C    0  0  0  0  0  0  0  0  0  0  0  0
    0.6145    0.2466    0.0000 C    0  0  0  0  0  0  0  0  0  0  0  0
    3.2603    0.7900    0.0000 C    0  0  0  0  0  0  0  0  0  0  0  0
    3.4276    1.5926    0.0000 C    0  0  0  0  0  0  0  0  0  0  0  0
    0.3929    1.0491    0.0000 C    0  0  0  0  0  0  0  0  0  0  0  0
    1.3418   -2.2739    0.0000 O    0  0  0  0  0  0  0  0  0  0  0  0
    2.2363    0.4974    0.0000 O    0  0  0  0  0  0  0  0  0  0  0  0
    5.3462    3.7076    0.0000 C    0  0  0  0  0  0  0  0  0  0  0  0
    4.3931    2.6542    0.0000 O    0  0  0  0  0  0  0  0  0  0  0  0
    0.7900   -0.5643    0.0000 C    0  0  0  0  0  0  0  0  0  0  0  0
    4.7400    4.2552    0.0000 O    0  0  0  0  0  0  0  0  0  0  0  0
    5.1664    2.9050    0.0000 C    0  0  0  0  0  0  0  0  0  0  0  0
    5.2459   -0.0502    0.0000 Br   0  0  0  0  0  0  0  0  0  0  0  0
    6.1320    3.9584    0.0000 O    0  0  0  0  0  0  0  0  0  0  0  0
    2.8340    2.1526    0.0000 O    0  0  0  0  0  0  0  0  0  0  0  0
    2.0440    1.9018    0.0000 C    0  0  0  0  0  0  0  0  0  0  0  0
  2  1  1  0  0  0  0
  3  4  1  0  0  0  0
  3  5  1  0  0  0  0
  4  1  1  0  0  0  0
  5  2  1  0  0  0  0
  6  3  2  0  0  0  0
  7  6  1  0  0  0  0
  8 10  2  0  0  0  0
  9 13  2  0  0  0  0
  9  8  1  0  0  0  0
 10  7  1  0  0  0  0
 11 19  1  0  0  0  0
 12  7  2  0  0  0  0
 13 12  1  0  0  0  0
 14 11  3  0  0  0  0
 15  2  2  0  0  0  0
 16  4  2  0  0  0  0
 17 21  1  0  0  0  0
 18  9  1  0  0  0  0
 19  1  1  0  0  0  0
 20 17  2  0  0  0  0
 21 18  1  0  0  0  0
 22 10  1  0  0  0  0
 23 17  1  0  0  0  0
 24 13  1  0  0  0  0
 25 24  1  0  0  0  0
M  END
> <CdId>
1075

> <Mol Weight>
426.239

> <Formula>
C16H12BrNO6S

> <Click_ID>
CLK014_H10 __ __ 

$$$$
