CLK039E11
 OpenBabel03181417022D

 25 26  0  0  0  0  0  0  0  0999 V2000
    0.6784   -2.4387    0.0000 S   0  0  0  0  0  0  0  0  0  0  0  0
   -0.5119    3.1461    0.0000 N   0  0  0  0  0  0  0  0  0  0  0  0
   -0.9946    3.8120    0.0000 C   0  0  0  0  0  0  0  0  0  0  0  0
   -0.7658    2.3638    0.0000 C   0  0  0  0  0  0  0  0  0  0  0  0
    0.1248   -1.8270    0.0000 C   0  0  0  0  0  0  0  0  0  0  0  0
    0.0832    0.3538    0.0000 C   0  0  0  0  0  0  0  0  0  0  0  0
   -0.5119    4.4737    0.0000 N   0  0  0  0  0  0  0  0  0  0  0  0
    1.5231   -4.4446    0.0000 C   0  0  0  0  0  0  0  0  0  0  0  0
   -0.1706   -0.4287    0.0000 C   0  0  0  0  0  0  0  0  0  0  0  0
    0.3787   -1.0404    0.0000 C   0  0  0  0  0  0  0  0  0  0  0  0
    2.0767   -5.0563    0.0000 C   0  0  0  0  0  0  0  0  0  0  0  0
    0.0624   -2.9880    0.0000 O   0  0  0  0  0  0  0  0  0  0  0  0
    1.2901   -1.8852    0.0000 O   0  0  0  0  0  0  0  0  0  0  0  0
   -0.4661    0.9655    0.0000 O   0  0  0  0  0  0  0  0  0  0  0  0
    1.2277   -3.0505    0.0000 N   0  0  0  0  0  0  0  0  0  0  0  0
   -1.8186    3.8120    0.0000 O   0  0  0  0  0  0  0  0  0  0  0  0
   -0.2122    1.7521    0.0000 C   0  0  0  0  0  0  0  0  0  0  0  0
   -1.5689    2.1931    0.0000 O   0  0  0  0  0  0  0  0  0  0  0  0
    0.8906    0.5244    0.0000 O   0  0  0  0  0  0  0  0  0  0  0  0
    0.2747    3.4000    0.0000 C   0  0  0  0  0  0  0  0  0  0  0  0
    0.2747    4.2198    0.0000 C   0  0  0  0  0  0  0  0  0  0  0  0
    0.9738   -3.8328    0.0000 C   0  0  0  0  0  0  0  0  0  0  0  0
   -0.6825   -1.9976    0.0000 C   0  0  0  0  0  0  0  0  0  0  0  0
   -0.9780   -0.5993    0.0000 C   0  0  0  0  0  0  0  0  0  0  0  0
   -1.2318   -1.3858    0.0000 C   0  0  0  0  0  0  0  0  0  0  0  0
  2  4  1  0  0  0  0
  3  2  1  0  0  0  0
  4 17  1  0  0  0  0
  5  1  1  0  0  0  0
  6  9  1  0  0  0  0
  7  3  1  0  0  0  0
  7 21  1  0  0  0  0
  8 22  1  0  0  0  0
  9 10  2  0  0  0  0
 10  5  1  0  0  0  0
 11  8  3  0  0  0  0
 12  1  2  0  0  0  0
 13  1  2  0  0  0  0
 14  6  1  0  0  0  0
 15  1  1  0  0  0  0
 16  3  2  0  0  0  0
 17 14  1  0  0  0  0
 18  4  2  0  0  0  0
 19  6  2  0  0  0  0
 20  2  1  0  0  0  0
 21 20  1  0  0  0  0
 22 15  1  0  0  0  0
 23  5  2  0  0  0  0
 24  9  1  0  0  0  0
 25 23  1  0  0  0  0
 25 24  2  0  0  0  0
M  END
> <CdId>
3005

> <Mol Weight>
365.361

> <Formula>
C15H15N3O6S

> <Click_ID>
CLK039E11 __ __ 

$$$$
