CLK015_B07
 OpenBabel03181417022D

 32 35  0  0  0  0  0  0  0  0999 V2000
    3.9357   -1.3369    0.0000 N   0  0  0  0  0  0  0  0  0  0  0  0
    4.1856   -2.1240    0.0000 C   0  0  0  0  0  0  0  0  0  0  0  0
    4.5979   -0.8538    0.0000 C   0  0  0  0  0  0  0  0  0  0  0  0
    5.2643   -1.3369    0.0000 C   0  0  0  0  0  0  0  0  0  0  0  0
    6.2263   -0.2791    0.0000 C   0  0  0  0  0  0  0  0  0  0  0  0
    5.0102   -2.1240    0.0000 S   0  0  0  0  0  0  0  0  0  0  0  0
    6.0972    1.0578    0.0000 N   0  0  0  0  0  0  0  0  0  0  0  0
    6.0514   -1.0787    0.0000 C   0  0  0  0  0  0  0  0  0  0  0  0
    5.6766    0.3456    0.0000 C   0  0  0  0  0  0  0  0  0  0  0  0
    6.9885    0.0583    0.0000 C   0  0  0  0  0  0  0  0  0  0  0  0
    6.9010    0.8829    0.0000 C   0  0  0  0  0  0  0  0  0  0  0  0
    3.1403   -1.0787    0.0000 C   0  0  0  0  0  0  0  0  0  0  0  0
    2.5280   -1.6285    0.0000 C   0  0  0  0  0  0  0  0  0  0  0  0
    6.2596    2.4822    0.0000 C   0  0  0  0  0  0  0  0  0  0  0  0
    6.7886    3.1111    0.0000 C   0  0  0  0  0  0  0  0  0  0  0  0
    1.7492   -1.3786    0.0000 N   0  0  0  0  0  0  0  0  0  0  0  0
    3.7025   -2.7904    0.0000 O   0  0  0  0  0  0  0  0  0  0  0  0
    4.5979   -0.0292    0.0000 O   0  0  0  0  0  0  0  0  0  0  0  0
    0.6247    0.4956    0.0000 C   0  0  0  0  0  0  0  0  0  0  0  0
    1.5785   -0.5664    0.0000 C   0  0  0  0  0  0  0  0  0  0  0  0
    0.7913   -0.3166    0.0000 C   0  0  0  0  0  0  0  0  0  0  0  0
    1.2411    1.0453    0.0000 C   0  0  0  0  0  0  0  0  0  0  0  0
    2.7030   -2.4406    0.0000 O   0  0  0  0  0  0  0  0  0  0  0  0
    5.7641    1.8200    0.0000 C   0  0  0  0  0  0  0  0  0  0  0  0
    2.0241    0.7829    0.0000 C   0  0  0  0  0  0  0  0  0  0  0  0
    2.1907   -0.0167    0.0000 C   0  0  0  0  0  0  0  0  0  0  0  0
    7.5757    1.3577    0.0000 C   0  0  0  0  0  0  0  0  0  0  0  0
    7.7381   -0.2916    0.0000 C   0  0  0  0  0  0  0  0  0  0  0  0
   -0.1582    0.7497    0.0000 C   0  0  0  0  0  0  0  0  0  0  0  0
    1.0745    1.8492    0.0000 C   0  0  0  0  0  0  0  0  0  0  0  0
    8.4003    0.1999    0.0000 C   0  0  0  0  0  0  0  0  0  0  0  0
    8.3254    1.0203    0.0000 C   0  0  0  0  0  0  0  0  0  0  0  0
  2  1  1  0  0  0  0
  3  1  1  0  0  0  0
  4  3  1  0  0  0  0
  4  6  1  0  0  0  0
  5  8  1  0  0  0  0
  6  2  1  0  0  0  0
  7  9  1  0  0  0  0
  7 11  1  0  0  0  0
  8  4  2  0  0  0  0
  9  5  2  0  0  0  0
 10  5  1  0  0  0  0
 11 10  1  0  0  0  0
 12  1  1  0  0  0  0
 13 12  1  0  0  0  0
 14 24  1  0  0  0  0
 15 14  3  0  0  0  0
 16 13  1  0  0  0  0
 17  2  2  0  0  0  0
 18  3  2  0  0  0  0
 19 21  2  0  0  0  0
 20 16  1  0  0  0  0
 21 20  1  0  0  0  0
 22 25  2  0  0  0  0
 22 19  1  0  0  0  0
 23 13  2  0  0  0  0
 24  7  1  0  0  0  0
 25 26  1  0  0  0  0
 26 20  2  0  0  0  0
 27 11  2  0  0  0  0
 27 32  1  0  0  0  0
 28 10  2  0  0  0  0
 29 19  1  0  0  0  0
 30 22  1  0  0  0  0
 31 28  1  0  0  0  0
 32 31  2  0  0  0  0
M  END
> <CdId>
1092

> <Mol Weight>
443.518

> <Formula>
C25H21N3O3S

> <Click_ID>
CLK015_B07 __ __ 

$$$$
