CLK038D04
 OpenBabel03181417022D

  8  7  0  0  0  0  0  0  0  0999 V2000
    1.5379   -0.0333    0.0000 C    0  0  0  0  0  0  0  0  0  0  0  0
    2.3171    0.2375    0.0000 C    0  0  0  0  0  0  0  0  0  0  0  0
   -0.6460   -0.0333    0.0000 C    0  0  0  0  0  0  0  0  0  0  0  0
   -0.8002   -0.8419    0.0000 O    0  0  0  0  0  0  0  0  0  0  0  0
    0.1333    0.2375    0.0000 N    0  0  0  0  0  0  0  0  0  0  0  0
    0.7585   -0.3000    0.0000 C    0  0  0  0  0  0  0  0  0  0  0  0
   -2.0504    0.2375    0.0000 Cl   0  0  0  0  0  0  0  0  0  0  0  0
   -1.2710    0.5085    0.0000 C    0  0  0  0  0  0  0  0  0  0  0  0
  2  1  3  0  0  0  0
  3  5  1  0  0  0  0
  4  3  2  0  0  0  0
  5  6  1  0  0  0  0
  6  1  1  0  0  0  0
  7  8  1  0  0  0  0
  8  3  1  0  0  0  0
M  END
> <CdId>
2868

> <Mol Weight>
131.56

> <Formula>
C5H6ClNO

> <Click_ID>
CLK038D04 __ __ 

$$$$
