CLK049B11
 OpenBabel03181417022D

 19 20  0  0  0  0  0  0  0  0999 V2000
    1.6917   -0.0208    0.0000 N   0  0  0  0  0  0  0  0  0  0  0  0
    0.9750   -0.4333    0.0000 C   0  0  0  0  0  0  0  0  0  0  0  0
   -3.3125   -0.4333    0.0000 C   0  0  0  0  0  0  0  0  0  0  0  0
   -4.0250   -0.8458    0.0000 C   0  0  0  0  0  0  0  0  0  0  0  0
    0.2625   -0.0208    0.0000 C   0  0  0  0  0  0  0  0  0  0  0  0
    2.4042   -0.4333    0.0000 C   0  0  3  0  0  0  0  0  0  0  0  0
   -0.4542   -0.4333    0.0000 N   0  0  0  0  0  0  0  0  0  0  0  0
    0.9750   -1.2583    0.0000 O   0  0  0  0  0  0  0  0  0  0  0  0
   -2.5958   -0.0208    0.0000 C   0  0  0  0  0  0  0  0  0  0  0  0
   -1.1667   -0.0208    0.0000 C   0  0  0  0  0  0  0  0  0  0  0  0
   -1.8833   -0.4333    0.0000 C   0  0  0  0  0  0  0  0  0  0  0  0
    1.6917    0.8042    0.0000 C   0  0  0  0  0  0  0  0  0  0  0  0
   -1.8833    1.2167    0.0000 C   0  0  0  0  0  0  0  0  0  0  0  0
   -2.5958    0.8042    0.0000 C   0  0  0  0  0  0  0  0  0  0  0  0
    2.4042   -1.2583    0.0000 C   0  0  0  0  0  0  0  0  0  0  0  0
   -1.1667    0.8042    0.0000 C   0  0  0  0  0  0  0  0  0  0  0  0
    3.1208   -0.0208    0.0000 C   0  0  0  0  0  0  0  0  0  0  0  0
    2.4042    1.2167    0.0000 C   0  0  0  0  0  0  0  0  0  0  0  0
    3.1208    0.8042    0.0000 C   0  0  0  0  0  0  0  0  0  0  0  0
  2  1  1  0  0  0  0
  3  9  1  0  0  0  0
  4  3  3  0  0  0  0
  5  2  1  0  0  0  0
  6  1  1  0  0  0  0
  7  5  1  0  0  0  0
  8  2  2  0  0  0  0
  9 11  1  0  0  0  0
 10  7  1  0  0  0  0
 11 10  2  0  0  0  0
 12  1  1  0  0  0  0
 13 16  2  0  0  0  0
 14  9  2  0  0  0  0
 14 13  1  0  0  0  0
 15  6  1  0  0  0  0
 16 10  1  0  0  0  0
 17  6  1  0  0  0  0
 18 12  1  0  0  0  0
 18 19  1  0  0  0  0
 19 17  1  0  0  0  0
M  END
> <CdId>
3802

> <Mol Weight>
256.3428

> <Formula>
C16H20N2O

> <Click_ID>
CLK049B11 __ __ 

$$$$
