CLK013_B08
 OpenBabel03181417022D

 30 32  0  0  0  0  0  0  0  0999 V2000
    5.2695   -2.3332    0.0000 N    0  0  0  0  0  0  0  0  0  0  0  0
    5.1406   -3.1484    0.0000 C    0  0  0  0  0  0  0  0  0  0  0  0
    4.5334   -1.9506    0.0000 C    0  0  0  0  0  0  0  0  0  0  0  0
    3.9470   -2.5370    0.0000 C    0  0  0  0  0  0  0  0  0  0  0  0
    4.3213   -3.2732    0.0000 N    0  0  0  0  0  0  0  0  0  0  0  0
    3.1359   -2.4081    0.0000 C    0  0  0  0  0  0  0  0  0  0  0  0
    1.5596   -4.3420    0.0000 C    0  0  0  0  0  0  0  0  0  0  0  0
    1.2644   -3.5560    0.0000 C    0  0  0  0  0  0  0  0  0  0  0  0
    2.3748   -4.4585    0.0000 C    0  0  0  0  0  0  0  0  0  0  0  0
    6.0057   -1.9631    0.0000 C    0  0  0  0  0  0  0  0  0  0  0  0
    2.6077   -3.0486    0.0000 C    0  0  0  0  0  0  0  0  0  0  0  0
    5.7187   -3.7348    0.0000 S    0  0  0  0  0  0  0  0  0  0  0  0
    0.8110   -6.3925    0.0000 C    0  0  0  0  0  0  0  0  0  0  0  0
    0.2787   -7.0288    0.0000 C    0  0  0  0  0  0  0  0  0  0  0  0
    1.7884   -2.9114    0.0000 C    0  0  0  0  0  0  0  0  0  0  0  0
    4.4086   -1.1396    0.0000 O    0  0  0  0  0  0  0  0  0  0  0  0
    2.8989   -3.8222    0.0000 C    0  0  0  0  0  0  0  0  0  0  0  0
    6.0431   -1.1396    0.0000 C    0  0  0  0  0  0  0  0  0  0  0  0
    6.6919   -2.4123    0.0000 C    0  0  0  0  0  0  0  0  0  0  0  0
    0.4534   -3.4229    0.0000 Br   0  0  0  0  0  0  0  0  0  0  0  0
    1.0356   -4.9826    0.0000 O    0  0  0  0  0  0  0  0  0  0  0  0
    2.6701   -5.2321    0.0000 O    0  0  0  0  0  0  0  0  0  0  0  0
    7.4738   -1.2228    0.0000 C    0  0  0  0  0  0  0  0  0  0  0  0
    7.4239   -2.0462    0.0000 C    0  0  0  0  0  0  0  0  0  0  0  0
    6.7793   -0.7736    0.0000 C    0  0  0  0  0  0  0  0  0  0  0  0
    1.3268   -5.7519    0.0000 C    0  0  0  0  0  0  0  0  0  0  0  0
    8.2099   -0.8609    0.0000 O    0  0  0  0  0  0  0  0  0  0  0  0
    8.2516   -0.0291    0.0000 C    0  0  0  0  0  0  0  0  0  0  0  0
    3.4853   -5.3693    0.0000 C    0  0  0  0  0  0  0  0  0  0  0  0
    8.9877    0.3327    0.0000 C    0  0  0  0  0  0  0  0  0  0  0  0
  2  1  1  0  0  0  0
  3  1  1  0  0  0  0
  4  3  1  0  0  0  0
  5  2  1  0  0  0  0
  5  4  1  0  0  0  0
  6  4  2  0  0  0  0
  7  9  1  0  0  0  0
  7  8  2  0  0  0  0
  8 15  1  0  0  0  0
  9 17  2  0  0  0  0
 10  1  1  0  0  0  0
 11  6  1  0  0  0  0
 12  2  2  0  0  0  0
 13 26  1  0  0  0  0
 14 13  3  0  0  0  0
 15 11  2  0  0  0  0
 16  3  2  0  0  0  0
 17 11  1  0  0  0  0
 18 10  1  0  0  0  0
 19 10  2  0  0  0  0
 20  8  1  0  0  0  0
 21  7  1  0  0  0  0
 22  9  1  0  0  0  0
 23 24  2  0  0  0  0
 23 25  1  0  0  0  0
 24 19  1  0  0  0  0
 25 18  2  0  0  0  0
 26 21  1  0  0  0  0
 27 23  1  0  0  0  0
 28 27  1  0  0  0  0
 29 22  1  0  0  0  0
 30 28  1  0  0  0  0
M  END
> <CdId>
933

> <Mol Weight>
487.366

> <Formula>
C22H19BrN2O4S

> <Click_ID>
CLK013_B08 __ __ 

$$$$
