CLK050D11
 OpenBabel03181417022D

 17 18  0  0  0  0  0  0  0  0999 V2000
    0.4583    0.3000    0.0000 C   0  0  0  0  0  0  0  0  0  0  0  0
    0.4583    1.1250    0.0000 N   0  0  0  0  0  0  0  0  0  0  0  0
   -0.3292    0.0458    0.0000 C   0  0  0  0  0  0  0  0  0  0  0  0
   -0.3292    1.3792    0.0000 N   0  0  0  0  0  0  0  0  0  0  0  0
    1.1708   -0.1125    0.0000 N   0  0  0  0  0  0  0  0  0  0  0  0
    1.1708    1.5375    0.0000 C   0  0  0  0  0  0  0  0  0  0  0  0
   -0.8125    0.7125    0.0000 C   0  0  0  0  0  0  0  0  0  0  0  0
    1.8833    1.1250    0.0000 C   0  0  0  0  0  0  0  0  0  0  0  0
   -0.5833   -0.7417    0.0000 C   0  0  0  0  0  0  0  0  0  0  0  0
    1.8833    0.3000    0.0000 C   0  0  0  0  0  0  0  0  0  0  0  0
   -2.4500   -1.8667    0.0000 C   0  0  0  0  0  0  0  0  0  0  0  0
   -3.2583   -2.0417    0.0000 C   0  0  0  0  0  0  0  0  0  0  0  0
   -0.0292   -1.3542    0.0000 O   0  0  0  0  0  0  0  0  0  0  0  0
   -1.3917   -0.9125    0.0000 N   0  0  0  0  0  0  0  0  0  0  0  0
    1.1708    2.3625    0.0000 C   0  0  0  0  0  0  0  0  0  0  0  0
   -1.6458   -1.6958    0.0000 C   0  0  0  0  0  0  0  0  0  0  0  0
    2.6000   -0.1125    0.0000 C   0  0  0  0  0  0  0  0  0  0  0  0
  2  1  1  0  0  0  0
  3  1  2  0  0  0  0
  4  2  1  0  0  0  0
  5  1  1  0  0  0  0
  6  2  1  0  0  0  0
  6  8  2  0  0  0  0
  7  3  1  0  0  0  0
  7  4  2  0  0  0  0
  8 10  1  0  0  0  0
  9  3  1  0  0  0  0
 10  5  2  0  0  0  0
 11 16  1  0  0  0  0
 12 11  3  0  0  0  0
 13  9  2  0  0  0  0
 14  9  1  0  0  0  0
 15  6  1  0  0  0  0
 16 14  1  0  0  0  0
 17 10  1  0  0  0  0
M  END
> <CdId>
3884

> <Mol Weight>
228.2499

> <Formula>
C12H12N4O

> <Click_ID>
CLK050D11 __ __ 

$$$$
