CLK016_F08
 OpenBabel03181417022D

 29 31  0  0  0  0  0  0  0  0999 V2000
    1.5619   -0.8142    0.0000 N    0  0  0  0  0  0  0  0  0  0  0  0
    1.8195   -1.5993    0.0000 C    0  0  0  0  0  0  0  0  0  0  0  0
    2.8954   -0.8142    0.0000 C    0  0  0  0  0  0  0  0  0  0  0  0
    2.2307   -0.3282    0.0000 C    0  0  0  0  0  0  0  0  0  0  0  0
    2.6420   -1.5993    0.0000 S    0  0  0  0  0  0  0  0  0  0  0  0
    3.6805   -0.5608    0.0000 C    0  0  0  0  0  0  0  0  0  0  0  0
    3.8508    0.2492    0.0000 C    0  0  0  0  0  0  0  0  0  0  0  0
    4.8104    1.3085    0.0000 C    0  0  0  0  0  0  0  0  0  0  0  0
    4.2039    1.8651    0.0000 C    0  0  0  0  0  0  0  0  0  0  0  0
    4.6359    0.4985    0.0000 C    0  0  0  0  0  0  0  0  0  0  0  0
    0.6106    0.2451    0.0000 C    0  0  0  0  0  0  0  0  0  0  0  0
    3.2401    0.8058    0.0000 C    0  0  0  0  0  0  0  0  0  0  0  0
    3.4146    1.6159    0.0000 C    0  0  0  0  0  0  0  0  0  0  0  0
    0.3905    1.0426    0.0000 C    0  0  0  0  0  0  0  0  0  0  0  0
    1.3334   -2.2598    0.0000 O    0  0  0  0  0  0  0  0  0  0  0  0
    5.3587    3.7220    0.0000 C    0  0  0  0  0  0  0  0  0  0  0  0
    2.2224    0.4943    0.0000 O    0  0  0  0  0  0  0  0  0  0  0  0
    4.3867    2.6752    0.0000 O    0  0  0  0  0  0  0  0  0  0  0  0
    0.7851   -0.5608    0.0000 C    0  0  0  0  0  0  0  0  0  0  0  0
    5.1759    2.9119    0.0000 C    0  0  0  0  0  0  0  0  0  0  0  0
    6.1355    3.9588    0.0000 C    0  0  0  0  0  0  0  0  0  0  0  0
    5.2465   -0.0498    0.0000 Br   0  0  0  0  0  0  0  0  0  0  0  0
    6.7420    3.3980    0.0000 F    0  0  0  0  0  0  0  0  0  0  0  0
    2.8164    2.1642    0.0000 O    0  0  0  0  0  0  0  0  0  0  0  0
    4.7398    4.2662    0.0000 C    0  0  0  0  0  0  0  0  0  0  0  0
    6.3225    4.7522    0.0000 C    0  0  0  0  0  0  0  0  0  0  0  0
    2.0313    1.9150    0.0000 C    0  0  0  0  0  0  0  0  0  0  0  0
    4.9267    5.0721    0.0000 C    0  0  0  0  0  0  0  0  0  0  0  0
    5.7118    5.3130    0.0000 C    0  0  0  0  0  0  0  0  0  0  0  0
  2  1  1  0  0  0  0
  3  4  1  0  0  0  0
  3  5  1  0  0  0  0
  4  1  1  0  0  0  0
  5  2  1  0  0  0  0
  6  3  2  0  0  0  0
  7  6  1  0  0  0  0
  8 10  2  0  0  0  0
  9 13  2  0  0  0  0
  9  8  1  0  0  0  0
 10  7  1  0  0  0  0
 11 19  1  0  0  0  0
 12  7  2  0  0  0  0
 13 12  1  0  0  0  0
 14 11  3  0  0  0  0
 15  2  2  0  0  0  0
 16 20  1  0  0  0  0
 17  4  2  0  0  0  0
 18  9  1  0  0  0  0
 19  1  1  0  0  0  0
 20 18  1  0  0  0  0
 21 16  2  0  0  0  0
 22 10  1  0  0  0  0
 23 21  1  0  0  0  0
 24 13  1  0  0  0  0
 25 16  1  0  0  0  0
 26 21  1  0  0  0  0
 26 29  2  0  0  0  0
 27 24  1  0  0  0  0
 28 25  2  0  0  0  0
 29 28  1  0  0  0  0
M  END
> <CdId>
1213

> <Mol Weight>
476.316

> <Formula>
C21H15BrFNO4S

> <Click_ID>
CLK016_F08 __ __ 

$$$$
