CLK040B08
 OpenBabel03181417022D

 24 25  0  0  0  0  0  0  0  0999 V2000
   -0.1792   -0.6167    0.0000 S   0  0  0  0  0  0  0  0  0  0  0  0
   -0.1792    0.2083    0.0000 N   0  0  0  0  0  0  0  0  0  0  0  0
   -0.1792    2.6833    0.0000 C   0  0  0  0  0  0  0  0  0  0  0  0
   -0.1792    1.8583    0.0000 N   0  0  0  0  0  0  0  0  0  0  0  0
   -0.1792   -1.4417    0.0000 C   0  0  0  0  0  0  0  0  0  0  0  0
    0.6458   -0.6167    0.0000 O   0  0  0  0  0  0  0  0  0  0  0  0
   -1.0042   -0.6167    0.0000 O   0  0  0  0  0  0  0  0  0  0  0  0
   -0.8958    0.6208    0.0000 C   0  0  0  0  0  0  0  0  0  0  0  0
    0.5333    0.6208    0.0000 C   0  0  0  0  0  0  0  0  0  0  0  0
    1.2500    4.3292    0.0000 C   0  0  0  0  0  0  0  0  0  0  0  0
    1.9625    4.7417    0.0000 C   0  0  0  0  0  0  0  0  0  0  0  0
    0.5333    1.4458    0.0000 C   0  0  0  0  0  0  0  0  0  0  0  0
   -0.8958    1.4458    0.0000 C   0  0  0  0  0  0  0  0  0  0  0  0
   -0.8958    3.0958    0.0000 O   0  0  0  0  0  0  0  0  0  0  0  0
   -0.1792   -3.0917    0.0000 C   0  0  0  0  0  0  0  0  0  0  0  0
    0.5333    3.0958    0.0000 N   0  0  0  0  0  0  0  0  0  0  0  0
    0.5333   -1.8542    0.0000 C   0  0  0  0  0  0  0  0  0  0  0  0
   -0.8958   -1.8542    0.0000 C   0  0  0  0  0  0  0  0  0  0  0  0
    0.5333   -2.6792    0.0000 C   0  0  0  0  0  0  0  0  0  0  0  0
   -0.8958   -2.6792    0.0000 C   0  0  0  0  0  0  0  0  0  0  0  0
   -0.1792   -3.9167    0.0000 C   0  0  0  0  0  0  0  0  0  0  0  0
    0.5333    3.9208    0.0000 C   0  0  0  0  0  0  0  0  0  0  0  0
    0.5333   -4.3292    0.0000 C   0  0  0  0  0  0  0  0  0  0  0  0
   -0.8958   -4.3292    0.0000 C   0  0  0  0  0  0  0  0  0  0  0  0
  2  1  1  0  0  0  0
  3  4  1  0  0  0  0
  4 13  1  0  0  0  0
  4 12  1  0  0  0  0
  5  1  1  0  0  0  0
  6  1  2  0  0  0  0
  7  1  2  0  0  0  0
  8  2  1  0  0  0  0
  9  2  1  0  0  0  0
 10 22  1  0  0  0  0
 11 10  3  0  0  0  0
 12  9  1  0  0  0  0
 13  8  1  0  0  0  0
 14  3  2  0  0  0  0
 15 20  2  0  0  0  0
 16  3  1  0  0  0  0
 17  5  1  0  0  0  0
 18  5  2  0  0  0  0
 19 17  2  0  0  0  0
 19 15  1  0  0  0  0
 20 18  1  0  0  0  0
 21 15  1  0  0  0  0
 22 16  1  0  0  0  0
 23 21  1  0  0  0  0
 24 21  1  0  0  0  0
M  END
> <CdId>
3058

> <Mol Weight>
349.448

> <Formula>
C17H23N3O3S

> <Click_ID>
CLK040B08 __ __ 

$$$$
