CLK009_D07
 OpenBabel03181417022D

 13 13  0  0  0  0  0  0  0  0999 V2000
   -1.3055   -0.1309    0.0000 C   0  0  0  0  0  0  0  0  0  0  0  0
   -1.3055   -0.9487    0.0000 C   0  0  0  0  0  0  0  0  0  0  0  0
    1.5440   -0.1417    0.0000 C   0  0  0  0  0  0  0  0  0  0  0  0
    2.2542    0.2636    0.0000 C   0  0  0  0  0  0  0  0  0  0  0  0
   -0.5954    0.2798    0.0000 C   0  0  0  0  0  0  0  0  0  0  0  0
   -0.6115   -1.3719    0.0000 O   0  0  0  0  0  0  0  0  0  0  0  0
    0.1202   -0.1309    0.0000 S   0  0  0  0  0  0  0  0  0  0  0  0
   -2.0049   -1.3898    0.0000 O   0  0  0  0  0  0  0  0  0  0  0  0
    0.8303    0.2726    0.0000 C   0  0  0  0  0  0  0  0  0  0  0  0
   -2.0210    0.2798    0.0000 C   0  0  0  0  0  0  0  0  0  0  0  0
   -0.5954    1.1118    0.0000 C   0  0  0  0  0  0  0  0  0  0  0  0
   -2.0210    1.1118    0.0000 C   0  0  0  0  0  0  0  0  0  0  0  0
   -1.3055    1.5261    0.0000 C   0  0  0  0  0  0  0  0  0  0  0  0
  2  1  1  0  0  0  0
  3  9  1  0  0  0  0
  4  3  3  0  0  0  0
  5  1  1  0  0  0  0
  6  2  2  0  0  0  0
  7  5  1  0  0  0  0
  8  2  1  0  0  0  0
  9  7  1  0  0  0  0
 10  1  2  0  0  0  0
 11  5  2  0  0  0  0
 12 10  1  0  0  0  0
 13 12  2  0  0  0  0
 13 11  1  0  0  0  0
M  END
> <CdId>
632

> <Mol Weight>
192.234

> <Formula>
C10H8O2S

> <Click_ID>
CLK009_D07 __ __ 

$$$$
