CLK043H11
 OpenBabel03181417022D

 25 26  0  0  0  0  0  0  0  0999 V2000
    0.8208    0.4750    0.0000 C   0  0  0  0  0  0  0  0  0  0  0  0
    2.2500    0.4750    0.0000 N   0  0  0  0  0  0  0  0  0  0  0  0
    1.5333    0.8875    0.0000 C   0  0  0  0  0  0  0  0  0  0  0  0
    2.9625    0.8875    0.0000 C   0  0  0  0  0  0  0  0  0  0  0  0
    3.7167    0.5542    0.0000 N   0  0  0  0  0  0  0  0  0  0  0  0
    0.1042    0.8875    0.0000 C   0  0  0  0  0  0  0  0  0  0  0  0
    0.8208   -0.3500    0.0000 C   0  0  0  0  0  0  0  0  0  0  0  0
    0.8208   -1.1750    0.0000 N   0  0  0  0  0  0  0  0  0  0  0  0
    3.0500    1.7083    0.0000 S   0  0  0  0  0  0  0  0  0  0  0  0
   -4.1833   -0.7625    0.0000 C   0  0  0  0  0  0  0  0  0  0  0  0
   -4.8958   -1.1750    0.0000 C   0  0  0  0  0  0  0  0  0  0  0  0
   -1.3250   -0.7625    0.0000 C   0  0  0  0  0  0  0  0  0  0  0  0
   -0.6083    0.4750    0.0000 C   0  0  0  0  0  0  0  0  0  0  0  0
    4.2667    1.1667    0.0000 C   0  0  0  0  0  0  0  0  0  0  0  0
    1.5333    1.7125    0.0000 O   0  0  0  0  0  0  0  0  0  0  0  0
   -0.6083   -0.3500    0.0000 C   0  0  0  0  0  0  0  0  0  0  0  0
   -2.0375   -0.3500    0.0000 C   0  0  0  0  0  0  0  0  0  0  0  0
    3.8542    1.8792    0.0000 C   0  0  0  0  0  0  0  0  0  0  0  0
   -2.0375    0.4750    0.0000 C   0  0  0  0  0  0  0  0  0  0  0  0
   -1.3250    0.8875    0.0000 C   0  0  0  0  0  0  0  0  0  0  0  0
   -1.3250   -1.5875    0.0000 O   0  0  0  0  0  0  0  0  0  0  0  0
   -2.7542   -0.7625    0.0000 O   0  0  0  0  0  0  0  0  0  0  0  0
   -3.4667   -0.3500    0.0000 C   0  0  0  0  0  0  0  0  0  0  0  0
   -0.6083   -2.0000    0.0000 C   0  0  0  0  0  0  0  0  0  0  0  0
   -0.6083   -2.8250    0.0000 C   0  0  0  0  0  0  0  0  0  0  0  0
  2  3  1  0  0  0  0
  3  1  1  0  0  0  0
  4  2  1  0  0  0  0
  5  4  2  0  0  0  0
  6  1  2  0  0  0  0
  7  1  1  0  0  0  0
  8  7  3  0  0  0  0
  9  4  1  0  0  0  0
 10 23  1  0  0  0  0
 11 10  3  0  0  0  0
 12 16  1  0  0  0  0
 13  6  1  0  0  0  0
 14  5  1  0  0  0  0
 15  3  2  0  0  0  0
 16 13  2  0  0  0  0
 17 19  1  0  0  0  0
 17 12  2  0  0  0  0
 18  9  1  0  0  0  0
 18 14  2  0  0  0  0
 19 20  2  0  0  0  0
 20 13  1  0  0  0  0
 21 12  1  0  0  0  0
 22 17  1  0  0  0  0
 23 22  1  0  0  0  0
 24 21  1  0  0  0  0
 25 24  1  0  0  0  0
M  END
> <CdId>
3328

> <Mol Weight>
353.395

> <Formula>
C18H15N3O3S

> <Click_ID>
CLK043H11 __ __ 

$$$$
