CLK016_F04
 OpenBabel03181417022D

 35 38  0  0  0  0  0  0  0  0999 V2000
    2.9853   -0.8529    0.0000 N   0  0  0  0  0  0  0  0  0  0  0  0
    2.9419   -1.6980    0.0000 C   0  0  0  0  0  0  0  0  0  0  0  0
    1.5677   -0.8451    0.0000 C   0  0  0  0  0  0  0  0  0  0  0  0
    2.2785   -0.4265    0.0000 C   0  0  3  0  0  0  0  0  0  0  0  0
    3.7711   -0.6200    0.0000 C   0  0  0  0  0  0  0  0  0  0  0  0
    2.2785   -2.1126    0.0000 N   0  0  0  0  0  0  0  0  0  0  0  0
    4.2213   -1.3426    0.0000 C   0  0  0  0  0  0  0  0  0  0  0  0
    1.5795   -1.6980    0.0000 C   0  0  0  0  0  0  0  0  0  0  0  0
    3.7119   -1.9942    0.0000 S   0  0  0  0  0  0  0  0  0  0  0  0
    2.3100    0.6476    0.0000 C   0  0  0  0  0  0  0  0  0  0  0  0
    0.8766   -0.4265    0.0000 C   0  0  0  0  0  0  0  0  0  0  0  0
    5.0347   -1.3742    0.0000 C   0  0  0  0  0  0  0  0  0  0  0  0
    6.4562   -5.7494    0.0000 C   0  0  0  0  0  0  0  0  0  0  0  0
    6.8511   -6.5076    0.0000 C   0  0  0  0  0  0  0  0  0  0  0  0
    4.1028    0.1777    0.0000 O   0  0  0  0  0  0  0  0  0  0  0  0
    1.5637    1.0859    0.0000 C   0  0  0  0  0  0  0  0  0  0  0  0
    0.8766    0.4225    0.0000 O   0  0  0  0  0  0  0  0  0  0  0  0
    5.4019   -2.0968    0.0000 C   0  0  0  0  0  0  0  0  0  0  0  0
    0.1580   -0.8451    0.0000 O   0  0  0  0  0  0  0  0  0  0  0  0
    0.8766   -2.1126    0.0000 C   0  0  0  0  0  0  0  0  0  0  0  0
    6.1522   -3.5460    0.0000 C   0  0  0  0  0  0  0  0  0  0  0  0
    4.9676   -2.7879    0.0000 C   0  0  0  0  0  0  0  0  0  0  0  0
    6.2114   -2.1442    0.0000 C   0  0  0  0  0  0  0  0  0  0  0  0
    0.7029    1.1333    0.0000 O   0  0  0  0  0  0  0  0  0  0  0  0
    3.0603    1.0780    0.0000 C   0  0  0  0  0  0  0  0  0  0  0  0
    6.5905   -2.8708    0.0000 C   0  0  0  0  0  0  0  0  0  0  0  0
    5.3427   -3.5105    0.0000 C   0  0  0  0  0  0  0  0  0  0  0  0
    6.9182   -5.0268    0.0000 C   0  0  0  0  0  0  0  0  0  0  0  0
    6.5273   -4.2647    0.0000 O   0  0  0  0  0  0  0  0  0  0  0  0
    1.5677    1.9744    0.0000 C   0  0  0  0  0  0  0  0  0  0  0  0
   -0.5528   -0.4265    0.0000 C   0  0  0  0  0  0  0  0  0  0  0  0
    0.1580    1.8677    0.0000 C   0  0  0  0  0  0  0  0  0  0  0  0
    3.0603    1.9625    0.0000 C   0  0  0  0  0  0  0  0  0  0  0  0
   -1.2517   -0.8451    0.0000 C   0  0  0  0  0  0  0  0  0  0  0  0
    2.3140    2.4008    0.0000 C   0  0  0  0  0  0  0  0  0  0  0  0
  2  1  1  0  0  0  0
  3  4  1  0  0  0  0
  4  1  1  0  0  0  0
  5  1  1  0  0  0  0
  6  2  2  0  0  0  0
  6  8  1  0  0  0  0
  7  5  1  0  0  0  0
  7  9  1  0  0  0  0
  8  3  2  0  0  0  0
  9  2  1  0  0  0  0
 10  4  1  0  0  0  0
 11  3  1  0  0  0  0
 12  7  2  0  0  0  0
 13 28  1  0  0  0  0
 14 13  3  0  0  0  0
 15  5  2  0  0  0  0
 16 10  2  0  0  0  0
 17 11  2  0  0  0  0
 18 12  1  0  0  0  0
 19 11  1  0  0  0  0
 20  8  1  0  0  0  0
 21 26  2  0  0  0  0
 21 27  1  0  0  0  0
 22 18  1  0  0  0  0
 23 18  2  0  0  0  0
 24 16  1  0  0  0  0
 25 10  1  0  0  0  0
 26 23  1  0  0  0  0
 27 22  2  0  0  0  0
 28 29  1  0  0  0  0
 29 21  1  0  0  0  0
 30 16  1  0  0  0  0
 30 35  2  0  0  0  0
 31 19  1  0  0  0  0
 32 24  1  0  0  0  0
 33 25  2  0  0  0  0
 34 31  1  0  0  0  0
 35 33  1  0  0  0  0
M  END
> <CdId>
1209

> <Mol Weight>
488.555

> <Formula>
C27H24N2O5S

> <Click_ID>
CLK016_F04 __ __ 

$$$$
