CLK036_H03
 OpenBabel03181417022D

 26 28  0  0  0  0  0  0  0  0999 V2000
    3.6818   -0.6365    0.0000 C   0  0  0  0  0  0  0  0  0  0  0  0
    4.1561   -1.3230    0.0000 N   0  0  0  0  0  0  0  0  0  0  0  0
    2.8706   -0.6282    0.0000 N   0  0  0  0  0  0  0  0  0  0  0  0
    3.9439    0.1498    0.0000 S   0  0  0  0  0  0  0  0  0  0  0  0
    4.9840   -1.2523    0.0000 C   0  0  0  0  0  0  0  0  0  0  0  0
    6.6315   -1.1358    0.0000 S   0  0  0  0  0  0  0  0  0  0  0  0
    5.4458   -1.9387    0.0000 C   0  0  0  0  0  0  0  0  0  0  0  0
    3.2742    0.6365    0.0000 C   0  0  0  0  0  0  0  0  0  0  0  0
    2.6127    0.1581    0.0000 C   0  0  0  0  0  0  0  0  0  0  0  0
    6.2695   -1.8763    0.0000 C   0  0  0  0  0  0  0  0  0  0  0  0
    2.7333   -2.0635    0.0000 C   0  0  0  0  0  0  0  0  0  0  0  0
    3.0745   -2.8124    0.0000 C   0  0  0  0  0  0  0  0  0  0  0  0
    1.8596    0.4950    0.0000 C   0  0  0  0  0  0  0  0  0  0  0  0
    5.8909   -0.7655    0.0000 O   0  0  0  0  0  0  0  0  0  0  0  0
    7.3803   -1.5019    0.0000 O   0  0  0  0  0  0  0  0  0  0  0  0
    3.1868    1.4561    0.0000 C   0  0  0  0  0  0  0  0  0  0  0  0
    5.3418   -0.5159    0.0000 O   0  0  0  0  0  0  0  0  0  0  0  0
    2.3880   -1.3105    0.0000 C   0  0  0  0  0  0  0  0  0  0  0  0
    7.0017   -0.3911    0.0000 C   0  0  0  0  0  0  0  0  0  0  0  0
    1.7723    1.3105    0.0000 C   0  0  0  0  0  0  0  0  0  0  0  0
    2.4379    1.7930    0.0000 C   0  0  0  0  0  0  0  0  0  0  0  0
    5.0839   -2.6751    0.0000 C   0  0  0  0  0  0  0  0  0  0  0  0
    6.7313   -2.5628    0.0000 C   0  0  0  0  0  0  0  0  0  0  0  0
    2.3464    2.6168    0.0000 C   0  0  0  0  0  0  0  0  0  0  0  0
    5.5457   -3.3615    0.0000 C   0  0  0  0  0  0  0  0  0  0  0  0
    6.3694   -3.2991    0.0000 C   0  0  0  0  0  0  0  0  0  0  0  0
  2  1  2  0  0  0  0
  3  1  1  0  0  0  0
  4  1  1  0  0  0  0
  5  2  1  0  0  0  0
  6 10  1  0  0  0  0
  7  5  1  0  0  0  0
  8  4  1  0  0  0  0
  9  3  1  0  0  0  0
  9  8  2  0  0  0  0
 10  7  1  0  0  0  0
 11 18  1  0  0  0  0
 12 11  3  0  0  0  0
 13  9  1  0  0  0  0
 14  6  2  0  0  0  0
 15  6  2  0  0  0  0
 16  8  1  0  0  0  0
 17  5  2  0  0  0  0
 18  3  1  0  0  0  0
 19  6  1  0  0  0  0
 20 13  2  0  0  0  0
 20 21  1  0  0  0  0
 21 16  2  0  0  0  0
 22  7  2  0  0  0  0
 23 10  2  0  0  0  0
 23 26  1  0  0  0  0
 24 21  1  0  0  0  0
 25 22  1  0  0  0  0
 26 25  2  0  0  0  0
M  END
> <CdId>
2765

> <Mol Weight>
384.472

> <Formula>
C19H16N2O3S2

> <Click_ID>
CLK036_H03 __ __ 

$$$$
