CLK010_D04
 OpenBabel03181417022D

 21 22  0  0  0  0  0  0  0  0999 V2000
    8.5975   -4.6553    0.0000 C    0  0  0  0  0  0  0  0  0  0  0  0
    9.8411   -5.3766    0.0000 N    0  0  0  0  0  0  0  0  0  0  0  0
    8.6058   -6.0854    0.0000 N    0  0  0  0  0  0  0  0  0  0  0  0
    9.4265   -4.6553    0.0000 C    0  0  0  0  0  0  0  0  0  0  0  0
    8.1871   -5.3724    0.0000 C    0  0  0  0  0  0  0  0  0  0  0  0
    9.4265   -6.0854    0.0000 C    0  0  0  0  0  0  0  0  0  0  0  0
    8.1871   -3.9340    0.0000 C    0  0  0  0  0  0  0  0  0  0  0  0
    3.6562   -3.1878    0.0000 C    0  0  0  0  0  0  0  0  0  0  0  0
    2.8272   -3.1754    0.0000 C    0  0  0  0  0  0  0  0  0  0  0  0
    6.1310   -3.2209    0.0000 C    0  0  0  0  0  0  0  0  0  0  0  0
    7.3621   -5.3766    0.0000 O    0  0  0  0  0  0  0  0  0  0  0  0
    9.8411   -3.9422    0.0000 O    0  0  0  0  0  0  0  0  0  0  0  0
    7.3621   -3.9340    0.0000 C    0  0  0  0  0  0  0  0  0  0  0  0
    9.8411   -6.8067    0.0000 O    0  0  0  0  0  0  0  0  0  0  0  0
    6.9559   -3.2251    0.0000 C    0  0  0  0  0  0  0  0  0  0  0  0
    5.7123   -3.9298    0.0000 C    0  0  0  0  0  0  0  0  0  0  0  0
    6.1185   -4.6428    0.0000 C    0  0  0  0  0  0  0  0  0  0  0  0
    5.7248   -2.5038    0.0000 Br   0  0  0  0  0  0  0  0  0  0  0  0
    6.9435   -4.6511    0.0000 C    0  0  0  0  0  0  0  0  0  0  0  0
    4.8874   -3.9174    0.0000 O    0  0  0  0  0  0  0  0  0  0  0  0
    4.4812   -3.2002    0.0000 C    0  0  0  0  0  0  0  0  0  0  0  0
  2  4  1  0  0  0  0
  2  6  1  0  0  0  0
  3  5  1  0  0  0  0
  4  1  1  0  0  0  0
  5  1  1  0  0  0  0
  6  3  1  0  0  0  0
  7  1  2  0  0  0  0
  8 21  1  0  0  0  0
  9  8  3  0  0  0  0
 10 15  2  0  0  0  0
 11  5  2  0  0  0  0
 12  4  2  0  0  0  0
 13  7  1  0  0  0  0
 14  6  2  0  0  0  0
 15 13  1  0  0  0  0
 16 17  2  0  0  0  0
 16 10  1  0  0  0  0
 17 19  1  0  0  0  0
 18 10  1  0  0  0  0
 19 13  2  0  0  0  0
 20 16  1  0  0  0  0
 21 20  1  0  0  0  0
M  END
> <CdId>
709

> <Mol Weight>
349.136

> <Formula>
C14H9BrN2O4

> <Click_ID>
CLK010_D04 __ __ 

$$$$
