CLK009_A11
 OpenBabel03181417022D

 29 33  0  0  0  0  0  0  0  0999 V2000
   -2.2835    0.4921    0.0000 C   0  0  0  0  0  0  0  0  0  0  0  0
   -0.8570    0.4645    0.0000 N   0  0  0  0  0  0  0  0  0  0  0  0
   -1.5703    0.0664    0.0000 C   0  0  0  0  0  0  0  0  0  0  0  0
   -2.2835    1.3214    0.0000 C   0  0  0  0  0  0  0  0  0  0  0  0
   -0.8570    1.3214    0.0000 C   0  0  0  0  0  0  0  0  0  0  0  0
   -1.5703    1.7195    0.0000 N   0  0  0  0  0  0  0  0  0  0  0  0
   -2.9802    0.0664    0.0000 C   0  0  0  0  0  0  0  0  0  0  0  0
   -2.9802    1.7195    0.0000 C   0  0  0  0  0  0  0  0  0  0  0  0
   -3.7156    1.2883    0.0000 C   0  0  0  0  0  0  0  0  0  0  0  0
   -3.6935    0.4645    0.0000 C   0  0  0  0  0  0  0  0  0  0  0  0
    0.5308    3.0134    0.0000 C   0  0  0  0  0  0  0  0  0  0  0  0
    0.5032    3.8096    0.0000 C   0  0  0  0  0  0  0  0  0  0  0  0
   -1.5703   -0.7520    0.0000 O   0  0  0  0  0  0  0  0  0  0  0  0
   -0.1603    0.0664    0.0000 C   0  0  0  0  0  0  0  0  0  0  0  0
   -0.1327    1.7693    0.0000 S   0  0  0  0  0  0  0  0  0  0  0  0
   -2.5489   -0.6469    0.0000 C   0  0  0  0  0  0  0  0  0  0  0  0
   -3.7986    0.0664    0.0000 C   0  0  0  0  0  0  0  0  0  0  0  0
   -0.1603    2.5987    0.0000 C   0  0  0  0  0  0  0  0  0  0  0  0
   -2.9802    2.5379    0.0000 C   0  0  0  0  0  0  0  0  0  0  0  0
   -4.4399    1.6864    0.0000 C   0  0  0  0  0  0  0  0  0  0  0  0
    0.0000   -0.7520    0.0000 C   0  0  0  0  0  0  0  0  0  0  0  0
    0.5806    0.4645    0.0000 C   0  0  0  0  0  0  0  0  0  0  0  0
   -4.2243   -0.6469    0.0000 C   0  0  0  0  0  0  0  0  0  0  0  0
   -2.9470   -1.3658    0.0000 C   0  0  0  0  0  0  0  0  0  0  0  0
   -3.6659    2.9360    0.0000 C   0  0  0  0  0  0  0  0  0  0  0  0
   -4.4399    2.5158    0.0000 C   0  0  0  0  0  0  0  0  0  0  0  0
    0.8184   -0.8350    0.0000 C   0  0  0  0  0  0  0  0  0  0  0  0
    1.1667   -0.1161    0.0000 C   0  0  0  0  0  0  0  0  0  0  0  0
   -3.7764   -1.3934    0.0000 C   0  0  0  0  0  0  0  0  0  0  0  0
  2  3  1  0  0  0  0
  2  5  1  0  0  0  0
  3  1  1  0  0  0  0
  4  1  2  0  0  0  0
  5  6  2  0  0  0  0
  6  4  1  0  0  0  0
  7  1  1  0  0  0  0
  8  4  1  0  0  0  0
  9 10  1  0  0  0  0
  9  8  2  0  0  0  0
 10  7  1  0  0  0  0
 11 18  1  0  0  0  0
 12 11  3  0  0  0  0
 13  3  2  0  0  0  0
 14  2  1  0  0  0  0
 15  5  1  0  0  0  0
 16  7  1  0  0  0  0
 17  7  1  0  0  0  0
 18 15  1  0  0  0  0
 19  8  1  0  0  0  0
 20  9  1  0  0  0  0
 21 14  1  0  0  0  0
 22 14  1  0  0  0  0
 23 17  1  0  0  0  0
 24 16  1  0  0  0  0
 25 19  2  0  0  0  0
 26 20  2  0  0  0  0
 26 25  1  0  0  0  0
 27 21  1  0  0  0  0
 27 28  1  0  0  0  0
 28 22  1  0  0  0  0
 29 23  1  0  0  0  0
 29 24  1  0  0  0  0
M  END
> <CdId>
606

> <Mol Weight>
404.568

> <Formula>
C25H28N2OS

> <Click_ID>
CLK009_A11 __ __ 

$$$$
