CLK023_D06
 OpenBabel03181417022D

 26 28  0  0  0  0  0  0  0  0999 V2000
    3.0660   -0.5431    0.0000 N   0  0  0  0  0  0  0  0  0  0  0  0
    2.5195   -1.1549    0.0000 C   0  0  0  0  0  0  0  0  0  0  0  0
    1.8493    0.0035    0.0000 C   0  0  0  0  0  0  0  0  0  0  0  0
    2.6604    0.1685    0.0000 C   0  0  0  0  0  0  0  0  0  0  0  0
    1.7598   -0.8215    0.0000 S   0  0  0  0  0  0  0  0  0  0  0  0
   -0.8868    0.3025    0.0000 C   0  0  0  0  0  0  0  0  0  0  0  0
    1.2374    0.5500    0.0000 C   0  0  0  0  0  0  0  0  0  0  0  0
   -0.2234    0.7872    0.0000 O   0  0  0  0  0  0  0  0  0  0  0  0
    0.4502    0.3025    0.0000 C   0  0  0  0  0  0  0  0  0  0  0  0
   -1.6740    0.5500    0.0000 C   0  0  0  0  0  0  0  0  0  0  0  0
   -0.6359   -0.4846    0.0000 C   0  0  0  0  0  0  0  0  0  0  0  0
   -1.8389    1.3543    0.0000 C   0  0  0  0  0  0  0  0  0  0  0  0
   -4.0181    1.3130    0.0000 C   0  0  0  0  0  0  0  0  0  0  0  0
   -3.2344    1.0621    0.0000 C   0  0  0  0  0  0  0  0  0  0  0  0
    4.2209   -1.3955    0.0000 C   0  0  0  0  0  0  0  0  0  0  0  0
    0.1994   -0.4812    0.0000 C   0  0  0  0  0  0  0  0  0  0  0  0
   -2.6226    1.6121    0.0000 C   0  0  0  0  0  0  0  0  0  0  0  0
    4.6265   -2.1071    0.0000 C   0  0  0  0  0  0  0  0  0  0  0  0
   -2.2720   -0.0068    0.0000 C   0  0  0  0  0  0  0  0  0  0  0  0
    2.6845   -1.9695    0.0000 O   0  0  0  0  0  0  0  0  0  0  0  0
    2.9972    0.9246    0.0000 O   0  0  0  0  0  0  0  0  0  0  0  0
    3.8840   -0.6359    0.0000 C   0  0  0  0  0  0  0  0  0  0  0  0
   -3.0591    0.2509    0.0000 C   0  0  0  0  0  0  0  0  0  0  0  0
   -4.6300    0.7631    0.0000 O   0  0  0  0  0  0  0  0  0  0  0  0
   -4.1865    2.1104    0.0000 O   0  0  0  0  0  0  0  0  0  0  0  0
   -1.2271    1.9042    0.0000 C   0  0  0  0  0  0  0  0  0  0  0  0
  2  1  1  0  0  0  0
  3  4  1  0  0  0  0
  4  1  1  0  0  0  0
  5  2  1  0  0  0  0
  5  3  1  0  0  0  0
  6  8  1  0  0  0  0
  7  3  2  0  0  0  0
  8  9  1  0  0  0  0
  9  7  1  0  0  0  0
 10  6  1  0  0  0  0
 11 16  1  0  0  0  0
 11  6  2  0  0  0  0
 12 10  2  0  0  0  0
 13 14  1  0  0  0  0
 14 23  1  0  0  0  0
 14 17  2  0  0  0  0
 15 22  1  0  0  0  0
 16  9  2  0  0  0  0
 17 12  1  0  0  0  0
 18 15  3  0  0  0  0
 19 10  1  0  0  0  0
 20  2  2  0  0  0  0
 21  4  2  0  0  0  0
 22  1  1  0  0  0  0
 23 19  2  0  0  0  0
 24 13  2  0  0  0  0
 25 13  1  0  0  0  0
 26 12  1  0  0  0  0
M  END
> <CdId>
1731

> <Mol Weight>
367.375

> <Formula>
C19H13NO5S

> <Click_ID>
CLK023_D06 __ __ 

$$$$
