CLK011_H08
 OpenBabel03181417022D

 27 29  0  0  0  0  0  0  0  0999 V2000
    2.5621   -0.7746    0.0000 N   0  0  0  0  0  0  0  0  0  0  0  0
    1.3246   -0.0596    0.0000 C   0  0  0  0  0  0  0  0  0  0  0  0
    1.7371   -0.7746    0.0000 C   0  0  0  0  0  0  0  0  0  0  0  0
    2.9746   -0.0596    0.0000 C   0  0  0  0  0  0  0  0  0  0  0  0
    2.5621    0.6554    0.0000 N   0  0  0  0  0  0  0  0  0  0  0  0
    1.7371    0.6554    0.0000 C   0  0  0  0  0  0  0  0  0  0  0  0
    0.4996   -0.0596    0.0000 C   0  0  0  0  0  0  0  0  0  0  0  0
    2.9746   -1.4896    0.0000 C   0  0  0  0  0  0  0  0  0  0  0  0
    0.0871   -0.7746    0.0000 C   0  0  0  0  0  0  0  0  0  0  0  0
   -2.3879    0.6554    0.0000 C   0  0  0  0  0  0  0  0  0  0  0  0
    3.7996   -0.0596    0.0000 O   0  0  0  0  0  0  0  0  0  0  0  0
    1.3246   -1.4850    0.0000 O   0  0  0  0  0  0  0  0  0  0  0  0
   -3.2129    0.6554    0.0000 C   0  0  0  0  0  0  0  0  0  0  0  0
    1.3246    1.3704    0.0000 O   0  0  0  0  0  0  0  0  0  0  0  0
    3.7996   -1.4896    0.0000 C   0  0  0  0  0  0  0  0  0  0  0  0
   -0.7379   -0.7746    0.0000 C   0  0  0  0  0  0  0  0  0  0  0  0
    4.2121   -0.7746    0.0000 F   0  0  0  0  0  0  0  0  0  0  0  0
   -1.1504   -0.0596    0.0000 O   0  0  0  0  0  0  0  0  0  0  0  0
   -1.9754   -0.0596    0.0000 C   0  0  0  0  0  0  0  0  0  0  0  0
    2.5621   -2.2046    0.0000 C   0  0  0  0  0  0  0  0  0  0  0  0
    0.4996   -1.4850    0.0000 C   0  0  0  0  0  0  0  0  0  0  0  0
    4.2121   -2.2046    0.0000 C   0  0  0  0  0  0  0  0  0  0  0  0
   -1.1504   -1.4850    0.0000 C   0  0  0  0  0  0  0  0  0  0  0  0
    2.9746   -2.9150    0.0000 C   0  0  0  0  0  0  0  0  0  0  0  0
    0.0871   -2.2000    0.0000 C   0  0  0  0  0  0  0  0  0  0  0  0
   -0.7379   -2.2000    0.0000 C   0  0  0  0  0  0  0  0  0  0  0  0
    3.7996   -2.9150    0.0000 C   0  0  0  0  0  0  0  0  0  0  0  0
  2  3  1  0  0  0  0
  3  1  1  0  0  0  0
  4  1  1  0  0  0  0
  5  4  1  0  0  0  0
  6  5  1  0  0  0  0
  6  2  1  0  0  0  0
  7  2  2  0  0  0  0
  8  1  1  0  0  0  0
  9  7  1  0  0  0  0
 10 19  1  0  0  0  0
 11  4  2  0  0  0  0
 12  3  2  0  0  0  0
 13 10  3  0  0  0  0
 14  6  2  0  0  0  0
 15  8  2  0  0  0  0
 16  9  1  0  0  0  0
 17 15  1  0  0  0  0
 18 16  1  0  0  0  0
 19 18  1  0  0  0  0
 20  8  1  0  0  0  0
 21  9  2  0  0  0  0
 22 15  1  0  0  0  0
 22 27  2  0  0  0  0
 23 16  2  0  0  0  0
 23 26  1  0  0  0  0
 24 20  2  0  0  0  0
 25 21  1  0  0  0  0
 26 25  2  0  0  0  0
 27 24  1  0  0  0  0
M  END
> <CdId>
833

> <Mol Weight>
364.3266

> <Formula>
C20H13FN2O4

> <Click_ID>
CLK011_H08 __ __ 

$$$$
