CLK003_H03
 OpenBabel03181417022D

 27 29  0  0  0  0  0  0  0  0999 V2000
   -0.8181   -0.3371    0.0000 C    0  0  3  0  0  0  0  0  0  0  0  0
   -1.6097   -0.5984    0.0000 C    0  0  0  0  0  0  0  0  0  0  0  0
   -0.3598   -0.9696    0.0000 C    0  0  0  0  0  0  0  0  0  0  0  0
    0.0227    0.4318    0.0000 C    0  0  0  0  0  0  0  0  0  0  0  0
   -1.2120    0.5303    0.0000 O    0  0  0  0  0  0  0  0  0  0  0  0
   -1.6097   -1.4242    0.0000 C    0  0  0  0  0  0  0  0  0  0  0  0
   -2.3255   -0.1818    0.0000 C    0  0  0  0  0  0  0  0  0  0  0  0
   -0.8181   -1.6779    0.0000 N    0  0  0  0  0  0  0  0  0  0  0  0
    0.4356   -1.0377    0.0000 O    0  0  0  0  0  0  0  0  0  0  0  0
    0.9848    0.2576    0.0000 C    0  0  0  0  0  0  0  0  0  0  0  0
   -2.3255   -1.8332    0.0000 C    0  0  0  0  0  0  0  0  0  0  0  0
   -3.0376   -0.5984    0.0000 C    0  0  0  0  0  0  0  0  0  0  0  0
   -0.5416   -2.4543    0.0000 C    0  0  0  0  0  0  0  0  0  0  0  0
    1.4885    0.9128    0.0000 C    0  0  0  0  0  0  0  0  0  0  0  0
    1.2613   -0.3258    0.0000 O    0  0  0  0  0  0  0  0  0  0  0  0
   -3.0376   -1.4242    0.0000 C    0  0  0  0  0  0  0  0  0  0  0  0
   -3.7534   -0.1856    0.0000 Br   0  0  0  0  0  0  0  0  0  0  0  0
   -1.0756   -3.0830    0.0000 C    0  0  0  0  0  0  0  0  0  0  0  0
    2.3029    0.8029    0.0000 C    0  0  0  0  0  0  0  0  0  0  0  0
    1.1742    1.6703    0.0000 C    0  0  0  0  0  0  0  0  0  0  0  0
   -1.6097   -3.7118    0.0000 C    0  0  0  0  0  0  0  0  0  0  0  0
    2.8066    1.4506    0.0000 C    0  0  0  0  0  0  0  0  0  0  0  0
    1.6703    2.3255    0.0000 C    0  0  0  0  0  0  0  0  0  0  0  0
    2.4960    2.2157    0.0000 C    0  0  0  0  0  0  0  0  0  0  0  0
    2.9884    2.8747    0.0000 C    0  0  0  0  0  0  0  0  0  0  0  0
    3.8140    2.7535    0.0000 C    0  0  0  0  0  0  0  0  0  0  0  0
    2.6816    3.6284    0.0000 C    0  0  0  0  0  0  0  0  0  0  0  0
  1  2  1  0  0  0  0
  1  3  1  0  0  0  0
  1  4  1  0  0  0  0
  1  5  1  0  0  0  0
  2  6  2  0  0  0  0
  2  7  1  0  0  0  0
  3  8  1  0  0  0  0
  3  9  2  0  0  0  0
  4 10  1  0  0  0  0
  6 11  1  0  0  0  0
  6  8  1  0  0  0  0
  7 12  2  0  0  0  0
  8 13  1  0  0  0  0
 10 14  1  0  0  0  0
 10 15  2  0  0  0  0
 11 16  2  0  0  0  0
 12 17  1  0  0  0  0
 12 16  1  0  0  0  0
 13 18  1  0  0  0  0
 14 19  1  0  0  0  0
 14 20  2  0  0  0  0
 18 21  3  0  0  0  0
 19 22  2  0  0  0  0
 20 23  1  0  0  0  0
 22 24  1  0  0  0  0
 23 24  2  0  0  0  0
 24 25  1  0  0  0  0
 25 26  1  0  0  0  0
 25 27  1  0  0  0  0
M  END
> <CdId>
232

> <Mol Weight>
426.303

> <Formula>
C22H20BrNO3

> <Click_ID>
CLK003_H03 __ __ 

$$$$
