CLK009_C03
 OpenBabel03181417022D

 15 15  0  0  0  0  0  0  0  0999 V2000
    1.4210   -1.2372    0.0000 C   0  0  0  0  0  0  0  0  0  0  0  0
    2.1344   -1.6594    0.0000 C   0  0  0  0  0  0  0  0  0  0  0  0
    0.7056   -0.8151    0.0000 C   0  0  0  0  0  0  0  0  0  0  0  0
    1.4386   -0.4398    0.0000 O   0  0  0  0  0  0  0  0  0  0  0  0
   -0.0156   -1.2196    0.0000 C   0  0  0  0  0  0  0  0  0  0  0  0
    0.7056    0.0215    0.0000 C   0  0  0  0  0  0  0  0  0  0  0  0
   -0.7193   -0.8053    0.0000 C   0  0  0  0  0  0  0  0  0  0  0  0
   -0.0059    0.4319    0.0000 C   0  0  0  0  0  0  0  0  0  0  0  0
   -2.1441   -0.8053    0.0000 C   0  0  0  0  0  0  0  0  0  0  0  0
   -1.4307   -1.2196    0.0000 C   0  0  0  0  0  0  0  0  0  0  0  0
   -2.1441    0.0215    0.0000 C   0  0  0  0  0  0  0  0  0  0  0  0
   -1.4307    0.4319    0.0000 C   0  0  0  0  0  0  0  0  0  0  0  0
   -1.4229    1.2587    0.0000 C   0  0  0  0  0  0  0  0  0  0  0  0
   -0.7193    1.6633    0.0000 C   0  0  0  0  0  0  0  0  0  0  0  0
   -0.0059    1.2587    0.0000 C   0  0  0  0  0  0  0  0  0  0  0  0
  2  1  3  0  0  0  0
  3  1  1  0  0  0  0
  4  3  1  0  0  0  0
  5  3  1  0  0  0  0
  6  3  1  0  0  0  0
  7  5  1  0  0  0  0
  8  6  1  0  0  0  0
  9 10  1  0  0  0  0
 10  7  1  0  0  0  0
 11  9  1  0  0  0  0
 11 12  1  0  0  0  0
 12 13  1  0  0  0  0
 13 14  1  0  0  0  0
 14 15  1  0  0  0  0
 15  8  1  0  0  0  0
M  END
> <CdId>
618

> <Mol Weight>
208.3398

> <Formula>
C14H24O

> <Click_ID>
CLK009_C03 __ __ 

$$$$
