CLK042A10
 OpenBabel03181417022D

 25 28  0  0  0  0  0  0  0  0999 V2000
    0.0167    1.4167    0.0000 C    0  0  0  0  0  0  0  0  0  0  0  0
   -0.7000    1.0042    0.0000 C    0  0  0  0  0  0  0  0  0  0  0  0
    0.8000    1.1625    0.0000 C    0  0  0  0  0  0  0  0  0  0  0  0
    0.0167    2.2417    0.0000 C    0  0  0  0  0  0  0  0  0  0  0  0
    1.2875    1.8292    0.0000 C    0  0  0  0  0  0  0  0  0  0  0  0
   -0.7000    0.1792    0.0000 N    0  0  0  0  0  0  0  0  0  0  0  0
    0.8000    2.4958    0.0000 S    0  0  0  0  0  0  0  0  0  0  0  0
   -1.4125    1.4167    0.0000 N    0  0  0  0  0  0  0  0  0  0  0  0
   -0.7000    2.6542    0.0000 N    0  0  0  0  0  0  0  0  0  0  0  0
   -1.4125   -2.7083    0.0000 C    0  0  0  0  0  0  0  0  0  0  0  0
   -0.7000   -1.4708    0.0000 N    0  0  0  0  0  0  0  0  0  0  0  0
   -2.1292   -3.1208    0.0000 C    0  0  0  0  0  0  0  0  0  0  0  0
    1.0542    0.3792    0.0000 C    0  0  0  0  0  0  0  0  0  0  0  0
   -1.4125    2.2417    0.0000 C    0  0  0  0  0  0  0  0  0  0  0  0
    0.0167   -0.2333    0.0000 C    0  0  0  0  0  0  0  0  0  0  0  0
   -1.4125   -0.2333    0.0000 C    0  0  0  0  0  0  0  0  0  0  0  0
    0.5042   -0.2375    0.0000 C    0  0  0  0  0  0  0  0  0  0  0  0
    1.8625    0.2042    0.0000 C    0  0  0  0  0  0  0  0  0  0  0  0
   -1.4125   -1.0583    0.0000 C    0  0  0  0  0  0  0  0  0  0  0  0
    0.0167   -1.0583    0.0000 C    0  0  0  0  0  0  0  0  0  0  0  0
   -0.7000   -2.2958    0.0000 C    0  0  0  0  0  0  0  0  0  0  0  0
    1.5667   -1.1917    0.0000 C    0  0  0  0  0  0  0  0  0  0  0  0
    2.1167   -0.5792    0.0000 C    0  0  0  0  0  0  0  0  0  0  0  0
    0.7583   -1.0208    0.0000 C    0  0  0  0  0  0  0  0  0  0  0  0
    1.8208   -1.9750    0.0000 Br   0  0  0  0  0  0  0  0  0  0  0  0
  2  1  1  0  0  0  0
  3  1  1  0  0  0  0
  4  1  2  0  0  0  0
  5  3  2  0  0  0  0
  6  2  1  0  0  0  0
  7  4  1  0  0  0  0
  7  5  1  0  0  0  0
  8  2  2  0  0  0  0
  8 14  1  0  0  0  0
  9  4  1  0  0  0  0
 10 21  1  0  0  0  0
 11 20  1  0  0  0  0
 11 19  1  0  0  0  0
 12 10  3  0  0  0  0
 13  3  1  0  0  0  0
 14  9  2  0  0  0  0
 15  6  1  0  0  0  0
 16  6  1  0  0  0  0
 17 13  2  0  0  0  0
 18 13  1  0  0  0  0
 19 16  1  0  0  0  0
 20 15  1  0  0  0  0
 21 11  1  0  0  0  0
 22 24  2  0  0  0  0
 23 18  2  0  0  0  0
 23 22  1  0  0  0  0
 24 17  1  0  0  0  0
 25 22  1  0  0  0  0
M  END
> <CdId>
3233

> <Mol Weight>
413.334

> <Formula>
C19H17BrN4S

> <Click_ID>
CLK042A10 __ __ 

$$$$
