CLK035_H10
 OpenBabel03181417022D

 32 36  0  0  0  0  0  0  0  0999 V2000
   -0.8234    2.1945    0.0000 C   0  0  0  0  0  0  0  0  0  0  0  0
    3.2772    4.2678    0.0000 S   0  0  0  0  0  0  0  0  0  0  0  0
   -0.0334    2.4536    0.0000 N   0  0  0  0  0  0  0  0  0  0  0  0
   -1.0784    1.4045    0.0000 N   0  0  0  0  0  0  0  0  0  0  0  0
   -1.4923    2.6793    0.0000 S   0  0  0  0  0  0  0  0  0  0  0  0
   -1.9144    1.4045    0.0000 C   0  0  0  0  0  0  0  0  0  0  0  0
   -2.1652    2.1903    0.0000 C   0  0  0  0  0  0  0  0  0  0  0  0
    0.1379    3.2562    0.0000 C   0  0  0  0  0  0  0  0  0  0  0  0
    4.0755    4.5312    0.0000 N   0  0  0  0  0  0  0  0  0  0  0  0
   -2.4578    0.7983    0.0000 C   0  0  0  0  0  0  0  0  0  0  0  0
   -2.9678    2.3658    0.0000 C   0  0  0  0  0  0  0  0  0  0  0  0
   -3.2604    0.9656    0.0000 C   0  0  0  0  0  0  0  0  0  0  0  0
   -3.5195    1.7514    0.0000 C   0  0  0  0  0  0  0  0  0  0  0  0
    2.4955    4.0170    0.0000 C   0  0  0  0  0  0  0  0  0  0  0  0
    0.2132    0.8234    0.0000 C   0  0  0  0  0  0  0  0  0  0  0  0
    3.0264    5.0578    0.0000 O   0  0  0  0  0  0  0  0  0  0  0  0
    3.5405    3.4944    0.0000 O   0  0  0  0  0  0  0  0  0  0  0  0
    0.5560    1.5758    0.0000 C   0  0  0  0  0  0  0  0  0  0  0  0
    0.9196    3.5112    0.0000 C   0  0  0  0  0  0  0  0  0  0  0  0
   -3.9333    0.4765    0.0000 O   0  0  0  0  0  0  0  0  0  0  0  0
   -4.3472    1.7514    0.0000 O   0  0  0  0  0  0  0  0  0  0  0  0
   -4.5980    0.9614    0.0000 C   0  0  0  0  0  0  0  0  0  0  0  0
   -0.4765    3.8122    0.0000 O   0  0  0  0  0  0  0  0  0  0  0  0
   -0.5977    0.7399    0.0000 C   0  0  0  0  0  0  0  0  0  0  0  0
    1.8810    4.5688    0.0000 C   0  0  0  0  0  0  0  0  0  0  0  0
    2.3241    3.2186    0.0000 C   0  0  0  0  0  0  0  0  0  0  0  0
    1.0952    4.3054    0.0000 C   0  0  0  0  0  0  0  0  0  0  0  0
    1.5341    2.9552    0.0000 C   0  0  0  0  0  0  0  0  0  0  0  0
    4.6816    3.9960    0.0000 C   0  0  0  0  0  0  0  0  0  0  0  0
    4.4058    5.2836    0.0000 C   0  0  0  0  0  0  0  0  0  0  0  0
    5.2334    5.1958    0.0000 C   0  0  0  0  0  0  0  0  0  0  0  0
    5.4047    4.3932    0.0000 C   0  0  0  0  0  0  0  0  0  0  0  0
  2 14  1  0  0  0  0
  3  1  2  0  0  0  0
  4  1  1  0  0  0  0
  5  1  1  0  0  0  0
  6  4  1  0  0  0  0
  7  5  1  0  0  0  0
  7  6  2  0  0  0  0
  8  3  1  0  0  0  0
  9  2  1  0  0  0  0
 10  6  1  0  0  0  0
 11  7  1  0  0  0  0
 12 10  2  0  0  0  0
 13 11  2  0  0  0  0
 13 12  1  0  0  0  0
 14 26  2  0  0  0  0
 14 25  1  0  0  0  0
 15 24  1  0  0  0  0
 16  2  2  0  0  0  0
 17  2  2  0  0  0  0
 18 15  3  0  0  0  0
 19  8  1  0  0  0  0
 20 12  1  0  0  0  0
 20 22  1  0  0  0  0
 21 13  1  0  0  0  0
 22 21  1  0  0  0  0
 23  8  2  0  0  0  0
 24  4  1  0  0  0  0
 25 27  2  0  0  0  0
 26 28  1  0  0  0  0
 27 19  1  0  0  0  0
 28 19  2  0  0  0  0
 29  9  1  0  0  0  0
 30  9  1  0  0  0  0
 31 30  1  0  0  0  0
 32 29  1  0  0  0  0
 32 31  1  0  0  0  0
M  END
> <CdId>
2724

> <Mol Weight>
469.533

> <Formula>
C22H19N3O5S2

> <Click_ID>
CLK035_H10 __ __ 

$$$$
