CLK022_H05
 OpenBabel03181417022D

 26 28  0  0  0  0  0  0  0  0999 V2000
    2.6294    2.4278    0.0000 C   0  0  0  0  0  0  0  0  0  0  0  0
    3.3440    2.0155    0.0000 N   0  0  0  0  0  0  0  0  0  0  0  0
    4.7732    1.1910    0.0000 N   0  0  0  0  0  0  0  0  0  0  0  0
    5.4878    0.7787    0.0000 C   0  0  0  0  0  0  0  0  0  0  0  0
   -0.9345   -0.4581    0.0000 C   0  0  0  0  0  0  0  0  0  0  0  0
   -1.6491   -0.8704    0.0000 C   0  0  0  0  0  0  0  0  0  0  0  0
    1.9148    2.0155    0.0000 C   0  0  0  0  0  0  0  0  0  0  0  0
    4.0586    2.4278    0.0000 C   0  0  0  0  0  0  0  0  0  0  0  0
    3.3440    1.1910    0.0000 C   0  0  0  0  0  0  0  0  0  0  0  0
    4.0586    0.7787    0.0000 C   0  0  0  0  0  0  0  0  0  0  0  0
    4.7732    2.0155    0.0000 C   0  0  0  0  0  0  0  0  0  0  0  0
    2.6294    3.2523    0.0000 O   0  0  0  0  0  0  0  0  0  0  0  0
    5.4878   -0.0458    0.0000 C   0  0  0  0  0  0  0  0  0  0  0  0
    1.2002    2.4278    0.0000 C   0  0  0  0  0  0  0  0  0  0  0  0
    1.9148    1.1910    0.0000 C   0  0  0  0  0  0  0  0  0  0  0  0
    0.4856    1.1910    0.0000 C   0  0  0  0  0  0  0  0  0  0  0  0
    0.4856    2.0155    0.0000 C   0  0  0  0  0  0  0  0  0  0  0  0
    1.2002    0.7787    0.0000 C   0  0  0  0  0  0  0  0  0  0  0  0
    4.7732   -0.4581    0.0000 O   0  0  0  0  0  0  0  0  0  0  0  0
   -0.2290   -0.0458    0.0000 C   0  0  0  0  0  0  0  0  0  0  0  0
   -0.2290    0.7787    0.0000 O   0  0  0  0  0  0  0  0  0  0  0  0
    6.2024    1.1910    0.0000 C   0  0  0  0  0  0  0  0  0  0  0  0
    6.2024   -0.4581    0.0000 C   0  0  0  0  0  0  0  0  0  0  0  0
    4.7732   -1.2827    0.0000 C   0  0  0  0  0  0  0  0  0  0  0  0
    6.9170    0.7787    0.0000 C   0  0  0  0  0  0  0  0  0  0  0  0
    6.9170   -0.0458    0.0000 C   0  0  0  0  0  0  0  0  0  0  0  0
  2  1  1  0  0  0  0
  3 10  1  0  0  0  0
  4  3  1  0  0  0  0
  5 20  1  0  0  0  0
  6  5  3  0  0  0  0
  7  1  1  0  0  0  0
  8  2  1  0  0  0  0
  9  2  1  0  0  0  0
 10  9  1  0  0  0  0
 11  8  1  0  0  0  0
 11  3  1  0  0  0  0
 12  1  2  0  0  0  0
 13  4  1  0  0  0  0
 14  7  1  0  0  0  0
 15  7  2  0  0  0  0
 16 18  2  0  0  0  0
 17 14  2  0  0  0  0
 17 16  1  0  0  0  0
 18 15  1  0  0  0  0
 19 13  1  0  0  0  0
 20 21  1  0  0  0  0
 21 16  1  0  0  0  0
 22  4  2  0  0  0  0
 23 13  2  0  0  0  0
 24 19  1  0  0  0  0
 25 22  1  0  0  0  0
 26 25  2  0  0  0  0
 26 23  1  0  0  0  0
M  END
> <CdId>
1693

> <Mol Weight>
350.411

> <Formula>
C21H22N2O3

> <Click_ID>
CLK022_H05 __ __ 

$$$$
