CLK006_A06
 OpenBabel03181417022D

 24 26  0  0  0  0  0  0  0  0999 V2000
   -2.3446    0.3724    0.0000 C   0  0  0  0  0  0  0  0  0  0  0  0
   -1.6723   -0.1069    0.0000 N   0  0  0  0  0  0  0  0  0  0  0  0
   -2.0860    1.1620    0.0000 C   0  0  0  0  0  0  0  0  0  0  0  0
   -3.1514    0.2000    0.0000 C   0  0  0  0  0  0  0  0  0  0  0  0
   -1.0068    0.3724    0.0000 C   0  0  0  0  0  0  0  0  0  0  0  0
   -1.6723   -0.9309    0.0000 C   0  0  0  0  0  0  0  0  0  0  0  0
   -1.2620    1.1585    0.0000 N   0  0  0  0  0  0  0  0  0  0  0  0
   -2.6412    1.7791    0.0000 C   0  0  0  0  0  0  0  0  0  0  0  0
   -3.7066    0.8171    0.0000 C   0  0  0  0  0  0  0  0  0  0  0  0
   -0.2931   -0.0379    0.0000 C   0  0  0  0  0  0  0  0  0  0  0  0
   -2.3895   -1.3447    0.0000 C   0  0  0  0  0  0  0  0  0  0  0  0
   -3.4514    1.6102    0.0000 C   0  0  0  0  0  0  0  0  0  0  0  0
    0.4172    0.3759    0.0000 C   0  0  0  0  0  0  0  0  0  0  0  0
   -2.3895   -2.1688    0.0000 C   0  0  0  0  0  0  0  0  0  0  0  0
    1.1309   -0.0379    0.0000 N   0  0  0  0  0  0  0  0  0  0  0  0
    1.8412    0.3759    0.0000 C   0  0  0  0  0  0  0  0  0  0  0  0
    2.5550   -0.0379    0.0000 C   0  0  0  0  0  0  0  0  0  0  0  0
    1.8412    1.1999    0.0000 O   0  0  0  0  0  0  0  0  0  0  0  0
    2.5515   -0.8620    0.0000 C   0  0  0  0  0  0  0  0  0  0  0  0
    3.2652    0.3724    0.0000 C   0  0  0  0  0  0  0  0  0  0  0  0
    3.2583   -1.2723    0.0000 C   0  0  0  0  0  0  0  0  0  0  0  0
    3.9721   -0.0379    0.0000 C   0  0  0  0  0  0  0  0  0  0  0  0
    3.9756   -0.8654    0.0000 C   0  0  0  0  0  0  0  0  0  0  0  0
    3.2583   -2.0998    0.0000 C   0  0  0  0  0  0  0  0  0  0  0  0
  1  2  1  0  0  0  0
  1  3  2  0  0  0  0
  1  4  1  0  0  0  0
  2  5  1  0  0  0  0
  2  6  1  0  0  0  0
  3  7  1  0  0  0  0
  3  8  1  0  0  0  0
  4  9  2  0  0  0  0
  5 10  1  0  0  0  0
  5  7  2  0  0  0  0
  6 11  1  0  0  0  0
  8 12  2  0  0  0  0
  9 12  1  0  0  0  0
 10 13  1  0  0  0  0
 11 14  3  0  0  0  0
 13 15  1  0  0  0  0
 15 16  1  0  0  0  0
 16 17  1  0  0  0  0
 16 18  2  0  0  0  0
 17 19  2  0  0  0  0
 17 20  1  0  0  0  0
 19 21  1  0  0  0  0
 20 22  2  0  0  0  0
 21 23  2  0  0  0  0
 21 24  1  0  0  0  0
 22 23  1  0  0  0  0
M  END
> <CdId>
405

> <Mol Weight>
317.3844

> <Formula>
C20H19N3O

> <Click_ID>
CLK006_A06 __ __ 

$$$$
