CLK047C02
 OpenBabel03181417022D

 14 14  0  0  0  0  0  0  0  0999 V2000
   -0.2042   -0.2333    0.0000 C   0  0  0  0  0  0  0  0  0  0  0  0
   -0.2042    0.5917    0.0000 C   0  0  0  0  0  0  0  0  0  0  0  0
   -0.9208   -0.6458    0.0000 C   0  0  0  0  0  0  0  0  0  0  0  0
    1.2208    2.2417    0.0000 C   0  0  0  0  0  0  0  0  0  0  0  0
    1.9375    2.6542    0.0000 C   0  0  0  0  0  0  0  0  0  0  0  0
    0.5083   -0.6458    0.0000 C   0  0  0  0  0  0  0  0  0  0  0  0
   -0.9208   -1.4708    0.0000 C   0  0  0  0  0  0  0  0  0  0  0  0
   -0.9208    1.0042    0.0000 O   0  0  0  0  0  0  0  0  0  0  0  0
    0.5083    1.0042    0.0000 N   0  0  0  0  0  0  0  0  0  0  0  0
    0.5083   -1.4708    0.0000 C   0  0  0  0  0  0  0  0  0  0  0  0
   -0.2042   -1.8833    0.0000 C   0  0  0  0  0  0  0  0  0  0  0  0
    0.5083    1.8292    0.0000 C   0  0  0  0  0  0  0  0  0  0  0  0
   -1.6333   -0.2333    0.0000 C   0  0  0  0  0  0  0  0  0  0  0  0
   -0.2042   -2.7083    0.0000 C   0  0  0  0  0  0  0  0  0  0  0  0
  2  1  1  0  0  0  0
  3  1  2  0  0  0  0
  4 12  1  0  0  0  0
  5  4  3  0  0  0  0
  6  1  1  0  0  0  0
  7  3  1  0  0  0  0
  8  2  2  0  0  0  0
  9  2  1  0  0  0  0
 10  6  2  0  0  0  0
 10 11  1  0  0  0  0
 11  7  2  0  0  0  0
 12  9  1  0  0  0  0
 13  3  1  0  0  0  0
 14 11  1  0  0  0  0
M  END
> <CdId>
3571

> <Mol Weight>
187.2377

> <Formula>
C12H13NO

> <Click_ID>
CLK047C02 __ __ 

$$$$
