CLK001_G11
 OpenBabel03181417022D

 24 25  0  0  0  0  0  0  0  0999 V2000
    2.1776   -0.4054    0.0000 C   0  0  0  0  0  0  0  0  0  0  0  0
    2.8903   -0.8141    0.0000 C   0  0  0  0  0  0  0  0  0  0  0  0
    2.1711    0.4218    0.0000 C   0  0  0  0  0  0  0  0  0  0  0  0
    1.4615   -0.8174    0.0000 N   0  0  0  0  0  0  0  0  0  0  0  0
    3.6031   -0.3989    0.0000 C   0  0  0  0  0  0  0  0  0  0  0  0
    2.8936   -1.6413    0.0000 C   0  0  0  0  0  0  0  0  0  0  0  0
    2.8838    0.8337    0.0000 C   0  0  0  0  0  0  0  0  0  0  0  0
    1.4550    0.8403    0.0000 N   0  0  0  0  0  0  0  0  0  0  0  0
    1.4648   -1.6413    0.0000 C   0  0  0  0  0  0  0  0  0  0  0  0
    3.6031    0.4218    0.0000 C   0  0  0  0  0  0  0  0  0  0  0  0
    2.1808   -2.0533    0.0000 C   0  0  0  0  0  0  0  0  0  0  0  0
    3.6096   -2.0632    0.0000 C   0  0  0  0  0  0  0  0  0  0  0  0
    0.7357    0.4283    0.0000 C   0  0  0  0  0  0  0  0  0  0  0  0
    0.0229    0.8436    0.0000 C   0  0  0  0  0  0  0  0  0  0  0  0
    0.7357   -0.3924    0.0000 O   0  0  0  0  0  0  0  0  0  0  0  0
   -0.6899    0.4316    0.0000 C   0  0  0  0  0  0  0  0  0  0  0  0
   -1.4060    0.8468    0.0000 C   0  0  0  0  0  0  0  0  0  0  0  0
   -2.1154    0.4348    0.0000 C   0  0  0  0  0  0  0  0  0  0  0  0
   -2.8282    0.8534    0.0000 C   0  0  0  0  0  0  0  0  0  0  0  0
   -3.5410    0.4414    0.0000 C   0  0  0  0  0  0  0  0  0  0  0  0
   -4.2571    0.8566    0.0000 C   0  0  0  0  0  0  0  0  0  0  0  0
   -4.9698    0.4447    0.0000 C   0  0  0  0  0  0  0  0  0  0  0  0
   -5.6826    0.8599    0.0000 C   0  0  0  0  0  0  0  0  0  0  0  0
   -6.3986    1.2719    0.0000 C   0  0  0  0  0  0  0  0  0  0  0  0
  1  2  1  0  0  0  0
  1  3  2  0  0  0  0
  1  4  1  0  0  0  0
  2  5  2  0  0  0  0
  2  6  1  0  0  0  0
  3  7  1  0  0  0  0
  3  8  1  0  0  0  0
  4  9  2  0  0  0  0
  5 10  1  0  0  0  0
  6 11  2  0  0  0  0
  6 12  1  0  0  0  0
  7 10  2  0  0  0  0
  8 13  1  0  0  0  0
  9 11  1  0  0  0  0
 13 14  1  0  0  0  0
 13 15  2  0  0  0  0
 14 16  1  0  0  0  0
 16 17  1  0  0  0  0
 17 18  1  0  0  0  0
 18 19  1  0  0  0  0
 19 20  1  0  0  0  0
 20 21  1  0  0  0  0
 21 22  1  0  0  0  0
 22 23  1  0  0  0  0
 23 24  3  0  0  0  0
M  END
> <CdId>
70

> <Mol Weight>
322.4439

> <Formula>
C21H26N2O

> <Click_ID>
CLK001_G11 __ __ 

$$$$
