CLK012_F05
 OpenBabel03181417022D

 21 22  0  0  0  0  0  0  0  0999 V2000
    1.5667   -0.8167    0.0000 N    0  0  0  0  0  0  0  0  0  0  0  0
    1.8250   -1.6042    0.0000 C    0  0  0  0  0  0  0  0  0  0  0  0
    2.9042   -0.8167    0.0000 C    0  0  0  0  0  0  0  0  0  0  0  0
    2.2375   -0.3292    0.0000 C    0  0  0  0  0  0  0  0  0  0  0  0
    2.6500   -1.6042    0.0000 S    0  0  0  0  0  0  0  0  0  0  0  0
    3.9750   -0.4667    0.0000 C    0  0  0  0  0  0  0  0  0  0  0  0
    4.1542    0.3333    0.0000 C    0  0  0  0  0  0  0  0  0  0  0  0
    3.5542    0.8958    0.0000 C    0  0  0  0  0  0  0  0  0  0  0  0
    3.7417    1.6958    0.0000 C    0  0  0  0  0  0  0  0  0  0  0  0
    0.6125    0.2458    0.0000 C    0  0  0  0  0  0  0  0  0  0  0  0
    4.5292    1.9375    0.0000 C    0  0  0  0  0  0  0  0  0  0  0  0
    0.3917    1.0458    0.0000 C    0  0  0  0  0  0  0  0  0  0  0  0
    1.3375   -2.2667    0.0000 O    0  0  0  0  0  0  0  0  0  0  0  0
    4.9500    0.5833    0.0000 C    0  0  0  0  0  0  0  0  0  0  0  0
    2.2292    0.4958    0.0000 O    0  0  0  0  0  0  0  0  0  0  0  0
    5.1292    1.3833    0.0000 C    0  0  0  0  0  0  0  0  0  0  0  0
    0.7875   -0.5625    0.0000 C    0  0  0  0  0  0  0  0  0  0  0  0
    2.7542    0.6500    0.0000 O    0  0  0  0  0  0  0  0  0  0  0  0
    3.1375    2.2708    0.0000 O    0  0  0  0  0  0  0  0  0  0  0  0
    5.9167    1.6208    0.0000 Br   0  0  0  0  0  0  0  0  0  0  0  0
    2.3500    2.0208    0.0000 C    0  0  0  0  0  0  0  0  0  0  0  0
  2  1  1  0  0  0  0
  3  4  1  0  0  0  0
  4  1  1  0  0  0  0
  5  2  1  0  0  0  0
  5  3  1  0  0  0  0
  6  3  2  0  0  0  0
  7  6  1  0  0  0  0
  8  7  1  0  0  0  0
  9  8  2  0  0  0  0
  9 11  1  0  0  0  0
 10 17  1  0  0  0  0
 11 16  2  0  0  0  0
 12 10  3  0  0  0  0
 13  2  2  0  0  0  0
 14  7  2  0  0  0  0
 15  4  2  0  0  0  0
 16 14  1  0  0  0  0
 17  1  1  0  0  0  0
 18  8  1  0  0  0  0
 19  9  1  0  0  0  0
 20 16  1  0  0  0  0
 21 19  1  0  0  0  0
M  END
> <CdId>
890

> <Mol Weight>
368.203

> <Formula>
C14H10BrNO4S

> <Click_ID>
CLK012_F05 __ __ 

$$$$
