CLK015_G07
 OpenBabel03181417022D

 21 22  0  0  0  0  0  0  0  0999 V2000
    1.5642   -0.8154    0.0000 N   0  0  0  0  0  0  0  0  0  0  0  0
    1.8221   -1.6016    0.0000 C   0  0  0  0  0  0  0  0  0  0  0  0
    2.2339   -0.3287    0.0000 C   0  0  0  0  0  0  0  0  0  0  0  0
    2.8995   -0.8154    0.0000 C   0  0  0  0  0  0  0  0  0  0  0  0
    2.6457   -1.6016    0.0000 S   0  0  0  0  0  0  0  0  0  0  0  0
    3.6858   -0.5616    0.0000 C   0  0  0  0  0  0  0  0  0  0  0  0
    0.6115    0.2454    0.0000 C   0  0  0  0  0  0  0  0  0  0  0  0
    0.3911    1.0441    0.0000 C   0  0  0  0  0  0  0  0  0  0  0  0
    1.3353   -2.2631    0.0000 O   0  0  0  0  0  0  0  0  0  0  0  0
    3.4195    1.5974    0.0000 C   0  0  0  0  0  0  0  0  0  0  0  0
    2.2256    0.4950    0.0000 O   0  0  0  0  0  0  0  0  0  0  0  0
    3.8605    0.2454    0.0000 C   0  0  0  0  0  0  0  0  0  0  0  0
    0.7862   -0.5616    0.0000 C   0  0  0  0  0  0  0  0  0  0  0  0
    4.2057    1.8553    0.0000 C   0  0  0  0  0  0  0  0  0  0  0  0
    3.2448    0.7945    0.0000 C   0  0  0  0  0  0  0  0  0  0  0  0
    4.8214    1.2937    0.0000 C   0  0  0  0  0  0  0  0  0  0  0  0
    4.6467    0.4950    0.0000 C   0  0  0  0  0  0  0  0  0  0  0  0
    2.8122    2.1424    0.0000 O   0  0  0  0  0  0  0  0  0  0  0  0
    4.3804    2.6540    0.0000 O   0  0  0  0  0  0  0  0  0  0  0  0
    2.9869    2.9535    0.0000 C   0  0  0  0  0  0  0  0  0  0  0  0
    2.3754    3.5027    0.0000 C   0  0  0  0  0  0  0  0  0  0  0  0
  2  1  1  0  0  0  0
  3  1  1  0  0  0  0
  4  3  1  0  0  0  0
  4  5  1  0  0  0  0
  5  2  1  0  0  0  0
  6  4  2  0  0  0  0
  7 13  1  0  0  0  0
  8  7  3  0  0  0  0
  9  2  2  0  0  0  0
 10 15  1  0  0  0  0
 10 14  2  0  0  0  0
 11  3  2  0  0  0  0
 12  6  1  0  0  0  0
 13  1  1  0  0  0  0
 14 16  1  0  0  0  0
 15 12  2  0  0  0  0
 16 17  2  0  0  0  0
 17 12  1  0  0  0  0
 18 10  1  0  0  0  0
 19 14  1  0  0  0  0
 20 18  1  0  0  0  0
 21 20  1  0  0  0  0
M  END
> <CdId>
1142

> <Mol Weight>
303.333

> <Formula>
C15H13NO4S

> <Click_ID>
CLK015_G07 __ __ 

$$$$
