CLK029_B07
 OpenBabel03181417022D

 26 29  0  0  0  0  0  0  0  0999 V2000
    0.2010   -0.9024    0.0000 N   0  0  0  0  0  0  0  0  0  0  0  0
    1.0131   -0.7424    0.0000 C   0  0  0  0  0  0  0  0  0  0  0  0
   -0.1927   -0.1764    0.0000 C   0  0  0  0  0  0  0  0  0  0  0  0
    1.1115    0.0615    0.0000 N   0  0  0  0  0  0  0  0  0  0  0  0
    0.3814    0.4142    0.0000 N   0  0  0  0  0  0  0  0  0  0  0  0
   -2.2353    0.6111    0.0000 C   0  0  0  0  0  0  0  0  0  0  0  0
   -2.7070    1.2797    0.0000 N   0  0  0  0  0  0  0  0  0  0  0  0
   -2.7070   -0.0287    0.0000 S   0  0  0  0  0  0  0  0  0  0  0  0
   -3.4780    1.0459    0.0000 C   0  0  0  0  0  0  0  0  0  0  0  0
   -3.4780    0.2173    0.0000 C   0  0  0  0  0  0  0  0  0  0  0  0
    3.0187   -1.5914    0.0000 C   0  0  0  0  0  0  0  0  0  0  0  0
    3.6298   -2.1451    0.0000 C   0  0  0  0  0  0  0  0  0  0  0  0
   -1.4109    0.5742    0.0000 S   0  0  0  0  0  0  0  0  0  0  0  0
   -0.1435   -1.6406    0.0000 C   0  0  0  0  0  0  0  0  0  0  0  0
   -1.0171   -0.1518    0.0000 C   0  0  0  0  0  0  0  0  0  0  0  0
    1.6406   -1.2961    0.0000 S   0  0  0  0  0  0  0  0  0  0  0  0
    2.4035   -1.0377    0.0000 C   0  0  0  0  0  0  0  0  0  0  0  0
   -4.1835    1.4601    0.0000 C   0  0  0  0  0  0  0  0  0  0  0  0
   -4.1835   -0.2133    0.0000 C   0  0  0  0  0  0  0  0  0  0  0  0
    0.3322   -2.3133    0.0000 C   0  0  0  0  0  0  0  0  0  0  0  0
   -0.9679   -1.7226    0.0000 C   0  0  0  0  0  0  0  0  0  0  0  0
   -4.9177    1.0459    0.0000 C   0  0  0  0  0  0  0  0  0  0  0  0
   -4.9177    0.2173    0.0000 C   0  0  0  0  0  0  0  0  0  0  0  0
   -0.0123   -3.0557    0.0000 C   0  0  0  0  0  0  0  0  0  0  0  0
   -1.3001   -2.4773    0.0000 C   0  0  0  0  0  0  0  0  0  0  0  0
   -0.8203   -3.1500    0.0000 C   0  0  0  0  0  0  0  0  0  0  0  0
  2  1  1  0  0  0  0
  3  1  1  0  0  0  0
  4  2  2  0  0  0  0
  5  3  2  0  0  0  0
  5  4  1  0  0  0  0
  6 13  1  0  0  0  0
  7  6  2  0  0  0  0
  8  6  1  0  0  0  0
  9  7  1  0  0  0  0
  9 10  2  0  0  0  0
 10  8  1  0  0  0  0
 11 17  1  0  0  0  0
 12 11  3  0  0  0  0
 13 15  1  0  0  0  0
 14  1  1  0  0  0  0
 15  3  1  0  0  0  0
 16  2  1  0  0  0  0
 17 16  1  0  0  0  0
 18  9  1  0  0  0  0
 19 10  1  0  0  0  0
 20 14  1  0  0  0  0
 21 14  2  0  0  0  0
 22 18  2  0  0  0  0
 23 19  2  0  0  0  0
 23 22  1  0  0  0  0
 24 20  2  0  0  0  0
 25 21  1  0  0  0  0
 26 25  2  0  0  0  0
 26 24  1  0  0  0  0
M  END
> <CdId>
2181

> <Mol Weight>
394.536

> <Formula>
C19H14N4S3

> <Click_ID>
CLK029_B07 __ __ 

$$$$
