CLK009_G11
 OpenBabel03181417022D

 23 26  0  0  0  0  0  0  0  0999 V2000
   -2.2154   -0.3535    0.0000 C   0  0  0  0  0  0  0  0  0  0  0  0
   -2.2154    0.4810    0.0000 C   0  0  0  0  0  0  0  0  0  0  0  0
   -1.5158   -0.7579    0.0000 C   0  0  0  0  0  0  0  0  0  0  0  0
   -0.7980   -0.3535    0.0000 N   0  0  0  0  0  0  0  0  0  0  0  0
   -1.5158    0.8854    0.0000 N   0  0  0  0  0  0  0  0  0  0  0  0
   -0.7980    0.4810    0.0000 C   0  0  0  0  0  0  0  0  0  0  0  0
   -2.9296   -0.7579    0.0000 C   0  0  0  0  0  0  0  0  0  0  0  0
   -2.9296    0.8854    0.0000 C   0  0  0  0  0  0  0  0  0  0  0  0
   -3.6474    0.4810    0.0000 C   0  0  0  0  0  0  0  0  0  0  0  0
   -3.6474   -0.3535    0.0000 C   0  0  0  0  0  0  0  0  0  0  0  0
    0.6377    2.1498    0.0000 C   0  0  0  0  0  0  0  0  0  0  0  0
    1.3555    2.5652    0.0000 C   0  0  0  0  0  0  0  0  0  0  0  0
   -1.5158   -1.5778    0.0000 O   0  0  0  0  0  0  0  0  0  0  0  0
   -0.0838    0.9036    0.0000 S   0  0  0  0  0  0  0  0  0  0  0  0
   -3.3668   -1.4575    0.0000 C   0  0  0  0  0  0  0  0  0  0  0  0
   -2.1279   -0.9656    0.0000 C   0  0  0  0  0  0  0  0  0  0  0  0
   -0.0838    1.7235    0.0000 C   0  0  0  0  0  0  0  0  0  0  0  0
   -2.9150    1.7125    0.0000 C   0  0  0  0  0  0  0  0  0  0  0  0
   -4.3470    0.9036    0.0000 C   0  0  0  0  0  0  0  0  0  0  0  0
   -2.8275   -2.0879    0.0000 C   0  0  0  0  0  0  0  0  0  0  0  0
   -2.0733   -1.7927    0.0000 C   0  0  0  0  0  0  0  0  0  0  0  0
   -3.6364    2.1279    0.0000 C   0  0  0  0  0  0  0  0  0  0  0  0
   -4.3470    1.7235    0.0000 C   0  0  0  0  0  0  0  0  0  0  0  0
  2  1  2  0  0  0  0
  3  1  1  0  0  0  0
  4  3  1  0  0  0  0
  5  2  1  0  0  0  0
  5  6  2  0  0  0  0
  6  4  1  0  0  0  0
  7  1  1  0  0  0  0
  8  2  1  0  0  0  0
  9 10  1  0  0  0  0
  9  8  1  0  0  0  0
 10  7  1  0  0  0  0
 11 17  1  0  0  0  0
 12 11  3  0  0  0  0
 13  3  2  0  0  0  0
 14  6  1  0  0  0  0
 15  7  1  0  0  0  0
 16  7  1  0  0  0  0
 17 14  1  0  0  0  0
 18  8  2  0  0  0  0
 19  9  2  0  0  0  0
 20 15  1  0  0  0  0
 20 21  1  0  0  0  0
 21 16  1  0  0  0  0
 22 18  1  0  0  0  0
 23 19  1  0  0  0  0
 23 22  2  0  0  0  0
M  END
> <CdId>
666

> <Mol Weight>
322.424

> <Formula>
C19H18N2OS

> <Click_ID>
CLK009_G11 __ __ 

$$$$
