CLK017_A09
 OpenBabel03181417022D

 21 22  0  0  0  0  0  0  0  0999 V2000
    4.9676   -1.1224    0.0000 N    0  0  0  0  0  0  0  0  0  0  0  0
    5.3749   -1.8332    0.0000 C    0  0  0  0  0  0  0  0  0  0  0  0
    4.0572   -2.1118    0.0000 C    0  0  0  0  0  0  0  0  0  0  0  0
    4.1570   -1.2887    0.0000 C    0  0  0  0  0  0  0  0  0  0  0  0
    4.8179   -2.4485    0.0000 S    0  0  0  0  0  0  0  0  0  0  0  0
    3.3464   -2.5233    0.0000 C    0  0  0  0  0  0  0  0  0  0  0  0
    3.3422   -3.3588    0.0000 C    0  0  0  0  0  0  0  0  0  0  0  0
    2.6106   -4.5934    0.0000 C    0  0  0  0  0  0  0  0  0  0  0  0
    2.6106   -3.7704    0.0000 C    0  0  0  0  0  0  0  0  0  0  0  0
    6.1232   -0.2785    0.0000 C    0  0  0  0  0  0  0  0  0  0  0  0
    3.3339   -5.0175    0.0000 C    0  0  0  0  0  0  0  0  0  0  0  0
    6.9462   -0.2910    0.0000 C    0  0  0  0  0  0  0  0  0  0  0  0
    6.1980   -1.9247    0.0000 O    0  0  0  0  0  0  0  0  0  0  0  0
    4.0572   -3.7704    0.0000 C    0  0  0  0  0  0  0  0  0  0  0  0
    3.5417   -0.7275    0.0000 O    0  0  0  0  0  0  0  0  0  0  0  0
    4.0530   -4.5934    0.0000 C    0  0  0  0  0  0  0  0  0  0  0  0
    5.3043   -0.3658    0.0000 C    0  0  0  0  0  0  0  0  0  0  0  0
    1.8998   -5.0050    0.0000 Cl   0  0  0  0  0  0  0  0  0  0  0  0
    4.7680   -5.0175    0.0000 Cl   0  0  0  0  0  0  0  0  0  0  0  0
    1.8998   -3.3546    0.0000 O    0  0  0  0  0  0  0  0  0  0  0  0
    1.1889   -3.7662    0.0000 C    0  0  0  0  0  0  0  0  0  0  0  0
  2  1  1  0  0  0  0
  3  4  1  0  0  0  0
  4  1  1  0  0  0  0
  5  2  1  0  0  0  0
  5  3  1  0  0  0  0
  6  3  2  0  0  0  0
  7  6  1  0  0  0  0
  8  9  1  0  0  0  0
  8 11  2  0  0  0  0
  9  7  2  0  0  0  0
 10 17  1  0  0  0  0
 11 16  1  0  0  0  0
 12 10  3  0  0  0  0
 13  2  2  0  0  0  0
 14  7  1  0  0  0  0
 15  4  2  0  0  0  0
 16 14  2  0  0  0  0
 17  1  1  0  0  0  0
 18  8  1  0  0  0  0
 19 16  1  0  0  0  0
 20  9  1  0  0  0  0
 21 20  1  0  0  0  0
M  END
> <CdId>
1244

> <Mol Weight>
342.197

> <Formula>
C14H9Cl2NO3S

> <Click_ID>
CLK017_A09 __ __ 

$$$$
