CLK031_F06
 OpenBabel03181417022D

 35 38  0  0  0  0  0  0  0  0999 V2000
   -1.1625    2.3833    0.0000 C   0  0  0  0  0  0  0  0  0  0  0  0
    3.3917    3.0833    0.0000 S   0  0  0  0  0  0  0  0  0  0  0  0
   -0.3375    2.3750    0.0000 N   0  0  0  0  0  0  0  0  0  0  0  0
   -4.5833    3.2125    0.0000 S   0  0  0  0  0  0  0  0  0  0  0  0
   -1.6458    1.7208    0.0000 N   0  0  0  0  0  0  0  0  0  0  0  0
   -1.6458    3.0500    0.0000 S   0  0  0  0  0  0  0  0  0  0  0  0
   -2.4333    2.7958    0.0000 C   0  0  0  0  0  0  0  0  0  0  0  0
    4.2250    3.0833    0.0000 N   0  0  0  0  0  0  0  0  0  0  0  0
   -2.4333    1.9708    0.0000 C   0  0  0  0  0  0  0  0  0  0  0  0
    0.0750    3.0875    0.0000 C   0  0  0  0  0  0  0  0  0  0  0  0
   -3.8583    2.7958    0.0000 C   0  0  0  0  0  0  0  0  0  0  0  0
   -3.1458    3.2083    0.0000 C   0  0  0  0  0  0  0  0  0  0  0  0
    2.5667    3.0833    0.0000 C   0  0  0  0  0  0  0  0  0  0  0  0
   -1.9458    0.3208    0.0000 C   0  0  0  0  0  0  0  0  0  0  0  0
    3.3917    2.2500    0.0000 O   0  0  0  0  0  0  0  0  0  0  0  0
    3.4000    3.9208    0.0000 O   0  0  0  0  0  0  0  0  0  0  0  0
   -3.1458    1.5583    0.0000 C   0  0  0  0  0  0  0  0  0  0  0  0
   -2.4958   -0.2917    0.0000 C   0  0  0  0  0  0  0  0  0  0  0  0
   -5.0208    2.5083    0.0000 O   0  0  0  0  0  0  0  0  0  0  0  0
   -4.1458    3.9083    0.0000 O   0  0  0  0  0  0  0  0  0  0  0  0
    0.9000    3.0875    0.0000 C   0  0  0  0  0  0  0  0  0  0  0  0
   -5.2833    3.6458    0.0000 N   0  0  0  0  0  0  0  0  0  0  0  0
   -0.3375    3.8000    0.0000 O   0  0  0  0  0  0  0  0  0  0  0  0
   -3.8583    1.9708    0.0000 C   0  0  0  0  0  0  0  0  0  0  0  0
    4.6375    2.3625    0.0000 C   0  0  0  0  0  0  0  0  0  0  0  0
    4.6417    3.7958    0.0000 C   0  0  0  0  0  0  0  0  0  0  0  0
   -1.3958    0.9333    0.0000 C   0  0  0  0  0  0  0  0  0  0  0  0
    2.1417    2.3708    0.0000 C   0  0  0  0  0  0  0  0  0  0  0  0
    2.1417    3.8000    0.0000 C   0  0  0  0  0  0  0  0  0  0  0  0
    1.3167    2.3708    0.0000 C   0  0  0  0  0  0  0  0  0  0  0  0
    1.3167    3.8000    0.0000 C   0  0  0  0  0  0  0  0  0  0  0  0
    5.4667    3.7958    0.0000 C   0  0  0  0  0  0  0  0  0  0  0  0
    5.4625    2.3625    0.0000 C   0  0  0  0  0  0  0  0  0  0  0  0
    5.8792    3.0833    0.0000 C   0  0  3  0  0  0  0  0  0  0  0  0
    6.7042    3.0708    0.0000 C   0  0  0  0  0  0  0  0  0  0  0  0
  2 13  1  0  0  0  0
  3  1  2  0  0  0  0
  4 11  1  0  0  0  0
  5  1  1  0  0  0  0
  6  1  1  0  0  0  0
  7  6  1  0  0  0  0
  7  9  2  0  0  0  0
  8  2  1  0  0  0  0
  9  5  1  0  0  0  0
 10  3  1  0  0  0  0
 11 12  2  0  0  0  0
 11 24  1  0  0  0  0
 12  7  1  0  0  0  0
 13 29  1  0  0  0  0
 14 27  1  0  0  0  0
 15  2  2  0  0  0  0
 16  2  2  0  0  0  0
 17  9  1  0  0  0  0
 18 14  3  0  0  0  0
 19  4  2  0  0  0  0
 20  4  2  0  0  0  0
 21 10  1  0  0  0  0
 22  4  1  0  0  0  0
 23 10  2  0  0  0  0
 24 17  2  0  0  0  0
 25  8  1  0  0  0  0
 26  8  1  0  0  0  0
 27  5  1  0  0  0  0
 28 30  1  0  0  0  0
 28 13  2  0  0  0  0
 29 31  2  0  0  0  0
 30 21  2  0  0  0  0
 31 21  1  0  0  0  0
 32 26  1  0  0  0  0
 33 25  1  0  0  0  0
 34 32  1  0  0  0  0
 34 33  1  0  0  0  0
 35 34  1  0  0  0  0
M  END
> <CdId>
2380

> <Mol Weight>
532.655

> <Formula>
C23H24N4O5S3

> <Click_ID>
CLK031_F06 __ __ 

$$$$
