CLK027_F07
 OpenBabel03181417022D

 27 29  0  0  0  0  0  0  0  0999 V2000
    1.9188    0.9732    0.0000 N    0  0  0  0  0  0  0  0  0  0  0  0
    2.6753    0.6396    0.0000 C    0  0  0  0  0  0  0  0  0  0  0  0
    2.0082    1.7950    0.0000 C    0  0  0  0  0  0  0  0  0  0  0  0
    3.2289    1.2517    0.0000 N    0  0  0  0  0  0  0  0  0  0  0  0
    2.8163    1.9635    0.0000 N    0  0  0  0  0  0  0  0  0  0  0  0
    1.2070    0.5605    0.0000 N    0  0  0  0  0  0  0  0  0  0  0  0
   -1.6644   -0.2751    0.0000 C    0  0  0  0  0  0  0  0  0  0  0  0
   -1.6609    0.5639    0.0000 C    0  0  0  0  0  0  0  0  0  0  0  0
   -0.9422   -0.6740    0.0000 C    0  0  0  0  0  0  0  0  0  0  0  0
   -3.0948   -1.9291    0.0000 C    0  0  0  0  0  0  0  0  0  0  0  0
   -3.8066   -2.3418    0.0000 C    0  0  0  0  0  0  0  0  0  0  0  0
    0.4986    0.9732    0.0000 C    0  0  0  0  0  0  0  0  0  0  0  0
    2.8507   -0.1616    0.0000 C    0  0  0  0  0  0  0  0  0  0  0  0
   -0.2270    0.5605    0.0000 C    0  0  0  0  0  0  0  0  0  0  0  0
   -0.9422    0.9766    0.0000 C    0  0  0  0  0  0  0  0  0  0  0  0
   -0.2270   -0.2614    0.0000 C    0  0  0  0  0  0  0  0  0  0  0  0
    1.3961    2.3452    0.0000 S    0  0  0  0  0  0  0  0  0  0  0  0
   -2.3727    0.9766    0.0000 Cl   0  0  0  0  0  0  0  0  0  0  0  0
   -2.3830   -0.6877    0.0000 O    0  0  0  0  0  0  0  0  0  0  0  0
   -0.9422   -1.4958    0.0000 O    0  0  0  0  0  0  0  0  0  0  0  0
   -2.3830   -1.5096    0.0000 C    0  0  0  0  0  0  0  0  0  0  0  0
    2.2317   -0.7118    0.0000 C    0  0  0  0  0  0  0  0  0  0  0  0
    3.6278   -0.4126    0.0000 C    0  0  0  0  0  0  0  0  0  0  0  0
   -0.2270   -1.9223    0.0000 C    0  0  0  0  0  0  0  0  0  0  0  0
    3.8032   -1.2242    0.0000 C    0  0  0  0  0  0  0  0  0  0  0  0
    2.4071   -1.5096    0.0000 C    0  0  0  0  0  0  0  0  0  0  0  0
    3.1877   -1.7709    0.0000 C    0  0  0  0  0  0  0  0  0  0  0  0
  2  1  1  0  0  0  0
  3  1  1  0  0  0  0
  4  2  2  0  0  0  0
  5  3  2  0  0  0  0
  5  4  1  0  0  0  0
  6  1  1  0  0  0  0
  7  9  1  0  0  0  0
  7  8  2  0  0  0  0
  8 15  1  0  0  0  0
  9 16  2  0  0  0  0
 10 21  1  0  0  0  0
 11 10  3  0  0  0  0
 12  6  2  0  0  0  0
 13  2  1  0  0  0  0
 14 12  1  0  0  0  0
 15 14  2  0  0  0  0
 16 14  1  0  0  0  0
 17  3  1  0  0  0  0
 18  8  1  0  0  0  0
 19  7  1  0  0  0  0
 20  9  1  0  0  0  0
 21 19  1  0  0  0  0
 22 13  2  0  0  0  0
 23 13  1  0  0  0  0
 24 20  1  0  0  0  0
 25 23  2  0  0  0  0
 26 22  1  0  0  0  0
 27 25  1  0  0  0  0
 27 26  2  0  0  0  0
M  END
> <CdId>
2067

> <Mol Weight>
398.866

> <Formula>
C19H15ClN4O2S

> <Click_ID>
CLK027_F07 __ __ 

$$$$
