CLK004_H07
 OpenBabel03181417022D

 33 36  0  0  0  0  0  0  0  0999 V2000
   -0.2914    0.3110    0.0000 C   0  0  3  0  0  0  0  0  0  0  0  0
    0.5314    0.3110    0.0000 N   0  0  0  0  0  0  0  0  0  0  0  0
   -0.7029    1.0261    0.0000 C   0  0  0  0  0  0  0  0  0  0  0  0
   -0.7053   -0.3992    0.0000 C   0  0  0  0  0  0  0  0  0  0  0  0
    0.9429   -0.4016    0.0000 C   0  0  0  0  0  0  0  0  0  0  0  0
    0.9453    1.0188    0.0000 C   0  0  0  0  0  0  0  0  0  0  0  0
   -1.5281    1.0310    0.0000 C   0  0  0  0  0  0  0  0  0  0  0  0
   -0.2865    1.7412    0.0000 C   0  0  0  0  0  0  0  0  0  0  0  0
   -1.5306   -0.3943    0.0000 N   0  0  0  0  0  0  0  0  0  0  0  0
   -0.2939   -1.1118    0.0000 O   0  0  0  0  0  0  0  0  0  0  0  0
    1.7657   -0.4016    0.0000 C   0  0  0  0  0  0  0  0  0  0  0  0
    1.7682    1.0188    0.0000 C   0  0  0  0  0  0  0  0  0  0  0  0
    0.5363    1.7339    0.0000 O   0  0  0  0  0  0  0  0  0  0  0  0
   -1.9346    1.7437    0.0000 C   0  0  0  0  0  0  0  0  0  0  0  0
   -1.9395    0.3159    0.0000 F   0  0  0  0  0  0  0  0  0  0  0  0
   -0.7004    2.4539    0.0000 C   0  0  0  0  0  0  0  0  0  0  0  0
   -1.9420   -1.1069    0.0000 C   0  0  0  0  0  0  0  0  0  0  0  0
    2.1796   -1.1192    0.0000 C   0  0  0  0  0  0  0  0  0  0  0  0
    2.1796    0.3037    0.0000 C   0  0  0  0  0  0  0  0  0  0  0  0
    2.5934    1.0188    0.0000 C   0  0  0  0  0  0  0  0  0  0  0  0
   -1.5232    2.4539    0.0000 C   0  0  0  0  0  0  0  0  0  0  0  0
   -2.7673   -1.1045    0.0000 C   0  0  0  0  0  0  0  0  0  0  0  0
    3.0024   -1.1216    0.0000 C   0  0  0  0  0  0  0  0  0  0  0  0
    3.0048    0.3037    0.0000 C   0  0  0  0  0  0  0  0  0  0  0  0
   -3.1788   -0.3869    0.0000 C   0  0  0  0  0  0  0  0  0  0  0  0
   -3.1837   -1.8196    0.0000 C   0  0  0  0  0  0  0  0  0  0  0  0
    3.4138   -0.4065    0.0000 C   0  0  0  0  0  0  0  0  0  0  0  0
    3.5510   -1.7339    0.0000 O   0  0  0  0  0  0  0  0  0  0  0  0
   -4.0040   -0.3869    0.0000 C   0  0  0  0  0  0  0  0  0  0  0  0
   -4.0089   -1.8147    0.0000 C   0  0  0  0  0  0  0  0  0  0  0  0
    4.2196   -0.5780    0.0000 O   0  0  0  0  0  0  0  0  0  0  0  0
    4.3028   -1.4008    0.0000 C   0  0  0  0  0  0  0  0  0  0  0  0
   -4.4154   -1.1020    0.0000 C   0  0  0  0  0  0  0  0  0  0  0  0
  1  2  1  0  0  0  0
  1  3  1  0  0  0  0
  1  4  1  0  0  0  0
  2  5  1  0  0  0  0
  2  6  1  0  0  0  0
  3  7  2  0  0  0  0
  3  8  1  0  0  0  0
  4  9  1  0  0  0  0
  4 10  2  0  0  0  0
  5 11  1  0  0  0  0
  6 12  1  0  0  0  0
  6 13  2  0  0  0  0
  7 14  1  0  0  0  0
  7 15  1  0  0  0  0
  8 16  2  0  0  0  0
  9 17  1  0  0  0  0
 11 18  1  0  0  0  0
 11 19  2  0  0  0  0
 12 20  3  0  0  0  0
 14 21  2  0  0  0  0
 16 21  1  0  0  0  0
 17 22  1  0  0  0  0
 18 23  2  0  0  0  0
 19 24  1  0  0  0  0
 22 25  2  0  0  0  0
 22 26  1  0  0  0  0
 23 27  1  0  0  0  0
 23 28  1  0  0  0  0
 24 27  2  0  0  0  0
 25 29  1  0  0  0  0
 26 30  2  0  0  0  0
 27 31  1  0  0  0  0
 28 32  1  0  0  0  0
 29 33  2  0  0  0  0
 30 33  1  0  0  0  0
 31 32  1  0  0  0  0
M  END
> <CdId>
316

> <Mol Weight>
444.4543

> <Formula>
C26H21FN2O4

> <Click_ID>
CLK004_H07 __ __ 

$$$$
