CLK045E07
 OpenBabel03181417022D

 23 25  0  0  0  0  0  0  0  0999 V2000
    0.8792    0.2792    0.0000 N   0  0  0  0  0  0  0  0  0  0  0  0
    1.6625    0.0250    0.0000 N   0  0  0  0  0  0  0  0  0  0  0  0
    0.3917   -0.3875    0.0000 C   0  0  0  0  0  0  0  0  0  0  0  0
    1.6625   -0.8000    0.0000 N   0  0  0  0  0  0  0  0  0  0  0  0
    0.8792   -1.0542    0.0000 C   0  0  0  0  0  0  0  0  0  0  0  0
   -0.4333   -0.3875    0.0000 C   0  0  0  0  0  0  0  0  0  0  0  0
   -0.8458    0.3250    0.0000 N   0  0  0  0  0  0  0  0  0  0  0  0
   -3.3208   -1.1042    0.0000 C   0  0  0  0  0  0  0  0  0  0  0  0
   -3.7333   -1.8167    0.0000 C   0  0  0  0  0  0  0  0  0  0  0  0
    2.3292    0.5083    0.0000 C   0  0  0  0  0  0  0  0  0  0  0  0
   -0.8458   -1.1042    0.0000 O   0  0  0  0  0  0  0  0  0  0  0  0
   -1.6708    0.3250    0.0000 C   0  0  0  0  0  0  0  0  0  0  0  0
   -2.9083   -0.3875    0.0000 C   0  0  0  0  0  0  0  0  0  0  0  0
   -2.0833   -0.3875    0.0000 C   0  0  0  0  0  0  0  0  0  0  0  0
    0.6250   -1.8417    0.0000 C   0  0  0  0  0  0  0  0  0  0  0  0
   -2.9083    1.0417    0.0000 C   0  0  0  0  0  0  0  0  0  0  0  0
   -2.0833    1.0417    0.0000 C   0  0  0  0  0  0  0  0  0  0  0  0
    3.0833    0.1750    0.0000 C   0  0  0  0  0  0  0  0  0  0  0  0
    2.2458    1.3292    0.0000 C   0  0  0  0  0  0  0  0  0  0  0  0
   -3.3208    0.3250    0.0000 C   0  0  0  0  0  0  0  0  0  0  0  0
    2.9125    1.8125    0.0000 C   0  0  0  0  0  0  0  0  0  0  0  0
    3.7500    0.6583    0.0000 C   0  0  0  0  0  0  0  0  0  0  0  0
    3.6667    1.4792    0.0000 C   0  0  0  0  0  0  0  0  0  0  0  0
  2  1  1  0  0  0  0
  3  1  2  0  0  0  0
  4  2  1  0  0  0  0
  4  5  2  0  0  0  0
  5  3  1  0  0  0  0
  6  3  1  0  0  0  0
  7  6  1  0  0  0  0
  8 13  1  0  0  0  0
  9  8  3  0  0  0  0
 10  2  1  0  0  0  0
 11  6  2  0  0  0  0
 12  7  1  0  0  0  0
 13 14  1  0  0  0  0
 14 12  2  0  0  0  0
 15  5  1  0  0  0  0
 16 17  2  0  0  0  0
 17 12  1  0  0  0  0
 18 10  1  0  0  0  0
 19 10  2  0  0  0  0
 20 13  2  0  0  0  0
 20 16  1  0  0  0  0
 21 19  1  0  0  0  0
 22 18  2  0  0  0  0
 23 21  2  0  0  0  0
 23 22  1  0  0  0  0
M  END
> <CdId>
3453

> <Mol Weight>
302.33

> <Formula>
C18H14N4O

> <Click_ID>
CLK045E07 __ __ 

$$$$
