CLK047E05
 OpenBabel03181417022D

 14 14  0  0  0  0  0  0  0  0999 V2000
    2.0547   -0.2083    0.0000 N   0  0  0  0  0  0  0  0  0  0  0  0
    1.2961    0.1208    0.0000 C   0  0  0  0  0  0  0  0  0  0  0  0
    1.3711    0.9419    0.0000 N   0  0  0  0  0  0  0  0  0  0  0  0
    2.1797    1.1211    0.0000 N   0  0  0  0  0  0  0  0  0  0  0  0
    2.6006    0.4126    0.0000 C   0  0  0  0  0  0  0  0  0  0  0  0
    0.5876   -0.3001    0.0000 S   0  0  0  0  0  0  0  0  0  0  0  0
   -2.9924    0.0708    0.0000 C   0  0  0  0  0  0  0  0  0  0  0  0
   -3.7092    0.4793    0.0000 C   0  0  0  0  0  0  0  0  0  0  0  0
   -0.8419   -0.3168    0.0000 C   0  0  0  0  0  0  0  0  0  0  0  0
   -0.8335   -1.1420    0.0000 O   0  0  0  0  0  0  0  0  0  0  0  0
   -0.1333    0.1042    0.0000 C   0  0  0  0  0  0  0  0  0  0  0  0
   -1.5629    0.0875    0.0000 N   0  0  0  0  0  0  0  0  0  0  0  0
    2.2338   -1.0127    0.0000 C   0  0  0  0  0  0  0  0  0  0  0  0
   -2.2713   -0.3334    0.0000 C   0  0  0  0  0  0  0  0  0  0  0  0
  2  1  1  0  0  0  0
  3  2  2  0  0  0  0
  3  4  1  0  0  0  0
  4  5  2  0  0  0  0
  5  1  1  0  0  0  0
  6  2  1  0  0  0  0
  7 14  1  0  0  0  0
  8  7  3  0  0  0  0
  9 11  1  0  0  0  0
 10  9  2  0  0  0  0
 11  6  1  0  0  0  0
 12  9  1  0  0  0  0
 13  1  1  0  0  0  0
 14 12  1  0  0  0  0
M  END
> <CdId>
3597

> <Mol Weight>
210.256

> <Formula>
C8H10N4OS

> <Click_ID>
CLK047E05 __ __ 

$$$$
