CLK013_B11
 OpenBabel03181417022D

 20 21  0  0  0  0  0  0  0  0999 V2000
    1.5619   -0.8142    0.0000 N    0  0  0  0  0  0  0  0  0  0  0  0
    1.8195   -1.5993    0.0000 C    0  0  0  0  0  0  0  0  0  0  0  0
    2.8954   -0.8142    0.0000 C    0  0  0  0  0  0  0  0  0  0  0  0
    2.2307   -0.3282    0.0000 C    0  0  0  0  0  0  0  0  0  0  0  0
    2.6420   -1.5993    0.0000 S    0  0  0  0  0  0  0  0  0  0  0  0
    3.6805   -0.5608    0.0000 C    0  0  0  0  0  0  0  0  0  0  0  0
    3.8508    0.2451    0.0000 C    0  0  0  0  0  0  0  0  0  0  0  0
    0.6106    0.2451    0.0000 C    0  0  0  0  0  0  0  0  0  0  0  0
    0.3905    1.0426    0.0000 C    0  0  0  0  0  0  0  0  0  0  0  0
    1.3334   -2.2598    0.0000 O    0  0  0  0  0  0  0  0  0  0  0  0
    2.2224    0.4943    0.0000 O    0  0  0  0  0  0  0  0  0  0  0  0
    4.6276    0.4985    0.0000 C    0  0  0  0  0  0  0  0  0  0  0  0
    0.7851   -0.5608    0.0000 C    0  0  0  0  0  0  0  0  0  0  0  0
    3.2319    0.7934    0.0000 C    0  0  0  0  0  0  0  0  0  0  0  0
    4.8021    1.3085    0.0000 C    0  0  0  0  0  0  0  0  0  0  0  0
    3.4063    1.6034    0.0000 C    0  0  0  0  0  0  0  0  0  0  0  0
    4.1914    1.8568    0.0000 C    0  0  0  0  0  0  0  0  0  0  0  0
    2.8040    2.1518    0.0000 Br   0  0  0  0  0  0  0  0  0  0  0  0
    5.2383   -0.0540    0.0000 O    0  0  0  0  0  0  0  0  0  0  0  0
    6.0316    0.1994    0.0000 C    0  0  0  0  0  0  0  0  0  0  0  0
  2  1  1  0  0  0  0
  3  4  1  0  0  0  0
  4  1  1  0  0  0  0
  5  2  1  0  0  0  0
  5  3  1  0  0  0  0
  6  3  2  0  0  0  0
  7  6  1  0  0  0  0
  8 13  1  0  0  0  0
  9  8  3  0  0  0  0
 10  2  2  0  0  0  0
 11  4  2  0  0  0  0
 12  7  2  0  0  0  0
 13  1  1  0  0  0  0
 14  7  1  0  0  0  0
 15 12  1  0  0  0  0
 16 14  2  0  0  0  0
 17 16  1  0  0  0  0
 17 15  2  0  0  0  0
 18 16  1  0  0  0  0
 19 12  1  0  0  0  0
 20 19  1  0  0  0  0
M  END
> <CdId>
936

> <Mol Weight>
352.203

> <Formula>
C14H10BrNO3S

> <Click_ID>
CLK013_B11 __ __ 

$$$$
