CLK048C04
 OpenBabel03181417022D

 25 27  0  0  0  0  0  0  0  0999 V2000
    0.4925   -3.3431    0.0000 C   0  0  0  0  0  0  0  0  0  0  0  0
    0.0042   -4.0151    0.0000 N   0  0  0  0  0  0  0  0  0  0  0  0
   -0.2337    1.1978    0.0000 C   0  0  0  0  0  0  0  0  0  0  0  0
    1.2772   -3.6019    0.0000 S   0  0  0  0  0  0  0  0  0  0  0  0
    0.3213    1.8114    0.0000 N   0  0  0  0  0  0  0  0  0  0  0  0
    0.4925   -4.6829    0.0000 C   0  0  0  0  0  0  0  0  0  0  0  0
   -1.8072    3.7271    0.0000 C   0  0  0  0  0  0  0  0  0  0  0  0
    1.2772   -4.4283    0.0000 C   0  0  0  0  0  0  0  0  0  0  0  0
   -2.6169    3.9024    0.0000 C   0  0  0  0  0  0  0  0  0  0  0  0
    0.0208    0.4132    0.0000 C   0  0  0  0  0  0  0  0  0  0  0  0
    0.2337   -2.5585    0.0000 S   0  0  0  0  0  0  0  0  0  0  0  0
   -1.0393    1.3731    0.0000 O   0  0  0  0  0  0  0  0  0  0  0  0
    0.0668    2.6002    0.0000 C   0  0  0  0  0  0  0  0  0  0  0  0
   -0.5301   -0.2003    0.0000 C   0  0  0  0  0  0  0  0  0  0  0  0
    0.8306    0.2421    0.0000 C   0  0  0  0  0  0  0  0  0  0  0  0
   -0.9975    3.5560    0.0000 C   0  0  0  0  0  0  0  0  0  0  0  0
   -0.7430    2.7714    0.0000 C   0  0  0  0  0  0  0  0  0  0  0  0
    0.7888   -1.9450    0.0000 C   0  0  0  0  0  0  0  0  0  0  0  0
    0.5342   -1.1603    0.0000 C   0  0  0  0  0  0  0  0  0  0  0  0
   -0.2755   -0.9850    0.0000 C   0  0  0  0  0  0  0  0  0  0  0  0
    1.0851   -0.5426    0.0000 C   0  0  0  0  0  0  0  0  0  0  0  0
    0.3631    3.9984    0.0000 C   0  0  0  0  0  0  0  0  0  0  0  0
    0.2337   -5.4675    0.0000 C   0  0  0  0  0  0  0  0  0  0  0  0
    0.6177    3.2137    0.0000 C   0  0  0  0  0  0  0  0  0  0  0  0
   -0.4466    4.1653    0.0000 C   0  0  0  0  0  0  0  0  0  0  0  0
  2  1  2  0  0  0  0
  3 10  1  0  0  0  0
  4  1  1  0  0  0  0
  5  3  1  0  0  0  0
  6  2  1  0  0  0  0
  7 16  1  0  0  0  0
  8  4  1  0  0  0  0
  8  6  2  0  0  0  0
  9  7  3  0  0  0  0
 10 14  2  0  0  0  0
 10 15  1  0  0  0  0
 11  1  1  0  0  0  0
 12  3  2  0  0  0  0
 13  5  1  0  0  0  0
 14 20  1  0  0  0  0
 15 21  2  0  0  0  0
 16 17  1  0  0  0  0
 17 13  2  0  0  0  0
 18 11  1  0  0  0  0
 19 18  1  0  0  0  0
 20 19  2  0  0  0  0
 21 19  1  0  0  0  0
 22 24  2  0  0  0  0
 23  6  1  0  0  0  0
 24 13  1  0  0  0  0
 25 16  2  0  0  0  0
 25 22  1  0  0  0  0
M  END
> <CdId>
3667

> <Mol Weight>
364.484

> <Formula>
C20H16N2OS2

> <Click_ID>
CLK048C04 __ __ 

$$$$
