CLK040E10
 OpenBabel03181417022D

 28 29  0  0  0  0  0  0  0  0999 V2000
    0.3583    1.6667    0.0000 C   0  0  0  0  0  0  0  0  0  0  0  0
   -0.1292    1.0000    0.0000 N   0  0  0  0  0  0  0  0  0  0  0  0
    1.1417    1.4125    0.0000 N   0  0  0  0  0  0  0  0  0  0  0  0
    0.3583    0.3292    0.0000 C   0  0  0  0  0  0  0  0  0  0  0  0
    1.1417    0.5875    0.0000 N   0  0  0  0  0  0  0  0  0  0  0  0
    0.1042    2.4500    0.0000 C   0  0  0  0  0  0  0  0  0  0  0  0
    0.4417   -4.0333    0.0000 C   0  0  0  0  0  0  0  0  0  0  0  0
    0.1042   -0.4542    0.0000 S   0  0  0  0  0  0  0  0  0  0  0  0
    0.1875   -4.8167    0.0000 C   0  0  0  0  0  0  0  0  0  0  0  0
    0.4000   -1.8500    0.0000 C   0  0  0  0  0  0  0  0  0  0  0  0
    0.9500   -2.4625    0.0000 N   0  0  0  0  0  0  0  0  0  0  0  0
   -0.7042    2.6208    0.0000 C   0  0  0  0  0  0  0  0  0  0  0  0
    0.6958   -3.2500    0.0000 C   0  0  0  0  0  0  0  0  0  0  0  0
   -0.9542    1.0000    0.0000 C   0  0  0  0  0  0  0  0  0  0  0  0
   -0.4083   -2.0250    0.0000 O   0  0  0  0  0  0  0  0  0  0  0  0
    0.6542   -1.0667    0.0000 C   0  0  0  0  0  0  0  0  0  0  0  0
   -1.3667    1.7125    0.0000 C   0  0  0  0  0  0  0  0  0  0  0  0
   -2.1917    1.7125    0.0000 C   0  0  0  0  0  0  0  0  0  0  0  0
    0.6542    3.0625    0.0000 C   0  0  0  0  0  0  0  0  0  0  0  0
   -1.2583    2.0083    0.0000 O   0  0  0  0  0  0  0  0  0  0  0  0
   -0.0875   -2.9958    0.0000 C   0  0  0  0  0  0  0  0  0  0  0  0
    1.4833   -3.5042    0.0000 C   0  0  0  0  0  0  0  0  0  0  0  0
   -0.9583    3.4083    0.0000 C   0  0  0  0  0  0  0  0  0  0  0  0
   -2.0625    2.1792    0.0000 C   0  0  0  0  0  0  0  0  0  0  0  0
    0.4000    3.8500    0.0000 C   0  0  0  0  0  0  0  0  0  0  0  0
    1.6542   -4.3125    0.0000 C   0  0  0  0  0  0  0  0  0  0  0  0
   -0.2583   -2.1875    0.0000 C   0  0  0  0  0  0  0  0  0  0  0  0
   -0.4083    4.0167    0.0000 C   0  0  0  0  0  0  0  0  0  0  0  0
  2  1  1  0  0  0  0
  3  1  2  0  0  0  0
  4  2  1  0  0  0  0
  5  3  1  0  0  0  0
  5  4  2  0  0  0  0
  6  1  1  0  0  0  0
  7 13  1  0  0  0  0
  8  4  1  0  0  0  0
  9  7  3  0  0  0  0
 10 16  1  0  0  0  0
 11 10  1  0  0  0  0
 12  6  2  0  0  0  0
 13 11  1  0  0  0  0
 14  2  1  0  0  0  0
 15 10  2  0  0  0  0
 16  8  1  0  0  0  0
 17 14  1  0  0  0  0
 18 17  2  0  0  0  0
 19  6  1  0  0  0  0
 20 12  1  0  0  0  0
 21 13  1  0  0  0  0
 22 13  1  0  0  0  0
 23 12  1  0  0  0  0
 24 20  1  0  0  0  0
 25 19  2  0  0  0  0
 26 22  1  0  0  0  0
 27 21  1  0  0  0  0
 28 23  2  0  0  0  0
 28 25  1  0  0  0  0
M  END
> <CdId>
3077

> <Mol Weight>
398.522

> <Formula>
C21H26N4O2S

> <Click_ID>
CLK040E10 __ __ 

$$$$
