CLK002_C08
 OpenBabel03181417022D

 31 33  0  0  0  0  0  0  0  0999 V2000
   -1.6827   -0.1212    0.0000 N   0  0  0  0  0  0  0  0  0  0  0  0
   -2.3952   -0.5306    0.0000 C   0  0  0  0  0  0  0  0  0  0  0  0
   -0.9664   -0.5306    0.0000 C   0  0  0  0  0  0  0  0  0  0  0  0
   -1.6827    0.7049    0.0000 C   0  0  0  0  0  0  0  0  0  0  0  0
   -2.3952   -1.3568    0.0000 C   0  0  0  0  0  0  0  0  0  0  0  0
   -3.1114   -0.1212    0.0000 C   0  0  0  0  0  0  0  0  0  0  0  0
   -0.2539   -0.1212    0.0000 C   0  0  0  0  0  0  0  0  0  0  0  0
   -0.9664   -1.3568    0.0000 O   0  0  0  0  0  0  0  0  0  0  0  0
   -0.9664    1.1180    0.0000 N   0  0  0  0  0  0  0  0  0  0  0  0
   -2.3952    1.1180    0.0000 O   0  0  0  0  0  0  0  0  0  0  0  0
   -3.1114   -1.7698    0.0000 C   0  0  0  0  0  0  0  0  0  0  0  0
   -3.8239   -0.5306    0.0000 C   0  0  0  0  0  0  0  0  0  0  0  0
    0.4624   -0.5306    0.0000 C   0  0  0  0  0  0  0  0  0  0  0  0
   -0.2539    0.7049    0.0000 C   0  0  0  0  0  0  0  0  0  0  0  0
   -3.8239   -1.3568    0.0000 C   0  0  0  0  0  0  0  0  0  0  0  0
    1.1749   -0.1212    0.0000 C   0  0  0  0  0  0  0  0  0  0  0  0
    0.4624    1.1180    0.0000 O   0  0  0  0  0  0  0  0  0  0  0  0
   -4.5326   -1.7698    0.0000 O   0  0  0  0  0  0  0  0  0  0  0  0
    1.8911   -0.5306    0.0000 C   0  0  0  0  0  0  0  0  0  0  0  0
    1.1749    0.7049    0.0000 C   0  0  0  0  0  0  0  0  0  0  0  0
   -5.2527   -1.3568    0.0000 C   0  0  0  0  0  0  0  0  0  0  0  0
    2.6037   -0.1212    0.0000 C   0  0  0  0  0  0  0  0  0  0  0  0
    1.8911    1.1180    0.0000 C   0  0  0  0  0  0  0  0  0  0  0  0
    2.6037    0.7049    0.0000 C   0  0  0  0  0  0  0  0  0  0  0  0
    3.3199   -0.5306    0.0000 O   0  0  0  0  0  0  0  0  0  0  0  0
    3.3199    1.1180    0.0000 O   0  0  0  0  0  0  0  0  0  0  0  0
    3.3199   -1.3568    0.0000 C   0  0  0  0  0  0  0  0  0  0  0  0
    3.3199    1.9404    0.0000 C   0  0  0  0  0  0  0  0  0  0  0  0
    4.0324   -1.7698    0.0000 C   0  0  0  0  0  0  0  0  0  0  0  0
    4.0324    2.3535    0.0000 C   0  0  0  0  0  0  0  0  0  0  0  0
    4.0324    3.1759    0.0000 C   0  0  0  0  0  0  0  0  0  0  0  0
  1  2  1  0  0  0  0
  1  3  1  0  0  0  0
  1  4  1  0  0  0  0
  2  5  2  0  0  0  0
  2  6  1  0  0  0  0
  3  7  1  0  0  0  0
  3  8  2  0  0  0  0
  4  9  1  0  0  0  0
  4 10  2  0  0  0  0
  5 11  1  0  0  0  0
  6 12  2  0  0  0  0
  7 13  2  0  0  0  0
  7 14  1  0  0  0  0
  9 14  1  0  0  0  0
 11 15  2  0  0  0  0
 12 15  1  0  0  0  0
 13 16  1  0  0  0  0
 14 17  2  0  0  0  0
 15 18  1  0  0  0  0
 16 19  1  0  0  0  0
 16 20  2  0  0  0  0
 18 21  1  0  0  0  0
 19 22  2  0  0  0  0
 20 23  1  0  0  0  0
 22 24  1  0  0  0  0
 22 25  1  0  0  0  0
 23 24  2  0  0  0  0
 24 26  1  0  0  0  0
 25 27  1  0  0  0  0
 26 28  1  0  0  0  0
 27 29  1  0  0  0  0
 28 30  1  0  0  0  0
 30 31  3  0  0  0  0
M  END
> <CdId>
107

> <Mol Weight>
420.4147

> <Formula>
C23H20N2O6

> <Click_ID>
CLK002_C08 __ __ 

$$$$
