CLK017_C06
 OpenBabel03181417022D

 23 24  0  0  0  0  0  0  0  0999 V2000
    5.6781   -2.3061    0.0000 N   0  0  0  0  0  0  0  0  0  0  0  0
    5.3421   -3.0527    0.0000 C   0  0  0  0  0  0  0  0  0  0  0  0
    5.0767   -1.7586    0.0000 C   0  0  0  0  0  0  0  0  0  0  0  0
    4.3592   -2.1650    0.0000 C   0  0  0  0  0  0  0  0  0  0  0  0
    4.5292   -2.9656    0.0000 N   0  0  0  0  0  0  0  0  0  0  0  0
    3.6126   -1.8208    0.0000 C   0  0  0  0  0  0  0  0  0  0  0  0
    5.7528   -3.7702    0.0000 S   0  0  0  0  0  0  0  0  0  0  0  0
    0.3360   -5.0560    0.0000 C   0  0  0  0  0  0  0  0  0  0  0  0
   -0.3318   -5.5412    0.0000 C   0  0  0  0  0  0  0  0  0  0  0  0
    2.3434   -3.6084    0.0000 C   0  0  0  0  0  0  0  0  0  0  0  0
    5.1638   -0.9374    0.0000 O   0  0  0  0  0  0  0  0  0  0  0  0
    2.9365   -2.3061    0.0000 C   0  0  0  0  0  0  0  0  0  0  0  0
    3.0153   -3.1273    0.0000 C   0  0  0  0  0  0  0  0  0  0  0  0
    1.5844   -3.2766    0.0000 C   0  0  0  0  0  0  0  0  0  0  0  0
    6.4869   -2.1443    0.0000 C   0  0  0  0  0  0  0  0  0  0  0  0
    1.5098   -2.4430    0.0000 C   0  0  0  0  0  0  0  0  0  0  0  0
    2.1817   -1.9577    0.0000 C   0  0  0  0  0  0  0  0  0  0  0  0
    2.4263   -4.4214    0.0000 O   0  0  0  0  0  0  0  0  0  0  0  0
    0.9208   -3.7577    0.0000 O   0  0  0  0  0  0  0  0  0  0  0  0
    0.9996   -4.5707    0.0000 C   0  0  0  0  0  0  0  0  0  0  0  0
    3.1771   -4.7698    0.0000 C   0  0  0  0  0  0  0  0  0  0  0  0
    6.7440   -1.3604    0.0000 C   0  0  0  0  0  0  0  0  0  0  0  0
    3.2600   -5.5868    0.0000 C   0  0  0  0  0  0  0  0  0  0  0  0
  2  1  1  0  0  0  0
  3  1  1  0  0  0  0
  4  3  1  0  0  0  0
  5  2  1  0  0  0  0
  5  4  1  0  0  0  0
  6  4  2  0  0  0  0
  7  2  2  0  0  0  0
  8 20  1  0  0  0  0
  9  8  3  0  0  0  0
 10 13  2  0  0  0  0
 11  3  2  0  0  0  0
 12  6  1  0  0  0  0
 13 12  1  0  0  0  0
 14 16  2  0  0  0  0
 14 10  1  0  0  0  0
 15  1  1  0  0  0  0
 16 17  1  0  0  0  0
 17 12  2  0  0  0  0
 18 10  1  0  0  0  0
 19 14  1  0  0  0  0
 20 19  1  0  0  0  0
 21 18  1  0  0  0  0
 22 15  1  0  0  0  0
 23 21  1  0  0  0  0
M  END
> <CdId>
1261

> <Mol Weight>
330.401

> <Formula>
C17H18N2O3S

> <Click_ID>
CLK017_C06 __ __ 

$$$$
