CLK039B02
 OpenBabel03181417022D

 19 20  0  0  0  0  0  0  0  0999 V2000
   -0.2040    0.1873    0.0000 N   0  0  0  0  0  0  0  0  0  0  0  0
   -0.9863   -0.0666    0.0000 C   0  0  0  0  0  0  0  0  0  0  0  0
   -1.4691    0.5993    0.0000 S   0  0  0  0  0  0  0  0  0  0  0  0
   -0.2040    1.0113    0.0000 C   0  0  0  0  0  0  0  0  0  0  0  0
    0.4662    1.4982    0.0000 C   0  0  0  0  0  0  0  0  0  0  0  0
   -0.9863    1.2693    0.0000 C   0  0  0  0  0  0  0  0  0  0  0  0
    3.3044    1.7937    0.0000 C   0  0  0  0  0  0  0  0  0  0  0  0
    1.2193    1.1611    0.0000 C   0  0  0  0  0  0  0  0  0  0  0  0
    3.9703    2.2806    0.0000 C   0  0  0  0  0  0  0  0  0  0  0  0
   -1.2402   -0.8490    0.0000 C   0  0  0  0  0  0  0  0  0  0  0  0
    1.3026    0.3413    0.0000 O   0  0  0  0  0  0  0  0  0  0  0  0
   -0.6908   -1.4608    0.0000 C   0  0  0  0  0  0  0  0  0  0  0  0
   -2.0475   -1.0196    0.0000 C   0  0  0  0  0  0  0  0  0  0  0  0
    1.8853    1.6481    0.0000 N   0  0  0  0  0  0  0  0  0  0  0  0
   -1.7479   -2.4179    0.0000 C   0  0  0  0  0  0  0  0  0  0  0  0
   -2.3014   -1.8062    0.0000 C   0  0  0  0  0  0  0  0  0  0  0  0
   -0.9446   -2.2473    0.0000 C   0  0  0  0  0  0  0  0  0  0  0  0
   -2.0060   -3.2004    0.0000 F   0  0  0  0  0  0  0  0  0  0  0  0
    2.6386    1.3109    0.0000 C   0  0  0  0  0  0  0  0  0  0  0  0
  2  1  2  0  0  0  0
  3  2  1  0  0  0  0
  3  6  1  0  0  0  0
  4  1  1  0  0  0  0
  5  4  1  0  0  0  0
  6  4  2  0  0  0  0
  7 19  1  0  0  0  0
  8  5  1  0  0  0  0
  9  7  3  0  0  0  0
 10  2  1  0  0  0  0
 11  8  2  0  0  0  0
 12 10  1  0  0  0  0
 13 10  2  0  0  0  0
 14  8  1  0  0  0  0
 15 16  2  0  0  0  0
 16 13  1  0  0  0  0
 17 12  2  0  0  0  0
 17 15  1  0  0  0  0
 18 15  1  0  0  0  0
 19 14  1  0  0  0  0
M  END
> <CdId>
2930

> <Mol Weight>
274.313

> <Formula>
C14H11FN2OS

> <Click_ID>
CLK039B02 __ __ 

$$$$
