CLK029_C04
 OpenBabel03181417022D

 28 30  0  0  0  0  0  0  0  0999 V2000
   -1.1750    0.9659    0.0000 C   0  0  0  0  0  0  0  0  0  0  0  0
   -1.6642    0.2969    0.0000 N   0  0  0  0  0  0  0  0  0  0  0  0
   -0.3470    0.9659    0.0000 N   0  0  0  0  0  0  0  0  0  0  0  0
   -1.6642    1.6391    0.0000 S   0  0  0  0  0  0  0  0  0  0  0  0
    2.6344    1.0538    0.0000 C   0  0  0  0  0  0  0  0  0  0  0  0
    3.4498    1.1875    0.0000 N   0  0  0  0  0  0  0  0  0  0  0  0
    2.5132    0.2383    0.0000 C   0  0  0  0  0  0  0  0  0  0  0  0
   -2.4545    0.5520    0.0000 C   0  0  0  0  0  0  0  0  0  0  0  0
   -2.4545    1.3799    0.0000 C   0  0  0  0  0  0  0  0  0  0  0  0
    2.0448    1.6266    0.0000 N   0  0  0  0  0  0  0  0  0  0  0  0
    3.8304    0.4599    0.0000 O   0  0  0  0  0  0  0  0  0  0  0  0
   -0.1338    1.7688    0.0000 C   0  0  0  0  0  0  0  0  0  0  0  0
    3.2533   -0.1380    0.0000 C   0  0  0  0  0  0  0  0  0  0  0  0
   -0.6021   -0.6565    0.0000 C   0  0  0  0  0  0  0  0  0  0  0  0
   -0.0502   -0.0418    0.0000 C   0  0  0  0  0  0  0  0  0  0  0  0
    2.2580    2.4337    0.0000 C   0  0  0  0  0  0  0  0  0  0  0  0
   -1.4050   -0.4809    0.0000 C   0  0  0  0  0  0  0  0  0  0  0  0
   -0.7234    2.3542    0.0000 O   0  0  0  0  0  0  0  0  0  0  0  0
    3.0609    2.6553    0.0000 O   0  0  0  0  0  0  0  0  0  0  0  0
    0.8698    2.7933    0.0000 S   0  0  0  0  0  0  0  0  0  0  0  0
    0.6565    1.9904    0.0000 C   0  0  0  0  0  0  0  0  0  0  0  0
    1.6684    3.0107    0.0000 C   0  0  0  0  0  0  0  0  0  0  0  0
   -3.1696    0.1463    0.0000 C   0  0  0  0  0  0  0  0  0  0  0  0
   -3.1696    1.8022    0.0000 C   0  0  0  0  0  0  0  0  0  0  0  0
    3.3913   -0.9451    0.0000 C   0  0  0  0  0  0  0  0  0  0  0  0
   -3.8763    0.5520    0.0000 C   0  0  0  0  0  0  0  0  0  0  0  0
   -3.8763    1.3799    0.0000 C   0  0  0  0  0  0  0  0  0  0  0  0
   -4.5997    1.7897    0.0000 H   0  0  0  0  0  0  0  0  0  0  0  0
  2  1  1  0  0  0  0
  3  1  2  0  0  0  0
  4  1  1  0  0  0  0
  5 10  1  0  0  0  0
  6  5  2  0  0  0  0
  7  5  1  0  0  0  0
  8  2  1  0  0  0  0
  9  4  1  0  0  0  0
  9  8  2  0  0  0  0
 10 16  1  0  0  0  0
 11  6  1  0  0  0  0
 12  3  1  0  0  0  0
 13  7  2  0  0  0  0
 13 11  1  0  0  0  0
 14 17  1  0  0  0  0
 15 14  3  0  0  0  0
 16 22  1  0  0  0  0
 17  2  1  0  0  0  0
 18 12  2  0  0  0  0
 19 16  2  0  0  0  0
 20 21  1  0  0  0  0
 21 12  1  0  0  0  0
 22 20  1  0  0  0  0
 23  8  1  0  0  0  0
 24  9  1  0  0  0  0
 25 13  1  0  0  0  0
 26 23  2  0  0  0  0
 27 24  2  0  0  0  0
 27 26  1  0  0  0  0
 28 27  1  0  0  0  0
M  END
> <CdId>
2188

> <Mol Weight>
400.475

> <Formula>
C18H16N4O3S2

> <Click_ID>
CLK029_C04 __ __ 

$$$$
