CLK008_E05
 OpenBabel03181417022D

 17 18  0  0  0  0  0  0  0  0999 V2000
    0.0000   -0.0016    0.0000 Ge   0  0  0  0  0  0  0  0  0  0  0  0
   -0.7229    0.4217    0.0000 C    0  0  0  0  0  0  0  0  0  0  0  0
    0.7229   -0.4201    0.0000 C    0  0  0  0  0  0  0  0  0  0  0  0
    0.5731    0.5715    0.0000 C    0  0  0  0  0  0  0  0  0  0  0  0
   -0.5699   -0.5699    0.0000 C    0  0  0  0  0  0  0  0  0  0  0  0
   -0.7229    1.2488    0.0000 C    0  0  0  0  0  0  0  0  0  0  0  0
   -1.4328    0.0081    0.0000 C    0  0  0  0  0  0  0  0  0  0  0  0
    1.4377   -0.0081    0.0000 C    0  0  0  0  0  0  0  0  0  0  0  0
    0.7229   -1.2456    0.0000 C    0  0  0  0  0  0  0  0  0  0  0  0
    1.1300    1.1381    0.0000 C    0  0  0  0  0  0  0  0  0  0  0  0
   -1.1430   -1.1479    0.0000 C    0  0  0  0  0  0  0  0  0  0  0  0
   -1.4328    1.6608    0.0000 C    0  0  0  0  0  0  0  0  0  0  0  0
   -2.1476    0.4217    0.0000 C    0  0  0  0  0  0  0  0  0  0  0  0
    2.1492   -0.4201    0.0000 C    0  0  0  0  0  0  0  0  0  0  0  0
    1.4377   -1.6608    0.0000 C    0  0  0  0  0  0  0  0  0  0  0  0
   -2.1476    1.2488    0.0000 C    0  0  0  0  0  0  0  0  0  0  0  0
    2.1492   -1.2456    0.0000 C    0  0  0  0  0  0  0  0  0  0  0  0
  1  2  1  0  0  0  0
  1  3  1  0  0  0  0
  1  4  1  0  0  0  0
  1  5  1  0  0  0  0
  2  6  2  0  0  0  0
  2  7  1  0  0  0  0
  3  8  2  0  0  0  0
  3  9  1  0  0  0  0
  4 10  3  0  0  0  0
  5 11  3  0  0  0  0
  6 12  1  0  0  0  0
  7 13  2  0  0  0  0
  8 14  1  0  0  0  0
  9 15  2  0  0  0  0
 12 16  2  0  0  0  0
 13 16  1  0  0  0  0
 14 17  2  0  0  0  0
 15 17  1  0  0  0  0
M  END
> <CdId>
584

> <Mol Weight>
276.91

> <Formula>
C16H12Ge

> <Click_ID>
CLK008_E05 __ __ 

$$$$
