CLK017_H06
 OpenBabel03181417022D

 30 33  0  0  0  0  0  0  0  0999 V2000
    8.7155   -1.8736    0.0000 N   0  0  0  0  0  0  0  0  0  0  0  0
    7.3653   -1.4374    0.0000 C   0  0  0  0  0  0  0  0  0  0  0  0
    7.9179   -2.0480    0.0000 C   0  0  0  0  0  0  0  0  0  0  0  0
    8.9772   -1.0884    0.0000 C   0  0  0  0  0  0  0  0  0  0  0  0
    8.4288   -0.4778    0.0000 N   0  0  0  0  0  0  0  0  0  0  0  0
    7.6188   -0.6522    0.0000 C   0  0  0  0  0  0  0  0  0  0  0  0
    6.3060   -2.3970    0.0000 C   0  0  0  0  0  0  0  0  0  0  0  0
    6.5595   -1.6118    0.0000 C   0  0  0  0  0  0  0  0  0  0  0  0
    6.2977   -3.7387    0.0000 N   0  0  0  0  0  0  0  0  0  0  0  0
    6.7838   -3.0658    0.0000 C   0  0  0  0  0  0  0  0  0  0  0  0
    5.5126   -2.6545    0.0000 C   0  0  0  0  0  0  0  0  0  0  0  0
    5.5126   -3.4812    0.0000 C   0  0  0  0  0  0  0  0  0  0  0  0
    9.2763   -2.4842    0.0000 C   0  0  0  0  0  0  0  0  0  0  0  0
    5.9986   -5.1345    0.0000 C   0  0  0  0  0  0  0  0  0  0  0  0
    9.7831   -0.9139    0.0000 O   0  0  0  0  0  0  0  0  0  0  0  0
    5.4129   -5.7120    0.0000 C   0  0  0  0  0  0  0  0  0  0  0  0
    7.6686   -2.8332    0.0000 O   0  0  0  0  0  0  0  0  0  0  0  0
    7.0662   -0.0291    0.0000 O   0  0  0  0  0  0  0  0  0  0  0  0
    6.5553   -4.5239    0.0000 C   0  0  0  0  0  0  0  0  0  0  0  0
    9.0146   -3.2694    0.0000 C   0  0  0  0  0  0  0  0  0  0  0  0
   10.0739   -2.3056    0.0000 C   0  0  0  0  0  0  0  0  0  0  0  0
    9.5712   -3.8800    0.0000 C   0  0  0  0  0  0  0  0  0  0  0  0
   10.6305   -2.9204    0.0000 C   0  0  0  0  0  0  0  0  0  0  0  0
   10.3730   -3.7055    0.0000 C   0  0  0  0  0  0  0  0  0  0  0  0
    4.8022   -3.8925    0.0000 C   0  0  0  0  0  0  0  0  0  0  0  0
    4.8022   -2.2350    0.0000 C   0  0  0  0  0  0  0  0  0  0  0  0
   10.9213   -4.3162    0.0000 C   0  0  0  0  0  0  0  0  0  0  0  0
    4.0919   -3.4812    0.0000 C   0  0  0  0  0  0  0  0  0  0  0  0
    4.0919   -2.6545    0.0000 C   0  0  0  0  0  0  0  0  0  0  0  0
   10.6721   -5.1013    0.0000 C   0  0  0  0  0  0  0  0  0  0  0  0
  2  3  1  0  0  0  0
  2  6  1  0  0  0  0
  3  1  1  0  0  0  0
  4  1  1  0  0  0  0
  5  4  1  0  0  0  0
  6  5  1  0  0  0  0
  7  8  1  0  0  0  0
  8  2  2  0  0  0  0
  9 10  1  0  0  0  0
 10  7  2  0  0  0  0
 11  7  1  0  0  0  0
 12 11  1  0  0  0  0
 12  9  1  0  0  0  0
 13  1  1  0  0  0  0
 14 19  1  0  0  0  0
 15  4  2  0  0  0  0
 16 14  3  0  0  0  0
 17  3  2  0  0  0  0
 18  6  2  0  0  0  0
 19  9  1  0  0  0  0
 20 13  2  0  0  0  0
 21 13  1  0  0  0  0
 22 20  1  0  0  0  0
 22 24  2  0  0  0  0
 23 21  2  0  0  0  0
 24 23  1  0  0  0  0
 25 12  2  0  0  0  0
 26 11  2  0  0  0  0
 27 24  1  0  0  0  0
 28 29  2  0  0  0  0
 28 25  1  0  0  0  0
 29 26  1  0  0  0  0
 30 27  1  0  0  0  0
M  END
> <CdId>
1311

> <Mol Weight>
397.426

> <Formula>
C24H19N3O3

> <Click_ID>
CLK017_H06 __ __ 

$$$$
