CLK010_G08
 OpenBabel03181417022D

 26 27  0  0  0  0  0  0  0  0999 V2000
    8.5979   -4.2327    0.0000 C    0  0  0  0  0  0  0  0  0  0  0  0
    9.4270   -4.2327    0.0000 C    0  0  0  0  0  0  0  0  0  0  0  0
    8.1875   -3.5196    0.0000 C    0  0  0  0  0  0  0  0  0  0  0  0
    9.8374   -3.5238    0.0000 N    0  0  0  0  0  0  0  0  0  0  0  0
    5.7126   -3.5113    0.0000 C    0  0  0  0  0  0  0  0  0  0  0  0
    8.1875   -4.9498    0.0000 C    0  0  0  0  0  0  0  0  0  0  0  0
    6.1313   -2.8024    0.0000 C    0  0  0  0  0  0  0  0  0  0  0  0
    6.1188   -4.2285    0.0000 C    0  0  0  0  0  0  0  0  0  0  0  0
    7.3625   -3.5196    0.0000 C    0  0  0  0  0  0  0  0  0  0  0  0
    7.7025   -5.7624    0.0000 N    0  0  0  0  0  0  0  0  0  0  0  0
    3.6564   -2.7651    0.0000 C    0  0  0  0  0  0  0  0  0  0  0  0
   10.6500   -3.5320    0.0000 C    0  0  0  0  0  0  0  0  0  0  0  0
    2.8273   -2.7609    0.0000 C    0  0  0  0  0  0  0  0  0  0  0  0
    6.9438   -4.2327    0.0000 C    0  0  0  0  0  0  0  0  0  0  0  0
    6.9563   -2.8024    0.0000 C    0  0  0  0  0  0  0  0  0  0  0  0
    9.8292   -4.9498    0.0000 O    0  0  0  0  0  0  0  0  0  0  0  0
   11.0687   -4.2451    0.0000 C    0  0  0  0  0  0  0  0  0  0  0  0
    5.7251   -2.0811    0.0000 Cl   0  0  0  0  0  0  0  0  0  0  0  0
    5.6960   -4.9291    0.0000 Cl   0  0  0  0  0  0  0  0  0  0  0  0
    4.8876   -3.4989    0.0000 O    0  0  0  0  0  0  0  0  0  0  0  0
   10.6458   -4.9622    0.0000 Cl   0  0  0  0  0  0  0  0  0  0  0  0
    4.4814   -2.7776    0.0000 C    0  0  0  0  0  0  0  0  0  0  0  0
   11.0728   -2.8149    0.0000 C    0  0  0  0  0  0  0  0  0  0  0  0
   11.8937   -4.2451    0.0000 C    0  0  0  0  0  0  0  0  0  0  0  0
   11.8937   -2.8231    0.0000 C    0  0  0  0  0  0  0  0  0  0  0  0
   12.3041   -3.5362    0.0000 C    0  0  0  0  0  0  0  0  0  0  0  0
  2  1  1  0  0  0  0
  3  1  2  0  0  0  0
  4  2  1  0  0  0  0
  5  7  1  0  0  0  0
  5  8  2  0  0  0  0
  6  1  1  0  0  0  0
  7 15  2  0  0  0  0
  8 14  1  0  0  0  0
  9  3  1  0  0  0  0
 10  6  3  0  0  0  0
 11 22  1  0  0  0  0
 12  4  1  0  0  0  0
 13 11  3  0  0  0  0
 14  9  2  0  0  0  0
 15  9  1  0  0  0  0
 16  2  2  0  0  0  0
 17 12  1  0  0  0  0
 18  7  1  0  0  0  0
 19  8  1  0  0  0  0
 20  5  1  0  0  0  0
 21 17  1  0  0  0  0
 22 20  1  0  0  0  0
 23 12  2  0  0  0  0
 24 17  2  0  0  0  0
 24 26  1  0  0  0  0
 25 23  1  0  0  0  0
 26 25  2  0  0  0  0
M  END
> <CdId>
743

> <Mol Weight>
405.662

> <Formula>
C19H11Cl3N2O2

> <Click_ID>
CLK010_G08 __ __ 

$$$$
