CLK006_H05
 OpenBabel03181417022D

 20 22  0  0  0  0  0  0  0  0999 V2000
   -1.5099    0.1658    0.0000 C   0  0  0  0  0  0  0  0  0  0  0  0
   -0.7221   -0.0830    0.0000 N   0  0  0  0  0  0  0  0  0  0  0  0
   -1.5168    0.9986    0.0000 C   0  0  0  0  0  0  0  0  0  0  0  0
   -2.2320   -0.2453    0.0000 C   0  0  0  0  0  0  0  0  0  0  0  0
   -0.2384    0.5909    0.0000 C   0  0  0  0  0  0  0  0  0  0  0  0
   -0.4595   -0.8672    0.0000 C   0  0  0  0  0  0  0  0  0  0  0  0
   -0.7255    1.2611    0.0000 N   0  0  0  0  0  0  0  0  0  0  0  0
   -2.2320    1.4097    0.0000 C   0  0  0  0  0  0  0  0  0  0  0  0
   -2.9472    0.1658    0.0000 C   0  0  0  0  0  0  0  0  0  0  0  0
    0.4768    0.1797    0.0000 C   0  0  0  0  0  0  0  0  0  0  0  0
   -1.0089   -1.4857    0.0000 C   0  0  0  0  0  0  0  0  0  0  0  0
   -2.9472    0.9986    0.0000 C   0  0  0  0  0  0  0  0  0  0  0  0
    1.1885    0.5909    0.0000 S   0  0  0  0  0  0  0  0  0  0  0  0
   -0.7982   -2.2838    0.0000 C   0  0  0  0  0  0  0  0  0  0  0  0
    1.9038    0.1797    0.0000 C   0  0  0  0  0  0  0  0  0  0  0  0
    2.6121    0.5909    0.0000 C   0  0  0  0  0  0  0  0  0  0  0  0
    1.9004   -0.6427    0.0000 C   0  0  0  0  0  0  0  0  0  0  0  0
    3.3238    0.1832    0.0000 C   0  0  0  0  0  0  0  0  0  0  0  0
    2.6086   -1.0573    0.0000 C   0  0  0  0  0  0  0  0  0  0  0  0
    3.3273   -0.6461    0.0000 C   0  0  0  0  0  0  0  0  0  0  0  0
  1  2  1  0  0  0  0
  1  3  1  0  0  0  0
  1  4  2  0  0  0  0
  2  5  1  0  0  0  0
  2  6  1  0  0  0  0
  3  7  1  0  0  0  0
  3  8  2  0  0  0  0
  4  9  1  0  0  0  0
  5 10  1  0  0  0  0
  5  7  2  0  0  0  0
  6 11  1  0  0  0  0
  8 12  1  0  0  0  0
  9 12  2  0  0  0  0
 10 13  1  0  0  0  0
 11 14  3  0  0  0  0
 13 15  1  0  0  0  0
 15 16  1  0  0  0  0
 15 17  2  0  0  0  0
 16 18  2  0  0  0  0
 17 19  1  0  0  0  0
 18 20  1  0  0  0  0
 19 20  2  0  0  0  0
M  END
> <CdId>
474

> <Mol Weight>
278.371

> <Formula>
C17H14N2S

> <Click_ID>
CLK006_H05 __ __ 

$$$$
