CLK009_G07
 OpenBabel03181417022D

 16 15  0  0  0  0  0  0  0  0999 V2000
   -1.7454    0.0000    0.0000 N    0  0  0  0  0  0  0  0  0  0  0  0
   -1.8769   -1.1553    0.0000 C    0  0  0  0  0  0  0  0  0  0  0  0
   -2.3888   -0.5119    0.0000 C    0  0  0  0  0  0  0  0  0  0  0  0
   -1.2335   -1.8805    0.0000 C    0  0  0  0  0  0  0  0  0  0  0  0
    1.6459    0.5403    0.0000 C    0  0  0  0  0  0  0  0  0  0  0  0
   -1.1944    0.6789    0.0000 C    0  0  0  0  0  0  0  0  0  0  0  0
   -1.0771    0.2950    0.0000 C    0  0  0  0  0  0  0  0  0  0  0  0
    0.8851    0.2310    0.0000 O    0  0  0  0  0  0  0  0  0  0  0  0
    2.2858    0.0427    0.0000 O    0  0  0  0  0  0  0  0  0  0  0  0
   -0.2240    0.0000    0.0000 C    0  0  0  0  0  0  0  0  0  0  0  0
   -0.3413    0.3697    0.0000 C    0  0  0  0  0  0  0  0  0  0  0  0
    0.3128    0.6789    0.0000 C    0  0  0  0  0  0  0  0  0  0  0  0
   -3.0251   -1.0131    0.0000 C    0  0  0  0  0  0  0  0  0  0  0  0
   -2.9007    0.1386    0.0000 C    0  0  0  0  0  0  0  0  0  0  0  0
    1.7490    1.3508    0.0000 C    0  0  0  0  0  0  0  0  0  0  0  0
    0.4515   -1.1980    0.0000 Cl   0  0  0  0  0  0  0  0  0  0  0  0
  2  3  1  0  0  0  0
  3  1  1  0  0  0  0
  4  2  3  0  0  0  0
  5  8  1  0  0  0  0
  6  1  1  0  0  0  0
  7  1  1  0  0  0  0
  8 12  1  0  0  0  0
  9  5  2  0  0  0  0
 10  7  1  0  0  0  0
 11  6  1  0  0  0  0
 12 10  1  0  0  0  0
 12 11  1  0  0  0  0
 13  3  1  0  0  0  0
 14  3  1  0  0  0  0
 15  5  1  0  0  0  0
M  END
> <CdId>
662

> <Mol Weight>
245.746

> <Formula>
C12H20ClNO2

> <Click_ID>
CLK009_G07 __ __ 

$$$$
