CLK008_E03
 OpenBabel03181417022D

 27 29  0  0  0  0  0  0  0  0999 V2000
    0.0137   -2.0576    0.0000 C   0  0  0  0  0  0  0  0  0  0  0  0
    0.0240   -2.8855    0.0000 C   0  0  0  0  0  0  0  0  0  0  0  0
   -0.6217   -1.5561    0.0000 N   0  0  0  0  0  0  0  0  0  0  0  0
    0.7007   -1.6076    0.0000 O   0  0  0  0  0  0  0  0  0  0  0  0
    0.7317   -3.2976    0.0000 C   0  0  0  0  0  0  0  0  0  0  0  0
   -0.6939   -3.2976    0.0000 C   0  0  0  0  0  0  0  0  0  0  0  0
   -0.3263   -0.7832    0.0000 C   0  0  0  0  0  0  0  0  0  0  0  0
    0.4843   -0.8209    0.0000 C   0  0  0  0  0  0  0  0  0  0  0  0
    0.7248   -4.1255    0.0000 C   0  0  0  0  0  0  0  0  0  0  0  0
    1.4461   -2.8855    0.0000 F   0  0  0  0  0  0  0  0  0  0  0  0
   -0.6939   -4.1255    0.0000 C   0  0  0  0  0  0  0  0  0  0  0  0
   -0.7832   -0.0859    0.0000 C   0  0  0  0  0  0  0  0  0  0  0  0
    0.9928   -0.1649    0.0000 O   0  0  0  0  0  0  0  0  0  0  0  0
    0.0137   -4.5343    0.0000 C   0  0  0  0  0  0  0  0  0  0  0  0
   -0.4019    0.6492    0.0000 C   0  0  0  0  0  0  0  0  0  0  0  0
   -0.8588    1.3465    0.0000 C   0  0  0  0  0  0  0  0  0  0  0  0
    0.4122    0.7007    0.0000 C   0  0  0  0  0  0  0  0  0  0  0  0
   -0.4843    2.0817    0.0000 C   0  0  0  0  0  0  0  0  0  0  0  0
    0.7935    1.4290    0.0000 C   0  0  0  0  0  0  0  0  0  0  0  0
    0.3366    2.1263    0.0000 C   0  0  0  0  0  0  0  0  0  0  0  0
   -0.9309    2.7618    0.0000 O   0  0  0  0  0  0  0  0  0  0  0  0
    0.7111    2.8614    0.0000 O   0  0  0  0  0  0  0  0  0  0  0  0
   -1.7553    2.7205    0.0000 C   0  0  0  0  0  0  0  0  0  0  0  0
    0.2645    3.5450    0.0000 C   0  0  0  0  0  0  0  0  0  0  0  0
   -2.2018    3.4110    0.0000 C   0  0  0  0  0  0  0  0  0  0  0  0
    0.6355    4.2733    0.0000 C   0  0  0  0  0  0  0  0  0  0  0  0
    1.4599    4.3144    0.0000 C   0  0  0  0  0  0  0  0  0  0  0  0
  1  2  1  0  0  0  0
  1  3  2  0  0  0  0
  1  4  1  0  0  0  0
  2  5  1  0  0  0  0
  2  6  2  0  0  0  0
  3  7  1  0  0  0  0
  4  8  1  0  0  0  0
  5  9  2  0  0  0  0
  5 10  1  0  0  0  0
  6 11  1  0  0  0  0
  7 12  2  0  0  0  0
  7  8  1  0  0  0  0
  8 13  2  0  0  0  0
  9 14  1  0  0  0  0
 11 14  2  0  0  0  0
 12 15  1  0  0  0  0
 15 16  1  0  0  0  0
 15 17  2  0  0  0  0
 16 18  2  0  0  0  0
 17 19  1  0  0  0  0
 18 20  1  0  0  0  0
 18 21  1  0  0  0  0
 19 20  2  0  0  0  0
 20 22  1  0  0  0  0
 21 23  1  0  0  0  0
 22 24  1  0  0  0  0
 23 25  1  0  0  0  0
 24 26  1  0  0  0  0
 26 27  3  0  0  0  0
M  END
> <CdId>
582

> <Mol Weight>
365.3544

> <Formula>
C21H16FNO4

> <Click_ID>
CLK008_E03 __ __ 

$$$$
