CLK034_C10
 OpenBabel03181417022D

 19 21  0  0  0  0  0  0  0  0999 V2000
   -4.5726    2.5440    0.0000 C    0  0  0  0  0  0  0  0  0  0  0  0
   -3.8618    2.9639    0.0000 N    0  0  0  0  0  0  0  0  0  0  0  0
   -4.6641    1.7293    0.0000 N    0  0  0  0  0  0  0  0  0  0  0  0
   -5.3084    2.8890    0.0000 S    0  0  0  0  0  0  0  0  0  0  0  0
   -5.4705    1.5671    0.0000 C    0  0  0  0  0  0  0  0  0  0  0  0
   -3.8618    3.7911    0.0000 C    0  0  0  0  0  0  0  0  0  0  0  0
   -5.8696    2.2904    0.0000 C    0  0  0  0  0  0  0  0  0  0  0  0
   -3.1509    4.2027    0.0000 C    0  0  0  0  0  0  0  0  0  0  0  0
   -2.7311    4.9177    0.0000 C    0  0  0  0  0  0  0  0  0  0  0  0
   -2.3196    4.2027    0.0000 C    0  0  0  0  0  0  0  0  0  0  0  0
   -4.2359    0.3492    0.0000 C    0  0  0  0  0  0  0  0  0  0  0  0
   -4.4105   -0.4531    0.0000 C    0  0  0  0  0  0  0  0  0  0  0  0
   -5.8945    0.8688    0.0000 C    0  0  0  0  0  0  0  0  0  0  0  0
   -4.5851    4.2027    0.0000 O    0  0  0  0  0  0  0  0  0  0  0  0
   -4.0488    1.1556    0.0000 C    0  0  0  0  0  0  0  0  0  0  0  0
   -5.4954    0.1455    0.0000 Cl   0  0  0  0  0  0  0  0  0  0  0  0
   -6.6885    2.3029    0.0000 C    0  0  0  0  0  0  0  0  0  0  0  0
   -7.1126    1.5963    0.0000 C    0  0  0  0  0  0  0  0  0  0  0  0
   -6.7010    0.8730    0.0000 C    0  0  0  0  0  0  0  0  0  0  0  0
  2  1  2  0  0  0  0
  3  1  1  0  0  0  0
  4  1  1  0  0  0  0
  5  3  1  0  0  0  0
  6  2  1  0  0  0  0
  7  4  1  0  0  0  0
  7  5  2  0  0  0  0
  8  6  1  0  0  0  0
  9  8  1  0  0  0  0
 10  8  1  0  0  0  0
 10  9  1  0  0  0  0
 11 15  1  0  0  0  0
 12 11  3  0  0  0  0
 13  5  1  0  0  0  0
 14  6  2  0  0  0  0
 15  3  1  0  0  0  0
 16 13  1  0  0  0  0
 17  7  1  0  0  0  0
 18 17  2  0  0  0  0
 19 13  2  0  0  0  0
 19 18  1  0  0  0  0
M  END
> <CdId>
2594

> <Mol Weight>
290.768

> <Formula>
C14H11ClN2OS

> <Click_ID>
CLK034_C10 __ __ 

$$$$
