CLK035_D02
 OpenBabel03181417022D

 20 21  0  0  0  0  0  0  0  0999 V2000
   -4.5695    2.5423    0.0000 C    0  0  0  0  0  0  0  0  0  0  0  0
   -3.8592    2.9619    0.0000 N    0  0  0  0  0  0  0  0  0  0  0  0
   -4.6610    1.7281    0.0000 N    0  0  0  0  0  0  0  0  0  0  0  0
   -5.3048    2.8871    0.0000 S    0  0  0  0  0  0  0  0  0  0  0  0
   -5.4668    1.5661    0.0000 C    0  0  0  0  0  0  0  0  0  0  0  0
   -5.8656    2.2889    0.0000 C    0  0  0  0  0  0  0  0  0  0  0  0
   -3.8592    3.7886    0.0000 C    0  0  0  0  0  0  0  0  0  0  0  0
   -4.2331    0.3489    0.0000 C    0  0  0  0  0  0  0  0  0  0  0  0
   -4.4075   -0.4528    0.0000 C    0  0  0  0  0  0  0  0  0  0  0  0
   -3.1488    4.1999    0.0000 C    0  0  0  0  0  0  0  0  0  0  0  0
   -5.8906    0.8682    0.0000 C    0  0  0  0  0  0  0  0  0  0  0  0
   -4.5820    4.1999    0.0000 O    0  0  0  0  0  0  0  0  0  0  0  0
   -4.0461    1.1548    0.0000 C    0  0  0  0  0  0  0  0  0  0  0  0
   -5.4918    0.1454    0.0000 Cl   0  0  0  0  0  0  0  0  0  0  0  0
   -6.6841    2.3014    0.0000 C    0  0  0  0  0  0  0  0  0  0  0  0
   -7.1078    1.5952    0.0000 C    0  0  0  0  0  0  0  0  0  0  0  0
   -2.4509    3.7595    0.0000 C    0  0  0  0  0  0  0  0  0  0  0  0
   -3.0990    5.0266    0.0000 C    0  0  0  0  0  0  0  0  0  0  0  0
   -2.4426    4.6360    0.0000 C    0  0  0  0  0  0  0  0  0  0  0  0
   -6.6965    0.8724    0.0000 C    0  0  0  0  0  0  0  0  0  0  0  0
  2  1  2  0  0  0  0
  3  1  1  0  0  0  0
  4  1  1  0  0  0  0
  5  3  1  0  0  0  0
  6  4  1  0  0  0  0
  6  5  2  0  0  0  0
  7  2  1  0  0  0  0
  8 13  1  0  0  0  0
  9  8  3  0  0  0  0
 10  7  1  0  0  0  0
 11  5  1  0  0  0  0
 12  7  2  0  0  0  0
 13  3  1  0  0  0  0
 14 11  1  0  0  0  0
 15  6  1  0  0  0  0
 16 15  2  0  0  0  0
 17 10  1  0  0  0  0
 18 10  1  0  0  0  0
 19 10  1  0  0  0  0
 20 11  2  0  0  0  0
 20 16  1  0  0  0  0
M  END
> <CdId>
2676

> <Mol Weight>
306.81

> <Formula>
C15H15ClN2OS

> <Click_ID>
CLK035_D02 __ __ 

$$$$
