CLK033_G06
 OpenBabel03181417022D

 22 24  0  0  0  0  0  0  0  0999 V2000
   -4.5928    2.5553    0.0000 C   0  0  0  0  0  0  0  0  0  0  0  0
   -3.8788    2.9770    0.0000 N   0  0  0  0  0  0  0  0  0  0  0  0
   -4.6847    1.7369    0.0000 N   0  0  0  0  0  0  0  0  0  0  0  0
   -5.3318    2.9018    0.0000 S   0  0  0  0  0  0  0  0  0  0  0  0
   -5.4947    1.5741    0.0000 C   0  0  0  0  0  0  0  0  0  0  0  0
   -5.8955    2.3006    0.0000 C   0  0  0  0  0  0  0  0  0  0  0  0
   -3.8788    3.8079    0.0000 C   0  0  0  0  0  0  0  0  0  0  0  0
   -3.1648    4.2212    0.0000 C   0  0  0  0  0  0  0  0  0  0  0  0
   -6.7181    2.3131    0.0000 C   0  0  0  0  0  0  0  0  0  0  0  0
   -4.2546    0.3507    0.0000 C   0  0  0  0  0  0  0  0  0  0  0  0
   -2.3924    3.8913    0.0000 S   0  0  0  0  0  0  0  0  0  0  0  0
   -4.4300   -0.4551    0.0000 C   0  0  0  0  0  0  0  0  0  0  0  0
   -5.9205    0.8726    0.0000 C   0  0  0  0  0  0  0  0  0  0  0  0
   -7.1440    1.6033    0.0000 C   0  0  0  0  0  0  0  0  0  0  0  0
   -4.6053    4.2212    0.0000 O   0  0  0  0  0  0  0  0  0  0  0  0
   -3.0646    5.0396    0.0000 C   0  0  0  0  0  0  0  0  0  0  0  0
   -1.8496    4.5010    0.0000 C   0  0  0  0  0  0  0  0  0  0  0  0
   -6.7306    0.8851    0.0000 C   0  0  0  0  0  0  0  0  0  0  0  0
   -4.0667    1.1649    0.0000 C   0  0  0  0  0  0  0  0  0  0  0  0
   -2.2630    5.2108    0.0000 C   0  0  0  0  0  0  0  0  0  0  0  0
   -7.1189    3.0396    0.0000 C   0  0  0  0  0  0  0  0  0  0  0  0
   -7.1314    0.1586    0.0000 C   0  0  0  0  0  0  0  0  0  0  0  0
  2  1  2  0  0  0  0
  3  1  1  0  0  0  0
  4  1  1  0  0  0  0
  5  3  1  0  0  0  0
  6  4  1  0  0  0  0
  6  5  2  0  0  0  0
  7  2  1  0  0  0  0
  8  7  1  0  0  0  0
  9  6  1  0  0  0  0
 10 19  1  0  0  0  0
 11  8  1  0  0  0  0
 12 10  3  0  0  0  0
 13  5  1  0  0  0  0
 14  9  2  0  0  0  0
 15  7  2  0  0  0  0
 16  8  2  0  0  0  0
 17 11  1  0  0  0  0
 17 20  2  0  0  0  0
 18 13  2  0  0  0  0
 18 14  1  0  0  0  0
 19  3  1  0  0  0  0
 20 16  1  0  0  0  0
 21  9  1  0  0  0  0
 22 18  1  0  0  0  0
M  END
> <CdId>
2550

> <Mol Weight>
326.436

> <Formula>
C17H14N2OS2

> <Click_ID>
CLK033_G06 __ __ 

$$$$
