CLK051A04
 OpenBabel03181417022D

 18 18  0  0  0  0  0  0  0  0999 V2000
    0.2375    1.6083    0.0000 C   0  0  0  0  0  0  0  0  0  0  0  0
    0.2375    0.7833    0.0000 N   0  0  0  0  0  0  0  0  0  0  0  0
    1.6667    3.2583    0.0000 C   0  0  0  0  0  0  0  0  0  0  0  0
    2.3792    3.6708    0.0000 C   0  0  0  0  0  0  0  0  0  0  0  0
   -0.4792    0.3708    0.0000 C   0  0  3  0  0  0  0  0  0  0  0  0
   -0.4792   -0.4542    0.0000 C   0  0  0  0  0  0  0  0  0  0  0  0
   -0.4792    2.0208    0.0000 O   0  0  0  0  0  0  0  0  0  0  0  0
   -0.4792   -2.1042    0.0000 C   0  0  0  0  0  0  0  0  0  0  0  0
    0.9500    2.0208    0.0000 N   0  0  0  0  0  0  0  0  0  0  0  0
   -1.1917   -0.8667    0.0000 C   0  0  0  0  0  0  0  0  0  0  0  0
    0.2375   -0.8667    0.0000 C   0  0  0  0  0  0  0  0  0  0  0  0
   -1.1917   -1.6917    0.0000 C   0  0  0  0  0  0  0  0  0  0  0  0
    0.2375   -1.6917    0.0000 C   0  0  0  0  0  0  0  0  0  0  0  0
   -0.4792   -2.9292    0.0000 C   0  0  0  0  0  0  0  0  0  0  0  0
    0.9500    2.8458    0.0000 C   0  0  0  0  0  0  0  0  0  0  0  0
   -1.1917    0.7833    0.0000 C   0  0  0  0  0  0  0  0  0  0  0  0
    0.2375   -3.3417    0.0000 C   0  0  0  0  0  0  0  0  0  0  0  0
   -1.1917   -3.3417    0.0000 C   0  0  0  0  0  0  0  0  0  0  0  0
  2  1  1  0  0  0  0
  3 15  1  0  0  0  0
  4  3  3  0  0  0  0
  5  2  1  0  0  0  0
  6  5  1  0  0  0  0
  7  1  2  0  0  0  0
  8 12  2  0  0  0  0
  9  1  1  0  0  0  0
 10  6  2  0  0  0  0
 11  6  1  0  0  0  0
 12 10  1  0  0  0  0
 13 11  2  0  0  0  0
 13  8  1  0  0  0  0
 14  8  1  0  0  0  0
 15  9  1  0  0  0  0
 16  5  1  0  0  0  0
 17 14  1  0  0  0  0
 18 14  1  0  0  0  0
M  END
> <CdId>
3905

> <Mol Weight>
244.3321

> <Formula>
C15H20N2O

> <Click_ID>
CLK051A04 __ __ 

$$$$
