CLK005_H05
 OpenBabel03181417022D

 16 17  0  0  0  0  0  0  0  0999 V2000
   -0.4860   -0.1546    0.0000 C   0  0  0  0  0  0  0  0  0  0  0  0
    0.2208    0.2577    0.0000 N   0  0  0  0  0  0  0  0  0  0  0  0
   -1.2026    0.2528    0.0000 C   0  0  0  0  0  0  0  0  0  0  0  0
   -0.4860   -0.9744    0.0000 C   0  0  0  0  0  0  0  0  0  0  0  0
    0.9326   -0.1473    0.0000 C   0  0  0  0  0  0  0  0  0  0  0  0
   -1.9241   -0.1620    0.0000 C   0  0  0  0  0  0  0  0  0  0  0  0
   -1.1977   -1.3916    0.0000 C   0  0  0  0  0  0  0  0  0  0  0  0
    1.6492    0.2650    0.0000 C   0  0  0  0  0  0  0  0  0  0  0  0
    0.9326   -0.9744    0.0000 O   0  0  0  0  0  0  0  0  0  0  0  0
   -1.9241   -0.9891    0.0000 C   0  0  0  0  0  0  0  0  0  0  0  0
   -2.6358    0.2454    0.0000 C   0  0  0  0  0  0  0  0  0  0  0  0
    1.6492    1.0897    0.0000 C   0  0  0  0  0  0  0  0  0  0  0  0
    2.4419    0.0073    0.0000 S   0  0  0  0  0  0  0  0  0  0  0  0
   -3.3378    0.6479    0.0000 C   0  0  0  0  0  0  0  0  0  0  0  0
    2.4419    1.3474    0.0000 C   0  0  0  0  0  0  0  0  0  0  0  0
    2.9254    0.6798    0.0000 C   0  0  0  0  0  0  0  0  0  0  0  0
  1  2  1  0  0  0  0
  1  3  2  0  0  0  0
  1  4  1  0  0  0  0
  2  5  1  0  0  0  0
  3  6  1  0  0  0  0
  4  7  2  0  0  0  0
  5  8  1  0  0  0  0
  5  9  2  0  0  0  0
  6 10  2  0  0  0  0
  6 11  1  0  0  0  0
  7 10  1  0  0  0  0
  8 12  2  0  0  0  0
  8 13  1  0  0  0  0
 11 14  3  0  0  0  0
 12 15  1  0  0  0  0
 13 16  1  0  0  0  0
 15 16  2  0  0  0  0
M  END
> <CdId>
394

> <Mol Weight>
227.282

> <Formula>
C13H9NOS

> <Click_ID>
CLK005_H05 __ __ 

$$$$
