CLK001_F03
 OpenBabel03181417022D

 17 18  0  0  0  0  0  0  0  0999 V2000
   -1.9283    0.7528    0.0000 C   0  0  0  0  0  0  0  0  0  0  0  0
   -1.9283   -0.0757    0.0000 C   0  0  0  0  0  0  0  0  0  0  0  0
   -0.4950    0.7666    0.0000 N   0  0  0  0  0  0  0  0  0  0  0  0
   -2.6501    1.1653    0.0000 C   0  0  0  0  0  0  0  0  0  0  0  0
   -1.2064   -0.4881    0.0000 S   0  0  0  0  0  0  0  0  0  0  0  0
   -2.6501   -0.4813    0.0000 C   0  0  0  0  0  0  0  0  0  0  0  0
   -0.4881   -0.0688    0.0000 C   0  0  0  0  0  0  0  0  0  0  0  0
   -3.3548    0.7528    0.0000 C   0  0  0  0  0  0  0  0  0  0  0  0
   -3.3548   -0.0688    0.0000 C   0  0  0  0  0  0  0  0  0  0  0  0
    0.2269   -0.4744    0.0000 S   0  0  0  0  0  0  0  0  0  0  0  0
    0.9384   -0.0550    0.0000 C   0  0  0  0  0  0  0  0  0  0  0  0
    1.6464   -0.4640    0.0000 C   0  0  0  0  0  0  0  0  0  0  0  0
    2.3580   -0.0447    0.0000 O   0  0  0  0  0  0  0  0  0  0  0  0
    1.6602   -1.2856    0.0000 O   0  0  0  0  0  0  0  0  0  0  0  0
    3.0764   -0.4503    0.0000 C   0  0  0  0  0  0  0  0  0  0  0  0
    3.7879   -0.0309    0.0000 C   0  0  0  0  0  0  0  0  0  0  0  0
    4.3654    0.5534    0.0000 C   0  0  0  0  0  0  0  0  0  0  0  0
  1  2  1  0  0  0  0
  1  3  1  0  0  0  0
  1  4  2  0  0  0  0
  2  5  1  0  0  0  0
  2  6  2  0  0  0  0
  3  7  2  0  0  0  0
  4  8  1  0  0  0  0
  5  7  1  0  0  0  0
  6  9  1  0  0  0  0
  7 10  1  0  0  0  0
  8  9  2  0  0  0  0
 10 11  1  0  0  0  0
 11 12  1  0  0  0  0
 12 13  1  0  0  0  0
 12 14  2  0  0  0  0
 13 15  1  0  0  0  0
 15 16  1  0  0  0  0
 16 17  3  0  0  0  0
M  END
> <CdId>
52

> <Mol Weight>
263.335

> <Formula>
C12H9NO2S2

> <Click_ID>
CLK001_F03 __ __ 

$$$$
