CLK002_C04
 OpenBabel03181417022D

 30 34  0  0  0  0  0  0  0  0999 V2000
   -0.7259   -0.5600    0.0000 C   0  0  0  0  0  0  0  0  0  0  0  0
   -1.4080   -0.9471    0.0000 C   0  0  0  0  0  0  0  0  0  0  0  0
   -0.7259    0.2973    0.0000 C   0  0  0  0  0  0  0  0  0  0  0  0
   -0.0138   -0.9471    0.0000 C   0  0  0  0  0  0  0  0  0  0  0  0
   -2.1293   -0.5600    0.0000 C   0  0  0  0  0  0  0  0  0  0  0  0
   -2.0970   -1.3711    0.0000 C   0  0  0  0  0  0  0  0  0  0  0  0
   -0.7259   -1.3711    0.0000 C   0  0  0  0  0  0  0  0  0  0  0  0
   -1.4172    0.6752    0.0000 C   0  0  0  0  0  0  0  0  0  0  0  0
   -0.0138    0.6752    0.0000 N   0  0  0  0  0  0  0  0  0  0  0  0
    0.7121   -0.5600    0.0000 N   0  0  0  0  0  0  0  0  0  0  0  0
   -0.0138   -1.7837    0.0000 O   0  0  0  0  0  0  0  0  0  0  0  0
   -2.1293    0.2973    0.0000 C   0  0  0  0  0  0  0  0  0  0  0  0
   -2.0970   -2.2053    0.0000 C   0  0  0  0  0  0  0  0  0  0  0  0
   -0.7259   -2.2053    0.0000 C   0  0  0  0  0  0  0  0  0  0  0  0
   -1.4172    1.5002    0.0000 C   0  0  0  0  0  0  0  0  0  0  0  0
    0.7121    0.2973    0.0000 C   0  0  0  0  0  0  0  0  0  0  0  0
    1.3689   -0.9702    0.0000 C   0  0  0  0  0  0  0  0  0  0  0  0
   -2.8206    0.6752    0.0000 C   0  0  0  0  0  0  0  0  0  0  0  0
   -2.1293    1.9035    0.0000 C   0  0  0  0  0  0  0  0  0  0  0  0
    1.4126    0.7420    0.0000 S   0  0  0  0  0  0  0  0  0  0  0  0
    2.1040   -0.5715    0.0000 C   0  0  0  0  0  0  0  0  0  0  0  0
   -2.8206    1.5002    0.0000 C   0  0  0  0  0  0  0  0  0  0  0  0
    1.4126    1.5832    0.0000 C   0  0  0  0  0  0  0  0  0  0  0  0
    2.1247    0.2673    0.0000 C   0  0  0  0  0  0  0  0  0  0  0  0
    2.8252   -1.0231    0.0000 C   0  0  0  0  0  0  0  0  0  0  0  0
    0.7098    1.9841    0.0000 C   0  0  0  0  0  0  0  0  0  0  0  0
    2.8690    0.6752    0.0000 C   0  0  0  0  0  0  0  0  0  0  0  0
    3.5696   -0.6061    0.0000 C   0  0  0  0  0  0  0  0  0  0  0  0
    0.0115    2.3805    0.0000 C   0  0  0  0  0  0  0  0  0  0  0  0
    3.5857    0.2328    0.0000 C   0  0  0  0  0  0  0  0  0  0  0  0
  1  2  1  0  0  0  0
  1  3  2  0  0  0  0
  1  4  1  0  0  0  0
  2  5  1  0  0  0  0
  2  6  1  0  0  0  0
  2  7  1  0  0  0  0
  3  8  1  0  0  0  0
  3  9  1  0  0  0  0
  4 10  1  0  0  0  0
  4 11  2  0  0  0  0
  5 12  1  0  0  0  0
  6 13  1  0  0  0  0
  7 14  1  0  0  0  0
  8 15  2  0  0  0  0
  8 12  1  0  0  0  0
  9 16  2  0  0  0  0
 10 17  1  0  0  0  0
 10 16  1  0  0  0  0
 12 18  2  0  0  0  0
 13 14  1  0  0  0  0
 15 19  1  0  0  0  0
 16 20  1  0  0  0  0
 17 21  1  0  0  0  0
 18 22  1  0  0  0  0
 19 22  2  0  0  0  0
 20 23  1  0  0  0  0
 21 24  2  0  0  0  0
 21 25  1  0  0  0  0
 23 26  1  0  0  0  0
 24 27  1  0  0  0  0
 25 28  2  0  0  0  0
 26 29  3  0  0  0  0
 27 30  2  0  0  0  0
 28 30  1  0  0  0  0
M  END
> <CdId>
103

> <Mol Weight>
412.547

> <Formula>
C26H24N2OS

> <Click_ID>
CLK002_C04 __ __ 

$$$$
