CLK039F07
 OpenBabel03181417022D

 18 19  0  0  0  0  0  0  0  0999 V2000
    3.8500   -0.1125    0.0000 C   0  0  0  0  0  0  0  0  0  0  0  0
    4.5625    0.3000    0.0000 C   0  0  0  0  0  0  0  0  0  0  0  0
    1.7042   -0.5250    0.0000 C   0  0  0  0  0  0  0  0  0  0  0  0
   -1.8667   -0.1125    0.0000 C   0  0  0  0  0  0  0  0  0  0  0  0
   -1.1542   -0.5250    0.0000 C   0  0  0  0  0  0  0  0  0  0  0  0
    1.7042   -1.3500    0.0000 O   0  0  0  0  0  0  0  0  0  0  0  0
   -1.8667    0.7125    0.0000 C   0  0  0  0  0  0  0  0  0  0  0  0
   -1.1542    1.1250    0.0000 C   0  0  0  0  0  0  0  0  0  0  0  0
    2.4208   -0.1125    0.0000 N   0  0  0  0  0  0  0  0  0  0  0  0
   -0.4375   -0.1125    0.0000 C   0  0  0  0  0  0  0  0  0  0  0  0
    0.2750   -0.5250    0.0000 O   0  0  0  0  0  0  0  0  0  0  0  0
    0.9917   -0.1125    0.0000 C   0  0  0  0  0  0  0  0  0  0  0  0
   -0.4375    0.7125    0.0000 C   0  0  0  0  0  0  0  0  0  0  0  0
    3.1333   -0.5250    0.0000 C   0  0  0  0  0  0  0  0  0  0  0  0
   -2.5833   -0.5250    0.0000 C   0  0  0  0  0  0  0  0  0  0  0  0
   -2.5833    1.1250    0.0000 C   0  0  0  0  0  0  0  0  0  0  0  0
   -3.2958   -0.1125    0.0000 C   0  0  0  0  0  0  0  0  0  0  0  0
   -3.2958    0.7125    0.0000 C   0  0  0  0  0  0  0  0  0  0  0  0
  2  1  3  0  0  0  0
  3  9  1  0  0  0  0
  4  5  1  0  0  0  0
  5 10  2  0  0  0  0
  6  3  2  0  0  0  0
  7  4  2  0  0  0  0
  7  8  1  0  0  0  0
  8 13  2  0  0  0  0
  9 14  1  0  0  0  0
 10 11  1  0  0  0  0
 11 12  1  0  0  0  0
 12  3  1  0  0  0  0
 13 10  1  0  0  0  0
 14  1  1  0  0  0  0
 15  4  1  0  0  0  0
 16  7  1  0  0  0  0
 17 15  2  0  0  0  0
 17 18  1  0  0  0  0
 18 16  2  0  0  0  0
M  END
> <CdId>
2974

> <Mol Weight>
239.2692

> <Formula>
C15H13NO2

> <Click_ID>
CLK039F07 __ __ 

$$$$
