CLK039D04
 OpenBabel03181417022D

 18 18  0  0  0  0  0  0  0  0999 V2000
   -0.3208    1.1958    0.0000 S   0  0  0  0  0  0  0  0  0  0  0  0
    0.3958   -2.5167    0.0000 C   0  0  0  0  0  0  0  0  0  0  0  0
   -0.3208    0.3708    0.0000 C   0  0  0  0  0  0  0  0  0  0  0  0
    0.3958    3.2583    0.0000 C   0  0  0  0  0  0  0  0  0  0  0  0
    0.3958    4.0792    0.0000 C   0  0  0  0  0  0  0  0  0  0  0  0
   -1.1458    1.1958    0.0000 O   0  0  0  0  0  0  0  0  0  0  0  0
    0.5042    1.1958    0.0000 O   0  0  0  0  0  0  0  0  0  0  0  0
   -0.3208    2.0208    0.0000 N   0  0  0  0  0  0  0  0  0  0  0  0
   -0.3208   -2.1042    0.0000 O   0  0  0  0  0  0  0  0  0  0  0  0
    0.3958   -0.0417    0.0000 C   0  0  0  0  0  0  0  0  0  0  0  0
   -1.0333   -0.0417    0.0000 C   0  0  0  0  0  0  0  0  0  0  0  0
   -0.0167   -3.2333    0.0000 F   0  0  0  0  0  0  0  0  0  0  0  0
    1.1083   -2.9292    0.0000 F   0  0  0  0  0  0  0  0  0  0  0  0
    0.8083   -1.8042    0.0000 F   0  0  0  0  0  0  0  0  0  0  0  0
   -0.3208   -1.2792    0.0000 C   0  0  0  0  0  0  0  0  0  0  0  0
    0.3958   -0.8667    0.0000 C   0  0  0  0  0  0  0  0  0  0  0  0
   -1.0333   -0.8667    0.0000 C   0  0  0  0  0  0  0  0  0  0  0  0
    0.3958    2.4333    0.0000 C   0  0  0  0  0  0  0  0  0  0  0  0
  2  9  1  0  0  0  0
  3  1  1  0  0  0  0
  4 18  1  0  0  0  0
  5  4  3  0  0  0  0
  6  1  2  0  0  0  0
  7  1  2  0  0  0  0
  8  1  1  0  0  0  0
  9 15  1  0  0  0  0
 10  3  1  0  0  0  0
 11  3  2  0  0  0  0
 12  2  1  0  0  0  0
 13  2  1  0  0  0  0
 14  2  1  0  0  0  0
 15 17  2  0  0  0  0
 16 10  2  0  0  0  0
 16 15  1  0  0  0  0
 17 11  1  0  0  0  0
 18  8  1  0  0  0  0
M  END
> <CdId>
2948

> <Mol Weight>
279.236

> <Formula>
C10H8F3NO3S

> <Click_ID>
CLK039D04 __ __ 

$$$$
