CLK006_C06
 OpenBabel03181417022D

 25 27  0  0  0  0  0  0  0  0999 V2000
    5.3460   -5.4249    0.0000 C   0  0  0  0  0  0  0  0  0  0  0  0
    5.5956   -4.6428    0.0000 N   0  0  0  0  0  0  0  0  0  0  0  0
    4.5222   -5.4249    0.0000 N   0  0  0  0  0  0  0  0  0  0  0  0
    4.2642   -4.6387    0.0000 C   0  0  0  0  0  0  0  0  0  0  0  0
    4.9299   -4.1561    0.0000 C   0  0  0  0  0  0  0  0  0  0  0  0
    3.2118   -6.0240    0.0000 C   0  0  0  0  0  0  0  0  0  0  0  0
    2.3880   -5.9450    0.0000 C   0  0  0  0  0  0  0  0  0  0  0  0
    6.8062   -7.4219    0.0000 C   0  0  0  0  0  0  0  0  0  0  0  0
    5.8368   -6.0948    0.0000 C   0  0  0  0  0  0  0  0  0  0  0  0
    7.1432   -6.6689    0.0000 C   0  0  0  0  0  0  0  0  0  0  0  0
    6.6605   -6.0033    0.0000 O   0  0  0  0  0  0  0  0  0  0  0  0
    7.2930   -8.0917    0.0000 C   0  0  0  0  0  0  0  0  0  0  0  0
    4.0355   -6.1031    0.0000 C   0  0  0  0  0  0  0  0  0  0  0  0
    8.5993   -8.6741    0.0000 C   0  0  0  0  0  0  0  0  0  0  0  0
    7.9627   -6.5816    0.0000 C   0  0  0  0  0  0  0  0  0  0  0  0
    9.4188   -8.5868    0.0000 C   0  0  0  0  0  0  0  0  0  0  0  0
    8.1125   -8.0044    0.0000 C   0  0  0  0  0  0  0  0  0  0  0  0
    8.4495   -7.2513    0.0000 C   0  0  0  0  0  0  0  0  0  0  0  0
    5.9825   -7.5051    0.0000 O   0  0  0  0  0  0  0  0  0  0  0  0
    3.5113   -4.3017    0.0000 C   0  0  0  0  0  0  0  0  0  0  0  0
    4.8425   -3.3366    0.0000 C   0  0  0  0  0  0  0  0  0  0  0  0
    9.9055   -9.2565    0.0000 C   0  0  0  0  0  0  0  0  0  0  0  0
    5.6413   -8.2581    0.0000 C   0  0  0  0  0  0  0  0  0  0  0  0
    3.4239   -3.4821    0.0000 C   0  0  0  0  0  0  0  0  0  0  0  0
    4.0895   -2.9996    0.0000 C   0  0  0  0  0  0  0  0  0  0  0  0
  2  1  2  0  0  0  0
  3  1  1  0  0  0  0
  4  3  1  0  0  0  0
  5  2  1  0  0  0  0
  5  4  1  0  0  0  0
  6 13  1  0  0  0  0
  7  6  3  0  0  0  0
  8 10  2  0  0  0  0
  9  1  1  0  0  0  0
 10 11  1  0  0  0  0
 11  9  1  0  0  0  0
 12  8  1  0  0  0  0
 13  3  1  0  0  0  0
 14 17  1  0  0  0  0
 15 10  1  0  0  0  0
 16 14  2  0  0  0  0
 17 18  1  0  0  0  0
 17 12  2  0  0  0  0
 18 15  2  0  0  0  0
 19  8  1  0  0  0  0
 20  4  2  0  0  0  0
 21  5  2  0  0  0  0
 22 16  1  0  0  0  0
 23 19  1  0  0  0  0
 24 20  1  0  0  0  0
 25 21  1  0  0  0  0
 25 24  2  0  0  0  0
M  END
> <CdId>
425

> <Mol Weight>
332.3957

> <Formula>
C21H20N2O2

> <Click_ID>
CLK006_C06 __ __ 

$$$$
