CLK035_D03
 OpenBabel03181417022D

 23 25  0  0  0  0  0  0  0  0999 V2000
   -4.5954    2.5581    0.0000 C   0  0  0  0  0  0  0  0  0  0  0  0
   -3.8622    2.9831    0.0000 N   0  0  0  0  0  0  0  0  0  0  0  0
   -4.6871    1.7332    0.0000 N   0  0  0  0  0  0  0  0  0  0  0  0
   -5.3204    2.8998    0.0000 S   0  0  0  0  0  0  0  0  0  0  0  0
   -3.8705    3.7997    0.0000 C   0  0  0  0  0  0  0  0  0  0  0  0
   -5.4954    1.5832    0.0000 C   0  0  0  0  0  0  0  0  0  0  0  0
   -5.8953    2.3081    0.0000 C   0  0  0  0  0  0  0  0  0  0  0  0
   -3.1580    4.2122    0.0000 C   0  0  0  0  0  0  0  0  0  0  0  0
   -4.2705    0.3583    0.0000 C   0  0  0  0  0  0  0  0  0  0  0  0
   -4.4579   -0.4542    0.0000 C   0  0  0  0  0  0  0  0  0  0  0  0
   -3.1497    5.0163    0.0000 C   0  0  0  0  0  0  0  0  0  0  0  0
   -4.5829    4.2122    0.0000 O   0  0  0  0  0  0  0  0  0  0  0  0
   -5.9245    0.8832    0.0000 C   0  0  0  0  0  0  0  0  0  0  0  0
   -4.0830    1.1624    0.0000 C   0  0  0  0  0  0  0  0  0  0  0  0
   -3.8747    5.4413    0.0000 F   0  0  0  0  0  0  0  0  0  0  0  0
   -6.7120    2.3331    0.0000 C   0  0  0  0  0  0  0  0  0  0  0  0
   -2.4331    3.7997    0.0000 C   0  0  0  0  0  0  0  0  0  0  0  0
   -7.1411    1.6249    0.0000 C   0  0  0  0  0  0  0  0  0  0  0  0
   -6.7287    0.8957    0.0000 C   0  0  0  0  0  0  0  0  0  0  0  0
   -2.4373    5.4413    0.0000 C   0  0  0  0  0  0  0  0  0  0  0  0
   -5.5329    0.1500    0.0000 C   0  0  0  0  0  0  0  0  0  0  0  0
   -1.7207    4.2039    0.0000 C   0  0  0  0  0  0  0  0  0  0  0  0
   -1.7249    5.0288    0.0000 C   0  0  0  0  0  0  0  0  0  0  0  0
  2  1  2  0  0  0  0
  3  1  1  0  0  0  0
  4  1  1  0  0  0  0
  5  2  1  0  0  0  0
  6  3  1  0  0  0  0
  7  4  1  0  0  0  0
  7  6  2  0  0  0  0
  8  5  1  0  0  0  0
  9 14  1  0  0  0  0
 10  9  3  0  0  0  0
 11  8  1  0  0  0  0
 12  5  2  0  0  0  0
 13  6  1  0  0  0  0
 14  3  1  0  0  0  0
 15 11  1  0  0  0  0
 16  7  1  0  0  0  0
 17  8  2  0  0  0  0
 18 16  2  0  0  0  0
 19 13  2  0  0  0  0
 19 18  1  0  0  0  0
 20 11  2  0  0  0  0
 20 23  1  0  0  0  0
 21 13  1  0  0  0  0
 22 17  1  0  0  0  0
 23 22  2  0  0  0  0
M  END
> <CdId>
2677

> <Mol Weight>
324.372

> <Formula>
C18H13FN2OS

> <Click_ID>
CLK035_D03 __ __ 

$$$$
