CLK005_A02
 OpenBabel03181417022D

 27 30  0  0  0  0  0  0  0  0999 V2000
    0.3950    0.3609    0.0000 C   0  0  3  0  0  0  0  0  0  0  0  0
    1.1129   -0.0456    0.0000 C   0  0  0  0  0  0  0  0  0  0  0  0
    0.3837    1.1813    0.0000 C   0  0  0  0  0  0  0  0  0  0  0  0
   -0.3191   -0.0570    0.0000 C   0  0  0  0  0  0  0  0  0  0  0  0
    1.8234    0.3837    0.0000 C   0  0  0  0  0  0  0  0  0  0  0  0
    1.1205   -0.8585    0.0000 C   0  0  0  0  0  0  0  0  0  0  0  0
    1.0864    1.5992    0.0000 C   0  0  0  0  0  0  0  0  0  0  0  0
   -0.3342    1.5840    0.0000 C   0  0  0  0  0  0  0  0  0  0  0  0
   -0.3039   -0.8850    0.0000 C   0  0  0  0  0  0  0  0  0  0  0  0
   -1.0370    0.3418    0.0000 C   0  0  0  0  0  0  0  0  0  0  0  0
    1.8119    1.2004    0.0000 N   0  0  0  0  0  0  0  0  0  0  0  0
    2.5450   -0.0189    0.0000 C   0  0  0  0  0  0  0  0  0  0  0  0
    1.8423   -1.2687    0.0000 C   0  0  0  0  0  0  0  0  0  0  0  0
    0.4065   -1.2915    0.0000 O   0  0  0  0  0  0  0  0  0  0  0  0
    1.0788    2.4349    0.0000 C   0  0  0  0  0  0  0  0  0  0  0  0
   -0.3457    2.4046    0.0000 C   0  0  0  0  0  0  0  0  0  0  0  0
   -1.0484    1.1661    0.0000 O   0  0  0  0  0  0  0  0  0  0  0  0
   -1.0142   -1.3106    0.0000 C   0  0  0  0  0  0  0  0  0  0  0  0
   -1.7512   -0.0874    0.0000 C   0  0  0  0  0  0  0  0  0  0  0  0
    2.5185    1.6258    0.0000 C   0  0  0  0  0  0  0  0  0  0  0  0
    2.5526   -0.8509    0.0000 C   0  0  0  0  0  0  0  0  0  0  0  0
    0.3570    2.8224    0.0000 C   0  0  0  0  0  0  0  0  0  0  0  0
   -1.7360   -0.9117    0.0000 C   0  0  0  0  0  0  0  0  0  0  0  0
   -2.4463   -1.3409    0.0000 O   0  0  0  0  0  0  0  0  0  0  0  0
   -2.4311   -2.1652    0.0000 C   0  0  0  0  0  0  0  0  0  0  0  0
   -3.1414   -2.5869    0.0000 C   0  0  0  0  0  0  0  0  0  0  0  0
   -3.1301   -3.4187    0.0000 C   0  0  0  0  0  0  0  0  0  0  0  0
  1  2  1  0  0  0  0
  1  3  1  0  0  0  0
  1  4  1  0  0  0  0
  2  5  2  0  0  0  0
  2  6  1  0  0  0  0
  3  7  2  0  0  0  0
  3  8  1  0  0  0  0
  4  9  2  0  0  0  0
  4 10  1  0  0  0  0
  5 11  1  0  0  0  0
  5 12  1  0  0  0  0
  6 13  1  0  0  0  0
  6 14  2  0  0  0  0
  7 15  1  0  0  0  0
  7 11  1  0  0  0  0
  8 16  1  0  0  0  0
  8 17  2  0  0  0  0
  9 18  1  0  0  0  0
 10 19  2  0  0  0  0
 11 20  1  0  0  0  0
 12 21  1  0  0  0  0
 13 21  1  0  0  0  0
 15 22  1  0  0  0  0
 16 22  1  0  0  0  0
 18 23  2  0  0  0  0
 19 23  1  0  0  0  0
 23 24  1  0  0  0  0
 24 25  1  0  0  0  0
 25 26  1  0  0  0  0
 26 27  3  0  0  0  0
M  END
> <CdId>
321

> <Mol Weight>
361.4336

> <Formula>
C23H23NO3

> <Click_ID>
CLK005_A02 __ __ 

$$$$
