CLK029_D04
 OpenBabel03181417022D

 33 36  0  0  0  0  0  0  0  0999 V2000
   -1.1708    0.9625    0.0000 C   0  0  0  0  0  0  0  0  0  0  0  0
   -1.6583    0.2958    0.0000 N   0  0  0  0  0  0  0  0  0  0  0  0
   -0.3458    0.9625    0.0000 N   0  0  0  0  0  0  0  0  0  0  0  0
    2.6250    1.0458    0.0000 C   0  0  0  0  0  0  0  0  0  0  0  0
   -1.6583    1.6333    0.0000 S   0  0  0  0  0  0  0  0  0  0  0  0
    3.4542    1.1083    0.0000 N   0  0  0  0  0  0  0  0  0  0  0  0
    3.8167    0.4375    0.0000 C   0  0  0  0  0  0  0  0  0  0  0  0
    2.0417    1.6250    0.0000 N   0  0  0  0  0  0  0  0  0  0  0  0
   -2.4458    0.5500    0.0000 C   0  0  0  0  0  0  0  0  0  0  0  0
   -2.4458    1.3750    0.0000 C   0  0  0  0  0  0  0  0  0  0  0  0
    2.5000    0.2333    0.0000 S   0  0  0  0  0  0  0  0  0  0  0  0
    3.2292   -0.1417    0.0000 C   0  0  0  0  0  0  0  0  0  0  0  0
   -0.1333    1.7625    0.0000 C   0  0  0  0  0  0  0  0  0  0  0  0
   -0.6000   -0.6542    0.0000 C   0  0  0  0  0  0  0  0  0  0  0  0
    2.2500    2.4250    0.0000 C   0  0  0  0  0  0  0  0  0  0  0  0
   -0.0500   -0.0417    0.0000 C   0  0  0  0  0  0  0  0  0  0  0  0
    4.6292    0.3208    0.0000 C   0  0  0  0  0  0  0  0  0  0  0  0
   -1.4000   -0.4792    0.0000 C   0  0  0  0  0  0  0  0  0  0  0  0
   -0.7208    2.3458    0.0000 O   0  0  0  0  0  0  0  0  0  0  0  0
    3.0500    2.6458    0.0000 O   0  0  0  0  0  0  0  0  0  0  0  0
    0.8667    2.7833    0.0000 S   0  0  0  0  0  0  0  0  0  0  0  0
    0.6542    1.9833    0.0000 C   0  0  0  0  0  0  0  0  0  0  0  0
    1.6625    3.0000    0.0000 C   0  0  0  0  0  0  0  0  0  0  0  0
   -3.1583    0.1458    0.0000 C   0  0  0  0  0  0  0  0  0  0  0  0
   -3.1583    1.7958    0.0000 C   0  0  0  0  0  0  0  0  0  0  0  0
    5.1542    0.9583    0.0000 C   0  0  0  0  0  0  0  0  0  0  0  0
    4.9292   -0.4542    0.0000 C   0  0  0  0  0  0  0  0  0  0  0  0
   -3.8625    0.5500    0.0000 C   0  0  0  0  0  0  0  0  0  0  0  0
   -3.8625    1.3750    0.0000 C   0  0  0  0  0  0  0  0  0  0  0  0
    5.9750    0.8333    0.0000 C   0  0  0  0  0  0  0  0  0  0  0  0
    5.7417   -0.5875    0.0000 C   0  0  0  0  0  0  0  0  0  0  0  0
    6.2667    0.0583    0.0000 C   0  0  0  0  0  0  0  0  0  0  0  0
   -4.5833    1.7833    0.0000 H   0  0  0  0  0  0  0  0  0  0  0  0
  2  1  1  0  0  0  0
  3  1  2  0  0  0  0
  4  8  1  0  0  0  0
  5  1  1  0  0  0  0
  6  4  2  0  0  0  0
  7  6  1  0  0  0  0
  8 15  1  0  0  0  0
  9  2  1  0  0  0  0
 10  5  1  0  0  0  0
 10  9  2  0  0  0  0
 11  4  1  0  0  0  0
 12 11  1  0  0  0  0
 12  7  2  0  0  0  0
 13  3  1  0  0  0  0
 14 18  1  0  0  0  0
 15 23  1  0  0  0  0
 16 14  3  0  0  0  0
 17  7  1  0  0  0  0
 18  2  1  0  0  0  0
 19 13  2  0  0  0  0
 20 15  2  0  0  0  0
 21 22  1  0  0  0  0
 22 13  1  0  0  0  0
 23 21  1  0  0  0  0
 24  9  1  0  0  0  0
 25 10  1  0  0  0  0
 26 17  1  0  0  0  0
 27 17  2  0  0  0  0
 28 24  2  0  0  0  0
 29 25  2  0  0  0  0
 29 28  1  0  0  0  0
 30 26  2  0  0  0  0
 31 27  1  0  0  0  0
 32 31  2  0  0  0  0
 32 30  1  0  0  0  0
 33 29  1  0  0  0  0
M  END
> <CdId>
2198

> <Mol Weight>
478.61

> <Formula>
C23H18N4O2S3

> <Click_ID>
CLK029_D04 __ __ 

$$$$
