CLK038B02
 OpenBabel03181417022D

 21 21  0  0  0  0  0  0  0  0999 V2000
   -0.6125    3.5000    0.0000 N   0  3  0  0  0  0  0  0  0  0  0  0
    0.8125   -3.1000    0.0000 C   0  0  0  0  0  0  0  0  0  0  0  0
   -0.6125    2.6750    0.0000 C   0  0  0  0  0  0  0  0  0  0  0  0
    0.8125   -3.9250    0.0000 C   0  0  0  0  0  0  0  0  0  0  0  0
    0.1000   -1.0375    0.0000 C   0  0  0  0  0  0  0  0  0  0  0  0
    0.1000    3.9125    0.0000 O   0  5  0  0  0  0  0  0  0  0  0  0
    0.8125   -1.4500    0.0000 N   0  0  0  0  0  0  0  0  0  0  0  0
   -1.3292    3.9125    0.0000 O   0  0  0  0  0  0  0  0  0  0  0  0
    0.8125   -2.2750    0.0000 C   0  0  0  0  0  0  0  0  0  0  0  0
   -0.6125    0.2000    0.0000 S   0  0  0  0  0  0  0  0  0  0  0  0
   -0.6125   -1.4500    0.0000 O   0  0  0  0  0  0  0  0  0  0  0  0
   -1.3292    2.2625    0.0000 C   0  0  0  0  0  0  0  0  0  0  0  0
    0.1000    2.2625    0.0000 C   0  0  0  0  0  0  0  0  0  0  0  0
    0.1000   -0.2125    0.0000 C   0  0  0  0  0  0  0  0  0  0  0  0
   -0.6125    1.0250    0.0000 C   0  0  0  0  0  0  0  0  0  0  0  0
   -1.3292    1.4375    0.0000 C   0  0  0  0  0  0  0  0  0  0  0  0
    0.1000    1.4375    0.0000 C   0  0  0  0  0  0  0  0  0  0  0  0
    1.6375   -2.2750    0.0000 C   0  0  0  0  0  0  0  0  0  0  0  0
   -0.0125   -2.2750    0.0000 C   0  0  0  0  0  0  0  0  0  0  0  0
    2.0500   -2.9917    0.0000 C   0  0  0  0  0  0  0  0  0  0  0  0
   -0.4250   -1.5625    0.0000 C   0  0  0  0  0  0  0  0  0  0  0  0
  2  9  1  0  0  0  0
  3  1  1  0  0  0  0
  4  2  3  0  0  0  0
  5 14  1  0  0  0  0
  6  1  1  0  0  0  0
  7  5  1  0  0  0  0
  8  1  2  0  0  0  0
  9  7  1  0  0  0  0
 10 15  1  0  0  0  0
 11  5  2  0  0  0  0
 12  3  2  0  0  0  0
 13  3  1  0  0  0  0
 14 10  1  0  0  0  0
 15 16  2  0  0  0  0
 16 12  1  0  0  0  0
 17 13  2  0  0  0  0
 17 15  1  0  0  0  0
 18  9  1  0  0  0  0
 19  9  1  0  0  0  0
 20 18  1  0  0  0  0
 21 19  1  0  0  0  0
M  END
> <CdId>
2850

> <Mol Weight>
306.38

> <Formula>
C15H18N2O3S

> <Click_ID>
CLK038B02 __ __ 

$$$$
