CLK048B08
 OpenBabel03181417022D

 20 21  0  0  0  0  0  0  0  0999 V2000
   -0.8537   -0.3790    0.0000 C   0  0  0  0  0  0  0  0  0  0  0  0
   -1.6366   -1.4575    0.0000 C   0  0  0  0  0  0  0  0  0  0  0  0
   -1.6366   -0.1207    0.0000 N   0  0  0  0  0  0  0  0  0  0  0  0
   -0.8537   -1.2035    0.0000 C   0  0  0  0  0  0  0  0  0  0  0  0
   -0.1874    0.1082    0.0000 C   0  0  0  0  0  0  0  0  0  0  0  0
   -2.1238   -0.7913    0.0000 C   0  0  0  0  0  0  0  0  0  0  0  0
    0.5664   -0.2291    0.0000 N   0  0  0  0  0  0  0  0  0  0  0  0
    1.7283    2.3820    0.0000 C   0  0  0  0  0  0  0  0  0  0  0  0
   -1.8907   -2.2405    0.0000 C   0  0  0  0  0  0  0  0  0  0  0  0
    1.6408    3.2025    0.0000 C   0  0  0  0  0  0  0  0  0  0  0  0
   -0.2707    0.9287    0.0000 O   0  0  0  0  0  0  0  0  0  0  0  0
    1.2326    0.2582    0.0000 C   0  0  0  0  0  0  0  0  0  0  0  0
   -1.3410   -2.8526    0.0000 O   0  0  0  0  0  0  0  0  0  0  0  0
    1.8157    1.5616    0.0000 C   0  0  0  0  0  0  0  0  0  0  0  0
    1.1494    1.0744    0.0000 C   0  0  0  0  0  0  0  0  0  0  0  0
   -1.8907    0.6621    0.0000 C   0  0  0  0  0  0  0  0  0  0  0  0
    2.6528    0.4040    0.0000 C   0  0  0  0  0  0  0  0  0  0  0  0
   -2.6985   -2.4112    0.0000 C   0  0  0  0  0  0  0  0  0  0  0  0
    1.9864   -0.0792    0.0000 C   0  0  0  0  0  0  0  0  0  0  0  0
    2.5694    1.2243    0.0000 C   0  0  0  0  0  0  0  0  0  0  0  0
  2  4  1  0  0  0  0
  3  1  1  0  0  0  0
  4  1  2  0  0  0  0
  5  1  1  0  0  0  0
  6  3  1  0  0  0  0
  6  2  2  0  0  0  0
  7  5  1  0  0  0  0
  8 14  1  0  0  0  0
  9  2  1  0  0  0  0
 10  8  3  0  0  0  0
 11  5  2  0  0  0  0
 12  7  1  0  0  0  0
 13  9  2  0  0  0  0
 14 15  1  0  0  0  0
 15 12  2  0  0  0  0
 16  3  1  0  0  0  0
 17 19  2  0  0  0  0
 18  9  1  0  0  0  0
 19 12  1  0  0  0  0
 20 14  2  0  0  0  0
 20 17  1  0  0  0  0
M  END
> <CdId>
3698

> <Mol Weight>
266.2946

> <Formula>
C16H14N2O2

> <Click_ID>
CLK048B08 __ __ 

$$$$
