CLK048C08
 OpenBabel03181417022D

 19 20  0  0  0  0  0  0  0  0999 V2000
    0.4125    0.1125    0.0000 C    0  0  0  0  0  0  0  0  0  0  0  0
    1.1250    0.5250    0.0000 C    0  0  0  0  0  0  0  0  0  0  0  0
   -0.3042    0.5250    0.0000 N    0  0  0  0  0  0  0  0  0  0  0  0
   -1.7333   -1.9500    0.0000 C    0  0  0  0  0  0  0  0  0  0  0  0
   -1.7333   -2.7750    0.0000 C    0  0  0  0  0  0  0  0  0  0  0  0
    0.4125   -0.7125    0.0000 O    0  0  0  0  0  0  0  0  0  0  0  0
    1.8417    0.1125    0.0000 C    0  0  0  0  0  0  0  0  0  0  0  0
    1.1250    1.3500    0.0000 C    0  0  0  0  0  0  0  0  0  0  0  0
   -1.0167    0.1125    0.0000 C    0  0  0  0  0  0  0  0  0  0  0  0
   -1.7333   -1.1250    0.0000 C    0  0  0  0  0  0  0  0  0  0  0  0
   -1.0167   -0.7125    0.0000 C    0  0  0  0  0  0  0  0  0  0  0  0
    0.4125    1.7625    0.0000 Cl   0  0  0  0  0  0  0  0  0  0  0  0
    1.8417   -0.7125    0.0000 F    0  0  0  0  0  0  0  0  0  0  0  0
    2.5542    1.3500    0.0000 C    0  0  0  0  0  0  0  0  0  0  0  0
   -2.4458    0.1125    0.0000 C    0  0  0  0  0  0  0  0  0  0  0  0
    2.5542    0.5250    0.0000 C    0  0  0  0  0  0  0  0  0  0  0  0
    1.8417    1.7625    0.0000 C    0  0  0  0  0  0  0  0  0  0  0  0
   -1.7333    0.5250    0.0000 C    0  0  0  0  0  0  0  0  0  0  0  0
   -2.4458   -0.7125    0.0000 C    0  0  0  0  0  0  0  0  0  0  0  0
  2  1  1  0  0  0  0
  3  1  1  0  0  0  0
  4 10  1  0  0  0  0
  5  4  3  0  0  0  0
  6  1  2  0  0  0  0
  7  2  2  0  0  0  0
  8  2  1  0  0  0  0
  9  3  1  0  0  0  0
 10 11  1  0  0  0  0
 11  9  2  0  0  0  0
 12  8  1  0  0  0  0
 13  7  1  0  0  0  0
 14 16  2  0  0  0  0
 15 18  2  0  0  0  0
 16  7  1  0  0  0  0
 17  8  2  0  0  0  0
 17 14  1  0  0  0  0
 18  9  1  0  0  0  0
 19 10  2  0  0  0  0
 19 15  1  0  0  0  0
M  END
> <CdId>
3699

> <Mol Weight>
273.689

> <Formula>
C15H9ClFNO

> <Click_ID>
CLK048C08 __ __ 

$$$$
