CLK047B07
 OpenBabel03181417022D

 16 17  0  0  0  0  0  0  0  0999 V2000
    1.2956    0.3125    0.0000 C    0  0  0  0  0  0  0  0  0  0  0  0
    2.0080   -0.1000    0.0000 C    0  0  0  0  0  0  0  0  0  0  0  0
    2.0080    0.7249    0.0000 C    0  0  0  0  0  0  0  0  0  0  0  0
    0.6124    0.7749    0.0000 C    0  0  0  0  0  0  0  0  0  0  0  0
   -1.5540    0.5291    0.0000 C    0  0  0  0  0  0  0  0  0  0  0  0
    0.6124   -0.1542    0.0000 C    0  0  0  0  0  0  0  0  0  0  0  0
   -2.2997    0.1708    0.0000 C    0  0  0  0  0  0  0  0  0  0  0  0
    0.6749    1.5998    0.0000 O    0  0  0  0  0  0  0  0  0  0  0  0
   -0.1292    0.4207    0.0000 N    0  0  0  0  0  0  0  0  0  0  0  0
    0.6749   -0.9791    0.0000 C    0  0  0  0  0  0  0  0  0  0  0  0
   -0.1292    0.2000    0.0000 C    0  0  0  0  0  0  0  0  0  0  0  0
   -0.7499   -1.0874    0.0000 C    0  0  0  0  0  0  0  0  0  0  0  0
   -0.0042   -1.4415    0.0000 C    0  0  0  0  0  0  0  0  0  0  0  0
   -0.8124   -0.2625    0.0000 C    0  0  0  0  0  0  0  0  0  0  0  0
   -1.4290   -1.5540    0.0000 Cl   0  0  0  0  0  0  0  0  0  0  0  0
   -0.8124    0.8874    0.0000 C    0  0  0  0  0  0  0  0  0  0  0  0
  2  1  1  0  0  0  0
  3  1  1  0  0  0  0
  3  2  1  0  0  0  0
  4  1  1  0  0  0  0
  5 16  1  0  0  0  0
  6  1  1  0  0  0  0
  7  5  3  0  0  0  0
  8  4  2  0  0  0  0
  9  4  1  0  0  0  0
 10  6  1  0  0  0  0
 11  6  2  0  0  0  0
 12 14  2  0  0  0  0
 13 10  2  0  0  0  0
 13 12  1  0  0  0  0
 14 11  1  0  0  0  0
 15 12  1  0  0  0  0
 16  9  1  0  0  0  0
M  END
> <CdId>
3610

> <Mol Weight>
233.693

> <Formula>
C13H12ClNO

> <Click_ID>
CLK047B07 __ __ 

$$$$
