CLK041A02
 OpenBabel03181417022D

 19 19  0  0  0  0  0  0  0  0999 V2000
    0.0375   -2.9292    0.0000 C   0  0  0  0  0  0  0  0  0  0  0  0
    0.0375    2.0208    0.0000 C   0  0  0  0  0  0  0  0  0  0  0  0
    1.4625    3.6708    0.0000 C   0  0  0  0  0  0  0  0  0  0  0  0
    2.1792    4.0792    0.0000 C   0  0  0  0  0  0  0  0  0  0  0  0
    0.0375    1.1958    0.0000 N   0  0  0  0  0  0  0  0  0  0  0  0
   -0.6792   -2.5167    0.0000 O   0  0  0  0  0  0  0  0  0  0  0  0
   -0.6792    2.4333    0.0000 O   0  0  0  0  0  0  0  0  0  0  0  0
    0.7500    2.4333    0.0000 N   0  0  0  0  0  0  0  0  0  0  0  0
   -0.3750   -3.6417    0.0000 F   0  0  0  0  0  0  0  0  0  0  0  0
    0.7500   -3.3417    0.0000 F   0  0  0  0  0  0  0  0  0  0  0  0
    0.4500   -2.2125    0.0000 F   0  0  0  0  0  0  0  0  0  0  0  0
   -0.6792   -1.6917    0.0000 C   0  0  0  0  0  0  0  0  0  0  0  0
   -0.6792    0.7833    0.0000 C   0  0  0  0  0  0  0  0  0  0  0  0
   -0.6792   -0.0417    0.0000 C   0  0  0  0  0  0  0  0  0  0  0  0
    0.7500    3.2583    0.0000 C   0  0  0  0  0  0  0  0  0  0  0  0
    0.0375   -1.2792    0.0000 C   0  0  0  0  0  0  0  0  0  0  0  0
   -1.3917   -1.2792    0.0000 C   0  0  0  0  0  0  0  0  0  0  0  0
   -1.3917   -0.4542    0.0000 C   0  0  0  0  0  0  0  0  0  0  0  0
    0.0375   -0.4542    0.0000 C   0  0  0  0  0  0  0  0  0  0  0  0
  2  5  1  0  0  0  0
  3 15  1  0  0  0  0
  4  3  3  0  0  0  0
  5 13  1  0  0  0  0
  6  1  1  0  0  0  0
  7  2  2  0  0  0  0
  8  2  1  0  0  0  0
  9  1  1  0  0  0  0
 10  1  1  0  0  0  0
 11  1  1  0  0  0  0
 12  6  1  0  0  0  0
 13 14  1  0  0  0  0
 14 18  2  0  0  0  0
 14 19  1  0  0  0  0
 15  8  1  0  0  0  0
 16 12  1  0  0  0  0
 17 12  2  0  0  0  0
 18 17  1  0  0  0  0
 19 16  2  0  0  0  0
M  END
> <CdId>
3089

> <Mol Weight>
272.2231

> <Formula>
C12H11F3N2O2

> <Click_ID>
CLK041A02 __ __ 

$$$$
