CLK008_C04
 OpenBabel03181417022D

 28 30  0  0  0  0  0  0  0  0999 V2000
    0.0414   -1.7683    0.0000 C   0  0  0  0  0  0  0  0  0  0  0  0
    0.0483   -2.6024    0.0000 C   0  0  0  0  0  0  0  0  0  0  0  0
   -0.5964   -1.2650    0.0000 N   0  0  0  0  0  0  0  0  0  0  0  0
    0.7273   -1.3202    0.0000 O   0  0  0  0  0  0  0  0  0  0  0  0
   -0.6721   -3.0126    0.0000 C   0  0  0  0  0  0  0  0  0  0  0  0
    0.7618   -3.0126    0.0000 C   0  0  0  0  0  0  0  0  0  0  0  0
   -0.3033   -0.4895    0.0000 C   0  0  0  0  0  0  0  0  0  0  0  0
    0.5101   -0.5274    0.0000 C   0  0  0  0  0  0  0  0  0  0  0  0
   -0.6721   -3.8433    0.0000 C   0  0  0  0  0  0  0  0  0  0  0  0
    0.7514   -3.8433    0.0000 C   0  0  0  0  0  0  0  0  0  0  0  0
   -0.7583    0.2102    0.0000 C   0  0  0  0  0  0  0  0  0  0  0  0
    1.0237    0.1309    0.0000 O   0  0  0  0  0  0  0  0  0  0  0  0
    0.0414   -4.2570    0.0000 C   0  0  0  0  0  0  0  0  0  0  0  0
   -0.3758    0.9479    0.0000 C   0  0  0  0  0  0  0  0  0  0  0  0
    0.0414   -5.0774    0.0000 O   0  0  0  0  0  0  0  0  0  0  0  0
   -0.8342    1.6477    0.0000 C   0  0  0  0  0  0  0  0  0  0  0  0
    0.4412    0.9962    0.0000 C   0  0  0  0  0  0  0  0  0  0  0  0
    0.7514   -5.4876    0.0000 C   0  0  0  0  0  0  0  0  0  0  0  0
   -0.4584    2.3853    0.0000 C   0  0  0  0  0  0  0  0  0  0  0  0
    0.8238    1.7303    0.0000 C   0  0  0  0  0  0  0  0  0  0  0  0
    0.3654    2.4301    0.0000 C   0  0  0  0  0  0  0  0  0  0  0  0
   -0.9100    3.0678    0.0000 O   0  0  0  0  0  0  0  0  0  0  0  0
    0.7411    3.1678    0.0000 O   0  0  0  0  0  0  0  0  0  0  0  0
   -1.7338    3.0264    0.0000 C   0  0  0  0  0  0  0  0  0  0  0  0
    0.2896    3.8537    0.0000 C   0  0  0  0  0  0  0  0  0  0  0  0
   -2.1854    3.7158    0.0000 C   0  0  0  0  0  0  0  0  0  0  0  0
    0.6652    4.5844    0.0000 C   0  0  0  0  0  0  0  0  0  0  0  0
    1.4891    4.6258    0.0000 C   0  0  0  0  0  0  0  0  0  0  0  0
  1  2  1  0  0  0  0
  1  3  2  0  0  0  0
  1  4  1  0  0  0  0
  2  5  2  0  0  0  0
  2  6  1  0  0  0  0
  3  7  1  0  0  0  0
  4  8  1  0  0  0  0
  5  9  1  0  0  0  0
  6 10  2  0  0  0  0
  7 11  2  0  0  0  0
  7  8  1  0  0  0  0
  8 12  2  0  0  0  0
  9 13  2  0  0  0  0
 10 13  1  0  0  0  0
 11 14  1  0  0  0  0
 13 15  1  0  0  0  0
 14 16  1  0  0  0  0
 14 17  2  0  0  0  0
 15 18  1  0  0  0  0
 16 19  2  0  0  0  0
 17 20  1  0  0  0  0
 19 21  1  0  0  0  0
 19 22  1  0  0  0  0
 20 21  2  0  0  0  0
 21 23  1  0  0  0  0
 22 24  1  0  0  0  0
 23 25  1  0  0  0  0
 24 26  1  0  0  0  0
 25 27  1  0  0  0  0
 27 28  3  0  0  0  0
M  END
> <CdId>
573

> <Mol Weight>
377.39

> <Formula>
C22H19NO5

> <Click_ID>
CLK008_C04 __ __ 

$$$$
