CLK020_F07
 OpenBabel03181417022D

 21 22  0  0  0  0  0  0  0  0999 V2000
    1.5650   -0.8158    0.0000 N    0  0  0  0  0  0  0  0  0  0  0  0
    1.8230   -1.6024    0.0000 C    0  0  0  0  0  0  0  0  0  0  0  0
    2.2350   -0.3288    0.0000 C    0  0  0  0  0  0  0  0  0  0  0  0
    2.9010   -0.8158    0.0000 C    0  0  0  0  0  0  0  0  0  0  0  0
    2.6470   -1.6024    0.0000 S    0  0  0  0  0  0  0  0  0  0  0  0
    2.8136    2.1559    0.0000 N    0  0  0  0  0  0  0  0  0  0  0  0
    3.4212    1.5982    0.0000 C    0  0  0  0  0  0  0  0  0  0  0  0
    3.6876   -0.5619    0.0000 C    0  0  0  0  0  0  0  0  0  0  0  0
    0.6118    0.2455    0.0000 C    0  0  0  0  0  0  0  0  0  0  0  0
    0.3913    1.0446    0.0000 C    0  0  0  0  0  0  0  0  0  0  0  0
    4.1995    1.8437    0.0000 C    0  0  0  0  0  0  0  0  0  0  0  0
    3.2464    0.7949    0.0000 C    0  0  0  0  0  0  0  0  0  0  0  0
    2.9884    2.9592    0.0000 O    0  0  0  0  0  0  0  0  0  0  0  0
    1.3360   -2.2642    0.0000 O    0  0  0  0  0  0  0  0  0  0  0  0
    2.0269    1.9062    0.0000 O    0  0  0  0  0  0  0  0  0  0  0  0
    2.2267    0.4952    0.0000 O    0  0  0  0  0  0  0  0  0  0  0  0
    3.8582    0.2372    0.0000 C    0  0  0  0  0  0  0  0  0  0  0  0
    0.7866   -0.5619    0.0000 C    0  0  0  0  0  0  0  0  0  0  0  0
    4.8113    1.3068    0.0000 C    0  0  0  0  0  0  0  0  0  0  0  0
    4.6365    0.4994    0.0000 C    0  0  0  0  0  0  0  0  0  0  0  0
    4.3743    2.6553    0.0000 Cl   0  0  0  0  0  0  0  0  0  0  0  0
  2  1  1  0  0  0  0
  3  1  1  0  0  0  0
  4  3  1  0  0  0  0
  4  5  1  0  0  0  0
  5  2  1  0  0  0  0
  6  7  1  0  0  0  0
  7 12  1  0  0  0  0
  7 11  2  0  0  0  0
  8  4  2  0  0  0  0
  9 18  1  0  0  0  0
 10  9  3  0  0  0  0
 11 19  1  0  0  0  0
 12 17  2  0  0  0  0
 13  6  1  0  0  0  0
 14  2  2  0  0  0  0
 15  6  2  0  0  0  0
 16  3  2  0  0  0  0
 17  8  1  0  0  0  0
 18  1  1  0  0  0  0
 19 20  2  0  0  0  0
 20 17  1  0  0  0  0
 21 11  1  0  0  0  0
M  END
> <CdId>
1532

> <Mol Weight>
322.724

> <Formula>
C13H7ClN2O4S

> <Click_ID>
CLK020_F07 __ __ 

$$$$
