CLK039C05
 OpenBabel03181417022D

 21 22  0  0  0  0  0  0  0  0999 V2000
   -0.2750   -1.2542    0.0000 N   0  0  0  0  0  0  0  0  0  0  0  0
    0.4417   -1.6667    0.0000 C   0  0  0  0  0  0  0  0  0  0  0  0
   -0.2750   -0.4292    0.0000 C   0  0  0  0  0  0  0  0  0  0  0  0
   -0.9875    0.8083    0.0000 N   0  0  0  0  0  0  0  0  0  0  0  0
   -0.2750    3.6958    0.0000 C   0  0  0  0  0  0  0  0  0  0  0  0
    0.4417   -2.4917    0.0000 C   0  0  0  0  0  0  0  0  0  0  0  0
   -0.9875    2.4583    0.0000 N   0  0  0  0  0  0  0  0  0  0  0  0
    0.4417    4.1042    0.0000 C   0  0  0  0  0  0  0  0  0  0  0  0
   -0.9875   -0.0167    0.0000 C   0  0  0  0  0  0  0  0  0  0  0  0
    0.4417   -0.0167    0.0000 O   0  0  0  0  0  0  0  0  0  0  0  0
    1.1542   -2.9042    0.0000 C   0  0  0  0  0  0  0  0  0  0  0  0
   -1.7042    1.2208    0.0000 C   0  0  0  0  0  0  0  0  0  0  0  0
   -0.2750    1.2208    0.0000 C   0  0  0  0  0  0  0  0  0  0  0  0
   -0.2750    2.0458    0.0000 C   0  0  0  0  0  0  0  0  0  0  0  0
   -1.7042    2.0458    0.0000 C   0  0  0  0  0  0  0  0  0  0  0  0
   -0.9875    3.2833    0.0000 C   0  0  0  0  0  0  0  0  0  0  0  0
    1.1542   -1.2542    0.0000 C   0  0  0  0  0  0  0  0  0  0  0  0
    1.8708   -1.6667    0.0000 C   0  0  0  0  0  0  0  0  0  0  0  0
   -0.2750   -2.9042    0.0000 C   0  0  0  0  0  0  0  0  0  0  0  0
    1.8708   -2.4917    0.0000 C   0  0  0  0  0  0  0  0  0  0  0  0
    1.1542   -3.7292    0.0000 C   0  0  0  0  0  0  0  0  0  0  0  0
  2  1  1  0  0  0  0
  3  1  1  0  0  0  0
  4  9  1  0  0  0  0
  5 16  1  0  0  0  0
  6  2  1  0  0  0  0
  7 15  1  0  0  0  0
  7 14  1  0  0  0  0
  8  5  3  0  0  0  0
  9  3  1  0  0  0  0
 10  3  2  0  0  0  0
 11  6  2  0  0  0  0
 12  4  1  0  0  0  0
 13  4  1  0  0  0  0
 14 13  1  0  0  0  0
 15 12  1  0  0  0  0
 16  7  1  0  0  0  0
 17  2  2  0  0  0  0
 18 17  1  0  0  0  0
 18 20  2  0  0  0  0
 19  6  1  0  0  0  0
 20 11  1  0  0  0  0
 21 11  1  0  0  0  0
M  END
> <CdId>
2955

> <Mol Weight>
285.384

> <Formula>
C17H23N3O

> <Click_ID>
CLK039C05 __ __ 

$$$$
