CLK040A05
 OpenBabel03181417022D

 21 22  0  0  0  0  0  0  0  0999 V2000
   -0.1708    0.8875    0.0000 C   0  0  0  0  0  0  0  0  0  0  0  0
    0.5417    0.4750    0.0000 C   0  0  0  0  0  0  0  0  0  0  0  0
   -0.8875    0.4750    0.0000 C   0  0  0  0  0  0  0  0  0  0  0  0
   -0.1708    1.7125    0.0000 C   0  0  0  0  0  0  0  0  0  0  0  0
    2.6875   -3.2375    0.0000 C   0  0  0  0  0  0  0  0  0  0  0  0
   -0.8875    2.1250    0.0000 C   0  0  0  0  0  0  0  0  0  0  0  0
    3.4000   -3.6500    0.0000 C   0  0  0  0  0  0  0  0  0  0  0  0
   -1.6000    0.8875    0.0000 C   0  0  0  0  0  0  0  0  0  0  0  0
    1.2583   -1.5875    0.0000 C   0  0  0  0  0  0  0  0  0  0  0  0
    0.5417   -0.3500    0.0000 O   0  0  0  0  0  0  0  0  0  0  0  0
   -1.6000    1.7125    0.0000 C   0  0  0  0  0  0  0  0  0  0  0  0
    1.2583    0.8875    0.0000 O   0  0  0  0  0  0  0  0  0  0  0  0
    0.5417   -2.0000    0.0000 O   0  0  0  0  0  0  0  0  0  0  0  0
    1.2583   -0.7625    0.0000 C   0  0  0  0  0  0  0  0  0  0  0  0
    1.9708   -2.0000    0.0000 N   0  0  0  0  0  0  0  0  0  0  0  0
    0.5417    2.1250    0.0000 O   0  0  0  0  0  0  0  0  0  0  0  0
    1.9708   -2.8250    0.0000 C   0  0  0  0  0  0  0  0  0  0  0  0
   -2.3167    0.4750    0.0000 C   0  0  0  0  0  0  0  0  0  0  0  0
   -2.3167    2.1250    0.0000 C   0  0  0  0  0  0  0  0  0  0  0  0
   -3.0292    1.7125    0.0000 C   0  0  0  0  0  0  0  0  0  0  0  0
   -3.0292    0.8875    0.0000 C   0  0  0  0  0  0  0  0  0  0  0  0
  2  1  1  0  0  0  0
  3  1  1  0  0  0  0
  4  1  2  0  0  0  0
  5 17  1  0  0  0  0
  6  4  1  0  0  0  0
  7  5  3  0  0  0  0
  8  3  2  0  0  0  0
  8 11  1  0  0  0  0
  9 14  1  0  0  0  0
 10  2  1  0  0  0  0
 11  6  2  0  0  0  0
 12  2  2  0  0  0  0
 13  9  2  0  0  0  0
 14 10  1  0  0  0  0
 15  9  1  0  0  0  0
 16  4  1  0  0  0  0
 17 15  1  0  0  0  0
 18  8  1  0  0  0  0
 19 11  1  0  0  0  0
 20 19  2  0  0  0  0
 21 18  2  0  0  0  0
 21 20  1  0  0  0  0
M  END
> <CdId>
3033

> <Mol Weight>
283.2787

> <Formula>
C16H13NO4

> <Click_ID>
CLK040A05 __ __ 

$$$$
