CLK003_A10
 OpenBabel03181417022D

 18 19  0  0  0  0  0  0  0  0999 V2000
    0.8014    0.6919    0.0000 N   0  0  0  0  0  0  0  0  0  0  0  0
    1.5814    0.5507    0.0000 C   0  0  0  0  0  0  0  0  0  0  0  0
    0.2506    0.0777    0.0000 C   0  0  0  0  0  0  0  0  0  0  0  0
    0.6990    1.5109    0.0000 C   0  0  0  0  0  0  0  0  0  0  0  0
    1.9768    1.2673    0.0000 N   0  0  0  0  0  0  0  0  0  0  0  0
    1.9275   -0.2294    0.0000 S   0  0  0  0  0  0  0  0  0  0  0  0
   -0.5472    0.2647    0.0000 C   0  0  0  0  0  0  0  0  0  0  0  0
    0.4943   -0.6954    0.0000 O   0  0  0  0  0  0  0  0  0  0  0  0
    1.4649    1.8639    0.0000 N   0  0  0  0  0  0  0  0  0  0  0  0
    1.4649   -0.9002    0.0000 C   0  0  0  0  0  0  0  0  0  0  0  0
   -1.0944   -0.3495    0.0000 C   0  0  0  0  0  0  0  0  0  0  0  0
    1.8074   -1.6414    0.0000 C   0  0  0  0  0  0  0  0  0  0  0  0
   -1.9133   -0.1659    0.0000 C   0  0  0  0  0  0  0  0  0  0  0  0
    2.1604   -2.3969    0.0000 C   0  0  0  0  0  0  0  0  0  0  0  0
   -2.2205    0.5896    0.0000 C   0  0  0  0  0  0  0  0  0  0  0  0
   -2.5488   -0.6954    0.0000 O   0  0  0  0  0  0  0  0  0  0  0  0
   -3.0500    0.5331    0.0000 C   0  0  0  0  0  0  0  0  0  0  0  0
   -3.2547   -0.2683    0.0000 C   0  0  0  0  0  0  0  0  0  0  0  0
  1  2  1  0  0  0  0
  1  3  1  0  0  0  0
  1  4  1  0  0  0  0
  2  5  2  0  0  0  0
  2  6  1  0  0  0  0
  3  7  1  0  0  0  0
  3  8  2  0  0  0  0
  4  9  2  0  0  0  0
  5  9  1  0  0  0  0
  6 10  1  0  0  0  0
  7 11  2  0  0  0  0
 10 12  1  0  0  0  0
 11 13  1  0  0  0  0
 12 14  3  0  0  0  0
 13 15  2  0  0  0  0
 13 16  1  0  0  0  0
 15 17  1  0  0  0  0
 16 18  1  0  0  0  0
 17 18  2  0  0  0  0
M  END
> <CdId>
169

> <Mol Weight>
259.284

> <Formula>
C12H9N3O2S

> <Click_ID>
CLK003_A10 __ __ 

$$$$
