CLK049B06
 OpenBabel03181417022D

 18 19  0  0  0  0  0  0  0  0999 V2000
   -0.1000    0.5917    0.0000 C   0  0  0  0  0  0  0  0  0  0  0  0
   -0.1000    1.4167    0.0000 C   0  0  0  0  0  0  0  0  0  0  0  0
    0.6875    0.3333    0.0000 C   0  0  0  0  0  0  0  0  0  0  0  0
   -0.8125    0.1792    0.0000 C   0  0  0  0  0  0  0  0  0  0  0  0
   -0.8125    1.8292    0.0000 N   0  0  0  0  0  0  0  0  0  0  0  0
    1.1708    1.0042    0.0000 C   0  0  0  0  0  0  0  0  0  0  0  0
    0.6875    1.6708    0.0000 O   0  0  0  0  0  0  0  0  0  0  0  0
   -1.5292    0.5917    0.0000 N   0  0  0  0  0  0  0  0  0  0  0  0
   -1.5292    1.4167    0.0000 C   0  0  0  0  0  0  0  0  0  0  0  0
    0.9417   -0.4500    0.0000 C   0  0  0  0  0  0  0  0  0  0  0  0
    0.0917   -2.4625    0.0000 C   0  0  0  0  0  0  0  0  0  0  0  0
   -0.4583   -3.0750    0.0000 C   0  0  0  0  0  0  0  0  0  0  0  0
   -0.8125   -0.6458    0.0000 O   0  0  0  0  0  0  0  0  0  0  0  0
    1.7500   -0.6208    0.0000 O   0  0  0  0  0  0  0  0  0  0  0  0
    0.3875   -1.0625    0.0000 N   0  0  0  0  0  0  0  0  0  0  0  0
    1.9958    1.0042    0.0000 C   0  0  0  0  0  0  0  0  0  0  0  0
   -2.2417    0.1792    0.0000 C   0  0  0  0  0  0  0  0  0  0  0  0
    0.6458   -1.8458    0.0000 C   0  0  0  0  0  0  0  0  0  0  0  0
  2  1  2  0  0  0  0
  3  1  1  0  0  0  0
  4  1  1  0  0  0  0
  5  2  1  0  0  0  0
  6  3  2  0  0  0  0
  7  2  1  0  0  0  0
  7  6  1  0  0  0  0
  8  4  1  0  0  0  0
  8  9  1  0  0  0  0
  9  5  2  0  0  0  0
 10  3  1  0  0  0  0
 11 18  1  0  0  0  0
 12 11  3  0  0  0  0
 13  4  2  0  0  0  0
 14 10  2  0  0  0  0
 15 10  1  0  0  0  0
 16  6  1  0  0  0  0
 17  8  1  0  0  0  0
 18 15  1  0  0  0  0
M  END
> <CdId>
3762

> <Mol Weight>
245.234

> <Formula>
C12H11N3O3

> <Click_ID>
CLK049B06 __ __ 

$$$$
