CLK005_E02
 OpenBabel03181417022D

 28 30  0  0  0  0  0  0  0  0999 V2000
   -0.5851    0.0623    0.0000 C   0  0  3  0  0  0  0  0  0  0  0  0
   -0.5851    0.8863    0.0000 C   0  0  0  0  0  0  0  0  0  0  0  0
   -1.3017   -0.3531    0.0000 C   0  0  0  0  0  0  0  0  0  0  0  0
    0.1315   -0.3531    0.0000 C   0  0  0  0  0  0  0  0  0  0  0  0
   -1.3017    1.2982    0.0000 C   0  0  0  0  0  0  0  0  0  0  0  0
    0.1315    1.3051    0.0000 C   0  0  0  0  0  0  0  0  0  0  0  0
   -2.0148    0.0623    0.0000 C   0  0  0  0  0  0  0  0  0  0  0  0
   -1.3017   -1.1805    0.0000 C   0  0  0  0  0  0  0  0  0  0  0  0
    0.8447    0.0554    0.0000 C   0  0  0  0  0  0  0  0  0  0  0  0
    0.1315   -1.1805    0.0000 C   0  0  0  0  0  0  0  0  0  0  0  0
   -1.3051    2.1186    0.0000 C   0  0  0  0  0  0  0  0  0  0  0  0
   -2.0148    0.8863    0.0000 O   0  0  0  0  0  0  0  0  0  0  0  0
    0.1246    2.1291    0.0000 C   0  0  0  0  0  0  0  0  0  0  0  0
    0.8447    0.8897    0.0000 O   0  0  0  0  0  0  0  0  0  0  0  0
   -2.7314   -0.3531    0.0000 N   0  0  0  0  0  0  0  0  0  0  0  0
   -2.0148   -1.5960    0.0000 O   0  0  0  0  0  0  0  0  0  0  0  0
   -0.5851   -1.5960    0.0000 O   0  0  0  0  0  0  0  0  0  0  0  0
    1.5578   -0.3531    0.0000 C   0  0  0  0  0  0  0  0  0  0  0  0
    0.8412   -1.5855    0.0000 C   0  0  0  0  0  0  0  0  0  0  0  0
   -0.5990    2.5410    0.0000 C   0  0  0  0  0  0  0  0  0  0  0  0
   -2.0148   -2.4233    0.0000 C   0  0  0  0  0  0  0  0  0  0  0  0
    1.5683   -1.1736    0.0000 C   0  0  0  0  0  0  0  0  0  0  0  0
   -0.0069    3.1191    0.0000 C   0  0  0  0  0  0  0  0  0  0  0  0
   -1.1875    3.1191    0.0000 C   0  0  0  0  0  0  0  0  0  0  0  0
    2.2744   -1.5855    0.0000 O   0  0  0  0  0  0  0  0  0  0  0  0
    2.9876   -1.1736    0.0000 C   0  0  0  0  0  0  0  0  0  0  0  0
    3.7007   -1.5752    0.0000 C   0  0  0  0  0  0  0  0  0  0  0  0
    4.4104   -1.9871    0.0000 C   0  0  0  0  0  0  0  0  0  0  0  0
  1  2  1  0  0  0  0
  1  3  1  0  0  0  0
  1  4  1  0  0  0  0
  2  5  2  0  0  0  0
  2  6  1  0  0  0  0
  3  7  2  0  0  0  0
  3  8  1  0  0  0  0
  4  9  1  0  0  0  0
  4 10  2  0  0  0  0
  5 11  1  0  0  0  0
  5 12  1  0  0  0  0
  6 13  1  0  0  0  0
  6 14  2  0  0  0  0
  7 15  1  0  0  0  0
  7 12  1  0  0  0  0
  8 16  1  0  0  0  0
  8 17  2  0  0  0  0
  9 18  2  0  0  0  0
 10 19  1  0  0  0  0
 11 20  1  0  0  0  0
 13 20  1  0  0  0  0
 16 21  1  0  0  0  0
 18 22  1  0  0  0  0
 19 22  2  0  0  0  0
 20 23  1  0  0  0  0
 20 24  1  0  0  0  0
 22 25  1  0  0  0  0
 25 26  1  0  0  0  0
 26 27  1  0  0  0  0
 27 28  3  0  0  0  0
M  END
> <CdId>
361

> <Mol Weight>
381.4217

> <Formula>
C22H23NO5

> <Click_ID>
CLK005_E02 __ __ 

$$$$
