CLK006_A03
 OpenBabel03181417022D

 31 34  0  0  0  0  0  0  0  0999 V2000
   -0.1217   -0.8406    0.0000 C   0  0  0  0  0  0  0  0  0  0  0  0
   -0.2470   -0.0516    0.0000 C   0  0  0  0  0  0  0  0  0  0  0  0
   -0.8222   -1.2166    0.0000 N   0  0  0  0  0  0  0  0  0  0  0  0
    0.6305   -1.2314    0.0000 N   0  0  0  0  0  0  0  0  0  0  0  0
    0.2433    0.4350    0.0000 C   0  0  3  0  0  0  0  0  0  0  0  0
   -1.0470    0.0590    0.0000 C   0  0  0  0  0  0  0  0  0  0  0  0
   -0.9401   -2.0314    0.0000 C   0  0  0  0  0  0  0  0  0  0  0  0
   -1.3973   -0.6673    0.0000 N   0  0  0  0  0  0  0  0  0  0  0  0
    1.4083   -0.8663    0.0000 C   0  0  0  0  0  0  0  0  0  0  0  0
    0.2322    1.2756    0.0000 C   0  0  0  0  0  0  0  0  0  0  0  0
    1.0581    0.4498    0.0000 S   0  0  0  0  0  0  0  0  0  0  0  0
   -1.7733    0.4756    0.0000 C   0  0  0  0  0  0  0  0  0  0  0  0
   -1.7107   -2.3448    0.0000 C   0  0  0  0  0  0  0  0  0  0  0  0
   -0.2950   -2.5439    0.0000 C   0  0  0  0  0  0  0  0  0  0  0  0
    1.5595   -0.0664    0.0000 C   0  0  3  0  0  0  0  0  0  0  0  0
    2.0609   -1.3678    0.0000 O   0  0  0  0  0  0  0  0  0  0  0  0
   -0.4829    1.6775    0.0000 C   0  0  0  0  0  0  0  0  0  0  0  0
    0.9439    1.6885    0.0000 C   0  0  0  0  0  0  0  0  0  0  0  0
   -1.8250   -3.1596    0.0000 C   0  0  0  0  0  0  0  0  0  0  0  0
   -0.4093   -3.3623    0.0000 C   0  0  0  0  0  0  0  0  0  0  0  0
    2.3485    0.1659    0.0000 C   0  0  0  0  0  0  0  0  0  0  0  0
   -0.4977    2.5033    0.0000 C   0  0  0  0  0  0  0  0  0  0  0  0
    0.9439    2.5181    0.0000 C   0  0  0  0  0  0  0  0  0  0  0  0
   -1.1724   -3.6757    0.0000 C   0  0  0  0  0  0  0  0  0  0  0  0
    0.2322    2.9162    0.0000 C   0  0  0  0  0  0  0  0  0  0  0  0
   -1.2904   -4.4905    0.0000 O   0  0  0  0  0  0  0  0  0  0  0  0
    0.2175    3.7568    0.0000 O   0  0  0  0  0  0  0  0  0  0  0  0
   -0.6341   -5.0029    0.0000 C   0  0  0  0  0  0  0  0  0  0  0  0
    0.9327    4.1697    0.0000 C   0  0  0  0  0  0  0  0  0  0  0  0
    0.9327    4.9993    0.0000 C   0  0  0  0  0  0  0  0  0  0  0  0
    0.9217    5.8251    0.0000 C   0  0  0  0  0  0  0  0  0  0  0  0
  1  2  2  0  0  0  0
  1  3  1  0  0  0  0
  1  4  1  0  0  0  0
  2  5  1  0  0  0  0
  2  6  1  0  0  0  0
  3  7  1  0  0  0  0
  3  8  1  0  0  0  0
  4  9  1  0  0  0  0
  5 10  1  0  0  0  0
  5 11  1  0  0  0  0
  6 12  1  0  0  0  0
  6  8  2  0  0  0  0
  7 13  2  0  0  0  0
  7 14  1  0  0  0  0
  9 15  1  0  0  0  0
  9 16  2  0  0  0  0
 10 17  1  0  0  0  0
 10 18  2  0  0  0  0
 11 15  1  0  0  0  0
 13 19  1  0  0  0  0
 14 20  2  0  0  0  0
 15 21  1  0  0  0  0
 17 22  2  0  0  0  0
 18 23  1  0  0  0  0
 19 24  2  0  0  0  0
 20 24  1  0  0  0  0
 22 25  1  0  0  0  0
 23 25  2  0  0  0  0
 24 26  1  0  0  0  0
 25 27  1  0  0  0  0
 26 28  1  0  0  0  0
 27 29  1  0  0  0  0
 29 30  1  0  0  0  0
 30 31  3  0  0  0  0
M  END
> <CdId>
402

> <Mol Weight>
433.523

> <Formula>
C24H23N3O3S

> <Click_ID>
CLK006_A03 __ __ 

$$$$
