CLK018_A03
 OpenBabel03181417022D

 18 18  0  0  0  0  0  0  0  0999 V2000
   -0.3833    0.0708    0.0000 N    0  0  0  0  0  0  0  0  0  0  0  0
    3.1913   -1.1791    0.0000 C    0  0  0  0  0  0  0  0  0  0  0  0
    3.2038   -0.3542    0.0000 C    0  0  0  0  0  0  0  0  0  0  0  0
    2.4789   -1.5873    0.0000 C    0  0  0  0  0  0  0  0  0  0  0  0
    0.3375   -0.3417    0.0000 C    0  0  0  0  0  0  0  0  0  0  0  0
    4.6662   -2.9497    0.0000 C    0  0  0  0  0  0  0  0  0  0  0  0
    5.4411   -3.4163    0.0000 C    0  0  0  0  0  0  0  0  0  0  0  0
    1.0499    0.0708    0.0000 C    0  0  0  0  0  0  0  0  0  0  0  0
   -0.3833    0.8957    0.0000 O    0  0  0  0  0  0  0  0  0  0  0  0
    1.7665   -0.3417    0.0000 C    0  0  0  0  0  0  0  0  0  0  0  0
   -1.0957   -0.3417    0.0000 O    0  0  0  0  0  0  0  0  0  0  0  0
    2.4789    0.0625    0.0000 C    0  0  0  0  0  0  0  0  0  0  0  0
    1.7665   -1.1666    0.0000 C    0  0  0  0  0  0  0  0  0  0  0  0
    3.9121    0.0500    0.0000 Cl   0  0  0  0  0  0  0  0  0  0  0  0
    3.9038   -1.5915    0.0000 O    0  0  0  0  0  0  0  0  0  0  0  0
    2.4789   -2.4122    0.0000 O    0  0  0  0  0  0  0  0  0  0  0  0
    4.6787   -2.0540    0.0000 C    0  0  0  0  0  0  0  0  0  0  0  0
    1.7665   -2.8122    0.0000 C    0  0  0  0  0  0  0  0  0  0  0  0
  2  4  1  0  0  0  0
  2  3  2  0  0  0  0
  3 12  1  0  0  0  0
  4 13  2  0  0  0  0
  5  1  1  0  0  0  0
  6 17  1  0  0  0  0
  7  6  3  0  0  0  0
  8  5  2  0  0  0  0
  9  1  1  0  0  0  0
 10  8  1  0  0  0  0
 11  1  2  0  0  0  0
 12 10  2  0  0  0  0
 13 10  1  0  0  0  0
 14  3  1  0  0  0  0
 15  2  1  0  0  0  0
 16  4  1  0  0  0  0
 17 15  1  0  0  0  0
 18 16  1  0  0  0  0
M  END
> <CdId>
1318

> <Mol Weight>
267.665

> <Formula>
C12H10ClNO4

> <Click_ID>
CLK018_A03 __ __ 

$$$$
