CLK019_E09
 OpenBabel03181417022D

 26 28  0  0  0  0  0  0  0  0999 V2000
   -0.3883   -1.5449    0.0000 C   0  0  0  0  0  0  0  0  0  0  0  0
    0.9520   -1.7578    0.0000 N   0  0  0  0  0  0  0  0  0  0  0  0
    0.2171   -2.0334    0.0000 C   0  0  0  0  0  0  0  0  0  0  0  0
   -1.2150   -1.6284    0.0000 C   0  0  0  0  0  0  0  0  0  0  0  0
   -4.9477   -0.9186    0.0000 N   0  3  0  0  0  0  0  0  0  0  0  0
    0.4677   -0.4927    0.0000 C   0  0  0  0  0  0  0  0  0  0  0  0
    1.0772   -0.9895    0.0000 C   0  0  0  0  0  0  0  0  0  0  0  0
   -1.6367   -0.9061    0.0000 C   0  0  0  0  0  0  0  0  0  0  0  0
   -1.2233   -0.1879    0.0000 C   0  0  0  0  0  0  0  0  0  0  0  0
   -0.8100    0.5344    0.0000 N   0  0  0  0  0  0  0  0  0  0  0  0
    2.2964   -1.9833    0.0000 C   0  0  0  0  0  0  0  0  0  0  0  0
   -4.1293   -0.9186    0.0000 C   0  0  0  0  0  0  0  0  0  0  0  0
    2.9102   -2.4843    0.0000 C   0  0  0  0  0  0  0  0  0  0  0  0
   -5.3611   -0.2004    0.0000 O   0  5  0  0  0  0  0  0  0  0  0  0
   -2.4634   -0.9144    0.0000 C   0  0  0  0  0  0  0  0  0  0  0  0
   -5.3694   -1.6326    0.0000 O   0  0  0  0  0  0  0  0  0  0  0  0
    1.5574   -2.2589    0.0000 C   0  0  0  0  0  0  0  0  0  0  0  0
   -3.7077   -0.2004    0.0000 C   0  0  0  0  0  0  0  0  0  0  0  0
   -3.7160   -1.6326    0.0000 C   0  0  0  0  0  0  0  0  0  0  0  0
   -2.8767   -0.1921    0.0000 C   0  0  0  0  0  0  0  0  0  0  0  0
   -2.8767   -1.6409    0.0000 C   0  0  0  0  0  0  0  0  0  0  0  0
    0.0877   -2.8100    0.0000 C   0  0  0  0  0  0  0  0  0  0  0  0
    1.8079   -0.7057    0.0000 C   0  0  0  0  0  0  0  0  0  0  0  0
    0.5929    0.2881    0.0000 C   0  0  0  0  0  0  0  0  0  0  0  0
    1.3320    0.5720    0.0000 C   0  0  0  0  0  0  0  0  0  0  0  0
    1.9457    0.0709    0.0000 C   0  0  0  0  0  0  0  0  0  0  0  0
  2  3  1  0  0  0  0
  3  1  2  0  0  0  0
  4  1  1  0  0  0  0
  5 12  1  0  0  0  0
  6  1  1  0  0  0  0
  7  6  2  0  0  0  0
  7  2  1  0  0  0  0
  8  4  2  0  0  0  0
  9  8  1  0  0  0  0
 10  9  3  0  0  0  0
 11 17  1  0  0  0  0
 12 19  1  0  0  0  0
 12 18  2  0  0  0  0
 13 11  3  0  0  0  0
 14  5  1  0  0  0  0
 15  8  1  0  0  0  0
 16  5  2  0  0  0  0
 17  2  1  0  0  0  0
 18 20  1  0  0  0  0
 19 21  2  0  0  0  0
 20 15  2  0  0  0  0
 21 15  1  0  0  0  0
 22  3  1  0  0  0  0
 23  7  1  0  0  0  0
 24  6  1  0  0  0  0
 25 24  2  0  0  0  0
 26 25  1  0  0  0  0
 26 23  2  0  0  0  0
M  END
> <CdId>
1444

> <Mol Weight>
341.3627

> <Formula>
C21H15N3O2

> <Click_ID>
CLK019_E09 __ __ 

$$$$
