CLK052D02
 OpenBabel03181417022D

 19 20  0  0  0  0  0  0  0  0999 V2000
   -0.0125    0.1917    0.0000 N   0  0  0  0  0  0  0  0  0  0  0  0
   -0.5000   -0.4750    0.0000 C   0  0  0  0  0  0  0  0  0  0  0  0
    0.7708   -0.0625    0.0000 N   0  0  0  0  0  0  0  0  0  0  0  0
   -0.0125   -1.1417    0.0000 C   0  0  0  0  0  0  0  0  0  0  0  0
    0.7708   -0.8875    0.0000 C   0  0  0  0  0  0  0  0  0  0  0  0
   -1.3250   -0.4750    0.0000 C   0  0  0  0  0  0  0  0  0  0  0  0
   -2.9750    0.9542    0.0000 C   0  0  0  0  0  0  0  0  0  0  0  0
   -3.3875    1.6667    0.0000 C   0  0  0  0  0  0  0  0  0  0  0  0
    1.4375    0.4208    0.0000 C   0  0  0  0  0  0  0  0  0  0  0  0
   -1.7375   -1.1875    0.0000 O   0  0  0  0  0  0  0  0  0  0  0  0
   -1.7375    0.2375    0.0000 N   0  0  0  0  0  0  0  0  0  0  0  0
   -0.2667   -1.9250    0.0000 O   0  0  0  0  0  0  0  0  0  0  0  0
   -2.5625    0.2375    0.0000 C   0  0  0  0  0  0  0  0  0  0  0  0
    2.1917    0.0875    0.0000 C   0  0  0  0  0  0  0  0  0  0  0  0
    1.3542    1.2417    0.0000 C   0  0  0  0  0  0  0  0  0  0  0  0
    0.2833   -2.5417    0.0000 C   0  0  0  0  0  0  0  0  0  0  0  0
    2.0208    1.7292    0.0000 C   0  0  0  0  0  0  0  0  0  0  0  0
    2.8583    0.5708    0.0000 C   0  0  0  0  0  0  0  0  0  0  0  0
    2.7750    1.3917    0.0000 C   0  0  0  0  0  0  0  0  0  0  0  0
  2  1  2  0  0  0  0
  3  1  1  0  0  0  0
  4  2  1  0  0  0  0
  5  3  1  0  0  0  0
  5  4  2  0  0  0  0
  6  2  1  0  0  0  0
  7 13  1  0  0  0  0
  8  7  3  0  0  0  0
  9  3  1  0  0  0  0
 10  6  2  0  0  0  0
 11  6  1  0  0  0  0
 12  4  1  0  0  0  0
 13 11  1  0  0  0  0
 14  9  1  0  0  0  0
 15  9  2  0  0  0  0
 16 12  1  0  0  0  0
 17 15  1  0  0  0  0
 18 14  2  0  0  0  0
 19 17  2  0  0  0  0
 19 18  1  0  0  0  0
M  END
> <CdId>
3972

> <Mol Weight>
255.2719

> <Formula>
C14H13N3O2

> <Click_ID>
CLK052D02 __ __ 

$$$$
