CLK010_D09
 OpenBabel03181417022D

 32 34  0  0  0  0  0  0  0  0999 V2000
   -2.2354   -3.4402    0.0000 N    0  0  0  0  0  0  0  0  0  0  0  0
   -0.8062   -3.4402    0.0000 C    0  0  0  0  0  0  0  0  0  0  0  0
   -1.5208   -3.8525    0.0000 C    0  0  0  0  0  0  0  0  0  0  0  0
   -2.2354   -2.6157    0.0000 C    0  0  0  0  0  0  0  0  0  0  0  0
   -1.5208   -2.2034    0.0000 N    0  0  0  0  0  0  0  0  0  0  0  0
   -0.8062   -2.6157    0.0000 C    0  0  0  0  0  0  0  0  0  0  0  0
   -3.6646   -5.9138    0.0000 N    0  0  0  0  0  0  0  0  0  0  0  0
   -2.9500   -3.8525    0.0000 C    0  0  0  0  0  0  0  0  0  0  0  0
   -0.0916   -3.8525    0.0000 C    0  0  0  0  0  0  0  0  0  0  0  0
    2.0522   -2.6157    0.0000 C    0  0  0  0  0  0  0  0  0  0  0  0
   -2.9500   -4.6770    0.0000 C    0  0  0  0  0  0  0  0  0  0  0  0
   -3.6646   -5.0893    0.0000 C    0  0  0  0  0  0  0  0  0  0  0  0
    1.3376   -2.2034    0.0000 C    0  0  0  0  0  0  0  0  0  0  0  0
    2.0522   -3.4402    0.0000 C    0  0  0  0  0  0  0  0  0  0  0  0
    0.6230   -3.4402    0.0000 C    0  0  0  0  0  0  0  0  0  0  0  0
    3.4814   -0.9666    0.0000 C    0  0  0  0  0  0  0  0  0  0  0  0
   -2.9500   -2.2034    0.0000 O    0  0  0  0  0  0  0  0  0  0  0  0
    3.4814   -0.1420    0.0000 C    0  0  0  0  0  0  0  0  0  0  0  0
   -1.5208   -4.6770    0.0000 O    0  0  0  0  0  0  0  0  0  0  0  0
   -4.3792   -6.3261    0.0000 O    0  0  0  0  0  0  0  0  0  0  0  0
   -2.9500   -6.3261    0.0000 O    0  0  0  0  0  0  0  0  0  0  0  0
    0.6230   -2.6157    0.0000 C    0  0  0  0  0  0  0  0  0  0  0  0
    1.3376   -3.8525    0.0000 C    0  0  0  0  0  0  0  0  0  0  0  0
   -0.0916   -2.2034    0.0000 O    0  0  0  0  0  0  0  0  0  0  0  0
    1.3376   -1.3789    0.0000 Br   0  0  0  0  0  0  0  0  0  0  0  0
    2.7668   -2.2034    0.0000 O    0  0  0  0  0  0  0  0  0  0  0  0
    2.7668   -3.8525    0.0000 O    0  0  0  0  0  0  0  0  0  0  0  0
   -3.6646   -3.4402    0.0000 C    0  0  0  0  0  0  0  0  0  0  0  0
    2.7668   -1.3789    0.0000 C    0  0  0  0  0  0  0  0  0  0  0  0
   -4.3792   -4.6770    0.0000 C    0  0  0  0  0  0  0  0  0  0  0  0
   -4.3792   -3.8525    0.0000 C    0  0  0  0  0  0  0  0  0  0  0  0
    2.7668   -4.6770    0.0000 C    0  0  0  0  0  0  0  0  0  0  0  0
  2  3  1  0  0  0  0
  3  1  1  0  0  0  0
  4  1  1  0  0  0  0
  5  4  1  0  0  0  0
  6  5  1  0  0  0  0
  6  2  1  0  0  0  0
  7 12  1  0  0  0  0
  8  1  1  0  0  0  0
  9  2  2  0  0  0  0
 10 14  1  0  0  0  0
 11  8  2  0  0  0  0
 12 11  1  0  0  0  0
 13 22  1  0  0  0  0
 13 10  2  0  0  0  0
 14 23  2  0  0  0  0
 15  9  1  0  0  0  0
 16 29  1  0  0  0  0
 17  4  2  0  0  0  0
 18 16  3  0  0  0  0
 19  3  2  0  0  0  0
 20  7  1  0  0  0  0
 21  7  2  0  0  0  0
 22 15  2  0  0  0  0
 23 15  1  0  0  0  0
 24  6  2  0  0  0  0
 25 13  1  0  0  0  0
 26 10  1  0  0  0  0
 27 14  1  0  0  0  0
 28  8  1  0  0  0  0
 29 26  1  0  0  0  0
 30 31  1  0  0  0  0
 30 12  2  0  0  0  0
 31 28  2  0  0  0  0
 32 27  1  0  0  0  0
M  END
> <CdId>
714

> <Mol Weight>
500.256

> <Formula>
C21H14BrN3O7

> <Click_ID>
CLK010_D09 __ __ 

$$$$
