CLK039B11
 OpenBabel03181417022D

 24 25  0  0  0  0  0  0  0  0999 V2000
   -0.1956   -0.5661    0.0000 C   0  0  0  0  0  0  0  0  0  0  0  0
   -0.6784    0.0999    0.0000 S   0  0  0  0  0  0  0  0  0  0  0  0
   -0.1956    0.7658    0.0000 C   0  0  0  0  0  0  0  0  0  0  0  0
    0.5868   -0.3121    0.0000 N   0  0  0  0  0  0  0  0  0  0  0  0
   -0.9614   -2.9175    0.0000 C   0  0  0  0  0  0  0  0  0  0  0  0
    0.5868    0.5119    0.0000 N   0  0  0  0  0  0  0  0  0  0  0  0
   -0.1540   -2.7469    0.0000 C   0  0  0  0  0  0  0  0  0  0  0  0
   -0.4495   -1.3527    0.0000 N   0  0  0  0  0  0  0  0  0  0  0  0
    0.0999   -1.9645    0.0000 C   0  0  0  0  0  0  0  0  0  0  0  0
    0.6950    4.9485    0.0000 C   0  0  0  0  0  0  0  0  0  0  0  0
    1.2444    5.5644    0.0000 C   0  0  0  0  0  0  0  0  0  0  0  0
   -0.1540    2.9466    0.0000 C   0  0  0  0  0  0  0  0  0  0  0  0
   -0.4495    1.5482    0.0000 S   0  0  0  0  0  0  0  0  0  0  0  0
   -0.9614    3.1172    0.0000 O   0  0  0  0  0  0  0  0  0  0  0  0
   -1.1320   -2.1101    0.0000 F   0  0  0  0  0  0  0  0  0  0  0  0
   -1.7647   -3.0882    0.0000 F   0  0  0  0  0  0  0  0  0  0  0  0
   -0.7866   -3.7249    0.0000 F   0  0  0  0  0  0  0  0  0  0  0  0
    0.0999    2.1642    0.0000 C   0  0  0  0  0  0  0  0  0  0  0  0
    0.3995    3.5584    0.0000 N   0  0  0  0  0  0  0  0  0  0  0  0
    0.3995   -3.3587    0.0000 C   0  0  0  0  0  0  0  0  0  0  0  0
    0.1415    4.3367    0.0000 C   0  0  0  0  0  0  0  0  0  0  0  0
    0.9073   -1.7937    0.0000 C   0  0  0  0  0  0  0  0  0  0  0  0
    1.2028   -3.1881    0.0000 C   0  0  0  0  0  0  0  0  0  0  0  0
    1.4608   -2.4055    0.0000 C   0  0  0  0  0  0  0  0  0  0  0  0
  2  1  1  0  0  0  0
  3  2  1  0  0  0  0
  3  6  2  0  0  0  0
  4  1  2  0  0  0  0
  5  7  1  0  0  0  0
  6  4  1  0  0  0  0
  7  9  2  0  0  0  0
  8  1  1  0  0  0  0
  9  8  1  0  0  0  0
 10 21  1  0  0  0  0
 11 10  3  0  0  0  0
 12 18  1  0  0  0  0
 13  3  1  0  0  0  0
 14 12  2  0  0  0  0
 15  5  1  0  0  0  0
 16  5  1  0  0  0  0
 17  5  1  0  0  0  0
 18 13  1  0  0  0  0
 19 12  1  0  0  0  0
 20  7  1  0  0  0  0
 21 19  1  0  0  0  0
 22  9  1  0  0  0  0
 23 20  2  0  0  0  0
 24 22  2  0  0  0  0
 24 23  1  0  0  0  0
M  END
> <CdId>
3002

> <Mol Weight>
372.389

> <Formula>
C14H11F3N4OS2

> <Click_ID>
CLK039B11 __ __ 

$$$$
