CLK045A02
 OpenBabel03181417022D

 30 33  0  0  0  0  0  0  0  0999 V2000
    2.6458   -1.7708    0.0000 S   0  0  0  0  0  0  0  0  0  0  0  0
   -1.6000    2.0542    0.0000 C   0  0  0  0  0  0  0  0  0  0  0  0
   -1.1167    2.7208    0.0000 C   0  0  0  0  0  0  0  0  0  0  0  0
   -0.5833   -1.0875    0.0000 C   0  0  0  0  0  0  0  0  0  0  0  0
   -0.8375   -0.3000    0.0000 N   0  0  0  0  0  0  0  0  0  0  0  0
   -1.6000    3.3875    0.0000 N   0  0  0  0  0  0  0  0  0  0  0  0
   -1.3458    1.2667    0.0000 C   0  0  0  0  0  0  0  0  0  0  0  0
   -2.3875    2.3083    0.0000 C   0  0  0  0  0  0  0  0  0  0  0  0
    1.8375   -1.6000    0.0000 C   0  0  0  0  0  0  0  0  0  0  0  0
   -1.9000    0.6542    0.0000 C   0  0  0  0  0  0  0  0  0  0  0  0
    4.5167   -2.9000    0.0000 C   0  0  0  0  0  0  0  0  0  0  0  0
   -2.3875    3.1333    0.0000 C   0  0  0  0  0  0  0  0  0  0  0  0
    5.3208   -3.0708    0.0000 C   0  0  0  0  0  0  0  0  0  0  0  0
    2.8167   -0.9667    0.0000 O   0  0  0  0  0  0  0  0  0  0  0  0
    2.4750   -2.5792    0.0000 O   0  0  0  0  0  0  0  0  0  0  0  0
    0.2250   -1.2583    0.0000 C   0  0  0  0  0  0  0  0  0  0  0  0
   -1.6458   -0.1292    0.0000 C   0  0  0  0  0  0  0  0  0  0  0  0
    3.4542   -1.9417    0.0000 N   0  0  0  0  0  0  0  0  0  0  0  0
   -0.2833    0.3125    0.0000 C   0  0  0  0  0  0  0  0  0  0  0  0
   -1.1333   -1.7000    0.0000 O   0  0  0  0  0  0  0  0  0  0  0  0
   -0.5417    1.0958    0.0000 C   0  0  0  0  0  0  0  0  0  0  0  0
    1.2875   -2.2125    0.0000 C   0  0  0  0  0  0  0  0  0  0  0  0
    1.5833   -0.8167    0.0000 C   0  0  0  0  0  0  0  0  0  0  0  0
    0.4792   -2.0417    0.0000 C   0  0  0  0  0  0  0  0  0  0  0  0
    0.7792   -0.6458    0.0000 C   0  0  0  0  0  0  0  0  0  0  0  0
    3.7083   -2.7292    0.0000 C   0  0  0  0  0  0  0  0  0  0  0  0
   -3.1000    1.8958    0.0000 C   0  0  0  0  0  0  0  0  0  0  0  0
   -3.1000    3.5458    0.0000 C   0  0  0  0  0  0  0  0  0  0  0  0
   -3.8167    2.3083    0.0000 C   0  0  0  0  0  0  0  0  0  0  0  0
   -3.8167    3.1333    0.0000 C   0  0  0  0  0  0  0  0  0  0  0  0
  2  7  1  0  0  0  0
  3  2  2  0  0  0  0
  4 16  1  0  0  0  0
  5  4  1  0  0  0  0
  6  3  1  0  0  0  0
  7 10  2  0  0  0  0
  7 21  1  0  0  0  0
  8  2  1  0  0  0  0
  9  1  1  0  0  0  0
 10 17  1  0  0  0  0
 11 26  1  0  0  0  0
 12  8  2  0  0  0  0
 12  6  1  0  0  0  0
 13 11  3  0  0  0  0
 14  1  2  0  0  0  0
 15  1  2  0  0  0  0
 16 25  2  0  0  0  0
 17  5  1  0  0  0  0
 18  1  1  0  0  0  0
 19  5  1  0  0  0  0
 20  4  2  0  0  0  0
 21 19  1  0  0  0  0
 22  9  1  0  0  0  0
 23  9  2  0  0  0  0
 24 22  2  0  0  0  0
 24 16  1  0  0  0  0
 25 23  1  0  0  0  0
 26 18  1  0  0  0  0
 27  8  1  0  0  0  0
 28 12  1  0  0  0  0
 29 27  2  0  0  0  0
 29 30  1  0  0  0  0
 30 28  2  0  0  0  0
M  END
> <CdId>
3409

> <Mol Weight>
419.496

> <Formula>
C23H21N3O3S

> <Click_ID>
CLK045A02 __ __ 

$$$$
