CLK041E09
 OpenBabel03181417022D

 22 23  0  0  0  0  0  0  0  0999 V2000
   -0.9876    1.3835    0.0000 S   0  0  0  0  0  0  0  0  0  0  0  0
    0.8376   -1.9295    0.0000 C   0  0  0  0  0  0  0  0  0  0  0  0
    0.5834   -1.1460    0.0000 N   0  0  0  0  0  0  0  0  0  0  0  0
    0.3542   -2.5962    0.0000 N   0  0  0  0  0  0  0  0  0  0  0  0
    1.1377   -0.5293    0.0000 C   0  0  0  0  0  0  0  0  0  0  0  0
    1.6252   -2.1836    0.0000 S   0  0  0  0  0  0  0  0  0  0  0  0
   -0.1792    1.2085    0.0000 C   0  0  0  0  0  0  0  0  0  0  0  0
    0.8376   -3.2630    0.0000 C   0  0  0  0  0  0  0  0  0  0  0  0
    0.8793    0.2542    0.0000 C   0  0  0  0  0  0  0  0  0  0  0  0
   -2.8587    2.5087    0.0000 C   0  0  0  0  0  0  0  0  0  0  0  0
    1.6252   -3.0087    0.0000 C   0  0  0  0  0  0  0  0  0  0  0  0
    0.0750    0.4251    0.0000 C   0  0  0  0  0  0  0  0  0  0  0  0
   -3.6630    2.6796    0.0000 C   0  0  0  0  0  0  0  0  0  0  0  0
   -0.8168    2.1878    0.0000 O   0  0  0  0  0  0  0  0  0  0  0  0
   -1.1585    0.5751    0.0000 O   0  0  0  0  0  0  0  0  0  0  0  0
   -1.7961    1.5544    0.0000 N   0  0  0  0  0  0  0  0  0  0  0  0
    1.9420   -0.7043    0.0000 O   0  0  0  0  0  0  0  0  0  0  0  0
   -2.0503    2.3378    0.0000 C   0  0  0  0  0  0  0  0  0  0  0  0
    0.3709    1.8211    0.0000 C   0  0  0  0  0  0  0  0  0  0  0  0
    1.4335    0.8668    0.0000 C   0  0  0  0  0  0  0  0  0  0  0  0
    1.1794    1.6502    0.0000 C   0  0  0  0  0  0  0  0  0  0  0  0
    0.5834   -4.0506    0.0000 C   0  0  0  0  0  0  0  0  0  0  0  0
  2  3  1  0  0  0  0
  3  5  1  0  0  0  0
  4  2  2  0  0  0  0
  5  9  1  0  0  0  0
  6  2  1  0  0  0  0
  7  1  1  0  0  0  0
  8  4  1  0  0  0  0
  9 12  2  0  0  0  0
 10 18  1  0  0  0  0
 11  6  1  0  0  0  0
 11  8  2  0  0  0  0
 12  7  1  0  0  0  0
 13 10  3  0  0  0  0
 14  1  2  0  0  0  0
 15  1  2  0  0  0  0
 16  1  1  0  0  0  0
 17  5  2  0  0  0  0
 18 16  1  0  0  0  0
 19  7  2  0  0  0  0
 20  9  1  0  0  0  0
 21 19  1  0  0  0  0
 21 20  2  0  0  0  0
 22  8  1  0  0  0  0
M  END
> <CdId>
3149

> <Mol Weight>
335.401

> <Formula>
C14H13N3O3S2

> <Click_ID>
CLK041E09 __ __ 

$$$$
