CLK044E06
 OpenBabel03181417022D

 20 21  0  0  0  0  0  0  0  0999 V2000
    0.8542   -1.1208    0.0000 N   0  0  0  0  0  0  0  0  0  0  0  0
    0.8542   -1.9458    0.0000 C   0  0  0  0  0  0  0  0  0  0  0  0
    0.1417   -0.7083    0.0000 C   0  0  0  0  0  0  0  0  0  0  0  0
   -2.0042    3.0042    0.0000 C   0  0  0  0  0  0  0  0  0  0  0  0
    1.5708   -2.3583    0.0000 N   0  0  0  0  0  0  0  0  0  0  0  0
   -0.5750    0.5292    0.0000 N   0  0  0  0  0  0  0  0  0  0  0  0
   -2.7167    3.4167    0.0000 C   0  0  0  0  0  0  0  0  0  0  0  0
    1.5708   -3.1833    0.0000 C   0  0  0  0  0  0  0  0  0  0  0  0
    0.1417    0.1167    0.0000 C   0  0  3  0  0  0  0  0  0  0  0  0
    1.1583   -3.9000    0.0000 C   0  0  0  0  0  0  0  0  0  0  0  0
    1.9833   -3.9000    0.0000 C   0  0  0  0  0  0  0  0  0  0  0  0
    0.1417   -2.3583    0.0000 O   0  0  0  0  0  0  0  0  0  0  0  0
   -0.5750   -1.1208    0.0000 O   0  0  0  0  0  0  0  0  0  0  0  0
   -0.5750    1.3542    0.0000 C   0  0  0  0  0  0  0  0  0  0  0  0
   -1.2875    2.5917    0.0000 C   0  0  0  0  0  0  0  0  0  0  0  0
   -1.2875    1.7667    0.0000 C   0  0  0  0  0  0  0  0  0  0  0  0
    0.1417    2.5917    0.0000 C   0  0  0  0  0  0  0  0  0  0  0  0
    0.1417    1.7667    0.0000 C   0  0  0  0  0  0  0  0  0  0  0  0
    0.8542    0.5292    0.0000 C   0  0  0  0  0  0  0  0  0  0  0  0
   -0.5750    3.0042    0.0000 C   0  0  0  0  0  0  0  0  0  0  0  0
  2  1  1  0  0  0  0
  3  1  1  0  0  0  0
  4 15  1  0  0  0  0
  5  2  1  0  0  0  0
  6  9  1  0  0  0  0
  7  4  3  0  0  0  0
  8  5  1  0  0  0  0
  9  3  1  0  0  0  0
 10  8  1  0  0  0  0
 11  8  1  0  0  0  0
 11 10  1  0  0  0  0
 12  2  2  0  0  0  0
 13  3  2  0  0  0  0
 14  6  1  0  0  0  0
 15 16  1  0  0  0  0
 16 14  2  0  0  0  0
 17 18  2  0  0  0  0
 18 14  1  0  0  0  0
 19  9  1  0  0  0  0
 20 15  2  0  0  0  0
 20 17  1  0  0  0  0
M  END
> <CdId>
3365

> <Mol Weight>
271.3144

> <Formula>
C15H17N3O2

> <Click_ID>
CLK044E06 __ __ 

$$$$
