CLK038E02
 OpenBabel03181417022D

 31 34  0  0  0  0  0  0  0  0999 V2000
    0.5747   -1.5534    0.0000 C   0  0  0  0  0  0  0  0  0  0  0  0
    1.3950   -1.6033    0.0000 C   0  0  0  0  0  0  0  0  0  0  0  0
   -0.7913    1.7823    0.0000 C   0  0  3  0  0  0  0  0  0  0  0  0
    0.0708   -2.2030    0.0000 N   0  0  0  0  0  0  0  0  0  0  0  0
   -1.5699   -2.2196    0.0000 C   0  0  0  0  0  0  0  0  0  0  0  0
   -0.7246    0.9287    0.0000 N   0  0  0  0  0  0  0  0  0  0  0  0
   -2.3904   -2.1780    0.0000 C   0  0  0  0  0  0  0  0  0  0  0  0
    0.0833    0.7329    0.0000 C   0  0  0  0  0  0  0  0  0  0  0  0
    1.8240   -0.8995    0.0000 C   0  0  0  0  0  0  0  0  0  0  0  0
   -0.7496   -2.3070    0.0000 C   0  0  0  0  0  0  0  0  0  0  0  0
    1.3950   -0.1999    0.0000 S   0  0  0  0  0  0  0  0  0  0  0  0
   -1.7865    2.9817    0.0000 C   0  0  3  0  0  0  0  0  0  0  0  0
   -0.1832    3.2149    0.0000 C   0  0  3  0  0  0  0  0  0  0  0  0
   -0.7079    3.1733    0.0000 C   0  0  3  0  0  0  0  0  0  0  0  0
    0.5289   -0.7288    0.0000 O   0  0  0  0  0  0  0  0  0  0  0  0
   -1.2035    2.2405    0.0000 C   0  0  0  0  0  0  0  0  0  0  0  0
    0.0542    2.0697    0.0000 C   0  0  0  0  0  0  0  0  0  0  0  0
   -1.6616    2.1031    0.0000 C   0  0  0  0  0  0  0  0  0  0  0  0
    0.6996    1.2826    0.0000 O   0  0  0  0  0  0  0  0  0  0  0  0
    0.3040    2.7360    0.0000 C   0  0  0  0  0  0  0  0  0  0  0  0
   -1.0202    3.4356    0.0000 C   0  0  0  0  0  0  0  0  0  0  0  0
   -1.3825    3.6230    0.0000 C   0  0  0  0  0  0  0  0  0  0  0  0
    0.6289    0.1124    0.0000 C   0  0  0  0  0  0  0  0  0  0  0  0
    1.7823   -2.3279    0.0000 C   0  0  0  0  0  0  0  0  0  0  0  0
   -0.9162   -1.4950    0.0000 C   0  0  0  0  0  0  0  0  0  0  0  0
   -0.8370   -3.1275    0.0000 C   0  0  0  0  0  0  0  0  0  0  0  0
    2.6486   -0.9245    0.0000 C   0  0  0  0  0  0  0  0  0  0  0  0
    2.6069   -2.3529    0.0000 C   0  0  0  0  0  0  0  0  0  0  0  0
   -0.2166   -1.0744    0.0000 C   0  0  0  0  0  0  0  0  0  0  0  0
   -1.5658   -3.5106    0.0000 C   0  0  0  0  0  0  0  0  0  0  0  0
    3.0400   -1.6533    0.0000 C   0  0  0  0  0  0  0  0  0  0  0  0
  2  1  1  0  0  0  0
  3  6  1  0  0  0  0
  4  1  1  0  0  0  0
  5 10  1  0  0  0  0
  6  8  1  0  0  0  0
  7  5  3  0  0  0  0
  8 23  1  0  0  0  0
  9  2  2  0  0  0  0
 10  4  1  0  0  0  0
 11  9  1  0  0  0  0
 12 18  1  0  0  0  0
 12 22  1  0  0  0  0
 13 17  1  0  0  0  0
 14 16  1  0  0  0  0
 15  1  2  0  0  0  0
 16  3  1  0  0  0  0
 17  3  1  0  0  0  0
 18  3  1  0  0  0  0
 19  8  2  0  0  0  0
 20 14  1  0  0  0  0
 20 13  1  0  0  0  0
 21 12  1  0  0  0  0
 21 13  1  0  0  0  0
 22 14  1  0  0  0  0
 23 11  1  0  0  0  0
 24  2  1  0  0  0  0
 25 10  1  0  0  0  0
 26 10  1  0  0  0  0
 27  9  1  0  0  0  0
 28 24  2  0  0  0  0
 29 25  1  0  0  0  0
 30 26  1  0  0  0  0
 31 27  2  0  0  0  0
 31 28  1  0  0  0  0
M  END
> <CdId>
2853

> <Mol Weight>
438.625

> <Formula>
C26H34N2O2S

> <Click_ID>
CLK038E02 __ __ 

$$$$
