CLK007_D07
 OpenBabel03181417022D

 23 25  0  0  0  0  0  0  0  0999 V2000
    0.8699    0.0000    0.0000 C    0  0  3  0  0  0  0  0  0  0  0  0
    0.1554   -0.4143    0.0000 C    0  0  0  0  0  0  0  0  0  0  0  0
    0.8699    0.8250    0.0000 C    0  0  0  0  0  0  0  0  0  0  0  0
    1.5810   -0.4073    0.0000 C    0  0  0  0  0  0  0  0  0  0  0  0
    0.1554   -1.2323    0.0000 C    0  0  0  0  0  0  0  0  0  0  0  0
   -0.5592    0.0069    0.0000 C    0  0  0  0  0  0  0  0  0  0  0  0
    1.5810    1.2323    0.0000 C    0  0  0  0  0  0  0  0  0  0  0  0
    0.1554    1.2323    0.0000 C    0  0  0  0  0  0  0  0  0  0  0  0
    1.5810   -1.2323    0.0000 C    0  0  0  0  0  0  0  0  0  0  0  0
   -0.5592   -1.6466    0.0000 N    0  0  0  0  0  0  0  0  0  0  0  0
    0.8699   -1.6466    0.0000 N    0  0  0  0  0  0  0  0  0  0  0  0
   -1.2635   -0.4143    0.0000 N    0  0  0  0  0  0  0  0  0  0  0  0
   -0.5592    0.8319    0.0000 O    0  0  0  0  0  0  0  0  0  0  0  0
    1.5810    2.0574    0.0000 C    0  0  0  0  0  0  0  0  0  0  0  0
    0.1416    2.0505    0.0000 C    0  0  0  0  0  0  0  0  0  0  0  0
    2.2956   -1.6466    0.0000 O    0  0  0  0  0  0  0  0  0  0  0  0
   -1.2635   -1.2393    0.0000 C    0  0  0  0  0  0  0  0  0  0  0  0
    0.8630    2.4717    0.0000 C    0  0  0  0  0  0  0  0  0  0  0  0
    2.2956    2.4751    0.0000 Cl   0  0  0  0  0  0  0  0  0  0  0  0
   -1.9850   -1.6535    0.0000 S    0  0  0  0  0  0  0  0  0  0  0  0
   -2.6995   -1.2393    0.0000 C    0  0  0  0  0  0  0  0  0  0  0  0
   -2.6995   -0.4143    0.0000 C    0  0  0  0  0  0  0  0  0  0  0  0
   -3.4106    0.0000    0.0000 C    0  0  0  0  0  0  0  0  0  0  0  0
  1  2  1  0  0  0  0
  1  3  1  0  0  0  0
  1  4  1  0  0  0  0
  2  5  2  0  0  0  0
  2  6  1  0  0  0  0
  3  7  2  0  0  0  0
  3  8  1  0  0  0  0
  4  9  1  0  0  0  0
  5 10  1  0  0  0  0
  5 11  1  0  0  0  0
  6 12  1  0  0  0  0
  6 13  2  0  0  0  0
  7 14  1  0  0  0  0
  8 15  2  0  0  0  0
  9 16  2  0  0  0  0
  9 11  1  0  0  0  0
 10 17  2  0  0  0  0
 12 17  1  0  0  0  0
 14 18  2  0  0  0  0
 14 19  1  0  0  0  0
 15 18  1  0  0  0  0
 17 20  1  0  0  0  0
 20 21  1  0  0  0  0
 21 22  1  0  0  0  0
 22 23  3  0  0  0  0
M  END
> <CdId>
516

> <Mol Weight>
345.803

> <Formula>
C16H12ClN3O2S

> <Click_ID>
CLK007_D07 __ __ 

$$$$
