CLK036_G04
 OpenBabel03181417022D

 25 27  0  0  0  0  0  0  0  0999 V2000
    4.1479   -0.2907    0.0000 C   0  0  0  0  0  0  0  0  0  0  0  0
    4.4843   -1.0505    0.0000 N   0  0  0  0  0  0  0  0  0  0  0  0
    3.3425   -0.1163    0.0000 N   0  0  0  0  0  0  0  0  0  0  0  0
    4.5507    0.4193    0.0000 S   0  0  0  0  0  0  0  0  0  0  0  0
    7.6150   -2.8068    0.0000 S   0  0  0  0  0  0  0  0  0  0  0  0
    5.2981   -1.1377    0.0000 C   0  0  0  0  0  0  0  0  0  0  0  0
    3.2553    0.7058    0.0000 C   0  0  0  0  0  0  0  0  0  0  0  0
    4.0026    1.0339    0.0000 C   0  0  0  0  0  0  0  0  0  0  0  0
    6.7928   -2.7279    0.0000 C   0  0  0  0  0  0  0  0  0  0  0  0
    5.6344   -1.8851    0.0000 C   0  0  0  0  0  0  0  0  0  0  0  0
    1.9556   -0.4235    0.0000 C   0  0  0  0  0  0  0  0  0  0  0  0
    6.4565   -1.9723    0.0000 C   0  0  0  0  0  0  0  0  0  0  0  0
    1.1709   -0.1744    0.0000 C   0  0  0  0  0  0  0  0  0  0  0  0
    7.5278   -3.6290    0.0000 O   0  0  0  0  0  0  0  0  0  0  0  0
    7.6980   -1.9847    0.0000 O   0  0  0  0  0  0  0  0  0  0  0  0
    5.7839   -0.4651    0.0000 O   0  0  0  0  0  0  0  0  0  0  0  0
    2.7321   -0.6726    0.0000 C   0  0  0  0  0  0  0  0  0  0  0  0
    8.4371   -2.8940    0.0000 C   0  0  0  0  0  0  0  0  0  0  0  0
    2.5826    1.1916    0.0000 C   0  0  0  0  0  0  0  0  0  0  0  0
    4.0898    1.8518    0.0000 C   0  0  0  0  0  0  0  0  0  0  0  0
    6.3071   -3.3923    0.0000 C   0  0  0  0  0  0  0  0  0  0  0  0
    5.1486   -2.5577    0.0000 C   0  0  0  0  0  0  0  0  0  0  0  0
    5.4849   -3.3051    0.0000 C   0  0  0  0  0  0  0  0  0  0  0  0
    2.6698    2.0137    0.0000 C   0  0  0  0  0  0  0  0  0  0  0  0
    3.4172    2.3376    0.0000 C   0  0  0  0  0  0  0  0  0  0  0  0
  2  1  2  0  0  0  0
  3  1  1  0  0  0  0
  4  1  1  0  0  0  0
  5  9  1  0  0  0  0
  6  2  1  0  0  0  0
  7  3  1  0  0  0  0
  7  8  2  0  0  0  0
  8  4  1  0  0  0  0
  9 12  2  0  0  0  0
  9 21  1  0  0  0  0
 10  6  1  0  0  0  0
 11 17  1  0  0  0  0
 12 10  1  0  0  0  0
 13 11  3  0  0  0  0
 14  5  2  0  0  0  0
 15  5  2  0  0  0  0
 16  6  2  0  0  0  0
 17  3  1  0  0  0  0
 18  5  1  0  0  0  0
 19  7  1  0  0  0  0
 20  8  1  0  0  0  0
 21 23  2  0  0  0  0
 22 10  2  0  0  0  0
 23 22  1  0  0  0  0
 24 19  2  0  0  0  0
 24 25  1  0  0  0  0
 25 20  2  0  0  0  0
M  END
> <CdId>
2761

> <Mol Weight>
370.445

> <Formula>
C18H14N2O3S2

> <Click_ID>
CLK036_G04 __ __ 

$$$$
