CLK015_E05
 OpenBabel03181417022D

 17 18  0  0  0  0  0  0  0  0999 V2000
    2.1101   -0.2289    0.0000 N   0  0  0  0  0  0  0  0  0  0  0  0
    2.3599   -1.0156    0.0000 C   0  0  0  0  0  0  0  0  0  0  0  0
    3.4379   -0.2289    0.0000 C   0  0  0  0  0  0  0  0  0  0  0  0
    2.7719    0.2580    0.0000 C   0  0  0  0  0  0  0  0  0  0  0  0
    3.1839   -1.0156    0.0000 S   0  0  0  0  0  0  0  0  0  0  0  0
    4.2245    0.0250    0.0000 C   0  0  0  0  0  0  0  0  0  0  0  0
    4.3993    0.8324    0.0000 C   0  0  0  0  0  0  0  0  0  0  0  0
    5.1485    1.1695    0.0000 N   0  0  0  0  0  0  0  0  0  0  0  0
    0.7117   -0.5286    0.0000 C   0  0  0  0  0  0  0  0  0  0  0  0
    0.1249   -1.1113    0.0000 C   0  0  0  0  0  0  0  0  0  0  0  0
    1.8771   -1.6773    0.0000 O   0  0  0  0  0  0  0  0  0  0  0  0
    2.7719    1.0821    0.0000 O   0  0  0  0  0  0  0  0  0  0  0  0
    5.0611    1.9853    0.0000 C   0  0  0  0  0  0  0  0  0  0  0  0
    3.8499    1.4442    0.0000 C   0  0  0  0  0  0  0  0  0  0  0  0
    4.2619    2.1559    0.0000 C   0  0  0  0  0  0  0  0  0  0  0  0
    1.3277    0.0250    0.0000 C   0  0  0  0  0  0  0  0  0  0  0  0
    5.8685    0.7575    0.0000 C   0  0  0  0  0  0  0  0  0  0  0  0
  2  1  1  0  0  0  0
  3  4  1  0  0  0  0
  3  5  1  0  0  0  0
  4  1  1  0  0  0  0
  5  2  1  0  0  0  0
  6  3  2  0  0  0  0
  7  6  1  0  0  0  0
  8  7  1  0  0  0  0
  9 16  1  0  0  0  0
 10  9  3  0  0  0  0
 11  2  2  0  0  0  0
 12  4  2  0  0  0  0
 13  8  1  0  0  0  0
 14  7  2  0  0  0  0
 15 14  1  0  0  0  0
 15 13  2  0  0  0  0
 16  1  1  0  0  0  0
 17  8  1  0  0  0  0
M  END
> <CdId>
1120

> <Mol Weight>
246.285

> <Formula>
C12H10N2O2S

> <Click_ID>
CLK015_E05 __ __ 

$$$$
