CLK041F03
 OpenBabel03181417022D

 25 27  0  0  0  0  0  0  0  0999 V2000
   -1.8458   -0.3708    0.0000 C   0  0  0  0  0  0  0  0  0  0  0  0
    2.6917    0.3458    0.0000 S   0  0  0  0  0  0  0  0  0  0  0  0
   -2.3333    0.3000    0.0000 N   0  0  0  0  0  0  0  0  0  0  0  0
   -1.0208   -0.3708    0.0000 N   0  0  0  0  0  0  0  0  0  0  0  0
   -2.3333   -1.0375    0.0000 N   0  0  0  0  0  0  0  0  0  0  0  0
   -0.6083    0.3458    0.0000 C   0  0  0  0  0  0  0  0  0  0  0  0
   -3.1167    0.0417    0.0000 C   0  0  0  0  0  0  0  0  0  0  0  0
   -3.1167   -0.7833    0.0000 C   0  0  0  0  0  0  0  0  0  0  0  0
    1.8667    0.3458    0.0000 C   0  0  0  0  0  0  0  0  0  0  0  0
    4.7542   -0.3708    0.0000 C   0  0  0  0  0  0  0  0  0  0  0  0
    5.5792   -0.3708    0.0000 C   0  0  0  0  0  0  0  0  0  0  0  0
    2.6917    1.1708    0.0000 O   0  0  0  0  0  0  0  0  0  0  0  0
    2.6917   -0.4792    0.0000 O   0  0  0  0  0  0  0  0  0  0  0  0
    0.2167    0.3458    0.0000 C   0  0  0  0  0  0  0  0  0  0  0  0
    3.5167    0.3458    0.0000 N   0  0  0  0  0  0  0  0  0  0  0  0
   -1.0208    1.0583    0.0000 O   0  0  0  0  0  0  0  0  0  0  0  0
    1.4542   -0.3708    0.0000 C   0  0  0  0  0  0  0  0  0  0  0  0
    1.4542    1.0583    0.0000 C   0  0  0  0  0  0  0  0  0  0  0  0
    0.6292   -0.3708    0.0000 C   0  0  0  0  0  0  0  0  0  0  0  0
    0.6292    1.0583    0.0000 C   0  0  0  0  0  0  0  0  0  0  0  0
    3.9292   -0.3708    0.0000 C   0  0  0  0  0  0  0  0  0  0  0  0
   -3.8292    0.4542    0.0000 C   0  0  0  0  0  0  0  0  0  0  0  0
   -3.8292   -1.1958    0.0000 C   0  0  0  0  0  0  0  0  0  0  0  0
   -4.5458    0.0417    0.0000 C   0  0  0  0  0  0  0  0  0  0  0  0
   -4.5458   -0.7833    0.0000 C   0  0  0  0  0  0  0  0  0  0  0  0
  2  9  1  0  0  0  0
  3  1  2  0  0  0  0
  4  1  1  0  0  0  0
  5  1  1  0  0  0  0
  6  4  1  0  0  0  0
  7  3  1  0  0  0  0
  8  5  1  0  0  0  0
  8  7  2  0  0  0  0
  9 18  2  0  0  0  0
  9 17  1  0  0  0  0
 10 21  1  0  0  0  0
 11 10  3  0  0  0  0
 12  2  2  0  0  0  0
 13  2  2  0  0  0  0
 14  6  1  0  0  0  0
 15  2  1  0  0  0  0
 16  6  2  0  0  0  0
 17 19  2  0  0  0  0
 18 20  1  0  0  0  0
 19 14  1  0  0  0  0
 20 14  2  0  0  0  0
 21 15  1  0  0  0  0
 22  7  1  0  0  0  0
 23  8  1  0  0  0  0
 24 22  2  0  0  0  0
 25 23  2  0  0  0  0
 25 24  1  0  0  0  0
M  END
> <CdId>
3102

> <Mol Weight>
354.383

> <Formula>
C17H14N4O3S

> <Click_ID>
CLK041F03 __ __ 

$$$$
