CLK025_E08
 OpenBabel03181417022D

 25 26  0  0  0  0  0  0  0  0999 V2000
    0.8078    2.2310    0.0000 N   0  0  0  0  0  0  0  0  0  0  0  0
    1.2856    1.5675    0.0000 C   0  0  0  0  0  0  0  0  0  0  0  0
    0.0241    1.9800    0.0000 C   0  0  0  0  0  0  0  0  0  0  0  0
    0.0241    1.1482    0.0000 C   0  0  0  0  0  0  0  0  0  0  0  0
    0.8078    0.8937    0.0000 S   0  0  0  0  0  0  0  0  0  0  0  0
   -0.6875    0.7357    0.0000 C   0  0  0  0  0  0  0  0  0  0  0  0
   -0.6875   -2.5643    0.0000 O   0  0  0  0  0  0  0  0  0  0  0  0
   -1.3990   -3.7985    0.0000 C   0  0  0  0  0  0  0  0  0  0  0  0
   -0.6875   -1.7393    0.0000 C   0  0  0  0  0  0  0  0  0  0  0  0
    0.5088    3.6232    0.0000 C   0  0  0  0  0  0  0  0  0  0  0  0
   -0.0790    4.2110    0.0000 C   0  0  0  0  0  0  0  0  0  0  0  0
    0.0241   -1.3268    0.0000 C   0  0  0  0  0  0  0  0  0  0  0  0
    2.1106    1.5675    0.0000 O   0  0  0  0  0  0  0  0  0  0  0  0
   -1.3990   -2.9768    0.0000 C   0  0  3  0  0  0  0  0  0  0  0  0
   -0.6497    2.4682    0.0000 O   0  0  0  0  0  0  0  0  0  0  0  0
   -0.6875   -0.0860    0.0000 C   0  0  0  0  0  0  0  0  0  0  0  0
    1.0622    3.0181    0.0000 C   0  0  0  0  0  0  0  0  0  0  0  0
    0.0241   -0.4985    0.0000 C   0  0  0  0  0  0  0  0  0  0  0  0
   -0.6875   -4.2110    0.0000 O   0  0  0  0  0  0  0  0  0  0  0  0
   -1.4025   -1.3268    0.0000 C   0  0  0  0  0  0  0  0  0  0  0  0
   -2.1106   -4.2110    0.0000 O   0  0  0  0  0  0  0  0  0  0  0  0
   -1.4025   -0.4985    0.0000 C   0  0  0  0  0  0  0  0  0  0  0  0
    0.7460   -1.7463    0.0000 O   0  0  0  0  0  0  0  0  0  0  0  0
   -2.1141   -2.5643    0.0000 C   0  0  0  0  0  0  0  0  0  0  0  0
    1.4575   -1.3372    0.0000 C   0  0  0  0  0  0  0  0  0  0  0  0
  2  1  1  0  0  0  0
  3  1  1  0  0  0  0
  4  3  1  0  0  0  0
  4  5  1  0  0  0  0
  5  2  1  0  0  0  0
  6  4  2  0  0  0  0
  7  9  1  0  0  0  0
  8 14  1  0  0  0  0
  9 20  1  0  0  0  0
 10 17  1  0  0  0  0
 11 10  3  0  0  0  0
 12 18  1  0  0  0  0
 12  9  2  0  0  0  0
 13  2  2  0  0  0  0
 14  7  1  0  0  0  0
 15  3  2  0  0  0  0
 16  6  1  0  0  0  0
 17  1  1  0  0  0  0
 18 16  2  0  0  0  0
 19  8  2  0  0  0  0
 20 22  2  0  0  0  0
 21  8  1  0  0  0  0
 22 16  1  0  0  0  0
 23 12  1  0  0  0  0
 24 14  1  0  0  0  0
 25 23  1  0  0  0  0
M  END
> <CdId>
1903

> <Mol Weight>
361.369

> <Formula>
C17H15NO6S

> <Click_ID>
CLK025_E08 __ __ 

$$$$
