CLK038F07
 OpenBabel03181417022D

 29 30  0  0  0  0  0  0  0  0999 V2000
    0.0958    1.4542    0.0000 S   0  0  0  0  0  0  0  0  0  0  0  0
    0.0958    2.2792    0.0000 C   0  0  0  0  0  0  0  0  0  0  0  0
    0.0958    0.6292    0.0000 N   0  0  0  0  0  0  0  0  0  0  0  0
   -0.6167    2.6917    0.0000 C   0  0  0  0  0  0  0  0  0  0  0  0
    0.0958   -1.8458    0.0000 C   0  0  0  0  0  0  0  0  0  0  0  0
   -1.3333    2.2792    0.0000 C   0  0  0  0  0  0  0  0  0  0  0  0
    0.8125   -2.2583    0.0000 N   0  0  0  0  0  0  0  0  0  0  0  0
    0.8125   -3.9083    0.0000 C   0  0  0  0  0  0  0  0  0  0  0  0
   -0.7292    1.4542    0.0000 O   0  0  0  0  0  0  0  0  0  0  0  0
    0.9208    1.4542    0.0000 O   0  0  0  0  0  0  0  0  0  0  0  0
    0.8125   -4.7333    0.0000 C   0  0  0  0  0  0  0  0  0  0  0  0
    0.8125   -3.0833    0.0000 C   0  0  0  0  0  0  0  0  0  0  0  0
    0.0958   -1.0208    0.0000 C   0  0  0  0  0  0  0  0  0  0  0  0
    0.8125    0.2167    0.0000 C   0  0  0  0  0  0  0  0  0  0  0  0
   -0.6167    0.2167    0.0000 C   0  0  0  0  0  0  0  0  0  0  0  0
   -0.6167   -2.2583    0.0000 O   0  0  0  0  0  0  0  0  0  0  0  0
   -1.3333    1.4542    0.0000 O   0  0  0  0  0  0  0  0  0  0  0  0
   -0.6167   -0.6083    0.0000 C   0  0  0  0  0  0  0  0  0  0  0  0
    0.8125   -0.6083    0.0000 C   0  0  0  0  0  0  0  0  0  0  0  0
   -2.0458    2.6917    0.0000 O   0  0  0  0  0  0  0  0  0  0  0  0
   -0.6167    3.5167    0.0000 C   0  0  0  0  0  0  0  0  0  0  0  0
    0.8125    2.6917    0.0000 C   0  0  0  0  0  0  0  0  0  0  0  0
   -0.0125   -3.0833    0.0000 C   0  0  0  0  0  0  0  0  0  0  0  0
    1.6375   -3.0833    0.0000 C   0  0  0  0  0  0  0  0  0  0  0  0
   -2.7625    2.2792    0.0000 C   0  0  0  0  0  0  0  0  0  0  0  0
    0.0958    3.9292    0.0000 C   0  0  0  0  0  0  0  0  0  0  0  0
    0.8125    3.5167    0.0000 C   0  0  0  0  0  0  0  0  0  0  0  0
    2.0500   -3.8000    0.0000 C   0  0  0  0  0  0  0  0  0  0  0  0
   -0.4250   -2.3708    0.0000 C   0  0  0  0  0  0  0  0  0  0  0  0
  2  1  1  0  0  0  0
  3  1  1  0  0  0  0
  4  2  2  0  0  0  0
  5 13  1  0  0  0  0
  6  4  1  0  0  0  0
  7  5  1  0  0  0  0
  8 12  1  0  0  0  0
  9  1  2  0  0  0  0
 10  1  2  0  0  0  0
 11  8  3  0  0  0  0
 12  7  1  0  0  0  0
 13 18  1  0  0  0  0
 14  3  1  0  0  0  0
 15  3  1  0  0  0  0
 16  5  2  0  0  0  0
 17  6  2  0  0  0  0
 18 15  1  0  0  0  0
 19 14  1  0  0  0  0
 19 13  1  0  0  0  0
 20  6  1  0  0  0  0
 21  4  1  0  0  0  0
 22  2  1  0  0  0  0
 23 12  1  0  0  0  0
 24 12  1  0  0  0  0
 25 20  1  0  0  0  0
 26 21  2  0  0  0  0
 26 27  1  0  0  0  0
 27 22  2  0  0  0  0
 28 24  1  0  0  0  0
 29 23  1  0  0  0  0
M  END
> <CdId>
2894

> <Mol Weight>
420.522

> <Formula>
C21H28N2O5S

> <Click_ID>
CLK038F07 __ __ 

$$$$
