CLK024_H10
 OpenBabel03181417022D

 22 24  0  0  0  0  0  0  0  0999 V2000
   -1.6968   -1.5591    0.0000 N   0  0  0  0  0  0  0  0  0  0  0  0
   -1.4455   -2.3473    0.0000 C   0  0  0  0  0  0  0  0  0  0  0  0
   -0.3648   -1.5694    0.0000 C   0  0  0  0  0  0  0  0  0  0  0  0
   -1.0428   -1.0807    0.0000 C   0  0  0  0  0  0  0  0  0  0  0  0
    0.5885   -0.5059    0.0000 C   0  0  0  0  0  0  0  0  0  0  0  0
   -0.6195   -2.3473    0.0000 S   0  0  0  0  0  0  0  0  0  0  0  0
    0.4440    0.8363    0.0000 N   0  0  0  0  0  0  0  0  0  0  0  0
    0.4199   -1.3148    0.0000 C   0  0  0  0  0  0  0  0  0  0  0  0
    0.0241    0.1204    0.0000 C   0  0  0  0  0  0  0  0  0  0  0  0
    1.3354   -0.1687    0.0000 C   0  0  0  0  0  0  0  0  0  0  0  0
    1.2528    0.6505    0.0000 C   0  0  0  0  0  0  0  0  0  0  0  0
   -1.9343   -3.0115    0.0000 N   0  0  0  0  0  0  0  0  0  0  0  0
    0.5989    2.2544    0.0000 C   0  0  0  0  0  0  0  0  0  0  0  0
    0.2753    3.0149    0.0000 C   0  0  0  0  0  0  0  0  0  0  0  0
   -1.0463   -0.2547    0.0000 O   0  0  0  0  0  0  0  0  0  0  0  0
    0.1101    1.5901    0.0000 C   0  0  0  0  0  0  0  0  0  0  0  0
   -2.4815   -1.3078    0.0000 C   0  0  0  0  0  0  0  0  0  0  0  0
    1.9239    1.1358    0.0000 C   0  0  0  0  0  0  0  0  0  0  0  0
    2.0857   -0.5059    0.0000 C   0  0  0  0  0  0  0  0  0  0  0  0
   -2.7568   -2.9186    0.0000 C   0  0  0  0  0  0  0  0  0  0  0  0
    2.7533   -0.0310    0.0000 C   0  0  0  0  0  0  0  0  0  0  0  0
    2.6742    0.7985    0.0000 C   0  0  0  0  0  0  0  0  0  0  0  0
  2  1  1  0  0  0  0
  3  4  1  0  0  0  0
  3  6  1  0  0  0  0
  4  1  1  0  0  0  0
  5  8  1  0  0  0  0
  6  2  1  0  0  0  0
  7  9  1  0  0  0  0
  7 11  1  0  0  0  0
  8  3  2  0  0  0  0
  9  5  2  0  0  0  0
 10  5  1  0  0  0  0
 11 10  2  0  0  0  0
 12  2  2  0  0  0  0
 13 16  1  0  0  0  0
 14 13  3  0  0  0  0
 15  4  2  0  0  0  0
 16  7  1  0  0  0  0
 17  1  1  0  0  0  0
 18 11  1  0  0  0  0
 18 22  2  0  0  0  0
 19 10  1  0  0  0  0
 20 12  1  0  0  0  0
 21 19  2  0  0  0  0
 22 21  1  0  0  0  0
M  END
> <CdId>
1855

> <Mol Weight>
309.386

> <Formula>
C17H15N3OS

> <Click_ID>
CLK024_H10 __ __ 

$$$$
