CLK023_A07
 OpenBabel03181417022D

 27 29  0  0  0  0  0  0  0  0999 V2000
    1.9593    1.7290    0.0000 N   0  0  0  0  0  0  0  0  0  0  0  0
    2.3649    1.0141    0.0000 C   0  0  0  0  0  0  0  0  0  0  0  0
    1.0484    0.7322    0.0000 C   0  0  0  0  0  0  0  0  0  0  0  0
    1.1446    1.5571    0.0000 C   0  0  0  0  0  0  0  0  0  0  0  0
    1.8081    0.3953    0.0000 S   0  0  0  0  0  0  0  0  0  0  0  0
    0.3335    0.3197    0.0000 C   0  0  0  0  0  0  0  0  0  0  0  0
   -3.2312   -2.5642    0.0000 N   0  0  0  0  0  0  0  0  0  0  0  0
    3.1143    2.5677    0.0000 C   0  0  0  0  0  0  0  0  0  0  0  0
    0.3368   -0.4984    0.0000 C   0  0  0  0  0  0  0  0  0  0  0  0
   -3.2312   -1.7393    0.0000 C   0  0  0  0  0  0  0  0  0  0  0  0
    3.9392    2.5574    0.0000 C   0  0  0  0  0  0  0  0  0  0  0  0
    3.1899    0.9143    0.0000 O   0  0  0  0  0  0  0  0  0  0  0  0
    0.5225    2.1174    0.0000 O   0  0  0  0  0  0  0  0  0  0  0  0
    2.2961    2.4852    0.0000 C   0  0  0  0  0  0  0  0  0  0  0  0
   -1.0896   -0.5121    0.0000 O   0  0  0  0  0  0  0  0  0  0  0  0
   -0.3781   -0.9109    0.0000 C   0  0  0  0  0  0  0  0  0  0  0  0
   -3.2208   -0.9212    0.0000 C   0  0  0  0  0  0  0  0  0  0  0  0
   -2.5162   -0.5121    0.0000 C   0  0  0  0  0  0  0  0  0  0  0  0
   -1.8046   -0.9246    0.0000 C   0  0  0  0  0  0  0  0  0  0  0  0
    1.0450   -0.9109    0.0000 C   0  0  0  0  0  0  0  0  0  0  0  0
   -0.3781   -1.7393    0.0000 C   0  0  0  0  0  0  0  0  0  0  0  0
   -3.9427   -0.5088    0.0000 C   0  0  0  0  0  0  0  0  0  0  0  0
   -2.5162    0.3128    0.0000 C   0  0  0  0  0  0  0  0  0  0  0  0
    1.0484   -1.7393    0.0000 C   0  0  0  0  0  0  0  0  0  0  0  0
   -3.9358    0.3128    0.0000 C   0  0  0  0  0  0  0  0  0  0  0  0
    0.3368   -2.1518    0.0000 C   0  0  0  0  0  0  0  0  0  0  0  0
   -3.2208    0.7287    0.0000 C   0  0  0  0  0  0  0  0  0  0  0  0
  2  1  1  0  0  0  0
  3  4  1  0  0  0  0
  4  1  1  0  0  0  0
  5  2  1  0  0  0  0
  5  3  1  0  0  0  0
  6  3  2  0  0  0  0
  7 10  3  0  0  0  0
  8 14  1  0  0  0  0
  9  6  1  0  0  0  0
 10 17  1  0  0  0  0
 11  8  3  0  0  0  0
 12  2  2  0  0  0  0
 13  4  2  0  0  0  0
 14  1  1  0  0  0  0
 15 16  1  0  0  0  0
 16  9  2  0  0  0  0
 17 18  1  0  0  0  0
 18 19  1  0  0  0  0
 19 15  1  0  0  0  0
 20  9  1  0  0  0  0
 21 16  1  0  0  0  0
 22 17  2  0  0  0  0
 23 18  2  0  0  0  0
 24 20  2  0  0  0  0
 25 27  2  0  0  0  0
 25 22  1  0  0  0  0
 26 24  1  0  0  0  0
 26 21  2  0  0  0  0
 27 23  1  0  0  0  0
M  END
> <CdId>
1702

> <Mol Weight>
374.412

> <Formula>
C21H14N2O3S

> <Click_ID>
CLK023_A07 __ __ 

$$$$
