CLK041B03
 OpenBabel03181417022D

 25 26  0  0  0  0  0  0  0  0999 V2000
    1.4000    0.0167    0.0000 C   0  0  0  0  0  0  0  0  0  0  0  0
    1.4000   -0.8083    0.0000 N   0  3  0  0  0  0  0  0  0  0  0  0
    0.6833    0.4292    0.0000 C   0  0  0  0  0  0  0  0  0  0  0  0
    2.8292    1.6667    0.0000 C   0  0  0  0  0  0  0  0  0  0  0  0
   -0.0292    0.0167    0.0000 N   0  0  0  0  0  0  0  0  0  0  0  0
    2.1125    0.4292    0.0000 C   0  0  0  0  0  0  0  0  0  0  0  0
    2.1125    1.2542    0.0000 C   0  0  0  0  0  0  0  0  0  0  0  0
   -2.1750   -1.2208    0.0000 C   0  0  0  0  0  0  0  0  0  0  0  0
   -4.3167   -0.8083    0.0000 C   0  0  0  0  0  0  0  0  0  0  0  0
    0.6833    1.2542    0.0000 C   0  0  0  0  0  0  0  0  0  0  0  0
   -5.0333   -0.3958    0.0000 C   0  0  0  0  0  0  0  0  0  0  0  0
    0.6833   -1.2208    0.0000 O   0  5  0  0  0  0  0  0  0  0  0  0
    2.1125   -1.2208    0.0000 O   0  0  0  0  0  0  0  0  0  0  0  0
   -1.4583   -0.8083    0.0000 C   0  0  0  0  0  0  0  0  0  0  0  0
   -0.7458    0.4292    0.0000 C   0  0  0  0  0  0  0  0  0  0  0  0
   -0.0292   -0.8083    0.0000 C   0  0  0  0  0  0  0  0  0  0  0  0
    1.4000    1.6667    0.0000 C   0  0  0  0  0  0  0  0  0  0  0  0
   -2.1750   -2.0458    0.0000 O   0  0  0  0  0  0  0  0  0  0  0  0
    2.4167    2.3833    0.0000 F   0  0  0  0  0  0  0  0  0  0  0  0
    3.2417    0.9542    0.0000 F   0  0  0  0  0  0  0  0  0  0  0  0
    3.5417    2.0792    0.0000 F   0  0  0  0  0  0  0  0  0  0  0  0
   -0.7458   -1.2208    0.0000 C   0  0  0  0  0  0  0  0  0  0  0  0
   -1.4583    0.0167    0.0000 C   0  0  0  0  0  0  0  0  0  0  0  0
   -2.8875   -0.8083    0.0000 N   0  0  0  0  0  0  0  0  0  0  0  0
   -3.6042   -1.2208    0.0000 C   0  0  0  0  0  0  0  0  0  0  0  0
  2  1  1  0  0  0  0
  3  1  2  0  0  0  0
  4  7  1  0  0  0  0
  5  3  1  0  0  0  0
  6  1  1  0  0  0  0
  7  6  2  0  0  0  0
  8 14  1  0  0  0  0
  9 25  1  0  0  0  0
 10  3  1  0  0  0  0
 11  9  3  0  0  0  0
 12  2  1  0  0  0  0
 13  2  2  0  0  0  0
 14 22  1  0  0  0  0
 14 23  1  0  0  0  0
 15  5  1  0  0  0  0
 16  5  1  0  0  0  0
 17 10  2  0  0  0  0
 17  7  1  0  0  0  0
 18  8  2  0  0  0  0
 19  4  1  0  0  0  0
 20  4  1  0  0  0  0
 21  4  1  0  0  0  0
 22 16  1  0  0  0  0
 23 15  1  0  0  0  0
 24  8  1  0  0  0  0
 25 24  1  0  0  0  0
M  END
> <CdId>
3098

> <Mol Weight>
355.3117

> <Formula>
C16H16F3N3O3

> <Click_ID>
CLK041B03 __ __ 

$$$$
