CLK030_B09
 OpenBabel03181417022D

 28 30  0  0  0  0  0  0  0  0999 V2000
   -1.1649    2.3882    0.0000 C   0  0  0  0  0  0  0  0  0  0  0  0
   -0.3382    2.3799    0.0000 N   0  0  0  0  0  0  0  0  0  0  0  0
   -4.5928    3.2192    0.0000 S   0  0  0  0  0  0  0  0  0  0  0  0
   -1.6492    1.7244    0.0000 N   0  0  0  0  0  0  0  0  0  0  0  0
   -1.6492    3.0563    0.0000 S   0  0  0  0  0  0  0  0  0  0  0  0
   -2.4383    2.8016    0.0000 C   0  0  0  0  0  0  0  0  0  0  0  0
    3.3862    3.0939    0.0000 N   0  3  0  0  0  0  0  0  0  0  0  0
   -2.4383    1.9749    0.0000 C   0  0  0  0  0  0  0  0  0  0  0  0
    0.0752    3.0939    0.0000 C   0  0  0  0  0  0  0  0  0  0  0  0
   -3.8663    2.8016    0.0000 C   0  0  0  0  0  0  0  0  0  0  0  0
   -3.1523    3.2149    0.0000 C   0  0  0  0  0  0  0  0  0  0  0  0
   -1.9498    0.3215    0.0000 C   0  0  0  0  0  0  0  0  0  0  0  0
    2.5595    3.0939    0.0000 C   0  0  0  0  0  0  0  0  0  0  0  0
   -3.1523    1.5615    0.0000 C   0  0  0  0  0  0  0  0  0  0  0  0
   -2.5010   -0.2923    0.0000 C   0  0  0  0  0  0  0  0  0  0  0  0
   -4.1544    3.9164    0.0000 O   0  0  0  0  0  0  0  0  0  0  0  0
   -5.0312    2.5135    0.0000 O   0  0  0  0  0  0  0  0  0  0  0  0
    3.7996    2.3799    0.0000 O   0  5  0  0  0  0  0  0  0  0  0  0
    0.9019    3.0939    0.0000 C   0  0  0  0  0  0  0  0  0  0  0  0
    3.7996    3.8162    0.0000 O   0  0  0  0  0  0  0  0  0  0  0  0
   -5.2942    3.6534    0.0000 N   0  0  0  0  0  0  0  0  0  0  0  0
   -0.3382    3.8079    0.0000 O   0  0  0  0  0  0  0  0  0  0  0  0
   -3.8663    1.9749    0.0000 C   0  0  0  0  0  0  0  0  0  0  0  0
   -1.3987    0.9352    0.0000 C   0  0  0  0  0  0  0  0  0  0  0  0
    2.1461    2.3757    0.0000 C   0  0  0  0  0  0  0  0  0  0  0  0
    2.1336    3.8037    0.0000 C   0  0  0  0  0  0  0  0  0  0  0  0
    1.3194    2.3757    0.0000 C   0  0  0  0  0  0  0  0  0  0  0  0
    1.3152    3.8037    0.0000 C   0  0  0  0  0  0  0  0  0  0  0  0
  2  1  2  0  0  0  0
  3 10  1  0  0  0  0
  4  1  1  0  0  0  0
  5  1  1  0  0  0  0
  6  5  1  0  0  0  0
  6  8  2  0  0  0  0
  7 13  1  0  0  0  0
  8  4  1  0  0  0  0
  9  2  1  0  0  0  0
 10 11  2  0  0  0  0
 10 23  1  0  0  0  0
 11  6  1  0  0  0  0
 12 24  1  0  0  0  0
 13 26  1  0  0  0  0
 14  8  1  0  0  0  0
 15 12  3  0  0  0  0
 16  3  2  0  0  0  0
 17  3  2  0  0  0  0
 18  7  1  0  0  0  0
 19  9  1  0  0  0  0
 20  7  2  0  0  0  0
 21  3  1  0  0  0  0
 22  9  2  0  0  0  0
 23 14  2  0  0  0  0
 24  4  1  0  0  0  0
 25 27  1  0  0  0  0
 25 13  2  0  0  0  0
 26 28  2  0  0  0  0
 27 19  2  0  0  0  0
 28 19  1  0  0  0  0
M  END
> <CdId>
2263

> <Mol Weight>
416.431

> <Formula>
C17H12N4O5S2

> <Click_ID>
CLK030_B09 __ __ 

$$$$
