CLK007_B07
 OpenBabel03181417022D

 23 25  0  0  0  0  0  0  0  0999 V2000
    0.8699    0.0691    0.0000 C    0  0  3  0  0  0  0  0  0  0  0  0
    0.1554   -0.3418    0.0000 C    0  0  0  0  0  0  0  0  0  0  0  0
    0.8699    0.8976    0.0000 C    0  0  0  0  0  0  0  0  0  0  0  0
    1.5810   -0.3349    0.0000 C    0  0  0  0  0  0  0  0  0  0  0  0
    0.1554   -1.1599    0.0000 C    0  0  0  0  0  0  0  0  0  0  0  0
   -0.5592    0.0794    0.0000 C    0  0  0  0  0  0  0  0  0  0  0  0
    1.5810    1.3048    0.0000 C    0  0  0  0  0  0  0  0  0  0  0  0
    0.1554    1.3048    0.0000 C    0  0  0  0  0  0  0  0  0  0  0  0
    1.5810   -1.1599    0.0000 C    0  0  0  0  0  0  0  0  0  0  0  0
   -0.5592   -1.5741    0.0000 N    0  0  0  0  0  0  0  0  0  0  0  0
    0.8699   -1.5741    0.0000 N    0  0  0  0  0  0  0  0  0  0  0  0
   -1.2635   -0.3418    0.0000 N    0  0  0  0  0  0  0  0  0  0  0  0
   -0.5592    0.9044    0.0000 O    0  0  0  0  0  0  0  0  0  0  0  0
    1.5810    2.1299    0.0000 C    0  0  0  0  0  0  0  0  0  0  0  0
    2.2956    0.8907    0.0000 Br   0  0  0  0  0  0  0  0  0  0  0  0
    0.1416    2.1230    0.0000 C    0  0  0  0  0  0  0  0  0  0  0  0
    2.2956   -1.5741    0.0000 O    0  0  0  0  0  0  0  0  0  0  0  0
   -1.2635   -1.1668    0.0000 C    0  0  0  0  0  0  0  0  0  0  0  0
    0.8630    2.5442    0.0000 C    0  0  0  0  0  0  0  0  0  0  0  0
   -1.9850   -1.5810    0.0000 S    0  0  0  0  0  0  0  0  0  0  0  0
   -2.6995   -1.1668    0.0000 C    0  0  0  0  0  0  0  0  0  0  0  0
   -2.6995   -0.3418    0.0000 C    0  0  0  0  0  0  0  0  0  0  0  0
   -3.4106    0.0691    0.0000 C    0  0  0  0  0  0  0  0  0  0  0  0
  1  2  1  0  0  0  0
  1  3  1  0  0  0  0
  1  4  1  0  0  0  0
  2  5  2  0  0  0  0
  2  6  1  0  0  0  0
  3  7  2  0  0  0  0
  3  8  1  0  0  0  0
  4  9  1  0  0  0  0
  5 10  1  0  0  0  0
  5 11  1  0  0  0  0
  6 12  1  0  0  0  0
  6 13  2  0  0  0  0
  7 14  1  0  0  0  0
  7 15  1  0  0  0  0
  8 16  2  0  0  0  0
  9 17  2  0  0  0  0
  9 11  1  0  0  0  0
 10 18  2  0  0  0  0
 12 18  1  0  0  0  0
 14 19  2  0  0  0  0
 16 19  1  0  0  0  0
 18 20  1  0  0  0  0
 20 21  1  0  0  0  0
 21 22  1  0  0  0  0
 22 23  3  0  0  0  0
M  END
> <CdId>
496

> <Mol Weight>
390.254

> <Formula>
C16H12BrN3O2S

> <Click_ID>
CLK007_B07 __ __ 

$$$$
