CLK032_D11
 OpenBabel03181417022D

 12 12  0  0  0  0  0  0  0  0999 V2000
    2.8626   -0.9616    0.0000 N   0  0  0  0  0  0  0  0  0  0  0  0
    2.8626   -1.7903    0.0000 C   0  0  0  0  0  0  0  0  0  0  0  0
    2.1512   -2.2007    0.0000 N   0  0  0  0  0  0  0  0  0  0  0  0
    2.1512   -0.5512    0.0000 C   0  0  0  0  0  0  0  0  0  0  0  0
    1.4424   -0.9616    0.0000 C   0  0  0  0  0  0  0  0  0  0  0  0
    1.4424   -1.7903    0.0000 C   0  0  0  0  0  0  0  0  0  0  0  0
    4.2815   -3.4437    0.0000 C   0  0  0  0  0  0  0  0  0  0  0  0
    5.0034   -3.8555    0.0000 C   0  0  0  0  0  0  0  0  0  0  0  0
    0.7245   -2.2124    0.0000 O   0  0  0  0  0  0  0  0  0  0  0  0
    3.5805   -2.2046    0.0000 S   0  0  0  0  0  0  0  0  0  0  0  0
    2.1512    0.2697    0.0000 N   0  0  0  0  0  0  0  0  0  0  0  0
    3.5727   -3.0333    0.0000 C   0  0  0  0  0  0  0  0  0  0  0  0
  2  1  2  0  0  0  0
  3  2  1  0  0  0  0
  4  1  1  0  0  0  0
  5  4  2  0  0  0  0
  6  5  1  0  0  0  0
  6  3  1  0  0  0  0
  7 12  1  0  0  0  0
  8  7  3  0  0  0  0
  9  6  2  0  0  0  0
 10  2  1  0  0  0  0
 11  4  1  0  0  0  0
 12 10  1  0  0  0  0
M  END
> <CdId>
2445

> <Mol Weight>
181.215

> <Formula>
C7H7N3OS

> <Click_ID>
CLK032_D11 __ __ 

$$$$
