CLK047C09
 OpenBabel03181417022D

 14 14  0  0  0  0  0  0  0  0999 V2000
   -0.6667    0.2667    0.0000 C   0  0  0  0  0  0  0  0  0  0  0  0
   -1.3792    2.3292    0.0000 C   0  0  0  0  0  0  0  0  0  0  0  0
   -1.3792    3.1542    0.0000 C   0  0  0  0  0  0  0  0  0  0  0  0
    0.0500   -0.1458    0.0000 C   0  0  0  0  0  0  0  0  0  0  0  0
    0.0500   -0.9708    0.0000 C   0  0  0  0  0  0  0  0  0  0  0  0
   -1.3792   -0.1458    0.0000 O   0  0  0  0  0  0  0  0  0  0  0  0
   -0.6667    1.0917    0.0000 N   0  0  0  0  0  0  0  0  0  0  0  0
    0.7625   -1.3833    0.0000 C   0  0  0  0  0  0  0  0  0  0  0  0
   -1.3792    1.5042    0.0000 C   0  0  0  0  0  0  0  0  0  0  0  0
    0.7625   -2.2083    0.0000 O   0  0  0  0  0  0  0  0  0  0  0  0
    0.7625    0.2667    0.0000 C   0  0  0  0  0  0  0  0  0  0  0  0
    1.4792   -0.1458    0.0000 C   0  0  0  0  0  0  0  0  0  0  0  0
    1.4792   -0.9708    0.0000 C   0  0  0  0  0  0  0  0  0  0  0  0
    1.4792   -2.6208    0.0000 C   0  0  0  0  0  0  0  0  0  0  0  0
  2  9  1  0  0  0  0
  3  2  3  0  0  0  0
  4  1  1  0  0  0  0
  5  4  1  0  0  0  0
  6  1  2  0  0  0  0
  7  1  1  0  0  0  0
  8  5  2  0  0  0  0
  9  7  1  0  0  0  0
 10  8  1  0  0  0  0
 11  4  2  0  0  0  0
 12 11  1  0  0  0  0
 12 13  2  0  0  0  0
 13  8  1  0  0  0  0
 14 10  1  0  0  0  0
M  END
> <CdId>
3627

> <Mol Weight>
189.2105

> <Formula>
C11H11NO2

> <Click_ID>
CLK047C09 __ __ 

$$$$
