CLK044E10
 OpenBabel03181417022D

 22 23  0  0  0  0  0  0  0  0999 V2000
    0.3875   -0.5625    0.0000 C   0  0  0  0  0  0  0  0  0  0  0  0
    1.8167   -0.5625    0.0000 N   0  0  0  0  0  0  0  0  0  0  0  0
    1.1042   -1.8000    0.0000 N   0  0  0  0  0  0  0  0  0  0  0  0
    1.8167   -1.3875    0.0000 C   0  0  0  0  0  0  0  0  0  0  0  0
    1.1042   -0.1500    0.0000 C   0  0  0  0  0  0  0  0  0  0  0  0
    0.3875   -1.3875    0.0000 C   0  0  0  0  0  0  0  0  0  0  0  0
   -0.3250   -0.1500    0.0000 C   0  0  0  0  0  0  0  0  0  0  0  0
   -0.3250    0.6750    0.0000 C   0  0  0  0  0  0  0  0  0  0  0  0
   -3.1833    0.6750    0.0000 C   0  0  0  0  0  0  0  0  0  0  0  0
    2.5292   -1.8000    0.0000 O   0  0  0  0  0  0  0  0  0  0  0  0
   -3.9000    0.2625    0.0000 C   0  0  0  0  0  0  0  0  0  0  0  0
    1.1042    0.6750    0.0000 O   0  0  0  0  0  0  0  0  0  0  0  0
   -0.3250   -1.8000    0.0000 O   0  0  0  0  0  0  0  0  0  0  0  0
   -1.0417    1.0875    0.0000 C   0  0  0  0  0  0  0  0  0  0  0  0
    1.1042   -2.6250    0.0000 C   0  0  0  0  0  0  0  0  0  0  0  0
    2.5292   -0.1500    0.0000 C   0  0  0  0  0  0  0  0  0  0  0  0
   -1.7542    0.6750    0.0000 O   0  0  0  0  0  0  0  0  0  0  0  0
   -2.4708    1.0875    0.0000 C   0  0  0  0  0  0  0  0  0  0  0  0
    0.3875    1.0875    0.0000 C   0  0  0  0  0  0  0  0  0  0  0  0
   -1.0417    1.9125    0.0000 C   0  0  0  0  0  0  0  0  0  0  0  0
    0.3875    1.9125    0.0000 C   0  0  0  0  0  0  0  0  0  0  0  0
   -0.3250    2.3292    0.0000 C   0  0  0  0  0  0  0  0  0  0  0  0
  2  5  1  0  0  0  0
  2  4  1  0  0  0  0
  3  6  1  0  0  0  0
  4  3  1  0  0  0  0
  5  1  1  0  0  0  0
  6  1  1  0  0  0  0
  7  1  2  0  0  0  0
  8  7  1  0  0  0  0
  9 18  1  0  0  0  0
 10  4  2  0  0  0  0
 11  9  3  0  0  0  0
 12  5  2  0  0  0  0
 13  6  2  0  0  0  0
 14  8  2  0  0  0  0
 15  3  1  0  0  0  0
 16  2  1  0  0  0  0
 17 14  1  0  0  0  0
 18 17  1  0  0  0  0
 19  8  1  0  0  0  0
 20 14  1  0  0  0  0
 21 19  2  0  0  0  0
 22 20  2  0  0  0  0
 22 21  1  0  0  0  0
M  END
> <CdId>
3397

> <Mol Weight>
298.2934

> <Formula>
C16H14N2O4

> <Click_ID>
CLK044E10 __ __ 

$$$$
