CLK009_E09
 OpenBabel03181417022D

 17 17  0  0  0  0  0  0  0  0999 V2000
    5.7650   -1.7823    0.0000 C    0  0  0  0  0  0  0  0  0  0  0  0
    2.1682   -1.3781    0.0000 C    0  0  0  0  0  0  0  0  0  0  0  0
    3.6014   -1.3781    0.0000 C    0  0  0  0  0  0  0  0  0  0  0  0
    2.8848   -1.7823    0.0000 C    0  0  0  0  0  0  0  0  0  0  0  0
    6.4816   -2.2049    0.0000 C    0  0  0  0  0  0  0  0  0  0  0  0
    4.3318   -1.7823    0.0000 N    0  0  0  0  0  0  0  0  0  0  0  0
    5.0484   -1.3781    0.0000 C    0  0  0  0  0  0  0  0  0  0  0  0
    1.4378   -1.7823    0.0000 C    0  0  0  0  0  0  0  0  0  0  0  0
    3.6014   -0.5512    0.0000 O    0  0  0  0  0  0  0  0  0  0  0  0
    0.7212   -1.3781    0.0000 C    0  0  0  0  0  0  0  0  0  0  0  0
    0.7212   -0.5512    0.0000 Cl   0  0  0  0  0  0  0  0  0  0  0  0
    5.5996   -0.5374    0.0000 C    0  0  0  0  0  0  0  0  0  0  0  0
    4.5247   -0.5374    0.0000 C    0  0  0  0  0  0  0  0  0  0  0  0
    1.4378   -2.6230    0.0000 C    0  0  0  0  0  0  0  0  0  0  0  0
    0.0046   -1.7823    0.0000 C    0  0  0  0  0  0  0  0  0  0  0  0
    0.0046   -2.6230    0.0000 C    0  0  0  0  0  0  0  0  0  0  0  0
    0.7212   -3.0318    0.0000 C    0  0  0  0  0  0  0  0  0  0  0  0
  2  4  2  0  0  0  0
  3  6  1  0  0  0  0
  4  3  1  0  0  0  0
  5  1  3  0  0  0  0
  6  7  1  0  0  0  0
  7  1  1  0  0  0  0
  8  2  1  0  0  0  0
  9  3  2  0  0  0  0
 10  8  1  0  0  0  0
 11 10  1  0  0  0  0
 12  7  1  0  0  0  0
 13  7  1  0  0  0  0
 14  8  2  0  0  0  0
 15 10  2  0  0  0  0
 15 16  1  0  0  0  0
 16 17  2  0  0  0  0
 17 14  1  0  0  0  0
M  END
> <CdId>
644

> <Mol Weight>
247.72

> <Formula>
C14H14ClNO

> <Click_ID>
CLK009_E09 __ __ 

$$$$
