CLK032_F07
 OpenBabel03181417022D

 24 26  0  0  0  0  0  0  0  0999 V2000
   -1.4249    2.6391    0.0000 C    0  0  0  0  0  0  0  0  0  0  0  0
   -0.6001    2.6345    0.0000 N    0  0  0  0  0  0  0  0  0  0  0  0
   -1.9059    1.9884    0.0000 N    0  0  0  0  0  0  0  0  0  0  0  0
   -1.9059    3.3217    0.0000 S    0  0  0  0  0  0  0  0  0  0  0  0
   -2.6894    2.2359    0.0000 C    0  0  0  0  0  0  0  0  0  0  0  0
   -0.1787    3.3355    0.0000 C    0  0  0  0  0  0  0  0  0  0  0  0
   -2.6894    3.0605    0.0000 C    0  0  0  0  0  0  0  0  0  0  0  0
   -3.4042    1.8235    0.0000 C    0  0  0  0  0  0  0  0  0  0  0  0
    0.6506    3.3217    0.0000 C    0  0  0  0  0  0  0  0  0  0  0  0
   -3.4042    3.4729    0.0000 C    0  0  0  0  0  0  0  0  0  0  0  0
   -4.1189    2.2359    0.0000 C    0  0  0  0  0  0  0  0  0  0  0  0
   -0.8384    1.0171    0.0000 C    0  0  0  0  0  0  0  0  0  0  0  0
   -0.0366    0.8476    0.0000 C    0  0  0  0  0  0  0  0  0  0  0  0
   -4.1189    3.0605    0.0000 C    0  0  0  0  0  0  0  0  0  0  0  0
    1.0630    2.6116    0.0000 C    0  0  0  0  0  0  0  0  0  0  0  0
   -0.5910    4.0411    0.0000 O    0  0  0  0  0  0  0  0  0  0  0  0
   -1.6448    1.1912    0.0000 C    0  0  0  0  0  0  0  0  0  0  0  0
   -3.4042    0.9988    0.0000 F    0  0  0  0  0  0  0  0  0  0  0  0
    0.6460    1.8922    0.0000 Br   0  0  0  0  0  0  0  0  0  0  0  0
   -4.8336    3.4867    0.0000 F    0  0  0  0  0  0  0  0  0  0  0  0
    1.0630    4.0364    0.0000 C    0  0  0  0  0  0  0  0  0  0  0  0
    1.8877    2.6116    0.0000 C    0  0  0  0  0  0  0  0  0  0  0  0
    1.8877    4.0364    0.0000 C    0  0  0  0  0  0  0  0  0  0  0  0
    2.3001    3.3217    0.0000 C    0  0  0  0  0  0  0  0  0  0  0  0
  2  1  2  0  0  0  0
  3  1  1  0  0  0  0
  4  1  1  0  0  0  0
  5  3  1  0  0  0  0
  5  7  2  0  0  0  0
  6  2  1  0  0  0  0
  7  4  1  0  0  0  0
  8  5  1  0  0  0  0
  9  6  1  0  0  0  0
 10  7  1  0  0  0  0
 11  8  2  0  0  0  0
 11 14  1  0  0  0  0
 12 17  1  0  0  0  0
 13 12  3  0  0  0  0
 14 10  2  0  0  0  0
 15  9  2  0  0  0  0
 16  6  2  0  0  0  0
 17  3  1  0  0  0  0
 18  8  1  0  0  0  0
 19 15  1  0  0  0  0
 20 14  1  0  0  0  0
 21  9  1  0  0  0  0
 22 15  1  0  0  0  0
 23 21  2  0  0  0  0
 24 23  1  0  0  0  0
 24 22  2  0  0  0  0
M  END
> <CdId>
2461

> <Mol Weight>
407.232

> <Formula>
C17H9BrF2N2OS

> <Click_ID>
CLK032_F07 __ __ 

$$$$
