CLK049H03
 OpenBabel03181417022D

 22 24  0  0  0  0  0  0  0  0999 V2000
   -0.1625    0.0208    0.0000 C   0  0  0  0  0  0  0  0  0  0  0  0
   -0.1625    0.8458    0.0000 C   0  0  3  0  0  0  0  0  0  0  0  0
   -0.1625    2.4958    0.0000 N   0  0  0  0  0  0  0  0  0  0  0  0
    0.5500    2.0833    0.0000 C   0  0  0  0  0  0  0  0  0  0  0  0
   -0.8792    1.2583    0.0000 C   0  0  0  0  0  0  0  0  0  0  0  0
   -0.8792    2.0833    0.0000 C   0  0  0  0  0  0  0  0  0  0  0  0
    0.5500   -0.3917    0.0000 N   0  0  0  0  0  0  0  0  0  0  0  0
    1.9792   -2.8667    0.0000 C   0  0  0  0  0  0  0  0  0  0  0  0
    0.5500    1.2583    0.0000 C   0  0  0  0  0  0  0  0  0  0  0  0
    2.6917   -3.2792    0.0000 C   0  0  0  0  0  0  0  0  0  0  0  0
   -0.8792   -0.3917    0.0000 O   0  0  0  0  0  0  0  0  0  0  0  0
    1.2625    2.4958    0.0000 O   0  0  0  0  0  0  0  0  0  0  0  0
    0.5500   -1.2167    0.0000 C   0  0  0  0  0  0  0  0  0  0  0  0
    1.2625   -2.4542    0.0000 C   0  0  0  0  0  0  0  0  0  0  0  0
    1.2625   -1.6292    0.0000 C   0  0  0  0  0  0  0  0  0  0  0  0
   -1.5917    0.8458    0.0000 C   0  0  0  0  0  0  0  0  0  0  0  0
   -1.5917    2.4958    0.0000 C   0  0  0  0  0  0  0  0  0  0  0  0
   -0.1625   -2.4542    0.0000 C   0  0  0  0  0  0  0  0  0  0  0  0
   -0.1625   -1.6292    0.0000 C   0  0  0  0  0  0  0  0  0  0  0  0
    0.5500   -2.8667    0.0000 C   0  0  0  0  0  0  0  0  0  0  0  0
   -2.3083    1.2583    0.0000 C   0  0  0  0  0  0  0  0  0  0  0  0
   -2.3083    2.0833    0.0000 C   0  0  0  0  0  0  0  0  0  0  0  0
  2  1  1  0  0  0  0
  3  6  1  0  0  0  0
  3  4  1  0  0  0  0
  4  9  1  0  0  0  0
  5  2  1  0  0  0  0
  6  5  2  0  0  0  0
  7  1  1  0  0  0  0
  8 14  1  0  0  0  0
  9  2  1  0  0  0  0
 10  8  3  0  0  0  0
 11  1  2  0  0  0  0
 12  4  2  0  0  0  0
 13  7  1  0  0  0  0
 14 15  1  0  0  0  0
 15 13  2  0  0  0  0
 16  5  1  0  0  0  0
 17  6  1  0  0  0  0
 18 19  2  0  0  0  0
 19 13  1  0  0  0  0
 20 14  2  0  0  0  0
 20 18  1  0  0  0  0
 21 16  2  0  0  0  0
 21 22  1  0  0  0  0
 22 17  2  0  0  0  0
M  END
> <CdId>
3744

> <Mol Weight>
290.316

> <Formula>
C18H14N2O2

> <Click_ID>
CLK049H03 __ __ 

$$$$
