CLK031_F10
 OpenBabel03181417022D

 34 36  0  0  0  0  0  0  0  0999 V2000
   -1.1649    2.3882    0.0000 C   0  0  0  0  0  0  0  0  0  0  0  0
    3.3737    3.0897    0.0000 S   0  0  0  0  0  0  0  0  0  0  0  0
   -0.3382    2.3799    0.0000 N   0  0  0  0  0  0  0  0  0  0  0  0
   -4.5928    3.2192    0.0000 S   0  0  0  0  0  0  0  0  0  0  0  0
   -1.6492    1.7244    0.0000 N   0  0  0  0  0  0  0  0  0  0  0  0
   -1.6492    3.0563    0.0000 S   0  0  0  0  0  0  0  0  0  0  0  0
   -2.4383    2.8016    0.0000 C   0  0  0  0  0  0  0  0  0  0  0  0
   -2.4383    1.9749    0.0000 C   0  0  0  0  0  0  0  0  0  0  0  0
    0.0752    3.0939    0.0000 C   0  0  0  0  0  0  0  0  0  0  0  0
   -3.8663    2.8016    0.0000 C   0  0  0  0  0  0  0  0  0  0  0  0
   -3.1523    3.2149    0.0000 C   0  0  0  0  0  0  0  0  0  0  0  0
    2.5595    3.0897    0.0000 C   0  0  0  0  0  0  0  0  0  0  0  0
    3.3737    2.2505    0.0000 N   0  0  0  0  0  0  0  0  0  0  0  0
   -1.9498    0.3215    0.0000 C   0  0  0  0  0  0  0  0  0  0  0  0
    4.2129    3.0772    0.0000 O   0  0  0  0  0  0  0  0  0  0  0  0
    3.3945    3.9039    0.0000 O   0  0  0  0  0  0  0  0  0  0  0  0
   -3.1523    1.5615    0.0000 C   0  0  0  0  0  0  0  0  0  0  0  0
   -2.5010   -0.2923    0.0000 C   0  0  0  0  0  0  0  0  0  0  0  0
   -5.0312    2.5135    0.0000 O   0  0  0  0  0  0  0  0  0  0  0  0
   -4.1544    3.9164    0.0000 O   0  0  0  0  0  0  0  0  0  0  0  0
    0.9019    3.0939    0.0000 C   0  0  0  0  0  0  0  0  0  0  0  0
   -5.2942    3.6534    0.0000 N   0  0  0  0  0  0  0  0  0  0  0  0
   -0.3382    3.8079    0.0000 O   0  0  0  0  0  0  0  0  0  0  0  0
   -3.8663    1.9749    0.0000 C   0  0  0  0  0  0  0  0  0  0  0  0
   -1.3987    0.9352    0.0000 C   0  0  0  0  0  0  0  0  0  0  0  0
    2.1461    2.3632    0.0000 C   0  0  0  0  0  0  0  0  0  0  0  0
    2.1336    3.8079    0.0000 C   0  0  0  0  0  0  0  0  0  0  0  0
    1.3069    2.3757    0.0000 C   0  0  0  0  0  0  0  0  0  0  0  0
    1.3152    3.8079    0.0000 C   0  0  0  0  0  0  0  0  0  0  0  0
    4.0960    1.8288    0.0000 C   0  0  0  0  0  0  0  0  0  0  0  0
    2.6597    1.8371    0.0000 C   0  0  0  0  0  0  0  0  0  0  0  0
    4.8142    2.2379    0.0000 C   0  0  0  0  0  0  0  0  0  0  0  0
    5.5281    1.8288    0.0000 C   0  0  0  0  0  0  0  0  0  0  0  0
    6.2421    2.2379    0.0000 C   0  0  0  0  0  0  0  0  0  0  0  0
  2 12  1  0  0  0  0
  3  1  2  0  0  0  0
  4 10  1  0  0  0  0
  5  1  1  0  0  0  0
  6  1  1  0  0  0  0
  7  6  1  0  0  0  0
  7  8  2  0  0  0  0
  8  5  1  0  0  0  0
  9  3  1  0  0  0  0
 10 11  2  0  0  0  0
 10 24  1  0  0  0  0
 11  7  1  0  0  0  0
 12 27  1  0  0  0  0
 13  2  1  0  0  0  0
 14 25  1  0  0  0  0
 15  2  2  0  0  0  0
 16  2  2  0  0  0  0
 17  8  1  0  0  0  0
 18 14  3  0  0  0  0
 19  4  2  0  0  0  0
 20  4  2  0  0  0  0
 21  9  1  0  0  0  0
 22  4  1  0  0  0  0
 23  9  2  0  0  0  0
 24 17  2  0  0  0  0
 25  5  1  0  0  0  0
 26 28  1  0  0  0  0
 26 12  2  0  0  0  0
 27 29  2  0  0  0  0
 28 21  2  0  0  0  0
 29 21  1  0  0  0  0
 30 13  1  0  0  0  0
 31 13  1  0  0  0  0
 32 30  1  0  0  0  0
 33 32  1  0  0  0  0
 34 33  1  0  0  0  0
M  END
> <CdId>
2384

> <Mol Weight>
520.645

> <Formula>
C22H24N4O5S3

> <Click_ID>
CLK031_F10 __ __ 

$$$$
