CLK032_A10
 OpenBabel03181417022D

 27 30  0  0  0  0  0  0  0  0999 V2000
   -1.8958    2.1583    0.0000 C   0  0  0  0  0  0  0  0  0  0  0  0
   -1.0708    2.1583    0.0000 N   0  0  0  0  0  0  0  0  0  0  0  0
   -2.3750    2.8208    0.0000 N   0  0  0  0  0  0  0  0  0  0  0  0
   -2.3750    1.4833    0.0000 S   0  0  0  0  0  0  0  0  0  0  0  0
    0.1667    1.4458    0.0000 C   0  0  0  0  0  0  0  0  0  0  0  0
   -3.1625    2.5583    0.0000 C   0  0  0  0  0  0  0  0  0  0  0  0
   -0.6583    1.4458    0.0000 C   0  0  0  0  0  0  0  0  0  0  0  0
    0.5792    2.1625    0.0000 C   0  0  0  0  0  0  0  0  0  0  0  0
   -3.1583    1.7333    0.0000 C   0  0  0  0  0  0  0  0  0  0  0  0
    0.5792    0.7458    0.0000 O   0  0  0  0  0  0  0  0  0  0  0  0
    1.4042    2.1625    0.0000 C   0  0  0  0  0  0  0  0  0  0  0  0
    1.8167    1.4458    0.0000 C   0  0  0  0  0  0  0  0  0  0  0  0
    1.4042    0.7458    0.0000 C   0  0  0  0  0  0  0  0  0  0  0  0
   -1.3208    3.7708    0.0000 C   0  0  0  0  0  0  0  0  0  0  0  0
   -0.5208    3.9458    0.0000 C   0  0  0  0  0  0  0  0  0  0  0  0
   -3.8750    2.9833    0.0000 C   0  0  0  0  0  0  0  0  0  0  0  0
   -1.0625    0.7250    0.0000 O   0  0  0  0  0  0  0  0  0  0  0  0
    1.8167    2.8958    0.0000 O   0  0  0  0  0  0  0  0  0  0  0  0
   -2.1250    3.6083    0.0000 C   0  0  0  0  0  0  0  0  0  0  0  0
   -3.8750    3.8000    0.0000 F   0  0  0  0  0  0  0  0  0  0  0  0
   -3.8750    1.3250    0.0000 C   0  0  0  0  0  0  0  0  0  0  0  0
    2.6417    1.4458    0.0000 C   0  0  0  0  0  0  0  0  0  0  0  0
    1.8167    0.0250    0.0000 C   0  0  0  0  0  0  0  0  0  0  0  0
   -4.5833    1.7333    0.0000 C   0  0  0  0  0  0  0  0  0  0  0  0
   -4.5833    2.5583    0.0000 C   0  0  0  0  0  0  0  0  0  0  0  0
    3.0542    0.7458    0.0000 C   0  0  0  0  0  0  0  0  0  0  0  0
    2.6417    0.0250    0.0000 C   0  0  0  0  0  0  0  0  0  0  0  0
  2  1  2  0  0  0  0
  3  1  1  0  0  0  0
  4  1  1  0  0  0  0
  5  7  1  0  0  0  0
  6  3  1  0  0  0  0
  7  2  1  0  0  0  0
  8  5  2  0  0  0  0
  9  4  1  0  0  0  0
  9  6  2  0  0  0  0
 10  5  1  0  0  0  0
 11  8  1  0  0  0  0
 11 12  1  0  0  0  0
 12 13  2  0  0  0  0
 13 10  1  0  0  0  0
 14 19  1  0  0  0  0
 15 14  3  0  0  0  0
 16  6  1  0  0  0  0
 17  7  2  0  0  0  0
 18 11  2  0  0  0  0
 19  3  1  0  0  0  0
 20 16  1  0  0  0  0
 21  9  1  0  0  0  0
 22 12  1  0  0  0  0
 23 13  1  0  0  0  0
 24 21  2  0  0  0  0
 24 25  1  0  0  0  0
 25 16  2  0  0  0  0
 26 27  1  0  0  0  0
 26 22  2  0  0  0  0
 27 23  2  0  0  0  0
M  END
> <CdId>
2414

> <Mol Weight>
378.376

> <Formula>
C20H11FN2O3S

> <Click_ID>
CLK032_A10 __ __ 

$$$$
