CLK046E05
 OpenBabel03181417022D

 19 20  0  0  0  0  0  0  0  0999 V2000
    0.9750    0.5250    0.0000 C    0  0  0  0  0  0  0  0  0  0  0  0
    0.2625    0.1125    0.0000 C    0  0  0  0  0  0  0  0  0  0  0  0
    1.6917    0.1125    0.0000 C    0  0  0  0  0  0  0  0  0  0  0  0
   -0.4542    0.5250    0.0000 N    0  0  0  0  0  0  0  0  0  0  0  0
   -1.8833   -1.9500    0.0000 C    0  0  0  0  0  0  0  0  0  0  0  0
    0.9750    1.3500    0.0000 C    0  0  0  0  0  0  0  0  0  0  0  0
   -1.8833   -2.7750    0.0000 C    0  0  0  0  0  0  0  0  0  0  0  0
    2.4042    0.5250    0.0000 C    0  0  0  0  0  0  0  0  0  0  0  0
    0.2625   -0.7125    0.0000 O    0  0  0  0  0  0  0  0  0  0  0  0
   -1.1667    0.1125    0.0000 C    0  0  0  0  0  0  0  0  0  0  0  0
    2.4042    1.3500    0.0000 C    0  0  0  0  0  0  0  0  0  0  0  0
   -1.8833   -1.1250    0.0000 C    0  0  0  0  0  0  0  0  0  0  0  0
    1.6917   -0.7125    0.0000 F    0  0  0  0  0  0  0  0  0  0  0  0
   -1.1667   -0.7125    0.0000 C    0  0  0  0  0  0  0  0  0  0  0  0
    1.6917    1.7625    0.0000 C    0  0  0  0  0  0  0  0  0  0  0  0
    3.1208    1.7625    0.0000 Cl   0  0  0  0  0  0  0  0  0  0  0  0
   -2.5958    0.1125    0.0000 C    0  0  0  0  0  0  0  0  0  0  0  0
   -1.8833    0.5250    0.0000 C    0  0  0  0  0  0  0  0  0  0  0  0
   -2.5958   -0.7125    0.0000 C    0  0  0  0  0  0  0  0  0  0  0  0
  2  1  1  0  0  0  0
  3  1  2  0  0  0  0
  4  2  1  0  0  0  0
  5 12  1  0  0  0  0
  6  1  1  0  0  0  0
  7  5  3  0  0  0  0
  8  3  1  0  0  0  0
  9  2  2  0  0  0  0
 10  4  1  0  0  0  0
 11  8  2  0  0  0  0
 12 14  1  0  0  0  0
 13  3  1  0  0  0  0
 14 10  2  0  0  0  0
 15  6  2  0  0  0  0
 15 11  1  0  0  0  0
 16 11  1  0  0  0  0
 17 18  2  0  0  0  0
 18 10  1  0  0  0  0
 19 12  2  0  0  0  0
 19 17  1  0  0  0  0
M  END
> <CdId>
3517

> <Mol Weight>
273.689

> <Formula>
C15H9ClFNO

> <Click_ID>
CLK046E05 __ __ 

$$$$
