CLK003_B11
 OpenBabel03181417022D

 29 31  0  0  0  0  0  0  0  0999 V2000
    0.3007    0.7196    0.0000 N   0  0  0  0  0  0  0  0  0  0  0  0
   -0.5237    0.7681    0.0000 C   0  0  3  0  0  0  0  0  0  0  0  0
    0.6653   -0.0233    0.0000 C   0  0  0  0  0  0  0  0  0  0  0  0
    0.7584    1.4082    0.0000 C   0  0  0  0  0  0  0  0  0  0  0  0
   -0.8884    1.5110    0.0000 C   0  0  0  0  0  0  0  0  0  0  0  0
   -0.9776    0.0814    0.0000 C   0  0  0  0  0  0  0  0  0  0  0  0
    1.4897   -0.0679    0.0000 C   0  0  0  0  0  0  0  0  0  0  0  0
    0.2114   -0.7002    0.0000 C   0  0  0  0  0  0  0  0  0  0  0  0
    1.5789    1.3578    0.0000 C   0  0  0  0  0  0  0  0  0  0  0  0
    0.3899    2.1472    0.0000 O   0  0  0  0  0  0  0  0  0  0  0  0
   -0.5062    2.2383    0.0000 C   0  0  0  0  0  0  0  0  0  0  0  0
   -1.7011    1.6487    0.0000 S   0  0  0  0  0  0  0  0  0  0  0  0
   -0.6130   -0.6498    0.0000 N   0  0  0  0  0  0  0  0  0  0  0  0
   -1.5556    0.1222    0.0000 O   0  0  0  0  0  0  0  0  0  0  0  0
    1.8582   -0.8030    0.0000 C   0  0  0  0  0  0  0  0  0  0  0  0
    1.9493    0.6168    0.0000 O   0  0  0  0  0  0  0  0  0  0  0  0
    0.5761   -1.4412    0.0000 C   0  0  0  0  0  0  0  0  0  0  0  0
    2.4052    1.3034    0.0000 C   0  0  0  0  0  0  0  0  0  0  0  0
   -1.0823    2.8299    0.0000 C   0  0  0  0  0  0  0  0  0  0  0  0
   -1.8233    2.4653    0.0000 C   0  0  0  0  0  0  0  0  0  0  0  0
   -1.0687   -1.3384    0.0000 C   0  0  0  0  0  0  0  0  0  0  0  0
    1.4005   -1.4916    0.0000 C   0  0  0  0  0  0  0  0  0  0  0  0
    2.7679    0.5625    0.0000 C   0  0  0  0  0  0  0  0  0  0  0  0
    0.1222   -2.1278    0.0000 O   0  0  0  0  0  0  0  0  0  0  0  0
   -1.8931   -1.3713    0.0000 C   0  0  0  0  0  0  0  0  0  0  0  0
   -0.7817   -2.1103    0.0000 C   0  0  0  0  0  0  0  0  0  0  0  0
    0.4868   -2.8668    0.0000 C   0  0  0  0  0  0  0  0  0  0  0  0
   -2.1142   -2.1647    0.0000 C   0  0  0  0  0  0  0  0  0  0  0  0
   -1.4314   -2.6224    0.0000 C   0  0  0  0  0  0  0  0  0  0  0  0
  1  2  1  0  0  0  0
  1  3  1  0  0  0  0
  1  4  1  0  0  0  0
  2  5  1  0  0  0  0
  2  6  1  0  0  0  0
  3  7  1  0  0  0  0
  3  8  2  0  0  0  0
  4  9  1  0  0  0  0
  4 10  2  0  0  0  0
  5 11  2  0  0  0  0
  5 12  1  0  0  0  0
  6 13  1  0  0  0  0
  6 14  2  0  0  0  0
  7 15  2  0  0  0  0
  7 16  1  0  0  0  0
  8 17  1  0  0  0  0
  9 18  3  0  0  0  0
 11 19  1  0  0  0  0
 12 20  1  0  0  0  0
 13 21  1  0  0  0  0
 15 22  1  0  0  0  0
 16 23  1  0  0  0  0
 17 24  1  0  0  0  0
 17 22  2  0  0  0  0
 19 20  2  0  0  0  0
 21 25  1  0  0  0  0
 21 26  1  0  0  0  0
 24 27  1  0  0  0  0
 25 28  1  0  0  0  0
 26 29  1  0  0  0  0
 28 29  1  0  0  0  0
M  END
> <CdId>
180

> <Mol Weight>
412.502

> <Formula>
C22H24N2O4S

> <Click_ID>
CLK003_B11 __ __ 

$$$$
