CLK049C10
 OpenBabel03181417022D

 17 18  0  0  0  0  0  0  0  0999 V2000
    1.1375   -0.1667    0.0000 C   0  0  0  0  0  0  0  0  0  0  0  0
    1.1375    0.6583    0.0000 C   0  0  0  0  0  0  0  0  0  0  0  0
    2.4083    0.2458    0.0000 N   0  0  0  0  0  0  0  0  0  0  0  0
    1.9208    0.9125    0.0000 N   0  0  0  0  0  0  0  0  0  0  0  0
    1.9208   -0.4208    0.0000 C   0  0  0  0  0  0  0  0  0  0  0  0
    0.4250    1.0708    0.0000 N   0  0  0  0  0  0  0  0  0  0  0  0
   -0.2917   -0.1667    0.0000 C   0  0  0  0  0  0  0  0  0  0  0  0
    0.4250   -0.5792    0.0000 C   0  0  0  0  0  0  0  0  0  0  0  0
   -1.0042   -0.5792    0.0000 C   0  0  0  0  0  0  0  0  0  0  0  0
   -3.1500   -0.1667    0.0000 C   0  0  0  0  0  0  0  0  0  0  0  0
   -0.2917    0.6583    0.0000 C   0  0  0  0  0  0  0  0  0  0  0  0
   -3.8625    0.2458    0.0000 C   0  0  0  0  0  0  0  0  0  0  0  0
   -1.0042   -1.4042    0.0000 O   0  0  0  0  0  0  0  0  0  0  0  0
   -1.7208   -0.1667    0.0000 N   0  0  0  0  0  0  0  0  0  0  0  0
    2.1792    1.6958    0.0000 C   0  0  0  0  0  0  0  0  0  0  0  0
   -2.4333   -0.5792    0.0000 C   0  0  0  0  0  0  0  0  0  0  0  0
    2.1792   -1.2083    0.0000 C   0  0  0  0  0  0  0  0  0  0  0  0
  2  1  2  0  0  0  0
  3  5  2  0  0  0  0
  4  2  1  0  0  0  0
  4  3  1  0  0  0  0
  5  1  1  0  0  0  0
  6  2  1  0  0  0  0
  7  8  2  0  0  0  0
  7 11  1  0  0  0  0
  8  1  1  0  0  0  0
  9  7  1  0  0  0  0
 10 16  1  0  0  0  0
 11  6  2  0  0  0  0
 12 10  3  0  0  0  0
 13  9  2  0  0  0  0
 14  9  1  0  0  0  0
 15  4  1  0  0  0  0
 16 14  1  0  0  0  0
 17  5  1  0  0  0  0
M  END
> <CdId>
3795

> <Mol Weight>
228.2499

> <Formula>
C12H12N4O

> <Click_ID>
CLK049C10 __ __ 

$$$$
