CLK001_G03
 OpenBabel03181417022D

 28 30  0  0  0  0  0  0  0  0999 V2000
    0.3073   -0.0784    0.0000 C   0  0  0  0  0  0  0  0  0  0  0  0
   -0.5331   -0.0784    0.0000 C   0  0  0  0  0  0  0  0  0  0  0  0
    0.7401    0.6492    0.0000 C   0  0  0  0  0  0  0  0  0  0  0  0
    0.7182   -0.7872    0.0000 C   0  0  0  0  0  0  0  0  0  0  0  0
   -0.9346   -0.7872    0.0000 C   0  0  0  0  0  0  0  0  0  0  0  0
    1.5806    0.6492    0.0000 N   0  0  0  0  0  0  0  0  0  0  0  0
    0.3199    1.3768    0.0000 O   0  0  0  0  0  0  0  0  0  0  0  0
    0.3073   -1.4991    0.0000 C   0  0  0  0  0  0  0  0  0  0  0  0
   -1.7720   -0.7872    0.0000 C   0  0  0  0  0  0  0  0  0  0  0  0
   -0.5331   -1.4991    0.0000 C   0  0  0  0  0  0  0  0  0  0  0  0
    1.9758   -0.0784    0.0000 C   0  0  0  0  0  0  0  0  0  0  0  0
   -2.1702   -0.0784    0.0000 N   0  0  0  0  0  0  0  0  0  0  0  0
   -2.1702   -1.4991    0.0000 O   0  0  0  0  0  0  0  0  0  0  0  0
    1.5806   -0.7872    0.0000 C   0  0  0  0  0  0  0  0  0  0  0  0
    2.8101   -0.0784    0.0000 C   0  0  0  0  0  0  0  0  0  0  0  0
   -1.7720    0.6336    0.0000 C   0  0  0  0  0  0  0  0  0  0  0  0
    1.9758   -1.4991    0.0000 C   0  0  0  0  0  0  0  0  0  0  0  0
    3.2177   -0.7872    0.0000 C   0  0  0  0  0  0  0  0  0  0  0  0
   -2.1702    1.3391    0.0000 C   0  0  0  0  0  0  0  0  0  0  0  0
   -0.9346    0.6336    0.0000 C   0  0  0  0  0  0  0  0  0  0  0  0
    2.8101   -1.4991    0.0000 C   0  0  0  0  0  0  0  0  0  0  0  0
    1.5587   -2.2267    0.0000 C   0  0  0  0  0  0  0  0  0  0  0  0
   -1.7720    2.0542    0.0000 C   0  0  0  0  0  0  0  0  0  0  0  0
   -0.5331    1.3391    0.0000 C   0  0  0  0  0  0  0  0  0  0  0  0
    1.1259   -2.9543    0.0000 C   0  0  0  0  0  0  0  0  0  0  0  0
   -0.9346    2.0542    0.0000 C   0  0  0  0  0  0  0  0  0  0  0  0
   -2.1921    2.7755    0.0000 C   0  0  0  0  0  0  0  0  0  0  0  0
   -2.6250    3.5031    0.0000 C   0  0  0  0  0  0  0  0  0  0  0  0
  1  2  1  0  0  0  0
  1  3  1  0  0  0  0
  1  4  2  0  0  0  0
  2  5  2  0  0  0  0
  3  6  1  0  0  0  0
  3  7  2  0  0  0  0
  4  8  1  0  0  0  0
  5  9  1  0  0  0  0
  5 10  1  0  0  0  0
  6 11  1  0  0  0  0
  8 10  2  0  0  0  0
  9 12  1  0  0  0  0
  9 13  2  0  0  0  0
 11 14  2  0  0  0  0
 11 15  1  0  0  0  0
 12 16  1  0  0  0  0
 14 17  1  0  0  0  0
 15 18  2  0  0  0  0
 16 19  1  0  0  0  0
 16 20  2  0  0  0  0
 17 21  2  0  0  0  0
 17 22  1  0  0  0  0
 18 21  1  0  0  0  0
 19 23  2  0  0  0  0
 20 24  1  0  0  0  0
 22 25  3  0  0  0  0
 23 26  1  0  0  0  0
 23 27  1  0  0  0  0
 24 26  2  0  0  0  0
 27 28  3  0  0  0  0
M  END
> <CdId>
62

> <Mol Weight>
364.396

> <Formula>
C24H16N2O2

> <Click_ID>
CLK001_G03 __ __ 

$$$$
