CLK004_E11
 OpenBabel03181417022D

 15 16  0  0  0  0  0  0  0  0999 V2000
   -0.1556    0.4857    0.0000 N   0  0  0  0  0  0  0  0  0  0  0  0
    0.0588   -0.3093    0.0000 C   0  0  0  0  0  0  0  0  0  0  0  0
   -0.9543    0.6962    0.0000 C   0  0  0  0  0  0  0  0  0  0  0  0
    0.2921    1.1781    0.0000 N   0  0  0  0  0  0  0  0  0  0  0  0
   -0.5217   -0.8935    0.0000 C   0  0  0  0  0  0  0  0  0  0  0  0
    0.8575   -0.5198    0.0000 N   0  0  0  0  0  0  0  0  0  0  0  0
   -1.5367    0.1119    0.0000 N   0  0  0  0  0  0  0  0  0  0  0  0
   -0.9998    1.5196    0.0000 N   0  0  0  0  0  0  0  0  0  0  0  0
   -0.2295    1.8174    0.0000 C   0  0  0  0  0  0  0  0  0  0  0  0
   -1.3204   -0.6830    0.0000 C   0  0  0  0  0  0  0  0  0  0  0  0
   -0.3055   -1.6923    0.0000 C   0  0  0  0  0  0  0  0  0  0  0  0
    1.4399    0.0645    0.0000 C   0  0  0  0  0  0  0  0  0  0  0  0
   -1.9010   -1.2673    0.0000 C   0  0  0  0  0  0  0  0  0  0  0  0
    2.2367   -0.1480    0.0000 C   0  0  0  0  0  0  0  0  0  0  0  0
    3.0354   -0.3585    0.0000 C   0  0  0  0  0  0  0  0  0  0  0  0
  1  2  1  0  0  0  0
  1  3  1  0  0  0  0
  1  4  1  0  0  0  0
  2  5  2  0  0  0  0
  2  6  1  0  0  0  0
  3  7  1  0  0  0  0
  3  8  2  0  0  0  0
  4  9  2  0  0  0  0
  5 10  1  0  0  0  0
  5 11  1  0  0  0  0
  6 12  1  0  0  0  0
  7 10  2  0  0  0  0
  8  9  1  0  0  0  0
 10 13  1  0  0  0  0
 12 14  1  0  0  0  0
 14 15  3  0  0  0  0
M  END
> <CdId>
290

> <Mol Weight>
201.2278

> <Formula>
C10H11N5

> <Click_ID>
CLK004_E11 __ __ 

$$$$
