CLK002_A03
 OpenBabel03181417022D

 15 16  0  0  0  0  0  0  0  0999 V2000
   -0.1966    0.1621    0.0000 C   0  0  0  0  0  0  0  0  0  0  0  0
   -0.1966    0.9930    0.0000 C   0  0  0  0  0  0  0  0  0  0  0  0
    0.5241   -0.2552    0.0000 N   0  0  0  0  0  0  0  0  0  0  0  0
   -0.9102   -0.2414    0.0000 C   0  0  0  0  0  0  0  0  0  0  0  0
    1.2482    0.9930    0.0000 C   0  0  0  0  0  0  0  0  0  0  0  0
   -0.9102    1.4068    0.0000 C   0  0  0  0  0  0  0  0  0  0  0  0
    1.2482    0.1621    0.0000 C   0  0  0  0  0  0  0  0  0  0  0  0
    0.5241   -1.0792    0.0000 C   0  0  0  0  0  0  0  0  0  0  0  0
   -1.6206    0.1690    0.0000 C   0  0  0  0  0  0  0  0  0  0  0  0
   -0.9102   -1.0689    0.0000 C   0  0  0  0  0  0  0  0  0  0  0  0
    1.9619    1.4102    0.0000 O   0  0  0  0  0  0  0  0  0  0  0  0
   -1.6206    0.9930    0.0000 C   0  0  0  0  0  0  0  0  0  0  0  0
    1.9619   -0.2517    0.0000 O   0  0  0  0  0  0  0  0  0  0  0  0
   -0.1897   -1.4930    0.0000 C   0  0  0  0  0  0  0  0  0  0  0  0
   -0.9102   -1.8998    0.0000 C   0  0  0  0  0  0  0  0  0  0  0  0
  1  2  1  0  0  0  0
  1  3  1  0  0  0  0
  1  4  2  0  0  0  0
  2  5  1  0  0  0  0
  2  6  2  0  0  0  0
  3  7  1  0  0  0  0
  3  8  1  0  0  0  0
  4  9  1  0  0  0  0
  4 10  1  0  0  0  0
  5 11  2  0  0  0  0
  5  7  1  0  0  0  0
  6 12  1  0  0  0  0
  7 13  2  0  0  0  0
  8 14  1  0  0  0  0
  9 12  2  0  0  0  0
 14 15  3  0  0  0  0
M  END
> <CdId>
82

> <Mol Weight>
199.2054

> <Formula>
C12H9NO2

> <Click_ID>
CLK002_A03 __ __ 

$$$$
