CLK007_C11
 OpenBabel03181417022D

 21 23  0  0  0  0  0  0  0  0999 V2000
    0.2847   -0.6449    0.0000 C   0  0  0  0  0  0  0  0  0  0  0  0
    0.6586    0.0961    0.0000 C   0  0  0  0  0  0  0  0  0  0  0  0
    0.6586   -1.3824    0.0000 N   0  0  0  0  0  0  0  0  0  0  0  0
   -0.5351   -0.7752    0.0000 S   0  0  0  0  0  0  0  0  0  0  0  0
    0.2127    0.7821    0.0000 C   0  0  0  0  0  0  0  0  0  0  0  0
    1.4784    0.1440    0.0000 C   0  0  0  0  0  0  0  0  0  0  0  0
    0.0652   -1.9689    0.0000 C   0  0  0  0  0  0  0  0  0  0  0  0
   -0.6689   -1.5916    0.0000 C   0  0  0  0  0  0  0  0  0  0  0  0
    0.5763    1.5264    0.0000 C   0  0  0  0  0  0  0  0  0  0  0  0
   -0.6071    0.7409    0.0000 O   0  0  0  0  0  0  0  0  0  0  0  0
    1.8488    0.8713    0.0000 C   0  0  0  0  0  0  0  0  0  0  0  0
    0.1132   -2.7886    0.0000 C   0  0  0  0  0  0  0  0  0  0  0  0
   -1.3549   -2.0307    0.0000 C   0  0  0  0  0  0  0  0  0  0  0  0
    1.4064    1.5676    0.0000 C   0  0  0  0  0  0  0  0  0  0  0  0
    0.1372    2.2021    0.0000 O   0  0  0  0  0  0  0  0  0  0  0  0
   -1.0565    1.4269    0.0000 C   0  0  0  0  0  0  0  0  0  0  0  0
   -0.5797   -3.2381    0.0000 C   0  0  0  0  0  0  0  0  0  0  0  0
   -1.3171   -2.8641    0.0000 C   0  0  0  0  0  0  0  0  0  0  0  0
    0.5008    2.9259    0.0000 C   0  0  0  0  0  0  0  0  0  0  0  0
   -0.6826    2.1610    0.0000 C   0  0  0  0  0  0  0  0  0  0  0  0
   -1.1319    2.8402    0.0000 C   0  0  0  0  0  0  0  0  0  0  0  0
  1  2  1  0  0  0  0
  1  3  2  0  0  0  0
  1  4  1  0  0  0  0
  2  5  1  0  0  0  0
  2  6  2  0  0  0  0
  3  7  1  0  0  0  0
  4  8  1  0  0  0  0
  5  9  2  0  0  0  0
  5 10  1  0  0  0  0
  6 11  1  0  0  0  0
  7 12  1  0  0  0  0
  7  8  2  0  0  0  0
  8 13  1  0  0  0  0
  9 14  1  0  0  0  0
  9 15  1  0  0  0  0
 10 16  1  0  0  0  0
 11 14  2  0  0  0  0
 12 17  2  0  0  0  0
 13 18  2  0  0  0  0
 15 19  1  0  0  0  0
 16 20  1  0  0  0  0
 17 18  1  0  0  0  0
 20 21  3  0  0  0  0
M  END
> <CdId>
510

> <Mol Weight>
295.356

> <Formula>
C17H13NO2S

> <Click_ID>
CLK007_C11 __ __ 

$$$$
