CLK016_A05
 OpenBabel03181417022D

 18 19  0  0  0  0  0  0  0  0999 V2000
    1.5650   -0.8158    0.0000 N   0  0  0  0  0  0  0  0  0  0  0  0
    1.8230   -1.6024    0.0000 C   0  0  0  0  0  0  0  0  0  0  0  0
    2.2350   -0.3288    0.0000 C   0  0  0  0  0  0  0  0  0  0  0  0
    2.9010   -0.8158    0.0000 C   0  0  0  0  0  0  0  0  0  0  0  0
    2.6470   -1.6024    0.0000 S   0  0  0  0  0  0  0  0  0  0  0  0
    3.6876   -0.5619    0.0000 C   0  0  0  0  0  0  0  0  0  0  0  0
    0.6118    0.2455    0.0000 C   0  0  0  0  0  0  0  0  0  0  0  0
    0.3913    1.0446    0.0000 C   0  0  0  0  0  0  0  0  0  0  0  0
    1.3360   -2.2642    0.0000 O   0  0  0  0  0  0  0  0  0  0  0  0
    2.2267    0.4952    0.0000 O   0  0  0  0  0  0  0  0  0  0  0  0
    0.7866   -0.5619    0.0000 C   0  0  0  0  0  0  0  0  0  0  0  0
    3.8624    0.2455    0.0000 C   0  0  0  0  0  0  0  0  0  0  0  0
    3.2506    0.7949    0.0000 C   0  0  0  0  0  0  0  0  0  0  0  0
    3.4254    1.6065    0.0000 C   0  0  0  0  0  0  0  0  0  0  0  0
    2.8136    2.1559    0.0000 F   0  0  0  0  0  0  0  0  0  0  0  0
    4.8113    1.2986    0.0000 C   0  0  0  0  0  0  0  0  0  0  0  0
    4.6365    0.4952    0.0000 C   0  0  0  0  0  0  0  0  0  0  0  0
    4.2078    1.8479    0.0000 C   0  0  0  0  0  0  0  0  0  0  0  0
  2  1  1  0  0  0  0
  3  1  1  0  0  0  0
  4  3  1  0  0  0  0
  4  5  1  0  0  0  0
  5  2  1  0  0  0  0
  6  4  2  0  0  0  0
  7 11  1  0  0  0  0
  8  7  3  0  0  0  0
  9  2  2  0  0  0  0
 10  3  2  0  0  0  0
 11  1  1  0  0  0  0
 12  6  1  0  0  0  0
 13 12  2  0  0  0  0
 14 13  1  0  0  0  0
 14 18  2  0  0  0  0
 15 14  1  0  0  0  0
 16 17  2  0  0  0  0
 17 12  1  0  0  0  0
 18 16  1  0  0  0  0
M  END
> <CdId>
1160

> <Mol Weight>
261.272

> <Formula>
C13H8FNO2S

> <Click_ID>
CLK016_A05 __ __ 

$$$$
