CLK044E07
 OpenBabel03181417022D

 15 15  0  0  0  0  0  0  0  0999 V2000
    0.2375    0.3042    0.0000 C   0  0  0  0  0  0  0  0  0  0  0  0
   -0.4792   -0.1083    0.0000 C   0  0  0  0  0  0  0  0  0  0  0  0
    0.9500   -0.1083    0.0000 C   0  0  0  0  0  0  0  0  0  0  0  0
   -2.6208    0.3042    0.0000 C   0  0  0  0  0  0  0  0  0  0  0  0
   -3.3375    0.7167    0.0000 C   0  0  0  0  0  0  0  0  0  0  0  0
    1.6667    0.3042    0.0000 N   0  0  0  0  0  0  0  0  0  0  0  0
   -0.4792   -0.9333    0.0000 O   0  0  0  0  0  0  0  0  0  0  0  0
   -1.1917    0.3042    0.0000 N   0  0  0  0  0  0  0  0  0  0  0  0
    0.9500   -0.9333    0.0000 O   0  0  0  0  0  0  0  0  0  0  0  0
   -1.9083   -0.1083    0.0000 C   0  0  0  0  0  0  0  0  0  0  0  0
    0.2375    1.1292    0.0000 C   0  0  0  0  0  0  0  0  0  0  0  0
    1.6667    1.1292    0.0000 C   0  0  0  0  0  0  0  0  0  0  0  0
    1.6667   -1.3458    0.0000 C   0  0  0  0  0  0  0  0  0  0  0  0
    0.9500    1.5417    0.0000 C   0  0  0  0  0  0  0  0  0  0  0  0
    1.6667   -2.1708    0.0000 C   0  0  0  0  0  0  0  0  0  0  0  0
  2  1  1  0  0  0  0
  3  1  2  0  0  0  0
  4 10  1  0  0  0  0
  5  4  3  0  0  0  0
  6  3  1  0  0  0  0
  7  2  2  0  0  0  0
  8  2  1  0  0  0  0
  9  3  1  0  0  0  0
 10  8  1  0  0  0  0
 11  1  1  0  0  0  0
 12  6  2  0  0  0  0
 13  9  1  0  0  0  0
 14 11  2  0  0  0  0
 14 12  1  0  0  0  0
 15 13  1  0  0  0  0
M  END
> <CdId>
3373

> <Mol Weight>
204.2252

> <Formula>
C11H12N2O2

> <Click_ID>
CLK044E07 __ __ 

$$$$
