CLK028_E10
 OpenBabel03181417022D

 23 25  0  0  0  0  0  0  0  0999 V2000
    0.3407   -0.0138    0.0000 C   0  0  0  0  0  0  0  0  0  0  0  0
   -0.3785    0.4061    0.0000 C   0  0  0  0  0  0  0  0  0  0  0  0
    0.3407   -0.8293    0.0000 C   0  0  0  0  0  0  0  0  0  0  0  0
   -0.3785   -1.2491    0.0000 N   0  0  0  0  0  0  0  0  0  0  0  0
   -1.0908   -0.8293    0.0000 C   0  0  0  0  0  0  0  0  0  0  0  0
   -1.0908   -0.0138    0.0000 C   0  0  0  0  0  0  0  0  0  0  0  0
   -0.3578    1.2216    0.0000 C   0  0  0  0  0  0  0  0  0  0  0  0
    1.0804    0.4061    0.0000 C   0  0  0  0  0  0  0  0  0  0  0  0
    1.7962    0.8327    0.0000 N   0  0  0  0  0  0  0  0  0  0  0  0
   -1.0116    1.7411    0.0000 S   0  0  0  0  0  0  0  0  0  0  0  0
    2.4913   -1.3385    0.0000 C   0  0  0  0  0  0  0  0  0  0  0  0
    3.2207   -0.9497    0.0000 C   0  0  0  0  0  0  0  0  0  0  0  0
    0.3200    1.6826    0.0000 C   0  0  0  0  0  0  0  0  0  0  0  0
   -0.7261    2.4981    0.0000 C   0  0  0  0  0  0  0  0  0  0  0  0
   -1.7893   -1.2491    0.0000 C   0  0  0  0  0  0  0  0  0  0  0  0
    1.0804   -1.2869    0.0000 S   0  0  0  0  0  0  0  0  0  0  0  0
    0.0757    2.4706    0.0000 C   0  0  0  0  0  0  0  0  0  0  0  0
    1.7962   -0.9049    0.0000 C   0  0  0  0  0  0  0  0  0  0  0  0
   -2.5050   -0.8293    0.0000 C   0  0  0  0  0  0  0  0  0  0  0  0
   -1.7893   -2.0646    0.0000 C   0  0  0  0  0  0  0  0  0  0  0  0
   -2.5050   -2.4947    0.0000 C   0  0  0  0  0  0  0  0  0  0  0  0
   -3.2242   -1.2491    0.0000 C   0  0  0  0  0  0  0  0  0  0  0  0
   -3.2242   -2.0646    0.0000 C   0  0  0  0  0  0  0  0  0  0  0  0
  2  1  2  0  0  0  0
  3  1  1  0  0  0  0
  4  3  2  0  0  0  0
  5  4  1  0  0  0  0
  5  6  2  0  0  0  0
  6  2  1  0  0  0  0
  7  2  1  0  0  0  0
  8  1  1  0  0  0  0
  9  8  3  0  0  0  0
 10  7  1  0  0  0  0
 11 18  1  0  0  0  0
 12 11  3  0  0  0  0
 13  7  2  0  0  0  0
 14 10  1  0  0  0  0
 15  5  1  0  0  0  0
 16  3  1  0  0  0  0
 17 13  1  0  0  0  0
 17 14  2  0  0  0  0
 18 16  1  0  0  0  0
 19 15  2  0  0  0  0
 20 15  1  0  0  0  0
 21 20  2  0  0  0  0
 22 19  1  0  0  0  0
 23 21  1  0  0  0  0
 23 22  2  0  0  0  0
M  END
> <CdId>
2134

> <Mol Weight>
332.442

> <Formula>
C19H12N2S2

> <Click_ID>
CLK028_E10 __ __ 

$$$$
