CLK005_C03
 OpenBabel03181417022D

 17 19  0  0  0  0  0  0  0  0999 V2000
   -0.1583    1.0053    0.0000 N   0  0  0  0  0  0  0  0  0  0  0  0
    0.2513    0.2961    0.0000 C   0  0  0  0  0  0  0  0  0  0  0  0
   -0.9915    1.0190    0.0000 C   0  0  0  0  0  0  0  0  0  0  0  0
    0.0929    1.7937    0.0000 N   0  0  0  0  0  0  0  0  0  0  0  0
   -0.1721   -0.4165    0.0000 C   0  0  0  0  0  0  0  0  0  0  0  0
    1.0775    0.2961    0.0000 N   0  0  0  0  0  0  0  0  0  0  0  0
   -1.4080    0.3064    0.0000 N   0  0  0  0  0  0  0  0  0  0  0  0
   -1.2428    1.7937    0.0000 N   0  0  0  0  0  0  0  0  0  0  0  0
   -0.5715    2.2791    0.0000 N   0  0  0  0  0  0  0  0  0  0  0  0
   -1.0053   -0.4165    0.0000 C   0  0  0  0  0  0  0  0  0  0  0  0
    0.2306   -1.1360    0.0000 C   0  0  0  0  0  0  0  0  0  0  0  0
    1.4804   -0.4269    0.0000 C   0  0  0  0  0  0  0  0  0  0  0  0
   -1.4149   -1.1258    0.0000 C   0  0  0  0  0  0  0  0  0  0  0  0
   -0.1790   -1.8453    0.0000 C   0  0  0  0  0  0  0  0  0  0  0  0
    2.3031   -0.4269    0.0000 C   0  0  0  0  0  0  0  0  0  0  0  0
   -1.0053   -1.8384    0.0000 C   0  0  0  0  0  0  0  0  0  0  0  0
    2.7094   -1.1533    0.0000 C   0  0  0  0  0  0  0  0  0  0  0  0
  1  2  1  0  0  0  0
  1  3  1  0  0  0  0
  1  4  1  0  0  0  0
  2  5  2  0  0  0  0
  2  6  1  0  0  0  0
  3  7  1  0  0  0  0
  3  8  2  0  0  0  0
  4  9  2  0  0  0  0
  5 10  1  0  0  0  0
  5 11  1  0  0  0  0
  6 12  1  0  0  0  0
  7 10  2  0  0  0  0
  8  9  1  0  0  0  0
 10 13  1  0  0  0  0
 11 14  1  0  0  0  0
 12 15  1  0  0  0  0
 13 16  1  0  0  0  0
 14 16  1  0  0  0  0
 15 17  3  0  0  0  0
M  END
> <CdId>
342

> <Mol Weight>
228.2532

> <Formula>
C11H12N6

> <Click_ID>
CLK005_C03 __ __ 

$$$$
