CLK011_G07
 OpenBabel03181417022D

 27 29  0  0  0  0  0  0  0  0999 V2000
    2.4095   -1.4338    0.0000 N   0  0  0  0  0  0  0  0  0  0  0  0
    1.6949   -1.0216    0.0000 C   0  0  0  0  0  0  0  0  0  0  0  0
    3.1241   -1.0216    0.0000 C   0  0  0  0  0  0  0  0  0  0  0  0
    1.6949   -0.1970    0.0000 C   0  0  0  0  0  0  0  0  0  0  0  0
    3.1241   -0.1970    0.0000 N   0  0  0  0  0  0  0  0  0  0  0  0
    2.4095    0.2153    0.0000 C   0  0  0  0  0  0  0  0  0  0  0  0
    2.4095   -2.2584    0.0000 C   0  0  0  0  0  0  0  0  0  0  0  0
    0.9895    0.2153    0.0000 C   0  0  0  0  0  0  0  0  0  0  0  0
   -2.5836   -2.6706    0.0000 C   0  0  0  0  0  0  0  0  0  0  0  0
    3.8387   -1.4338    0.0000 O   0  0  0  0  0  0  0  0  0  0  0  0
    0.9895   -1.4338    0.0000 O   0  0  0  0  0  0  0  0  0  0  0  0
   -2.5836   -3.4952    0.0000 C   0  0  0  0  0  0  0  0  0  0  0  0
    2.4095    1.0398    0.0000 O   0  0  0  0  0  0  0  0  0  0  0  0
    3.1241   -2.6706    0.0000 C   0  0  0  0  0  0  0  0  0  0  0  0
    0.2748   -0.1970    0.0000 C   0  0  0  0  0  0  0  0  0  0  0  0
    3.8387   -2.2584    0.0000 F   0  0  0  0  0  0  0  0  0  0  0  0
   -1.1544   -1.0216    0.0000 C   0  0  0  0  0  0  0  0  0  0  0  0
   -0.4398    0.2153    0.0000 C   0  0  0  0  0  0  0  0  0  0  0  0
    0.2748   -1.0216    0.0000 C   0  0  0  0  0  0  0  0  0  0  0  0
   -1.1544   -0.1970    0.0000 C   0  0  0  0  0  0  0  0  0  0  0  0
   -0.4398   -1.4338    0.0000 C   0  0  0  0  0  0  0  0  0  0  0  0
   -1.8690   -2.2584    0.0000 C   0  0  0  0  0  0  0  0  0  0  0  0
    1.6949   -2.6706    0.0000 C   0  0  0  0  0  0  0  0  0  0  0  0
   -1.8690   -1.4338    0.0000 O   0  0  0  0  0  0  0  0  0  0  0  0
    3.1241   -3.4952    0.0000 C   0  0  0  0  0  0  0  0  0  0  0  0
    1.6949   -3.4952    0.0000 C   0  0  0  0  0  0  0  0  0  0  0  0
    2.4095   -3.9074    0.0000 C   0  0  0  0  0  0  0  0  0  0  0  0
  2  1  1  0  0  0  0
  3  1  1  0  0  0  0
  4  2  1  0  0  0  0
  5  3  1  0  0  0  0
  6  5  1  0  0  0  0
  6  4  1  0  0  0  0
  7  1  1  0  0  0  0
  8  4  2  0  0  0  0
  9 22  1  0  0  0  0
 10  3  2  0  0  0  0
 11  2  2  0  0  0  0
 12  9  3  0  0  0  0
 13  6  2  0  0  0  0
 14  7  2  0  0  0  0
 15  8  1  0  0  0  0
 16 14  1  0  0  0  0
 17 21  2  0  0  0  0
 18 15  1  0  0  0  0
 19 15  2  0  0  0  0
 20 18  2  0  0  0  0
 20 17  1  0  0  0  0
 21 19  1  0  0  0  0
 22 24  1  0  0  0  0
 23  7  1  0  0  0  0
 24 17  1  0  0  0  0
 25 14  1  0  0  0  0
 25 27  2  0  0  0  0
 26 23  2  0  0  0  0
 27 26  1  0  0  0  0
M  END
> <CdId>
822

> <Mol Weight>
364.3266

> <Formula>
C20H13FN2O4

> <Click_ID>
CLK011_G07 __ __ 

$$$$
