CLK018_D02
 OpenBabel03181417022D

 26 28  0  0  0  0  0  0  0  0999 V2000
   -0.5389   -4.8622    0.0000 C   0  0  0  0  0  0  0  0  0  0  0  0
    0.7762   -4.5767    0.0000 N   0  0  0  0  0  0  0  0  0  0  0  0
    0.2092   -5.1920    0.0000 C   0  0  0  0  0  0  0  0  0  0  0  0
   -0.4424   -4.0217    0.0000 C   0  0  0  0  0  0  0  0  0  0  0  0
    0.3660   -3.8528    0.0000 O   0  0  0  0  0  0  0  0  0  0  0  0
   -1.2548   -5.2765    0.0000 C   0  0  0  0  0  0  0  0  0  0  0  0
   -5.4011   -3.6598    0.0000 C   0  0  0  0  0  0  0  0  0  0  0  0
   -6.0929   -3.2496    0.0000 C   0  0  0  0  0  0  0  0  0  0  0  0
   -3.3500   -4.8863    0.0000 C   0  0  0  0  0  0  0  0  0  0  0  0
   -1.9425   -4.8743    0.0000 C   0  0  0  0  0  0  0  0  0  0  0  0
    0.3861   -6.0084    0.0000 C   0  0  0  0  0  0  0  0  0  0  0  0
   -2.6422   -5.2966    0.0000 C   0  0  0  0  0  0  0  0  0  0  0  0
   -3.3259   -4.0659    0.0000 C   0  0  0  0  0  0  0  0  0  0  0  0
   -1.0577   -3.4627    0.0000 O   0  0  0  0  0  0  0  0  0  0  0  0
   -2.6181   -3.6436    0.0000 C   0  0  0  0  0  0  0  0  0  0  0  0
   -1.9264   -4.0579    0.0000 C   0  0  0  0  0  0  0  0  0  0  0  0
   -4.0619   -5.3006    0.0000 O   0  0  0  0  0  0  0  0  0  0  0  0
   -4.0136   -3.6477    0.0000 O   0  0  0  0  0  0  0  0  0  0  0  0
   -4.7254   -4.0579    0.0000 C   0  0  0  0  0  0  0  0  0  0  0  0
   -0.2372   -6.5554    0.0000 C   0  0  0  0  0  0  0  0  0  0  0  0
    1.1744   -6.2618    0.0000 C   0  0  0  0  0  0  0  0  0  0  0  0
   -4.0739   -6.1210    0.0000 C   0  0  0  0  0  0  0  0  0  0  0  0
   -4.7858   -6.5433    0.0000 C   0  0  0  0  0  0  0  0  0  0  0  0
    1.3433   -7.0742    0.0000 C   0  0  0  0  0  0  0  0  0  0  0  0
   -0.0683   -7.3717    0.0000 C   0  0  0  0  0  0  0  0  0  0  0  0
    0.7239   -7.6292    0.0000 C   0  0  0  0  0  0  0  0  0  0  0  0
  2  3  2  0  0  0  0
  3  1  1  0  0  0  0
  4  1  1  0  0  0  0
  5  4  1  0  0  0  0
  5  2  1  0  0  0  0
  6  1  2  0  0  0  0
  7 19  1  0  0  0  0
  8  7  3  0  0  0  0
  9 12  1  0  0  0  0
  9 13  2  0  0  0  0
 10  6  1  0  0  0  0
 11  3  1  0  0  0  0
 12 10  2  0  0  0  0
 13 15  1  0  0  0  0
 14  4  2  0  0  0  0
 15 16  2  0  0  0  0
 16 10  1  0  0  0  0
 17  9  1  0  0  0  0
 18 13  1  0  0  0  0
 19 18  1  0  0  0  0
 20 11  2  0  0  0  0
 21 11  1  0  0  0  0
 22 17  1  0  0  0  0
 23 22  1  0  0  0  0
 24 21  2  0  0  0  0
 25 20  1  0  0  0  0
 26 24  1  0  0  0  0
 26 25  2  0  0  0  0
M  END
> <CdId>
1347

> <Mol Weight>
347.364

> <Formula>
C21H17NO4

> <Click_ID>
CLK018_D02 __ __ 

$$$$
