CLK051H02
 OpenBabel03181417022D

 16 16  0  0  0  0  0  0  0  0999 V2000
    0.0875    0.4667    0.0000 C   0  0  0  0  0  0  0  0  0  0  0  0
   -0.6292    0.0542    0.0000 C   0  0  0  0  0  0  0  0  0  0  0  0
   -2.7708    0.4667    0.0000 C   0  0  0  0  0  0  0  0  0  0  0  0
   -3.4833    0.8792    0.0000 C   0  0  0  0  0  0  0  0  0  0  0  0
    0.8000    0.0542    0.0000 C   0  0  0  0  0  0  0  0  0  0  0  0
   -0.6292   -0.7708    0.0000 O   0  0  0  0  0  0  0  0  0  0  0  0
   -1.3417    0.4667    0.0000 N   0  0  0  0  0  0  0  0  0  0  0  0
    1.5167   -2.0083    0.0000 C   0  0  0  0  0  0  0  0  0  0  0  0
    2.2292   -2.4208    0.0000 C   0  0  0  0  0  0  0  0  0  0  0  0
   -2.0542    0.0542    0.0000 C   0  0  0  0  0  0  0  0  0  0  0  0
    0.0875    1.2917    0.0000 C   0  0  0  0  0  0  0  0  0  0  0  0
    0.8000   -0.7708    0.0000 O   0  0  0  0  0  0  0  0  0  0  0  0
    1.5167   -1.1833    0.0000 C   0  0  0  0  0  0  0  0  0  0  0  0
    1.5167    0.4667    0.0000 C   0  0  0  0  0  0  0  0  0  0  0  0
    0.8000    1.7042    0.0000 C   0  0  0  0  0  0  0  0  0  0  0  0
    1.5167    1.2917    0.0000 C   0  0  0  0  0  0  0  0  0  0  0  0
  2  1  1  0  0  0  0
  3 10  1  0  0  0  0
  4  3  3  0  0  0  0
  5  1  2  0  0  0  0
  6  2  2  0  0  0  0
  7  2  1  0  0  0  0
  8 13  1  0  0  0  0
  9  8  2  0  0  0  0
 10  7  1  0  0  0  0
 11  1  1  0  0  0  0
 12  5  1  0  0  0  0
 13 12  1  0  0  0  0
 14  5  1  0  0  0  0
 15 11  2  0  0  0  0
 15 16  1  0  0  0  0
 16 14  2  0  0  0  0
M  END
> <CdId>
3896

> <Mol Weight>
215.2478

> <Formula>
C13H13NO2

> <Click_ID>
CLK051H02 __ __ 

$$$$
