CLK045F06
 OpenBabel03181417022D

 24 26  0  0  0  0  0  0  0  0999 V2000
   -1.8213   -0.3834    0.0000 C    0  0  0  0  0  0  0  0  0  0  0  0
   -1.0336   -0.1292    0.0000 N    0  0  0  0  0  0  0  0  0  0  0  0
   -2.0756   -1.1670    0.0000 C    0  0  0  0  0  0  0  0  0  0  0  0
   -2.3049    0.2834    0.0000 S    0  0  0  0  0  0  0  0  0  0  0  0
   -1.0336    0.6960    0.0000 C    0  0  0  0  0  0  0  0  0  0  0  0
    0.3876    0.8460    0.0000 C    0  0  0  0  0  0  0  0  0  0  0  0
   -0.3668    1.1795    0.0000 C    0  0  0  0  0  0  0  0  0  0  0  0
   -1.8213    0.9503    0.0000 C    0  0  0  0  0  0  0  0  0  0  0  0
    3.8969    1.6297    0.0000 C    0  0  0  0  0  0  0  0  0  0  0  0
    4.5638    2.1131    0.0000 C    0  0  0  0  0  0  0  0  0  0  0  0
    1.0545    1.3296    0.0000 N    0  0  0  0  0  0  0  0  0  0  0  0
   -2.8841   -1.3421    0.0000 C    0  0  0  0  0  0  0  0  0  0  0  0
    0.4709    0.0250    0.0000 O    0  0  0  0  0  0  0  0  0  0  0  0
    1.8088    0.9961    0.0000 C    0  0  0  0  0  0  0  0  0  0  0  0
    3.2301    1.1461    0.0000 C    0  0  0  0  0  0  0  0  0  0  0  0
    2.4757    1.4796    0.0000 C    0  0  0  0  0  0  0  0  0  0  0  0
   -3.4343   -0.7252    0.0000 Cl   0  0  0  0  0  0  0  0  0  0  0  0
   -1.5212   -1.7838    0.0000 C    0  0  0  0  0  0  0  0  0  0  0  0
    2.6466   -0.1625    0.0000 C    0  0  0  0  0  0  0  0  0  0  0  0
    1.8922    0.1751    0.0000 C    0  0  0  0  0  0  0  0  0  0  0  0
   -3.1384   -2.1256    0.0000 C    0  0  0  0  0  0  0  0  0  0  0  0
    3.3177    0.3251    0.0000 C    0  0  0  0  0  0  0  0  0  0  0  0
   -1.7797   -2.5674    0.0000 C    0  0  0  0  0  0  0  0  0  0  0  0
   -2.5841   -2.7383    0.0000 C    0  0  0  0  0  0  0  0  0  0  0  0
  2  1  2  0  0  0  0
  3  1  1  0  0  0  0
  4  1  1  0  0  0  0
  5  2  1  0  0  0  0
  6  7  1  0  0  0  0
  7  5  1  0  0  0  0
  8  4  1  0  0  0  0
  8  5  2  0  0  0  0
  9 15  1  0  0  0  0
 10  9  3  0  0  0  0
 11  6  1  0  0  0  0
 12  3  2  0  0  0  0
 13  6  2  0  0  0  0
 14 11  1  0  0  0  0
 15 16  1  0  0  0  0
 16 14  2  0  0  0  0
 17 12  1  0  0  0  0
 18  3  1  0  0  0  0
 19 20  2  0  0  0  0
 20 14  1  0  0  0  0
 21 12  1  0  0  0  0
 22 15  2  0  0  0  0
 22 19  1  0  0  0  0
 23 18  2  0  0  0  0
 23 24  1  0  0  0  0
 24 21  2  0  0  0  0
M  END
> <CdId>
3446

> <Mol Weight>
352.837

> <Formula>
C19H13ClN2OS

> <Click_ID>
CLK045F06 __ __ 

$$$$
