CLK041D09
 OpenBabel03181417022D

 24 25  0  0  0  0  0  0  0  0999 V2000
    0.1127    2.0535    0.0000 C   0  0  0  0  0  0  0  0  0  0  0  0
   -0.3714    1.3857    0.0000 N   0  0  0  0  0  0  0  0  0  0  0  0
   -0.1419    2.8382    0.0000 C   0  0  0  0  0  0  0  0  0  0  0  0
    0.9016    1.7989    0.0000 N   0  0  0  0  0  0  0  0  0  0  0  0
    0.1127    0.7137    0.0000 C   0  0  0  0  0  0  0  0  0  0  0  0
    0.9016    0.9725    0.0000 N   0  0  0  0  0  0  0  0  0  0  0  0
   -0.9266    3.0928    0.0000 C   0  0  0  0  0  0  0  0  0  0  0  0
    0.1961   -3.6563    0.0000 C   0  0  0  0  0  0  0  0  0  0  0  0
   -0.1419   -0.0709    0.0000 S   0  0  0  0  0  0  0  0  0  0  0  0
    0.3423    3.5060    0.0000 C   0  0  0  0  0  0  0  0  0  0  0  0
   -0.0584   -4.4409    0.0000 C   0  0  0  0  0  0  0  0  0  0  0  0
   -0.9266    3.9193    0.0000 O   0  0  0  0  0  0  0  0  0  0  0  0
    0.1545   -1.4692    0.0000 C   0  0  0  0  0  0  0  0  0  0  0  0
    0.7095   -2.0828    0.0000 N   0  0  0  0  0  0  0  0  0  0  0  0
   -0.1419    4.1739    0.0000 C   0  0  0  0  0  0  0  0  0  0  0  0
    0.4550   -2.8716    0.0000 C   0  0  0  0  0  0  0  0  0  0  0  0
   -0.6511   -1.6403    0.0000 O   0  0  0  0  0  0  0  0  0  0  0  0
    0.4090   -0.6845    0.0000 C   0  0  0  0  0  0  0  0  0  0  0  0
   -1.1979    1.3857    0.0000 C   0  0  0  0  0  0  0  0  0  0  0  0
   -1.5986    2.6087    0.0000 C   0  0  0  0  0  0  0  0  0  0  0  0
   -0.3339   -2.6170    0.0000 C   0  0  0  0  0  0  0  0  0  0  0  0
    1.2396   -3.1262    0.0000 C   0  0  0  0  0  0  0  0  0  0  0  0
   -0.5051   -1.8073    0.0000 C   0  0  0  0  0  0  0  0  0  0  0  0
    1.4107   -3.9360    0.0000 C   0  0  0  0  0  0  0  0  0  0  0  0
  2  1  1  0  0  0  0
  3  1  1  0  0  0  0
  4  1  2  0  0  0  0
  5  2  1  0  0  0  0
  6  4  1  0  0  0  0
  6  5  2  0  0  0  0
  7  3  2  0  0  0  0
  8 16  1  0  0  0  0
  9  5  1  0  0  0  0
 10  3  1  0  0  0  0
 11  8  3  0  0  0  0
 12  7  1  0  0  0  0
 12 15  1  0  0  0  0
 13 18  1  0  0  0  0
 14 13  1  0  0  0  0
 15 10  2  0  0  0  0
 16 14  1  0  0  0  0
 17 13  2  0  0  0  0
 18  9  1  0  0  0  0
 19  2  1  0  0  0  0
 20  7  1  0  0  0  0
 21 16  1  0  0  0  0
 22 16  1  0  0  0  0
 23 21  1  0  0  0  0
 24 22  1  0  0  0  0
M  END
> <CdId>
3148

> <Mol Weight>
346.447

> <Formula>
C17H22N4O2S

> <Click_ID>
CLK041D09 __ __ 

$$$$
