CLK002_A02
 OpenBabel03181417022D

 26 29  0  0  0  0  0  0  0  0999 V2000
   -0.9160   -0.8392    0.0000 C   0  0  0  0  0  0  0  0  0  0  0  0
   -0.1992   -0.4381    0.0000 C   0  0  0  0  0  0  0  0  0  0  0  0
   -1.6272   -0.4381    0.0000 C   0  0  0  0  0  0  0  0  0  0  0  0
   -1.6017   -1.2290    0.0000 C   0  0  0  0  0  0  0  0  0  0  0  0
   -0.1992   -1.2347    0.0000 C   0  0  0  0  0  0  0  0  0  0  0  0
   -0.1992    0.3869    0.0000 C   0  0  0  0  0  0  0  0  0  0  0  0
    0.5121   -0.8335    0.0000 C   0  0  0  0  0  0  0  0  0  0  0  0
   -1.6272    0.3869    0.0000 C   0  0  0  0  0  0  0  0  0  0  0  0
   -1.6017   -2.0540    0.0000 C   0  0  0  0  0  0  0  0  0  0  0  0
   -0.1992   -2.0540    0.0000 C   0  0  0  0  0  0  0  0  0  0  0  0
   -0.9160    0.8108    0.0000 C   0  0  0  0  0  0  0  0  0  0  0  0
    0.5121    0.8108    0.0000 N   0  0  0  0  0  0  0  0  0  0  0  0
    1.2432   -0.4381    0.0000 N   0  0  0  0  0  0  0  0  0  0  0  0
    0.5121   -1.6756    0.0000 O   0  0  0  0  0  0  0  0  0  0  0  0
   -2.3356    0.8108    0.0000 C   0  0  0  0  0  0  0  0  0  0  0  0
   -0.9160    1.6244    0.0000 C   0  0  0  0  0  0  0  0  0  0  0  0
    1.2432    0.3869    0.0000 C   0  0  0  0  0  0  0  0  0  0  0  0
    1.9800   -0.8563    0.0000 C   0  0  0  0  0  0  0  0  0  0  0  0
   -2.3356    1.6244    0.0000 C   0  0  0  0  0  0  0  0  0  0  0  0
   -1.6272    2.0369    0.0000 C   0  0  0  0  0  0  0  0  0  0  0  0
    1.9544    0.8108    0.0000 S   0  0  0  0  0  0  0  0  0  0  0  0
    1.9800   -1.6898    0.0000 C   0  0  0  0  0  0  0  0  0  0  0  0
    1.9458    1.6585    0.0000 C   0  0  0  0  0  0  0  0  0  0  0  0
    2.7225   -2.1194    0.0000 C   0  0  0  0  0  0  0  0  0  0  0  0
    1.2119    2.0710    0.0000 C   0  0  0  0  0  0  0  0  0  0  0  0
    0.4865    2.4778    0.0000 C   0  0  0  0  0  0  0  0  0  0  0  0
  1  2  1  0  0  0  0
  1  3  1  0  0  0  0
  1  4  1  0  0  0  0
  1  5  1  0  0  0  0
  2  6  2  0  0  0  0
  2  7  1  0  0  0  0
  3  8  1  0  0  0  0
  4  9  1  0  0  0  0
  5 10  1  0  0  0  0
  6 11  1  0  0  0  0
  6 12  1  0  0  0  0
  7 13  1  0  0  0  0
  7 14  2  0  0  0  0
  8 15  2  0  0  0  0
  8 11  1  0  0  0  0
  9 10  1  0  0  0  0
 11 16  2  0  0  0  0
 12 17  2  0  0  0  0
 13 18  1  0  0  0  0
 13 17  1  0  0  0  0
 15 19  1  0  0  0  0
 16 20  1  0  0  0  0
 17 21  1  0  0  0  0
 18 22  1  0  0  0  0
 19 20  2  0  0  0  0
 21 23  1  0  0  0  0
 22 24  2  0  0  0  0
 23 25  1  0  0  0  0
 25 26  3  0  0  0  0
M  END
> <CdId>
81

> <Mol Weight>
362.488

> <Formula>
C22H22N2OS

> <Click_ID>
CLK002_A02 __ __ 

$$$$
