CLK043D05
 OpenBabel03181417022D

 24 25  0  0  0  0  0  0  0  0999 V2000
   -1.3125   -2.0625    0.0000 C   0  0  0  0  0  0  0  0  0  0  0  0
   -1.3125   -1.2375    0.0000 C   0  0  0  0  0  0  0  0  0  0  0  0
   -0.5958   -0.8250    0.0000 C   0  0  0  0  0  0  0  0  0  0  0  0
    0.1167    0.4125    0.0000 C   0  0  0  0  0  0  0  0  0  0  0  0
    1.5458    3.7125    0.0000 C   0  0  0  0  0  0  0  0  0  0  0  0
    1.5458    4.5333    0.0000 C   0  0  0  0  0  0  0  0  0  0  0  0
    0.1167    1.2375    0.0000 N   0  0  0  0  0  0  0  0  0  0  0  0
   -0.5958    0.0000    0.0000 C   0  0  0  0  0  0  0  0  0  0  0  0
   -0.5958   -2.4750    0.0000 C   0  0  0  0  0  0  0  0  0  0  0  0
    0.1167   -1.2375    0.0000 C   0  0  0  0  0  0  0  0  0  0  0  0
    0.8333    0.0000    0.0000 O   0  0  0  0  0  0  0  0  0  0  0  0
    0.8333    1.6500    0.0000 C   0  0  0  0  0  0  0  0  0  0  0  0
    0.1167   -2.0625    0.0000 C   0  0  0  0  0  0  0  0  0  0  0  0
    1.5458    2.8917    0.0000 C   0  0  0  0  0  0  0  0  0  0  0  0
   -2.0250   -2.4750    0.0000 O   0  0  0  0  0  0  0  0  0  0  0  0
    0.8333    2.4750    0.0000 C   0  0  0  0  0  0  0  0  0  0  0  0
   -2.0250   -0.8250    0.0000 O   0  0  0  0  0  0  0  0  0  0  0  0
   -0.5958   -3.3000    0.0000 O   0  0  0  0  0  0  0  0  0  0  0  0
    2.2583    1.6500    0.0000 C   0  0  0  0  0  0  0  0  0  0  0  0
    1.5458    1.2375    0.0000 C   0  0  0  0  0  0  0  0  0  0  0  0
    2.2583    2.4750    0.0000 C   0  0  0  0  0  0  0  0  0  0  0  0
   -2.7417   -2.0625    0.0000 C   0  0  0  0  0  0  0  0  0  0  0  0
   -2.0250    0.0000    0.0000 C   0  0  0  0  0  0  0  0  0  0  0  0
    0.1167   -3.7125    0.0000 C   0  0  0  0  0  0  0  0  0  0  0  0
  2  1  1  0  0  0  0
  3  2  2  0  0  0  0
  3 10  1  0  0  0  0
  4  8  1  0  0  0  0
  5 14  1  0  0  0  0
  6  5  3  0  0  0  0
  7  4  1  0  0  0  0
  8  3  1  0  0  0  0
  9  1  2  0  0  0  0
 10 13  2  0  0  0  0
 11  4  2  0  0  0  0
 12  7  1  0  0  0  0
 13  9  1  0  0  0  0
 14 16  1  0  0  0  0
 15  1  1  0  0  0  0
 16 12  2  0  0  0  0
 17  2  1  0  0  0  0
 18  9  1  0  0  0  0
 19 20  2  0  0  0  0
 20 12  1  0  0  0  0
 21 14  2  0  0  0  0
 21 19  1  0  0  0  0
 22 15  1  0  0  0  0
 23 17  1  0  0  0  0
 24 18  1  0  0  0  0
M  END
> <CdId>
3276

> <Mol Weight>
325.3585

> <Formula>
C19H19NO4

> <Click_ID>
CLK043D05 __ __ 

$$$$
