CLK037F02
 OpenBabel03181417022D

 26 26  0  0  0  0  0  0  0  0999 V2000
    1.0167   -0.1083    0.0000 C   0  0  0  0  0  0  0  0  0  0  0  0
    0.3000    0.3042    0.0000 N   0  0  0  0  0  0  0  0  0  0  0  0
   -1.1292    0.3042    0.0000 C   0  0  0  0  0  0  0  0  0  0  0  0
    1.7292    0.3042    0.0000 C   0  0  0  0  0  0  0  0  0  0  0  0
   -0.4125   -0.1083    0.0000 C   0  0  2  0  0  0  0  0  0  0  0  0
   -1.8417   -0.1083    0.0000 N   0  0  0  0  0  0  0  0  0  0  0  0
   -3.2708    0.7167    0.0000 C   0  0  0  0  0  0  0  0  0  0  0  0
   -3.9875    1.1292    0.0000 C   0  0  0  0  0  0  0  0  0  0  0  0
   -2.5583    0.3042    0.0000 C   0  0  0  0  0  0  0  0  0  0  0  0
    1.0167   -0.9333    0.0000 O   0  0  0  0  0  0  0  0  0  0  0  0
    2.4417   -0.1083    0.0000 C   0  0  0  0  0  0  0  0  0  0  0  0
   -1.1292    1.1292    0.0000 O   0  0  0  0  0  0  0  0  0  0  0  0
   -0.4125   -0.9333    0.0000 C   0  0  0  0  0  0  0  0  0  0  0  0
    1.7292    1.1292    0.0000 C   0  0  0  0  0  0  0  0  0  0  0  0
    2.4417   -0.9333    0.0000 O   0  0  0  0  0  0  0  0  0  0  0  0
   -2.9708   -0.4125    0.0000 C   0  0  0  0  0  0  0  0  0  0  0  0
   -2.1458    1.0167    0.0000 C   0  0  0  0  0  0  0  0  0  0  0  0
    3.1583    0.3042    0.0000 C   0  0  0  0  0  0  0  0  0  0  0  0
   -1.1292   -1.3458    0.0000 C   0  0  0  0  0  0  0  0  0  0  0  0
    0.3000   -1.3458    0.0000 C   0  0  0  0  0  0  0  0  0  0  0  0
    3.1583   -1.3458    0.0000 C   0  0  0  0  0  0  0  0  0  0  0  0
    2.4417    1.5417    0.0000 C   0  0  0  0  0  0  0  0  0  0  0  0
   -3.7958   -0.4125    0.0000 C   0  0  0  0  0  0  0  0  0  0  0  0
   -1.3208    1.0167    0.0000 C   0  0  0  0  0  0  0  0  0  0  0  0
    3.1583   -2.1708    0.0000 C   0  0  0  0  0  0  0  0  0  0  0  0
    3.1583    1.1292    0.0000 C   0  0  0  0  0  0  0  0  0  0  0  0
  2  1  1  0  0  0  0
  4  1  1  0  0  0  0
  5  3  1  1  0  0  0
  5  2  1  0  0  0  0
  6  3  1  0  0  0  0
  7  9  1  0  0  0  0
  8  7  3  0  0  0  0
  9  6  1  0  0  0  0
 10  1  2  0  0  0  0
 11  4  2  0  0  0  0
 12  3  2  0  0  0  0
 13  5  1  0  0  0  0
 14  4  1  0  0  0  0
 15 11  1  0  0  0  0
 16  9  1  0  0  0  0
 17  9  1  0  0  0  0
 18 11  1  0  0  0  0
 19 13  1  0  0  0  0
 20 13  1  0  0  0  0
 21 15  1  0  0  0  0
 22 14  2  0  0  0  0
 22 26  1  0  0  0  0
 23 16  1  0  0  0  0
 24 17  1  0  0  0  0
 25 21  1  0  0  0  0
 26 18  2  0  0  0  0
M  END
> <CdId>
2774

> <Mol Weight>
358.4745

> <Formula>
C21H30N2O3

> <Click_ID>
CLK037F02 __ __ 

$$$$
