CLK009A03
 OpenBabel03181408002D

 28 29  0  0  0  0  0  0  0  0999 V2000
   -4.5890    0.3046    0.0000 C   0  0  0  0  0  0  0  0  0  0  0  0
    0.5963   -0.1185    0.0000 C   0  0  0  0  0  0  0  0  0  0  0  0
   -3.1087    0.3046    0.0000 N   0  0  0  0  0  0  0  0  0  0  0  0
   -0.8966   -0.1185    0.0000 N   0  0  0  0  0  0  0  0  0  0  0  0
   -5.3291   -0.1185    0.0000 C   0  0  0  0  0  0  0  0  0  0  0  0
    1.3493    0.3046    0.0000 C   0  0  0  0  0  0  0  0  0  0  0  0
   -3.0790    0.9981    0.0000 C   0  0  0  0  0  0  0  0  0  0  0  0
   -0.8966   -0.8671    0.0000 C   0  0  0  0  0  0  0  0  0  0  0  0
   -2.3685   -0.1185    0.0000 C   0  0  0  0  0  0  0  0  0  0  0  0
   -1.6369    0.3046    0.0000 C   0  0  0  0  0  0  0  0  0  0  0  0
   -3.8531   -0.1185    0.0000 C   0  0  3  0  0  0  0  0  0  0  0  0
   -0.1480    0.3046    0.0000 C   0  0  3  0  0  0  0  0  0  0  0  0
   -3.7685    1.4211    0.0000 C   0  0  0  0  0  0  0  0  0  0  0  0
   -0.1861   -1.2731    0.0000 C   0  0  0  0  0  0  0  0  0  0  0  0
    0.6471    1.3704    0.0000 O   0  0  0  0  0  0  0  0  0  0  0  0
   -4.5128   -1.3493    0.0000 O   0  0  0  0  0  0  0  0  0  0  0  0
   -3.8531   -0.8671    0.0000 C   0  0  0  0  0  0  0  0  0  0  0  0
   -0.1480    1.0489    0.0000 C   0  0  0  0  0  0  0  0  0  0  0  0
   -4.4790    1.0362    0.0000 C   0  0  0  0  0  0  0  0  0  0  0  0
   -0.1861   -2.0979    0.0000 C   0  0  0  0  0  0  0  0  0  0  0  0
   -3.7516    2.2459    0.0000 C   0  0  0  0  0  0  0  0  0  0  0  0
    0.5118   -0.8628    0.0000 C   0  0  0  0  0  0  0  0  0  0  0  0
    1.2477   -1.2731    0.0000 C   0  0  0  0  0  0  0  0  0  0  0  0
    0.5457   -2.5039    0.0000 C   0  0  0  0  0  0  0  0  0  0  0  0
   -5.1896    1.4676    0.0000 C   0  0  0  0  0  0  0  0  0  0  0  0
   -4.4367    2.6730    0.0000 C   0  0  0  0  0  0  0  0  0  0  0  0
   -5.1726    2.2797    0.0000 C   0  0  0  0  0  0  0  0  0  0  0  0
    1.2562   -2.0809    0.0000 C   0  0  0  0  0  0  0  0  0  0  0  0
  2 12  1  0  0  0  0
  3 11  1  0  0  0  0
  4 10  1  0  0  0  0
  5  1  3  0  0  0  0
  6  2  3  0  0  0  0
  7  3  1  0  0  0  0
  8  4  1  0  0  0  0
  9  3  1  0  0  0  0
 10  9  1  0  0  0  0
 11  1  1  0  0  0  0
 12  4  1  0  0  0  0
 13  7  1  0  0  0  0
 14  8  1  0  0  0  0
 15 18  1  0  0  0  0
 16 17  1  0  0  0  0
 17 11  1  0  0  0  0
 18 12  1  0  0  0  0
 19 13  1  0  0  0  0
 20 14  2  0  0  0  0
 21 13  2  0  0  0  0
 22 14  1  0  0  0  0
 23 22  2  0  0  0  0
 24 20  1  0  0  0  0
 25 19  2  0  0  0  0
 25 27  1  0  0  0  0
 26 21  1  0  0  0  0
 27 26  2  0  0  0  0
 28 23  1  0  0  0  0
 28 24  2  0  0  0  0
M  END
> <Mol Weight>
376.4913

> <Click ID>
CLK009_A03

> <Plant Activity>
0

> <Yeast Activity>
1 __ __ 

$$$$
