CLK004H03
 OpenBabel03181408002D

 22 23  0  0  0  0  0  0  0  0999 V2000
    5.6177   -6.6998    0.0000 C   0  0  0  0  0  0  0  0  0  0  0  0
    5.9784   -5.9578    0.0000 C   0  0  0  0  0  0  0  0  0  0  0  0
    6.0448   -7.4047    0.0000 N   0  0  0  0  0  0  0  0  0  0  0  0
    6.8615   -7.4047    0.0000 C   0  0  0  0  0  0  0  0  0  0  0  0
    4.8010   -6.7123    0.0000 C   0  0  0  0  0  0  0  0  0  0  0  0
    5.5182   -5.2695    0.0000 C   0  0  0  0  0  0  0  0  0  0  0  0
    3.1301   -5.3110    0.0000 C   0  0  0  0  0  0  0  0  0  0  0  0
    4.7057   -5.1202    0.0000 N   0  0  0  0  0  0  0  0  0  0  0  0
    2.7115   -4.5937    0.0000 C   0  0  0  0  0  0  0  0  0  0  0  0
    7.2637   -6.6833    0.0000 O   0  0  0  0  0  0  0  0  0  0  0  0
    4.5978   -4.2994    0.0000 C   0  0  0  0  0  0  0  0  0  0  0  0
    7.2803   -8.1220    0.0000 C   0  0  0  0  0  0  0  0  0  0  0  0
    5.9080   -4.5481    0.0000 C   0  0  0  0  0  0  0  0  0  0  0  0
    4.3988   -7.4296    0.0000 O   0  0  0  0  0  0  0  0  0  0  0  0
    5.3400   -3.9510    0.0000 C   0  0  0  0  0  0  0  0  0  0  0  0
    4.3782   -6.0033    0.0000 N   0  0  0  0  0  0  0  0  0  0  0  0
    3.5531   -6.0117    0.0000 C   0  0  0  0  0  0  0  0  0  0  0  0
    6.8906   -8.8516    0.0000 C   0  0  0  0  0  0  0  0  0  0  0  0
    8.1013   -8.0888    0.0000 C   0  0  0  0  0  0  0  0  0  0  0  0
    8.5406   -8.7893    0.0000 C   0  0  0  0  0  0  0  0  0  0  0  0
    7.3177   -9.5356    0.0000 C   0  0  0  0  0  0  0  0  0  0  0  0
    8.1551   -9.5191    0.0000 C   0  0  0  0  0  0  0  0  0  0  0  0
  2  1  2  0  0  0  0
  3  1  1  0  0  0  0
  4  3  1  0  0  0  0
  5  1  1  0  0  0  0
  6  2  1  0  0  0  0
  7 17  1  0  0  0  0
  8  6  1  0  0  0  0
  9  7  3  0  0  0  0
 10  4  2  0  0  0  0
 11  8  1  0  0  0  0
 11 15  2  0  0  0  0
 12  4  1  0  0  0  0
 13  6  2  0  0  0  0
 14  5  2  0  0  0  0
 15 13  1  0  0  0  0
 16  5  1  0  0  0  0
 17 16  1  0  0  0  0
 18 12  2  0  0  0  0
 19 12  1  0  0  0  0
 20 19  2  0  0  0  0
 21 18  1  0  0  0  0
 21 22  2  0  0  0  0
 22 20  1  0  0  0  0
M  END
> <Mol Weight>
293.3199

> <Click ID>
CLK004_H03

> <Plant Activity>
0

> <Yeast Activity>
1 __ __ 

$$$$
