CLK014G07
 OpenBabel03181408002D

 23 24  0  0  0  0  0  0  0  0999 V2000
    1.5667   -0.8167    0.0000 N   0  0  0  0  0  0  0  0  0  0  0  0
    1.8250   -1.6042    0.0000 C   0  0  0  0  0  0  0  0  0  0  0  0
    2.2375   -0.3292    0.0000 C   0  0  0  0  0  0  0  0  0  0  0  0
    2.9042   -0.8167    0.0000 C   0  0  0  0  0  0  0  0  0  0  0  0
    4.7917    1.1750    0.0000 C   0  0  0  0  0  0  0  0  0  0  0  0
    5.5875    1.4583    0.0000 N   0  3  0  0  0  0  0  0  0  0  0  0
    2.6500   -1.6042    0.0000 S   0  0  0  0  0  0  0  0  0  0  0  0
    4.1750    1.6833    0.0000 C   0  0  0  0  0  0  0  0  0  0  0  0
    3.6917   -0.5625    0.0000 C   0  0  0  0  0  0  0  0  0  0  0  0
    3.4000    1.4708    0.0000 C   0  0  0  0  0  0  0  0  0  0  0  0
    3.8625    0.2458    0.0000 C   0  0  0  0  0  0  0  0  0  0  0  0
    4.6417    0.4625    0.0000 C   0  0  0  0  0  0  0  0  0  0  0  0
    0.6125    0.2458    0.0000 C   0  0  0  0  0  0  0  0  0  0  0  0
    0.3917    1.0458    0.0000 C   0  0  0  0  0  0  0  0  0  0  0  0
    6.2125    0.9125    0.0000 O   0  5  0  0  0  0  0  0  0  0  0  0
    1.3375   -2.2667    0.0000 O   0  0  0  0  0  0  0  0  0  0  0  0
    5.7292    2.2708    0.0000 O   0  0  0  0  0  0  0  0  0  0  0  0
    3.2417    0.7583    0.0000 C   0  0  0  0  0  0  0  0  0  0  0  0
    2.2292    0.4958    0.0000 O   0  0  0  0  0  0  0  0  0  0  0  0
    0.7875   -0.5625    0.0000 C   0  0  0  0  0  0  0  0  0  0  0  0
    4.3500    2.4958    0.0000 O   0  0  0  0  0  0  0  0  0  0  0  0
    2.8042    2.0458    0.0000 O   0  0  0  0  0  0  0  0  0  0  0  0
    3.0000    2.8458    0.0000 C   0  0  0  0  0  0  0  0  0  0  0  0
  2  1  1  0  0  0  0
  3  1  1  0  0  0  0
  4  3  1  0  0  0  0
  4  7  1  0  0  0  0
  5 12  2  0  0  0  0
  6  5  1  0  0  0  0
  7  2  1  0  0  0  0
  8 10  2  0  0  0  0
  8  5  1  0  0  0  0
  9  4  2  0  0  0  0
 10 18  1  0  0  0  0
 11  9  1  0  0  0  0
 12 11  1  0  0  0  0
 13 20  1  0  0  0  0
 14 13  3  0  0  0  0
 15  6  1  0  0  0  0
 16  2  2  0  0  0  0
 17  6  2  0  0  0  0
 18 11  2  0  0  0  0
 19  3  2  0  0  0  0
 20  1  1  0  0  0  0
 21  8  1  0  0  0  0
 22 10  1  0  0  0  0
 23 22  1  0  0  0  0
M  END
> <Mol Weight>
334.304

> <Click ID>
CLK014_G07

> <Plant Activity>
0

> <Yeast Activity>
1 __ __ 

$$$$
