CLK004A02
 OpenBabel03181408002D

 19 20  0  0  0  0  0  0  0  0999 V2000
    0.6640   -0.1162    0.0000 N   0  0  0  0  0  0  0  0  0  0  0  0
    1.3862   -0.5395    0.0000 C   0  0  0  0  0  0  0  0  0  0  0  0
   -0.0581   -0.5174    0.0000 C   0  0  0  0  0  0  0  0  0  0  0  0
    0.8383    0.6862    0.0000 C   0  0  0  0  0  0  0  0  0  0  0  0
    1.9921    0.0055    0.0000 N   0  0  0  0  0  0  0  0  0  0  0  0
    1.4802   -1.3585    0.0000 S   0  0  0  0  0  0  0  0  0  0  0  0
   -0.7802   -0.1162    0.0000 C   0  0  0  0  0  0  0  0  0  0  0  0
   -0.0747   -1.3419    0.0000 O   0  0  0  0  0  0  0  0  0  0  0  0
    1.6573    0.7664    0.0000 N   0  0  0  0  0  0  0  0  0  0  0  0
    2.2328   -1.6932    0.0000 C   0  0  0  0  0  0  0  0  0  0  0  0
   -0.7802    0.7139    0.0000 C   0  0  0  0  0  0  0  0  0  0  0  0
    2.3324   -2.5122    0.0000 C   0  0  0  0  0  0  0  0  0  0  0  0
   -1.5023    1.1454    0.0000 C   0  0  0  0  0  0  0  0  0  0  0  0
    2.4292   -3.3256    0.0000 C   0  0  0  0  0  0  0  0  0  0  0  0
   -2.2107    0.7277    0.0000 C   0  0  0  0  0  0  0  0  0  0  0  0
   -1.5023    1.9700    0.0000 C   0  0  0  0  0  0  0  0  0  0  0  0
   -2.9328    1.1454    0.0000 C   0  0  0  0  0  0  0  0  0  0  0  0
   -2.2107    2.3905    0.0000 C   0  0  0  0  0  0  0  0  0  0  0  0
   -2.9466    1.9700    0.0000 C   0  0  0  0  0  0  0  0  0  0  0  0
  1  2  1  0  0  0  0
  1  3  1  0  0  0  0
  1  4  1  0  0  0  0
  2  5  2  0  0  0  0
  2  6  1  0  0  0  0
  3  7  1  0  0  0  0
  3  8  2  0  0  0  0
  4  9  2  0  0  0  0
  5  9  1  0  0  0  0
  6 10  1  0  0  0  0
  7 11  2  0  0  0  0
 10 12  1  0  0  0  0
 11 13  1  0  0  0  0
 12 14  3  0  0  0  0
 13 15  1  0  0  0  0
 13 16  2  0  0  0  0
 15 17  2  0  0  0  0
 16 18  1  0  0  0  0
 17 19  1  0  0  0  0
 18 19  2  0  0  0  0
M  END
> <Mol Weight>
269.322

> <Click ID>
CLK004_A02

> <Plant Activity>
0

> <Yeast Activity>
1 __ __ 

$$$$
