CLK022B05
 OpenBabel03181410122D

 21 22  0  0  0  0  0  0  0  0999 V2000
    3.9715    1.4704    0.0000 C    0  0  0  0  0  0  0  0  0  0  0  0
    3.2569    1.8827    0.0000 N    0  0  0  0  0  0  0  0  0  0  0  0
    8.2500    3.1195    0.0000 C    0  0  0  0  0  0  0  0  0  0  0  0
    8.9646    3.5318    0.0000 C    0  0  0  0  0  0  0  0  0  0  0  0
    1.8277    1.8827    0.0000 C    0  0  0  0  0  0  0  0  0  0  0  0
    4.6861    1.8827    0.0000 C    0  0  0  0  0  0  0  0  0  0  0  0
    2.5423    1.4704    0.0000 C    0  0  0  0  0  0  0  0  0  0  0  0
    3.9715    0.6459    0.0000 O    0  0  0  0  0  0  0  0  0  0  0  0
    1.8277    2.7072    0.0000 C    0  0  0  0  0  0  0  0  0  0  0  0
    5.4008    1.4704    0.0000 C    0  0  0  0  0  0  0  0  0  0  0  0
    4.6861    2.7072    0.0000 C    0  0  0  0  0  0  0  0  0  0  0  0
    2.5423    3.1195    0.0000 Cl   0  0  0  0  0  0  0  0  0  0  0  0
    6.1154    2.7072    0.0000 C    0  0  0  0  0  0  0  0  0  0  0  0
    5.4008    3.1195    0.0000 C    0  0  0  0  0  0  0  0  0  0  0  0
    6.1154    1.8827    0.0000 C    0  0  0  0  0  0  0  0  0  0  0  0
    7.5354    2.7072    0.0000 C    0  0  0  0  0  0  0  0  0  0  0  0
    6.8300    3.1195    0.0000 O    0  0  0  0  0  0  0  0  0  0  0  0
    1.1131    1.4704    0.0000 C    0  0  0  0  0  0  0  0  0  0  0  0
    1.1131    3.1195    0.0000 C    0  0  0  0  0  0  0  0  0  0  0  0
    0.4031    1.8827    0.0000 C    0  0  0  0  0  0  0  0  0  0  0  0
    0.4031    2.7072    0.0000 C    0  0  0  0  0  0  0  0  0  0  0  0
  2  1  1  0  0  0  0
  3 16  1  0  0  0  0
  4  3  3  0  0  0  0
  5  7  1  0  0  0  0
  6  1  1  0  0  0  0
  7  2  1  0  0  0  0
  8  1  2  0  0  0  0
  9  5  1  0  0  0  0
 10  6  1  0  0  0  0
 11  6  2  0  0  0  0
 12  9  1  0  0  0  0
 13 14  2  0  0  0  0
 13 15  1  0  0  0  0
 14 11  1  0  0  0  0
 15 10  2  0  0  0  0
 16 17  1  0  0  0  0
 17 13  1  0  0  0  0
 18  5  2  0  0  0  0
 19  9  2  0  0  0  0
 19 21  1  0  0  0  0
 20 18  1  0  0  0  0
 21 20  2  0  0  0  0
M  END
> <Mol Weight>
299.752

> <Click ID>
CLK022_B05

> <Plant Activity>
0

> <Yeast Activity>
1

> <Bioactivity Commet>
we may have a SAR for a target __ __ 

$$$$
