CLK016A10
 OpenBabel03181410122D

 22 23  0  0  0  0  0  0  0  0999 V2000
    1.5722   -0.8195    0.0000 N   0  0  0  0  0  0  0  0  0  0  0  0
    1.8314   -1.6098    0.0000 C   0  0  0  0  0  0  0  0  0  0  0  0
    2.2453   -0.3303    0.0000 C   0  0  0  0  0  0  0  0  0  0  0  0
    2.9143   -0.8195    0.0000 C   0  0  0  0  0  0  0  0  0  0  0  0
    2.6592   -1.6098    0.0000 S   0  0  0  0  0  0  0  0  0  0  0  0
    3.7046   -0.5645    0.0000 C   0  0  0  0  0  0  0  0  0  0  0  0
    0.6146    0.2467    0.0000 C   0  0  0  0  0  0  0  0  0  0  0  0
    0.3931    1.0494    0.0000 C   0  0  0  0  0  0  0  0  0  0  0  0
    1.3422   -2.2746    0.0000 O   0  0  0  0  0  0  0  0  0  0  0  0
    3.4286    1.5930    0.0000 C   0  0  0  0  0  0  0  0  0  0  0  0
    2.2370    0.4975    0.0000 O   0  0  0  0  0  0  0  0  0  0  0  0
    3.8676    0.2341    0.0000 C   0  0  0  0  0  0  0  0  0  0  0  0
    0.7902   -0.5645    0.0000 C   0  0  0  0  0  0  0  0  0  0  0  0
    3.2530    0.7986    0.0000 C   0  0  0  0  0  0  0  0  0  0  0  0
    4.2063    1.8522    0.0000 C   0  0  0  0  0  0  0  0  0  0  0  0
    4.8167    1.3045    0.0000 C   0  0  0  0  0  0  0  0  0  0  0  0
    4.6453    0.4975    0.0000 C   0  0  0  0  0  0  0  0  0  0  0  0
    2.8223    2.1533    0.0000 O   0  0  0  0  0  0  0  0  0  0  0  0
    4.3902    2.6676    0.0000 O   0  0  0  0  0  0  0  0  0  0  0  0
    5.1679    2.9059    0.0000 C   0  0  0  0  0  0  0  0  0  0  0  0
    2.0446    1.9024    0.0000 C   0  0  0  0  0  0  0  0  0  0  0  0
    5.3478    3.7087    0.0000 C   0  0  0  0  0  0  0  0  0  0  0  0
  2  1  1  0  0  0  0
  3  1  1  0  0  0  0
  4  3  1  0  0  0  0
  5  2  1  0  0  0  0
  5  4  1  0  0  0  0
  6  4  2  0  0  0  0
  7 13  1  0  0  0  0
  8  7  3  0  0  0  0
  9  2  2  0  0  0  0
 10 14  1  0  0  0  0
 11  3  2  0  0  0  0
 12  6  1  0  0  0  0
 13  1  1  0  0  0  0
 14 12  2  0  0  0  0
 15 16  1  0  0  0  0
 15 10  2  0  0  0  0
 16 17  2  0  0  0  0
 17 12  1  0  0  0  0
 18 10  1  0  0  0  0
 19 15  1  0  0  0  0
 20 19  1  0  0  0  0
 21 18  1  0  0  0  0
 22 20  1  0  0  0  0
M  END
> <Mol Weight>
317.36

> <Click ID>
CLK016_A10

> <Plant Activity>
0

> <Yeast Activity>
1 __ __ 

$$$$
