CLK051G02
 OpenBabel03181410512D

 22 24  0  0  0  0  0  0  0  0999 V2000
   -0.1333   -0.2625    0.0000 C    0  0  3  0  0  0  0  0  0  0  0  0
   -0.1333    0.5625    0.0000 N    0  0  0  0  0  0  0  0  0  0  0  0
   -0.8458    0.9750    0.0000 C    0  0  0  0  0  0  0  0  0  0  0  0
    0.5833   -0.6750    0.0000 C    0  0  0  0  0  0  0  0  0  0  0  0
   -0.8458   -0.6750    0.0000 N    0  0  0  0  0  0  0  0  0  0  0  0
   -1.5625    0.5625    0.0000 C    0  0  0  0  0  0  0  0  0  0  0  0
   -1.5625   -0.2625    0.0000 C    0  0  0  0  0  0  0  0  0  0  0  0
    2.0125    1.8000    0.0000 C    0  0  0  0  0  0  0  0  0  0  0  0
    2.0125    2.6250    0.0000 C    0  0  0  0  0  0  0  0  0  0  0  0
    1.2958   -0.2625    0.0000 C    0  0  0  0  0  0  0  0  0  0  0  0
    0.5833   -1.5000    0.0000 C    0  0  0  0  0  0  0  0  0  0  0  0
   -0.8458    1.8000    0.0000 O    0  0  0  0  0  0  0  0  0  0  0  0
    2.0125   -0.6750    0.0000 C    0  0  0  0  0  0  0  0  0  0  0  0
    1.2958   -1.9125    0.0000 C    0  0  0  0  0  0  0  0  0  0  0  0
    2.0125   -1.5000    0.0000 C    0  0  0  0  0  0  0  0  0  0  0  0
    1.2958   -2.7375    0.0000 Br   0  0  0  0  0  0  0  0  0  0  0  0
   -2.2750    0.9750    0.0000 C    0  0  0  0  0  0  0  0  0  0  0  0
    1.2958    0.5625    0.0000 O    0  0  0  0  0  0  0  0  0  0  0  0
    2.0125    0.9750    0.0000 C    0  0  0  0  0  0  0  0  0  0  0  0
   -2.2750   -0.6750    0.0000 C    0  0  0  0  0  0  0  0  0  0  0  0
   -2.9917    0.5625    0.0000 C    0  0  0  0  0  0  0  0  0  0  0  0
   -2.9917   -0.2625    0.0000 C    0  0  0  0  0  0  0  0  0  0  0  0
  2  1  1  0  0  0  0
  3  2  1  0  0  0  0
  4  1  1  0  0  0  0
  5  1  1  0  0  0  0
  6  7  2  0  0  0  0
  6  3  1  0  0  0  0
  7  5  1  0  0  0  0
  8 19  1  0  0  0  0
  9  8  3  0  0  0  0
 10  4  2  0  0  0  0
 11  4  1  0  0  0  0
 12  3  2  0  0  0  0
 13 10  1  0  0  0  0
 13 15  2  0  0  0  0
 14 11  2  0  0  0  0
 15 14  1  0  0  0  0
 16 14  1  0  0  0  0
 17  6  1  0  0  0  0
 18 10  1  0  0  0  0
 19 18  1  0  0  0  0
 20  7  1  0  0  0  0
 21 17  2  0  0  0  0
 22 20  2  0  0  0  0
 22 21  1  0  0  0  0
M  END
> <CdId>
3895

> <Mol Weight>
357.201

> <Formula>
C17H13BrN2O2

> <Click_ID>
CLK051G02 __ __ 

$$$$
