CLK052C04
 OpenBabel03181410512D

 25 26  0  0  0  0  0  0  0  0999 V2000
    1.7125   -1.0208    0.0000 S   0  0  0  0  0  0  0  0  0  0  0  0
    1.0000   -1.4333    0.0000 C   0  0  0  0  0  0  0  0  0  0  0  0
   -1.1458   -1.0208    0.0000 C   0  0  0  0  0  0  0  0  0  0  0  0
   -1.8583    4.3375    0.0000 N   0  0  0  0  0  0  0  0  0  0  0  0
    3.8542   -0.6083    0.0000 C   0  0  0  0  0  0  0  0  0  0  0  0
   -0.4292   -1.4333    0.0000 C   0  0  0  0  0  0  0  0  0  0  0  0
    0.2833   -1.0208    0.0000 C   0  0  0  0  0  0  0  0  0  0  0  0
    4.5708   -0.1958    0.0000 C   0  0  0  0  0  0  0  0  0  0  0  0
    1.3000   -0.3083    0.0000 O   0  0  0  0  0  0  0  0  0  0  0  0
    2.1250   -1.7375    0.0000 O   0  0  0  0  0  0  0  0  0  0  0  0
   -1.8583    3.5167    0.0000 C   0  0  0  0  0  0  0  0  0  0  0  0
    2.4292   -0.6083    0.0000 N   0  0  0  0  0  0  0  0  0  0  0  0
   -1.1458   -0.1958    0.0000 O   0  0  0  0  0  0  0  0  0  0  0  0
   -1.8583   -1.4333    0.0000 O   0  0  0  0  0  0  0  0  0  0  0  0
   -1.8583    2.6917    0.0000 C   0  0  0  0  0  0  0  0  0  0  0  0
   -1.8583    0.2167    0.0000 C   0  0  0  0  0  0  0  0  0  0  0  0
   -1.8583    1.0417    0.0000 C   0  0  0  0  0  0  0  0  0  0  0  0
    3.1417   -1.0208    0.0000 C   0  0  0  0  0  0  0  0  0  0  0  0
   -1.1458    2.2792    0.0000 C   0  0  0  0  0  0  0  0  0  0  0  0
   -2.5750    2.2792    0.0000 C   0  0  0  0  0  0  0  0  0  0  0  0
   -1.1458    1.4542    0.0000 C   0  0  0  0  0  0  0  0  0  0  0  0
   -2.5750    1.4542    0.0000 C   0  0  0  0  0  0  0  0  0  0  0  0
    1.0000   -2.2583    0.0000 C   0  0  0  0  0  0  0  0  0  0  0  0
   -0.4292   -2.2583    0.0000 C   0  0  0  0  0  0  0  0  0  0  0  0
    0.2833   -2.6708    0.0000 C   0  0  0  0  0  0  0  0  0  0  0  0
  2  1  1  0  0  0  0
  3  6  1  0  0  0  0
  4 11  3  0  0  0  0
  5 18  1  0  0  0  0
  6  7  2  0  0  0  0
  7  2  1  0  0  0  0
  8  5  3  0  0  0  0
  9  1  2  0  0  0  0
 10  1  2  0  0  0  0
 11 15  1  0  0  0  0
 12  1  1  0  0  0  0
 13  3  1  0  0  0  0
 14  3  2  0  0  0  0
 15 20  2  0  0  0  0
 15 19  1  0  0  0  0
 16 13  1  0  0  0  0
 17 16  1  0  0  0  0
 18 12  1  0  0  0  0
 19 21  2  0  0  0  0
 20 22  1  0  0  0  0
 21 17  1  0  0  0  0
 22 17  2  0  0  0  0
 23  2  2  0  0  0  0
 24  6  1  0  0  0  0
 25 23  1  0  0  0  0
 25 24  2  0  0  0  0
M  END
> <CdId>
3987

> <Mol Weight>
354.38

> <Formula>
C18H14N2O4S

> <Click_ID>
CLK052C04 __ __ 

$$$$
