CLK022_E02
 OpenBabel03181410512D

 19 19  0  0  0  0  0  0  0  0999 V2000
    3.1479    2.4285    0.0000 C    0  0  0  0  0  0  0  0  0  0  0  0
    4.5775    2.4285    0.0000 C    0  0  0  0  0  0  0  0  0  0  0  0
    3.8627    2.8408    0.0000 N    0  0  0  0  0  0  0  0  0  0  0  0
    1.1318    3.0058    0.0000 C    0  0  0  0  0  0  0  0  0  0  0  0
    2.4331    2.8408    0.0000 N    0  0  0  0  0  0  0  0  0  0  0  0
    0.5498    3.5831    0.0000 C    0  0  0  0  0  0  0  0  0  0  0  0
    4.5775    1.5946    0.0000 C    0  0  0  0  0  0  0  0  0  0  0  0
    1.7183    2.4285    0.0000 C    0  0  0  0  0  0  0  0  0  0  0  0
    3.1479    1.5946    0.0000 O    0  0  0  0  0  0  0  0  0  0  0  0
    5.2832    2.8408    0.0000 C    0  0  0  0  0  0  0  0  0  0  0  0
    5.9980    2.4285    0.0000 C    0  0  0  0  0  0  0  0  0  0  0  0
    5.2832    1.1822    0.0000 C    0  0  0  0  0  0  0  0  0  0  0  0
    5.9980    1.5946    0.0000 C    0  0  0  0  0  0  0  0  0  0  0  0
    5.2832    0.3574    0.0000 Cl   0  0  0  0  0  0  0  0  0  0  0  0
    1.0859    1.8924    0.0000 C    0  0  0  0  0  0  0  0  0  0  0  0
    2.1903    1.7411    0.0000 C    0  0  0  0  0  0  0  0  0  0  0  0
    5.2832    3.6656    0.0000 C    0  0  0  0  0  0  0  0  0  0  0  0
    1.2280    1.0813    0.0000 C    0  0  0  0  0  0  0  0  0  0  0  0
    1.8420    0.9989    0.0000 C    0  0  0  0  0  0  0  0  0  0  0  0
  2  3  1  0  0  0  0
  3  1  1  0  0  0  0
  4  8  1  0  0  0  0
  5  1  1  0  0  0  0
  6  4  3  0  0  0  0
  7  2  2  0  0  0  0
  8  5  1  0  0  0  0
  9  1  2  0  0  0  0
 10  2  1  0  0  0  0
 11 10  2  0  0  0  0
 12  7  1  0  0  0  0
 13 11  1  0  0  0  0
 13 12  2  0  0  0  0
 14 12  1  0  0  0  0
 15  8  1  0  0  0  0
 16  8  1  0  0  0  0
 17 10  1  0  0  0  0
 18 15  1  0  0  0  0
 19 16  1  0  0  0  0
M  END
> <CdId>
1669

> <Mol Weight>
278.777

> <Formula>
C15H19ClN2O

> <Click_ID>
CLK022_E02 __ __ 

$$$$
