CLK024_C11
 OpenBabel03181410512D

 30 32  0  0  0  0  0  0  0  0999 V2000
   -1.3064    0.7460    0.0000 C    0  0  0  0  0  0  0  0  0  0  0  0
   -1.0520   -0.0516    0.0000 N    0  0  0  0  0  0  0  0  0  0  0  0
   -0.2407   -0.0516    0.0000 C    0  0  0  0  0  0  0  0  0  0  0  0
    0.0241    0.7323    0.0000 C    0  0  0  0  0  0  0  0  0  0  0  0
   -0.6394    1.2205    0.0000 S    0  0  0  0  0  0  0  0  0  0  0  0
   -2.0902    1.0073    0.0000 N    0  0  0  0  0  0  0  0  0  0  0  0
    0.8113    0.9729    0.0000 C    0  0  0  0  0  0  0  0  0  0  0  0
    2.6265   -0.6945    0.0000 C    0  0  0  0  0  0  0  0  0  0  0  0
    1.8393   -0.9454    0.0000 C    0  0  0  0  0  0  0  0  0  0  0  0
    2.8121    0.1100    0.0000 C    0  0  0  0  0  0  0  0  0  0  0  0
    1.4198    0.4194    0.0000 C    0  0  0  0  0  0  0  0  0  0  0  0
    3.6648   -2.6197    0.0000 C    0  0  0  0  0  0  0  0  0  0  0  0
    3.4895   -3.4241    0.0000 C    0  0  0  0  0  0  0  0  0  0  0  0
    1.2376   -0.3919    0.0000 C    0  0  0  0  0  0  0  0  0  0  0  0
    2.2003    0.6704    0.0000 C    0  0  0  0  0  0  0  0  0  0  0  0
    0.2441   -0.7185    0.0000 O    0  0  0  0  0  0  0  0  0  0  0  0
   -1.5402   -0.7185    0.0000 C    0  0  0  0  0  0  0  0  0  0  0  0
   -2.2587    1.8117    0.0000 C    0  0  0  0  0  0  0  0  0  0  0  0
    1.6570   -1.7533    0.0000 Br   0  0  0  0  0  0  0  0  0  0  0  0
    3.5994    0.3575    0.0000 Br   0  0  0  0  0  0  0  0  0  0  0  0
    3.2419   -1.2548    0.0000 O    0  0  0  0  0  0  0  0  0  0  0  0
    3.0597   -2.0593    0.0000 C    0  0  0  0  0  0  0  0  0  0  0  0
   -2.8466   -1.2960    0.0000 O    0  0  0  0  0  0  0  0  0  0  0  0
   -2.3583   -0.6326    0.0000 C    0  0  0  0  0  0  0  0  0  0  0  0
   -3.0425    2.0696    0.0000 C    0  0  0  0  0  0  0  0  0  0  0  0
   -1.6399    2.3583    0.0000 C    0  0  0  0  0  0  0  0  0  0  0  0
   -3.6682   -1.2067    0.0000 C    0  0  0  0  0  0  0  0  0  0  0  0
   -1.8083    3.1731    0.0000 C    0  0  0  0  0  0  0  0  0  0  0  0
   -3.2110    2.8706    0.0000 C    0  0  0  0  0  0  0  0  0  0  0  0
   -2.5922    3.4241    0.0000 C    0  0  0  0  0  0  0  0  0  0  0  0
  2  1  1  0  0  0  0
  3  2  1  0  0  0  0
  3  4  1  0  0  0  0
  4  5  1  0  0  0  0
  5  1  1  0  0  0  0
  6  1  2  0  0  0  0
  7  4  2  0  0  0  0
  8 10  1  0  0  0  0
  9 14  1  0  0  0  0
  9  8  2  0  0  0  0
 10 15  2  0  0  0  0
 11  7  1  0  0  0  0
 12 22  1  0  0  0  0
 13 12  3  0  0  0  0
 14 11  2  0  0  0  0
 15 11  1  0  0  0  0
 16  3  2  0  0  0  0
 17  2  1  0  0  0  0
 18  6  1  0  0  0  0
 19  9  1  0  0  0  0
 20 10  1  0  0  0  0
 21  8  1  0  0  0  0
 22 21  1  0  0  0  0
 23 24  1  0  0  0  0
 24 17  1  0  0  0  0
 25 18  1  0  0  0  0
 26 18  2  0  0  0  0
 27 23  1  0  0  0  0
 28 26  1  0  0  0  0
 29 25  2  0  0  0  0
 29 30  1  0  0  0  0
 30 28  2  0  0  0  0
M  END
> <CdId>
1806

> <Mol Weight>
550.263

> <Formula>
C22H18Br2N2O3S

> <Click_ID>
CLK024_C11 __ __ 

$$$$
