CLK009_D10
 OpenBabel03181410512D

 31 33  0  0  0  0  0  0  0  0999 V2000
   -2.7355    0.2763    0.0000 C    0  0  0  0  0  0  0  0  0  0  0  0
   -2.7355    1.0820    0.0000 N    0  0  0  0  0  0  0  0  0  0  0  0
   -2.0376   -0.1171    0.0000 N    0  0  0  0  0  0  0  0  0  0  0  0
   -1.3302    1.0820    0.0000 N    0  0  0  0  0  0  0  0  0  0  0  0
   -1.3302    0.2763    0.0000 N    0  0  0  0  0  0  0  0  0  0  0  0
   -3.4428   -0.1171    0.0000 C    0  0  0  0  0  0  0  0  0  0  0  0
    2.3936    0.8103    0.0000 C    0  0  0  0  0  0  0  0  0  0  0  0
   -0.7541    1.6534    0.0000 C    0  0  0  0  0  0  0  0  0  0  0  0
    0.0188    1.4427    0.0000 C    0  0  0  0  0  0  0  0  0  0  0  0
    3.8082    1.1944    0.0000 C    0  0  0  0  0  0  0  0  0  0  0  0
    2.9979    1.4052    0.0000 C    0  0  0  0  0  0  0  0  0  0  0  0
    4.0330    0.3747    0.0000 C    0  0  0  0  0  0  0  0  0  0  0  0
    4.1782    2.5997    0.0000 C    0  0  0  0  0  0  0  0  0  0  0  0
    5.0026    2.3842    0.0000 C    0  0  0  0  0  0  0  0  0  0  0  0
    1.0118    0.4497    0.0000 N    0  0  0  0  0  0  0  0  0  0  0  0
    2.6184    0.0000    0.0000 C    0  0  0  0  0  0  0  0  0  0  0  0
   -4.1547    0.2763    0.0000 C    0  0  0  0  0  0  0  0  0  0  0  0
    3.4288   -0.2108    0.0000 C    0  0  0  0  0  0  0  0  0  0  0  0
    0.2248    0.6698    0.0000 N    0  0  0  0  0  0  0  0  0  0  0  0
    1.5786    1.0258    0.0000 C    0  0  0  0  0  0  0  0  0  0  0  0
    0.5949    2.0188    0.0000 O    0  0  0  0  0  0  0  0  0  0  0  0
    4.4031    1.7940    0.0000 I    0  0  0  0  0  0  0  0  0  0  0  0
   -4.1547    1.0820    0.0000 Cl   0  0  0  0  0  0  0  0  0  0  0  0
    2.7730    2.2155    0.0000 O    0  0  0  0  0  0  0  0  0  0  0  0
    3.6536   -1.0305    0.0000 I    0  0  0  0  0  0  0  0  0  0  0  0
   -3.4428   -0.9322    0.0000 C    0  0  0  0  0  0  0  0  0  0  0  0
    3.3725    2.8105    0.0000 C    0  0  0  0  0  0  0  0  0  0  0  0
   -4.8480   -0.1171    0.0000 C    0  0  0  0  0  0  0  0  0  0  0  0
   -4.1547   -1.3490    0.0000 C    0  0  0  0  0  0  0  0  0  0  0  0
   -4.8480   -0.9322    0.0000 C    0  0  0  0  0  0  0  0  0  0  0  0
   -0.3373    0.0936    0.0000 H    0  0  0  0  0  0  0  0  0  0  0  0
  2  1  2  0  0  0  0
  3  1  1  0  0  0  0
  4  2  1  0  0  0  0
  4  5  1  0  0  0  0
  5  3  2  0  0  0  0
  6  1  1  0  0  0  0
  7 20  1  0  0  0  0
  8  4  1  0  0  0  0
  9  8  1  0  0  0  0
 10 11  2  0  0  0  0
 10 12  1  0  0  0  0
 11  7  1  0  0  0  0
 12 18  2  0  0  0  0
 13 27  1  0  0  0  0
 14 13  3  0  0  0  0
 15 19  1  0  0  0  0
 16  7  2  0  0  0  0
 17  6  1  0  0  0  0
 18 16  1  0  0  0  0
 19  9  1  0  0  0  0
 20 15  2  0  0  0  0
 21  9  2  0  0  0  0
 22 10  1  0  0  0  0
 23 17  1  0  0  0  0
 24 11  1  0  0  0  0
 25 18  1  0  0  0  0
 26  6  2  0  0  0  0
 27 24  1  0  0  0  0
 28 17  2  0  0  0  0
 29 26  1  0  0  0  0
 30 29  2  0  0  0  0
 30 28  1  0  0  0  0
 31 19  1  0  0  0  0
M  END
> <CdId>
635

> <Mol Weight>
646.607

> <Formula>
C19H13ClI2N6O2

> <Click_ID>
CLK009_D10 __ __ 

$$$$
