CLK027_C03
 OpenBabel03181410512D

 30 32  0  0  0  0  0  0  0  0999 V2000
   -3.7820   -0.4633    0.0000 N   0  0  0  0  0  0  0  0  0  0  0  0
   -4.1697   -1.1840    0.0000 C   0  0  0  0  0  0  0  0  0  0  0  0
   -2.9617   -0.6109    0.0000 C   0  0  0  0  0  0  0  0  0  0  0  0
   -2.8587   -1.4346    0.0000 C   0  0  0  0  0  0  0  0  0  0  0  0
   -3.6069   -1.7914    0.0000 S   0  0  0  0  0  0  0  0  0  0  0  0
   -2.1347   -1.8429    0.0000 C   0  0  0  0  0  0  0  0  0  0  0  0
    4.2624    1.0227    0.0000 C   0  0  0  0  0  0  0  0  0  0  0  0
   -3.6549    0.9712    0.0000 C   0  0  0  0  0  0  0  0  0  0  0  0
   -3.2191    1.6747    0.0000 C   0  0  0  0  0  0  0  0  0  0  0  0
   -4.9865   -1.2835    0.0000 O   0  0  0  0  0  0  0  0  0  0  0  0
   -0.7172   -0.1888    0.0000 C   0  0  0  0  0  0  0  0  0  0  0  0
   -2.3645   -0.0446    0.0000 O   0  0  0  0  0  0  0  0  0  0  0  0
    3.5623    0.6143    0.0000 C   0  0  0  0  0  0  0  0  0  0  0  0
    0.0000   -0.6006    0.0000 C   0  0  0  0  0  0  0  0  0  0  0  0
   -1.4276   -1.4208    0.0000 C   0  0  0  0  0  0  0  0  0  0  0  0
   -4.1217    0.2883    0.0000 C   0  0  0  0  0  0  0  0  0  0  0  0
   -1.4346   -0.6074    0.0000 C   0  0  0  0  0  0  0  0  0  0  0  0
    0.7172   -0.1888    0.0000 O   0  0  0  0  0  0  0  0  0  0  0  0
    4.2830    1.8464    0.0000 O   0  0  0  0  0  0  0  0  0  0  0  0
   -0.0068   -1.4173    0.0000 C   0  0  0  0  0  0  0  0  0  0  0  0
    2.8484    1.0364    0.0000 C   0  0  0  0  0  0  0  0  0  0  0  0
    3.5485   -0.2127    0.0000 C   0  0  0  0  0  0  0  0  0  0  0  0
    4.9865    0.6040    0.0000 O   0  0  0  0  0  0  0  0  0  0  0  0
   -0.7242   -1.8223    0.0000 C   0  0  0  0  0  0  0  0  0  0  0  0
    1.4140   -0.6006    0.0000 C   0  0  0  0  0  0  0  0  0  0  0  0
    2.1380   -0.1888    0.0000 C   0  0  0  0  0  0  0  0  0  0  0  0
    2.1277    0.6349    0.0000 C   0  0  0  0  0  0  0  0  0  0  0  0
    2.8416   -0.6074    0.0000 C   0  0  0  0  0  0  0  0  0  0  0  0
   -0.7172    0.6246    0.0000 O   0  0  0  0  0  0  0  0  0  0  0  0
   -1.4346    1.0364    0.0000 C   0  0  0  0  0  0  0  0  0  0  0  0
  2  1  1  0  0  0  0
  3  1  1  0  0  0  0
  4  3  1  0  0  0  0
  5  2  1  0  0  0  0
  5  4  1  0  0  0  0
  6  4  2  0  0  0  0
  7 13  1  0  0  0  0
  8 16  1  0  0  0  0
  9  8  3  0  0  0  0
 10  2  2  0  0  0  0
 11 17  1  0  0  0  0
 11 14  2  0  0  0  0
 12  3  2  0  0  0  0
 13 22  2  0  0  0  0
 14 20  1  0  0  0  0
 15  6  1  0  0  0  0
 16  1  1  0  0  0  0
 17 15  2  0  0  0  0
 18 14  1  0  0  0  0
 19  7  2  0  0  0  0
 20 24  2  0  0  0  0
 21 27  2  0  0  0  0
 21 13  1  0  0  0  0
 22 28  1  0  0  0  0
 23  7  1  0  0  0  0
 24 15  1  0  0  0  0
 25 18  1  0  0  0  0
 26 25  1  0  0  0  0
 27 26  1  0  0  0  0
 28 26  2  0  0  0  0
 29 11  1  0  0  0  0
 30 29  1  0  0  0  0
M  END
> <CdId>
2036

> <Mol Weight>
423.438

> <Formula>
C22H17NO6S

> <Click_ID>
CLK027_C03 __ __ 

$$$$
