CLK004_G06
 OpenBabel03181410512D

 27 30  0  0  0  0  0  0  0  0999 V2000
   -2.0143   -0.1100    0.0000 C   0  0  0  0  0  0  0  0  0  0  0  0
   -2.1243   -0.9218    0.0000 C   0  0  0  0  0  0  0  0  0  0  0  0
   -1.2025    0.0304    0.0000 C   0  0  3  0  0  0  0  0  0  0  0  0
   -2.6592    0.4021    0.0000 C   0  0  0  0  0  0  0  0  0  0  0  0
   -1.3846   -1.2898    0.0000 N   0  0  0  0  0  0  0  0  0  0  0  0
   -2.8944   -1.2329    0.0000 C   0  0  0  0  0  0  0  0  0  0  0  0
   -0.8080   -0.6980    0.0000 C   0  0  0  0  0  0  0  0  0  0  0  0
   -0.2656    0.6601    0.0000 C   0  0  0  0  0  0  0  0  0  0  0  0
   -1.4642    0.9749    0.0000 O   0  0  0  0  0  0  0  0  0  0  0  0
   -3.4179    0.0948    0.0000 C   0  0  0  0  0  0  0  0  0  0  0  0
   -1.2442   -2.1015    0.0000 C   0  0  0  0  0  0  0  0  0  0  0  0
   -3.5393   -0.7245    0.0000 C   0  0  0  0  0  0  0  0  0  0  0  0
    0.0076   -0.8118    0.0000 O   0  0  0  0  0  0  0  0  0  0  0  0
    0.5273    0.2465    0.0000 C   0  0  0  0  0  0  0  0  0  0  0  0
   -1.8739   -2.6289    0.0000 C   0  0  0  0  0  0  0  0  0  0  0  0
    1.2177    0.6904    0.0000 C   0  0  0  0  0  0  0  0  0  0  0  0
    0.5576   -0.4400    0.0000 O   0  0  0  0  0  0  0  0  0  0  0  0
   -2.5075   -3.1599    0.0000 C   0  0  0  0  0  0  0  0  0  0  0  0
    1.9461    0.3148    0.0000 C   0  0  0  0  0  0  0  0  0  0  0  0
    1.1873    1.5174    0.0000 C   0  0  0  0  0  0  0  0  0  0  0  0
    2.6478    0.7549    0.0000 C   0  0  0  0  0  0  0  0  0  0  0  0
    1.8778    1.9650    0.0000 C   0  0  0  0  0  0  0  0  0  0  0  0
    2.6061    1.5818    0.0000 C   0  0  0  0  0  0  0  0  0  0  0  0
    3.3762    0.3756    0.0000 O   0  0  0  0  0  0  0  0  0  0  0  0
    3.3079    2.0257    0.0000 O   0  0  0  0  0  0  0  0  0  0  0  0
    4.0780    0.8232    0.0000 C   0  0  0  0  0  0  0  0  0  0  0  0
    4.0363    1.6502    0.0000 C   0  0  0  0  0  0  0  0  0  0  0  0
  1  2  2  0  0  0  0
  1  3  1  0  0  0  0
  1  4  1  0  0  0  0
  2  5  1  0  0  0  0
  2  6  1  0  0  0  0
  3  7  1  0  0  0  0
  3  8  1  0  0  0  0
  3  9  1  0  0  0  0
  4 10  2  0  0  0  0
  5 11  1  0  0  0  0
  5  7  1  0  0  0  0
  6 12  2  0  0  0  0
  7 13  2  0  0  0  0
  8 14  1  0  0  0  0
 10 12  1  0  0  0  0
 11 15  1  0  0  0  0
 14 16  1  0  0  0  0
 14 17  2  0  0  0  0
 15 18  3  0  0  0  0
 16 19  1  0  0  0  0
 16 20  2  0  0  0  0
 19 21  2  0  0  0  0
 20 22  1  0  0  0  0
 21 23  1  0  0  0  0
 21 24  1  0  0  0  0
 22 23  2  0  0  0  0
 23 25  1  0  0  0  0
 24 26  1  0  0  0  0
 25 27  1  0  0  0  0
 26 27  1  0  0  0  0
M  END
> <CdId>
305

> <Mol Weight>
363.3634

> <Formula>
C21H17NO5

> <Click_ID>
CLK004_G06 __ __ 

$$$$
