CLK049E11
 OpenBabel03181410512D

 24 25  0  0  0  0  0  0  0  0999 V2000
    1.9625   -0.2042    0.0000 S   0  0  0  0  0  0  0  0  0  0  0  0
    2.6792    0.2083    0.0000 C   0  0  0  0  0  0  0  0  0  0  0  0
   -4.4667   -0.6167    0.0000 C   0  0  0  0  0  0  0  0  0  0  0  0
   -0.8958   -0.2042    0.0000 C   0  0  0  0  0  0  0  0  0  0  0  0
   -5.1833   -1.0292    0.0000 C   0  0  0  0  0  0  0  0  0  0  0  0
    1.5500    0.5083    0.0000 O   0  0  0  0  0  0  0  0  0  0  0  0
    2.3750   -0.9167    0.0000 O   0  0  0  0  0  0  0  0  0  0  0  0
    1.2500   -0.6167    0.0000 N   0  0  0  0  0  0  0  0  0  0  0  0
   -1.6083   -0.6167    0.0000 N   0  0  0  0  0  0  0  0  0  0  0  0
    3.3917   -0.2042    0.0000 C   0  0  0  0  0  0  0  0  0  0  0  0
   -0.1792   -0.6167    0.0000 C   0  0  0  0  0  0  0  0  0  0  0  0
   -2.3250   -0.2042    0.0000 C   0  0  0  0  0  0  0  0  0  0  0  0
   -0.8958    0.6208    0.0000 O   0  0  0  0  0  0  0  0  0  0  0  0
   -3.7542   -0.2042    0.0000 C   0  0  0  0  0  0  0  0  0  0  0  0
   -3.0375   -0.6167    0.0000 C   0  0  0  0  0  0  0  0  0  0  0  0
    0.5333   -0.2042    0.0000 C   0  0  0  0  0  0  0  0  0  0  0  0
    3.3917   -1.0292    0.0000 F   0  0  0  0  0  0  0  0  0  0  0  0
    2.6792    1.0333    0.0000 C   0  0  0  0  0  0  0  0  0  0  0  0
   -3.0375    1.0333    0.0000 C   0  0  0  0  0  0  0  0  0  0  0  0
   -2.3250    0.6208    0.0000 C   0  0  0  0  0  0  0  0  0  0  0  0
    4.1042    0.2083    0.0000 C   0  0  0  0  0  0  0  0  0  0  0  0
   -3.7542    0.6208    0.0000 C   0  0  0  0  0  0  0  0  0  0  0  0
    3.3917    1.4458    0.0000 C   0  0  0  0  0  0  0  0  0  0  0  0
    4.1042    1.0333    0.0000 C   0  0  0  0  0  0  0  0  0  0  0  0
  2  1  1  0  0  0  0
  3 14  1  0  0  0  0
  4 11  1  0  0  0  0
  5  3  3  0  0  0  0
  6  1  2  0  0  0  0
  7  1  2  0  0  0  0
  8  1  1  0  0  0  0
  9  4  1  0  0  0  0
 10  2  2  0  0  0  0
 11 16  1  0  0  0  0
 12  9  1  0  0  0  0
 13  4  2  0  0  0  0
 14 15  1  0  0  0  0
 15 12  2  0  0  0  0
 16  8  1  0  0  0  0
 17 10  1  0  0  0  0
 18  2  1  0  0  0  0
 19 20  2  0  0  0  0
 20 12  1  0  0  0  0
 21 10  1  0  0  0  0
 22 14  2  0  0  0  0
 22 19  1  0  0  0  0
 23 18  2  0  0  0  0
 23 24  1  0  0  0  0
 24 21  2  0  0  0  0
M  END
> <CdId>
3805

> <Mol Weight>
346.376

> <Formula>
C17H15FN2O3S

> <Click_ID>
CLK049E11 __ __ 

$$$$
