CLK012_A09
 OpenBabel03181410512D

 32 34  0  0  0  0  0  0  0  0999 V2000
    1.5783   -0.8228    0.0000 N   0  0  0  0  0  0  0  0  0  0  0  0
    1.8386   -1.6161    0.0000 C   0  0  0  0  0  0  0  0  0  0  0  0
    2.2541   -0.3316    0.0000 C   0  0  0  0  0  0  0  0  0  0  0  0
    2.9258   -0.8228    0.0000 C   0  0  0  0  0  0  0  0  0  0  0  0
    2.6697   -1.6161    0.0000 S   0  0  0  0  0  0  0  0  0  0  0  0
    3.7191   -0.5667    0.0000 C   0  0  0  0  0  0  0  0  0  0  0  0
    4.2228    1.8595    0.0000 C   0  0  0  0  0  0  0  0  0  0  0  0
    3.4421    1.6077    0.0000 C   0  0  0  0  0  0  0  0  0  0  0  0
    3.8828    0.2393    0.0000 C   0  0  0  0  0  0  0  0  0  0  0  0
    4.8273    1.3054    0.0000 C   0  0  0  0  0  0  0  0  0  0  0  0
    4.3991    2.6655    0.0000 O   0  0  0  0  0  0  0  0  0  0  0  0
    0.6170    0.2476    0.0000 C   0  0  0  0  0  0  0  0  0  0  0  0
    0.3946    1.0536    0.0000 C   0  0  0  0  0  0  0  0  0  0  0  0
    1.3474   -2.2835    0.0000 O   0  0  0  0  0  0  0  0  0  0  0  0
    2.2458    0.4995    0.0000 O   0  0  0  0  0  0  0  0  0  0  0  0
    3.2658    0.8017    0.0000 C   0  0  0  0  0  0  0  0  0  0  0  0
    4.6636    0.4995    0.0000 C   0  0  0  0  0  0  0  0  0  0  0  0
    0.7933   -0.5667    0.0000 C   0  0  0  0  0  0  0  0  0  0  0  0
    6.2335    1.0200    0.0000 C   0  0  0  0  0  0  0  0  0  0  0  0
    7.0142    1.2802    0.0000 C   0  0  0  0  0  0  0  0  0  0  0  0
    5.1883    2.9173    0.0000 C   0  0  0  0  0  0  0  0  0  0  0  0
    5.7214    5.3310    0.0000 C   0  0  0  0  0  0  0  0  0  0  0  0
    2.8376    2.1617    0.0000 O   0  0  0  0  0  0  0  0  0  0  0  0
    5.3688    3.7233    0.0000 C   0  0  0  0  0  0  0  0  0  0  0  0
    5.6164    1.5699    0.0000 C   0  0  0  0  0  0  0  0  0  0  0  0
    5.9103    6.1327    0.0000 F   0  0  0  0  0  0  0  0  0  0  0  0
    4.9406    5.0666    0.0000 C   0  0  0  0  0  0  0  0  0  0  0  0
    6.3258    4.7643    0.0000 C   0  0  0  0  0  0  0  0  0  0  0  0
    6.1495    3.9667    0.0000 C   0  0  0  0  0  0  0  0  0  0  0  0
    4.7601    4.2732    0.0000 C   0  0  0  0  0  0  0  0  0  0  0  0
    2.0569    1.9099    0.0000 C   0  0  0  0  0  0  0  0  0  0  0  0
    1.4398    2.4640    0.0000 C   0  0  0  0  0  0  0  0  0  0  0  0
  2  1  1  0  0  0  0
  3  1  1  0  0  0  0
  4  3  1  0  0  0  0
  4  5  1  0  0  0  0
  5  2  1  0  0  0  0
  6  4  2  0  0  0  0
  7 10  1  0  0  0  0
  7  8  2  0  0  0  0
  8 16  1  0  0  0  0
  9  6  1  0  0  0  0
 10 17  2  0  0  0  0
 11  7  1  0  0  0  0
 12 18  1  0  0  0  0
 13 12  3  0  0  0  0
 14  2  2  0  0  0  0
 15  3  2  0  0  0  0
 16  9  2  0  0  0  0
 17  9  1  0  0  0  0
 18  1  1  0  0  0  0
 19 25  1  0  0  0  0
 20 19  2  0  0  0  0
 21 11  1  0  0  0  0
 22 27  1  0  0  0  0
 23  8  1  0  0  0  0
 24 21  1  0  0  0  0
 25 10  1  0  0  0  0
 26 22  1  0  0  0  0
 27 30  2  0  0  0  0
 28 29  1  0  0  0  0
 28 22  2  0  0  0  0
 29 24  2  0  0  0  0
 30 24  1  0  0  0  0
 31 23  1  0  0  0  0
 32 31  1  0  0  0  0
M  END
> <CdId>
844

> <Mol Weight>
451.51

> <Formula>
C25H22FNO4S

> <Click_ID>
CLK012_A09 __ __ 

$$$$
