CLK035_H05
 OpenBabel03181410512D

 27 30  0  0  0  0  0  0  0  0999 V2000
   -4.5821    2.5493    0.0000 C   0  0  0  0  0  0  0  0  0  0  0  0
   -5.3486    2.8701    0.0000 S   0  0  0  0  0  0  0  0  0  0  0  0
   -3.1575    5.0403    0.0000 N   0  0  0  0  0  0  0  0  0  0  0  0
   -4.6570    1.7371    0.0000 N   0  0  0  0  0  0  0  0  0  0  0  0
   -5.8818    2.2452    0.0000 C   0  0  0  0  0  0  0  0  0  0  0  0
   -3.8698    2.9825    0.0000 N   0  0  0  0  0  0  0  0  0  0  0  0
   -5.4569    1.5454    0.0000 C   0  0  0  0  0  0  0  0  0  0  0  0
   -2.4826    5.5153    0.0000 C   0  0  0  0  0  0  0  0  0  0  0  0
   -3.8198    5.5153    0.0000 C   0  0  0  0  0  0  0  0  0  0  0  0
   -3.8698    3.7990    0.0000 C   0  0  0  0  0  0  0  0  0  0  0  0
   -6.7024    2.2327    0.0000 C   0  0  0  0  0  0  0  0  0  0  0  0
   -3.1575    4.2114    0.0000 C   0  0  0  0  0  0  0  0  0  0  0  0
   -5.8443    0.8205    0.0000 C   0  0  0  0  0  0  0  0  0  0  0  0
   -3.2367    1.4621    0.0000 C   0  0  0  0  0  0  0  0  0  0  0  0
   -2.4618    1.7454    0.0000 C   0  0  0  0  0  0  0  0  0  0  0  0
   -2.7451    6.3108    0.0000 C   0  0  0  0  0  0  0  0  0  0  0  0
   -3.5698    6.3025    0.0000 C   0  0  0  0  0  0  0  0  0  0  0  0
   -1.6954    5.2611    0.0000 O   0  0  0  0  0  0  0  0  0  0  0  0
   -4.6070    5.2736    0.0000 O   0  0  0  0  0  0  0  0  0  0  0  0
   -4.5821    4.2031    0.0000 O   0  0  0  0  0  0  0  0  0  0  0  0
   -4.0197    1.1955    0.0000 C   0  0  0  0  0  0  0  0  0  0  0  0
   -7.1023    1.5079    0.0000 C   0  0  0  0  0  0  0  0  0  0  0  0
   -6.6649    0.7955    0.0000 C   0  0  0  0  0  0  0  0  0  0  0  0
   -7.1398    2.9325    0.0000 C   0  0  0  0  0  0  0  0  0  0  0  0
   -7.9146    1.4829    0.0000 C   0  0  0  0  0  0  0  0  0  0  0  0
   -7.9646    2.9117    0.0000 C   0  0  0  0  0  0  0  0  0  0  0  0
   -8.3520    2.1869    0.0000 C   0  0  0  0  0  0  0  0  0  0  0  0
  2  1  1  0  0  0  0
  3 12  1  0  0  0  0
  4  1  1  0  0  0  0
  5  2  1  0  0  0  0
  5  7  2  0  0  0  0
  6  1  2  0  0  0  0
  7  4  1  0  0  0  0
  8  3  1  0  0  0  0
  9  3  1  0  0  0  0
 10  6  1  0  0  0  0
 11  5  1  0  0  0  0
 12 10  1  0  0  0  0
 13  7  1  0  0  0  0
 14 21  1  0  0  0  0
 15 14  3  0  0  0  0
 16  8  1  0  0  0  0
 17  9  1  0  0  0  0
 17 16  1  0  0  0  0
 18  8  2  0  0  0  0
 19  9  2  0  0  0  0
 20 10  2  0  0  0  0
 21  4  1  0  0  0  0
 22 11  1  0  0  0  0
 23 13  2  0  0  0  0
 23 22  1  0  0  0  0
 24 11  2  0  0  0  0
 25 22  2  0  0  0  0
 25 27  1  0  0  0  0
 26 24  1  0  0  0  0
 27 26  2  0  0  0  0
M  END
> <CdId>
2719

> <Mol Weight>
377.416

> <Formula>
C20H15N3O3S

> <Click_ID>
CLK035_H05 __ __ 

$$$$
