CLK039H08
 OpenBabel03181410512D

 19 20  0  0  0  0  0  0  0  0999 V2000
   -0.0418   -0.1921    0.0000 N   0  0  0  0  0  0  0  0  0  0  0  0
   -0.7558   -0.6055    0.0000 C   0  0  0  0  0  0  0  0  0  0  0  0
   -0.0418    0.6346    0.0000 N   0  0  0  0  0  0  0  0  0  0  0  0
   -0.7558    1.0480    0.0000 C   0  0  0  0  0  0  0  0  0  0  0  0
   -1.4697   -0.1921    0.0000 C   0  0  0  0  0  0  0  0  0  0  0  0
    0.6764   -0.6055    0.0000 C   0  0  0  0  0  0  0  0  0  0  0  0
   -1.4697    0.6346    0.0000 C   0  0  0  0  0  0  0  0  0  0  0  0
    1.3904   -0.1921    0.0000 C   0  0  0  0  0  0  0  0  0  0  0  0
    3.5406   -0.6055    0.0000 C   0  0  0  0  0  0  0  0  0  0  0  0
    4.2546   -1.0188    0.0000 C   0  0  0  0  0  0  0  0  0  0  0  0
   -0.7558   -1.4322    0.0000 O   0  0  0  0  0  0  0  0  0  0  0  0
   -0.7558    1.8747    0.0000 O   0  0  0  0  0  0  0  0  0  0  0  0
    1.3904    0.6346    0.0000 O   0  0  0  0  0  0  0  0  0  0  0  0
    2.1086   -0.6055    0.0000 N   0  0  0  0  0  0  0  0  0  0  0  0
    2.8225   -0.1921    0.0000 C   0  0  0  0  0  0  0  0  0  0  0  0
   -2.1878   -0.6055    0.0000 C   0  0  0  0  0  0  0  0  0  0  0  0
   -2.1878    1.0480    0.0000 C   0  0  0  0  0  0  0  0  0  0  0  0
   -2.9018   -0.1921    0.0000 C   0  0  0  0  0  0  0  0  0  0  0  0
   -2.9018    0.6346    0.0000 C   0  0  0  0  0  0  0  0  0  0  0  0
  2  1  1  0  0  0  0
  3  1  1  0  0  0  0
  4  3  1  0  0  0  0
  5  2  1  0  0  0  0
  6  1  1  0  0  0  0
  7  5  2  0  0  0  0
  7  4  1  0  0  0  0
  8  6  1  0  0  0  0
  9 15  1  0  0  0  0
 10  9  3  0  0  0  0
 11  2  2  0  0  0  0
 12  4  2  0  0  0  0
 13  8  2  0  0  0  0
 14  8  1  0  0  0  0
 15 14  1  0  0  0  0
 16  5  1  0  0  0  0
 17  7  1  0  0  0  0
 18 16  2  0  0  0  0
 18 19  1  0  0  0  0
 19 17  2  0  0  0  0
M  END
> <CdId>
2984

> <Mol Weight>
257.2447

> <Formula>
C13H11N3O3

> <Click_ID>
CLK039H08 __ __ 

$$$$
