CLK005_D04
 OpenBabel03181410512D

 26 28  0  0  0  0  0  0  0  0999 V2000
   -0.2863   -0.4588    0.0000 C   0  0  3  0  0  0  0  0  0  0  0  0
   -0.9897   -0.0304    0.0000 N   0  0  0  0  0  0  0  0  0  0  0  0
   -0.3071   -1.2798    0.0000 C   0  0  0  0  0  0  0  0  0  0  0  0
    0.4361   -0.0644    0.0000 C   0  0  0  0  0  0  0  0  0  0  0  0
   -0.9688    0.7944    0.0000 C   0  0  0  0  0  0  0  0  0  0  0  0
   -1.7158   -0.4247    0.0000 C   0  0  0  0  0  0  0  0  0  0  0  0
   -0.9878   -1.7519    0.0000 C   0  0  0  0  0  0  0  0  0  0  0  0
    0.3469   -1.7803    0.0000 S   0  0  0  0  0  0  0  0  0  0  0  0
    1.1433   -0.4986    0.0000 N   0  0  0  0  0  0  0  0  0  0  0  0
    0.4569    0.7603    0.0000 O   0  0  0  0  0  0  0  0  0  0  0  0
   -0.2446    1.1850    0.0000 C   0  0  0  0  0  0  0  0  0  0  0  0
   -1.6741    1.2248    0.0000 C   0  0  0  0  0  0  0  0  0  0  0  0
   -2.4174    0.0038    0.0000 C   0  0  0  0  0  0  0  0  0  0  0  0
   -1.7367   -1.2456    0.0000 O   0  0  0  0  0  0  0  0  0  0  0  0
   -0.7489   -2.5424    0.0000 C   0  0  0  0  0  0  0  0  0  0  0  0
    0.0758   -2.5614    0.0000 C   0  0  0  0  0  0  0  0  0  0  0  0
    1.8656   -0.1062    0.0000 C   0  0  0  0  0  0  0  0  0  0  0  0
   -0.2237    2.0097    0.0000 C   0  0  0  0  0  0  0  0  0  0  0  0
   -1.6533    2.0438    0.0000 C   0  0  0  0  0  0  0  0  0  0  0  0
   -3.1207    0.4342    0.0000 C   0  0  0  0  0  0  0  0  0  0  0  0
    2.5709   -0.5328    0.0000 C   0  0  0  0  0  0  0  0  0  0  0  0
    1.8864    0.7186    0.0000 C   0  0  0  0  0  0  0  0  0  0  0  0
   -0.9271    2.4439    0.0000 C   0  0  0  0  0  0  0  0  0  0  0  0
    3.2952   -0.1403    0.0000 C   0  0  0  0  0  0  0  0  0  0  0  0
    2.6126    1.1167    0.0000 C   0  0  0  0  0  0  0  0  0  0  0  0
    3.3160    0.6844    0.0000 C   0  0  0  0  0  0  0  0  0  0  0  0
  1  2  1  0  0  0  0
  1  3  1  0  0  0  0
  1  4  1  0  0  0  0
  2  5  1  0  0  0  0
  2  6  1  0  0  0  0
  3  7  2  0  0  0  0
  3  8  1  0  0  0  0
  4  9  1  0  0  0  0
  4 10  2  0  0  0  0
  5 11  2  0  0  0  0
  5 12  1  0  0  0  0
  6 13  1  0  0  0  0
  6 14  2  0  0  0  0
  7 15  1  0  0  0  0
  8 16  1  0  0  0  0
  9 17  1  0  0  0  0
 11 18  1  0  0  0  0
 12 19  2  0  0  0  0
 13 20  3  0  0  0  0
 15 16  2  0  0  0  0
 17 21  1  0  0  0  0
 17 22  1  0  0  0  0
 18 23  2  0  0  0  0
 19 23  1  0  0  0  0
 21 24  1  0  0  0  0
 22 25  1  0  0  0  0
 24 26  1  0  0  0  0
 25 26  1  0  0  0  0
M  END
> <CdId>
353

> <Mol Weight>
366.477

> <Formula>
C21H22N2O2S

> <Click_ID>
CLK005_D04 __ __ 

$$$$
