CLK051E07
 OpenBabel03181410512D

 24 25  0  0  0  0  0  0  0  0999 V2000
   -0.9542   -0.5833    0.0000 C   0  0  0  0  0  0  0  0  0  0  0  0
    1.9042    4.3625    0.0000 C   0  0  0  0  0  0  0  0  0  0  0  0
    1.9042    5.1875    0.0000 C   0  0  0  0  0  0  0  0  0  0  0  0
    0.4750    1.0667    0.0000 C   0  0  0  0  0  0  0  0  0  0  0  0
    0.4750    1.8917    0.0000 N   0  0  0  0  0  0  0  0  0  0  0  0
   -0.2417   -0.1708    0.0000 N   0  0  0  0  0  0  0  0  0  0  0  0
   -0.9542   -1.4083    0.0000 N   0  0  0  0  0  0  0  0  0  0  0  0
   -1.6708   -0.1708    0.0000 O   0  0  0  0  0  0  0  0  0  0  0  0
    1.1875    2.3042    0.0000 C   0  0  0  0  0  0  0  0  0  0  0  0
    1.1875    0.6542    0.0000 O   0  0  0  0  0  0  0  0  0  0  0  0
    1.9042    3.5417    0.0000 C   0  0  0  0  0  0  0  0  0  0  0  0
   -0.2417    0.6542    0.0000 C   0  0  0  0  0  0  0  0  0  0  0  0
    1.1875    3.1292    0.0000 C   0  0  0  0  0  0  0  0  0  0  0  0
   -1.6708   -1.8208    0.0000 C   0  0  0  0  0  0  0  0  0  0  0  0
   -1.6708   -2.6458    0.0000 C   0  0  0  0  0  0  0  0  0  0  0  0
   -1.6708   -4.2958    0.0000 C   0  0  0  0  0  0  0  0  0  0  0  0
   -0.9542   -3.0583    0.0000 C   0  0  0  0  0  0  0  0  0  0  0  0
   -2.3833   -3.0583    0.0000 C   0  0  0  0  0  0  0  0  0  0  0  0
   -0.9542   -3.8833    0.0000 C   0  0  0  0  0  0  0  0  0  0  0  0
   -2.3833   -3.8833    0.0000 C   0  0  0  0  0  0  0  0  0  0  0  0
    2.6167    2.3042    0.0000 C   0  0  0  0  0  0  0  0  0  0  0  0
    1.9042    1.8917    0.0000 C   0  0  0  0  0  0  0  0  0  0  0  0
    2.6167    3.1292    0.0000 C   0  0  0  0  0  0  0  0  0  0  0  0
   -1.6708   -5.1208    0.0000 C   0  0  0  0  0  0  0  0  0  0  0  0
  2 11  1  0  0  0  0
  3  2  3  0  0  0  0
  4 12  1  0  0  0  0
  5  4  1  0  0  0  0
  6  1  1  0  0  0  0
  7  1  1  0  0  0  0
  8  1  2  0  0  0  0
  9  5  1  0  0  0  0
 10  4  2  0  0  0  0
 11 13  1  0  0  0  0
 12  6  1  0  0  0  0
 13  9  2  0  0  0  0
 14  7  1  0  0  0  0
 15 14  1  0  0  0  0
 16 20  2  0  0  0  0
 17 15  1  0  0  0  0
 18 15  2  0  0  0  0
 19 17  2  0  0  0  0
 19 16  1  0  0  0  0
 20 18  1  0  0  0  0
 21 22  2  0  0  0  0
 22  9  1  0  0  0  0
 23 11  2  0  0  0  0
 23 21  1  0  0  0  0
 24 16  1  0  0  0  0
M  END
> <CdId>
3933

> <Mol Weight>
321.3731

> <Formula>
C19H19N3O2

> <Click_ID>
CLK051E07 __ __ 

$$$$
