CLK017_G05
 OpenBabel03181410512D

 32 34  0  0  0  0  0  0  0  0999 V2000
   -0.7821    1.2939    0.0000 N   0  0  0  0  0  0  0  0  0  0  0  0
   -0.5325    0.5075    0.0000 C   0  0  0  0  0  0  0  0  0  0  0  0
   -0.1206    1.7724    0.0000 C   0  0  0  0  0  0  0  0  0  0  0  0
    0.5492    1.2939    0.0000 C   0  0  0  0  0  0  0  0  0  0  0  0
    0.2913    0.5075    0.0000 N   0  0  0  0  0  0  0  0  0  0  0  0
    1.3355    1.5435    0.0000 C   0  0  0  0  0  0  0  0  0  0  0  0
    1.5020    2.3548    0.0000 C   0  0  0  0  0  0  0  0  0  0  0  0
    1.0651    3.7153    0.0000 C   0  0  0  0  0  0  0  0  0  0  0  0
    1.8514    3.9649    0.0000 C   0  0  0  0  0  0  0  0  0  0  0  0
   -1.5685    1.5435    0.0000 C   0  0  0  0  0  0  0  0  0  0  0  0
    2.4630    3.4157    0.0000 C   0  0  0  0  0  0  0  0  0  0  0  0
    3.0122    5.8163    0.0000 C   0  0  0  0  0  0  0  0  0  0  0  0
    3.1869    6.6276    0.0000 C   0  0  0  0  0  0  0  0  0  0  0  0
   -1.0193   -0.1540    0.0000 O   0  0  0  0  0  0  0  0  0  0  0  0
   -0.1206    2.5961    0.0000 O   0  0  0  0  0  0  0  0  0  0  0  0
    0.8904    2.9082    0.0000 C   0  0  0  0  0  0  0  0  0  0  0  0
    2.2883    2.6044    0.0000 C   0  0  0  0  0  0  0  0  0  0  0  0
    3.8609    3.1162    0.0000 C   0  0  0  0  0  0  0  0  0  0  0  0
    4.6473    3.3700    0.0000 C   0  0  0  0  0  0  0  0  0  0  0  0
   -1.7432    2.3465    0.0000 C   0  0  0  0  0  0  0  0  0  0  0  0
   -2.0719    3.9649    0.0000 C   0  0  0  0  0  0  0  0  0  0  0  0
    0.4660    4.2686    0.0000 O   0  0  0  0  0  0  0  0  0  0  0  0
    2.0387    4.7596    0.0000 O   0  0  0  0  0  0  0  0  0  0  0  0
    3.2494    3.6695    0.0000 C   0  0  0  0  0  0  0  0  0  0  0  0
   -2.2467    4.7679    0.0000 F   0  0  0  0  0  0  0  0  0  0  0  0
   -2.5170    2.6044    0.0000 C   0  0  0  0  0  0  0  0  0  0  0  0
   -1.1233    2.9040    0.0000 C   0  0  0  0  0  0  0  0  0  0  0  0
   -2.6918    3.4157    0.0000 C   0  0  0  0  0  0  0  0  0  0  0  0
   -1.2939    3.7070    0.0000 C   0  0  0  0  0  0  0  0  0  0  0  0
    2.8333    5.0092    0.0000 C   0  0  0  0  0  0  0  0  0  0  0  0
   -0.3078    4.0190    0.0000 C   0  0  0  0  0  0  0  0  0  0  0  0
   -0.9194    4.5724    0.0000 C   0  0  0  0  0  0  0  0  0  0  0  0
  2  1  1  0  0  0  0
  3  1  1  0  0  0  0
  4  3  1  0  0  0  0
  4  5  1  0  0  0  0
  5  2  1  0  0  0  0
  6  4  2  0  0  0  0
  7  6  1  0  0  0  0
  8 16  1  0  0  0  0
  9 11  1  0  0  0  0
  9  8  2  0  0  0  0
 10  1  1  0  0  0  0
 11 17  2  0  0  0  0
 12 30  1  0  0  0  0
 13 12  3  0  0  0  0
 14  2  2  0  0  0  0
 15  3  2  0  0  0  0
 16  7  2  0  0  0  0
 17  7  1  0  0  0  0
 18 24  1  0  0  0  0
 19 18  2  0  0  0  0
 20 10  1  0  0  0  0
 21 29  2  0  0  0  0
 21 28  1  0  0  0  0
 22  8  1  0  0  0  0
 23  9  1  0  0  0  0
 24 11  1  0  0  0  0
 25 21  1  0  0  0  0
 26 20  1  0  0  0  0
 27 20  2  0  0  0  0
 28 26  2  0  0  0  0
 29 27  1  0  0  0  0
 30 23  1  0  0  0  0
 31 22  1  0  0  0  0
 32 31  1  0  0  0  0
M  END
> <CdId>
1300

> <Mol Weight>
434.4595

> <Formula>
C25H23FN2O4

> <Click_ID>
CLK017_G05 __ __ 

$$$$
