CLK029_H06
 OpenBabel03181410512D

 21 23  0  0  0  0  0  0  0  0999 V2000
   -3.7519    1.6406    0.0000 N   0  0  0  0  0  0  0  0  0  0  0  0
   -2.3581    1.3436    0.0000 C   0  0  0  0  0  0  0  0  0  0  0  0
   -1.7503    0.7952    0.0000 N   0  0  0  0  0  0  0  0  0  0  0  0
   -4.5608    1.4623    0.0000 C   0  0  0  0  0  0  0  0  0  0  0  0
   -1.0373    1.2065    0.0000 C   0  0  0  0  0  0  0  0  0  0  0  0
   -2.0245    2.0930    0.0000 N   0  0  0  0  0  0  0  0  0  0  0  0
   -1.2065    2.0107    0.0000 N   0  0  0  0  0  0  0  0  0  0  0  0
   -4.9721    2.1753    0.0000 S   0  0  0  0  0  0  0  0  0  0  0  0
   -3.1349    1.0922    0.0000 C   0  0  0  0  0  0  0  0  0  0  0  0
   -3.6605    2.4541    0.0000 C   0  0  0  0  0  0  0  0  0  0  0  0
   -4.4100    2.7922    0.0000 C   0  0  0  0  0  0  0  0  0  0  0  0
    1.1425    1.0145    0.0000 C   0  0  0  0  0  0  0  0  0  0  0  0
    1.8966    0.6809    0.0000 C   0  0  0  0  0  0  0  0  0  0  0  0
   -4.8898    0.7083    0.0000 O   0  0  0  0  0  0  0  0  0  0  0  0
   -0.2833    0.8728    0.0000 S   0  0  0  0  0  0  0  0  0  0  0  0
   -1.8234   -0.0274    0.0000 C   0  0  0  0  0  0  0  0  0  0  0  0
    0.3885    1.3527    0.0000 C   0  0  0  0  0  0  0  0  0  0  0  0
   -2.9887    2.9430    0.0000 C   0  0  0  0  0  0  0  0  0  0  0  0
   -4.4968    3.6148    0.0000 C   0  0  0  0  0  0  0  0  0  0  0  0
   -3.0710    3.7656    0.0000 C   0  0  0  0  0  0  0  0  0  0  0  0
   -3.8341    4.0946    0.0000 C   0  0  0  0  0  0  0  0  0  0  0  0
  2  9  1  0  0  0  0
  3  2  1  0  0  0  0
  4  1  1  0  0  0  0
  5  3  1  0  0  0  0
  5  7  2  0  0  0  0
  6  2  2  0  0  0  0
  7  6  1  0  0  0  0
  8  4  1  0  0  0  0
  9  1  1  0  0  0  0
 10  1  1  0  0  0  0
 11 10  2  0  0  0  0
 11  8  1  0  0  0  0
 12 17  1  0  0  0  0
 13 12  3  0  0  0  0
 14  4  2  0  0  0  0
 15  5  1  0  0  0  0
 16  3  1  0  0  0  0
 17 15  1  0  0  0  0
 18 10  1  0  0  0  0
 19 11  1  0  0  0  0
 19 21  2  0  0  0  0
 20 18  2  0  0  0  0
 21 20  1  0  0  0  0
M  END
> <CdId>
2240

> <Mol Weight>
316.401

> <Formula>
C14H12N4OS2

> <Click_ID>
CLK029_H06 __ __ 

$$$$
