CLK006_H08
 OpenBabel03181410512D

 22 23  0  0  0  0  0  0  0  0999 V2000
   -0.0764   -1.4274    0.0000 C   0  0  0  0  0  0  0  0  0  0  0  0
   -0.7467   -0.9412    0.0000 C   0  0  0  0  0  0  0  0  0  0  0  0
    0.7154   -1.1669    0.0000 C   0  0  0  0  0  0  0  0  0  0  0  0
   -0.3334   -2.2228    0.0000 N   0  0  0  0  0  0  0  0  0  0  0  0
   -1.4240   -1.4274    0.0000 N   0  0  0  0  0  0  0  0  0  0  0  0
   -0.7571   -0.1111    0.0000 O   0  0  0  0  0  0  0  0  0  0  0  0
    0.8891   -0.3751    0.0000 C   0  0  0  0  0  0  0  0  0  0  0  0
   -1.1635   -2.2228    0.0000 C   0  0  0  0  0  0  0  0  0  0  0  0
   -2.2089   -1.1669    0.0000 C   0  0  0  0  0  0  0  0  0  0  0  0
    1.6602   -0.1216    0.0000 C   0  0  0  0  0  0  0  0  0  0  0  0
    0.2744    0.1911    0.0000 C   0  0  0  0  0  0  0  0  0  0  0  0
   -1.6532   -2.8931    0.0000 O   0  0  0  0  0  0  0  0  0  0  0  0
   -2.3860   -0.3612    0.0000 C   0  0  0  0  0  0  0  0  0  0  0  0
    1.8477    0.6842    0.0000 C   0  0  0  0  0  0  0  0  0  0  0  0
    0.4619    0.9863    0.0000 C   0  0  0  0  0  0  0  0  0  0  0  0
   -1.7678    0.1945    0.0000 O   0  0  0  0  0  0  0  0  0  0  0  0
   -3.1744   -0.0973    0.0000 O   0  0  0  0  0  0  0  0  0  0  0  0
    1.2399    1.2364    0.0000 C   0  0  0  0  0  0  0  0  0  0  0  0
    1.4204    2.0283    0.0000 O   0  0  0  0  0  0  0  0  0  0  0  0
    2.2089    2.2818    0.0000 C   0  0  0  0  0  0  0  0  0  0  0  0
    2.3895    3.0702    0.0000 C   0  0  0  0  0  0  0  0  0  0  0  0
    2.5805    3.8655    0.0000 C   0  0  0  0  0  0  0  0  0  0  0  0
  1  2  1  0  0  0  0
  1  3  2  0  0  0  0
  1  4  1  0  0  0  0
  2  5  1  0  0  0  0
  2  6  2  0  0  0  0
  3  7  1  0  0  0  0
  4  8  1  0  0  0  0
  5  9  1  0  0  0  0
  5  8  1  0  0  0  0
  7 10  1  0  0  0  0
  7 11  2  0  0  0  0
  8 12  2  0  0  0  0
  9 13  1  0  0  0  0
 10 14  2  0  0  0  0
 11 15  1  0  0  0  0
 13 16  1  0  0  0  0
 13 17  2  0  0  0  0
 14 18  1  0  0  0  0
 15 18  2  0  0  0  0
 18 19  1  0  0  0  0
 19 20  1  0  0  0  0
 20 21  1  0  0  0  0
 21 22  3  0  0  0  0
M  END
> <CdId>
477

> <Mol Weight>
300.2662

> <Formula>
C15H12N2O5

> <Click_ID>
CLK006_H08 __ __ 

$$$$
