CLK017_D02
 OpenBabel03181410512D

 32 35  0  0  0  0  0  0  0  0999 V2000
    0.7745   -0.1833    0.0000 C    0  0  0  0  0  0  0  0  0  0  0  0
    0.0459    1.0402    0.0000 C    0  0  0  0  0  0  0  0  0  0  0  0
    0.7470    1.4527    0.0000 C    0  0  0  0  0  0  0  0  0  0  0  0
    1.4757    0.2337    0.0000 C    0  0  0  0  0  0  0  0  0  0  0  0
    1.4619    1.0540    0.0000 N    0  0  0  0  0  0  0  0  0  0  0  0
    0.0550    0.2154    0.0000 C    0  0  3  0  0  0  0  0  0  0  0  0
    0.7745   -1.0036    0.0000 C    0  0  0  0  0  0  0  0  0  0  0  0
   -0.6737    1.4389    0.0000 C    0  0  0  0  0  0  0  0  0  0  0  0
   -1.2190   -0.5408    0.0000 C    0  0  0  0  0  0  0  0  0  0  0  0
    0.7333    2.2913    0.0000 C    0  0  0  0  0  0  0  0  0  0  0  0
    2.1997   -0.1650    0.0000 C    0  0  0  0  0  0  0  0  0  0  0  0
    2.2043   -0.9945    0.0000 C    0  0  0  0  0  0  0  0  0  0  0  0
    0.0184    2.6763    0.0000 C    0  0  0  0  0  0  0  0  0  0  0  0
   -2.6900    1.9110    0.0000 C    0  0  0  0  0  0  0  0  0  0  0  0
    1.5032   -1.4069    0.0000 C    0  0  0  0  0  0  0  0  0  0  0  0
   -0.6828    2.2638    0.0000 C    0  0  0  0  0  0  0  0  0  0  0  0
   -3.4095    2.3188    0.0000 C    0  0  0  0  0  0  0  0  0  0  0  0
   -1.9476   -0.1421    0.0000 C    0  0  0  0  0  0  0  0  0  0  0  0
   -1.2098   -1.3657    0.0000 C    0  0  0  0  0  0  0  0  0  0  0  0
   -1.3886    1.0174    0.0000 O    0  0  0  0  0  0  0  0  0  0  0  0
    0.0596   -1.4344    0.0000 O    0  0  0  0  0  0  0  0  0  0  0  0
   -2.6534   -0.5637    0.0000 C    0  0  0  0  0  0  0  0  0  0  0  0
   -1.9201   -1.7919    0.0000 C    0  0  0  0  0  0  0  0  0  0  0  0
    2.1768    1.4802    0.0000 C    0  0  0  0  0  0  0  0  0  0  0  0
   -2.6396   -1.3932    0.0000 C    0  0  0  0  0  0  0  0  0  0  0  0
   -1.9064   -2.6168    0.0000 Br   0  0  0  0  0  0  0  0  0  0  0  0
   -1.9614    0.6828    0.0000 O    0  0  0  0  0  0  0  0  0  0  0  0
   -2.6763    1.0861    0.0000 C    0  0  0  0  0  0  0  0  0  0  0  0
    0.0046    3.5149    0.0000 C    0  0  0  0  0  0  0  0  0  0  0  0
   -0.8111    2.6625    0.0000 C    0  0  0  0  0  0  0  0  0  0  0  0
    2.9330   -1.4023    0.0000 C    0  0  0  0  0  0  0  0  0  0  0  0
    1.8010   -1.7231    0.0000 C    0  0  0  0  0  0  0  0  0  0  0  0
  2  6  1  0  0  0  0
  3  2  2  0  0  0  0
  3  5  1  0  0  0  0
  4  1  2  0  0  0  0
  5  4  1  0  0  0  0
  6  1  1  0  0  0  0
  7  1  1  0  0  0  0
  8  2  1  0  0  0  0
  9  6  1  0  0  0  0
 10  3  1  0  0  0  0
 10 13  1  0  0  0  0
 11  4  1  0  0  0  0
 12 15  1  0  0  0  0
 12 11  1  0  0  0  0
 13 16  1  0  0  0  0
 14 28  1  0  0  0  0
 15  7  1  0  0  0  0
 16  8  1  0  0  0  0
 17 14  3  0  0  0  0
 18  9  1  0  0  0  0
 19  9  2  0  0  0  0
 20  8  2  0  0  0  0
 21  7  2  0  0  0  0
 22 18  2  0  0  0  0
 23 19  1  0  0  0  0
 24  5  1  0  0  0  0
 25 23  2  0  0  0  0
 25 22  1  0  0  0  0
 26 23  1  0  0  0  0
 27 18  1  0  0  0  0
 28 27  1  0  0  0  0
 29 13  1  0  0  0  0
 30 13  1  0  0  0  0
 31 12  1  0  0  0  0
 32 12  1  0  0  0  0
M  END
> <CdId>
1267

> <Mol Weight>
496.436

> <Formula>
C27H30BrNO3

> <Click_ID>
CLK017_D02 __ __ 

$$$$
