CLK023_C05
 OpenBabel03181410512D

 31 33  0  0  0  0  0  0  0  0999 V2000
    2.1209    0.8215    0.0000 N    0  0  0  0  0  0  0  0  0  0  0  0
    0.6978    0.8215    0.0000 C    0  0  0  0  0  0  0  0  0  0  0  0
    1.4093    1.2410    0.0000 C    0  0  0  0  0  0  0  0  0  0  0  0
    2.1209   -0.0068    0.0000 C    0  0  0  0  0  0  0  0  0  0  0  0
    1.4093   -0.4193    0.0000 N    0  0  0  0  0  0  0  0  0  0  0  0
    0.6978   -0.0068    0.0000 C    0  0  0  0  0  0  0  0  0  0  0  0
   -0.0241    1.2340    0.0000 C    0  0  0  0  0  0  0  0  0  0  0  0
   -2.1485   -0.0206    0.0000 C    0  0  0  0  0  0  0  0  0  0  0  0
   -2.1485    0.8044    0.0000 C    0  0  0  0  0  0  0  0  0  0  0  0
   -1.4369   -0.4263    0.0000 C    0  0  0  0  0  0  0  0  0  0  0  0
    2.8359    1.2307    0.0000 C    0  0  0  0  0  0  0  0  0  0  0  0
   -0.7322    0.8182    0.0000 C    0  0  0  0  0  0  0  0  0  0  0  0
   -4.2900   -0.4297    0.0000 C    0  0  0  0  0  0  0  0  0  0  0  0
    2.8359   -0.4193    0.0000 O    0  0  0  0  0  0  0  0  0  0  0  0
   -5.0050   -0.8422    0.0000 C    0  0  0  0  0  0  0  0  0  0  0  0
    1.4093    2.0660    0.0000 O    0  0  0  0  0  0  0  0  0  0  0  0
   -1.4438    1.2169    0.0000 C    0  0  0  0  0  0  0  0  0  0  0  0
   -0.7253   -0.0138    0.0000 C    0  0  0  0  0  0  0  0  0  0  0  0
   -0.0241   -0.4193    0.0000 O    0  0  0  0  0  0  0  0  0  0  0  0
    2.8359    2.0557    0.0000 C    0  0  0  0  0  0  0  0  0  0  0  0
    3.5543    0.8182    0.0000 C    0  0  0  0  0  0  0  0  0  0  0  0
   -2.8669    1.2100    0.0000 Cl   0  0  0  0  0  0  0  0  0  0  0  0
   -2.8600   -0.4297    0.0000 O    0  0  0  0  0  0  0  0  0  0  0  0
    4.2797    2.0522    0.0000 C    0  0  0  0  0  0  0  0  0  0  0  0
   -1.4369   -1.2410    0.0000 O    0  0  0  0  0  0  0  0  0  0  0  0
    4.2728    1.2203    0.0000 C    0  0  0  0  0  0  0  0  0  0  0  0
    3.5613    2.4682    0.0000 C    0  0  0  0  0  0  0  0  0  0  0  0
    5.0050    2.4578    0.0000 Cl   0  0  0  0  0  0  0  0  0  0  0  0
   -3.5784   -0.0206    0.0000 C    0  0  0  0  0  0  0  0  0  0  0  0
   -0.7219   -1.6432    0.0000 C    0  0  0  0  0  0  0  0  0  0  0  0
   -0.7219   -2.4647    0.0000 C    0  0  0  0  0  0  0  0  0  0  0  0
  2  3  1  0  0  0  0
  2  6  1  0  0  0  0
  3  1  1  0  0  0  0
  4  1  1  0  0  0  0
  5  4  1  0  0  0  0
  6  5  1  0  0  0  0
  7  2  2  0  0  0  0
  8 10  2  0  0  0  0
  9 17  2  0  0  0  0
  9  8  1  0  0  0  0
 10 18  1  0  0  0  0
 11  1  1  0  0  0  0
 12  7  1  0  0  0  0
 13 29  1  0  0  0  0
 14  4  2  0  0  0  0
 15 13  3  0  0  0  0
 16  3  2  0  0  0  0
 17 12  1  0  0  0  0
 18 12  2  0  0  0  0
 19  6  2  0  0  0  0
 20 11  1  0  0  0  0
 21 11  2  0  0  0  0
 22  9  1  0  0  0  0
 23  8  1  0  0  0  0
 24 26  2  0  0  0  0
 25 10  1  0  0  0  0
 26 21  1  0  0  0  0
 27 20  2  0  0  0  0
 27 24  1  0  0  0  0
 28 24  1  0  0  0  0
 29 23  1  0  0  0  0
 30 25  1  0  0  0  0
 31 30  1  0  0  0  0
M  END
> <CdId>
1720

> <Mol Weight>
459.279

> <Formula>
C22H16Cl2N2O5

> <Click_ID>
CLK023_C05 __ __ 

$$$$
