CLK004_F05
 OpenBabel03181410512D

 26 28  0  0  0  0  0  0  0  0999 V2000
    0.9217    0.1070    0.0000 C   0  0  3  0  0  0  0  0  0  0  0  0
    1.3360   -0.6076    0.0000 C   0  0  0  0  0  0  0  0  0  0  0  0
    0.0967    0.1070    0.0000 C   0  0  0  0  0  0  0  0  0  0  0  0
    1.3394    0.8112    0.0000 C   0  0  0  0  0  0  0  0  0  0  0  0
    2.1610   -0.6145    0.0000 C   0  0  0  0  0  0  0  0  0  0  0  0
    0.9217   -1.3186    0.0000 C   0  0  0  0  0  0  0  0  0  0  0  0
   -0.3141    0.8319    0.0000 C   0  0  0  0  0  0  0  0  0  0  0  0
   -0.3245   -0.6076    0.0000 C   0  0  0  0  0  0  0  0  0  0  0  0
    2.1610    0.8078    0.0000 C   0  0  0  0  0  0  0  0  0  0  0  0
    0.9251    1.5327    0.0000 C   0  0  0  0  0  0  0  0  0  0  0  0
    2.5649    0.0932    0.0000 O   0  0  0  0  0  0  0  0  0  0  0  0
    2.5649   -1.3186    0.0000 C   0  0  0  0  0  0  0  0  0  0  0  0
    1.3255   -2.0332    0.0000 C   0  0  0  0  0  0  0  0  0  0  0  0
    0.0967   -1.3186    0.0000 O   0  0  0  0  0  0  0  0  0  0  0  0
   -1.1391    0.8319    0.0000 C   0  0  0  0  0  0  0  0  0  0  0  0
   -1.1530   -0.5937    0.0000 C   0  0  0  0  0  0  0  0  0  0  0  0
    2.5787    1.5189    0.0000 N   0  0  0  0  0  0  0  0  0  0  0  0
    0.5247    2.2473    0.0000 N   0  0  0  0  0  0  0  0  0  0  0  0
    2.1610   -2.0332    0.0000 C   0  0  0  0  0  0  0  0  0  0  0  0
   -1.5569    0.1173    0.0000 C   0  0  0  0  0  0  0  0  0  0  0  0
   -1.5534    1.5465    0.0000 O   0  0  0  0  0  0  0  0  0  0  0  0
   -2.3819    0.1173    0.0000 O   0  0  0  0  0  0  0  0  0  0  0  0
   -2.3785    1.5500    0.0000 C   0  0  0  0  0  0  0  0  0  0  0  0
   -2.8031   -0.5903    0.0000 C   0  0  0  0  0  0  0  0  0  0  0  0
   -3.6281   -0.5937    0.0000 C   0  0  0  0  0  0  0  0  0  0  0  0
   -4.4463   -0.5834    0.0000 C   0  0  0  0  0  0  0  0  0  0  0  0
  1  2  1  0  0  0  0
  1  3  1  0  0  0  0
  1  4  1  0  0  0  0
  2  5  2  0  0  0  0
  2  6  1  0  0  0  0
  3  7  2  0  0  0  0
  3  8  1  0  0  0  0
  4  9  2  0  0  0  0
  4 10  1  0  0  0  0
  5 11  1  0  0  0  0
  5 12  1  0  0  0  0
  6 13  1  0  0  0  0
  6 14  2  0  0  0  0
  7 15  1  0  0  0  0
  8 16  2  0  0  0  0
  9 17  1  0  0  0  0
  9 11  1  0  0  0  0
 10 18  3  0  0  0  0
 12 19  1  0  0  0  0
 13 19  1  0  0  0  0
 15 20  2  0  0  0  0
 15 21  1  0  0  0  0
 16 20  1  0  0  0  0
 20 22  1  0  0  0  0
 21 23  1  0  0  0  0
 22 24  1  0  0  0  0
 24 25  1  0  0  0  0
 25 26  3  0  0  0  0
M  END
> <CdId>
294

> <Mol Weight>
350.3679

> <Formula>
C20H18N2O4

> <Click_ID>
CLK004_F05 __ __ 

$$$$
