CLK011_B08
 OpenBabel03181410512D

 30 32  0  0  0  0  0  0  0  0999 V2000
    2.4095   -1.4338    0.0000 N    0  0  0  0  0  0  0  0  0  0  0  0
    1.6949   -1.0216    0.0000 C    0  0  0  0  0  0  0  0  0  0  0  0
    3.1241   -1.0216    0.0000 C    0  0  0  0  0  0  0  0  0  0  0  0
    1.6949   -0.1970    0.0000 C    0  0  0  0  0  0  0  0  0  0  0  0
    3.1241   -0.1970    0.0000 N    0  0  0  0  0  0  0  0  0  0  0  0
    2.4095    0.2153    0.0000 C    0  0  0  0  0  0  0  0  0  0  0  0
    2.4095   -2.2584    0.0000 C    0  0  0  0  0  0  0  0  0  0  0  0
    0.9895    0.2153    0.0000 C    0  0  0  0  0  0  0  0  0  0  0  0
   -1.1544   -1.0216    0.0000 C    0  0  0  0  0  0  0  0  0  0  0  0
   -0.4398   -1.4338    0.0000 C    0  0  0  0  0  0  0  0  0  0  0  0
   -1.1544   -0.1970    0.0000 C    0  0  0  0  0  0  0  0  0  0  0  0
    0.2748   -0.1970    0.0000 C    0  0  0  0  0  0  0  0  0  0  0  0
   -2.5836   -2.6706    0.0000 C    0  0  0  0  0  0  0  0  0  0  0  0
    3.8387   -1.4338    0.0000 O    0  0  0  0  0  0  0  0  0  0  0  0
    0.9895   -1.4338    0.0000 O    0  0  0  0  0  0  0  0  0  0  0  0
   -2.5836   -3.4952    0.0000 C    0  0  0  0  0  0  0  0  0  0  0  0
    0.2748   -1.0216    0.0000 C    0  0  0  0  0  0  0  0  0  0  0  0
   -0.4398    0.2153    0.0000 C    0  0  0  0  0  0  0  0  0  0  0  0
    2.4095    1.0398    0.0000 O    0  0  0  0  0  0  0  0  0  0  0  0
    3.1241   -2.6706    0.0000 C    0  0  0  0  0  0  0  0  0  0  0  0
   -0.4398   -2.2584    0.0000 Br   0  0  0  0  0  0  0  0  0  0  0  0
   -1.8690   -1.4338    0.0000 O    0  0  0  0  0  0  0  0  0  0  0  0
   -1.8690    0.2153    0.0000 O    0  0  0  0  0  0  0  0  0  0  0  0
    3.8387   -2.2584    0.0000 F    0  0  0  0  0  0  0  0  0  0  0  0
   -1.8690   -2.2584    0.0000 C    0  0  0  0  0  0  0  0  0  0  0  0
    1.6949   -2.6706    0.0000 C    0  0  0  0  0  0  0  0  0  0  0  0
    3.1241   -3.4952    0.0000 C    0  0  0  0  0  0  0  0  0  0  0  0
   -1.8690    1.0398    0.0000 C    0  0  0  0  0  0  0  0  0  0  0  0
    1.6949   -3.4952    0.0000 C    0  0  0  0  0  0  0  0  0  0  0  0
    2.4095   -3.9074    0.0000 C    0  0  0  0  0  0  0  0  0  0  0  0
  2  1  1  0  0  0  0
  3  1  1  0  0  0  0
  4  2  1  0  0  0  0
  5  3  1  0  0  0  0
  6  5  1  0  0  0  0
  6  4  1  0  0  0  0
  7  1  1  0  0  0  0
  8  4  2  0  0  0  0
  9 11  1  0  0  0  0
  9 10  2  0  0  0  0
 10 17  1  0  0  0  0
 11 18  2  0  0  0  0
 12  8  1  0  0  0  0
 13 25  1  0  0  0  0
 14  3  2  0  0  0  0
 15  2  2  0  0  0  0
 16 13  3  0  0  0  0
 17 12  2  0  0  0  0
 18 12  1  0  0  0  0
 19  6  2  0  0  0  0
 20  7  2  0  0  0  0
 21 10  1  0  0  0  0
 22  9  1  0  0  0  0
 23 11  1  0  0  0  0
 24 20  1  0  0  0  0
 25 22  1  0  0  0  0
 26  7  1  0  0  0  0
 27 20  1  0  0  0  0
 27 30  2  0  0  0  0
 28 23  1  0  0  0  0
 29 26  2  0  0  0  0
 30 29  1  0  0  0  0
M  END
> <CdId>
773

> <Mol Weight>
473.249

> <Formula>
C21H14BrFN2O5

> <Click_ID>
CLK011_B08 __ __ 

$$$$
