CLK019_A09
 OpenBabel03181410512D

 20 20  0  0  0  0  0  0  0  0999 V2000
   -0.0737   -0.0153    0.0000 C   0  0  0  0  0  0  0  0  0  0  0  0
    0.3355   -0.7156    0.0000 N   0  0  0  0  0  0  0  0  0  0  0  0
    1.1605   -0.7200    0.0000 C   0  0  0  0  0  0  0  0  0  0  0  0
   -1.7470    1.4407    0.0000 C   0  0  0  0  0  0  0  0  0  0  0  0
   -0.8965   -0.0153    0.0000 N   0  0  0  0  0  0  0  0  0  0  0  0
   -2.1774    2.1555    0.0000 C   0  0  0  0  0  0  0  0  0  0  0  0
   -1.3159    0.7076    0.0000 C   0  0  0  0  0  0  0  0  0  0  0  0
    1.5698   -0.0153    0.0000 C   0  0  0  0  0  0  0  0  0  0  0  0
    0.3355    0.6995    0.0000 O   0  0  0  0  0  0  0  0  0  0  0  0
    1.5654   -1.4297    0.0000 C   0  0  0  0  0  0  0  0  0  0  0  0
    2.3948   -0.0204    0.0000 C   0  0  0  0  0  0  0  0  0  0  0  0
    2.3904   -1.4297    0.0000 C   0  0  0  0  0  0  0  0  0  0  0  0
    2.8011   -0.7251    0.0000 C   0  0  0  0  0  0  0  0  0  0  0  0
    1.1562    0.7076    0.0000 O   0  0  0  0  0  0  0  0  0  0  0  0
   -2.0578    0.2684    0.0000 C   0  0  0  0  0  0  0  0  0  0  0  0
   -0.7309    1.0832    0.0000 C   0  0  0  0  0  0  0  0  0  0  0  0
    2.8011   -2.1555    0.0000 C   0  0  0  0  0  0  0  0  0  0  0  0
    1.5559    1.4231    0.0000 C   0  0  0  0  0  0  0  0  0  0  0  0
   -2.8011    0.6718    0.0000 C   0  0  0  0  0  0  0  0  0  0  0  0
   -0.7309    1.8893    0.0000 C   0  0  0  0  0  0  0  0  0  0  0  0
  2  1  1  0  0  0  0
  3  2  1  0  0  0  0
  4  7  1  0  0  0  0
  5  1  1  0  0  0  0
  6  4  3  0  0  0  0
  7  5  1  0  0  0  0
  8  3  2  0  0  0  0
  9  1  2  0  0  0  0
 10  3  1  0  0  0  0
 11  8  1  0  0  0  0
 12 10  2  0  0  0  0
 13 12  1  0  0  0  0
 13 11  2  0  0  0  0
 14  8  1  0  0  0  0
 15  7  1  0  0  0  0
 16  7  1  0  0  0  0
 17 12  1  0  0  0  0
 18 14  1  0  0  0  0
 19 15  1  0  0  0  0
 20 16  1  0  0  0  0
M  END
> <CdId>
1404

> <Mol Weight>
274.3581

> <Formula>
C16H22N2O2

> <Click_ID>
CLK019_A09 __ __ 

$$$$
