CLK035_A11
 OpenBabel03181410512D

 25 27  0  0  0  0  0  0  0  0999 V2000
   -0.5507    2.2071    0.0000 C   0  0  0  0  0  0  0  0  0  0  0  0
    0.2439    2.4677    0.0000 N   0  0  0  0  0  0  0  0  0  0  0  0
   -0.8072    1.4125    0.0000 N   0  0  0  0  0  0  0  0  0  0  0  0
   -1.2234    2.6947    0.0000 S   0  0  0  0  0  0  0  0  0  0  0  0
   -1.6396    1.4125    0.0000 C   0  0  0  0  0  0  0  0  0  0  0  0
   -1.8918    2.2029    0.0000 C   0  0  0  0  0  0  0  0  0  0  0  0
    0.4204    3.2749    0.0000 C   0  0  0  0  0  0  0  0  0  0  0  0
   -2.1902    0.8029    0.0000 C   0  0  0  0  0  0  0  0  0  0  0  0
   -2.7073    2.3794    0.0000 C   0  0  0  0  0  0  0  0  0  0  0  0
   -2.9974    0.9711    0.0000 C   0  0  0  0  0  0  0  0  0  0  0  0
   -3.2623    1.7614    0.0000 C   0  0  0  0  0  0  0  0  0  0  0  0
    0.4961    0.8282    0.0000 C   0  0  0  0  0  0  0  0  0  0  0  0
    0.8450    1.5849    0.0000 C   0  0  0  0  0  0  0  0  0  0  0  0
   -0.1976    3.8340    0.0000 O   0  0  0  0  0  0  0  0  0  0  0  0
    1.2024    3.5313    0.0000 C   0  0  0  0  0  0  0  0  0  0  0  0
   -0.3237    0.7441    0.0000 C   0  0  0  0  0  0  0  0  0  0  0  0
   -3.5523    0.3489    0.0000 O   0  0  0  0  0  0  0  0  0  0  0  0
   -4.0694    1.9380    0.0000 O   0  0  0  0  0  0  0  0  0  0  0  0
    1.8204    2.9848    0.0000 C   0  0  0  0  0  0  0  0  0  0  0  0
    1.3789    4.3301    0.0000 C   0  0  0  0  0  0  0  0  0  0  0  0
   -4.6243    1.3200    0.0000 C   0  0  0  0  0  0  0  0  0  0  0  0
   -3.3001   -0.4414    0.0000 C   0  0  0  0  0  0  0  0  0  0  0  0
    2.6107    3.2370    0.0000 C   0  0  0  0  0  0  0  0  0  0  0  0
    2.1609    4.5824    0.0000 C   0  0  0  0  0  0  0  0  0  0  0  0
    2.7789    4.0358    0.0000 C   0  0  0  0  0  0  0  0  0  0  0  0
  2  1  2  0  0  0  0
  3  1  1  0  0  0  0
  4  1  1  0  0  0  0
  5  3  1  0  0  0  0
  6  4  1  0  0  0  0
  6  5  2  0  0  0  0
  7  2  1  0  0  0  0
  8  5  1  0  0  0  0
  9  6  1  0  0  0  0
 10  8  2  0  0  0  0
 10 11  1  0  0  0  0
 11  9  2  0  0  0  0
 12 16  1  0  0  0  0
 13 12  3  0  0  0  0
 14  7  2  0  0  0  0
 15  7  1  0  0  0  0
 16  3  1  0  0  0  0
 17 10  1  0  0  0  0
 18 11  1  0  0  0  0
 19 15  2  0  0  0  0
 20 15  1  0  0  0  0
 21 18  1  0  0  0  0
 22 17  1  0  0  0  0
 23 19  1  0  0  0  0
 24 20  2  0  0  0  0
 25 24  1  0  0  0  0
 25 23  2  0  0  0  0
M  END
> <CdId>
2655

> <Mol Weight>
352.407

> <Formula>
C19H16N2O3S

> <Click_ID>
CLK035_A11 __ __ 

$$$$
