CLK020_F04
 OpenBabel03181410512D

 27 29  0  0  0  0  0  0  0  0999 V2000
    2.2590    1.7961    0.0000 C   0  0  3  0  0  0  0  0  0  0  0  0
    2.9279    1.3150    0.0000 C   0  0  0  0  0  0  0  0  0  0  0  0
    3.5924    1.7961    0.0000 N   0  0  0  0  0  0  0  0  0  0  0  0
    2.5156    2.5797    0.0000 C   0  0  0  0  0  0  0  0  0  0  0  0
    1.5030    2.1307    0.0000 C   0  0  0  0  0  0  0  0  0  0  0  0
    3.3403    2.5797    0.0000 C   0  0  0  0  0  0  0  0  0  0  0  0
    0.9256    1.5396    0.0000 C   0  0  0  0  0  0  0  0  0  0  0  0
    0.1283    1.7411    0.0000 C   0  0  0  0  0  0  0  0  0  0  0  0
   -0.4399    1.1501    0.0000 C   0  0  0  0  0  0  0  0  0  0  0  0
   -0.0962    2.5293    0.0000 C   0  0  0  0  0  0  0  0  0  0  0  0
   -1.2463    1.3425    0.0000 C   0  0  0  0  0  0  0  0  0  0  0  0
   -0.8935    2.7309    0.0000 C   0  0  0  0  0  0  0  0  0  0  0  0
   -1.4662    2.1398    0.0000 C   0  0  0  0  0  0  0  0  0  0  0  0
    4.8845    2.1948    0.0000 C   0  0  0  0  0  0  0  0  0  0  0  0
    5.3931    2.8408    0.0000 C   0  0  0  0  0  0  0  0  0  0  0  0
    2.9279    0.4902    0.0000 O   0  0  0  0  0  0  0  0  0  0  0  0
    1.0906    0.9851    0.0000 O   0  0  0  0  0  0  0  0  0  0  0  0
    4.3759    1.5396    0.0000 C   0  0  0  0  0  0  0  0  0  0  0  0
    1.8466    1.0813    0.0000 O   0  0  0  0  0  0  0  0  0  0  0  0
    2.1032    3.2945    0.0000 C   0  0  0  0  0  0  0  0  0  0  0  0
    3.7527    3.2945    0.0000 C   0  0  0  0  0  0  0  0  0  0  0  0
    0.4720    3.1295    0.0000 C   0  0  0  0  0  0  0  0  0  0  0  0
   -0.2153    0.3528    0.0000 C   0  0  0  0  0  0  0  0  0  0  0  0
   -1.8145    0.7514    0.0000 C   0  0  0  0  0  0  0  0  0  0  0  0
   -1.1226    3.5282    0.0000 C   0  0  0  0  0  0  0  0  0  0  0  0
    2.5156    4.0093    0.0000 C   0  0  0  0  0  0  0  0  0  0  0  0
    3.3403    4.0093    0.0000 C   0  0  0  0  0  0  0  0  0  0  0  0
  2  1  1  0  0  0  0
  3  2  1  0  0  0  0
  3  6  1  0  0  0  0
  4  1  1  0  0  0  0
  5  1  1  0  0  0  0
  6  4  2  0  0  0  0
  7  5  1  0  0  0  0
  8  7  1  0  0  0  0
  9  8  1  0  0  0  0
 10  8  2  0  0  0  0
 11  9  2  0  0  0  0
 12 10  1  0  0  0  0
 13 12  2  0  0  0  0
 13 11  1  0  0  0  0
 14 18  1  0  0  0  0
 15 14  3  0  0  0  0
 16  2  2  0  0  0  0
 17  7  2  0  0  0  0
 18  3  1  0  0  0  0
 19  1  1  0  0  0  0
 20  4  1  0  0  0  0
 21  6  1  0  0  0  0
 21 27  2  0  0  0  0
 22 10  1  0  0  0  0
 23  9  1  0  0  0  0
 24 11  1  0  0  0  0
 25 12  1  0  0  0  0
 26 20  2  0  0  0  0
 27 26  1  0  0  0  0
M  END
> <CdId>
1529

> <Mol Weight>
361.4336

> <Formula>
C23H23NO3

> <Click_ID>
CLK020_F04 __ __ 

$$$$
