CLK031_B11
 OpenBabel03181410512D

 38 41  0  0  0  0  0  0  0  0999 V2000
   -1.1625    2.3833    0.0000 C   0  0  0  0  0  0  0  0  0  0  0  0
    3.3750    3.0833    0.0000 S   0  0  0  0  0  0  0  0  0  0  0  0
   -0.3375    2.3750    0.0000 N   0  0  0  0  0  0  0  0  0  0  0  0
   -4.5833    3.2125    0.0000 S   0  0  0  0  0  0  0  0  0  0  0  0
   -1.6458    1.7208    0.0000 N   0  0  0  0  0  0  0  0  0  0  0  0
   -1.6458    3.0500    0.0000 S   0  0  0  0  0  0  0  0  0  0  0  0
   -2.4333    2.7958    0.0000 C   0  0  0  0  0  0  0  0  0  0  0  0
   -2.4333    1.9708    0.0000 C   0  0  0  0  0  0  0  0  0  0  0  0
    0.0750    3.0875    0.0000 C   0  0  0  0  0  0  0  0  0  0  0  0
    3.3667    2.2458    0.0000 N   0  0  0  0  0  0  0  0  0  0  0  0
   -3.8583    2.7958    0.0000 C   0  0  0  0  0  0  0  0  0  0  0  0
   -3.1458    3.2083    0.0000 C   0  0  0  0  0  0  0  0  0  0  0  0
    2.5500    3.0833    0.0000 C   0  0  0  0  0  0  0  0  0  0  0  0
   -1.9458    0.3208    0.0000 C   0  0  0  0  0  0  0  0  0  0  0  0
    4.2000    3.0833    0.0000 O   0  0  0  0  0  0  0  0  0  0  0  0
    3.3792    3.9083    0.0000 O   0  0  0  0  0  0  0  0  0  0  0  0
   -3.1458    1.5583    0.0000 C   0  0  0  0  0  0  0  0  0  0  0  0
   -2.4958   -0.2917    0.0000 C   0  0  0  0  0  0  0  0  0  0  0  0
   -5.0208    2.5083    0.0000 O   0  0  0  0  0  0  0  0  0  0  0  0
   -4.1458    3.9083    0.0000 O   0  0  0  0  0  0  0  0  0  0  0  0
    0.9000    3.0875    0.0000 C   0  0  0  0  0  0  0  0  0  0  0  0
    4.0917    1.8333    0.0000 C   0  0  0  0  0  0  0  0  0  0  0  0
   -5.2833    3.6458    0.0000 N   0  0  0  0  0  0  0  0  0  0  0  0
   -0.3375    3.8000    0.0000 O   0  0  0  0  0  0  0  0  0  0  0  0
   -3.8583    1.9708    0.0000 C   0  0  0  0  0  0  0  0  0  0  0  0
   -1.3958    0.9333    0.0000 C   0  0  0  0  0  0  0  0  0  0  0  0
    2.1417    3.8083    0.0000 C   0  0  0  0  0  0  0  0  0  0  0  0
    2.1417    2.3708    0.0000 C   0  0  0  0  0  0  0  0  0  0  0  0
    1.3125    3.8083    0.0000 C   0  0  0  0  0  0  0  0  0  0  0  0
    1.3042    2.3750    0.0000 C   0  0  0  0  0  0  0  0  0  0  0  0
    4.0875    1.0083    0.0000 C   0  0  0  0  0  0  0  0  0  0  0  0
    2.6542    1.8375    0.0000 C   0  0  0  0  0  0  0  0  0  0  0  0
    3.3542    0.5958    0.0000 C   0  0  0  0  0  0  0  0  0  0  0  0
    4.7917    0.5958    0.0000 C   0  0  0  0  0  0  0  0  0  0  0  0
    2.6542    1.0125    0.0000 C   0  0  0  0  0  0  0  0  0  0  0  0
    3.3625   -0.2292    0.0000 C   0  0  0  0  0  0  0  0  0  0  0  0
    4.8000   -0.2292    0.0000 C   0  0  0  0  0  0  0  0  0  0  0  0
    4.0792   -0.6500    0.0000 C   0  0  0  0  0  0  0  0  0  0  0  0
  2 13  1  0  0  0  0
  3  1  2  0  0  0  0
  4 11  1  0  0  0  0
  5  1  1  0  0  0  0
  6  1  1  0  0  0  0
  7  6  1  0  0  0  0
  7  8  2  0  0  0  0
  8  5  1  0  0  0  0
  9  3  1  0  0  0  0
 10  2  1  0  0  0  0
 11 12  2  0  0  0  0
 11 25  1  0  0  0  0
 12  7  1  0  0  0  0
 13 28  2  0  0  0  0
 14 26  1  0  0  0  0
 15  2  2  0  0  0  0
 16  2  2  0  0  0  0
 17  8  1  0  0  0  0
 18 14  3  0  0  0  0
 19  4  2  0  0  0  0
 20  4  2  0  0  0  0
 21  9  1  0  0  0  0
 22 10  1  0  0  0  0
 23  4  1  0  0  0  0
 24  9  2  0  0  0  0
 25 17  2  0  0  0  0
 26  5  1  0  0  0  0
 27 29  2  0  0  0  0
 27 13  1  0  0  0  0
 28 30  1  0  0  0  0
 29 21  1  0  0  0  0
 30 21  2  0  0  0  0
 31 22  1  0  0  0  0
 32 10  1  0  0  0  0
 33 31  2  0  0  0  0
 34 31  1  0  0  0  0
 35 32  1  0  0  0  0
 36 33  1  0  0  0  0
 37 34  2  0  0  0  0
 38 37  1  0  0  0  0
 38 36  2  0  0  0  0
M  END
> <CdId>
2345

> <Mol Weight>
568.688

> <Formula>
C26H24N4O5S3

> <Click_ID>
CLK031_B11 __ __ 

$$$$
