CLK050G07
 OpenBabel03181410512D

 15 15  0  0  0  0  0  0  0  0999 V2000
    0.0917    1.2125    0.0000 C    0  0  0  0  0  0  0  0  0  0  0  0
    1.5208    2.8625    0.0000 C    0  0  0  0  0  0  0  0  0  0  0  0
    2.2375    3.2750    0.0000 C    0  0  0  0  0  0  0  0  0  0  0  0
    0.0917    0.3875    0.0000 N    0  0  0  0  0  0  0  0  0  0  0  0
   -0.6208    1.6250    0.0000 O    0  0  0  0  0  0  0  0  0  0  0  0
    0.8083    1.6250    0.0000 N    0  0  0  0  0  0  0  0  0  0  0  0
   -0.6208   -0.0250    0.0000 C    0  0  0  0  0  0  0  0  0  0  0  0
   -0.6208   -2.5000    0.0000 C    0  0  0  0  0  0  0  0  0  0  0  0
   -0.6208   -0.8500    0.0000 C    0  0  0  0  0  0  0  0  0  0  0  0
   -0.6208   -3.3250    0.0000 Cl   0  0  0  0  0  0  0  0  0  0  0  0
    0.8083    2.4500    0.0000 C    0  0  0  0  0  0  0  0  0  0  0  0
    0.0917   -2.0875    0.0000 C    0  0  0  0  0  0  0  0  0  0  0  0
   -1.3375   -2.0875    0.0000 C    0  0  0  0  0  0  0  0  0  0  0  0
   -1.3375   -1.2625    0.0000 C    0  0  0  0  0  0  0  0  0  0  0  0
    0.0917   -1.2625    0.0000 C    0  0  0  0  0  0  0  0  0  0  0  0
  2 11  1  0  0  0  0
  3  2  3  0  0  0  0
  4  1  1  0  0  0  0
  5  1  2  0  0  0  0
  6  1  1  0  0  0  0
  7  4  1  0  0  0  0
  8 13  2  0  0  0  0
  9  7  1  0  0  0  0
 10  8  1  0  0  0  0
 11  6  1  0  0  0  0
 12 15  2  0  0  0  0
 12  8  1  0  0  0  0
 13 14  1  0  0  0  0
 14  9  2  0  0  0  0
 15  9  1  0  0  0  0
M  END
> <CdId>
3855

> <Mol Weight>
222.671

> <Formula>
C11H11ClN2O

> <Click_ID>
CLK050G07 __ __ 

$$$$
