CLK012_A06
 OpenBabel03181410512D

 21 22  0  0  0  0  0  0  0  0999 V2000
    1.5644   -0.8155    0.0000 N   0  0  0  0  0  0  0  0  0  0  0  0
    1.8223   -1.6018    0.0000 C   0  0  0  0  0  0  0  0  0  0  0  0
    2.8999   -0.8155    0.0000 C   0  0  0  0  0  0  0  0  0  0  0  0
    2.2342   -0.3287    0.0000 C   0  0  0  0  0  0  0  0  0  0  0  0
    2.6461   -1.6018    0.0000 S   0  0  0  0  0  0  0  0  0  0  0  0
    4.2562   -0.3786    0.0000 C   0  0  0  0  0  0  0  0  0  0  0  0
    4.4226    0.4327    0.0000 C   0  0  0  0  0  0  0  0  0  0  0  0
    0.6116    0.2454    0.0000 C   0  0  0  0  0  0  0  0  0  0  0  0
    0.3911    1.0442    0.0000 C   0  0  0  0  0  0  0  0  0  0  0  0
    1.3355   -2.2633    0.0000 O   0  0  0  0  0  0  0  0  0  0  0  0
    2.2259    0.4951    0.0000 O   0  0  0  0  0  0  0  0  0  0  0  0
    3.8110    0.9818    0.0000 C   0  0  0  0  0  0  0  0  0  0  0  0
    0.7863   -0.5617    0.0000 C   0  0  0  0  0  0  0  0  0  0  0  0
    5.2089    0.6823    0.0000 C   0  0  0  0  0  0  0  0  0  0  0  0
    3.9858    1.7806    0.0000 C   0  0  0  0  0  0  0  0  0  0  0  0
    5.3837    1.4811    0.0000 C   0  0  0  0  0  0  0  0  0  0  0  0
    4.7721    2.0428    0.0000 C   0  0  0  0  0  0  0  0  0  0  0  0
    3.0330    0.7239    0.0000 O   0  0  0  0  0  0  0  0  0  0  0  0
    6.1700    1.7307    0.0000 O   0  0  0  0  0  0  0  0  0  0  0  0
    2.8624   -0.0791    0.0000 C   0  0  0  0  0  0  0  0  0  0  0  0
    6.3447    2.5337    0.0000 C   0  0  0  0  0  0  0  0  0  0  0  0
  2  1  1  0  0  0  0
  3  4  1  0  0  0  0
  4  1  1  0  0  0  0
  5  2  1  0  0  0  0
  5  3  1  0  0  0  0
  6  3  2  0  0  0  0
  7  6  1  0  0  0  0
  8 13  1  0  0  0  0
  9  8  3  0  0  0  0
 10  2  2  0  0  0  0
 11  4  2  0  0  0  0
 12  7  1  0  0  0  0
 13  1  1  0  0  0  0
 14  7  2  0  0  0  0
 15 12  2  0  0  0  0
 16 14  1  0  0  0  0
 17 16  2  0  0  0  0
 17 15  1  0  0  0  0
 18 12  1  0  0  0  0
 19 16  1  0  0  0  0
 20 18  1  0  0  0  0
 21 19  1  0  0  0  0
M  END
> <CdId>
841

> <Mol Weight>
303.333

> <Formula>
C15H13NO4S

> <Click_ID>
CLK012_A06 __ __ 

$$$$
