CLK013_D09
 OpenBabel03181410512D

 32 34  0  0  0  0  0  0  0  0999 V2000
    3.1370   -0.2761    0.0000 N   0  0  0  0  0  0  0  0  0  0  0  0
    2.8778    0.5145    0.0000 C   0  0  0  0  0  0  0  0  0  0  0  0
    3.9652   -0.2761    0.0000 C   0  0  0  0  0  0  0  0  0  0  0  0
    4.2204    0.5145    0.0000 C   0  0  0  0  0  0  0  0  0  0  0  0
    3.5511    0.9996    0.0000 S   0  0  0  0  0  0  0  0  0  0  0  0
    5.0109    0.7738    0.0000 C   0  0  0  0  0  0  0  0  0  0  0  0
    2.6477   -0.9453    0.0000 C   0  0  0  0  0  0  0  0  0  0  0  0
    2.9781   -1.6982    0.0000 C   0  0  0  0  0  0  0  0  0  0  0  0
    6.6548    5.0444    0.0000 C   0  0  0  0  0  0  0  0  0  0  0  0
    6.8304    5.8475    0.0000 C   0  0  0  0  0  0  0  0  0  0  0  0
    2.0955    0.7738    0.0000 O   0  0  0  0  0  0  0  0  0  0  0  0
    2.4971   -2.3716    0.0000 N   0  0  0  0  0  0  0  0  0  0  0  0
    4.7349    2.9363    0.0000 C   0  0  0  0  0  0  0  0  0  0  0  0
    4.4463   -0.9453    0.0000 O   0  0  0  0  0  0  0  0  0  0  0  0
    5.1741    1.5769    0.0000 C   0  0  0  0  0  0  0  0  0  0  0  0
    4.5675    2.1290    0.0000 C   0  0  0  0  0  0  0  0  0  0  0  0
    5.5129    3.1830    0.0000 C   0  0  0  0  0  0  0  0  0  0  0  0
    3.8063   -1.7861    0.0000 O   0  0  0  0  0  0  0  0  0  0  0  0
    1.6731   -2.2838    0.0000 C   0  0  0  0  0  0  0  0  0  0  0  0
    6.1235    2.6351    0.0000 C   0  0  0  0  0  0  0  0  0  0  0  0
    1.3343   -1.5225    0.0000 C   0  0  0  0  0  0  0  0  0  0  0  0
    5.9521    1.8278    0.0000 C   0  0  0  0  0  0  0  0  0  0  0  0
    4.1326    3.4842    0.0000 O   0  0  0  0  0  0  0  0  0  0  0  0
    5.6885    3.9987    0.0000 O   0  0  0  0  0  0  0  0  0  0  0  0
    0.5187   -1.4347    0.0000 C   0  0  0  0  0  0  0  0  0  0  0  0
    6.4749    4.2330    0.0000 C   0  0  0  0  0  0  0  0  0  0  0  0
    0.3639   -2.8610    0.0000 C   0  0  0  0  0  0  0  0  0  0  0  0
    1.1837   -2.9530    0.0000 C   0  0  0  0  0  0  0  0  0  0  0  0
    0.0293   -2.0998    0.0000 C   0  0  0  0  0  0  0  0  0  0  0  0
    3.3504    3.2332    0.0000 C   0  0  0  0  0  0  0  0  0  0  0  0
    0.1799   -0.6776    0.0000 C   0  0  0  0  0  0  0  0  0  0  0  0
    2.7397    3.7853    0.0000 C   0  0  0  0  0  0  0  0  0  0  0  0
  2  1  1  0  0  0  0
  3  1  1  0  0  0  0
  4  3  1  0  0  0  0
  5  2  1  0  0  0  0
  5  4  1  0  0  0  0
  6  4  2  0  0  0  0
  7  1  1  0  0  0  0
  8  7  1  0  0  0  0
  9 26  1  0  0  0  0
 10  9  3  0  0  0  0
 11  2  2  0  0  0  0
 12  8  1  0  0  0  0
 13 16  1  0  0  0  0
 14  3  2  0  0  0  0
 15  6  1  0  0  0  0
 16 15  2  0  0  0  0
 17 20  1  0  0  0  0
 17 13  2  0  0  0  0
 18  8  2  0  0  0  0
 19 12  1  0  0  0  0
 20 22  2  0  0  0  0
 21 19  2  0  0  0  0
 22 15  1  0  0  0  0
 23 13  1  0  0  0  0
 24 17  1  0  0  0  0
 25 21  1  0  0  0  0
 26 24  1  0  0  0  0
 27 28  2  0  0  0  0
 28 19  1  0  0  0  0
 29 27  1  0  0  0  0
 29 25  2  0  0  0  0
 30 23  1  0  0  0  0
 31 25  1  0  0  0  0
 32 30  1  0  0  0  0
M  END
> <CdId>
954

> <Mol Weight>
450.507

> <Formula>
C24H22N2O5S

> <Click_ID>
CLK013_D09 __ __ 

$$$$
