CLK048E05
 OpenBabel03181410512D

 20 22  0  0  0  0  0  0  0  0999 V2000
   -0.0042    0.1125    0.0000 C   0  0  0  0  0  0  0  0  0  0  0  0
   -0.7875   -0.1417    0.0000 N   0  0  0  0  0  0  0  0  0  0  0  0
    0.7125   -0.3000    0.0000 C   0  0  0  0  0  0  0  0  0  0  0  0
   -1.2750    0.5250    0.0000 C   0  0  0  0  0  0  0  0  0  0  0  0
   -0.7875    1.1917    0.0000 C   0  0  0  0  0  0  0  0  0  0  0  0
   -0.0042    0.9375    0.0000 C   0  0  0  0  0  0  0  0  0  0  0  0
    0.7125   -1.1250    0.0000 C   0  0  0  0  0  0  0  0  0  0  0  0
    2.1375   -2.7750    0.0000 C   0  0  0  0  0  0  0  0  0  0  0  0
    2.8542   -3.1875    0.0000 C   0  0  0  0  0  0  0  0  0  0  0  0
   -0.0042   -1.5375    0.0000 O   0  0  0  0  0  0  0  0  0  0  0  0
    1.4250   -1.5375    0.0000 N   0  0  0  0  0  0  0  0  0  0  0  0
    1.4250    0.1125    0.0000 C   0  0  0  0  0  0  0  0  0  0  0  0
    0.7125    1.3500    0.0000 C   0  0  0  0  0  0  0  0  0  0  0  0
   -1.0083    1.9875    0.0000 C   0  0  0  0  0  0  0  0  0  0  0  0
   -2.0958    0.4875    0.0000 C   0  0  0  0  0  0  0  0  0  0  0  0
    1.4250   -2.3625    0.0000 C   0  0  0  0  0  0  0  0  0  0  0  0
    1.4250    0.9375    0.0000 C   0  0  0  0  0  0  0  0  0  0  0  0
   -1.7667    2.3125    0.0000 C   0  0  0  0  0  0  0  0  0  0  0  0
   -2.6417    1.1125    0.0000 C   0  0  0  0  0  0  0  0  0  0  0  0
   -2.4917    1.9208    0.0000 C   0  0  0  0  0  0  0  0  0  0  0  0
  2  1  1  0  0  0  0
  3  1  2  0  0  0  0
  4  2  1  0  0  0  0
  4  5  2  0  0  0  0
  5  6  1  0  0  0  0
  6  1  1  0  0  0  0
  7  3  1  0  0  0  0
  8 16  1  0  0  0  0
  9  8  3  0  0  0  0
 10  7  2  0  0  0  0
 11  7  1  0  0  0  0
 12  3  1  0  0  0  0
 13  6  2  0  0  0  0
 14  5  1  0  0  0  0
 15  4  1  0  0  0  0
 16 11  1  0  0  0  0
 17 13  1  0  0  0  0
 17 12  2  0  0  0  0
 18 14  1  0  0  0  0
 19 15  1  0  0  0  0
 19 20  1  0  0  0  0
 20 18  1  0  0  0  0
M  END
> <CdId>
3677

> <Mol Weight>
266.3376

> <Formula>
C17H18N2O

> <Click_ID>
CLK048E05 __ __ 

$$$$
