CLK042E11
 OpenBabel03181410512D

 29 30  0  0  0  0  0  0  0  0999 V2000
    1.1792    3.0750    0.0000 S   0  0  0  0  0  0  0  0  0  0  0  0
   -0.2500    0.6000    0.0000 C   0  0  0  0  0  0  0  0  0  0  0  0
   -0.2500   -0.2250    0.0000 N   0  0  0  0  0  0  0  0  0  0  0  0
    1.1792    2.2500    0.0000 C   0  0  0  0  0  0  0  0  0  0  0  0
    0.4667    1.0125    0.0000 C   0  0  0  0  0  0  0  0  0  0  0  0
   -0.9625   -1.4625    0.0000 C   0  0  0  0  0  0  0  0  0  0  0  0
    0.4667    1.8375    0.0000 C   0  0  0  0  0  0  0  0  0  0  0  0
    1.8958    5.1333    0.0000 C   0  0  0  0  0  0  0  0  0  0  0  0
    1.8958    5.9583    0.0000 C   0  0  0  0  0  0  0  0  0  0  0  0
    0.3542    3.0750    0.0000 O   0  0  0  0  0  0  0  0  0  0  0  0
    2.0042    3.0750    0.0000 O   0  0  0  0  0  0  0  0  0  0  0  0
   -0.9625   -0.6375    0.0000 C   0  0  0  0  0  0  0  0  0  0  0  0
   -1.6792   -1.8750    0.0000 N   0  0  0  0  0  0  0  0  0  0  0  0
    1.1792    3.9000    0.0000 N   0  0  0  0  0  0  0  0  0  0  0  0
   -0.9625    1.0125    0.0000 O   0  0  0  0  0  0  0  0  0  0  0  0
   -0.2500   -1.8750    0.0000 O   0  0  0  0  0  0  0  0  0  0  0  0
   -1.6792   -2.7000    0.0000 C   0  0  0  0  0  0  0  0  0  0  0  0
   -1.6792   -4.3500    0.0000 C   0  0  0  0  0  0  0  0  0  0  0  0
    1.8958    4.3083    0.0000 C   0  0  0  0  0  0  0  0  0  0  0  0
   -0.9625   -3.1125    0.0000 C   0  0  0  0  0  0  0  0  0  0  0  0
   -2.3917   -3.1125    0.0000 C   0  0  0  0  0  0  0  0  0  0  0  0
   -0.9625   -3.9375    0.0000 C   0  0  0  0  0  0  0  0  0  0  0  0
   -2.3917   -3.9375    0.0000 C   0  0  0  0  0  0  0  0  0  0  0  0
    1.1792    0.6000    0.0000 C   0  0  0  0  0  0  0  0  0  0  0  0
    0.4667   -0.6375    0.0000 C   0  0  0  0  0  0  0  0  0  0  0  0
   -1.6792   -5.1750    0.0000 O   0  0  0  0  0  0  0  0  0  0  0  0
    1.8958    1.8375    0.0000 C   0  0  0  0  0  0  0  0  0  0  0  0
    1.8958    1.0125    0.0000 C   0  0  0  0  0  0  0  0  0  0  0  0
   -0.9625   -5.5875    0.0000 C   0  0  0  0  0  0  0  0  0  0  0  0
  2  5  1  0  0  0  0
  3  2  1  0  0  0  0
  4  1  1  0  0  0  0
  5  7  2  0  0  0  0
  6 12  1  0  0  0  0
  7  4  1  0  0  0  0
  8 19  1  0  0  0  0
  9  8  3  0  0  0  0
 10  1  2  0  0  0  0
 11  1  2  0  0  0  0
 12  3  1  0  0  0  0
 13  6  1  0  0  0  0
 14  1  1  0  0  0  0
 15  2  2  0  0  0  0
 16  6  2  0  0  0  0
 17 13  1  0  0  0  0
 18 23  2  0  0  0  0
 19 14  1  0  0  0  0
 20 17  1  0  0  0  0
 21 17  2  0  0  0  0
 22 20  2  0  0  0  0
 22 18  1  0  0  0  0
 23 21  1  0  0  0  0
 24  5  1  0  0  0  0
 25  3  1  0  0  0  0
 26 18  1  0  0  0  0
 27  4  2  0  0  0  0
 28 27  1  0  0  0  0
 28 24  2  0  0  0  0
 29 26  1  0  0  0  0
M  END
> <CdId>
3245

> <Mol Weight>
415.463

> <Formula>
C20H21N3O5S

> <Click_ID>
CLK042E11 __ __ 

$$$$
