CLK045H06
 OpenBabel03181410512D

 26 27  0  0  0  0  0  0  0  0999 V2000
   -0.1125    2.2542    0.0000 C   0  0  0  0  0  0  0  0  0  0  0  0
   -0.1125   -1.8708    0.0000 C   0  0  0  0  0  0  0  0  0  0  0  0
    1.3167   -3.5208    0.0000 C   0  0  0  0  0  0  0  0  0  0  0  0
   -0.8250    1.8417    0.0000 N   0  0  0  0  0  0  0  0  0  0  0  0
   -0.8250   -0.6333    0.0000 N   0  0  0  0  0  0  0  0  0  0  0  0
    2.0333   -3.9333    0.0000 C   0  0  0  0  0  0  0  0  0  0  0  0
   -0.1125   -2.6958    0.0000 N   0  0  0  0  0  0  0  0  0  0  0  0
    0.6042   -3.1083    0.0000 C   0  0  0  0  0  0  0  0  0  0  0  0
    0.6042    1.8417    0.0000 O   0  0  0  0  0  0  0  0  0  0  0  0
   -0.8250   -1.4583    0.0000 C   0  0  0  0  0  0  0  0  0  0  0  0
   -0.1125    3.0792    0.0000 C   0  0  0  0  0  0  0  0  0  0  0  0
    0.6042   -1.4583    0.0000 O   0  0  0  0  0  0  0  0  0  0  0  0
   -0.8250    1.0167    0.0000 C   0  0  0  0  0  0  0  0  0  0  0  0
   -0.1125    0.6042    0.0000 C   0  0  0  0  0  0  0  0  0  0  0  0
   -1.5417    0.6042    0.0000 C   0  0  0  0  0  0  0  0  0  0  0  0
   -0.1125   -0.2208    0.0000 C   0  0  0  0  0  0  0  0  0  0  0  0
   -1.5417   -0.2208    0.0000 C   0  0  0  0  0  0  0  0  0  0  0  0
    1.0167   -2.3917    0.0000 C   0  0  0  0  0  0  0  0  0  0  0  0
    0.1917   -3.8208    0.0000 C   0  0  0  0  0  0  0  0  0  0  0  0
    0.6042    3.4917    0.0000 C   0  0  0  0  0  0  0  0  0  0  0  0
   -0.8250    3.4917    0.0000 C   0  0  0  0  0  0  0  0  0  0  0  0
    1.8417   -2.3917    0.0000 C   0  0  0  0  0  0  0  0  0  0  0  0
   -0.6333   -3.8208    0.0000 C   0  0  0  0  0  0  0  0  0  0  0  0
   -0.8250    4.3125    0.0000 C   0  0  0  0  0  0  0  0  0  0  0  0
    0.6042    4.3125    0.0000 C   0  0  0  0  0  0  0  0  0  0  0  0
   -0.1125    4.7250    0.0000 C   0  0  0  0  0  0  0  0  0  0  0  0
  2 10  1  0  0  0  0
  3  8  1  0  0  0  0
  4  1  1  0  0  0  0
  5 17  1  0  0  0  0
  6  3  3  0  0  0  0
  7  2  1  0  0  0  0
  8  7  1  0  0  0  0
  9  1  2  0  0  0  0
 10  5  1  0  0  0  0
 11  1  1  0  0  0  0
 12  2  2  0  0  0  0
 13  4  1  0  0  0  0
 14 13  1  0  0  0  0
 15 13  1  0  0  0  0
 16 14  1  0  0  0  0
 16  5  1  0  0  0  0
 17 15  1  0  0  0  0
 18  8  1  0  0  0  0
 19  8  1  0  0  0  0
 20 11  1  0  0  0  0
 21 11  2  0  0  0  0
 22 18  1  0  0  0  0
 23 19  1  0  0  0  0
 24 21  1  0  0  0  0
 25 20  2  0  0  0  0
 26 24  2  0  0  0  0
 26 25  1  0  0  0  0
M  END
> <CdId>
3448

> <Mol Weight>
355.4739

> <Formula>
C21H29N3O2

> <Click_ID>
CLK045H06 __ __ 

$$$$
