CLK027_C09
 OpenBabel03181410512D

 25 27  0  0  0  0  0  0  0  0999 V2000
   -1.9829    0.6966    0.0000 N   0  0  0  0  0  0  0  0  0  0  0  0
   -1.7312   -0.0896    0.0000 C   0  0  0  0  0  0  0  0  0  0  0  0
   -0.6449    0.6966    0.0000 C   0  0  0  0  0  0  0  0  0  0  0  0
   -1.3139    1.1794    0.0000 C   0  0  0  0  0  0  0  0  0  0  0  0
   -0.9001   -0.0896    0.0000 N   0  0  0  0  0  0  0  0  0  0  0  0
    0.1517    0.9587    0.0000 C   0  0  0  0  0  0  0  0  0  0  0  0
    0.7380    0.3724    0.0000 C   0  0  0  0  0  0  0  0  0  0  0  0
    0.5138   -0.4345    0.0000 C   0  0  0  0  0  0  0  0  0  0  0  0
    3.1486    0.9863    0.0000 C   0  0  0  0  0  0  0  0  0  0  0  0
    3.7245    0.4000    0.0000 C   0  0  0  0  0  0  0  0  0  0  0  0
   -2.2209   -0.7691    0.0000 O   0  0  0  0  0  0  0  0  0  0  0  0
    1.5346    0.5794    0.0000 C   0  0  0  0  0  0  0  0  0  0  0  0
   -1.3139    2.0105    0.0000 O   0  0  0  0  0  0  0  0  0  0  0  0
    1.0863   -1.0208    0.0000 C   0  0  0  0  0  0  0  0  0  0  0  0
    2.1209   -0.0207    0.0000 C   0  0  0  0  0  0  0  0  0  0  0  0
   -2.7692    0.9483    0.0000 C   0  0  0  0  0  0  0  0  0  0  0  0
    1.8967   -0.8138    0.0000 C   0  0  0  0  0  0  0  0  0  0  0  0
    1.7588    1.3656    0.0000 O   0  0  0  0  0  0  0  0  0  0  0  0
    2.5623    1.5760    0.0000 C   0  0  0  0  0  0  0  0  0  0  0  0
   -0.2862   -0.6346    0.0000 C   0  0  0  0  0  0  0  0  0  0  0  0
    0.8794   -1.8140    0.0000 C   0  0  0  0  0  0  0  0  0  0  0  0
   -2.9485    1.7588    0.0000 C   0  0  0  0  0  0  0  0  0  0  0  0
   -0.4931   -1.4381    0.0000 C   0  0  0  0  0  0  0  0  0  0  0  0
   -3.7279    2.0174    0.0000 C   0  0  0  0  0  0  0  0  0  0  0  0
    0.0828   -2.0139    0.0000 C   0  0  0  0  0  0  0  0  0  0  0  0
  2  1  1  0  0  0  0
  3  4  1  0  0  0  0
  3  5  1  0  0  0  0
  4  1  1  0  0  0  0
  5  2  1  0  0  0  0
  6  3  2  0  0  0  0
  7  6  1  0  0  0  0
  8  7  1  0  0  0  0
  9 19  1  0  0  0  0
 10  9  3  0  0  0  0
 11  2  2  0  0  0  0
 12  7  2  0  0  0  0
 13  4  2  0  0  0  0
 14  8  1  0  0  0  0
 14 17  1  0  0  0  0
 15 12  1  0  0  0  0
 16  1  1  0  0  0  0
 17 15  2  0  0  0  0
 18 12  1  0  0  0  0
 19 18  1  0  0  0  0
 20  8  2  0  0  0  0
 21 14  2  0  0  0  0
 22 16  1  0  0  0  0
 23 20  1  0  0  0  0
 24 22  1  0  0  0  0
 25 23  2  0  0  0  0
 25 21  1  0  0  0  0
M  END
> <CdId>
2042

> <Mol Weight>
334.3685

> <Formula>
C20H18N2O3

> <Click_ID>
CLK027_C09 __ __ 

$$$$
