CLK046A02
 OpenBabel03181410512D

 19 20  0  0  0  0  0  0  0  0999 V2000
   -2.1917    2.9167    0.0000 C   0  0  0  0  0  0  0  0  0  0  0  0
   -2.9083    3.3292    0.0000 C   0  0  0  0  0  0  0  0  0  0  0  0
    2.1333   -2.1083    0.0000 S   0  0  0  0  0  0  0  0  0  0  0  0
    1.3792   -2.4458    0.0000 C   0  0  0  0  0  0  0  0  0  0  0  0
   -0.0500   -0.7958    0.0000 C   0  0  0  0  0  0  0  0  0  0  0  0
    0.6667   -1.2083    0.0000 N   0  0  0  0  0  0  0  0  0  0  0  0
    2.6875   -2.7250    0.0000 C   0  0  0  0  0  0  0  0  0  0  0  0
    1.4667   -3.2667    0.0000 C   0  0  0  0  0  0  0  0  0  0  0  0
   -0.7625    0.4417    0.0000 N   0  0  0  0  0  0  0  0  0  0  0  0
    2.2750   -3.4375    0.0000 C   0  0  0  0  0  0  0  0  0  0  0  0
   -0.7625   -1.2083    0.0000 O   0  0  0  0  0  0  0  0  0  0  0  0
   -1.4792    2.5042    0.0000 C   0  0  0  0  0  0  0  0  0  0  0  0
    0.6667   -2.0333    0.0000 C   0  0  0  0  0  0  0  0  0  0  0  0
   -0.0500    0.0292    0.0000 C   0  0  0  0  0  0  0  0  0  0  0  0
   -0.7625    1.2667    0.0000 C   0  0  0  0  0  0  0  0  0  0  0  0
   -1.4792    1.6792    0.0000 C   0  0  0  0  0  0  0  0  0  0  0  0
   -0.0500    2.5042    0.0000 C   0  0  0  0  0  0  0  0  0  0  0  0
   -0.7625    2.9167    0.0000 C   0  0  0  0  0  0  0  0  0  0  0  0
   -0.0500    1.6792    0.0000 C   0  0  0  0  0  0  0  0  0  0  0  0
  2  1  3  0  0  0  0
  3  4  1  0  0  0  0
  4 13  1  0  0  0  0
  5 14  1  0  0  0  0
  6  5  1  0  0  0  0
  7  3  1  0  0  0  0
  7 10  2  0  0  0  0
  8  4  2  0  0  0  0
  9 15  1  0  0  0  0
 10  8  1  0  0  0  0
 11  5  2  0  0  0  0
 12  1  1  0  0  0  0
 13  6  1  0  0  0  0
 14  9  1  0  0  0  0
 15 16  2  0  0  0  0
 16 12  1  0  0  0  0
 17 18  1  0  0  0  0
 17 19  2  0  0  0  0
 18 12  2  0  0  0  0
 19 15  1  0  0  0  0
M  END
> <CdId>
3489

> <Mol Weight>
270.349

> <Formula>
C15H14N2OS

> <Click_ID>
CLK046A02 __ __ 

$$$$
