CLK045C10
 OpenBabel03181410512D

 21 22  0  0  0  0  0  0  0  0999 V2000
    0.3042   -1.5875    0.0000 N   0  3  0  0  0  0  0  0  0  0  0  0
    1.0167   -0.3500    0.0000 C   0  0  0  0  0  0  0  0  0  0  0  0
    0.3042    0.0625    0.0000 C   0  0  0  0  0  0  0  0  0  0  0  0
    1.0167   -1.1750    0.0000 C   0  0  0  0  0  0  0  0  0  0  0  0
    0.3042    0.8875    0.0000 N   0  0  0  0  0  0  0  0  0  0  0  0
   -2.5542    0.8875    0.0000 C   0  0  0  0  0  0  0  0  0  0  0  0
   -3.2667    0.4750    0.0000 C   0  0  0  0  0  0  0  0  0  0  0  0
   -0.4083   -1.1750    0.0000 O   0  5  0  0  0  0  0  0  0  0  0  0
    0.3042   -2.4125    0.0000 O   0  0  0  0  0  0  0  0  0  0  0  0
   -0.4083   -0.3500    0.0000 O   0  0  0  0  0  0  0  0  0  0  0  0
    1.7333   -1.5875    0.0000 C   0  0  0  0  0  0  0  0  0  0  0  0
   -0.4083    1.3000    0.0000 C   0  0  0  0  0  0  0  0  0  0  0  0
   -1.8375    1.3000    0.0000 C   0  0  0  0  0  0  0  0  0  0  0  0
   -1.1250    0.8875    0.0000 C   0  0  0  0  0  0  0  0  0  0  0  0
    1.7333    0.0625    0.0000 C   0  0  0  0  0  0  0  0  0  0  0  0
    2.4458   -0.3500    0.0000 C   0  0  0  0  0  0  0  0  0  0  0  0
   -1.1250    2.5375    0.0000 C   0  0  0  0  0  0  0  0  0  0  0  0
    2.4458   -1.1750    0.0000 C   0  0  0  0  0  0  0  0  0  0  0  0
   -0.4083    2.1250    0.0000 C   0  0  0  0  0  0  0  0  0  0  0  0
    1.7333   -2.4125    0.0000 C   0  0  0  0  0  0  0  0  0  0  0  0
   -1.8375    2.1250    0.0000 C   0  0  0  0  0  0  0  0  0  0  0  0
  2  4  1  0  0  0  0
  3  2  1  0  0  0  0
  4  1  1  0  0  0  0
  5  3  1  0  0  0  0
  6 13  1  0  0  0  0
  7  6  3  0  0  0  0
  8  1  1  0  0  0  0
  9  1  2  0  0  0  0
 10  3  2  0  0  0  0
 11  4  2  0  0  0  0
 12  5  1  0  0  0  0
 13 14  1  0  0  0  0
 14 12  2  0  0  0  0
 15  2  2  0  0  0  0
 15 16  1  0  0  0  0
 16 18  2  0  0  0  0
 17 19  2  0  0  0  0
 18 11  1  0  0  0  0
 19 12  1  0  0  0  0
 20 11  1  0  0  0  0
 21 13  2  0  0  0  0
 21 17  1  0  0  0  0
M  END
> <CdId>
3475

> <Mol Weight>
280.2781

> <Formula>
C16H12N2O3

> <Click_ID>
CLK045C10 __ __ 

$$$$
