CLK043E08
 OpenBabel03181410512D

 21 22  0  0  0  0  0  0  0  0999 V2000
   -0.4458    3.2042    0.0000 C    0  0  0  0  0  0  0  0  0  0  0  0
   -1.1583   -2.1583    0.0000 C    0  0  0  0  0  0  0  0  0  0  0  0
   -1.1583    3.6167    0.0000 C    0  0  0  0  0  0  0  0  0  0  0  0
    0.2708    0.3167    0.0000 C    0  0  0  0  0  0  0  0  0  0  0  0
   -1.1583   -2.9833    0.0000 C    0  0  0  0  0  0  0  0  0  0  0  0
    0.9833    0.7292    0.0000 N    0  0  0  0  0  0  0  0  0  0  0  0
   -0.4458   -1.7458    0.0000 C    0  0  0  0  0  0  0  0  0  0  0  0
   -0.4458   -0.9208    0.0000 O    0  0  0  0  0  0  0  0  0  0  0  0
    0.9833    1.5542    0.0000 C    0  0  0  0  0  0  0  0  0  0  0  0
   -0.4458    0.7292    0.0000 O    0  0  0  0  0  0  0  0  0  0  0  0
    0.2708   -2.1583    0.0000 C    0  0  0  0  0  0  0  0  0  0  0  0
   -0.4458   -3.3958    0.0000 C    0  0  0  0  0  0  0  0  0  0  0  0
    0.2708    2.7917    0.0000 C    0  0  0  0  0  0  0  0  0  0  0  0
    0.2708   -0.5083    0.0000 C    0  0  0  0  0  0  0  0  0  0  0  0
   -1.8750   -1.7458    0.0000 Cl   0  0  0  0  0  0  0  0  0  0  0  0
    0.2708    1.9667    0.0000 C    0  0  0  0  0  0  0  0  0  0  0  0
    0.2708   -2.9833    0.0000 C    0  0  0  0  0  0  0  0  0  0  0  0
   -0.4458   -4.2208    0.0000 F    0  0  0  0  0  0  0  0  0  0  0  0
    1.7000    2.7917    0.0000 C    0  0  0  0  0  0  0  0  0  0  0  0
    1.7000    1.9667    0.0000 C    0  0  0  0  0  0  0  0  0  0  0  0
    0.9833    3.2042    0.0000 C    0  0  0  0  0  0  0  0  0  0  0  0
  2  7  2  0  0  0  0
  3  1  3  0  0  0  0
  4  6  1  0  0  0  0
  5  2  1  0  0  0  0
  6  9  1  0  0  0  0
  7  8  1  0  0  0  0
  8 14  1  0  0  0  0
  9 16  2  0  0  0  0
 10  4  2  0  0  0  0
 11  7  1  0  0  0  0
 12  5  2  0  0  0  0
 13  1  1  0  0  0  0
 14  4  1  0  0  0  0
 15  2  1  0  0  0  0
 16 13  1  0  0  0  0
 17 11  2  0  0  0  0
 17 12  1  0  0  0  0
 18 12  1  0  0  0  0
 19 21  1  0  0  0  0
 19 20  2  0  0  0  0
 20  9  1  0  0  0  0
 21 13  2  0  0  0  0
M  END
> <CdId>
3301

> <Mol Weight>
303.715

> <Formula>
C16H11ClFNO2

> <Click_ID>
CLK043E08 __ __ 

$$$$
