CLK003_H04
 OpenBabel03181410512D

 28 30  0  0  0  0  0  0  0  0999 V2000
    1.9239    0.7999    0.0000 C   0  0  0  0  0  0  0  0  0  0  0  0
    1.4723    1.4896    0.0000 C   0  0  0  0  0  0  0  0  0  0  0  0
    1.4102    0.1552    0.0000 C   0  0  0  0  0  0  0  0  0  0  0  0
    2.7481    0.8378    0.0000 C   0  0  0  0  0  0  0  0  0  0  0  0
    0.6827    1.2758    0.0000 N   0  0  0  0  0  0  0  0  0  0  0  0
    1.8481    2.2170    0.0000 C   0  0  0  0  0  0  0  0  0  0  0  0
    0.6344    0.4517    0.0000 C   0  0  0  0  0  0  0  0  0  0  0  0
    1.6240   -0.6378    0.0000 C   0  0  0  0  0  0  0  0  0  0  0  0
    3.1238    1.5758    0.0000 C   0  0  0  0  0  0  0  0  0  0  0  0
    0.0345    1.7929    0.0000 C   0  0  0  0  0  0  0  0  0  0  0  0
    2.6722    2.2619    0.0000 C   0  0  0  0  0  0  0  0  0  0  0  0
    1.0447   -1.2240    0.0000 C   0  0  0  0  0  0  0  0  0  0  0  0
    0.1724    2.6067    0.0000 C   0  0  0  0  0  0  0  0  0  0  0  0
    0.2483   -1.0206    0.0000 C   0  0  0  0  0  0  0  0  0  0  0  0
    1.2585   -2.0239    0.0000 C   0  0  0  0  0  0  0  0  0  0  0  0
    0.3483    3.4100    0.0000 C   0  0  0  0  0  0  0  0  0  0  0  0
   -0.3379   -1.6068    0.0000 N   0  0  0  0  0  0  0  0  0  0  0  0
    0.0241   -0.2241    0.0000 O   0  0  0  0  0  0  0  0  0  0  0  0
    1.4689   -2.8205    0.0000 N   0  0  0  0  0  0  0  0  0  0  0  0
   -1.1654   -1.5999    0.0000 C   0  0  0  0  0  0  0  0  0  0  0  0
   -1.5689   -0.8827    0.0000 C   0  0  0  0  0  0  0  0  0  0  0  0
   -1.5758   -2.3205    0.0000 C   0  0  0  0  0  0  0  0  0  0  0  0
   -2.3998   -0.8723    0.0000 C   0  0  0  0  0  0  0  0  0  0  0  0
   -2.4136   -2.3101    0.0000 C   0  0  0  0  0  0  0  0  0  0  0  0
   -2.8170   -1.5861    0.0000 C   0  0  0  0  0  0  0  0  0  0  0  0
   -2.7998   -0.1621    0.0000 O   0  0  0  0  0  0  0  0  0  0  0  0
   -3.6273   -0.1483    0.0000 C   0  0  0  0  0  0  0  0  0  0  0  0
   -4.0376    0.5621    0.0000 C   0  0  0  0  0  0  0  0  0  0  0  0
  1  2  1  0  0  0  0
  1  3  1  0  0  0  0
  1  4  2  0  0  0  0
  2  5  1  0  0  0  0
  2  6  2  0  0  0  0
  3  7  2  0  0  0  0
  3  8  1  0  0  0  0
  4  9  1  0  0  0  0
  5 10  1  0  0  0  0
  5  7  1  0  0  0  0
  6 11  1  0  0  0  0
  8 12  2  0  0  0  0
  9 11  2  0  0  0  0
 10 13  1  0  0  0  0
 12 14  1  0  0  0  0
 12 15  1  0  0  0  0
 13 16  3  0  0  0  0
 14 17  1  0  0  0  0
 14 18  2  0  0  0  0
 15 19  3  0  0  0  0
 17 20  1  0  0  0  0
 20 21  1  0  0  0  0
 20 22  2  0  0  0  0
 21 23  2  0  0  0  0
 22 24  1  0  0  0  0
 23 25  1  0  0  0  0
 23 26  1  0  0  0  0
 24 25  2  0  0  0  0
 26 27  1  0  0  0  0
 27 28  1  0  0  0  0
M  END
> <CdId>
233

> <Mol Weight>
369.4159

> <Formula>
C23H19N3O2

> <Click_ID>
CLK003_H04 __ __ 

$$$$
