CLK046A05
 OpenBabel03181410512D

 23 24  0  0  0  0  0  0  0  0999 V2000
    0.7417    0.3250    0.0000 C   0  0  0  0  0  0  0  0  0  0  0  0
   -2.8292   -1.7375    0.0000 C   0  0  0  0  0  0  0  0  0  0  0  0
   -0.6875    0.3250    0.0000 C   0  0  0  0  0  0  0  0  0  0  0  0
    0.0292    0.7375    0.0000 C   0  0  0  0  0  0  0  0  0  0  0  0
   -2.8292   -2.5625    0.0000 C   0  0  0  0  0  0  0  0  0  0  0  0
    2.1708   -0.5000    0.0000 O   0  0  0  0  0  0  0  0  0  0  0  0
    2.8875   -0.9125    0.0000 C   0  0  0  0  0  0  0  0  0  0  0  0
    2.1708    0.3250    0.0000 C   0  0  0  0  0  0  0  0  0  0  0  0
   -1.4000    0.7375    0.0000 N   0  0  0  0  0  0  0  0  0  0  0  0
    1.4583    0.7375    0.0000 C   0  0  0  0  0  0  0  0  0  0  0  0
   -2.1125    0.3250    0.0000 C   0  0  0  0  0  0  0  0  0  0  0  0
   -0.6875   -0.5000    0.0000 O   0  0  0  0  0  0  0  0  0  0  0  0
   -2.8292   -0.9125    0.0000 C   0  0  0  0  0  0  0  0  0  0  0  0
   -2.1125   -0.5000    0.0000 C   0  0  0  0  0  0  0  0  0  0  0  0
    2.8875   -1.7375    0.0000 F   0  0  0  0  0  0  0  0  0  0  0  0
    3.6000   -0.5000    0.0000 F   0  0  0  0  0  0  0  0  0  0  0  0
   -3.5417    0.3250    0.0000 C   0  0  0  0  0  0  0  0  0  0  0  0
    2.8875    0.7375    0.0000 C   0  0  0  0  0  0  0  0  0  0  0  0
   -2.8292    0.7375    0.0000 C   0  0  0  0  0  0  0  0  0  0  0  0
    1.4583    1.5625    0.0000 C   0  0  0  0  0  0  0  0  0  0  0  0
   -3.5417   -0.5000    0.0000 C   0  0  0  0  0  0  0  0  0  0  0  0
    2.8875    1.5625    0.0000 C   0  0  0  0  0  0  0  0  0  0  0  0
    2.1708    1.9750    0.0000 C   0  0  0  0  0  0  0  0  0  0  0  0
  2 13  1  0  0  0  0
  3  4  1  0  0  0  0
  4  1  2  0  0  0  0
  5  2  3  0  0  0  0
  6  8  1  0  0  0  0
  7  6  1  0  0  0  0
  8 10  2  0  0  0  0
  9  3  1  0  0  0  0
 10  1  1  0  0  0  0
 11  9  1  0  0  0  0
 12  3  2  0  0  0  0
 13 14  1  0  0  0  0
 14 11  2  0  0  0  0
 15  7  1  0  0  0  0
 16  7  1  0  0  0  0
 17 19  2  0  0  0  0
 18  8  1  0  0  0  0
 19 11  1  0  0  0  0
 20 10  1  0  0  0  0
 21 13  2  0  0  0  0
 21 17  1  0  0  0  0
 22 18  2  0  0  0  0
 23 20  2  0  0  0  0
 23 22  1  0  0  0  0
M  END
> <CdId>
3513

> <Mol Weight>
313.2981

> <Formula>
C18H13F2NO2

> <Click_ID>
CLK046A05 __ __ 

$$$$
