CLK052B02
 OpenBabel03181410512D

 17 18  0  0  0  0  0  0  0  0999 V2000
   -0.5708   -0.1792    0.0000 C   0  0  0  0  0  0  0  0  0  0  0  0
   -0.0875    0.4917    0.0000 S   0  0  0  0  0  0  0  0  0  0  0  0
    0.6958   -0.5917    0.0000 C   0  0  0  0  0  0  0  0  0  0  0  0
    0.6958    0.2333    0.0000 C   0  0  0  0  0  0  0  0  0  0  0  0
   -0.0875   -0.8458    0.0000 C   0  0  0  0  0  0  0  0  0  0  0  0
   -1.3958   -0.1792    0.0000 C   0  0  0  0  0  0  0  0  0  0  0  0
   -3.0458    1.2500    0.0000 C   0  0  0  0  0  0  0  0  0  0  0  0
   -3.4583    1.9667    0.0000 C   0  0  0  0  0  0  0  0  0  0  0  0
    1.4125   -1.0042    0.0000 C   0  0  0  0  0  0  0  0  0  0  0  0
    1.4125    0.6458    0.0000 C   0  0  0  0  0  0  0  0  0  0  0  0
   -1.8083   -0.8917    0.0000 O   0  0  0  0  0  0  0  0  0  0  0  0
   -1.8083    0.5375    0.0000 N   0  0  0  0  0  0  0  0  0  0  0  0
    2.1250    0.2333    0.0000 C   0  0  0  0  0  0  0  0  0  0  0  0
    2.1250   -0.5917    0.0000 C   0  0  3  0  0  0  0  0  0  0  0  0
   -2.6333    0.5375    0.0000 C   0  0  0  0  0  0  0  0  0  0  0  0
    2.8417   -1.0042    0.0000 C   0  0  0  0  0  0  0  0  0  0  0  0
    3.5542   -0.5917    0.0000 C   0  0  0  0  0  0  0  0  0  0  0  0
  2  1  1  0  0  0  0
  3  5  1  0  0  0  0
  3  4  2  0  0  0  0
  4  2  1  0  0  0  0
  5  1  2  0  0  0  0
  6  1  1  0  0  0  0
  7 15  1  0  0  0  0
  8  7  3  0  0  0  0
  9  3  1  0  0  0  0
 10  4  1  0  0  0  0
 11  6  2  0  0  0  0
 12  6  1  0  0  0  0
 13 10  1  0  0  0  0
 13 14  1  0  0  0  0
 14  9  1  0  0  0  0
 15 12  1  0  0  0  0
 16 14  1  0  0  0  0
 17 16  1  0  0  0  0
M  END
> <CdId>
3970

> <Mol Weight>
247.356

> <Formula>
C14H17NOS

> <Click_ID>
CLK052B02 __ __ 

$$$$
