CLK023_E04
 OpenBabel03181410512D

 30 32  0  0  0  0  0  0  0  0999 V2000
    2.4079   -1.4551    0.0000 C    0  0  0  0  0  0  0  0  0  0  0  0
    2.1671   -0.6673    0.0000 C    0  0  0  0  0  0  0  0  0  0  0  0
    1.8472   -2.0639    0.0000 C    0  0  0  0  0  0  0  0  0  0  0  0
   -1.2693    0.8840    0.0000 C    0  0  0  0  0  0  0  0  0  0  0  0
    4.2688   -2.6212    0.0000 C    0  0  0  0  0  0  0  0  0  0  0  0
    5.0772   -2.8035    0.0000 C    0  0  0  0  0  0  0  0  0  0  0  0
   -3.6979    1.4722    0.0000 C    0  0  0  0  0  0  0  0  0  0  0  0
   -0.2305   -0.1032    0.0000 N    0  0  0  0  0  0  0  0  0  0  0  0
   -3.4845    0.6708    0.0000 N    0  0  0  0  0  0  0  0  0  0  0  0
    1.3690   -0.4885    0.0000 C    0  0  0  0  0  0  0  0  0  0  0  0
    1.0457   -1.8678    0.0000 C    0  0  0  0  0  0  0  0  0  0  0  0
   -1.0320    0.0860    0.0000 N    0  0  0  0  0  0  0  0  0  0  0  0
    0.8084   -1.0904    0.0000 C    0  0  0  0  0  0  0  0  0  0  0  0
   -3.1130    2.0604    0.0000 C    0  0  0  0  0  0  0  0  0  0  0  0
   -2.3081    1.8644    0.0000 O    0  0  0  0  0  0  0  0  0  0  0  0
   -0.7052    1.4860    0.0000 O    0  0  0  0  0  0  0  0  0  0  0  0
    0.0069   -0.8943    0.0000 C    0  0  0  0  0  0  0  0  0  0  0  0
   -2.0708    1.0732    0.0000 C    0  0  0  0  0  0  0  0  0  0  0  0
   -4.4993    1.6856    0.0000 C    0  0  0  0  0  0  0  0  0  0  0  0
    2.7312   -0.0654    0.0000 Br   0  0  0  0  0  0  0  0  0  0  0  0
    3.2197   -1.6443    0.0000 O    0  0  0  0  0  0  0  0  0  0  0  0
    2.0846   -2.8654    0.0000 O    0  0  0  0  0  0  0  0  0  0  0  0
    3.4605   -2.4319    0.0000 C    0  0  0  0  0  0  0  0  0  0  0  0
   -4.1347    3.0614    0.0000 C    0  0  0  0  0  0  0  0  0  0  0  0
   -4.0624    0.0860    0.0000 C    0  0  0  0  0  0  0  0  0  0  0  0
   -3.3264    2.8413    0.0000 C    0  0  0  0  0  0  0  0  0  0  0  0
   -4.7126    2.4767    0.0000 C    0  0  0  0  0  0  0  0  0  0  0  0
   -5.0772    1.0973    0.0000 C    0  0  0  0  0  0  0  0  0  0  0  0
    2.8929   -3.0581    0.0000 C    0  0  0  0  0  0  0  0  0  0  0  0
   -4.8674    0.3096    0.0000 C    0  0  0  0  0  0  0  0  0  0  0  0
  2  1  1  0  0  0  0
  3  1  2  0  0  0  0
  4 12  1  0  0  0  0
  5 23  1  0  0  0  0
  6  5  3  0  0  0  0
  7 14  1  0  0  0  0
  8 17  2  0  0  0  0
  9  7  2  0  0  0  0
 10  2  2  0  0  0  0
 11  3  1  0  0  0  0
 12  8  1  0  0  0  0
 13 11  2  0  0  0  0
 13 10  1  0  0  0  0
 14 15  1  0  0  0  0
 15 18  1  0  0  0  0
 16  4  2  0  0  0  0
 17 13  1  0  0  0  0
 18  4  1  0  0  0  0
 19  7  1  0  0  0  0
 20  2  1  0  0  0  0
 21  1  1  0  0  0  0
 22  3  1  0  0  0  0
 23 21  1  0  0  0  0
 24 26  1  0  0  0  0
 25  9  1  0  0  0  0
 25 30  2  0  0  0  0
 26 14  2  0  0  0  0
 27 24  2  0  0  0  0
 27 19  1  0  0  0  0
 28 19  2  0  0  0  0
 29 22  1  0  0  0  0
 30 28  1  0  0  0  0
M  END
> <CdId>
1739

> <Mol Weight>
468.3

> <Formula>
C22H18BrN3O4

> <Click_ID>
CLK023_E04 __ __ 

$$$$
