CLK041A03
 OpenBabel03181410512D

 22 23  0  0  0  0  0  0  0  0999 V2000
   -2.5708   -1.1792    0.0000 S   0  0  0  0  0  0  0  0  0  0  0  0
   -1.8542   -1.5917    0.0000 N   0  0  0  0  0  0  0  0  0  0  0  0
    0.2875   -0.3542    0.0000 C   0  0  0  0  0  0  0  0  0  0  0  0
   -1.1417   -1.1792    0.0000 C   0  0  0  0  0  0  0  0  0  0  0  0
   -1.1417   -0.3542    0.0000 N   0  0  0  0  0  0  0  0  0  0  0  0
   -0.4292    0.0583    0.0000 C   0  0  0  0  0  0  0  0  0  0  0  0
    1.0000    0.0583    0.0000 C   0  0  0  0  0  0  0  0  0  0  0  0
    0.2875   -1.1792    0.0000 C   0  0  0  0  0  0  0  0  0  0  0  0
   -2.5708   -0.3542    0.0000 C   0  0  0  0  0  0  0  0  0  0  0  0
   -0.4292   -1.5917    0.0000 C   0  0  0  0  0  0  0  0  0  0  0  0
    1.0000    0.8833    0.0000 N   0  0  0  0  0  0  0  0  0  0  0  0
    2.4292    1.7083    0.0000 C   0  0  0  0  0  0  0  0  0  0  0  0
   -3.3750   -1.3625    0.0000 O   0  0  0  0  0  0  0  0  0  0  0  0
   -3.1333   -1.7875    0.0000 O   0  0  0  0  0  0  0  0  0  0  0  0
    3.1458    2.1208    0.0000 C   0  0  0  0  0  0  0  0  0  0  0  0
   -1.8542    0.0583    0.0000 C   0  0  0  0  0  0  0  0  0  0  0  0
    1.7167    1.2958    0.0000 C   0  0  0  0  0  0  0  0  0  0  0  0
    1.7167   -0.3542    0.0000 O   0  0  0  0  0  0  0  0  0  0  0  0
    2.1292    0.5792    0.0000 C   0  0  0  0  0  0  0  0  0  0  0  0
    1.3042    2.0083    0.0000 C   0  0  0  0  0  0  0  0  0  0  0  0
    1.7167   -0.1333    0.0000 C   0  0  0  0  0  0  0  0  0  0  0  0
    1.7167    2.7250    0.0000 C   0  0  0  0  0  0  0  0  0  0  0  0
  2  1  1  0  0  0  0
  3  8  1  0  0  0  0
  4  2  2  0  0  0  0
  5  4  1  0  0  0  0
  6  5  1  0  0  0  0
  6  3  2  0  0  0  0
  7  3  1  0  0  0  0
  8 10  2  0  0  0  0
  9  1  1  0  0  0  0
 10  4  1  0  0  0  0
 11  7  1  0  0  0  0
 12 17  1  0  0  0  0
 13  1  2  0  0  0  0
 14  1  2  0  0  0  0
 15 12  3  0  0  0  0
 16  9  1  0  0  0  0
 16  5  1  0  0  0  0
 17 11  1  0  0  0  0
 18  7  2  0  0  0  0
 19 17  1  0  0  0  0
 20 17  1  0  0  0  0
 21 19  1  0  0  0  0
 22 20  1  0  0  0  0
M  END
> <CdId>
3097

> <Mol Weight>
321.395

> <Formula>
C15H19N3O3S

> <Click_ID>
CLK041A03 __ __ 

$$$$
