CLK012_E11
 OpenBabel03181410512D

 29 31  0  0  0  0  0  0  0  0999 V2000
    5.2575   -1.1272    0.0000 N   0  0  0  0  0  0  0  0  0  0  0  0
    5.1285   -1.9466    0.0000 C   0  0  0  0  0  0  0  0  0  0  0  0
    4.5213   -0.7529    0.0000 C   0  0  0  0  0  0  0  0  0  0  0  0
    3.9348   -1.3352    0.0000 C   0  0  0  0  0  0  0  0  0  0  0  0
    4.3092   -2.0756    0.0000 S   0  0  0  0  0  0  0  0  0  0  0  0
    3.1237   -1.2021    0.0000 C   0  0  0  0  0  0  0  0  0  0  0  0
    5.9937   -0.7612    0.0000 C   0  0  0  0  0  0  0  0  0  0  0  0
    5.7067   -2.5331    0.0000 S   0  0  0  0  0  0  0  0  0  0  0  0
    0.8153   -5.1826    0.0000 C   0  0  0  0  0  0  0  0  0  0  0  0
    0.2995   -5.8190    0.0000 C   0  0  0  0  0  0  0  0  0  0  0  0
    1.2645   -2.3584    0.0000 C   0  0  0  0  0  0  0  0  0  0  0  0
    4.3965    0.0582    0.0000 O   0  0  0  0  0  0  0  0  0  0  0  0
    2.5996   -1.8468    0.0000 C   0  0  0  0  0  0  0  0  0  0  0  0
    1.7844   -1.7137    0.0000 C   0  0  0  0  0  0  0  0  0  0  0  0
    1.5598   -3.1320    0.0000 C   0  0  0  0  0  0  0  0  0  0  0  0
    2.3750   -3.2610    0.0000 C   0  0  0  0  0  0  0  0  0  0  0  0
    6.6800   -1.2104    0.0000 C   0  0  0  0  0  0  0  0  0  0  0  0
    2.8949   -2.6204    0.0000 C   0  0  0  0  0  0  0  0  0  0  0  0
    8.0526   -2.1130    0.0000 C   0  0  0  0  0  0  0  0  0  0  0  0
    0.4492   -2.2253    0.0000 O   0  0  0  0  0  0  0  0  0  0  0  0
    1.0399   -3.7726    0.0000 O   0  0  0  0  0  0  0  0  0  0  0  0
    7.4162   -0.8360    0.0000 C   0  0  0  0  0  0  0  0  0  0  0  0
    6.6301   -2.0257    0.0000 C   0  0  0  0  0  0  0  0  0  0  0  0
    8.1025   -1.2894    0.0000 C   0  0  0  0  0  0  0  0  0  0  0  0
    7.3164   -2.4832    0.0000 C   0  0  0  0  0  0  0  0  0  0  0  0
    1.3352   -4.5420    0.0000 C   0  0  0  0  0  0  0  0  0  0  0  0
    8.7389   -2.5622    0.0000 O   0  0  0  0  0  0  0  0  0  0  0  0
   -0.0707   -2.8700    0.0000 C   0  0  0  0  0  0  0  0  0  0  0  0
    9.4751   -2.1962    0.0000 C   0  0  0  0  0  0  0  0  0  0  0  0
  2  1  1  0  0  0  0
  3  1  1  0  0  0  0
  4  3  1  0  0  0  0
  5  2  1  0  0  0  0
  5  4  1  0  0  0  0
  6  4  2  0  0  0  0
  7  1  1  0  0  0  0
  8  2  2  0  0  0  0
  9 26  1  0  0  0  0
 10  9  3  0  0  0  0
 11 14  1  0  0  0  0
 11 15  2  0  0  0  0
 12  3  2  0  0  0  0
 13  6  1  0  0  0  0
 14 13  2  0  0  0  0
 15 16  1  0  0  0  0
 16 18  2  0  0  0  0
 17  7  1  0  0  0  0
 18 13  1  0  0  0  0
 19 25  2  0  0  0  0
 19 24  1  0  0  0  0
 20 11  1  0  0  0  0
 21 15  1  0  0  0  0
 22 17  1  0  0  0  0
 23 17  2  0  0  0  0
 24 22  2  0  0  0  0
 25 23  1  0  0  0  0
 26 21  1  0  0  0  0
 27 19  1  0  0  0  0
 28 20  1  0  0  0  0
 29 27  1  0  0  0  0
M  END
> <CdId>
886

> <Mol Weight>
425.521

> <Formula>
C22H19NO4S2

> <Click_ID>
CLK012_E11 __ __ 

$$$$
