CLK048C03
 OpenBabel03181410512D

 22 24  0  0  0  0  0  0  0  0999 V2000
   -3.0250    0.0375    0.0000 C   0  0  0  0  0  0  0  0  0  0  0  0
    4.1208    0.0375    0.0000 C   0  0  0  0  0  0  0  0  0  0  0  0
    4.8375    0.4500    0.0000 C   0  0  0  0  0  0  0  0  0  0  0  0
   -2.3083   -0.3750    0.0000 C   0  0  0  0  0  0  0  0  0  0  0  0
   -0.1667    0.0375    0.0000 C   0  0  0  0  0  0  0  0  0  0  0  0
   -3.0250    0.8625    0.0000 C   0  0  0  0  0  0  0  0  0  0  0  0
   -0.8792   -0.3750    0.0000 N   0  0  0  0  0  0  0  0  0  0  0  0
   -3.8083   -0.2167    0.0000 O   0  0  0  0  0  0  0  0  0  0  0  0
   -3.8083    1.1208    0.0000 O   0  0  0  0  0  0  0  0  0  0  0  0
   -1.5958    0.0375    0.0000 C   0  0  0  0  0  0  0  0  0  0  0  0
   -4.2917    0.4500    0.0000 C   0  0  0  0  0  0  0  0  0  0  0  0
    1.2625    0.0375    0.0000 N   0  0  0  0  0  0  0  0  0  0  0  0
   -0.1667    0.8625    0.0000 O   0  0  0  0  0  0  0  0  0  0  0  0
   -2.3083    1.2750    0.0000 C   0  0  0  0  0  0  0  0  0  0  0  0
    3.4083   -0.3750    0.0000 C   0  0  0  0  0  0  0  0  0  0  0  0
    0.5500   -0.3750    0.0000 C   0  0  0  0  0  0  0  0  0  0  0  0
    1.9792   -0.3750    0.0000 C   0  0  0  0  0  0  0  0  0  0  0  0
   -1.5958    0.8625    0.0000 C   0  0  0  0  0  0  0  0  0  0  0  0
    2.6917    0.0375    0.0000 C   0  0  0  0  0  0  0  0  0  0  0  0
    2.6917   -1.6125    0.0000 C   0  0  0  0  0  0  0  0  0  0  0  0
    3.4083   -1.2000    0.0000 C   0  0  0  0  0  0  0  0  0  0  0  0
    1.9792   -1.2000    0.0000 C   0  0  0  0  0  0  0  0  0  0  0  0
  2 15  1  0  0  0  0
  3  2  3  0  0  0  0
  4  1  1  0  0  0  0
  5  7  1  0  0  0  0
  6  1  2  0  0  0  0
  7 10  1  0  0  0  0
  8  1  1  0  0  0  0
  9  6  1  0  0  0  0
 10  4  2  0  0  0  0
 11  8  1  0  0  0  0
 11  9  1  0  0  0  0
 12 16  1  0  0  0  0
 13  5  2  0  0  0  0
 14  6  1  0  0  0  0
 14 18  2  0  0  0  0
 15 19  1  0  0  0  0
 16  5  1  0  0  0  0
 17 12  1  0  0  0  0
 18 10  1  0  0  0  0
 19 17  2  0  0  0  0
 20 22  2  0  0  0  0
 21 15  2  0  0  0  0
 21 20  1  0  0  0  0
 22 17  1  0  0  0  0
M  END
> <CdId>
3659

> <Mol Weight>
294.3047

> <Formula>
C17H14N2O3

> <Click_ID>
CLK048C03 __ __ 

$$$$
