CLK010_C07
 OpenBabel03181410512D

 29 32  0  0  0  0  0  0  0  0999 V2000
    2.8500   -0.6750    0.0000 N   0  0  0  0  0  0  0  0  0  0  0  0
    3.5542   -1.9125    0.0000 C   0  0  0  0  0  0  0  0  0  0  0  0
    2.8417   -1.5000    0.0000 C   0  0  0  0  0  0  0  0  0  0  0  0
    3.5625   -0.2625    0.0000 C   0  0  0  0  0  0  0  0  0  0  0  0
    4.2750   -0.6792    0.0000 N   0  0  0  0  0  0  0  0  0  0  0  0
    4.2667   -1.5042    0.0000 C   0  0  0  0  0  0  0  0  0  0  0  0
    4.2625   -3.1500    0.0000 C   0  0  0  0  0  0  0  0  0  0  0  0
    3.5500   -2.7375    0.0000 C   0  0  0  0  0  0  0  0  0  0  0  0
    5.5667   -3.4375    0.0000 N   0  0  0  0  0  0  0  0  0  0  0  0
    5.0167   -2.8167    0.0000 C   0  0  0  0  0  0  0  0  0  0  0  0
    4.3417   -3.9750    0.0000 C   0  0  0  0  0  0  0  0  0  0  0  0
    5.1500   -4.1500    0.0000 C   0  0  0  0  0  0  0  0  0  0  0  0
    2.1292   -0.2625    0.0000 C   0  0  0  0  0  0  0  0  0  0  0  0
    6.8667   -4.0292    0.0000 C   0  0  0  0  0  0  0  0  0  0  0  0
    3.5625    0.5625    0.0000 O   0  0  0  0  0  0  0  0  0  0  0  0
    7.3042   -4.7250    0.0000 C   0  0  0  0  0  0  0  0  0  0  0  0
    2.1292   -1.9042    0.0000 O   0  0  0  0  0  0  0  0  0  0  0  0
    4.9792   -1.9167    0.0000 O   0  0  0  0  0  0  0  0  0  0  0  0
    6.3875   -3.3542    0.0000 C   0  0  0  0  0  0  0  0  0  0  0  0
    1.4125   -0.6750    0.0000 C   0  0  0  0  0  0  0  0  0  0  0  0
    2.1292    0.5708    0.0000 C   0  0  0  0  0  0  0  0  0  0  0  0
    0.7000   -0.2625    0.0000 C   0  0  0  0  0  0  0  0  0  0  0  0
    1.4125    0.9833    0.0000 C   0  0  0  0  0  0  0  0  0  0  0  0
    0.7000    0.5708    0.0000 C   0  0  0  0  0  0  0  0  0  0  0  0
    5.4000   -4.9292    0.0000 C   0  0  0  0  0  0  0  0  0  0  0  0
    3.7875   -4.5792    0.0000 C   0  0  0  0  0  0  0  0  0  0  0  0
   -0.0208    0.9833    0.0000 C   0  0  0  0  0  0  0  0  0  0  0  0
    4.8417   -5.5417    0.0000 C   0  0  0  0  0  0  0  0  0  0  0  0
    4.0375   -5.3667    0.0000 C   0  0  0  0  0  0  0  0  0  0  0  0
  2  3  1  0  0  0  0
  2  6  1  0  0  0  0
  3  1  1  0  0  0  0
  4  1  1  0  0  0  0
  5  4  1  0  0  0  0
  6  5  1  0  0  0  0
  7  8  1  0  0  0  0
  8  2  2  0  0  0  0
  9 10  1  0  0  0  0
 10  7  2  0  0  0  0
 11  7  1  0  0  0  0
 12 11  1  0  0  0  0
 12  9  1  0  0  0  0
 13  1  1  0  0  0  0
 14 19  1  0  0  0  0
 15  4  2  0  0  0  0
 16 14  3  0  0  0  0
 17  3  2  0  0  0  0
 18  6  2  0  0  0  0
 19  9  1  0  0  0  0
 20 13  1  0  0  0  0
 21 13  2  0  0  0  0
 22 20  2  0  0  0  0
 23 21  1  0  0  0  0
 24 23  2  0  0  0  0
 24 22  1  0  0  0  0
 25 12  2  0  0  0  0
 26 11  2  0  0  0  0
 27 24  1  0  0  0  0
 28 29  2  0  0  0  0
 28 25  1  0  0  0  0
 29 26  1  0  0  0  0
M  END
> <CdId>
702

> <Mol Weight>
383.3994

> <Formula>
C23H17N3O3

> <Click_ID>
CLK010_C07 __ __ 

$$$$
