CLK046H04
 OpenBabel03181410512D

 24 26  0  0  0  0  0  0  0  0999 V2000
    0.5458    0.4500    0.0000 S    0  0  0  0  0  0  0  0  0  0  0  0
   -0.2375    0.7083    0.0000 C    0  0  0  0  0  0  0  0  0  0  0  0
    1.0333    1.1208    0.0000 C    0  0  0  0  0  0  0  0  0  0  0  0
    0.5458    1.7875    0.0000 C    0  0  0  0  0  0  0  0  0  0  0  0
   -0.2375    1.5333    0.0000 C    0  0  0  0  0  0  0  0  0  0  0  0
   -0.9500    0.2958    0.0000 C    0  0  0  0  0  0  0  0  0  0  0  0
   -1.6667    0.7083    0.0000 N    0  0  0  0  0  0  0  0  0  0  0  0
   -0.9500    1.9458    0.0000 N    0  0  0  0  0  0  0  0  0  0  0  0
   -3.0958   -3.4167    0.0000 C    0  0  0  0  0  0  0  0  0  0  0  0
   -3.8083   -3.8292    0.0000 C    0  0  0  0  0  0  0  0  0  0  0  0
   -0.9500   -0.5292    0.0000 S    0  0  0  0  0  0  0  0  0  0  0  0
    1.8583    1.1208    0.0000 C    0  0  0  0  0  0  0  0  0  0  0  0
   -1.6667    1.5333    0.0000 C    0  0  0  0  0  0  0  0  0  0  0  0
   -1.6667   -1.7667    0.0000 C    0  0  0  0  0  0  0  0  0  0  0  0
   -0.9500   -2.1792    0.0000 O    0  0  0  0  0  0  0  0  0  0  0  0
    2.2708    1.8333    0.0000 C    0  0  0  0  0  0  0  0  0  0  0  0
    2.2708    0.4042    0.0000 C    0  0  0  0  0  0  0  0  0  0  0  0
   -1.6667   -0.9417    0.0000 C    0  0  0  0  0  0  0  0  0  0  0  0
   -2.3792   -2.1792    0.0000 N    0  0  0  0  0  0  0  0  0  0  0  0
    3.5083    1.1208    0.0000 C    0  0  0  0  0  0  0  0  0  0  0  0
    3.0958    1.8333    0.0000 C    0  0  0  0  0  0  0  0  0  0  0  0
    3.0958    0.4042    0.0000 C    0  0  0  0  0  0  0  0  0  0  0  0
    4.3333    1.1208    0.0000 Br   0  0  0  0  0  0  0  0  0  0  0  0
   -2.3792   -3.0042    0.0000 C    0  0  0  0  0  0  0  0  0  0  0  0
  2  1  1  0  0  0  0
  3  1  1  0  0  0  0
  4  3  2  0  0  0  0
  5  2  2  0  0  0  0
  5  4  1  0  0  0  0
  6  2  1  0  0  0  0
  7  6  2  0  0  0  0
  7 13  1  0  0  0  0
  8  5  1  0  0  0  0
  9 24  1  0  0  0  0
 10  9  3  0  0  0  0
 11  6  1  0  0  0  0
 12  3  1  0  0  0  0
 13  8  2  0  0  0  0
 14 18  1  0  0  0  0
 15 14  2  0  0  0  0
 16 12  1  0  0  0  0
 17 12  2  0  0  0  0
 18 11  1  0  0  0  0
 19 14  1  0  0  0  0
 20 22  2  0  0  0  0
 21 16  2  0  0  0  0
 21 20  1  0  0  0  0
 22 17  1  0  0  0  0
 23 20  1  0  0  0  0
 24 19  1  0  0  0  0
M  END
> <CdId>
3512

> <Mol Weight>
418.331

> <Formula>
C17H12BrN3OS2

> <Click_ID>
CLK046H04 __ __ 

$$$$
