CLK030_E02
 OpenBabel03181410512D

 24 26  0  0  0  0  0  0  0  0999 V2000
   -1.1649    2.3882    0.0000 C    0  0  0  0  0  0  0  0  0  0  0  0
   -0.3382    2.3799    0.0000 N    0  0  0  0  0  0  0  0  0  0  0  0
   -1.6492    1.7244    0.0000 N    0  0  0  0  0  0  0  0  0  0  0  0
    2.1795    2.6763    0.0000 C    0  0  0  0  0  0  0  0  0  0  0  0
   -1.6492    3.0563    0.0000 S    0  0  0  0  0  0  0  0  0  0  0  0
    2.8601    2.2004    0.0000 N    0  0  0  0  0  0  0  0  0  0  0  0
   -2.4383    2.8016    0.0000 C    0  0  0  0  0  0  0  0  0  0  0  0
    0.0752    3.0939    0.0000 C    0  0  0  0  0  0  0  0  0  0  0  0
    1.3946    2.4175    0.0000 O    0  0  0  0  0  0  0  0  0  0  0  0
    0.9019    3.0939    0.0000 C    0  0  0  0  0  0  0  0  0  0  0  0
   -2.4383    1.9749    0.0000 C    0  0  0  0  0  0  0  0  0  0  0  0
    2.1587    3.5030    0.0000 C    0  0  0  0  0  0  0  0  0  0  0  0
    1.3821    3.7452    0.0000 C    0  0  0  0  0  0  0  0  0  0  0  0
   -3.1523    3.2149    0.0000 C    0  0  0  0  0  0  0  0  0  0  0  0
   -1.9498    0.3215    0.0000 C    0  0  0  0  0  0  0  0  0  0  0  0
   -2.5010   -0.2923    0.0000 C    0  0  0  0  0  0  0  0  0  0  0  0
   -3.1523    1.5615    0.0000 C    0  0  0  0  0  0  0  0  0  0  0  0
    2.7850    1.3653    0.0000 O    0  0  0  0  0  0  0  0  0  0  0  0
    3.6117    2.5511    0.0000 O    0  0  0  0  0  0  0  0  0  0  0  0
   -0.3382    3.8079    0.0000 O    0  0  0  0  0  0  0  0  0  0  0  0
   -1.3987    0.9352    0.0000 C    0  0  0  0  0  0  0  0  0  0  0  0
   -3.8663    2.8016    0.0000 C    0  0  0  0  0  0  0  0  0  0  0  0
   -3.8663    1.9749    0.0000 C    0  0  0  0  0  0  0  0  0  0  0  0
   -4.5928    3.2192    0.0000 Br   0  0  0  0  0  0  0  0  0  0  0  0
  2  1  2  0  0  0  0
  3  1  1  0  0  0  0
  4  9  1  0  0  0  0
  5  1  1  0  0  0  0
  6  4  1  0  0  0  0
  7  5  1  0  0  0  0
  7 11  2  0  0  0  0
  8  2  1  0  0  0  0
  9 10  1  0  0  0  0
 10  8  1  0  0  0  0
 11  3  1  0  0  0  0
 12 13  1  0  0  0  0
 12  4  2  0  0  0  0
 13 10  2  0  0  0  0
 14  7  1  0  0  0  0
 15 21  1  0  0  0  0
 16 15  3  0  0  0  0
 17 11  1  0  0  0  0
 18  6  1  0  0  0  0
 19  6  2  0  0  0  0
 20  8  2  0  0  0  0
 21  3  1  0  0  0  0
 22 14  2  0  0  0  0
 22 23  1  0  0  0  0
 23 17  2  0  0  0  0
 24 22  1  0  0  0  0
M  END
> <CdId>
2286

> <Mol Weight>
406.211

> <Formula>
C15H8BrN3O4S

> <Click_ID>
CLK030_E02 __ __ 

$$$$
