CLK046D07
 OpenBabel03181410512D

 24 24  0  0  0  0  0  0  0  0999 V2000
    0.0792    0.1749    0.0000 S    0  0  0  0  0  0  0  0  0  0  0  0
    0.5706    0.8372    0.0000 C    0  0  0  0  0  0  0  0  0  0  0  0
   -0.4124   -0.4874    0.0000 N    0  0  0  0  0  0  0  0  0  0  0  0
    1.3954    0.8289    0.0000 S    0  0  0  0  0  0  0  0  0  0  0  0
    1.6577    1.6120    0.0000 C    0  0  0  0  0  0  0  0  0  0  0  0
   -0.0833   -1.2454    0.0000 C    0  0  0  0  0  0  0  0  0  0  0  0
   -1.2329   -0.3957    0.0000 C    0  0  0  0  0  0  0  0  0  0  0  0
    0.3207    1.6245    0.0000 C    0  0  0  0  0  0  0  0  0  0  0  0
    0.7331   -1.3413    0.0000 C    0  0  0  0  0  0  0  0  0  0  0  0
   -1.5620    0.3624    0.0000 C    0  0  0  0  0  0  0  0  0  0  0  0
    0.9954    2.0993    0.0000 C    0  0  0  0  0  0  0  0  0  0  0  0
   -0.5831    0.6665    0.0000 O    0  0  0  0  0  0  0  0  0  0  0  0
    0.7415   -0.3166    0.0000 O    0  0  0  0  0  0  0  0  0  0  0  0
    2.2118   -2.9448    0.0000 C    0  0  0  0  0  0  0  0  0  0  0  0
   -3.5281    1.3038    0.0000 C    0  0  0  0  0  0  0  0  0  0  0  0
    2.5409   -3.7030    0.0000 C    0  0  0  0  0  0  0  0  0  0  0  0
   -4.3486    1.3996    0.0000 C    0  0  0  0  0  0  0  0  0  0  0  0
    1.2246   -0.6790    0.0000 O    0  0  0  0  0  0  0  0  0  0  0  0
   -1.0705    1.0247    0.0000 O    0  0  0  0  0  0  0  0  0  0  0  0
    2.4451    1.8577    0.0000 Br   0  0  0  0  0  0  0  0  0  0  0  0
    1.0622   -2.0951    0.0000 N    0  0  0  0  0  0  0  0  0  0  0  0
   -2.3784    0.4541    0.0000 N    0  0  0  0  0  0  0  0  0  0  0  0
    1.8827   -2.1910    0.0000 C    0  0  0  0  0  0  0  0  0  0  0  0
   -2.7075    1.2121    0.0000 C    0  0  0  0  0  0  0  0  0  0  0  0
  2  1  1  0  0  0  0
  3  1  1  0  0  0  0
  4  2  1  0  0  0  0
  5  4  1  0  0  0  0
  6  3  1  0  0  0  0
  7  3  1  0  0  0  0
  8  2  2  0  0  0  0
  9  6  1  0  0  0  0
 10  7  1  0  0  0  0
 11  8  1  0  0  0  0
 11  5  2  0  0  0  0
 12  1  2  0  0  0  0
 13  1  2  0  0  0  0
 14 23  1  0  0  0  0
 15 24  1  0  0  0  0
 16 14  3  0  0  0  0
 17 15  3  0  0  0  0
 18  9  2  0  0  0  0
 19 10  2  0  0  0  0
 20  5  1  0  0  0  0
 21  9  1  0  0  0  0
 22 10  1  0  0  0  0
 23 21  1  0  0  0  0
 24 22  1  0  0  0  0
M  END
> <CdId>
3532

> <Mol Weight>
432.313

> <Formula>
C14H14BrN3O4S2

> <Click_ID>
CLK046D07 __ __ 

$$$$
