CLK044C09
 OpenBabel03181410512D

 14 14  0  0  0  0  0  0  0  0999 V2000
   -0.2042   -0.2333    0.0000 C    0  0  0  0  0  0  0  0  0  0  0  0
   -0.9208   -0.6458    0.0000 C    0  0  0  0  0  0  0  0  0  0  0  0
   -0.2042    0.5917    0.0000 C    0  0  0  0  0  0  0  0  0  0  0  0
    1.2208    2.2417    0.0000 C    0  0  0  0  0  0  0  0  0  0  0  0
    0.5083   -0.6458    0.0000 C    0  0  0  0  0  0  0  0  0  0  0  0
    1.9375    2.6542    0.0000 C    0  0  0  0  0  0  0  0  0  0  0  0
   -0.9208   -1.4708    0.0000 C    0  0  0  0  0  0  0  0  0  0  0  0
   -0.9208    1.0042    0.0000 O    0  0  0  0  0  0  0  0  0  0  0  0
    0.5083    1.0042    0.0000 N    0  0  0  0  0  0  0  0  0  0  0  0
   -0.2042   -1.8833    0.0000 C    0  0  0  0  0  0  0  0  0  0  0  0
   -1.6333   -0.2333    0.0000 Cl   0  0  0  0  0  0  0  0  0  0  0  0
    0.5083   -1.4708    0.0000 C    0  0  0  0  0  0  0  0  0  0  0  0
   -0.2042   -2.7083    0.0000 F    0  0  0  0  0  0  0  0  0  0  0  0
    0.5083    1.8292    0.0000 C    0  0  0  0  0  0  0  0  0  0  0  0
  2  1  2  0  0  0  0
  3  1  1  0  0  0  0
  4 14  1  0  0  0  0
  5  1  1  0  0  0  0
  6  4  3  0  0  0  0
  7  2  1  0  0  0  0
  8  3  2  0  0  0  0
  9  3  1  0  0  0  0
 10  7  2  0  0  0  0
 11  2  1  0  0  0  0
 12  5  2  0  0  0  0
 12 10  1  0  0  0  0
 13 10  1  0  0  0  0
 14  9  1  0  0  0  0
M  END
> <CdId>
3387

> <Mol Weight>
211.62

> <Formula>
C10H7ClFNO

> <Click_ID>
CLK044C09 __ __ 

$$$$
