CLK023_C03
 OpenBabel03181410512D

 27 29  0  0  0  0  0  0  0  0999 V2000
   -2.1215    0.8162    0.0000 N   0  0  0  0  0  0  0  0  0  0  0  0
   -2.3281    1.6221    0.0000 C   0  0  0  0  0  0  0  0  0  0  0  0
   -1.3087    0.7680    0.0000 C   0  0  0  0  0  0  0  0  0  0  0  0
   -0.9987    1.5326    0.0000 C   0  0  0  0  0  0  0  0  0  0  0  0
   -1.6324    2.0595    0.0000 N   0  0  0  0  0  0  0  0  0  0  0  0
   -0.1928    1.7392    0.0000 C   0  0  0  0  0  0  0  0  0  0  0  0
    3.4612   -1.0229    0.0000 C   0  0  0  0  0  0  0  0  0  0  0  0
   -2.6794    0.2066    0.0000 C   0  0  0  0  0  0  0  0  0  0  0  0
    4.0398   -1.6186    0.0000 C   0  0  0  0  0  0  0  0  0  0  0  0
   -3.1030    1.9355    0.0000 O   0  0  0  0  0  0  0  0  0  0  0  0
    0.7267   -0.2376    0.0000 C   0  0  0  0  0  0  0  0  0  0  0  0
   -0.8541    0.0517    0.0000 O   0  0  0  0  0  0  0  0  0  0  0  0
    0.3823    1.1434    0.0000 C   0  0  0  0  0  0  0  0  0  0  0  0
    0.1481    0.3548    0.0000 C   0  0  0  0  0  0  0  0  0  0  0  0
    1.5256   -0.0345    0.0000 C   0  0  0  0  0  0  0  0  0  0  0  0
    1.7496    0.7542    0.0000 C   0  0  0  0  0  0  0  0  0  0  0  0
    1.1778    1.3431    0.0000 C   0  0  0  0  0  0  0  0  0  0  0  0
    0.5131   -1.0470    0.0000 O   0  0  0  0  0  0  0  0  0  0  0  0
    2.0939   -0.6268    0.0000 O   0  0  0  0  0  0  0  0  0  0  0  0
    2.8929   -0.4236    0.0000 C   0  0  0  0  0  0  0  0  0  0  0  0
   -3.4922    0.3823    0.0000 C   0  0  0  0  0  0  0  0  0  0  0  0
   -2.4245   -0.5751    0.0000 C   0  0  0  0  0  0  0  0  0  0  0  0
   -0.2893   -1.2605    0.0000 C   0  0  0  0  0  0  0  0  0  0  0  0
   -0.5063   -2.0560    0.0000 C   0  0  0  0  0  0  0  0  0  0  0  0
   -2.9791   -1.1916    0.0000 C   0  0  0  0  0  0  0  0  0  0  0  0
   -4.0432   -0.2342    0.0000 C   0  0  0  0  0  0  0  0  0  0  0  0
   -3.7849   -1.0160    0.0000 C   0  0  0  0  0  0  0  0  0  0  0  0
  2  1  1  0  0  0  0
  3  1  1  0  0  0  0
  4  3  1  0  0  0  0
  4  5  1  0  0  0  0
  5  2  1  0  0  0  0
  6  4  2  0  0  0  0
  7 20  1  0  0  0  0
  8  1  1  0  0  0  0
  9  7  3  0  0  0  0
 10  2  2  0  0  0  0
 11 14  1  0  0  0  0
 12  3  2  0  0  0  0
 13  6  1  0  0  0  0
 14 13  2  0  0  0  0
 15 16  1  0  0  0  0
 15 11  2  0  0  0  0
 16 17  2  0  0  0  0
 17 13  1  0  0  0  0
 18 11  1  0  0  0  0
 19 15  1  0  0  0  0
 20 19  1  0  0  0  0
 21  8  2  0  0  0  0
 22  8  1  0  0  0  0
 23 18  1  0  0  0  0
 24 23  1  0  0  0  0
 25 22  2  0  0  0  0
 26 21  1  0  0  0  0
 27 25  1  0  0  0  0
 27 26  2  0  0  0  0
M  END
> <CdId>
1718

> <Mol Weight>
362.3786

> <Formula>
C21H18N2O4

> <Click_ID>
CLK023_C03 __ __ 

$$$$
