CLK016_C10
 OpenBabel03181410512D

 32 34  0  0  0  0  0  0  0  0999 V2000
    1.5739   -0.8205    0.0000 N    0  0  0  0  0  0  0  0  0  0  0  0
    1.8334   -1.6116    0.0000 C    0  0  0  0  0  0  0  0  0  0  0  0
    2.2478   -0.3307    0.0000 C    0  0  0  0  0  0  0  0  0  0  0  0
    2.9176   -0.8205    0.0000 C    0  0  0  0  0  0  0  0  0  0  0  0
    2.6622   -1.6116    0.0000 S    0  0  0  0  0  0  0  0  0  0  0  0
    4.2487    1.8418    0.0000 C    0  0  0  0  0  0  0  0  0  0  0  0
    3.7088   -0.5651    0.0000 C    0  0  0  0  0  0  0  0  0  0  0  0
    4.8390    1.2809    0.0000 C    0  0  0  0  0  0  0  0  0  0  0  0
    3.4576    1.6032    0.0000 C    0  0  0  0  0  0  0  0  0  0  0  0
    3.8804    0.2344    0.0000 C    0  0  0  0  0  0  0  0  0  0  0  0
    4.4329    2.6455    0.0000 O    0  0  0  0  0  0  0  0  0  0  0  0
    5.9649    6.0696    0.0000 C    0  0  0  0  0  0  0  0  0  0  0  0
    0.6153    0.2469    0.0000 C    0  0  0  0  0  0  0  0  0  0  0  0
    0.3935    1.0506    0.0000 C    0  0  0  0  0  0  0  0  0  0  0  0
    1.3437   -2.2772    0.0000 O    0  0  0  0  0  0  0  0  0  0  0  0
    4.6589    0.4855    0.0000 C    0  0  0  0  0  0  0  0  0  0  0  0
    2.2395    0.4981    0.0000 O    0  0  0  0  0  0  0  0  0  0  0  0
    3.2776    0.7869    0.0000 C    0  0  0  0  0  0  0  0  0  0  0  0
    5.7766    5.2785    0.0000 C    0  0  0  0  0  0  0  0  0  0  0  0
    0.7911   -0.5651    0.0000 C    0  0  0  0  0  0  0  0  0  0  0  0
    5.3664    6.6473    0.0000 O    0  0  0  0  0  0  0  0  0  0  0  0
    4.9854    5.0399    0.0000 C    0  0  0  0  0  0  0  0  0  0  0  0
    6.3710    4.7134    0.0000 C    0  0  0  0  0  0  0  0  0  0  0  0
    5.6259    1.5195    0.0000 Cl   0  0  0  0  0  0  0  0  0  0  0  0
    5.2115    2.8841    0.0000 C    0  0  0  0  0  0  0  0  0  0  0  0
    6.7477    6.3208    0.0000 O    0  0  0  0  0  0  0  0  0  0  0  0
    2.8548    2.1557    0.0000 O    0  0  0  0  0  0  0  0  0  0  0  0
    5.3998    3.6878    0.0000 C    0  0  0  0  0  0  0  0  0  0  0  0
    4.7971    4.2362    0.0000 C    0  0  0  0  0  0  0  0  0  0  0  0
    6.1826    3.9264    0.0000 C    0  0  0  0  0  0  0  0  0  0  0  0
    2.0763    1.9046    0.0000 C    0  0  0  0  0  0  0  0  0  0  0  0
    1.4735    2.4697    0.0000 C    0  0  0  0  0  0  0  0  0  0  0  0
  2  1  1  0  0  0  0
  3  1  1  0  0  0  0
  4  3  1  0  0  0  0
  4  5  1  0  0  0  0
  5  2  1  0  0  0  0
  6  9  2  0  0  0  0
  6  8  1  0  0  0  0
  7  4  2  0  0  0  0
  8 16  2  0  0  0  0
  9 18  1  0  0  0  0
 10  7  1  0  0  0  0
 11  6  1  0  0  0  0
 12 19  1  0  0  0  0
 13 20  1  0  0  0  0
 14 13  3  0  0  0  0
 15  2  2  0  0  0  0
 16 10  1  0  0  0  0
 17  3  2  0  0  0  0
 18 10  2  0  0  0  0
 19 23  2  0  0  0  0
 20  1  1  0  0  0  0
 21 12  2  0  0  0  0
 22 29  2  0  0  0  0
 22 19  1  0  0  0  0
 23 30  1  0  0  0  0
 24  8  1  0  0  0  0
 25 11  1  0  0  0  0
 26 12  1  0  0  0  0
 27  9  1  0  0  0  0
 28 25  1  0  0  0  0
 29 28  1  0  0  0  0
 30 28  2  0  0  0  0
 31 27  1  0  0  0  0
 32 31  1  0  0  0  0
M  END
> <CdId>
1185

> <Mol Weight>
471.91

> <Formula>
C23H18ClNO6S

> <Click_ID>
CLK016_C10 __ __ 

$$$$
