CLK034_F04
 OpenBabel03181410512D

 27 30  0  0  0  0  0  0  0  0999 V2000
   -4.5997    2.5591    0.0000 C   0  0  0  0  0  0  0  0  0  0  0  0
   -3.8846    2.9940    0.0000 N   0  0  0  0  0  0  0  0  0  0  0  0
   -5.3691    2.8811    0.0000 S   0  0  0  0  0  0  0  0  0  0  0  0
   -4.6750    1.7437    0.0000 N   0  0  0  0  0  0  0  0  0  0  0  0
   -5.9043    2.2538    0.0000 C   0  0  0  0  0  0  0  0  0  0  0  0
   -1.8524    4.5078    0.0000 C   0  0  0  0  0  0  0  0  0  0  0  0
   -1.0161    4.4325    0.0000 N   0  3  0  0  0  0  0  0  0  0  0  0
   -5.4778    1.5513    0.0000 C   0  0  0  0  0  0  0  0  0  0  0  0
   -3.8846    3.8136    0.0000 C   0  0  0  0  0  0  0  0  0  0  0  0
   -2.4044    3.8972    0.0000 O   0  0  0  0  0  0  0  0  0  0  0  0
   -3.1696    4.2276    0.0000 C   0  0  0  0  0  0  0  0  0  0  0  0
   -2.2789    5.2103    0.0000 C   0  0  0  0  0  0  0  0  0  0  0  0
   -3.0818    5.0346    0.0000 C   0  0  0  0  0  0  0  0  0  0  0  0
   -6.7282    2.2413    0.0000 C   0  0  0  0  0  0  0  0  0  0  0  0
   -5.8667    0.8237    0.0000 C   0  0  0  0  0  0  0  0  0  0  0  0
   -3.2491    1.4677    0.0000 C   0  0  0  0  0  0  0  0  0  0  0  0
   -2.4713    1.7520    0.0000 C   0  0  0  0  0  0  0  0  0  0  0  0
   -0.6649    3.6839    0.0000 O   0  5  0  0  0  0  0  0  0  0  0  0
   -0.5394    5.1099    0.0000 O   0  0  0  0  0  0  0  0  0  0  0  0
   -4.5997    4.2192    0.0000 O   0  0  0  0  0  0  0  0  0  0  0  0
   -4.0352    1.2001    0.0000 C   0  0  0  0  0  0  0  0  0  0  0  0
   -7.1296    1.5137    0.0000 C   0  0  0  0  0  0  0  0  0  0  0  0
   -6.6905    0.7986    0.0000 C   0  0  0  0  0  0  0  0  0  0  0  0
   -7.1672    2.9438    0.0000 C   0  0  0  0  0  0  0  0  0  0  0  0
   -7.9450    1.4886    0.0000 C   0  0  0  0  0  0  0  0  0  0  0  0
   -7.9952    2.9229    0.0000 C   0  0  0  0  0  0  0  0  0  0  0  0
   -8.3841    2.1953    0.0000 C   0  0  0  0  0  0  0  0  0  0  0  0
  2  1  2  0  0  0  0
  3  1  1  0  0  0  0
  4  1  1  0  0  0  0
  5  3  1  0  0  0  0
  5  8  2  0  0  0  0
  6 10  1  0  0  0  0
  6 12  2  0  0  0  0
  7  6  1  0  0  0  0
  8  4  1  0  0  0  0
  9  2  1  0  0  0  0
 10 11  1  0  0  0  0
 11  9  1  0  0  0  0
 12 13  1  0  0  0  0
 13 11  2  0  0  0  0
 14  5  1  0  0  0  0
 15  8  1  0  0  0  0
 16 21  1  0  0  0  0
 17 16  3  0  0  0  0
 18  7  1  0  0  0  0
 19  7  2  0  0  0  0
 20  9  2  0  0  0  0
 21  4  1  0  0  0  0
 22 14  1  0  0  0  0
 23 15  2  0  0  0  0
 23 22  1  0  0  0  0
 24 14  2  0  0  0  0
 25 22  2  0  0  0  0
 25 27  1  0  0  0  0
 26 24  1  0  0  0  0
 27 26  2  0  0  0  0
M  END
> <CdId>
2618

> <Mol Weight>
377.373

> <Formula>
C19H11N3O4S

> <Click_ID>
CLK034_F04 __ __ 

$$$$
