CLK011_D06
 OpenBabel03181410512D

 34 36  0  0  0  0  0  0  0  0999 V2000
   -1.5208   -2.2034    0.0000 N    0  0  0  0  0  0  0  0  0  0  0  0
   -0.8062   -2.6157    0.0000 C    0  0  0  0  0  0  0  0  0  0  0  0
   -2.2354   -2.6157    0.0000 C    0  0  0  0  0  0  0  0  0  0  0  0
   -0.8062   -3.4402    0.0000 C    0  0  0  0  0  0  0  0  0  0  0  0
   -2.2354   -3.4402    0.0000 N    0  0  0  0  0  0  0  0  0  0  0  0
   -1.5208   -3.8525    0.0000 C    0  0  0  0  0  0  0  0  0  0  0  0
   -1.5117   -1.3789    0.0000 C    0  0  0  0  0  0  0  0  0  0  0  0
   -0.0916    0.2702    0.0000 C    0  0  0  0  0  0  0  0  0  0  0  0
   -0.0916   -3.8525    0.0000 C    0  0  0  0  0  0  0  0  0  0  0  0
   -0.8062   -0.9666    0.0000 C    0  0  0  0  0  0  0  0  0  0  0  0
   -0.8062   -0.1420    0.0000 C    0  0  0  0  0  0  0  0  0  0  0  0
    3.4814   -0.9666    0.0000 C    0  0  0  0  0  0  0  0  0  0  0  0
   -2.9500   -2.2034    0.0000 O    0  0  0  0  0  0  0  0  0  0  0  0
   -2.2263   -0.9666    0.0000 C    0  0  0  0  0  0  0  0  0  0  0  0
   -0.0916   -2.2034    0.0000 O    0  0  0  0  0  0  0  0  0  0  0  0
    3.4814   -0.1420    0.0000 C    0  0  0  0  0  0  0  0  0  0  0  0
    2.0522   -3.4402    0.0000 C    0  0  0  0  0  0  0  0  0  0  0  0
   -1.5208   -4.6770    0.0000 O    0  0  0  0  0  0  0  0  0  0  0  0
    0.6230   -3.4402    0.0000 C    0  0  0  0  0  0  0  0  0  0  0  0
    1.3376   -3.8525    0.0000 C    0  0  0  0  0  0  0  0  0  0  0  0
    2.0522   -2.6157    0.0000 C    0  0  0  0  0  0  0  0  0  0  0  0
   -1.5117    0.2702    0.0000 C    0  0  0  0  0  0  0  0  0  0  0  0
   -2.2263   -0.1420    0.0000 C    0  0  0  0  0  0  0  0  0  0  0  0
    0.6230   -0.1420    0.0000 F    0  0  0  0  0  0  0  0  0  0  0  0
   -0.0916    1.0948    0.0000 F    0  0  0  0  0  0  0  0  0  0  0  0
    0.7330    0.2702    0.0000 F    0  0  0  0  0  0  0  0  0  0  0  0
    1.3376   -2.2034    0.0000 C    0  0  0  0  0  0  0  0  0  0  0  0
    0.6230   -2.6157    0.0000 C    0  0  0  0  0  0  0  0  0  0  0  0
   -2.9409   -1.3789    0.0000 Cl   0  0  0  0  0  0  0  0  0  0  0  0
    2.7668   -3.8525    0.0000 O    0  0  0  0  0  0  0  0  0  0  0  0
    2.7668   -2.2034    0.0000 O    0  0  0  0  0  0  0  0  0  0  0  0
    2.7668   -1.3789    0.0000 C    0  0  0  0  0  0  0  0  0  0  0  0
    2.7668   -4.6770    0.0000 C    0  0  0  0  0  0  0  0  0  0  0  0
    3.4814   -5.0893    0.0000 C    0  0  0  0  0  0  0  0  0  0  0  0
  2  1  1  0  0  0  0
  3  1  1  0  0  0  0
  4  2  1  0  0  0  0
  5  3  1  0  0  0  0
  6  5  1  0  0  0  0
  6  4  1  0  0  0  0
  7  1  1  0  0  0  0
  8 11  1  0  0  0  0
  9  4  2  0  0  0  0
 10  7  1  0  0  0  0
 11 10  2  0  0  0  0
 11 22  1  0  0  0  0
 12 32  1  0  0  0  0
 13  3  2  0  0  0  0
 14  7  2  0  0  0  0
 15  2  2  0  0  0  0
 16 12  3  0  0  0  0
 17 20  2  0  0  0  0
 17 21  1  0  0  0  0
 18  6  2  0  0  0  0
 19  9  1  0  0  0  0
 20 19  1  0  0  0  0
 21 27  2  0  0  0  0
 22 23  2  0  0  0  0
 23 14  1  0  0  0  0
 24  8  1  0  0  0  0
 25  8  1  0  0  0  0
 26  8  1  0  0  0  0
 27 28  1  0  0  0  0
 28 19  2  0  0  0  0
 29 14  1  0  0  0  0
 30 17  1  0  0  0  0
 31 21  1  0  0  0  0
 32 31  1  0  0  0  0
 33 30  1  0  0  0  0
 34 33  1  0  0  0  0
M  END
> <CdId>
791

> <Mol Weight>
492.832

> <Formula>
C23H16ClF3N2O5

> <Click_ID>
CLK011_D06 __ __ 

$$$$
