CLK006_E08
 OpenBabel03181410512D

 24 27  0  0  0  0  0  0  0  0999 V2000
   -2.2523    0.2944    0.0000 C   0  0  0  0  0  0  0  0  0  0  0  0
   -1.4684    0.0513    0.0000 N   0  0  0  0  0  0  0  0  0  0  0  0
   -2.2625    1.1227    0.0000 C   0  0  0  0  0  0  0  0  0  0  0  0
   -2.9677   -0.1130    0.0000 C   0  0  0  0  0  0  0  0  0  0  0  0
   -0.9824    0.7222    0.0000 C   0  0  0  0  0  0  0  0  0  0  0  0
   -1.0577   -0.6606    0.0000 C   0  0  0  0  0  0  0  0  0  0  0  0
   -1.4787    1.3863    0.0000 N   0  0  0  0  0  0  0  0  0  0  0  0
   -2.9677    1.5369    0.0000 C   0  0  0  0  0  0  0  0  0  0  0  0
   -3.6796    0.2978    0.0000 C   0  0  0  0  0  0  0  0  0  0  0  0
   -0.1609    0.7291    0.0000 C   0  0  0  0  0  0  0  0  0  0  0  0
   -1.4684   -1.3692    0.0000 C   0  0  0  0  0  0  0  0  0  0  0  0
   -3.6796    1.1262    0.0000 C   0  0  0  0  0  0  0  0  0  0  0  0
    0.2567    0.0171    0.0000 O   0  0  0  0  0  0  0  0  0  0  0  0
   -1.0508   -2.0846    0.0000 C   0  0  0  0  0  0  0  0  0  0  0  0
    1.0748    0.0342    0.0000 C   0  0  0  0  0  0  0  0  0  0  0  0
    1.5027   -0.6778    0.0000 C   0  0  0  0  0  0  0  0  0  0  0  0
    1.4787    0.7462    0.0000 C   0  0  0  0  0  0  0  0  0  0  0  0
    2.3207   -0.6675    0.0000 C   0  0  0  0  0  0  0  0  0  0  0  0
    2.2968    0.7633    0.0000 C   0  0  0  0  0  0  0  0  0  0  0  0
    2.7212    0.0548    0.0000 C   0  0  0  0  0  0  0  0  0  0  0  0
    2.7418   -1.3760    0.0000 C   0  0  0  0  0  0  0  0  0  0  0  0
    3.5461    0.0685    0.0000 C   0  0  0  0  0  0  0  0  0  0  0  0
    3.5701   -1.3623    0.0000 C   0  0  0  0  0  0  0  0  0  0  0  0
    3.9706   -0.6401    0.0000 C   0  0  0  0  0  0  0  0  0  0  0  0
  1  2  1  0  0  0  0
  1  3  1  0  0  0  0
  1  4  2  0  0  0  0
  2  5  1  0  0  0  0
  2  6  1  0  0  0  0
  3  7  1  0  0  0  0
  3  8  2  0  0  0  0
  4  9  1  0  0  0  0
  5 10  1  0  0  0  0
  5  7  2  0  0  0  0
  6 11  1  0  0  0  0
  8 12  1  0  0  0  0
  9 12  2  0  0  0  0
 10 13  1  0  0  0  0
 11 14  3  0  0  0  0
 13 15  1  0  0  0  0
 15 16  2  0  0  0  0
 15 17  1  0  0  0  0
 16 18  1  0  0  0  0
 17 19  2  0  0  0  0
 18 20  1  0  0  0  0
 18 21  2  0  0  0  0
 19 20  1  0  0  0  0
 20 22  2  0  0  0  0
 21 23  1  0  0  0  0
 22 24  1  0  0  0  0
 23 24  2  0  0  0  0
M  END
> <CdId>
447

> <Mol Weight>
312.3645

> <Formula>
C21H16N2O

> <Click_ID>
CLK006_E08 __ __ 

$$$$
