CLK015_A09
 OpenBabel03181410512D

 29 31  0  0  0  0  0  0  0  0999 V2000
    1.5589   -0.8126    0.0000 N   0  0  0  0  0  0  0  0  0  0  0  0
    1.8159   -1.5962    0.0000 C   0  0  0  0  0  0  0  0  0  0  0  0
    2.2264   -0.3276    0.0000 C   0  0  0  0  0  0  0  0  0  0  0  0
    2.8897   -0.8126    0.0000 C   0  0  0  0  0  0  0  0  0  0  0  0
    2.6368   -1.5962    0.0000 S   0  0  0  0  0  0  0  0  0  0  0  0
    3.6733   -0.5597    0.0000 C   0  0  0  0  0  0  0  0  0  0  0  0
    0.6094    0.2446    0.0000 C   0  0  0  0  0  0  0  0  0  0  0  0
    0.3897    1.0406    0.0000 C   0  0  0  0  0  0  0  0  0  0  0  0
    5.3151    3.7271    0.0000 C   0  0  0  0  0  0  0  0  0  0  0  0
    1.3308   -2.2554    0.0000 O   0  0  0  0  0  0  0  0  0  0  0  0
    2.2181    0.4933    0.0000 O   0  0  0  0  0  0  0  0  0  0  0  0
    6.0987    3.9759    0.0000 N   0  0  0  0  0  0  0  0  0  0  0  0
    0.7836   -0.5597    0.0000 C   0  0  0  0  0  0  0  0  0  0  0  0
    4.7056    4.2703    0.0000 O   0  0  0  0  0  0  0  0  0  0  0  0
    3.8474    0.2446    0.0000 C   0  0  0  0  0  0  0  0  0  0  0  0
    4.3574    2.6617    0.0000 O   0  0  0  0  0  0  0  0  0  0  0  0
    6.2686    4.7678    0.0000 C   0  0  0  0  0  0  0  0  0  0  0  0
    5.1410    2.9187    0.0000 C   0  0  0  0  0  0  0  0  0  0  0  0
    4.1833    1.8615    0.0000 C   0  0  0  0  0  0  0  0  0  0  0  0
    6.6086    6.3972    0.0000 C   0  0  0  0  0  0  0  0  0  0  0  0
    4.6310    0.5058    0.0000 C   0  0  0  0  0  0  0  0  0  0  0  0
    3.2338    0.7960    0.0000 C   0  0  0  0  0  0  0  0  0  0  0  0
    5.6509    5.3275    0.0000 C   0  0  0  0  0  0  0  0  0  0  0  0
    7.0564    5.0373    0.0000 C   0  0  0  0  0  0  0  0  0  0  0  0
    4.8051    1.3060    0.0000 C   0  0  0  0  0  0  0  0  0  0  0  0
    3.4079    1.6045    0.0000 C   0  0  0  0  0  0  0  0  0  0  0  0
    5.8250    6.1360    0.0000 C   0  0  0  0  0  0  0  0  0  0  0  0
    7.2263    5.8375    0.0000 C   0  0  0  0  0  0  0  0  0  0  0  0
    6.7786    7.2014    0.0000 C   0  0  0  0  0  0  0  0  0  0  0  0
  2  1  1  0  0  0  0
  3  1  1  0  0  0  0
  4  3  1  0  0  0  0
  4  5  1  0  0  0  0
  5  2  1  0  0  0  0
  6  4  2  0  0  0  0
  7 13  1  0  0  0  0
  8  7  3  0  0  0  0
  9 18  1  0  0  0  0
 10  2  2  0  0  0  0
 11  3  2  0  0  0  0
 12  9  1  0  0  0  0
 13  1  1  0  0  0  0
 14  9  2  0  0  0  0
 15  6  1  0  0  0  0
 16 19  1  0  0  0  0
 17 12  1  0  0  0  0
 18 16  1  0  0  0  0
 19 26  2  0  0  0  0
 19 25  1  0  0  0  0
 20 28  1  0  0  0  0
 21 15  1  0  0  0  0
 22 15  2  0  0  0  0
 23 17  2  0  0  0  0
 24 17  1  0  0  0  0
 25 21  2  0  0  0  0
 26 22  1  0  0  0  0
 27 23  1  0  0  0  0
 27 20  2  0  0  0  0
 28 24  2  0  0  0  0
 29 20  1  0  0  0  0
M  END
> <CdId>
1084

> <Mol Weight>
406.454

> <Formula>
C22H18N2O4S

> <Click_ID>
CLK015_A09 __ __ 

$$$$
