CLK015_B11
 OpenBabel03181410512D

 30 33  0  0  0  0  0  0  0  0999 V2000
    1.5650   -0.8158    0.0000 N   0  0  0  0  0  0  0  0  0  0  0  0
    1.8230   -1.6024    0.0000 C   0  0  0  0  0  0  0  0  0  0  0  0
    2.9010   -0.8158    0.0000 C   0  0  0  0  0  0  0  0  0  0  0  0
    2.2350   -0.3288    0.0000 C   0  0  0  0  0  0  0  0  0  0  0  0
    3.7250    1.5815    0.0000 N   0  0  0  0  0  0  0  0  0  0  0  0
    3.8582    0.2455    0.0000 C   0  0  0  0  0  0  0  0  0  0  0  0
    2.6470   -1.6024    0.0000 S   0  0  0  0  0  0  0  0  0  0  0  0
    5.3607    4.9736    0.0000 N   0  3  0  0  0  0  0  0  0  0  0  0
    3.3130    0.8615    0.0000 C   0  0  0  0  0  0  0  0  0  0  0  0
    3.6876   -0.5619    0.0000 C   0  0  0  0  0  0  0  0  0  0  0  0
    4.5366    1.3984    0.0000 C   0  0  0  0  0  0  0  0  0  0  0  0
    4.6198    0.5744    0.0000 C   0  0  0  0  0  0  0  0  0  0  0  0
    0.6118    0.2455    0.0000 C   0  0  0  0  0  0  0  0  0  0  0  0
    4.8738    4.3202    0.0000 C   0  0  0  0  0  0  0  0  0  0  0  0
    3.4004    2.3307    0.0000 C   0  0  0  0  0  0  0  0  0  0  0  0
    0.3913    1.0446    0.0000 C   0  0  0  0  0  0  0  0  0  0  0  0
    6.1806    4.8862    0.0000 O   0  5  0  0  0  0  0  0  0  0  0  0
    1.3360   -2.2642    0.0000 O   0  0  0  0  0  0  0  0  0  0  0  0
    5.0361    5.7353    0.0000 O   0  0  0  0  0  0  0  0  0  0  0  0
    2.2267    0.4952    0.0000 O   0  0  0  0  0  0  0  0  0  0  0  0
    0.7866   -0.5619    0.0000 C   0  0  0  0  0  0  0  0  0  0  0  0
    5.1984    3.5668    0.0000 C   0  0  0  0  0  0  0  0  0  0  0  0
    4.0497    4.3993    0.0000 C   0  0  0  0  0  0  0  0  0  0  0  0
    3.8874    2.9967    0.0000 C   0  0  0  0  0  0  0  0  0  0  0  0
    3.5502    3.7458    0.0000 C   0  0  0  0  0  0  0  0  0  0  0  0
    4.7114    2.9051    0.0000 C   0  0  0  0  0  0  0  0  0  0  0  0
    5.2067    1.8812    0.0000 C   0  0  0  0  0  0  0  0  0  0  0  0
    5.3690    0.2330    0.0000 C   0  0  0  0  0  0  0  0  0  0  0  0
    5.9476    1.5441    0.0000 C   0  0  0  0  0  0  0  0  0  0  0  0
    6.0350    0.7200    0.0000 C   0  0  0  0  0  0  0  0  0  0  0  0
  2  1  1  0  0  0  0
  3  4  1  0  0  0  0
  3  7  1  0  0  0  0
  4  1  1  0  0  0  0
  5  9  1  0  0  0  0
  5 11  1  0  0  0  0
  6 10  1  0  0  0  0
  7  2  1  0  0  0  0
  8 14  1  0  0  0  0
  9  6  2  0  0  0  0
 10  3  2  0  0  0  0
 11 12  1  0  0  0  0
 12  6  1  0  0  0  0
 13 21  1  0  0  0  0
 14 22  2  0  0  0  0
 15  5  1  0  0  0  0
 16 13  3  0  0  0  0
 17  8  1  0  0  0  0
 18  2  2  0  0  0  0
 19  8  2  0  0  0  0
 20  4  2  0  0  0  0
 21  1  1  0  0  0  0
 22 26  1  0  0  0  0
 23 25  2  0  0  0  0
 23 14  1  0  0  0  0
 24 15  1  0  0  0  0
 25 24  1  0  0  0  0
 26 24  2  0  0  0  0
 27 11  2  0  0  0  0
 27 29  1  0  0  0  0
 28 12  2  0  0  0  0
 29 30  2  0  0  0  0
 30 28  1  0  0  0  0
M  END
> <CdId>
1096

> <Mol Weight>
417.437

> <Formula>
C22H15N3O4S

> <Click_ID>
CLK015_B11 __ __ 

$$$$
