CLK021_E05
 OpenBabel03181410512D

 28 30  0  0  0  0  0  0  0  0999 V2000
    9.6525    2.3604    0.0000 C    0  0  0  0  0  0  0  0  0  0  0  0
    8.8962    2.6904    0.0000 N    0  0  0  0  0  0  0  0  0  0  0  0
   10.3584    2.7729    0.0000 C    0  0  0  0  0  0  0  0  0  0  0  0
    9.5609    1.5354    0.0000 N    0  0  0  0  0  0  0  0  0  0  0  0
   11.0734    2.3604    0.0000 C    0  0  0  0  0  0  0  0  0  0  0  0
    8.3462    2.0716    0.0000 C    0  0  0  0  0  0  0  0  0  0  0  0
   11.7884    2.7729    0.0000 C    0  0  0  0  0  0  0  0  0  0  0  0
    8.7588    1.3566    0.0000 C    0  0  0  0  0  0  0  0  0  0  0  0
   10.3584    3.5979    0.0000 C    0  0  0  0  0  0  0  0  0  0  0  0
   12.5034    2.3604    0.0000 C    0  0  0  0  0  0  0  0  0  0  0  0
   13.2184    2.7729    0.0000 C    0  0  0  0  0  0  0  0  0  0  0  0
   10.3584    4.4046    0.0000 N    0  0  0  0  0  0  0  0  0  0  0  0
    7.5213    2.0716    0.0000 C    0  0  0  0  0  0  0  0  0  0  0  0
    8.3462    0.6463    0.0000 C    0  0  0  0  0  0  0  0  0  0  0  0
   13.2184    3.5979    0.0000 C    0  0  0  0  0  0  0  0  0  0  0  0
   13.2184    0.2888    0.0000 C    0  0  0  0  0  0  0  0  0  0  0  0
   13.2184   -0.5362    0.0000 C    0  0  0  0  0  0  0  0  0  0  0  0
    7.1088    1.3566    0.0000 C    0  0  0  0  0  0  0  0  0  0  0  0
    7.5213    0.6463    0.0000 C    0  0  0  0  0  0  0  0  0  0  0  0
   11.7884    3.5979    0.0000 C    0  0  0  0  0  0  0  0  0  0  0  0
   12.5034    4.0104    0.0000 C    0  0  0  0  0  0  0  0  0  0  0  0
   13.9334    2.3604    0.0000 O    0  0  0  0  0  0  0  0  0  0  0  0
   12.5034    1.5262    0.0000 O    0  0  0  0  0  0  0  0  0  0  0  0
   12.5034    4.8171    0.0000 Br   0  0  0  0  0  0  0  0  0  0  0  0
   13.2184    1.1137    0.0000 C    0  0  0  0  0  0  0  0  0  0  0  0
    6.2837    1.3566    0.0000 C    0  0  0  0  0  0  0  0  0  0  0  0
    7.1088   -0.0687    0.0000 C    0  0  0  0  0  0  0  0  0  0  0  0
   14.6484    2.7729    0.0000 C    0  0  0  0  0  0  0  0  0  0  0  0
  2  1  2  0  0  0  0
  3  1  1  0  0  0  0
  4  1  1  0  0  0  0
  5  3  2  0  0  0  0
  6  2  1  0  0  0  0
  7  5  1  0  0  0  0
  8  4  1  0  0  0  0
  8  6  1  0  0  0  0
  9  3  1  0  0  0  0
 10  7  2  0  0  0  0
 11 10  1  0  0  0  0
 11 15  2  0  0  0  0
 12  9  3  0  0  0  0
 13  6  2  0  0  0  0
 14  8  2  0  0  0  0
 15 21  1  0  0  0  0
 16 25  1  0  0  0  0
 17 16  3  0  0  0  0
 18 13  1  0  0  0  0
 19 14  1  0  0  0  0
 19 18  2  0  0  0  0
 20  7  1  0  0  0  0
 21 20  2  0  0  0  0
 22 11  1  0  0  0  0
 23 10  1  0  0  0  0
 24 21  1  0  0  0  0
 25 23  1  0  0  0  0
 26 18  1  0  0  0  0
 27 19  1  0  0  0  0
 28 22  1  0  0  0  0
M  END
> <CdId>
1600

> <Mol Weight>
436.301

> <Formula>
C22H18BrN3O2

> <Click_ID>
CLK021_E05 __ __ 

$$$$
