CLK047H04
 OpenBabel03181410512D

 18 19  0  0  0  0  0  0  0  0999 V2000
    0.2375   -0.8375    0.0000 C   0  0  0  0  0  0  0  0  0  0  0  0
   -0.2500   -0.1708    0.0000 N   0  0  0  0  0  0  0  0  0  0  0  0
   -0.2500   -1.5042    0.0000 N   0  0  0  0  0  0  0  0  0  0  0  0
   -1.0333   -0.4250    0.0000 C   0  0  0  0  0  0  0  0  0  0  0  0
   -1.0333   -1.2500    0.0000 C   0  0  0  0  0  0  0  0  0  0  0  0
    0.0042    0.6125    0.0000 C   0  0  0  0  0  0  0  0  0  0  0  0
    2.1292    2.5250    0.0000 C   0  0  0  0  0  0  0  0  0  0  0  0
    1.0625   -0.8375    0.0000 O   0  0  0  0  0  0  0  0  0  0  0  0
    2.3833    3.3083    0.0000 C   0  0  0  0  0  0  0  0  0  0  0  0
    0.8125    0.7833    0.0000 C   0  0  0  0  0  0  0  0  0  0  0  0
    1.3667    0.1708    0.0000 O   0  0  0  0  0  0  0  0  0  0  0  0
    1.0667    1.5708    0.0000 N   0  0  0  0  0  0  0  0  0  0  0  0
    0.0042   -2.2917    0.0000 C   0  0  0  0  0  0  0  0  0  0  0  0
    1.8750    1.7417    0.0000 C   0  0  0  0  0  0  0  0  0  0  0  0
   -1.7458   -0.0125    0.0000 C   0  0  0  0  0  0  0  0  0  0  0  0
   -1.7458   -1.6625    0.0000 C   0  0  0  0  0  0  0  0  0  0  0  0
   -2.4625   -0.4250    0.0000 C   0  0  0  0  0  0  0  0  0  0  0  0
   -2.4625   -1.2500    0.0000 C   0  0  0  0  0  0  0  0  0  0  0  0
  2  1  1  0  0  0  0
  3  1  1  0  0  0  0
  4  2  1  0  0  0  0
  5  3  1  0  0  0  0
  5  4  2  0  0  0  0
  6  2  1  0  0  0  0
  7 14  1  0  0  0  0
  8  1  2  0  0  0  0
  9  7  3  0  0  0  0
 10  6  1  0  0  0  0
 11 10  2  0  0  0  0
 12 10  1  0  0  0  0
 13  3  1  0  0  0  0
 14 12  1  0  0  0  0
 15  4  1  0  0  0  0
 16  5  1  0  0  0  0
 17 15  2  0  0  0  0
 18 16  2  0  0  0  0
 18 17  1  0  0  0  0
M  END
> <CdId>
3592

> <Mol Weight>
243.2612

> <Formula>
C13H13N3O2

> <Click_ID>
CLK047H04 __ __ 

$$$$
