CLK019_C02
 OpenBabel03181410512D

 25 26  0  0  0  0  0  0  0  0999 V2000
    4.7378   -8.3513    0.0000 C    0  0  0  0  0  0  0  0  0  0  0  0
    5.1526   -9.0605    0.0000 C    0  0  3  0  0  0  0  0  0  0  0  0
    3.9224   -8.3513    0.0000 C    0  0  0  0  0  0  0  0  0  0  0  0
    3.9224   -9.7697    0.0000 C    0  0  0  0  0  0  0  0  0  0  0  0
    3.5171   -9.0654    0.0000 N    0  0  0  0  0  0  0  0  0  0  0  0
    4.7474   -9.7697    0.0000 N    0  0  0  0  0  0  0  0  0  0  0  0
    5.9776   -9.0605    0.0000 C    0  0  0  0  0  0  0  0  0  0  0  0
    7.6276   -9.0605    0.0000 C    0  0  0  0  0  0  0  0  0  0  0  0
    7.2128   -8.3417    0.0000 C    0  0  0  0  0  0  0  0  0  0  0  0
    7.2128   -9.7697    0.0000 C    0  0  0  0  0  0  0  0  0  0  0  0
    6.3829   -8.3417    0.0000 C    0  0  0  0  0  0  0  0  0  0  0  0
    6.3878   -9.7697    0.0000 C    0  0  0  0  0  0  0  0  0  0  0  0
    5.1526   -7.6325    0.0000 C    0  0  0  0  0  0  0  0  0  0  0  0
    9.6878   -8.3417    0.0000 C    0  0  0  0  0  0  0  0  0  0  0  0
   10.5224   -8.3417    0.0000 C    0  0  0  0  0  0  0  0  0  0  0  0
    3.5171  -10.4934    0.0000 S    0  0  0  0  0  0  0  0  0  0  0  0
    5.9680   -7.6276    0.0000 O    0  0  0  0  0  0  0  0  0  0  0  0
    7.6421   -7.6180    0.0000 Cl   0  0  0  0  0  0  0  0  0  0  0  0
    8.4575   -9.0605    0.0000 O    0  0  0  0  0  0  0  0  0  0  0  0
    7.6421  -10.4983    0.0000 O    0  0  0  0  0  0  0  0  0  0  0  0
    3.5026   -7.6470    0.0000 C    0  0  0  0  0  0  0  0  0  0  0  0
    8.8628   -8.3417    0.0000 C    0  0  0  0  0  0  0  0  0  0  0  0
    4.7329   -6.9233    0.0000 C    0  0  0  0  0  0  0  0  0  0  0  0
    7.2128  -11.2171    0.0000 C    0  0  0  0  0  0  0  0  0  0  0  0
    7.6421  -11.9408    0.0000 C    0  0  0  0  0  0  0  0  0  0  0  0
  2  1  1  0  0  0  0
  3  1  2  0  0  0  0
  4  5  1  0  0  0  0
  4  6  1  0  0  0  0
  5  3  1  0  0  0  0
  6  2  1  0  0  0  0
  7  2  1  0  0  0  0
  8 10  2  0  0  0  0
  9 11  2  0  0  0  0
  9  8  1  0  0  0  0
 10 12  1  0  0  0  0
 11  7  1  0  0  0  0
 12  7  2  0  0  0  0
 13  1  1  0  0  0  0
 14 22  1  0  0  0  0
 15 14  3  0  0  0  0
 16  4  2  0  0  0  0
 17 13  2  0  0  0  0
 18  9  1  0  0  0  0
 19  8  1  0  0  0  0
 20 10  1  0  0  0  0
 21  3  1  0  0  0  0
 22 19  1  0  0  0  0
 23 13  1  0  0  0  0
 24 20  1  0  0  0  0
 25 24  1  0  0  0  0
M  END
> <CdId>
1417

> <Mol Weight>
378.873

> <Formula>
C18H19ClN2O3S

> <Click_ID>
CLK019_C02 __ __ 

$$$$
