CLK003_F06
 OpenBabel03181410512D

 26 28  0  0  0  0  0  0  0  0999 V2000
   -1.8471   -0.1744    0.0000 C   0  0  0  0  0  0  0  0  0  0  0  0
   -1.0355   -0.0265    0.0000 C   0  0  3  0  0  0  0  0  0  0  0  0
   -1.9647   -0.9899    0.0000 C   0  0  0  0  0  0  0  0  0  0  0  0
   -2.4919    0.3413    0.0000 C   0  0  0  0  0  0  0  0  0  0  0  0
   -0.6448   -0.7586    0.0000 C   0  0  0  0  0  0  0  0  0  0  0  0
   -0.1100    0.5955    0.0000 C   0  0  0  0  0  0  0  0  0  0  0  0
   -1.2971    0.9064    0.0000 O   0  0  0  0  0  0  0  0  0  0  0  0
   -1.2212   -1.3464    0.0000 N   0  0  0  0  0  0  0  0  0  0  0  0
   -2.7270   -1.2934    0.0000 C   0  0  0  0  0  0  0  0  0  0  0  0
   -3.2581    0.0304    0.0000 C   0  0  0  0  0  0  0  0  0  0  0  0
    0.1669   -0.8762    0.0000 O   0  0  0  0  0  0  0  0  0  0  0  0
    0.6903    0.1820    0.0000 C   0  0  0  0  0  0  0  0  0  0  0  0
   -1.0847   -2.1581    0.0000 C   0  0  0  0  0  0  0  0  0  0  0  0
   -3.3794   -0.7851    0.0000 C   0  0  0  0  0  0  0  0  0  0  0  0
    1.3844    0.6334    0.0000 C   0  0  0  0  0  0  0  0  0  0  0  0
    0.7168   -0.5044    0.0000 O   0  0  0  0  0  0  0  0  0  0  0  0
   -1.7182   -2.6967    0.0000 C   0  0  0  0  0  0  0  0  0  0  0  0
    2.1126    0.2465    0.0000 C   0  0  0  0  0  0  0  0  0  0  0  0
    1.3503    1.4564    0.0000 C   0  0  0  0  0  0  0  0  0  0  0  0
   -2.3515   -3.2163    0.0000 C   0  0  0  0  0  0  0  0  0  0  0  0
    2.8067    0.6903    0.0000 C   0  0  0  0  0  0  0  0  0  0  0  0
    2.0367    1.8964    0.0000 C   0  0  0  0  0  0  0  0  0  0  0  0
    2.7726    1.5171    0.0000 C   0  0  0  0  0  0  0  0  0  0  0  0
    3.4666    1.9647    0.0000 N   0  3  0  0  0  0  0  0  0  0  0  0
    3.4325    2.7801    0.0000 O   0  0  0  0  0  0  0  0  0  0  0  0
    4.1949    1.5816    0.0000 O   0  5  0  0  0  0  0  0  0  0  0  0
  1  2  1  0  0  0  0
  1  3  2  0  0  0  0
  1  4  1  0  0  0  0
  2  5  1  0  0  0  0
  2  6  1  0  0  0  0
  2  7  1  0  0  0  0
  3  8  1  0  0  0  0
  3  9  1  0  0  0  0
  4 10  2  0  0  0  0
  5 11  2  0  0  0  0
  5  8  1  0  0  0  0
  6 12  1  0  0  0  0
  8 13  1  0  0  0  0
  9 14  2  0  0  0  0
 10 14  1  0  0  0  0
 12 15  1  0  0  0  0
 12 16  2  0  0  0  0
 13 17  1  0  0  0  0
 15 18  1  0  0  0  0
 15 19  2  0  0  0  0
 17 20  3  0  0  0  0
 18 21  2  0  0  0  0
 19 22  1  0  0  0  0
 21 23  1  0  0  0  0
 22 23  2  0  0  0  0
 23 24  1  0  0  0  0
 24 25  2  0  0  0  0
 24 26  1  0  0  0  0
M  END
> <CdId>
215

> <Mol Weight>
350.3249

> <Formula>
C19H14N2O5

> <Click_ID>
CLK003_F06 __ __ 

$$$$
