CLK018_G02
 OpenBabel03181410512D

 28 30  0  0  0  0  0  0  0  0999 V2000
    2.7668   -1.5850    0.0000 N    0  0  0  0  0  0  0  0  0  0  0  0
    1.3376   -1.5850    0.0000 C    0  0  0  0  0  0  0  0  0  0  0  0
    2.0522   -1.1727    0.0000 C    0  0  0  0  0  0  0  0  0  0  0  0
    2.7668   -2.4095    0.0000 C    0  0  0  0  0  0  0  0  0  0  0  0
    2.0522   -2.8218    0.0000 N    0  0  0  0  0  0  0  0  0  0  0  0
    1.3376   -2.4095    0.0000 C    0  0  0  0  0  0  0  0  0  0  0  0
    0.6230   -1.1727    0.0000 C    0  0  0  0  0  0  0  0  0  0  0  0
   -1.5208   -2.4049    0.0000 C    0  0  0  0  0  0  0  0  0  0  0  0
   -1.5208   -1.5804    0.0000 C    0  0  0  0  0  0  0  0  0  0  0  0
   -0.8062   -2.8172    0.0000 C    0  0  0  0  0  0  0  0  0  0  0  0
   -0.0916   -1.5850    0.0000 C    0  0  0  0  0  0  0  0  0  0  0  0
   -2.9500   -4.0586    0.0000 C    0  0  0  0  0  0  0  0  0  0  0  0
    3.4814   -1.1727    0.0000 C    0  0  0  0  0  0  0  0  0  0  0  0
    3.4814   -2.8218    0.0000 O    0  0  0  0  0  0  0  0  0  0  0  0
   -2.9500   -4.8832    0.0000 C    0  0  0  0  0  0  0  0  0  0  0  0
    2.0522   -0.3482    0.0000 O    0  0  0  0  0  0  0  0  0  0  0  0
   -0.0916   -2.4049    0.0000 C    0  0  0  0  0  0  0  0  0  0  0  0
   -0.8062   -1.1727    0.0000 C    0  0  0  0  0  0  0  0  0  0  0  0
    0.6230   -2.8218    0.0000 O    0  0  0  0  0  0  0  0  0  0  0  0
   -2.2354   -1.1681    0.0000 Cl   0  0  0  0  0  0  0  0  0  0  0  0
   -0.8062   -3.6417    0.0000 Cl   0  0  0  0  0  0  0  0  0  0  0  0
   -2.2354   -2.8172    0.0000 O    0  0  0  0  0  0  0  0  0  0  0  0
   -2.2354   -3.6463    0.0000 C    0  0  0  0  0  0  0  0  0  0  0  0
    4.1960   -1.5850    0.0000 C    0  0  0  0  0  0  0  0  0  0  0  0
    3.4814   -0.3482    0.0000 C    0  0  0  0  0  0  0  0  0  0  0  0
    4.1960    0.0641    0.0000 C    0  0  0  0  0  0  0  0  0  0  0  0
    4.9106   -1.1727    0.0000 C    0  0  0  0  0  0  0  0  0  0  0  0
    4.9106   -0.3482    0.0000 C    0  0  0  0  0  0  0  0  0  0  0  0
  2  3  1  0  0  0  0
  2  6  1  0  0  0  0
  3  1  1  0  0  0  0
  4  1  1  0  0  0  0
  5  4  1  0  0  0  0
  6  5  1  0  0  0  0
  7  2  2  0  0  0  0
  8  9  1  0  0  0  0
  9 18  2  0  0  0  0
 10 17  1  0  0  0  0
 10  8  2  0  0  0  0
 11  7  1  0  0  0  0
 12 23  1  0  0  0  0
 13  1  1  0  0  0  0
 14  4  2  0  0  0  0
 15 12  3  0  0  0  0
 16  3  2  0  0  0  0
 17 11  2  0  0  0  0
 18 11  1  0  0  0  0
 19  6  2  0  0  0  0
 20  9  1  0  0  0  0
 21 10  1  0  0  0  0
 22  8  1  0  0  0  0
 23 22  1  0  0  0  0
 24 13  1  0  0  0  0
 25 13  2  0  0  0  0
 26 25  1  0  0  0  0
 27 24  2  0  0  0  0
 27 28  1  0  0  0  0
 28 26  2  0  0  0  0
M  END
> <CdId>
1377

> <Mol Weight>
415.226

> <Formula>
C20H12Cl2N2O4

> <Click_ID>
CLK018_G02 __ __ 

$$$$
