CLK026_C10
 OpenBabel03181410512D

 26 27  0  0  0  0  0  0  0  0999 V2000
   -3.0488   -0.3609    0.0000 N    0  0  0  0  0  0  0  0  0  0  0  0
   -3.4579   -1.0827    0.0000 C    0  0  0  0  0  0  0  0  0  0  0  0
   -2.2411   -0.5327    0.0000 C    0  0  0  0  0  0  0  0  0  0  0  0
   -2.1517   -1.3543    0.0000 C    0  0  0  0  0  0  0  0  0  0  0  0
   -2.9011   -1.6946    0.0000 S    0  0  0  0  0  0  0  0  0  0  0  0
    0.7012   -0.5190    0.0000 C    0  0  0  0  0  0  0  0  0  0  0  0
   -1.4333   -1.7668    0.0000 C    0  0  0  0  0  0  0  0  0  0  0  0
    0.7150   -1.3405    0.0000 C    0  0  0  0  0  0  0  0  0  0  0  0
   -0.0138   -0.0997    0.0000 C    0  0  0  0  0  0  0  0  0  0  0  0
   -0.7321   -1.3474    0.0000 C    0  0  0  0  0  0  0  0  0  0  0  0
    1.4195   -0.1134    0.0000 O    0  0  0  0  0  0  0  0  0  0  0  0
   -2.9114    1.0621    0.0000 C    0  0  0  0  0  0  0  0  0  0  0  0
   -2.4680    1.7701    0.0000 C    0  0  0  0  0  0  0  0  0  0  0  0
   -4.2794   -1.1721    0.0000 O    0  0  0  0  0  0  0  0  0  0  0  0
   -0.0138   -1.7530    0.0000 C    0  0  0  0  0  0  0  0  0  0  0  0
   -1.6396    0.0378    0.0000 O    0  0  0  0  0  0  0  0  0  0  0  0
   -0.7218   -0.5224    0.0000 C    0  0  0  0  0  0  0  0  0  0  0  0
    2.8529   -0.1134    0.0000 C    0  0  0  0  0  0  0  0  0  0  0  0
   -3.3891    0.3850    0.0000 C    0  0  0  0  0  0  0  0  0  0  0  0
    2.8460    0.7080    0.0000 O    0  0  0  0  0  0  0  0  0  0  0  0
    2.1345   -0.5190    0.0000 C    0  0  0  0  0  0  0  0  0  0  0  0
    1.4230   -1.7461    0.0000 Cl   0  0  0  0  0  0  0  0  0  0  0  0
    0.0000    0.7150    0.0000 O    0  0  0  0  0  0  0  0  0  0  0  0
    3.5678   -0.5224    0.0000 O    0  0  0  0  0  0  0  0  0  0  0  0
   -0.7184    1.1205    0.0000 C    0  0  0  0  0  0  0  0  0  0  0  0
    4.2759   -0.1134    0.0000 C    0  0  0  0  0  0  0  0  0  0  0  0
  2  1  1  0  0  0  0
  3  1  1  0  0  0  0
  4  3  1  0  0  0  0
  5  2  1  0  0  0  0
  5  4  1  0  0  0  0
  6  9  2  0  0  0  0
  7  4  2  0  0  0  0
  8 15  2  0  0  0  0
  8  6  1  0  0  0  0
  9 17  1  0  0  0  0
 10  7  1  0  0  0  0
 11  6  1  0  0  0  0
 12 19  1  0  0  0  0
 13 12  3  0  0  0  0
 14  2  2  0  0  0  0
 15 10  1  0  0  0  0
 16  3  2  0  0  0  0
 17 10  2  0  0  0  0
 18 21  1  0  0  0  0
 19  1  1  0  0  0  0
 20 18  2  0  0  0  0
 21 11  1  0  0  0  0
 22  8  1  0  0  0  0
 23  9  1  0  0  0  0
 24 18  1  0  0  0  0
 25 23  1  0  0  0  0
 26 24  1  0  0  0  0
M  END
> <CdId>
1965

> <Mol Weight>
395.814

> <Formula>
C17H14ClNO6S

> <Click_ID>
CLK026_C10 __ __ 

$$$$
