CLK041D03
 OpenBabel03181410512D

 24 25  0  0  0  0  0  0  0  0999 V2000
   -0.9114    2.4471    0.0000 N   0  0  0  0  0  0  0  0  0  0  0  0
   -1.3941    1.7771    0.0000 N   0  0  0  0  0  0  0  0  0  0  0  0
   -0.1249    2.1891    0.0000 N   0  0  0  0  0  0  0  0  0  0  0  0
   -0.9114    1.1112    0.0000 C   0  0  0  0  0  0  0  0  0  0  0  0
   -0.1249    1.3651    0.0000 C   0  0  0  0  0  0  0  0  0  0  0  0
   -0.8240   -3.2462    0.0000 C   0  0  0  0  0  0  0  0  0  0  0  0
   -0.8698   -1.0695    0.0000 C   0  0  0  0  0  0  0  0  0  0  0  0
   -1.1653    0.3288    0.0000 C   0  0  0  0  0  0  0  0  0  0  0  0
   -1.0820   -4.0327    0.0000 C   0  0  0  0  0  0  0  0  0  0  0  0
   -0.6118   -0.2830    0.0000 C   0  0  0  0  0  0  0  0  0  0  0  0
   -0.3163   -1.6813    0.0000 N   0  0  0  0  0  0  0  0  0  0  0  0
   -0.5701   -2.4638    0.0000 C   0  0  0  0  0  0  0  0  0  0  0  0
    0.5411    2.6760    0.0000 C   0  0  0  0  0  0  0  0  0  0  0  0
   -1.6730   -1.2402    0.0000 O   0  0  0  0  0  0  0  0  0  0  0  0
    1.2943    2.3389    0.0000 C   0  0  0  0  0  0  0  0  0  0  0  0
    0.2122   -2.7176    0.0000 C   0  0  0  0  0  0  0  0  0  0  0  0
   -1.3567   -2.2099    0.0000 C   0  0  0  0  0  0  0  0  0  0  0  0
    1.3776    1.5190    0.0000 C   0  0  0  0  0  0  0  0  0  0  0  0
    1.9602    2.8259    0.0000 C   0  0  0  0  0  0  0  0  0  0  0  0
    0.3828   -3.5250    0.0000 C   0  0  0  0  0  0  0  0  0  0  0  0
   -1.5274   -1.4025    0.0000 C   0  0  0  0  0  0  0  0  0  0  0  0
    2.7135    2.4888    0.0000 C   0  0  0  0  0  0  0  0  0  0  0  0
    2.1308    1.1861    0.0000 C   0  0  0  0  0  0  0  0  0  0  0  0
    2.7967    1.6688    0.0000 C   0  0  0  0  0  0  0  0  0  0  0  0
  2  1  2  0  0  0  0
  3  1  1  0  0  0  0
  4  2  1  0  0  0  0
  5  3  1  0  0  0  0
  5  4  2  0  0  0  0
  6 12  1  0  0  0  0
  7 10  1  0  0  0  0
  8  4  1  0  0  0  0
  9  6  3  0  0  0  0
 10  8  2  0  0  0  0
 11  7  1  0  0  0  0
 12 11  1  0  0  0  0
 13  3  1  0  0  0  0
 14  7  2  0  0  0  0
 15 13  1  0  0  0  0
 16 12  1  0  0  0  0
 17 12  1  0  0  0  0
 18 15  1  0  0  0  0
 19 15  2  0  0  0  0
 20 16  1  0  0  0  0
 21 17  1  0  0  0  0
 22 19  1  0  0  0  0
 23 18  2  0  0  0  0
 24 22  2  0  0  0  0
 24 23  1  0  0  0  0
M  END
> <CdId>
3100

> <Mol Weight>
322.4042

> <Formula>
C19H22N4O

> <Click_ID>
CLK041D03 __ __ 

$$$$
