CLK038F10
 OpenBabel03181410512D

 18 18  0  0  0  0  0  0  0  0999 V2000
    0.8350    0.1169    0.0000 C   0  0  0  0  0  0  0  0  0  0  0  0
    1.5490   -0.2964    0.0000 C   0  0  0  0  0  0  0  0  0  0  0  0
   -3.4614    0.1169    0.0000 C   0  0  0  0  0  0  0  0  0  0  0  0
   -4.1794    0.5303    0.0000 C   0  0  0  0  0  0  0  0  0  0  0  0
    2.2630    0.1169    0.0000 C   0  0  0  0  0  0  0  0  0  0  0  0
   -1.3152   -0.2964    0.0000 C   0  0  0  0  0  0  0  0  0  0  0  0
    0.1169   -0.2964    0.0000 O   0  0  0  0  0  0  0  0  0  0  0  0
    0.8350    0.9437    0.0000 C   0  0  0  0  0  0  0  0  0  0  0  0
   -1.3152   -1.1231    0.0000 O   0  0  0  0  0  0  0  0  0  0  0  0
   -0.5970    0.1169    0.0000 C   0  0  0  0  0  0  0  0  0  0  0  0
   -2.0292    0.1169    0.0000 N   0  0  0  0  0  0  0  0  0  0  0  0
    1.5490   -1.1231    0.0000 C   0  0  0  0  0  0  0  0  0  0  0  0
    2.2630    0.9437    0.0000 C   0  0  0  0  0  0  0  0  0  0  0  0
    1.5490    1.3570    0.0000 C   0  0  0  0  0  0  0  0  0  0  0  0
   -2.7474   -0.2964    0.0000 C   0  0  0  0  0  0  0  0  0  0  0  0
    0.8350   -1.5365    0.0000 C   0  0  0  0  0  0  0  0  0  0  0  0
    2.2630   -1.5365    0.0000 C   0  0  0  0  0  0  0  0  0  0  0  0
    1.5490    2.1837    0.0000 C   0  0  0  0  0  0  0  0  0  0  0  0
  2  1  2  0  0  0  0
  3 15  1  0  0  0  0
  4  3  3  0  0  0  0
  5  2  1  0  0  0  0
  6 10  1  0  0  0  0
  7  1  1  0  0  0  0
  8  1  1  0  0  0  0
  9  6  2  0  0  0  0
 10  7  1  0  0  0  0
 11  6  1  0  0  0  0
 12  2  1  0  0  0  0
 13  5  2  0  0  0  0
 14  8  2  0  0  0  0
 14 13  1  0  0  0  0
 15 11  1  0  0  0  0
 16 12  1  0  0  0  0
 17 12  1  0  0  0  0
 18 14  1  0  0  0  0
M  END
> <CdId>
2918

> <Mol Weight>
245.3169

> <Formula>
C15H19NO2

> <Click_ID>
CLK038F10 __ __ 

$$$$
