CLK015_A10
 OpenBabel03181410512D

 30 32  0  0  0  0  0  0  0  0999 V2000
    1.5543   -0.8102    0.0000 N   0  0  0  0  0  0  0  0  0  0  0  0
    1.8105   -1.5915    0.0000 C   0  0  0  0  0  0  0  0  0  0  0  0
    2.2197   -0.3266    0.0000 C   0  0  0  0  0  0  0  0  0  0  0  0
    2.8811   -0.8102    0.0000 C   0  0  0  0  0  0  0  0  0  0  0  0
    2.6290   -1.5915    0.0000 S   0  0  0  0  0  0  0  0  0  0  0  0
    4.9893    6.4030    0.0000 N   0  3  0  0  0  0  0  0  0  0  0  0
    3.6624   -0.5580    0.0000 C   0  0  0  0  0  0  0  0  0  0  0  0
    0.6076    0.2438    0.0000 C   0  0  0  0  0  0  0  0  0  0  0  0
    5.0141    5.5803    0.0000 C   0  0  0  0  0  0  0  0  0  0  0  0
    0.3886    1.0375    0.0000 C   0  0  0  0  0  0  0  0  0  0  0  0
    5.6961    6.8370    0.0000 O   0  5  0  0  0  0  0  0  0  0  0  0
    1.3269   -2.2487    0.0000 O   0  0  0  0  0  0  0  0  0  0  0  0
    3.4144    1.6079    0.0000 C   0  0  0  0  0  0  0  0  0  0  0  0
    4.2700    6.7998    0.0000 O   0  0  0  0  0  0  0  0  0  0  0  0
    2.2115    0.4919    0.0000 O   0  0  0  0  0  0  0  0  0  0  0  0
    4.2039    1.8559    0.0000 C   0  0  0  0  0  0  0  0  0  0  0  0
    3.8360    0.2438    0.0000 C   0  0  0  0  0  0  0  0  0  0  0  0
    0.7812   -0.5580    0.0000 C   0  0  0  0  0  0  0  0  0  0  0  0
    3.2284    0.8019    0.0000 C   0  0  0  0  0  0  0  0  0  0  0  0
    4.3816    2.6620    0.0000 O   0  0  0  0  0  0  0  0  0  0  0  0
    5.7457    5.1753    0.0000 C   0  0  0  0  0  0  0  0  0  0  0  0
    4.3072    5.1463    0.0000 C   0  0  0  0  0  0  0  0  0  0  0  0
    4.8033    1.2979    0.0000 C   0  0  0  0  0  0  0  0  0  0  0  0
    4.6296    0.4960    0.0000 C   0  0  0  0  0  0  0  0  0  0  0  0
    5.0885    3.0960    0.0000 C   0  0  0  0  0  0  0  0  0  0  0  0
    5.0637    3.9269    0.0000 C   0  0  0  0  0  0  0  0  0  0  0  0
    4.3279    4.3072    0.0000 C   0  0  0  0  0  0  0  0  0  0  0  0
    5.7705    4.3527    0.0000 C   0  0  0  0  0  0  0  0  0  0  0  0
    2.8150    2.1660    0.0000 O   0  0  0  0  0  0  0  0  0  0  0  0
    2.0255    1.9221    0.0000 C   0  0  0  0  0  0  0  0  0  0  0  0
  2  1  1  0  0  0  0
  3  1  1  0  0  0  0
  4  3  1  0  0  0  0
  4  5  1  0  0  0  0
  5  2  1  0  0  0  0
  6  9  1  0  0  0  0
  7  4  2  0  0  0  0
  8 18  1  0  0  0  0
  9 21  2  0  0  0  0
  9 22  1  0  0  0  0
 10  8  3  0  0  0  0
 11  6  1  0  0  0  0
 12  2  2  0  0  0  0
 13 19  2  0  0  0  0
 14  6  2  0  0  0  0
 15  3  2  0  0  0  0
 16 23  2  0  0  0  0
 16 13  1  0  0  0  0
 17  7  1  0  0  0  0
 18  1  1  0  0  0  0
 19 17  1  0  0  0  0
 20 16  1  0  0  0  0
 21 28  1  0  0  0  0
 22 27  2  0  0  0  0
 23 24  1  0  0  0  0
 24 17  2  0  0  0  0
 25 20  1  0  0  0  0
 26 25  1  0  0  0  0
 27 26  1  0  0  0  0
 28 26  2  0  0  0  0
 29 13  1  0  0  0  0
 30 29  1  0  0  0  0
M  END
> <CdId>
1085

> <Mol Weight>
424.427

> <Formula>
C21H16N2O6S

> <Click_ID>
CLK015_A10 __ __ 

$$$$
