CLK023_B04
 OpenBabel03181410512D

 26 28  0  0  0  0  0  0  0  0999 V2000
   -0.7287    1.4128    0.0000 C   0  0  0  0  0  0  0  0  0  0  0  0
   -1.2100    0.7425    0.0000 C   0  0  0  0  0  0  0  0  0  0  0  0
   -1.2237    2.0900    0.0000 C   0  0  0  0  0  0  0  0  0  0  0  0
   -1.9903    1.8253    0.0000 C   0  0  0  0  0  0  0  0  0  0  0  0
   -1.9903    1.0003    0.0000 C   0  0  0  0  0  0  0  0  0  0  0  0
    0.0997    1.4128    0.0000 C   0  0  0  0  0  0  0  0  0  0  0  0
    1.3406   -0.7253    0.0000 C   0  0  0  0  0  0  0  0  0  0  0  0
    1.7497   -0.0103    0.0000 C   0  0  0  0  0  0  0  0  0  0  0  0
    0.5156   -0.7253    0.0000 C   0  0  0  0  0  0  0  0  0  0  0  0
    0.5156    0.7012    0.0000 C   0  0  0  0  0  0  0  0  0  0  0  0
    2.9941   -2.1518    0.0000 C   0  0  0  0  0  0  0  0  0  0  0  0
    3.4134   -2.8600    0.0000 C   0  0  0  0  0  0  0  0  0  0  0  0
    1.3372    0.7047    0.0000 C   0  0  0  0  0  0  0  0  0  0  0  0
    0.0997   -0.0138    0.0000 C   0  0  0  0  0  0  0  0  0  0  0  0
   -0.9522   -0.0378    0.0000 O   0  0  0  0  0  0  0  0  0  0  0  0
   -0.9728    2.8772    0.0000 O   0  0  0  0  0  0  0  0  0  0  0  0
    2.5816    0.0000    0.0000 I   0  0  0  0  0  0  0  0  0  0  0  0
    1.7531   -1.4403    0.0000 O   0  0  0  0  0  0  0  0  0  0  0  0
    0.1031   -1.4403    0.0000 O   0  0  0  0  0  0  0  0  0  0  0  0
   -2.6984    0.5913    0.0000 C   0  0  0  0  0  0  0  0  0  0  0  0
   -2.7053    2.2378    0.0000 C   0  0  0  0  0  0  0  0  0  0  0  0
    2.5816   -1.4403    0.0000 C   0  0  0  0  0  0  0  0  0  0  0  0
    0.5156   -2.1622    0.0000 C   0  0  0  0  0  0  0  0  0  0  0  0
   -3.4169    1.8253    0.0000 C   0  0  0  0  0  0  0  0  0  0  0  0
   -3.4169    1.0003    0.0000 C   0  0  0  0  0  0  0  0  0  0  0  0
    0.1031   -2.8737    0.0000 C   0  0  0  0  0  0  0  0  0  0  0  0
  2  1  1  0  0  0  0
  3  1  1  0  0  0  0
  4  3  1  0  0  0  0
  5  2  1  0  0  0  0
  5  4  2  0  0  0  0
  6  1  2  0  0  0  0
  7  9  2  0  0  0  0
  7  8  1  0  0  0  0
  8 13  2  0  0  0  0
  9 14  1  0  0  0  0
 10  6  1  0  0  0  0
 11 22  1  0  0  0  0
 12 11  3  0  0  0  0
 13 10  1  0  0  0  0
 14 10  2  0  0  0  0
 15  2  2  0  0  0  0
 16  3  2  0  0  0  0
 17  8  1  0  0  0  0
 18  7  1  0  0  0  0
 19  9  1  0  0  0  0
 20  5  1  0  0  0  0
 21  4  1  0  0  0  0
 22 18  1  0  0  0  0
 23 19  1  0  0  0  0
 24 21  2  0  0  0  0
 25 20  2  0  0  0  0
 25 24  1  0  0  0  0
 26 23  1  0  0  0  0
M  END
> <CdId>
1709

> <Mol Weight>
458.2459

> <Formula>
C21H15IO4

> <Click_ID>
CLK023_B04 __ __ 

$$$$
