CLK052H02
 OpenBabel03181410512D

 24 26  0  0  0  0  0  0  0  0999 V2000
   -0.0750   -1.0753    0.0000 O   0  0  0  0  0  0  0  0  0  0  0  0
    1.1961   -0.6627    0.0000 N   0  0  0  0  0  0  0  0  0  0  0  0
    1.1961   -1.4879    0.0000 N   0  0  0  0  0  0  0  0  0  0  0  0
    0.4084   -0.4084    0.0000 C   0  0  0  0  0  0  0  0  0  0  0  0
    0.4084   -1.7421    0.0000 C   0  0  0  0  0  0  0  0  0  0  0  0
   -0.6085    2.7299    0.0000 C   0  0  0  0  0  0  0  0  0  0  0  0
    0.2376    4.7387    0.0000 C   0  0  0  0  0  0  0  0  0  0  0  0
    0.7919    5.3514    0.0000 C   0  0  0  0  0  0  0  0  0  0  0  0
    0.1542    0.3793    0.0000 C   0  0  0  0  0  0  0  0  0  0  0  0
    0.1542   -2.5256    0.0000 C   0  0  0  0  0  0  0  0  0  0  0  0
   -0.3543    1.9463    0.0000 C   0  0  0  0  0  0  0  0  0  0  0  0
   -1.4171    2.9049    0.0000 O   0  0  0  0  0  0  0  0  0  0  0  0
    0.7085    0.9920    0.0000 C   0  0  0  0  0  0  0  0  0  0  0  0
   -0.6544    0.5501    0.0000 C   0  0  0  0  0  0  0  0  0  0  0  0
   -0.9085    1.3336    0.0000 C   0  0  0  0  0  0  0  0  0  0  0  0
    0.4501    1.7755    0.0000 C   0  0  0  0  0  0  0  0  0  0  0  0
   -0.0583    3.3467    0.0000 N   0  0  0  0  0  0  0  0  0  0  0  0
    0.7085   -3.1425    0.0000 C   0  0  0  0  0  0  0  0  0  0  0  0
   -0.6544   -2.7007    0.0000 C   0  0  0  0  0  0  0  0  0  0  0  0
    0.4501   -3.9260    0.0000 C   0  0  0  0  0  0  0  0  0  0  0  0
   -0.9085   -3.4842    0.0000 C   0  0  0  0  0  0  0  0  0  0  0  0
   -0.3543   -4.0968    0.0000 C   0  0  0  0  0  0  0  0  0  0  0  0
   -0.3126    4.1261    0.0000 C   0  0  0  0  0  0  0  0  0  0  0  0
   -0.6085   -4.8804    0.0000 C   0  0  0  0  0  0  0  0  0  0  0  0
  2  4  2  0  0  0  0
  2  3  1  0  0  0  0
  3  5  2  0  0  0  0
  4  1  1  0  0  0  0
  5  1  1  0  0  0  0
  6 11  1  0  0  0  0
  7 23  1  0  0  0  0
  8  7  3  0  0  0  0
  9  4  1  0  0  0  0
 10  5  1  0  0  0  0
 11 15  2  0  0  0  0
 11 16  1  0  0  0  0
 12  6  2  0  0  0  0
 13  9  1  0  0  0  0
 14  9  2  0  0  0  0
 15 14  1  0  0  0  0
 16 13  2  0  0  0  0
 17  6  1  0  0  0  0
 18 10  1  0  0  0  0
 19 10  2  0  0  0  0
 20 18  2  0  0  0  0
 20 22  1  0  0  0  0
 21 19  1  0  0  0  0
 22 21  2  0  0  0  0
 23 17  1  0  0  0  0
 24 22  1  0  0  0  0
M  END
> <CdId>
3976

> <Mol Weight>
317.3413

> <Formula>
C19H15N3O2

> <Click_ID>
CLK052H02 __ __ 

$$$$
