CLK011_C11
 OpenBabel03181410512D

 26 28  0  0  0  0  0  0  0  0999 V2000
    6.6551   -1.5899    0.0000 N   0  0  0  0  0  0  0  0  0  0  0  0
    6.3179   -2.3391    0.0000 C   0  0  0  0  0  0  0  0  0  0  0  0
    6.0350   -1.0363    0.0000 C   0  0  0  0  0  0  0  0  0  0  0  0
    5.3233   -1.4526    0.0000 C   0  0  0  0  0  0  0  0  0  0  0  0
    5.4981   -2.2600    0.0000 S   0  0  0  0  0  0  0  0  0  0  0  0
    4.5699   -1.1155    0.0000 C   0  0  0  0  0  0  0  0  0  0  0  0
    7.4584   -1.4151    0.0000 C   0  0  0  0  0  0  0  0  0  0  0  0
    1.3277   -4.3743    0.0000 C   0  0  0  0  0  0  0  0  0  0  0  0
    0.6618   -4.8613    0.0000 C   0  0  0  0  0  0  0  0  0  0  0  0
    6.7300   -3.0508    0.0000 O   0  0  0  0  0  0  0  0  0  0  0  0
    6.1224   -0.2165    0.0000 O   0  0  0  0  0  0  0  0  0  0  0  0
    3.8998   -1.6024    0.0000 C   0  0  0  0  0  0  0  0  0  0  0  0
    7.7081   -0.6285    0.0000 C   0  0  0  0  0  0  0  0  0  0  0  0
    8.2200    0.9323    0.0000 C   0  0  0  0  0  0  0  0  0  0  0  0
    2.5638   -2.5763    0.0000 C   0  0  0  0  0  0  0  0  0  0  0  0
    8.4822    1.7189    0.0000 F   0  0  0  0  0  0  0  0  0  0  0  0
    3.9872   -2.4223    0.0000 C   0  0  0  0  0  0  0  0  0  0  0  0
    3.1465   -1.2653    0.0000 C   0  0  0  0  0  0  0  0  0  0  0  0
    8.5197   -0.4620    0.0000 C   0  0  0  0  0  0  0  0  0  0  0  0
    7.1587   -0.0250    0.0000 C   0  0  0  0  0  0  0  0  0  0  0  0
    8.7694    0.3204    0.0000 C   0  0  0  0  0  0  0  0  0  0  0  0
    7.4167    0.7616    0.0000 C   0  0  0  0  0  0  0  0  0  0  0  0
    3.3255   -2.9010    0.0000 C   0  0  0  0  0  0  0  0  0  0  0  0
    2.4764   -1.7522    0.0000 C   0  0  0  0  0  0  0  0  0  0  0  0
    1.9895   -3.8874    0.0000 C   0  0  0  0  0  0  0  0  0  0  0  0
    1.9021   -3.0716    0.0000 O   0  0  0  0  0  0  0  0  0  0  0  0
  2  1  1  0  0  0  0
  3  1  1  0  0  0  0
  4  3  1  0  0  0  0
  5  2  1  0  0  0  0
  5  4  1  0  0  0  0
  6  4  2  0  0  0  0
  7  1  1  0  0  0  0
  8 25  1  0  0  0  0
  9  8  3  0  0  0  0
 10  2  2  0  0  0  0
 11  3  2  0  0  0  0
 12  6  1  0  0  0  0
 13  7  1  0  0  0  0
 14 22  1  0  0  0  0
 14 21  2  0  0  0  0
 15 24  2  0  0  0  0
 15 23  1  0  0  0  0
 16 14  1  0  0  0  0
 17 12  1  0  0  0  0
 18 12  2  0  0  0  0
 19 13  2  0  0  0  0
 20 13  1  0  0  0  0
 21 19  1  0  0  0  0
 22 20  2  0  0  0  0
 23 17  2  0  0  0  0
 24 18  1  0  0  0  0
 25 26  1  0  0  0  0
 26 15  1  0  0  0  0
M  END
> <CdId>
786

> <Mol Weight>
367.393

> <Formula>
C20H14FNO3S

> <Click_ID>
CLK011_C11 __ __ 

$$$$
