CLK023_F08
 OpenBabel03181410512D

 28 29  0  0  0  0  0  0  0  0999 V2000
   -1.0174   -0.3575    0.0000 C    0  0  0  0  0  0  0  0  0  0  0  0
   -1.8424   -0.3575    0.0000 C    0  0  0  0  0  0  0  0  0  0  0  0
   -0.6084    0.3609    0.0000 C    0  0  0  0  0  0  0  0  0  0  0  0
    0.2166    0.3609    0.0000 C    0  0  0  0  0  0  0  0  0  0  0  0
   -0.6084   -1.0690    0.0000 C    0  0  0  0  0  0  0  0  0  0  0  0
    1.4402    1.0793    0.0000 C    0  0  0  0  0  0  0  0  0  0  0  0
   -2.2549    0.3609    0.0000 N    0  0  0  0  0  0  0  0  0  0  0  0
    0.6153    1.0725    0.0000 C    0  0  0  0  0  0  0  0  0  0  0  0
   -0.1959   -1.7805    0.0000 N    0  0  0  0  0  0  0  0  0  0  0  0
    1.8597    0.3609    0.0000 C    0  0  0  0  0  0  0  0  0  0  0  0
    0.6256   -0.3575    0.0000 C    0  0  0  0  0  0  0  0  0  0  0  0
    3.9118    1.0793    0.0000 C    0  0  0  0  0  0  0  0  0  0  0  0
    1.4472   -0.3575    0.0000 C    0  0  0  0  0  0  0  0  0  0  0  0
    4.7367    1.0793    0.0000 C    0  0  0  0  0  0  0  0  0  0  0  0
   -3.0833    0.3609    0.0000 C    0  0  0  0  0  0  0  0  0  0  0  0
   -2.2549   -1.0690    0.0000 O    0  0  0  0  0  0  0  0  0  0  0  0
   -3.4958   -0.3506    0.0000 C    0  0  0  0  0  0  0  0  0  0  0  0
    0.2028    1.7840    0.0000 Br   0  0  0  0  0  0  0  0  0  0  0  0
   -4.3276   -0.3506    0.0000 C    0  0  0  0  0  0  0  0  0  0  0  0
    2.6743    0.3609    0.0000 O    0  0  0  0  0  0  0  0  0  0  0  0
    1.8597   -1.0690    0.0000 O    0  0  0  0  0  0  0  0  0  0  0  0
   -4.7401   -1.0690    0.0000 Cl   0  0  0  0  0  0  0  0  0  0  0  0
    3.0868    1.0793    0.0000 C    0  0  0  0  0  0  0  0  0  0  0  0
   -4.3276    1.0828    0.0000 C    0  0  0  0  0  0  0  0  0  0  0  0
   -3.4958    1.0828    0.0000 C    0  0  0  0  0  0  0  0  0  0  0  0
   -4.7401    0.3678    0.0000 C    0  0  0  0  0  0  0  0  0  0  0  0
    2.6846   -1.0690    0.0000 C    0  0  0  0  0  0  0  0  0  0  0  0
    3.0971   -1.7805    0.0000 C    0  0  0  0  0  0  0  0  0  0  0  0
  2  1  1  0  0  0  0
  3  1  2  0  0  0  0
  4  3  1  0  0  0  0
  5  1  1  0  0  0  0
  6  8  2  0  0  0  0
  6 10  1  0  0  0  0
  7  2  1  0  0  0  0
  8  4  1  0  0  0  0
  9  5  3  0  0  0  0
 10 13  2  0  0  0  0
 11  4  2  0  0  0  0
 12 23  1  0  0  0  0
 13 11  1  0  0  0  0
 14 12  3  0  0  0  0
 15  7  1  0  0  0  0
 16  2  2  0  0  0  0
 17 15  1  0  0  0  0
 18  8  1  0  0  0  0
 19 17  2  0  0  0  0
 20 10  1  0  0  0  0
 21 13  1  0  0  0  0
 22 19  1  0  0  0  0
 23 20  1  0  0  0  0
 24 25  1  0  0  0  0
 25 15  2  0  0  0  0
 26 24  2  0  0  0  0
 26 19  1  0  0  0  0
 27 21  1  0  0  0  0
 28 27  1  0  0  0  0
M  END
> <CdId>
1753

> <Mol Weight>
459.72

> <Formula>
C21H16BrClN2O3

> <Click_ID>
CLK023_F08 __ __ 

$$$$
