CLK025_H09
 OpenBabel03181410512D

 23 24  0  0  0  0  0  0  0  0999 V2000
    0.3642   -1.6836    0.0000 N    0  0  0  0  0  0  0  0  0  0  0  0
    1.1270   -1.6526    0.0000 C    0  0  0  0  0  0  0  0  0  0  0  0
    0.7181   -0.4020    0.0000 C    0  0  0  0  0  0  0  0  0  0  0  0
    0.0309   -0.8658    0.0000 C    0  0  0  0  0  0  0  0  0  0  0  0
    1.3640   -0.8899    0.0000 S    0  0  0  0  0  0  0  0  0  0  0  0
    0.7181    0.4294    0.0000 C    0  0  0  0  0  0  0  0  0  0  0  0
    0.0035    0.8417    0.0000 C    0  0  0  0  0  0  0  0  0  0  0  0
    1.6286   -2.3123    0.0000 N    0  0  0  0  0  0  0  0  0  0  0  0
   -0.7147    2.0786    0.0000 C    0  0  0  0  0  0  0  0  0  0  0  0
    0.0035    1.6663    0.0000 C    0  0  0  0  0  0  0  0  0  0  0  0
    1.3125   -3.0716    0.0000 C    0  0  0  0  0  0  0  0  0  0  0  0
   -1.4293    1.6663    0.0000 C    0  0  0  0  0  0  0  0  0  0  0  0
    1.4362    3.3190    0.0000 C    0  0  0  0  0  0  0  0  0  0  0  0
    2.1474    3.7347    0.0000 C    0  0  0  0  0  0  0  0  0  0  0  0
   -0.7147    0.4294    0.0000 C    0  0  0  0  0  0  0  0  0  0  0  0
   -1.4293    0.8417    0.0000 C    0  0  0  0  0  0  0  0  0  0  0  0
   -0.7524   -0.6287    0.0000 O    0  0  0  0  0  0  0  0  0  0  0  0
    0.4879   -3.1815    0.0000 O    0  0  0  0  0  0  0  0  0  0  0  0
   -0.7147    2.9101    0.0000 Br   0  0  0  0  0  0  0  0  0  0  0  0
    0.7181    2.0786    0.0000 O    0  0  0  0  0  0  0  0  0  0  0  0
   -2.1508    0.4294    0.0000 Br   0  0  0  0  0  0  0  0  0  0  0  0
    0.7181    2.9101    0.0000 C    0  0  0  0  0  0  0  0  0  0  0  0
    1.8003   -3.7347    0.0000 C    0  0  0  0  0  0  0  0  0  0  0  0
  2  1  2  0  0  0  0
  3  4  1  0  0  0  0
  3  5  1  0  0  0  0
  4  1  1  0  0  0  0
  5  2  1  0  0  0  0
  6  3  2  0  0  0  0
  7  6  1  0  0  0  0
  8  2  1  0  0  0  0
  9 10  2  0  0  0  0
  9 12  1  0  0  0  0
 10  7  1  0  0  0  0
 11  8  1  0  0  0  0
 12 16  2  0  0  0  0
 13 22  1  0  0  0  0
 14 13  3  0  0  0  0
 15  7  2  0  0  0  0
 16 15  1  0  0  0  0
 17  4  2  0  0  0  0
 18 11  2  0  0  0  0
 19  9  1  0  0  0  0
 20 10  1  0  0  0  0
 21 16  1  0  0  0  0
 22 20  1  0  0  0  0
 23 11  1  0  0  0  0
M  END
> <CdId>
1934

> <Mol Weight>
458.125

> <Formula>
C15H10Br2N2O3S

> <Click_ID>
CLK025_H09 __ __ 

$$$$
