CLK007_G11
 OpenBabel03181410512D

 28 30  0  0  0  0  0  0  0  0999 V2000
   -0.0447   -2.1132    0.0000 C    0  0  0  0  0  0  0  0  0  0  0  0
   -0.0344   -2.9462    0.0000 C    0  0  0  0  0  0  0  0  0  0  0  0
   -0.6780   -1.6108    0.0000 N    0  0  0  0  0  0  0  0  0  0  0  0
    0.6436   -1.6659    0.0000 O    0  0  0  0  0  0  0  0  0  0  0  0
    0.6746   -3.3558    0.0000 C    0  0  0  0  0  0  0  0  0  0  0  0
   -0.7538   -3.3558    0.0000 C    0  0  0  0  0  0  0  0  0  0  0  0
   -0.3855   -0.8363    0.0000 C    0  0  0  0  0  0  0  0  0  0  0  0
    0.4268   -0.8743    0.0000 C    0  0  0  0  0  0  0  0  0  0  0  0
    0.6677   -4.1853    0.0000 C    0  0  0  0  0  0  0  0  0  0  0  0
    1.3905   -2.9462    0.0000 F    0  0  0  0  0  0  0  0  0  0  0  0
   -0.7538   -4.1853    0.0000 C    0  0  0  0  0  0  0  0  0  0  0  0
   -0.8432   -0.1376    0.0000 C    0  0  0  0  0  0  0  0  0  0  0  0
    0.9396   -0.2168    0.0000 O    0  0  0  0  0  0  0  0  0  0  0  0
   -0.0447   -4.5948    0.0000 C    0  0  0  0  0  0  0  0  0  0  0  0
   -0.4577    0.5989    0.0000 C    0  0  0  0  0  0  0  0  0  0  0  0
   -0.9155    1.2976    0.0000 C    0  0  0  0  0  0  0  0  0  0  0  0
    0.3545    0.6471    0.0000 C    0  0  0  0  0  0  0  0  0  0  0  0
   -0.5438    2.0341    0.0000 C    0  0  0  0  0  0  0  0  0  0  0  0
    0.7400    1.3802    0.0000 C    0  0  0  0  0  0  0  0  0  0  0  0
    0.2823    2.0789    0.0000 C    0  0  0  0  0  0  0  0  0  0  0  0
   -0.9912    2.7156    0.0000 O    0  0  0  0  0  0  0  0  0  0  0  0
    1.5626    1.4180    0.0000 Cl   0  0  0  0  0  0  0  0  0  0  0  0
    0.6540    2.8154    0.0000 O    0  0  0  0  0  0  0  0  0  0  0  0
   -1.8138    2.6743    0.0000 C    0  0  0  0  0  0  0  0  0  0  0  0
    0.2065    3.5003    0.0000 C    0  0  0  0  0  0  0  0  0  0  0  0
   -2.2648    3.3627    0.0000 C    0  0  0  0  0  0  0  0  0  0  0  0
    0.5817    4.2300    0.0000 C    0  0  0  0  0  0  0  0  0  0  0  0
    1.4043    4.2713    0.0000 C    0  0  0  0  0  0  0  0  0  0  0  0
  1  2  1  0  0  0  0
  1  3  2  0  0  0  0
  1  4  1  0  0  0  0
  2  5  1  0  0  0  0
  2  6  2  0  0  0  0
  3  7  1  0  0  0  0
  4  8  1  0  0  0  0
  5  9  2  0  0  0  0
  5 10  1  0  0  0  0
  6 11  1  0  0  0  0
  7 12  2  0  0  0  0
  7  8  1  0  0  0  0
  8 13  2  0  0  0  0
  9 14  1  0  0  0  0
 11 14  2  0  0  0  0
 12 15  1  0  0  0  0
 15 16  1  0  0  0  0
 15 17  2  0  0  0  0
 16 18  2  0  0  0  0
 17 19  1  0  0  0  0
 18 20  1  0  0  0  0
 18 21  1  0  0  0  0
 19 22  1  0  0  0  0
 19 20  2  0  0  0  0
 20 23  1  0  0  0  0
 21 24  1  0  0  0  0
 23 25  1  0  0  0  0
 24 26  1  0  0  0  0
 25 27  1  0  0  0  0
 27 28  3  0  0  0  0
M  END
> <CdId>
550

> <Mol Weight>
399.8

> <Formula>
C21H15ClFNO4

> <Click_ID>
CLK007_G11 __ __ 

$$$$
