CLK023_A06
 OpenBabel03181410512D

 25 27  0  0  0  0  0  0  0  0999 V2000
   -1.8490    0.2062    0.0000 C   0  0  0  0  0  0  0  0  0  0  0  0
   -1.5912   -0.5774    0.0000 N   0  0  0  0  0  0  0  0  0  0  0  0
   -0.5190    0.2062    0.0000 C   0  0  0  0  0  0  0  0  0  0  0  0
   -0.7698   -0.5774    0.0000 C   0  0  0  0  0  0  0  0  0  0  0  0
   -1.1822    0.6908    0.0000 S   0  0  0  0  0  0  0  0  0  0  0  0
   -2.6325    0.4674    0.0000 N   0  0  0  0  0  0  0  0  0  0  0  0
    0.2749    0.4674    0.0000 C   0  0  0  0  0  0  0  0  0  0  0  0
    3.1617   -3.1136    0.0000 C   0  0  0  0  0  0  0  0  0  0  0  0
    3.7460   -3.6944    0.0000 C   0  0  0  0  0  0  0  0  0  0  0  0
   -0.2818   -1.2510    0.0000 O   0  0  0  0  0  0  0  0  0  0  0  0
    0.8832   -0.0928    0.0000 C   0  0  0  0  0  0  0  0  0  0  0  0
   -2.8043    1.2647    0.0000 C   0  0  0  0  0  0  0  0  0  0  0  0
    2.1067   -1.1960    0.0000 C   0  0  0  0  0  0  0  0  0  0  0  0
   -3.1342    2.8903    0.0000 C   0  0  0  0  0  0  0  0  0  0  0  0
    1.6702    0.1546    0.0000 C   0  0  0  0  0  0  0  0  0  0  0  0
    0.7149   -0.9004    0.0000 C   0  0  0  0  0  0  0  0  0  0  0  0
   -3.5810    1.5224    0.0000 C   0  0  0  0  0  0  0  0  0  0  0  0
   -2.1823    1.8214    0.0000 C   0  0  0  0  0  0  0  0  0  0  0  0
    1.3300   -1.4572    0.0000 C   0  0  0  0  0  0  0  0  0  0  0  0
    2.2785   -0.3918    0.0000 C   0  0  0  0  0  0  0  0  0  0  0  0
   -3.7494    2.3301    0.0000 C   0  0  0  0  0  0  0  0  0  0  0  0
   -2.3507    2.6222    0.0000 C   0  0  0  0  0  0  0  0  0  0  0  0
    2.5500   -2.5569    0.0000 C   0  0  0  0  0  0  0  0  0  0  0  0
    2.7150   -1.7459    0.0000 O   0  0  0  0  0  0  0  0  0  0  0  0
   -3.3027    3.6944    0.0000 C   0  0  0  0  0  0  0  0  0  0  0  0
  2  1  1  0  0  0  0
  3  5  1  0  0  0  0
  4  2  1  0  0  0  0
  4  3  1  0  0  0  0
  5  1  1  0  0  0  0
  6  1  2  0  0  0  0
  7  3  2  0  0  0  0
  8 23  1  0  0  0  0
  9  8  3  0  0  0  0
 10  4  2  0  0  0  0
 11  7  1  0  0  0  0
 12  6  1  0  0  0  0
 13 19  1  0  0  0  0
 14 22  2  0  0  0  0
 14 21  1  0  0  0  0
 15 11  2  0  0  0  0
 16 11  1  0  0  0  0
 17 12  1  0  0  0  0
 18 12  2  0  0  0  0
 19 16  2  0  0  0  0
 20 15  1  0  0  0  0
 20 13  2  0  0  0  0
 21 17  2  0  0  0  0
 22 18  1  0  0  0  0
 23 24  1  0  0  0  0
 24 13  1  0  0  0  0
 25 14  1  0  0  0  0
M  END
> <CdId>
1701

> <Mol Weight>
348.418

> <Formula>
C20H16N2O2S

> <Click_ID>
CLK023_A06 __ __ 

$$$$
