CLK025_C09
 OpenBabel03181410512D

 35 38  0  0  0  0  0  0  0  0999 V2000
    0.7262   -1.0489    0.0000 C   0  0  0  0  0  0  0  0  0  0  0  0
   -0.0035    0.1789    0.0000 C   0  0  0  0  0  0  0  0  0  0  0  0
    0.6981    0.5929    0.0000 C   0  0  0  0  0  0  0  0  0  0  0  0
    1.4383   -0.6315    0.0000 C   0  0  0  0  0  0  0  0  0  0  0  0
    1.4243    0.1930    0.0000 N   0  0  0  0  0  0  0  0  0  0  0  0
    0.0105   -0.6490    0.0000 C   0  0  3  0  0  0  0  0  0  0  0  0
    0.7367   -1.8698    0.0000 C   0  0  0  0  0  0  0  0  0  0  0  0
   -0.7192    0.5788    0.0000 C   0  0  0  0  0  0  0  0  0  0  0  0
   -1.2699   -1.4067    0.0000 C   0  0  0  0  0  0  0  0  0  0  0  0
    2.1329    0.6209    0.0000 C   0  0  0  0  0  0  0  0  0  0  0  0
    2.1539   -1.0278    0.0000 C   0  0  0  0  0  0  0  0  0  0  0  0
    0.6946    1.4243    0.0000 C   0  0  0  0  0  0  0  0  0  0  0  0
    2.1189    1.4454    0.0000 C   0  0  0  0  0  0  0  0  0  0  0  0
    2.1680   -1.8593    0.0000 C   0  0  0  0  0  0  0  0  0  0  0  0
   -0.0316    1.8172    0.0000 C   0  0  0  0  0  0  0  0  0  0  0  0
   -2.7468    1.0594    0.0000 C   0  0  0  0  0  0  0  0  0  0  0  0
    1.4559   -2.2732    0.0000 C   0  0  0  0  0  0  0  0  0  0  0  0
   -0.7332    1.4033    0.0000 C   0  0  0  0  0  0  0  0  0  0  0  0
   -3.4660    1.4593    0.0000 C   0  0  0  0  0  0  0  0  0  0  0  0
    2.7504    1.8312    0.0000 C   0  0  0  0  0  0  0  0  0  0  0  0
    0.0175   -2.3013    0.0000 O   0  0  0  0  0  0  0  0  0  0  0  0
   -1.4383    0.1543    0.0000 O   0  0  0  0  0  0  0  0  0  0  0  0
   -1.9926   -1.0033    0.0000 C   0  0  0  0  0  0  0  0  0  0  0  0
    3.4625    1.4172    0.0000 O   0  0  0  0  0  0  0  0  0  0  0  0
    2.7468    2.6591    0.0000 O   0  0  0  0  0  0  0  0  0  0  0  0
   -2.0066   -0.1649    0.0000 O   0  0  0  0  0  0  0  0  0  0  0  0
   -2.7328    0.2351    0.0000 C   0  0  0  0  0  0  0  0  0  0  0  0
   -1.2594   -2.2312    0.0000 C   0  0  0  0  0  0  0  0  0  0  0  0
   -0.8595    1.8032    0.0000 C   0  0  0  0  0  0  0  0  0  0  0  0
    2.8906   -2.2697    0.0000 C   0  0  0  0  0  0  0  0  0  0  0  0
    1.7611   -2.5925    0.0000 C   0  0  0  0  0  0  0  0  0  0  0  0
   -0.0351    2.6591    0.0000 C   0  0  0  0  0  0  0  0  0  0  0  0
   -2.7047   -1.4208    0.0000 C   0  0  0  0  0  0  0  0  0  0  0  0
   -1.9750   -2.6557    0.0000 C   0  0  0  0  0  0  0  0  0  0  0  0
   -2.6907   -2.2452    0.0000 C   0  0  0  0  0  0  0  0  0  0  0  0
  2  6  1  0  0  0  0
  3  2  2  0  0  0  0
  4  1  2  0  0  0  0
  5  4  1  0  0  0  0
  5  3  1  0  0  0  0
  6  1  1  0  0  0  0
  7  1  1  0  0  0  0
  8  2  1  0  0  0  0
  9  6  1  0  0  0  0
 10  5  1  0  0  0  0
 11  4  1  0  0  0  0
 11 14  1  0  0  0  0
 12  3  1  0  0  0  0
 13 10  1  0  0  0  0
 14 17  1  0  0  0  0
 15 18  1  0  0  0  0
 15 12  1  0  0  0  0
 16 27  1  0  0  0  0
 17  7  1  0  0  0  0
 18  8  1  0  0  0  0
 19 16  3  0  0  0  0
 20 13  1  0  0  0  0
 21  7  2  0  0  0  0
 22  8  2  0  0  0  0
 23  9  1  0  0  0  0
 24 20  2  0  0  0  0
 25 20  1  0  0  0  0
 26 23  1  0  0  0  0
 27 26  1  0  0  0  0
 28  9  2  0  0  0  0
 29 15  1  0  0  0  0
 30 14  1  0  0  0  0
 31 14  1  0  0  0  0
 32 15  1  0  0  0  0
 33 23  2  0  0  0  0
 33 35  1  0  0  0  0
 34 28  1  0  0  0  0
 35 34  2  0  0  0  0
M  END
> <CdId>
1884

> <Mol Weight>
475.576

> <Formula>
C29H33NO5

> <Click_ID>
CLK025_C09 __ __ 

$$$$
