CLK052D05
 OpenBabel03181410512D

 28 31  0  0  0  0  0  0  0  0999 V2000
   -0.9500    0.0833    0.0000 C   0  0  0  0  0  0  0  0  0  0  0  0
   -0.9500   -0.7417    0.0000 C   0  0  0  0  0  0  0  0  0  0  0  0
   -1.7333    0.3375    0.0000 N   0  0  0  0  0  0  0  0  0  0  0  0
   -0.2333    0.4958    0.0000 N   0  0  0  0  0  0  0  0  0  0  0  0
   -2.2167   -0.3292    0.0000 N   0  0  0  0  0  0  0  0  0  0  0  0
   -0.2333   -1.1542    0.0000 C   0  0  0  0  0  0  0  0  0  0  0  0
   -1.7333   -0.9958    0.0000 C   0  0  0  0  0  0  0  0  0  0  0  0
    0.4792    0.0833    0.0000 C   0  0  0  0  0  0  0  0  0  0  0  0
    0.4792   -0.7417    0.0000 C   0  0  0  0  0  0  0  0  0  0  0  0
   -0.2333   -1.9792    0.0000 C   0  0  0  0  0  0  0  0  0  0  0  0
    1.1958   -3.6292    0.0000 C   0  0  0  0  0  0  0  0  0  0  0  0
    1.9083   -4.0417    0.0000 C   0  0  0  0  0  0  0  0  0  0  0  0
   -1.9875    1.1250    0.0000 C   0  0  0  0  0  0  0  0  0  0  0  0
   -0.9500   -2.3917    0.0000 O   0  0  0  0  0  0  0  0  0  0  0  0
    1.1958    0.4958    0.0000 C   0  0  0  0  0  0  0  0  0  0  0  0
    0.4792   -2.3917    0.0000 N   0  0  0  0  0  0  0  0  0  0  0  0
   -1.4375    1.7375    0.0000 C   0  0  0  0  0  0  0  0  0  0  0  0
    0.4792   -3.2167    0.0000 C   0  0  0  0  0  0  0  0  0  0  0  0
    1.9083    0.0833    0.0000 C   0  0  0  0  0  0  0  0  0  0  0  0
    1.1958    1.3208    0.0000 C   0  0  0  0  0  0  0  0  0  0  0  0
   -0.6292    1.5625    0.0000 C   0  0  0  0  0  0  0  0  0  0  0  0
   -1.6917    2.5208    0.0000 C   0  0  0  0  0  0  0  0  0  0  0  0
    1.9083    1.7333    0.0000 C   0  0  0  0  0  0  0  0  0  0  0  0
    2.6250    0.4958    0.0000 C   0  0  0  0  0  0  0  0  0  0  0  0
   -1.1375    3.1333    0.0000 C   0  0  0  0  0  0  0  0  0  0  0  0
   -0.0792    2.1792    0.0000 C   0  0  0  0  0  0  0  0  0  0  0  0
   -0.3333    2.9625    0.0000 C   0  0  0  0  0  0  0  0  0  0  0  0
    2.6250    1.3208    0.0000 C   0  0  0  0  0  0  0  0  0  0  0  0
  2  1  1  0  0  0  0
  3  1  1  0  0  0  0
  4  1  2  0  0  0  0
  5  3  1  0  0  0  0
  6  2  2  0  0  0  0
  7  2  1  0  0  0  0
  7  5  2  0  0  0  0
  8  4  1  0  0  0  0
  8  9  2  0  0  0  0
  9  6  1  0  0  0  0
 10  6  1  0  0  0  0
 11 18  1  0  0  0  0
 12 11  3  0  0  0  0
 13  3  1  0  0  0  0
 14 10  2  0  0  0  0
 15  8  1  0  0  0  0
 16 10  1  0  0  0  0
 17 13  1  0  0  0  0
 18 16  1  0  0  0  0
 19 15  1  0  0  0  0
 20 15  2  0  0  0  0
 21 17  1  0  0  0  0
 22 17  2  0  0  0  0
 23 20  1  0  0  0  0
 24 19  2  0  0  0  0
 25 22  1  0  0  0  0
 26 21  2  0  0  0  0
 27 25  2  0  0  0  0
 27 26  1  0  0  0  0
 28 23  2  0  0  0  0
 28 24  1  0  0  0  0
M  END
> <CdId>
3996

> <Mol Weight>
366.4152

> <Formula>
C23H18N4O

> <Click_ID>
CLK052D05 __ __ 

$$$$
