CLK044B06
 OpenBabel03181410512D

 33 37  0  0  0  0  0  0  0  0999 V2000
    1.5375   -0.2792    0.0000 N   0  0  0  0  0  0  0  0  0  0  0  0
    0.7542   -1.3625    0.0000 N   0  0  0  0  0  0  0  0  0  0  0  0
    1.5375   -1.1042    0.0000 C   0  0  0  0  0  0  0  0  0  0  0  0
    0.2667   -0.6917    0.0000 C   0  0  0  0  0  0  0  0  0  0  0  0
    0.7542   -0.0250    0.0000 N   0  0  0  0  0  0  0  0  0  0  0  0
   -1.7958    0.0208    0.0000 C   0  0  0  0  0  0  0  0  0  0  0  0
   -2.2792    0.6875    0.0000 N   0  0  0  0  0  0  0  0  0  0  0  0
   -2.2792   -0.6458    0.0000 S   0  0  0  0  0  0  0  0  0  0  0  0
    2.2042    0.2042    0.0000 C   0  0  0  0  0  0  0  0  0  0  0  0
    2.1167    1.0250    0.0000 N   0  0  0  0  0  0  0  0  0  0  0  0
   -3.0625    0.4333    0.0000 C   0  0  0  0  0  0  0  0  0  0  0  0
   -3.0625   -0.3917    0.0000 C   0  0  0  0  0  0  0  0  0  0  0  0
    2.2042   -1.5917    0.0000 S   0  0  0  0  0  0  0  0  0  0  0  0
   -0.5583   -0.6917    0.0000 C   0  0  0  0  0  0  0  0  0  0  0  0
    2.5292    3.9708    0.0000 C   0  0  0  0  0  0  0  0  0  0  0  0
    1.9458    2.6667    0.0000 N   0  0  0  0  0  0  0  0  0  0  0  0
    0.4958   -2.1458    0.0000 C   0  0  0  0  0  0  0  0  0  0  0  0
    3.1958    4.4500    0.0000 C   0  0  0  0  0  0  0  0  0  0  0  0
   -0.9708    0.0208    0.0000 S   0  0  0  0  0  0  0  0  0  0  0  0
    1.3667    1.3583    0.0000 C   0  0  0  0  0  0  0  0  0  0  0  0
    2.7875    1.5083    0.0000 C   0  0  0  0  0  0  0  0  0  0  0  0
    2.7000    2.3292    0.0000 C   0  0  0  0  0  0  0  0  0  0  0  0
    1.2792    2.1792    0.0000 C   0  0  0  0  0  0  0  0  0  0  0  0
    1.8583    3.4875    0.0000 C   0  0  0  0  0  0  0  0  0  0  0  0
   -3.7792    0.8458    0.0000 C   0  0  0  0  0  0  0  0  0  0  0  0
   -3.7792   -0.8042    0.0000 C   0  0  0  0  0  0  0  0  0  0  0  0
   -0.3083   -2.3167    0.0000 C   0  0  0  0  0  0  0  0  0  0  0  0
    1.0500   -2.7583    0.0000 C   0  0  0  0  0  0  0  0  0  0  0  0
   -4.4917   -0.3917    0.0000 C   0  0  0  0  0  0  0  0  0  0  0  0
   -4.4917    0.4333    0.0000 C   0  0  0  0  0  0  0  0  0  0  0  0
    0.7958   -3.5417    0.0000 C   0  0  0  0  0  0  0  0  0  0  0  0
   -0.5625   -3.1000    0.0000 C   0  0  0  0  0  0  0  0  0  0  0  0
   -0.0125   -3.7167    0.0000 C   0  0  0  0  0  0  0  0  0  0  0  0
  2  3  1  0  0  0  0
  2  4  1  0  0  0  0
  3  1  1  0  0  0  0
  4  5  2  0  0  0  0
  5  1  1  0  0  0  0
  6 19  1  0  0  0  0
  7  6  2  0  0  0  0
  8  6  1  0  0  0  0
  9  1  1  0  0  0  0
 10  9  1  0  0  0  0
 11  7  1  0  0  0  0
 12  8  1  0  0  0  0
 12 11  2  0  0  0  0
 13  3  2  0  0  0  0
 14  4  1  0  0  0  0
 15 24  1  0  0  0  0
 16 23  1  0  0  0  0
 16 22  1  0  0  0  0
 17  2  1  0  0  0  0
 18 15  3  0  0  0  0
 19 14  1  0  0  0  0
 20 10  1  0  0  0  0
 21 10  1  0  0  0  0
 22 21  1  0  0  0  0
 23 20  1  0  0  0  0
 24 16  1  0  0  0  0
 25 11  1  0  0  0  0
 26 12  1  0  0  0  0
 27 17  1  0  0  0  0
 28 17  2  0  0  0  0
 29 26  2  0  0  0  0
 29 30  1  0  0  0  0
 30 25  2  0  0  0  0
 31 28  1  0  0  0  0
 32 27  2  0  0  0  0
 33 31  2  0  0  0  0
 33 32  1  0  0  0  0
M  END
> <CdId>
3362

> <Mol Weight>
492.683

> <Formula>
C24H24N6S3

> <Click_ID>
CLK044B06 __ __ 

$$$$
