CLK022_B02
 OpenBabel03181410512D

 20 21  0  0  0  0  0  0  0  0999 V2000
   -0.3298    2.8950    0.0000 C   0  0  0  0  0  0  0  0  0  0  0  0
   -2.3453    2.3087    0.0000 C   0  0  0  0  0  0  0  0  0  0  0  0
    2.5195    2.8950    0.0000 C   0  0  0  0  0  0  0  0  0  0  0  0
   -1.0444    2.4828    0.0000 N   0  0  0  0  0  0  0  0  0  0  0  0
    0.3757    2.4828    0.0000 N   0  0  0  0  0  0  0  0  0  0  0  0
   -2.9271    1.7269    0.0000 C   0  0  0  0  0  0  0  0  0  0  0  0
    1.8049    2.4828    0.0000 C   0  0  0  0  0  0  0  0  0  0  0  0
    2.5195    3.7196    0.0000 C   0  0  0  0  0  0  0  0  0  0  0  0
    3.3028    2.6339    0.0000 O   0  0  0  0  0  0  0  0  0  0  0  0
   -1.7590    2.8950    0.0000 C   0  0  0  0  0  0  0  0  0  0  0  0
    3.3028    3.9715    0.0000 O   0  0  0  0  0  0  0  0  0  0  0  0
    1.0903    2.8950    0.0000 C   0  0  0  0  0  0  0  0  0  0  0  0
    3.7929    3.3073    0.0000 C   0  0  0  0  0  0  0  0  0  0  0  0
   -0.3298    3.7196    0.0000 O   0  0  0  0  0  0  0  0  0  0  0  0
    1.8049    4.1318    0.0000 C   0  0  0  0  0  0  0  0  0  0  0  0
    1.0903    3.7196    0.0000 C   0  0  0  0  0  0  0  0  0  0  0  0
   -1.2872    3.5684    0.0000 C   0  0  0  0  0  0  0  0  0  0  0  0
   -2.3912    3.4218    0.0000 C   0  0  0  0  0  0  0  0  0  0  0  0
   -1.6353    4.3151    0.0000 C   0  0  0  0  0  0  0  0  0  0  0  0
   -2.2491    4.2418    0.0000 C   0  0  0  0  0  0  0  0  0  0  0  0
  2 10  1  0  0  0  0
  3  7  2  0  0  0  0
  4  1  1  0  0  0  0
  5  1  1  0  0  0  0
  6  2  3  0  0  0  0
  7 12  1  0  0  0  0
  8 15  2  0  0  0  0
  8  3  1  0  0  0  0
  9  3  1  0  0  0  0
 10  4  1  0  0  0  0
 11  8  1  0  0  0  0
 11 13  1  0  0  0  0
 12  5  1  0  0  0  0
 13  9  1  0  0  0  0
 14  1  2  0  0  0  0
 15 16  1  0  0  0  0
 16 12  2  0  0  0  0
 17 10  1  0  0  0  0
 18 10  1  0  0  0  0
 19 17  1  0  0  0  0
 20 18  1  0  0  0  0
M  END
> <CdId>
1645

> <Mol Weight>
274.315

> <Formula>
C15H18N2O3

> <Click_ID>
CLK022_B02 __ __ 

$$$$
