CLK012_D10
 OpenBabel03181410512D

 28 30  0  0  0  0  0  0  0  0999 V2000
    4.7976   -2.7379    0.0000 N   0  0  0  0  0  0  0  0  0  0  0  0
    4.6686   -3.5618    0.0000 C   0  0  0  0  0  0  0  0  0  0  0  0
    4.0611   -2.3635    0.0000 C   0  0  0  0  0  0  0  0  0  0  0  0
    3.4744   -2.9502    0.0000 C   0  0  0  0  0  0  0  0  0  0  0  0
    3.8489   -3.6866    0.0000 S   0  0  0  0  0  0  0  0  0  0  0  0
    5.5341   -2.3717    0.0000 C   0  0  0  0  0  0  0  0  0  0  0  0
    2.6630   -2.8128    0.0000 C   0  0  0  0  0  0  0  0  0  0  0  0
    5.5840   -1.5479    0.0000 C   0  0  0  0  0  0  0  0  0  0  0  0
    0.3412   -6.8074    0.0000 C   0  0  0  0  0  0  0  0  0  0  0  0
   -0.1830   -7.4440    0.0000 C   0  0  0  0  0  0  0  0  0  0  0  0
    5.2470   -4.1443    0.0000 O   0  0  0  0  0  0  0  0  0  0  0  0
    3.9363   -1.5521    0.0000 O   0  0  0  0  0  0  0  0  0  0  0  0
    6.3163   -1.1776    0.0000 C   0  0  0  0  0  0  0  0  0  0  0  0
    4.8933   -1.0985    0.0000 O   0  0  0  0  0  0  0  0  0  0  0  0
    2.1388   -3.4620    0.0000 C   0  0  0  0  0  0  0  0  0  0  0  0
    7.0029   -1.6270    0.0000 C   0  0  0  0  0  0  0  0  0  0  0  0
    6.3580   -0.3537    0.0000 C   0  0  0  0  0  0  0  0  0  0  0  0
    1.0860   -4.7477    0.0000 C   0  0  0  0  0  0  0  0  0  0  0  0
    7.0945    0.0125    0.0000 C   0  0  0  0  0  0  0  0  0  0  0  0
    7.7311   -1.2650    0.0000 C   0  0  0  0  0  0  0  0  0  0  0  0
    7.7810   -0.4411    0.0000 C   0  0  0  0  0  0  0  0  0  0  0  0
    2.4259   -4.2359    0.0000 C   0  0  0  0  0  0  0  0  0  0  0  0
    1.3149   -3.3246    0.0000 C   0  0  0  0  0  0  0  0  0  0  0  0
    1.9016   -4.8725    0.0000 C   0  0  0  0  0  0  0  0  0  0  0  0
    0.7906   -3.9613    0.0000 C   0  0  0  0  0  0  0  0  0  0  0  0
    0.8530   -6.1583    0.0000 C   0  0  0  0  0  0  0  0  0  0  0  0
    0.5617   -5.3926    0.0000 O   0  0  0  0  0  0  0  0  0  0  0  0
    8.5175   -0.0666    0.0000 C   0  0  0  0  0  0  0  0  0  0  0  0
  2  1  1  0  0  0  0
  3  1  1  0  0  0  0
  4  3  1  0  0  0  0
  5  2  1  0  0  0  0
  5  4  1  0  0  0  0
  6  1  1  0  0  0  0
  7  4  2  0  0  0  0
  8  6  1  0  0  0  0
  9 26  1  0  0  0  0
 10  9  3  0  0  0  0
 11  2  2  0  0  0  0
 12  3  2  0  0  0  0
 13  8  1  0  0  0  0
 14  8  2  0  0  0  0
 15  7  1  0  0  0  0
 16 13  2  0  0  0  0
 17 13  1  0  0  0  0
 18 25  2  0  0  0  0
 18 24  1  0  0  0  0
 19 17  2  0  0  0  0
 20 16  1  0  0  0  0
 21 19  1  0  0  0  0
 21 20  2  0  0  0  0
 22 15  1  0  0  0  0
 23 15  2  0  0  0  0
 24 22  2  0  0  0  0
 25 23  1  0  0  0  0
 26 27  1  0  0  0  0
 27 18  1  0  0  0  0
 28 21  1  0  0  0  0
M  END
> <CdId>
875

> <Mol Weight>
391.44

> <Formula>
C22H17NO4S

> <Click_ID>
CLK012_D10 __ __ 

$$$$
