CLK007_H04
 OpenBabel03181410512D

 34 38  0  0  0  0  0  0  0  0999 V2000
   -0.1070    0.6662    0.0000 C    0  0  3  0  0  0  0  0  0  0  0  0
   -0.8319    0.2451    0.0000 C    0  0  0  0  0  0  0  0  0  0  0  0
    0.6800    0.8803    0.0000 C    0  0  0  0  0  0  0  0  0  0  0  0
    0.5937    0.2451    0.0000 C    0  0  0  0  0  0  0  0  0  0  0  0
   -0.5696    1.3567    0.0000 C    0  0  0  0  0  0  0  0  0  0  0  0
   -0.8319   -0.5799    0.0000 C    0  0  0  0  0  0  0  0  0  0  0  0
   -1.5465    0.6662    0.0000 C    0  0  0  0  0  0  0  0  0  0  0  0
    0.7180    1.7053    0.0000 C    0  0  0  0  0  0  0  0  0  0  0  0
    1.3705    0.4350    0.0000 C    0  0  0  0  0  0  0  0  0  0  0  0
    0.5937   -0.5799    0.0000 C    0  0  0  0  0  0  0  0  0  0  0  0
    1.3083   -0.1657    0.0000 C    0  0  0  0  0  0  0  0  0  0  0  0
   -0.0448    1.9988    0.0000 N    0  0  0  0  0  0  0  0  0  0  0  0
   -1.1599    1.9573    0.0000 O    0  0  0  0  0  0  0  0  0  0  0  0
   -0.1208   -0.9942    0.0000 N    0  0  0  0  0  0  0  0  0  0  0  0
   -1.5465   -0.9839    0.0000 C    0  0  0  0  0  0  0  0  0  0  0  0
   -2.2473    0.2451    0.0000 C    0  0  0  0  0  0  0  0  0  0  0  0
   -2.1333    1.2566    0.0000 O    0  0  0  0  0  0  0  0  0  0  0  0
    1.4568    2.0851    0.0000 C    0  0  0  0  0  0  0  0  0  0  0  0
    2.1092    0.8078    0.0000 C    0  0  0  0  0  0  0  0  0  0  0  0
    1.3083   -0.9977    0.0000 N    0  0  0  0  0  0  0  0  0  0  0  0
    2.0194   -0.5799    0.0000 N    0  0  0  0  0  0  0  0  0  0  0  0
   -0.2693    2.7997    0.0000 C    0  0  0  0  0  0  0  0  0  0  0  0
   -0.1311   -1.8089    0.0000 C    0  0  0  0  0  0  0  0  0  0  0  0
   -2.2473   -0.5799    0.0000 C    0  0  0  0  0  0  0  0  0  0  0  0
    2.1437    1.6363    0.0000 C    0  0  0  0  0  0  0  0  0  0  0  0
    0.3175    3.3830    0.0000 C    0  0  0  0  0  0  0  0  0  0  0  0
    0.5799   -2.2300    0.0000 C    0  0  0  0  0  0  0  0  0  0  0  0
   -0.8457   -2.2196    0.0000 C    0  0  0  0  0  0  0  0  0  0  0  0
    0.0932    4.1770    0.0000 C    0  0  0  0  0  0  0  0  0  0  0  0
    0.5799   -3.0481    0.0000 C    0  0  0  0  0  0  0  0  0  0  0  0
    1.3083   -1.8192    0.0000 C    0  0  0  0  0  0  0  0  0  0  0  0
   -0.8457   -3.0447    0.0000 C    0  0  0  0  0  0  0  0  0  0  0  0
   -0.1311   -3.4624    0.0000 C    0  0  0  0  0  0  0  0  0  0  0  0
   -1.5638   -3.4486    0.0000 Cl   0  0  0  0  0  0  0  0  0  0  0  0
  1  2  1  0  0  0  0
  1  3  1  0  0  0  0
  1  4  1  0  0  0  0
  1  5  1  0  0  0  0
  2  6  2  0  0  0  0
  2  7  1  0  0  0  0
  3  8  2  0  0  0  0
  3  9  1  0  0  0  0
  4 10  2  0  0  0  0
  4 11  1  0  0  0  0
  5 12  1  0  0  0  0
  5 13  2  0  0  0  0
  6 14  1  0  0  0  0
  6 15  1  0  0  0  0
  7 16  1  0  0  0  0
  7 17  2  0  0  0  0
  8 18  1  0  0  0  0
  8 12  1  0  0  0  0
  9 19  2  0  0  0  0
 10 20  1  0  0  0  0
 10 14  1  0  0  0  0
 11 21  3  0  0  0  0
 12 22  1  0  0  0  0
 14 23  1  0  0  0  0
 15 24  1  0  0  0  0
 16 24  1  0  0  0  0
 18 25  2  0  0  0  0
 19 25  1  0  0  0  0
 22 26  1  0  0  0  0
 23 27  1  0  0  0  0
 23 28  2  0  0  0  0
 26 29  3  0  0  0  0
 27 30  2  0  0  0  0
 27 31  1  0  0  0  0
 28 32  1  0  0  0  0
 30 33  1  0  0  0  0
 32 34  1  0  0  0  0
 32 33  2  0  0  0  0
M  END
> <CdId>
553

> <Mol Weight>
468.934

> <Formula>
C27H21ClN4O2

> <Click_ID>
CLK007_H04 __ __ 

$$$$
