CLK009_F04
 OpenBabel03181410512D

 22 22  0  0  0  0  0  0  0  0999 V2000
   -0.8843    0.9004    0.0000 N    0  0  0  0  0  0  0  0  0  0  0  0
   -0.2103    1.2887    0.0000 C    0  0  0  0  0  0  0  0  0  0  0  0
   -0.2103    2.1137    0.0000 C    0  0  0  0  0  0  0  0  0  0  0  0
    1.9628    2.5019    0.0000 N    0  0  0  0  0  0  0  0  0  0  0  0
    1.2132    2.0868    0.0000 C    0  0  0  0  0  0  0  0  0  0  0  0
    0.5176    2.5019    0.0000 C    0  0  0  0  0  0  0  0  0  0  0  0
    4.7882   -0.0054    0.0000 C    0  0  0  0  0  0  0  0  0  0  0  0
    4.7882   -0.8412    0.0000 C    0  0  0  0  0  0  0  0  0  0  0  0
    2.6584    2.0868    0.0000 C    0  0  0  0  0  0  0  0  0  0  0  0
   -1.5529    1.2887    0.0000 O    0  0  0  0  0  0  0  0  0  0  0  0
   -0.8843    0.1240    0.0000 O    0  0  0  0  0  0  0  0  0  0  0  0
    5.5054    2.0652    0.0000 C    0  0  0  0  0  0  0  0  0  0  0  0
    0.5176    0.8681    0.0000 C    0  0  0  0  0  0  0  0  0  0  0  0
    1.2132    1.2887    0.0000 C    0  0  0  0  0  0  0  0  0  0  0  0
    2.6584    1.2563    0.0000 O    0  0  0  0  0  0  0  0  0  0  0  0
    6.2118    2.4534    0.0000 O    0  0  0  0  0  0  0  0  0  0  0  0
    0.5015    2.9549    0.0000 Cl   0  0  0  0  0  0  0  0  0  0  0  0
    5.4838    1.2294    0.0000 O    0  0  0  0  0  0  0  0  0  0  0  0
    4.7882    0.8196    0.0000 C    0  0  0  0  0  0  0  0  0  0  0  0
    3.3863    2.4750    0.0000 C    0  0  0  0  0  0  0  0  0  0  0  0
    4.7882    2.4750    0.0000 C    0  0  0  0  0  0  0  0  0  0  0  0
    4.0819    2.0652    0.0000 C    0  0  0  0  0  0  0  0  0  0  0  0
  2  1  1  0  0  0  0
  3  2  2  0  0  0  0
  4  5  1  0  0  0  0
  5 14  1  0  0  0  0
  6  3  1  0  0  0  0
  6  5  2  0  0  0  0
  7 19  1  0  0  0  0
  8  7  3  0  0  0  0
  9  4  1  0  0  0  0
 10  1  1  0  0  0  0
 11  1  2  0  0  0  0
 12 21  1  0  0  0  0
 13  2  1  0  0  0  0
 14 13  2  0  0  0  0
 15  9  2  0  0  0  0
 16 12  2  0  0  0  0
 17  6  1  0  0  0  0
 18 12  1  0  0  0  0
 19 18  1  0  0  0  0
 20  9  1  0  0  0  0
 21 22  1  0  0  0  0
 22 20  1  0  0  0  0
M  END
> <CdId>
649

> <Mol Weight>
324.716

> <Formula>
C14H13ClN2O5

> <Click_ID>
CLK009_F04 __ __ 

$$$$
