CLK013_B02
 OpenBabel03181410512D

 28 30  0  0  0  0  0  0  0  0999 V2000
    5.3527   -1.3767    0.0000 N   0  0  0  0  0  0  0  0  0  0  0  0
    5.2196   -2.1960    0.0000 C   0  0  0  0  0  0  0  0  0  0  0  0
    4.6165   -1.0024    0.0000 C   0  0  0  0  0  0  0  0  0  0  0  0
    4.0301   -1.5846    0.0000 C   0  0  0  0  0  0  0  0  0  0  0  0
    4.4044   -2.3207    0.0000 S   0  0  0  0  0  0  0  0  0  0  0  0
    3.2108   -1.4515    0.0000 C   0  0  0  0  0  0  0  0  0  0  0  0
    6.0888   -1.0024    0.0000 C   0  0  0  0  0  0  0  0  0  0  0  0
    0.9150   -5.4317    0.0000 C   0  0  0  0  0  0  0  0  0  0  0  0
    0.3910   -6.0681    0.0000 C   0  0  0  0  0  0  0  0  0  0  0  0
    5.8019   -2.7741    0.0000 O   0  0  0  0  0  0  0  0  0  0  0  0
    1.3517   -2.5994    0.0000 C   0  0  0  0  0  0  0  0  0  0  0  0
    4.4835   -0.1872    0.0000 O   0  0  0  0  0  0  0  0  0  0  0  0
    2.6951   -2.0879    0.0000 C   0  0  0  0  0  0  0  0  0  0  0  0
    1.8758   -1.9631    0.0000 C   0  0  0  0  0  0  0  0  0  0  0  0
    1.6512   -3.3730    0.0000 C   0  0  0  0  0  0  0  0  0  0  0  0
    2.4622   -3.5061    0.0000 C   0  0  0  0  0  0  0  0  0  0  0  0
    6.7751   -1.4515    0.0000 C   0  0  0  0  0  0  0  0  0  0  0  0
    2.9862   -2.8614    0.0000 C   0  0  0  0  0  0  0  0  0  0  0  0
    8.1476   -2.3582    0.0000 C   0  0  0  0  0  0  0  0  0  0  0  0
    0.5407   -2.4747    0.0000 O   0  0  0  0  0  0  0  0  0  0  0  0
    8.8380   -2.8115    0.0000 F   0  0  0  0  0  0  0  0  0  0  0  0
    1.1271   -4.0218    0.0000 O   0  0  0  0  0  0  0  0  0  0  0  0
    6.7252   -2.2750    0.0000 C   0  0  0  0  0  0  0  0  0  0  0  0
    7.5029   -1.0772    0.0000 C   0  0  0  0  0  0  0  0  0  0  0  0
    7.4114   -2.7242    0.0000 C   0  0  0  0  0  0  0  0  0  0  0  0
    8.1975   -1.5347    0.0000 C   0  0  0  0  0  0  0  0  0  0  0  0
    1.4266   -4.7829    0.0000 C   0  0  0  0  0  0  0  0  0  0  0  0
    0.0167   -3.1193    0.0000 C   0  0  0  0  0  0  0  0  0  0  0  0
  2  1  1  0  0  0  0
  3  1  1  0  0  0  0
  4  3  1  0  0  0  0
  5  2  1  0  0  0  0
  5  4  1  0  0  0  0
  6  4  2  0  0  0  0
  7  1  1  0  0  0  0
  8 27  1  0  0  0  0
  9  8  3  0  0  0  0
 10  2  2  0  0  0  0
 11 14  1  0  0  0  0
 11 15  2  0  0  0  0
 12  3  2  0  0  0  0
 13  6  1  0  0  0  0
 14 13  2  0  0  0  0
 15 16  1  0  0  0  0
 16 18  2  0  0  0  0
 17  7  1  0  0  0  0
 18 13  1  0  0  0  0
 19 26  1  0  0  0  0
 19 25  2  0  0  0  0
 20 11  1  0  0  0  0
 21 19  1  0  0  0  0
 22 15  1  0  0  0  0
 23 17  2  0  0  0  0
 24 17  1  0  0  0  0
 25 23  1  0  0  0  0
 26 24  2  0  0  0  0
 27 22  1  0  0  0  0
 28 20  1  0  0  0  0
M  END
> <CdId>
927

> <Mol Weight>
397.419

> <Formula>
C21H16FNO4S

> <Click_ID>
CLK013_B02 __ __ 

$$$$
