CLK007_C09
 OpenBabel03181410512D

 23 25  0  0  0  0  0  0  0  0999 V2000
   -1.7687   -0.1067    0.0000 C   0  0  0  0  0  0  0  0  0  0  0  0
   -0.9841   -0.3613    0.0000 N   0  0  0  0  0  0  0  0  0  0  0  0
   -1.7687    0.7192    0.0000 C   0  0  0  0  0  0  0  0  0  0  0  0
   -2.4844   -0.5196    0.0000 C   0  0  0  0  0  0  0  0  0  0  0  0
   -0.4989    0.3096    0.0000 C   0  0  0  0  0  0  0  0  0  0  0  0
   -0.7261   -1.1459    0.0000 C   0  0  0  0  0  0  0  0  0  0  0  0
   -0.9841    0.9772    0.0000 N   0  0  0  0  0  0  0  0  0  0  0  0
   -2.4844    1.1321    0.0000 C   0  0  0  0  0  0  0  0  0  0  0  0
   -3.1966   -0.1067    0.0000 C   0  0  0  0  0  0  0  0  0  0  0  0
    0.3269    0.3096    0.0000 C   0  0  0  0  0  0  0  0  0  0  0  0
   -1.2801   -1.7584    0.0000 C   0  0  0  0  0  0  0  0  0  0  0  0
   -3.1966    0.7157    0.0000 C   0  0  0  0  0  0  0  0  0  0  0  0
    0.7363   -0.4060    0.0000 O   0  0  0  0  0  0  0  0  0  0  0  0
   -1.0254   -2.5394    0.0000 C   0  0  0  0  0  0  0  0  0  0  0  0
    1.5588   -0.4025    0.0000 C   0  0  0  0  0  0  0  0  0  0  0  0
    1.9682    0.3096    0.0000 C   0  0  0  0  0  0  0  0  0  0  0  0
    1.9717   -1.1183    0.0000 C   0  0  0  0  0  0  0  0  0  0  0  0
    2.7872    0.3131    0.0000 C   0  0  0  0  0  0  0  0  0  0  0  0
    1.5519    1.0185    0.0000 C   0  0  0  0  0  0  0  0  0  0  0  0
    2.7907   -1.1183    0.0000 C   0  0  0  0  0  0  0  0  0  0  0  0
    3.2070   -0.4025    0.0000 C   0  0  0  0  0  0  0  0  0  0  0  0
    1.9580    1.7342    0.0000 C   0  0  0  0  0  0  0  0  0  0  0  0
    1.5450    2.4465    0.0000 C   0  0  0  0  0  0  0  0  0  0  0  0
  1  2  1  0  0  0  0
  1  3  1  0  0  0  0
  1  4  2  0  0  0  0
  2  5  1  0  0  0  0
  2  6  1  0  0  0  0
  3  7  1  0  0  0  0
  3  8  2  0  0  0  0
  4  9  1  0  0  0  0
  5 10  1  0  0  0  0
  5  7  2  0  0  0  0
  6 11  1  0  0  0  0
  8 12  1  0  0  0  0
  9 12  2  0  0  0  0
 10 13  1  0  0  0  0
 11 14  3  0  0  0  0
 13 15  1  0  0  0  0
 15 16  1  0  0  0  0
 15 17  2  0  0  0  0
 16 18  2  0  0  0  0
 16 19  1  0  0  0  0
 17 20  1  0  0  0  0
 18 21  1  0  0  0  0
 19 22  1  0  0  0  0
 20 21  2  0  0  0  0
 22 23  2  0  0  0  0
M  END
> <CdId>
508

> <Mol Weight>
302.3697

> <Formula>
C20H18N2O

> <Click_ID>
CLK007_C09 __ __ 

$$$$
