CLK002_D11
 OpenBabel03181410512D

 24 25  0  0  0  0  0  0  0  0999 V2000
    1.3389    0.2579    0.0000 C    0  0  0  0  0  0  0  0  0  0  0  0
    1.3389   -0.5689    0.0000 C    0  0  0  0  0  0  0  0  0  0  0  0
    0.6259    0.6713    0.0000 C    0  0  0  0  0  0  0  0  0  0  0  0
    2.0558    0.6713    0.0000 O    0  0  0  0  0  0  0  0  0  0  0  0
    0.6259   -0.9786    0.0000 C    0  0  0  0  0  0  0  0  0  0  0  0
    2.0558   -0.9786    0.0000 O    0  0  0  0  0  0  0  0  0  0  0  0
   -0.0911    0.2579    0.0000 C    0  0  0  0  0  0  0  0  0  0  0  0
    0.6259    1.4944    0.0000 Cl   0  0  0  0  0  0  0  0  0  0  0  0
    2.0558    1.4944    0.0000 C    0  0  0  0  0  0  0  0  0  0  0  0
   -0.0911   -0.5689    0.0000 C    0  0  0  0  0  0  0  0  0  0  0  0
    2.0558   -1.8055    0.0000 C    0  0  0  0  0  0  0  0  0  0  0  0
    2.7688    1.9079    0.0000 C    0  0  0  0  0  0  0  0  0  0  0  0
   -0.8041   -0.9786    0.0000 C    0  0  0  0  0  0  0  0  0  0  0  0
    2.7688   -2.2189    0.0000 C    0  0  0  0  0  0  0  0  0  0  0  0
    2.7688    2.7310    0.0000 C    0  0  0  0  0  0  0  0  0  0  0  0
   -1.5210   -0.5689    0.0000 C    0  0  0  0  0  0  0  0  0  0  0  0
   -1.5210    0.2579    0.0000 C    0  0  0  0  0  0  0  0  0  0  0  0
   -2.2340   -0.9786    0.0000 C    0  0  0  0  0  0  0  0  0  0  0  0
   -2.2340    0.6713    0.0000 N    0  0  0  0  0  0  0  0  0  0  0  0
   -0.8041    0.6713    0.0000 O    0  0  0  0  0  0  0  0  0  0  0  0
   -2.9510   -0.5689    0.0000 N    0  0  0  0  0  0  0  0  0  0  0  0
   -2.2340   -1.8055    0.0000 O    0  0  0  0  0  0  0  0  0  0  0  0
   -2.9510    0.2579    0.0000 C    0  0  0  0  0  0  0  0  0  0  0  0
   -3.6640    0.6713    0.0000 O    0  0  0  0  0  0  0  0  0  0  0  0
  1  2  1  0  0  0  0
  1  3  2  0  0  0  0
  1  4  1  0  0  0  0
  2  5  2  0  0  0  0
  2  6  1  0  0  0  0
  3  7  1  0  0  0  0
  3  8  1  0  0  0  0
  4  9  1  0  0  0  0
  5 10  1  0  0  0  0
  6 11  1  0  0  0  0
  7 10  2  0  0  0  0
  9 12  1  0  0  0  0
 10 13  1  0  0  0  0
 11 14  1  0  0  0  0
 12 15  3  0  0  0  0
 13 16  2  0  0  0  0
 16 17  1  0  0  0  0
 16 18  1  0  0  0  0
 17 19  1  0  0  0  0
 17 20  2  0  0  0  0
 18 21  1  0  0  0  0
 18 22  2  0  0  0  0
 19 23  1  0  0  0  0
 21 23  1  0  0  0  0
 23 24  2  0  0  0  0
M  END
> <CdId>
120

> <Mol Weight>
348.738

> <Formula>
C16H13ClN2O5

> <Click_ID>
CLK002_D11 __ __ 

$$$$
