CLK041C08
 OpenBabel03181410512D

 25 26  0  0  0  0  0  0  0  0999 V2000
    1.7989   -0.0250    0.0000 N   0  0  0  0  0  0  0  0  0  0  0  0
    1.1311   -0.5134    0.0000 C   0  0  0  0  0  0  0  0  0  0  0  0
    1.3857   -1.2980    0.0000 N   0  0  0  0  0  0  0  0  0  0  0  0
    2.4667   -0.5134    0.0000 N   0  0  0  0  0  0  0  0  0  0  0  0
    2.2121   -1.2980    0.0000 N   0  0  0  0  0  0  0  0  0  0  0  0
    1.7989    0.8014    0.0000 C   0  0  0  0  0  0  0  0  0  0  0  0
    0.3423   -0.2546    0.0000 S   0  0  0  0  0  0  0  0  0  0  0  0
   -3.2431   -0.5968    0.0000 C   0  0  0  0  0  0  0  0  0  0  0  0
   -4.0277   -0.3423    0.0000 C   0  0  0  0  0  0  0  0  0  0  0  0
   -1.0560   -0.5552    0.0000 C   0  0  0  0  0  0  0  0  0  0  0  0
   -1.6696   -1.1061    0.0000 N   0  0  0  0  0  0  0  0  0  0  0  0
   -2.4542   -0.8515    0.0000 C   0  0  0  0  0  0  0  0  0  0  0  0
    2.5126    1.2146    0.0000 C   0  0  0  0  0  0  0  0  0  0  0  0
    1.0811    1.2146    0.0000 C   0  0  0  0  0  0  0  0  0  0  0  0
   -1.2271    0.2546    0.0000 O   0  0  0  0  0  0  0  0  0  0  0  0
   -0.2713   -0.8097    0.0000 C   0  0  0  0  0  0  0  0  0  0  0  0
    1.7989    2.4542    0.0000 C   0  0  0  0  0  0  0  0  0  0  0  0
    1.0811    2.0410    0.0000 C   0  0  0  0  0  0  0  0  0  0  0  0
    2.5126    2.0410    0.0000 C   0  0  0  0  0  0  0  0  0  0  0  0
   -2.7130   -1.6361    0.0000 C   0  0  0  0  0  0  0  0  0  0  0  0
   -2.1996   -0.0668    0.0000 C   0  0  0  0  0  0  0  0  0  0  0  0
    3.2306    0.8014    0.0000 C   0  0  0  0  0  0  0  0  0  0  0  0
    0.3673    0.8014    0.0000 C   0  0  0  0  0  0  0  0  0  0  0  0
   -3.5186   -1.8073    0.0000 C   0  0  0  0  0  0  0  0  0  0  0  0
   -1.3941    0.1044    0.0000 C   0  0  0  0  0  0  0  0  0  0  0  0
  2  1  1  0  0  0  0
  3  2  2  0  0  0  0
  4  1  1  0  0  0  0
  5  4  2  0  0  0  0
  5  3  1  0  0  0  0
  6  1  1  0  0  0  0
  7  2  1  0  0  0  0
  8 12  1  0  0  0  0
  9  8  3  0  0  0  0
 10 16  1  0  0  0  0
 11 10  1  0  0  0  0
 12 11  1  0  0  0  0
 13  6  1  0  0  0  0
 14  6  2  0  0  0  0
 15 10  2  0  0  0  0
 16  7  1  0  0  0  0
 17 18  2  0  0  0  0
 17 19  1  0  0  0  0
 18 14  1  0  0  0  0
 19 13  2  0  0  0  0
 20 12  1  0  0  0  0
 21 12  1  0  0  0  0
 22 13  1  0  0  0  0
 23 14  1  0  0  0  0
 24 20  1  0  0  0  0
 25 21  1  0  0  0  0
M  END
> <CdId>
3139

> <Mol Weight>
357.473

> <Formula>
C18H23N5OS

> <Click_ID>
CLK041C08 __ __ 

$$$$
