CLK039G06
 OpenBabel03181410512D

 21 23  0  0  0  0  0  0  0  0999 V2000
   -0.8667   -0.4250    0.0000 C   0  0  0  0  0  0  0  0  0  0  0  0
   -0.8667   -1.2500    0.0000 C   0  0  0  0  0  0  0  0  0  0  0  0
   -0.1542   -0.0125    0.0000 N   0  0  0  0  0  0  0  0  0  0  0  0
   -0.1542   -1.6625    0.0000 N   0  0  0  0  0  0  0  0  0  0  0  0
   -1.6500   -0.1667    0.0000 N   0  0  0  0  0  0  0  0  0  0  0  0
    0.5625   -0.4250    0.0000 C   0  0  0  0  0  0  0  0  0  0  0  0
   -1.6500   -1.5042    0.0000 C   0  0  0  0  0  0  0  0  0  0  0  0
    0.5625   -1.2500    0.0000 N   0  0  0  0  0  0  0  0  0  0  0  0
   -2.1375   -0.8375    0.0000 C   0  0  0  0  0  0  0  0  0  0  0  0
    2.7042    3.2875    0.0000 C   0  0  0  0  0  0  0  0  0  0  0  0
    2.7042    4.1083    0.0000 C   0  0  0  0  0  0  0  0  0  0  0  0
    1.2750   -0.0125    0.0000 S   0  0  0  0  0  0  0  0  0  0  0  0
    1.9917    1.2250    0.0000 C   0  0  0  0  0  0  0  0  0  0  0  0
    2.7042    0.8125    0.0000 O   0  0  0  0  0  0  0  0  0  0  0  0
    1.2750    0.8125    0.0000 C   0  0  0  0  0  0  0  0  0  0  0  0
    1.9917    2.0500    0.0000 N   0  0  0  0  0  0  0  0  0  0  0  0
   -1.9875   -2.2583    0.0000 C   0  0  0  0  0  0  0  0  0  0  0  0
    2.7042    2.4625    0.0000 C   0  0  0  0  0  0  0  0  0  0  0  0
   -2.9583   -0.9208    0.0000 C   0  0  0  0  0  0  0  0  0  0  0  0
   -2.8083   -2.3417    0.0000 C   0  0  0  0  0  0  0  0  0  0  0  0
   -3.2917   -1.6750    0.0000 C   0  0  0  0  0  0  0  0  0  0  0  0
  2  1  1  0  0  0  0
  3  1  1  0  0  0  0
  4  2  2  0  0  0  0
  5  1  2  0  0  0  0
  6  3  2  0  0  0  0
  7  2  1  0  0  0  0
  7  9  2  0  0  0  0
  8  4  1  0  0  0  0
  8  6  1  0  0  0  0
  9  5  1  0  0  0  0
 10 18  1  0  0  0  0
 11 10  3  0  0  0  0
 12  6  1  0  0  0  0
 13 15  1  0  0  0  0
 14 13  2  0  0  0  0
 15 12  1  0  0  0  0
 16 13  1  0  0  0  0
 17  7  1  0  0  0  0
 18 16  1  0  0  0  0
 19  9  1  0  0  0  0
 20 17  2  0  0  0  0
 20 21  1  0  0  0  0
 21 19  2  0  0  0  0
M  END
> <CdId>
2967

> <Mol Weight>
297.335

> <Formula>
C14H11N5OS

> <Click_ID>
CLK039G06 __ __ 

$$$$
