CLK033_B10
 OpenBabel03181410512D

 28 30  0  0  0  0  0  0  0  0999 V2000
   -4.5776    2.5468    0.0000 C    0  0  0  0  0  0  0  0  0  0  0  0
   -0.9946    5.4433    0.0000 S    0  0  0  0  0  0  0  0  0  0  0  0
   -3.8660    2.9671    0.0000 N    0  0  0  0  0  0  0  0  0  0  0  0
   -4.6692    1.7312    0.0000 N    0  0  0  0  0  0  0  0  0  0  0  0
   -5.3142    2.8922    0.0000 S    0  0  0  0  0  0  0  0  0  0  0  0
   -5.4765    1.5689    0.0000 C    0  0  0  0  0  0  0  0  0  0  0  0
   -5.8760    2.2930    0.0000 C    0  0  0  0  0  0  0  0  0  0  0  0
   -3.8660    3.7953    0.0000 C    0  0  0  0  0  0  0  0  0  0  0  0
   -1.7104    5.0230    0.0000 C    0  0  0  0  0  0  0  0  0  0  0  0
   -0.2705    5.8470    0.0000 N    0  0  0  0  0  0  0  0  0  0  0  0
   -4.2405    0.3496    0.0000 C    0  0  0  0  0  0  0  0  0  0  0  0
   -0.5826    4.7233    0.0000 O    0  0  0  0  0  0  0  0  0  0  0  0
   -1.4066    6.1591    0.0000 O    0  0  0  0  0  0  0  0  0  0  0  0
   -4.4153   -0.4536    0.0000 C    0  0  0  0  0  0  0  0  0  0  0  0
   -3.1544    4.2073    0.0000 C    0  0  0  0  0  0  0  0  0  0  0  0
   -5.9010    0.8697    0.0000 C    0  0  0  0  0  0  0  0  0  0  0  0
   -4.5901    4.2073    0.0000 O    0  0  0  0  0  0  0  0  0  0  0  0
   -4.0533    1.1569    0.0000 C    0  0  0  0  0  0  0  0  0  0  0  0
   -1.7229    4.1990    0.0000 C    0  0  0  0  0  0  0  0  0  0  0  0
   -2.4345    5.4433    0.0000 C    0  0  0  0  0  0  0  0  0  0  0  0
   -2.4345    3.8036    0.0000 C    0  0  0  0  0  0  0  0  0  0  0  0
   -3.1461    5.0355    0.0000 C    0  0  0  0  0  0  0  0  0  0  0  0
   -5.5015    0.1456    0.0000 Cl   0  0  0  0  0  0  0  0  0  0  0  0
   -6.6959    2.3054    0.0000 C    0  0  0  0  0  0  0  0  0  0  0  0
   -7.1204    1.5980    0.0000 C    0  0  0  0  0  0  0  0  0  0  0  0
    0.4370    5.4474    0.0000 C    0  0  0  0  0  0  0  0  0  0  0  0
   -0.2747    6.6834    0.0000 C    0  0  0  0  0  0  0  0  0  0  0  0
   -6.7084    0.8739    0.0000 C    0  0  0  0  0  0  0  0  0  0  0  0
  2  9  1  0  0  0  0
  3  1  2  0  0  0  0
  4  1  1  0  0  0  0
  5  1  1  0  0  0  0
  6  4  1  0  0  0  0
  7  5  1  0  0  0  0
  7  6  2  0  0  0  0
  8  3  1  0  0  0  0
  9 20  1  0  0  0  0
  9 19  2  0  0  0  0
 10  2  1  0  0  0  0
 11 18  1  0  0  0  0
 12  2  2  0  0  0  0
 13  2  2  0  0  0  0
 14 11  3  0  0  0  0
 15  8  1  0  0  0  0
 16  6  1  0  0  0  0
 17  8  2  0  0  0  0
 18  4  1  0  0  0  0
 19 21  1  0  0  0  0
 20 22  2  0  0  0  0
 21 15  2  0  0  0  0
 22 15  1  0  0  0  0
 23 16  1  0  0  0  0
 24  7  1  0  0  0  0
 25 24  2  0  0  0  0
 26 10  1  0  0  0  0
 27 10  1  0  0  0  0
 28 16  2  0  0  0  0
 28 25  1  0  0  0  0
M  END
> <CdId>
2504

> <Mol Weight>
433.932

> <Formula>
C19H16ClN3O3S2

> <Click_ID>
CLK033_B10 __ __ 

$$$$
