CLK010_B11
 OpenBabel03181410512D

 19 20  0  0  0  0  0  0  0  0999 V2000
    2.7133    0.4515    0.0000 N   0  0  0  0  0  0  0  0  0  0  0  0
    2.4499   -0.3386    0.0000 C   0  0  0  0  0  0  0  0  0  0  0  0
    2.0444    0.9364    0.0000 C   0  0  0  0  0  0  0  0  0  0  0  0
    1.3713    0.4515    0.0000 C   0  0  0  0  0  0  0  0  0  0  0  0
    1.6305   -0.3386    0.0000 S   0  0  0  0  0  0  0  0  0  0  0  0
    0.5895    0.7107    0.0000 C   0  0  0  0  0  0  0  0  0  0  0  0
   -3.2818   -1.7601    0.0000 C   0  0  0  0  0  0  0  0  0  0  0  0
   -3.8964   -2.3120    0.0000 C   0  0  0  0  0  0  0  0  0  0  0  0
    2.9391   -1.0076    0.0000 O   0  0  0  0  0  0  0  0  0  0  0  0
    2.0360    1.7642    0.0000 O   0  0  0  0  0  0  0  0  0  0  0  0
   -0.0251    0.1588    0.0000 C   0  0  0  0  0  0  0  0  0  0  0  0
    3.5035    0.7107    0.0000 C   0  0  0  0  0  0  0  0  0  0  0  0
   -1.2542   -0.9407    0.0000 C   0  0  0  0  0  0  0  0  0  0  0  0
   -0.8110    0.4097    0.0000 C   0  0  0  0  0  0  0  0  0  0  0  0
    0.1422   -0.6564    0.0000 C   0  0  0  0  0  0  0  0  0  0  0  0
   -0.4766   -1.1957    0.0000 C   0  0  0  0  0  0  0  0  0  0  0  0
   -1.4256   -0.1380    0.0000 C   0  0  0  0  0  0  0  0  0  0  0  0
   -2.6589   -1.2208    0.0000 C   0  0  0  0  0  0  0  0  0  0  0  0
   -1.8771   -1.4842    0.0000 O   0  0  0  0  0  0  0  0  0  0  0  0
  2  1  1  0  0  0  0
  3  1  1  0  0  0  0
  4  3  1  0  0  0  0
  5  2  1  0  0  0  0
  5  4  1  0  0  0  0
  6  4  2  0  0  0  0
  7 18  1  0  0  0  0
  8  7  3  0  0  0  0
  9  2  2  0  0  0  0
 10  3  2  0  0  0  0
 11  6  1  0  0  0  0
 12  1  1  0  0  0  0
 13 16  2  0  0  0  0
 13 17  1  0  0  0  0
 14 11  1  0  0  0  0
 15 11  2  0  0  0  0
 16 15  1  0  0  0  0
 17 14  2  0  0  0  0
 18 19  1  0  0  0  0
 19 13  1  0  0  0  0
M  END
> <CdId>
696

> <Mol Weight>
273.307

> <Formula>
C14H11NO3S

> <Click_ID>
CLK010_B11 __ __ 

$$$$
