CLK046H10
 OpenBabel03181410512D

 16 16  0  0  0  0  0  0  0  0999 V2000
    1.2042   -1.7750    0.0000 N   0  0  0  0  0  0  0  0  0  0  0  0
    1.2042   -2.6000    0.0000 C   0  0  0  0  0  0  0  0  0  0  0  0
    0.4875   -1.3625    0.0000 C   0  0  0  0  0  0  0  0  0  0  0  0
   -1.6542    2.3500    0.0000 C   0  0  0  0  0  0  0  0  0  0  0  0
   -2.3708    2.7625    0.0000 C   0  0  0  0  0  0  0  0  0  0  0  0
    1.9167   -3.0125    0.0000 O   0  0  0  0  0  0  0  0  0  0  0  0
   -0.2250   -0.1250    0.0000 N   0  0  0  0  0  0  0  0  0  0  0  0
   -0.2250   -1.7750    0.0000 O   0  0  0  0  0  0  0  0  0  0  0  0
    0.4875   -3.0125    0.0000 N   0  0  0  0  0  0  0  0  0  0  0  0
   -0.9417    1.9375    0.0000 C   0  0  0  0  0  0  0  0  0  0  0  0
    0.4875   -0.5375    0.0000 C   0  0  0  0  0  0  0  0  0  0  0  0
   -0.2250    0.7000    0.0000 C   0  0  0  0  0  0  0  0  0  0  0  0
   -0.9417    1.1125    0.0000 C   0  0  0  0  0  0  0  0  0  0  0  0
    0.4875    1.9375    0.0000 C   0  0  0  0  0  0  0  0  0  0  0  0
   -0.2250    2.3500    0.0000 C   0  0  0  0  0  0  0  0  0  0  0  0
    0.4875    1.1125    0.0000 C   0  0  0  0  0  0  0  0  0  0  0  0
  2  1  1  0  0  0  0
  3  1  1  0  0  0  0
  4 10  1  0  0  0  0
  5  4  3  0  0  0  0
  6  2  2  0  0  0  0
  7 11  1  0  0  0  0
  8  3  2  0  0  0  0
  9  2  1  0  0  0  0
 10 13  1  0  0  0  0
 11  3  1  0  0  0  0
 12  7  1  0  0  0  0
 13 12  2  0  0  0  0
 14 16  2  0  0  0  0
 15 10  2  0  0  0  0
 15 14  1  0  0  0  0
 16 12  1  0  0  0  0
M  END
> <CdId>
3560

> <Mol Weight>
217.2239

> <Formula>
C11H11N3O2

> <Click_ID>
CLK046H10 __ __ 

$$$$
