CLK012_G09
 OpenBabel03181410512D

 28 30  0  0  0  0  0  0  0  0999 V2000
    1.5629   -0.8147    0.0000 N   0  0  0  0  0  0  0  0  0  0  0  0
    1.8205   -1.6003    0.0000 C   0  0  0  0  0  0  0  0  0  0  0  0
    2.2320   -0.3284    0.0000 C   0  0  0  0  0  0  0  0  0  0  0  0
    2.8971   -0.8147    0.0000 C   0  0  0  0  0  0  0  0  0  0  0  0
    2.6435   -1.6003    0.0000 S   0  0  0  0  0  0  0  0  0  0  0  0
    3.6827   -0.5611    0.0000 C   0  0  0  0  0  0  0  0  0  0  0  0
    0.6110    0.2452    0.0000 C   0  0  0  0  0  0  0  0  0  0  0  0
    0.3907    1.0432    0.0000 C   0  0  0  0  0  0  0  0  0  0  0  0
    1.3342   -2.2611    0.0000 O   0  0  0  0  0  0  0  0  0  0  0  0
    3.4166    1.6168    0.0000 C   0  0  0  0  0  0  0  0  0  0  0  0
    2.2237    0.4946    0.0000 O   0  0  0  0  0  0  0  0  0  0  0  0
    4.2064    1.8579    0.0000 C   0  0  0  0  0  0  0  0  0  0  0  0
    3.8530    0.2494    0.0000 C   0  0  0  0  0  0  0  0  0  0  0  0
    0.7856   -0.5611    0.0000 C   0  0  0  0  0  0  0  0  0  0  0  0
    3.2462    0.8063    0.0000 C   0  0  0  0  0  0  0  0  0  0  0  0
    4.3934    2.6643    0.0000 O   0  0  0  0  0  0  0  0  0  0  0  0
    4.8049    1.3051    0.0000 C   0  0  0  0  0  0  0  0  0  0  0  0
    4.6303    0.4946    0.0000 C   0  0  0  0  0  0  0  0  0  0  0  0
    5.1665    2.9136    0.0000 C   0  0  0  0  0  0  0  0  0  0  0  0
    5.3535    3.7241    0.0000 C   0  0  0  0  0  0  0  0  0  0  0  0
    2.8223    2.1655    0.0000 O   0  0  0  0  0  0  0  0  0  0  0  0
    5.7152    5.3161    0.0000 C   0  0  0  0  0  0  0  0  0  0  0  0
    4.7425    4.2687    0.0000 C   0  0  0  0  0  0  0  0  0  0  0  0
    6.1391    3.9611    0.0000 C   0  0  0  0  0  0  0  0  0  0  0  0
    4.9296    5.0668    0.0000 C   0  0  0  0  0  0  0  0  0  0  0  0
    6.3262    4.7550    0.0000 C   0  0  0  0  0  0  0  0  0  0  0  0
    5.9022    6.1225    0.0000 C   0  0  0  0  0  0  0  0  0  0  0  0
    2.0367    1.9161    0.0000 C   0  0  0  0  0  0  0  0  0  0  0  0
  2  1  1  0  0  0  0
  3  1  1  0  0  0  0
  4  3  1  0  0  0  0
  4  5  1  0  0  0  0
  5  2  1  0  0  0  0
  6  4  2  0  0  0  0
  7 14  1  0  0  0  0
  8  7  3  0  0  0  0
  9  2  2  0  0  0  0
 10 15  1  0  0  0  0
 10 12  2  0  0  0  0
 11  3  2  0  0  0  0
 12 17  1  0  0  0  0
 13  6  1  0  0  0  0
 14  1  1  0  0  0  0
 15 13  2  0  0  0  0
 16 12  1  0  0  0  0
 17 18  2  0  0  0  0
 18 13  1  0  0  0  0
 19 16  1  0  0  0  0
 20 19  1  0  0  0  0
 21 10  1  0  0  0  0
 22 26  2  0  0  0  0
 23 20  1  0  0  0  0
 24 20  2  0  0  0  0
 25 23  2  0  0  0  0
 25 22  1  0  0  0  0
 26 24  1  0  0  0  0
 27 22  1  0  0  0  0
 28 21  1  0  0  0  0
M  END
> <CdId>
904

> <Mol Weight>
393.456

> <Formula>
C22H19NO4S

> <Click_ID>
CLK012_G09 __ __ 

$$$$
