CLK017_A10
 OpenBabel03181410512D

 25 26  0  0  0  0  0  0  0  0999 V2000
    4.1770   -3.5625    0.0000 N    0  0  0  0  0  0  0  0  0  0  0  0
    3.4670   -3.9735    0.0000 C    0  0  0  0  0  0  0  0  0  0  0  0
    4.0026   -2.7570    0.0000 C    0  0  0  0  0  0  0  0  0  0  0  0
    3.1888   -2.6698    0.0000 C    0  0  0  0  0  0  0  0  0  0  0  0
    2.8525   -3.4172    0.0000 S    0  0  0  0  0  0  0  0  0  0  0  0
    2.7695   -1.9598    0.0000 C    0  0  0  0  0  0  0  0  0  0  0  0
    0.2782   -1.9556    0.0000 C    0  0  0  0  0  0  0  0  0  0  0  0
    0.7017   -1.2332    0.0000 C    0  0  0  0  0  0  0  0  0  0  0  0
    0.7017   -2.6698    0.0000 C    0  0  0  0  0  0  0  0  0  0  0  0
    1.9432   -1.9598    0.0000 C    0  0  0  0  0  0  0  0  0  0  0  0
   -1.7771   -2.6781    0.0000 C    0  0  0  0  0  0  0  0  0  0  0  0
   -2.5992   -2.6698    0.0000 C    0  0  0  0  0  0  0  0  0  0  0  0
    3.3798   -4.7874    0.0000 O    0  0  0  0  0  0  0  0  0  0  0  0
    1.5321   -1.2332    0.0000 C    0  0  0  0  0  0  0  0  0  0  0  0
    4.5507   -2.1467    0.0000 O    0  0  0  0  0  0  0  0  0  0  0  0
    1.5321   -2.6698    0.0000 C    0  0  0  0  0  0  0  0  0  0  0  0
    4.9244   -3.8905    0.0000 C    0  0  0  0  0  0  0  0  0  0  0  0
    0.2907   -0.5232    0.0000 Br   0  0  0  0  0  0  0  0  0  0  0  0
   -0.5439   -1.9556    0.0000 O    0  0  0  0  0  0  0  0  0  0  0  0
    0.2907   -3.3798    0.0000 O    0  0  0  0  0  0  0  0  0  0  0  0
   -0.9549   -2.6698    0.0000 C    0  0  0  0  0  0  0  0  0  0  0  0
    0.7017   -4.1023    0.0000 C    0  0  0  0  0  0  0  0  0  0  0  0
    5.0116   -4.7126    0.0000 C    0  0  0  0  0  0  0  0  0  0  0  0
    5.7672   -5.0448    0.0000 C    0  0  0  0  0  0  0  0  0  0  0  0
    5.8462   -5.8586    0.0000 C    0  0  0  0  0  0  0  0  0  0  0  0
  2  1  1  0  0  0  0
  3  1  1  0  0  0  0
  4  3  1  0  0  0  0
  4  5  1  0  0  0  0
  5  2  1  0  0  0  0
  6  4  2  0  0  0  0
  7  9  1  0  0  0  0
  8 14  1  0  0  0  0
  8  7  2  0  0  0  0
  9 16  2  0  0  0  0
 10  6  1  0  0  0  0
 11 21  1  0  0  0  0
 12 11  3  0  0  0  0
 13  2  2  0  0  0  0
 14 10  2  0  0  0  0
 15  3  2  0  0  0  0
 16 10  1  0  0  0  0
 17  1  1  0  0  0  0
 18  8  1  0  0  0  0
 19  7  1  0  0  0  0
 20  9  1  0  0  0  0
 21 19  1  0  0  0  0
 22 20  1  0  0  0  0
 23 17  1  0  0  0  0
 24 23  1  0  0  0  0
 25 24  1  0  0  0  0
M  END
> <CdId>
1245

> <Mol Weight>
424.309

> <Formula>
C18H18BrNO4S

> <Click_ID>
CLK017_A10 __ __ 

$$$$
