CLK008_F04
 OpenBabel03181410512D

 22 24  0  0  0  0  0  0  0  0999 V2000
    0.3022   -1.8893    0.0000 C   0  0  0  0  0  0  0  0  0  0  0  0
    0.3091   -2.7205    0.0000 C   0  0  0  0  0  0  0  0  0  0  0  0
   -0.3332   -1.3878    0.0000 N   0  0  0  0  0  0  0  0  0  0  0  0
    0.9859   -1.4427    0.0000 O   0  0  0  0  0  0  0  0  0  0  0  0
   -0.3572   -3.2117    0.0000 C   0  0  0  0  0  0  0  0  0  0  0  0
    0.9824   -3.1980    0.0000 S   0  0  0  0  0  0  0  0  0  0  0  0
   -0.0378   -0.6148    0.0000 C   0  0  0  0  0  0  0  0  0  0  0  0
    0.7694   -0.6527    0.0000 C   0  0  0  0  0  0  0  0  0  0  0  0
   -0.0962   -3.9949    0.0000 C   0  0  0  0  0  0  0  0  0  0  0  0
    0.7248   -3.9880    0.0000 C   0  0  0  0  0  0  0  0  0  0  0  0
   -0.4947    0.0825    0.0000 C   0  0  0  0  0  0  0  0  0  0  0  0
    1.2813    0.0034    0.0000 O   0  0  0  0  0  0  0  0  0  0  0  0
   -0.1134    0.8141    0.0000 C   0  0  0  0  0  0  0  0  0  0  0  0
   -0.5702    1.5114    0.0000 C   0  0  0  0  0  0  0  0  0  0  0  0
    0.7007    0.8657    0.0000 C   0  0  0  0  0  0  0  0  0  0  0  0
   -0.1958    2.2465    0.0000 C   0  0  0  0  0  0  0  0  0  0  0  0
    1.0820    1.5972    0.0000 C   0  0  0  0  0  0  0  0  0  0  0  0
   -0.6458    2.9266    0.0000 O   0  0  0  0  0  0  0  0  0  0  0  0
    0.6252    2.2946    0.0000 C   0  0  0  0  0  0  0  0  0  0  0  0
   -1.4667    2.8855    0.0000 C   0  0  0  0  0  0  0  0  0  0  0  0
   -1.9133    3.5759    0.0000 C   0  0  0  0  0  0  0  0  0  0  0  0
   -1.5457    4.3006    0.0000 C   0  0  0  0  0  0  0  0  0  0  0  0
  1  2  1  0  0  0  0
  1  3  2  0  0  0  0
  1  4  1  0  0  0  0
  2  5  2  0  0  0  0
  2  6  1  0  0  0  0
  3  7  1  0  0  0  0
  4  8  1  0  0  0  0
  5  9  1  0  0  0  0
  6 10  1  0  0  0  0
  7 11  2  0  0  0  0
  7  8  1  0  0  0  0
  8 12  2  0  0  0  0
  9 10  2  0  0  0  0
 11 13  1  0  0  0  0
 13 14  1  0  0  0  0
 13 15  2  0  0  0  0
 14 16  2  0  0  0  0
 15 17  1  0  0  0  0
 16 18  1  0  0  0  0
 16 19  1  0  0  0  0
 17 19  2  0  0  0  0
 18 20  1  0  0  0  0
 20 21  1  0  0  0  0
 21 22  3  0  0  0  0
M  END
> <CdId>
587

> <Mol Weight>
309.339

> <Formula>
C17H11NO3S

> <Click_ID>
CLK008_F04 __ __ 

$$$$
