CLK034_H02
 OpenBabel03181410512D

 21 23  0  0  0  0  0  0  0  0999 V2000
   -4.5834    2.5514    0.0000 C   0  0  0  0  0  0  0  0  0  0  0  0
   -3.8521    2.9753    0.0000 N   0  0  0  0  0  0  0  0  0  0  0  0
   -4.6749    1.7286    0.0000 N   0  0  0  0  0  0  0  0  0  0  0  0
   -5.3065    2.8922    0.0000 S   0  0  0  0  0  0  0  0  0  0  0  0
   -3.8604    3.7898    0.0000 C   0  0  0  0  0  0  0  0  0  0  0  0
   -5.4810    1.5790    0.0000 C   0  0  0  0  0  0  0  0  0  0  0  0
   -5.8799    2.3021    0.0000 C   0  0  0  0  0  0  0  0  0  0  0  0
   -3.1498    4.2012    0.0000 C   0  0  0  0  0  0  0  0  0  0  0  0
   -4.2593    0.3573    0.0000 C   0  0  0  0  0  0  0  0  0  0  0  0
   -4.4463   -0.4530    0.0000 C   0  0  0  0  0  0  0  0  0  0  0  0
   -2.3935    3.8728    0.0000 O   0  0  0  0  0  0  0  0  0  0  0  0
   -4.5710    4.2012    0.0000 O   0  0  0  0  0  0  0  0  0  0  0  0
   -3.0625    5.0281    0.0000 C   0  0  0  0  0  0  0  0  0  0  0  0
   -5.9091    0.8809    0.0000 C   0  0  0  0  0  0  0  0  0  0  0  0
   -1.8408    4.4796    0.0000 C   0  0  0  0  0  0  0  0  0  0  0  0
   -4.0723    1.1594    0.0000 C   0  0  0  0  0  0  0  0  0  0  0  0
   -2.2522    5.1860    0.0000 C   0  0  0  0  0  0  0  0  0  0  0  0
   -6.6944    2.3270    0.0000 C   0  0  0  0  0  0  0  0  0  0  0  0
   -7.1225    1.6206    0.0000 C   0  0  0  0  0  0  0  0  0  0  0  0
   -6.7111    0.8934    0.0000 C   0  0  0  0  0  0  0  0  0  0  0  0
   -5.5184    0.1496    0.0000 C   0  0  0  0  0  0  0  0  0  0  0  0
  2  1  2  0  0  0  0
  3  1  1  0  0  0  0
  4  1  1  0  0  0  0
  5  2  1  0  0  0  0
  6  3  1  0  0  0  0
  7  4  1  0  0  0  0
  7  6  2  0  0  0  0
  8  5  1  0  0  0  0
  9 16  1  0  0  0  0
 10  9  3  0  0  0  0
 11  8  1  0  0  0  0
 12  5  2  0  0  0  0
 13  8  2  0  0  0  0
 14  6  1  0  0  0  0
 15 11  1  0  0  0  0
 15 17  2  0  0  0  0
 16  3  1  0  0  0  0
 17 13  1  0  0  0  0
 18  7  1  0  0  0  0
 19 18  2  0  0  0  0
 20 14  2  0  0  0  0
 20 19  1  0  0  0  0
 21 14  1  0  0  0  0
M  END
> <CdId>
2636

> <Mol Weight>
296.344

> <Formula>
C16H12N2O2S

> <Click_ID>
CLK034_H02 __ __ 

$$$$
