CLK042G07
 OpenBabel03181410512D

 20 21  0  0  0  0  0  0  0  0999 V2000
   -1.6033   -1.1494    0.0000 N   0  0  0  0  0  0  0  0  0  0  0  0
   -2.0864   -0.4830    0.0000 C   0  0  0  0  0  0  0  0  0  0  0  0
   -0.8163   -0.0708    0.0000 C   0  0  0  0  0  0  0  0  0  0  0  0
   -0.8163   -0.8953    0.0000 C   0  0  0  0  0  0  0  0  0  0  0  0
   -1.6033    0.1874    0.0000 S   0  0  0  0  0  0  0  0  0  0  0  0
   -0.1499    0.4165    0.0000 C   0  0  0  0  0  0  0  0  0  0  0  0
   -2.9109   -0.4830    0.0000 S   0  0  0  0  0  0  0  0  0  0  0  0
    0.6039    0.0792    0.0000 C   0  0  0  0  0  0  0  0  0  0  0  0
    1.7657    2.6902    0.0000 C   0  0  0  0  0  0  0  0  0  0  0  0
    1.6783    3.5106    0.0000 C   0  0  0  0  0  0  0  0  0  0  0  0
   -0.1499   -1.3784    0.0000 O   0  0  0  0  0  0  0  0  0  0  0  0
    1.2701    0.5664    0.0000 C   0  0  0  0  0  0  0  0  0  0  0  0
   -1.8573   -1.9322    0.0000 C   0  0  0  0  0  0  0  0  0  0  0  0
    1.1827    1.3867    0.0000 O   0  0  0  0  0  0  0  0  0  0  0  0
    1.8490    1.8698    0.0000 C   0  0  0  0  0  0  0  0  0  0  0  0
    0.6871   -0.7413    0.0000 C   0  0  0  0  0  0  0  0  0  0  0  0
    2.0239    0.2291    0.0000 C   0  0  0  0  0  0  0  0  0  0  0  0
   -2.6610   -2.1031    0.0000 C   0  0  0  0  0  0  0  0  0  0  0  0
    1.4409   -1.0744    0.0000 C   0  0  0  0  0  0  0  0  0  0  0  0
    2.1113   -0.5914    0.0000 C   0  0  0  0  0  0  0  0  0  0  0  0
  2  1  1  0  0  0  0
  3  4  1  0  0  0  0
  4  1  1  0  0  0  0
  5  2  1  0  0  0  0
  5  3  1  0  0  0  0
  6  3  2  0  0  0  0
  7  2  2  0  0  0  0
  8  6  1  0  0  0  0
  9 15  1  0  0  0  0
 10  9  3  0  0  0  0
 11  4  2  0  0  0  0
 12  8  2  0  0  0  0
 13  1  1  0  0  0  0
 14 12  1  0  0  0  0
 15 14  1  0  0  0  0
 16  8  1  0  0  0  0
 17 12  1  0  0  0  0
 18 13  1  0  0  0  0
 19 16  2  0  0  0  0
 20 17  2  0  0  0  0
 20 19  1  0  0  0  0
M  END
> <CdId>
3215

> <Mol Weight>
303.399

> <Formula>
C15H13NO2S2

> <Click_ID>
CLK042G07 __ __ 

$$$$
