CLK015_G11
 OpenBabel03181410512D

 24 25  0  0  0  0  0  0  0  0999 V2000
    1.5619   -0.8142    0.0000 N   0  0  0  0  0  0  0  0  0  0  0  0
    1.8195   -1.5993    0.0000 C   0  0  0  0  0  0  0  0  0  0  0  0
    2.2307   -0.3282    0.0000 C   0  0  0  0  0  0  0  0  0  0  0  0
    2.8954   -0.8142    0.0000 C   0  0  0  0  0  0  0  0  0  0  0  0
    2.6420   -1.5993    0.0000 S   0  0  0  0  0  0  0  0  0  0  0  0
    3.6805   -0.5608    0.0000 C   0  0  0  0  0  0  0  0  0  0  0  0
    4.1914    1.8651    0.0000 C   0  0  0  0  0  0  0  0  0  0  0  0
    0.6106    0.2451    0.0000 C   0  0  0  0  0  0  0  0  0  0  0  0
    0.3905    1.0426    0.0000 C   0  0  0  0  0  0  0  0  0  0  0  0
    3.4146    1.6076    0.0000 C   0  0  0  0  0  0  0  0  0  0  0  0
    1.3334   -2.2598    0.0000 O   0  0  0  0  0  0  0  0  0  0  0  0
    2.2224    0.4943    0.0000 O   0  0  0  0  0  0  0  0  0  0  0  0
    3.8425    0.2451    0.0000 C   0  0  0  0  0  0  0  0  0  0  0  0
    4.3617    2.6752    0.0000 O   0  0  0  0  0  0  0  0  0  0  0  0
    0.7851   -0.5608    0.0000 C   0  0  0  0  0  0  0  0  0  0  0  0
    3.2319    0.7934    0.0000 C   0  0  0  0  0  0  0  0  0  0  0  0
    4.8104    1.3085    0.0000 C   0  0  0  0  0  0  0  0  0  0  0  0
    4.6401    0.5068    0.0000 C   0  0  0  0  0  0  0  0  0  0  0  0
    2.8040    2.1642    0.0000 O   0  0  0  0  0  0  0  0  0  0  0  0
    5.1386    2.9244    0.0000 C   0  0  3  0  0  0  0  0  0  0  0  0
    2.0189    1.9067    0.0000 C   0  0  0  0  0  0  0  0  0  0  0  0
    5.3130    3.7344    0.0000 C   0  0  0  0  0  0  0  0  0  0  0  0
    5.7575    2.3761    0.0000 C   0  0  0  0  0  0  0  0  0  0  0  0
    4.7107    4.2787    0.0000 C   0  0  0  0  0  0  0  0  0  0  0  0
  2  1  1  0  0  0  0
  3  1  1  0  0  0  0
  4  3  1  0  0  0  0
  4  5  1  0  0  0  0
  5  2  1  0  0  0  0
  6  4  2  0  0  0  0
  7 17  1  0  0  0  0
  7 10  2  0  0  0  0
  8 15  1  0  0  0  0
  9  8  3  0  0  0  0
 10 16  1  0  0  0  0
 11  2  2  0  0  0  0
 12  3  2  0  0  0  0
 13  6  1  0  0  0  0
 14  7  1  0  0  0  0
 15  1  1  0  0  0  0
 16 13  2  0  0  0  0
 17 18  2  0  0  0  0
 18 13  1  0  0  0  0
 19 10  1  0  0  0  0
 20 14  1  0  0  0  0
 21 19  1  0  0  0  0
 22 20  1  0  0  0  0
 23 20  1  0  0  0  0
 24 22  1  0  0  0  0
M  END
> <CdId>
1146

> <Mol Weight>
345.413

> <Formula>
C18H19NO4S

> <Click_ID>
CLK015_G11 __ __ 

$$$$
