CLK019_H08
 OpenBabel03181410512D

 24 25  0  0  0  0  0  0  0  0999 V2000
   -0.2332   -4.6396    0.0000 N    0  0  0  0  0  0  0  0  0  0  0  0
   -1.4451   -1.0537    0.0000 C    0  0  0  0  0  0  0  0  0  0  0  0
   -1.8574   -1.7659    0.0000 C    0  0  0  0  0  0  0  0  0  0  0  0
   -0.6205   -1.0370    0.0000 C    0  0  0  0  0  0  0  0  0  0  0  0
   -2.6863   -1.7659    0.0000 C    0  0  0  0  0  0  0  0  0  0  0  0
   -3.5109   -1.7659    0.0000 N    0  0  0  0  0  0  0  0  0  0  0  0
   -0.6330   -3.9232    0.0000 C    0  0  0  0  0  0  0  0  0  0  0  0
   -0.7205    1.8200    0.0000 C    0  0  0  0  0  0  0  0  0  0  0  0
   -0.3331    2.5446    0.0000 C    0  0  0  0  0  0  0  0  0  0  0  0
   -0.6580   -5.3517    0.0000 O    0  0  0  0  0  0  0  0  0  0  0  0
   -1.4493   -2.4864    0.0000 C    0  0  0  0  0  0  0  0  0  0  0  0
    0.5914   -4.6521    0.0000 O    0  0  0  0  0  0  0  0  0  0  0  0
   -0.2332   -0.3041    0.0000 C    0  0  0  0  0  0  0  0  0  0  0  0
   -0.1874   -1.7284    0.0000 C    0  0  0  0  0  0  0  0  0  0  0  0
   -0.2207   -3.2110    0.0000 C    0  0  0  0  0  0  0  0  0  0  0  0
   -1.4618   -3.9149    0.0000 C    0  0  0  0  0  0  0  0  0  0  0  0
   -0.6205   -2.4906    0.0000 C    0  0  0  0  0  0  0  0  0  0  0  0
   -1.8699   -3.1985    0.0000 C    0  0  0  0  0  0  0  0  0  0  0  0
    0.5914   -0.2791    0.0000 C    0  0  0  0  0  0  0  0  0  0  0  0
    0.6372   -1.7117    0.0000 C    0  0  0  0  0  0  0  0  0  0  0  0
    1.0287   -0.9788    0.0000 C    0  0  0  0  0  0  0  0  0  0  0  0
    1.0662   -2.4156    0.0000 Br   0  0  0  0  0  0  0  0  0  0  0  0
   -0.6705    0.3956    0.0000 O    0  0  0  0  0  0  0  0  0  0  0  0
   -0.2832    1.1203    0.0000 C    0  0  0  0  0  0  0  0  0  0  0  0
  2  3  2  0  0  0  0
  3 11  1  0  0  0  0
  4  2  1  0  0  0  0
  5  3  1  0  0  0  0
  6  5  3  0  0  0  0
  7  1  1  0  0  0  0
  8 24  1  0  0  0  0
  9  8  3  0  0  0  0
 10  1  1  0  0  0  0
 11 18  2  0  0  0  0
 11 17  1  0  0  0  0
 12  1  2  0  0  0  0
 13  4  2  0  0  0  0
 14  4  1  0  0  0  0
 15  7  1  0  0  0  0
 16  7  2  0  0  0  0
 17 15  2  0  0  0  0
 18 16  1  0  0  0  0
 19 13  1  0  0  0  0
 19 21  2  0  0  0  0
 20 14  2  0  0  0  0
 21 20  1  0  0  0  0
 22 20  1  0  0  0  0
 23 13  1  0  0  0  0
 24 23  1  0  0  0  0
M  END
> <CdId>
1473

> <Mol Weight>
383.196

> <Formula>
C18H11BrN2O3

> <Click_ID>
CLK019_H08 __ __ 

$$$$
