CLK051D10
 OpenBabel03181410512D

 25 26  0  0  0  0  0  0  0  0999 V2000
    0.8250    0.0167    0.0000 C   0  0  0  0  0  0  0  0  0  0  0  0
    0.1125   -0.3958    0.0000 C   0  0  0  0  0  0  0  0  0  0  0  0
    0.8250    0.8417    0.0000 C   0  0  0  0  0  0  0  0  0  0  0  0
    0.1125    1.2542    0.0000 N   0  0  0  0  0  0  0  0  0  0  0  0
   -1.3167    4.5500    0.0000 C   0  0  0  0  0  0  0  0  0  0  0  0
    0.1125   -1.2208    0.0000 N   0  0  0  0  0  0  0  0  0  0  0  0
   -1.3167    5.3750    0.0000 C   0  0  0  0  0  0  0  0  0  0  0  0
    0.1125    2.0792    0.0000 C   0  0  0  0  0  0  0  0  0  0  0  0
   -0.6042    0.0167    0.0000 O   0  0  0  0  0  0  0  0  0  0  0  0
    0.8250    2.4917    0.0000 O   0  0  0  0  0  0  0  0  0  0  0  0
   -0.6042   -1.6333    0.0000 C   0  0  0  0  0  0  0  0  0  0  0  0
   -0.6042   -2.4583    0.0000 C   0  0  0  0  0  0  0  0  0  0  0  0
   -0.6042    3.3167    0.0000 N   0  0  0  0  0  0  0  0  0  0  0  0
   -0.6042   -4.1083    0.0000 C   0  0  0  0  0  0  0  0  0  0  0  0
    1.5417   -0.3958    0.0000 C   0  0  0  0  0  0  0  0  0  0  0  0
   -1.3167    3.7292    0.0000 C   0  0  0  0  0  0  0  0  0  0  0  0
    0.1125   -2.8708    0.0000 C   0  0  0  0  0  0  0  0  0  0  0  0
   -1.3167   -2.8708    0.0000 C   0  0  0  0  0  0  0  0  0  0  0  0
    0.1125   -3.6958    0.0000 C   0  0  0  0  0  0  0  0  0  0  0  0
   -1.3167   -3.6958    0.0000 C   0  0  0  0  0  0  0  0  0  0  0  0
   -0.6042    2.4917    0.0000 C   0  0  0  0  0  0  0  0  0  0  0  0
    1.5417    1.2542    0.0000 C   0  0  0  0  0  0  0  0  0  0  0  0
   -0.6042   -4.9333    0.0000 C   0  0  0  0  0  0  0  0  0  0  0  0
    2.2542    0.0167    0.0000 C   0  0  0  0  0  0  0  0  0  0  0  0
    2.2542    0.8417    0.0000 C   0  0  0  0  0  0  0  0  0  0  0  0
  2  1  1  0  0  0  0
  3  1  2  0  0  0  0
  4  3  1  0  0  0  0
  5 16  1  0  0  0  0
  6  2  1  0  0  0  0
  7  5  3  0  0  0  0
  8  4  1  0  0  0  0
  9  2  2  0  0  0  0
 10  8  2  0  0  0  0
 11  6  1  0  0  0  0
 12 11  1  0  0  0  0
 13 21  1  0  0  0  0
 14 20  2  0  0  0  0
 15  1  1  0  0  0  0
 16 13  1  0  0  0  0
 17 12  1  0  0  0  0
 18 12  2  0  0  0  0
 19 17  2  0  0  0  0
 19 14  1  0  0  0  0
 20 18  1  0  0  0  0
 21  8  1  0  0  0  0
 22  3  1  0  0  0  0
 23 14  1  0  0  0  0
 24 15  2  0  0  0  0
 25 22  2  0  0  0  0
 25 24  1  0  0  0  0
M  END
> <CdId>
3956

> <Mol Weight>
335.3996

> <Formula>
C20H21N3O2

> <Click_ID>
CLK051D10 __ __ 

$$$$
