CLK015_H04
 OpenBabel03181410512D

 25 26  0  0  0  0  0  0  0  0999 V2000
    2.8581   -1.4642    0.0000 N   0  0  0  0  0  0  0  0  0  0  0  0
    3.6852   -1.4642    0.0000 C   0  0  0  0  0  0  0  0  0  0  0  0
    2.6057   -2.2459    0.0000 C   0  0  0  0  0  0  0  0  0  0  0  0
    3.2675   -2.7298    0.0000 C   0  0  0  0  0  0  0  0  0  0  0  0
    3.9376   -2.2501    0.0000 S   0  0  0  0  0  0  0  0  0  0  0  0
    3.2675   -3.5529    0.0000 C   0  0  0  0  0  0  0  0  0  0  0  0
    2.3741   -0.7983    0.0000 C   0  0  0  0  0  0  0  0  0  0  0  0
    4.1692   -0.7983    0.0000 S   0  0  0  0  0  0  0  0  0  0  0  0
    7.5856   -5.2032    0.0000 C   0  0  0  0  0  0  0  0  0  0  0  0
    8.3011   -5.6209    0.0000 C   0  0  0  0  0  0  0  0  0  0  0  0
    5.4224   -3.9706    0.0000 C   0  0  0  0  0  0  0  0  0  0  0  0
    1.8240   -2.5065    0.0000 O   0  0  0  0  0  0  0  0  0  0  0  0
    3.9954   -3.9706    0.0000 C   0  0  0  0  0  0  0  0  0  0  0  0
    4.7069   -3.5529    0.0000 C   0  0  0  0  0  0  0  0  0  0  0  0
    5.4348   -4.8020    0.0000 C   0  0  0  0  0  0  0  0  0  0  0  0
    4.7027   -5.2156    0.0000 C   0  0  0  0  0  0  0  0  0  0  0  0
    3.9872   -4.8061    0.0000 C   0  0  0  0  0  0  0  0  0  0  0  0
    6.1338   -3.5612    0.0000 O   0  0  0  0  0  0  0  0  0  0  0  0
    6.1462   -5.2156    0.0000 O   0  0  0  0  0  0  0  0  0  0  0  0
    6.8659   -4.8020    0.0000 C   0  0  0  0  0  0  0  0  0  0  0  0
    1.5634   -0.8810    0.0000 C   0  0  0  0  0  0  0  0  0  0  0  0
    6.1421   -2.7298    0.0000 C   0  0  0  0  0  0  0  0  0  0  0  0
    1.2284   -1.6296    0.0000 C   0  0  0  0  0  0  0  0  0  0  0  0
    1.0837   -0.2151    0.0000 C   0  0  0  0  0  0  0  0  0  0  0  0
    6.8535   -2.3121    0.0000 C   0  0  0  0  0  0  0  0  0  0  0  0
  2  1  1  0  0  0  0
  3  1  1  0  0  0  0
  4  3  1  0  0  0  0
  5  2  1  0  0  0  0
  5  4  1  0  0  0  0
  6  4  2  0  0  0  0
  7  1  1  0  0  0  0
  8  2  2  0  0  0  0
  9 20  1  0  0  0  0
 10  9  3  0  0  0  0
 11 14  2  0  0  0  0
 12  3  2  0  0  0  0
 13  6  1  0  0  0  0
 14 13  1  0  0  0  0
 15 16  2  0  0  0  0
 15 11  1  0  0  0  0
 16 17  1  0  0  0  0
 17 13  2  0  0  0  0
 18 11  1  0  0  0  0
 19 15  1  0  0  0  0
 20 19  1  0  0  0  0
 21  7  1  0  0  0  0
 22 18  1  0  0  0  0
 23 21  1  0  0  0  0
 24 21  1  0  0  0  0
 25 22  1  0  0  0  0
M  END
> <CdId>
1149

> <Mol Weight>
375.505

> <Formula>
C19H21NO3S2

> <Click_ID>
CLK015_H04 __ __ 

$$$$
