CLK041B09
 OpenBabel03181410512D

 25 26  0  0  0  0  0  0  0  0999 V2000
   -0.0167    1.8030    0.0000 N   0  0  0  0  0  0  0  0  0  0  0  0
    0.4675    1.1311    0.0000 C   0  0  0  0  0  0  0  0  0  0  0  0
    1.2563    1.3898    0.0000 N   0  0  0  0  0  0  0  0  0  0  0  0
    1.2563    2.2162    0.0000 N   0  0  0  0  0  0  0  0  0  0  0  0
    0.4675    2.4709    0.0000 C   0  0  0  0  0  0  0  0  0  0  0  0
   -0.8431    1.8030    0.0000 C   0  0  0  0  0  0  0  0  0  0  0  0
    0.5551   -3.2388    0.0000 C   0  0  0  0  0  0  0  0  0  0  0  0
    0.2129    0.3464    0.0000 S   0  0  0  0  0  0  0  0  0  0  0  0
    0.3005   -4.0235    0.0000 C   0  0  0  0  0  0  0  0  0  0  0  0
    0.5134   -1.0518    0.0000 C   0  0  0  0  0  0  0  0  0  0  0  0
    1.0643   -1.6653    0.0000 N   0  0  0  0  0  0  0  0  0  0  0  0
    0.8097   -2.4541    0.0000 C   0  0  0  0  0  0  0  0  0  0  0  0
   -1.2563    1.0851    0.0000 C   0  0  0  0  0  0  0  0  0  0  0  0
   -0.2963   -1.2229    0.0000 O   0  0  0  0  0  0  0  0  0  0  0  0
    0.7680   -0.2672    0.0000 C   0  0  0  0  0  0  0  0  0  0  0  0
    0.2129    3.2555    0.0000 C   0  0  0  0  0  0  0  0  0  0  0  0
   -1.2563    2.5167    0.0000 C   0  0  0  0  0  0  0  0  0  0  0  0
    1.5944   -2.7088    0.0000 C   0  0  0  0  0  0  0  0  0  0  0  0
    0.0250   -2.1995    0.0000 C   0  0  0  0  0  0  0  0  0  0  0  0
   -0.8431    0.3714    0.0000 C   0  0  0  0  0  0  0  0  0  0  0  0
   -2.0827    1.0851    0.0000 C   0  0  0  0  0  0  0  0  0  0  0  0
    1.7655   -3.5184    0.0000 C   0  0  0  0  0  0  0  0  0  0  0  0
   -0.1503   -1.3898    0.0000 C   0  0  0  0  0  0  0  0  0  0  0  0
   -2.0827    2.5167    0.0000 C   0  0  0  0  0  0  0  0  0  0  0  0
   -2.4959    1.8030    0.0000 C   0  0  0  0  0  0  0  0  0  0  0  0
  2  1  1  0  0  0  0
  3  2  2  0  0  0  0
  4  5  2  0  0  0  0
  4  3  1  0  0  0  0
  5  1  1  0  0  0  0
  6  1  1  0  0  0  0
  7 12  1  0  0  0  0
  8  2  1  0  0  0  0
  9  7  3  0  0  0  0
 10 15  1  0  0  0  0
 11 10  1  0  0  0  0
 12 11  1  0  0  0  0
 13  6  2  0  0  0  0
 14 10  2  0  0  0  0
 15  8  1  0  0  0  0
 16  5  1  0  0  0  0
 17  6  1  0  0  0  0
 18 12  1  0  0  0  0
 19 12  1  0  0  0  0
 20 13  1  0  0  0  0
 21 13  1  0  0  0  0
 22 18  1  0  0  0  0
 23 19  1  0  0  0  0
 24 17  2  0  0  0  0
 25 21  2  0  0  0  0
 25 24  1  0  0  0  0
M  END
> <CdId>
3146

> <Mol Weight>
356.485

> <Formula>
C19H24N4OS

> <Click_ID>
CLK041B09 __ __ 

$$$$
