CLK048D03
 OpenBabel03181410512D

 15 16  0  0  0  0  0  0  0  0999 V2000
    0.1417   -0.2833    0.0000 C   0  0  0  0  0  0  0  0  0  0  0  0
   -0.3458   -0.9500    0.0000 N   0  0  0  0  0  0  0  0  0  0  0  0
   -0.3458    0.3833    0.0000 C   0  0  0  0  0  0  0  0  0  0  0  0
    0.9667   -0.2833    0.0000 C   0  0  0  0  0  0  0  0  0  0  0  0
   -1.1292   -0.6958    0.0000 C   0  0  0  0  0  0  0  0  0  0  0  0
   -1.1292    0.1292    0.0000 C   0  0  0  0  0  0  0  0  0  0  0  0
    2.6167    1.1458    0.0000 C   0  0  0  0  0  0  0  0  0  0  0  0
    3.0292    1.8583    0.0000 C   0  0  0  0  0  0  0  0  0  0  0  0
    1.3792   -1.0000    0.0000 O   0  0  0  0  0  0  0  0  0  0  0  0
    1.3792    0.4292    0.0000 N   0  0  0  0  0  0  0  0  0  0  0  0
    2.2042    0.4292    0.0000 C   0  0  0  0  0  0  0  0  0  0  0  0
   -1.8417   -1.1083    0.0000 C   0  0  0  0  0  0  0  0  0  0  0  0
   -1.8417    0.5417    0.0000 C   0  0  0  0  0  0  0  0  0  0  0  0
   -2.5583   -0.6958    0.0000 C   0  0  0  0  0  0  0  0  0  0  0  0
   -2.5583    0.1292    0.0000 C   0  0  0  0  0  0  0  0  0  0  0  0
  2  1  1  0  0  0  0
  3  1  2  0  0  0  0
  4  1  1  0  0  0  0
  5  2  1  0  0  0  0
  5  6  2  0  0  0  0
  6  3  1  0  0  0  0
  7 11  1  0  0  0  0
  8  7  3  0  0  0  0
  9  4  2  0  0  0  0
 10  4  1  0  0  0  0
 11 10  1  0  0  0  0
 12  5  1  0  0  0  0
 13  6  1  0  0  0  0
 14 12  2  0  0  0  0
 14 15  1  0  0  0  0
 15 13  2  0  0  0  0
M  END
> <CdId>
3660

> <Mol Weight>
198.2206

> <Formula>
C12H10N2O

> <Click_ID>
CLK048D03 __ __ 

$$$$
