CLK012_C10
 OpenBabel03181410512D

 20 21  0  0  0  0  0  0  0  0999 V2000
    2.6259    0.4223    0.0000 N    0  0  0  0  0  0  0  0  0  0  0  0
    2.8851   -0.3680    0.0000 C    0  0  0  0  0  0  0  0  0  0  0  0
    3.9680    0.4223    0.0000 C    0  0  0  0  0  0  0  0  0  0  0  0
    3.2990    0.9031    0.0000 C    0  0  0  0  0  0  0  0  0  0  0  0
    3.7129   -0.3680    0.0000 N    0  0  0  0  0  0  0  0  0  0  0  0
    5.2558    3.0941    0.0000 C    0  0  0  0  0  0  0  0  0  0  0  0
    4.7583    0.6731    0.0000 C    0  0  0  0  0  0  0  0  0  0  0  0
    5.8621    2.5422    0.0000 C    0  0  0  0  0  0  0  0  0  0  0  0
    4.4823    2.8432    0.0000 C    0  0  0  0  0  0  0  0  0  0  0  0
    4.9214    1.4802    0.0000 C    0  0  0  0  0  0  0  0  0  0  0  0
    6.4015    4.9464    0.0000 C    0  0  0  0  0  0  0  0  0  0  0  0
    6.5771    5.7492    0.0000 C    0  0  0  0  0  0  0  0  0  0  0  0
    4.3067    2.0321    0.0000 C    0  0  0  0  0  0  0  0  0  0  0  0
    5.6991    1.7310    0.0000 C    0  0  0  0  0  0  0  0  0  0  0  0
    2.3875   -1.0411    0.0000 O    0  0  0  0  0  0  0  0  0  0  0  0
    3.2907    1.7310    0.0000 O    0  0  0  0  0  0  0  0  0  0  0  0
    6.6524    2.7930    0.0000 Cl   0  0  0  0  0  0  0  0  0  0  0  0
    3.8760    3.3951    0.0000 Cl   0  0  0  0  0  0  0  0  0  0  0  0
    5.4356    3.8969    0.0000 O    0  0  0  0  0  0  0  0  0  0  0  0
    6.2217    4.1394    0.0000 C    0  0  0  0  0  0  0  0  0  0  0  0
  2  1  1  0  0  0  0
  3  4  1  0  0  0  0
  3  5  1  0  0  0  0
  4  1  1  0  0  0  0
  5  2  1  0  0  0  0
  6  8  1  0  0  0  0
  6  9  2  0  0  0  0
  7  3  2  0  0  0  0
  8 14  2  0  0  0  0
  9 13  1  0  0  0  0
 10  7  1  0  0  0  0
 11 20  1  0  0  0  0
 12 11  3  0  0  0  0
 13 10  2  0  0  0  0
 14 10  1  0  0  0  0
 15  2  2  0  0  0  0
 16  4  2  0  0  0  0
 17  8  1  0  0  0  0
 18  9  1  0  0  0  0
 19  6  1  0  0  0  0
 20 19  1  0  0  0  0
M  END
> <CdId>
865

> <Mol Weight>
311.12

> <Formula>
C13H8Cl2N2O3

> <Click_ID>
CLK012_C10 __ __ 

$$$$
