CLK025_F10
 OpenBabel03181410512D

 26 27  0  0  0  0  0  0  0  0999 V2000
   -0.2170   -1.9327    0.0000 N   0  0  0  0  0  0  0  0  0  0  0  0
    0.0379   -2.7319    0.0000 C   0  0  0  0  0  0  0  0  0  0  0  0
    0.4513   -1.4538    0.0000 C   0  0  0  0  0  0  0  0  0  0  0  0
    1.1231   -1.9327    0.0000 C   0  0  0  0  0  0  0  0  0  0  0  0
    0.8647   -2.7319    0.0000 S   0  0  0  0  0  0  0  0  0  0  0  0
    1.9155   -1.6778    0.0000 C   0  0  0  0  0  0  0  0  0  0  0  0
   -1.0025   -1.6778    0.0000 C   0  0  0  0  0  0  0  0  0  0  0  0
   -1.6261   -2.2427    0.0000 C   0  0  0  0  0  0  0  0  0  0  0  0
    3.5691    2.6113    0.0000 C   0  0  0  0  0  0  0  0  0  0  0  0
    3.7551    3.3968    0.0000 C   0  0  0  0  0  0  0  0  0  0  0  0
    3.0317    0.1860    0.0000 C   0  0  0  0  0  0  0  0  0  0  0  0
   -0.4513   -3.3968    0.0000 O   0  0  0  0  0  0  0  0  0  0  0  0
    0.4513   -0.6166    0.0000 O   0  0  0  0  0  0  0  0  0  0  0  0
    2.0877   -0.8681    0.0000 C   0  0  0  0  0  0  0  0  0  0  0  0
    2.8560   -0.6166    0.0000 C   0  0  0  0  0  0  0  0  0  0  0  0
    2.4184    0.7476    0.0000 C   0  0  0  0  0  0  0  0  0  0  0  0
   -1.4538   -3.0489    0.0000 O   0  0  0  0  0  0  0  0  0  0  0  0
   -2.4149   -1.9775    0.0000 O   0  0  0  0  0  0  0  0  0  0  0  0
    1.6398    0.4961    0.0000 C   0  0  0  0  0  0  0  0  0  0  0  0
    3.8171    0.4479    0.0000 I   0  0  0  0  0  0  0  0  0  0  0  0
    1.4779   -0.3169    0.0000 C   0  0  0  0  0  0  0  0  0  0  0  0
    2.6044    1.5606    0.0000 O   0  0  0  0  0  0  0  0  0  0  0  0
    3.3899    1.8121    0.0000 C   0  0  0  0  0  0  0  0  0  0  0  0
   -3.0317   -2.5286    0.0000 C   0  0  0  0  0  0  0  0  0  0  0  0
   -3.8205   -2.2703    0.0000 C   0  0  0  0  0  0  0  0  0  0  0  0
   -2.8594   -3.3348    0.0000 C   0  0  0  0  0  0  0  0  0  0  0  0
  2  1  1  0  0  0  0
  3  1  1  0  0  0  0
  4  3  1  0  0  0  0
  5  2  1  0  0  0  0
  5  4  1  0  0  0  0
  6  4  2  0  0  0  0
  7  1  1  0  0  0  0
  8  7  1  0  0  0  0
  9 23  1  0  0  0  0
 10  9  3  0  0  0  0
 11 15  2  0  0  0  0
 11 16  1  0  0  0  0
 12  2  2  0  0  0  0
 13  3  2  0  0  0  0
 14  6  1  0  0  0  0
 15 14  1  0  0  0  0
 16 19  2  0  0  0  0
 17  8  2  0  0  0  0
 18  8  1  0  0  0  0
 19 21  1  0  0  0  0
 20 11  1  0  0  0  0
 21 14  2  0  0  0  0
 22 16  1  0  0  0  0
 23 22  1  0  0  0  0
 24 18  1  0  0  0  0
 25 24  1  0  0  0  0
 26 24  1  0  0  0  0
M  END
> <CdId>
1915

> <Mol Weight>
485.293

> <Formula>
C18H16INO5S

> <Click_ID>
CLK025_F10 __ __ 

$$$$
