CLK005_E04
 OpenBabel03181410512D

 29 31  0  0  0  0  0  0  0  0999 V2000
    0.2637   -0.3092    0.0000 C   0  0  3  0  0  0  0  0  0  0  0  0
    0.9087    0.2011    0.0000 N   0  0  0  0  0  0  0  0  0  0  0  0
    0.3794   -1.1231    0.0000 C   0  0  0  0  0  0  0  0  0  0  0  0
   -0.5065   -0.0057    0.0000 C   0  0  0  0  0  0  0  0  0  0  0  0
    0.7930    1.0168    0.0000 C   0  0  0  0  0  0  0  0  0  0  0  0
    1.6770   -0.1044    0.0000 C   0  0  0  0  0  0  0  0  0  0  0  0
   -0.2694   -1.6334    0.0000 C   0  0  0  0  0  0  0  0  0  0  0  0
    1.1439   -1.4266    0.0000 C   0  0  0  0  0  0  0  0  0  0  0  0
   -1.1534   -0.5141    0.0000 N   0  0  0  0  0  0  0  0  0  0  0  0
   -0.5900    0.5653    0.0000 O   0  0  0  0  0  0  0  0  0  0  0  0
    1.4380    1.5290    0.0000 C   0  0  0  0  0  0  0  0  0  0  0  0
    0.0266    1.3222    0.0000 C   0  0  0  0  0  0  0  0  0  0  0  0
    2.3258    0.4059    0.0000 C   0  0  0  0  0  0  0  0  0  0  0  0
    1.7946   -0.9220    0.0000 O   0  0  0  0  0  0  0  0  0  0  0  0
   -0.1499   -2.4510    0.0000 C   0  0  0  0  0  0  0  0  0  0  0  0
   -0.8062   -1.4190    0.0000 F   0  0  0  0  0  0  0  0  0  0  0  0
    1.2653   -2.2442    0.0000 C   0  0  0  0  0  0  0  0  0  0  0  0
   -1.9198   -0.2068    0.0000 C   0  0  0  0  0  0  0  0  0  0  0  0
    1.3222    2.3447    0.0000 C   0  0  0  0  0  0  0  0  0  0  0  0
    2.2062    1.2236    0.0000 F   0  0  0  0  0  0  0  0  0  0  0  0
   -0.0948    2.1399    0.0000 C   0  0  0  0  0  0  0  0  0  0  0  0
    2.9726    0.9163    0.0000 C   0  0  0  0  0  0  0  0  0  0  0  0
    0.6127   -2.7583    0.0000 C   0  0  0  0  0  0  0  0  0  0  0  0
   -2.0355    0.6070    0.0000 C   0  0  0  0  0  0  0  0  0  0  0  0
   -2.5705   -0.7208    0.0000 C   0  0  0  0  0  0  0  0  0  0  0  0
    0.5558    2.6501    0.0000 C   0  0  0  0  0  0  0  0  0  0  0  0
   -2.8038    0.9163    0.0000 C   0  0  0  0  0  0  0  0  0  0  0  0
   -3.3331   -0.4097    0.0000 C   0  0  0  0  0  0  0  0  0  0  0  0
   -3.4507    0.4059    0.0000 C   0  0  0  0  0  0  0  0  0  0  0  0
  1  2  1  0  0  0  0
  1  3  1  0  0  0  0
  1  4  1  0  0  0  0
  2  5  1  0  0  0  0
  2  6  1  0  0  0  0
  3  7  2  0  0  0  0
  3  8  1  0  0  0  0
  4  9  1  0  0  0  0
  4 10  2  0  0  0  0
  5 11  2  0  0  0  0
  5 12  1  0  0  0  0
  6 13  1  0  0  0  0
  6 14  2  0  0  0  0
  7 15  1  0  0  0  0
  7 16  1  0  0  0  0
  8 17  2  0  0  0  0
  9 18  1  0  0  0  0
 11 19  1  0  0  0  0
 11 20  1  0  0  0  0
 12 21  2  0  0  0  0
 13 22  3  0  0  0  0
 15 23  2  0  0  0  0
 17 23  1  0  0  0  0
 18 24  1  0  0  0  0
 18 25  1  0  0  0  0
 19 26  2  0  0  0  0
 21 26  1  0  0  0  0
 24 27  1  0  0  0  0
 25 28  1  0  0  0  0
 27 29  1  0  0  0  0
 28 29  1  0  0  0  0
M  END
> <CdId>
363

> <Mol Weight>
396.4298

> <Formula>
C23H22F2N2O2

> <Click_ID>
CLK005_E04 __ __ 

$$$$
