CLK042E10
 OpenBabel03181410512D

 25 28  0  0  0  0  0  0  0  0999 V2000
    0.1083    0.1375    0.0000 C   0  0  0  0  0  0  0  0  0  0  0  0
    0.8250    0.5500    0.0000 C   0  0  0  0  0  0  0  0  0  0  0  0
    0.8250    1.3750    0.0000 C   0  0  0  0  0  0  0  0  0  0  0  0
   -0.6042    0.5500    0.0000 N   0  0  0  0  0  0  0  0  0  0  0  0
    0.1083    1.7875    0.0000 N   0  0  0  0  0  0  0  0  0  0  0  0
   -0.6042    1.3750    0.0000 C   0  0  0  0  0  0  0  0  0  0  0  0
    1.6083    1.6292    0.0000 S   0  0  0  0  0  0  0  0  0  0  0  0
    1.6083    0.2958    0.0000 C   0  0  0  0  0  0  0  0  0  0  0  0
    2.0917    0.9625    0.0000 C   0  0  0  0  0  0  0  0  0  0  0  0
    0.1083   -0.6875    0.0000 N   0  0  0  0  0  0  0  0  0  0  0  0
   -1.3208    1.7875    0.0000 C   0  0  0  0  0  0  0  0  0  0  0  0
   -2.0750    1.4542    0.0000 S   0  0  0  0  0  0  0  0  0  0  0  0
   -0.6042   -3.5750    0.0000 C   0  0  0  0  0  0  0  0  0  0  0  0
    0.1083   -2.3375    0.0000 N   0  0  0  0  0  0  0  0  0  0  0  0
   -1.3208   -3.9875    0.0000 C   0  0  0  0  0  0  0  0  0  0  0  0
   -1.4042    2.6083    0.0000 C   0  0  0  0  0  0  0  0  0  0  0  0
    0.8250   -1.1000    0.0000 C   0  0  0  0  0  0  0  0  0  0  0  0
   -0.6042   -1.1000    0.0000 C   0  0  0  0  0  0  0  0  0  0  0  0
   -2.6250    2.0667    0.0000 C   0  0  0  0  0  0  0  0  0  0  0  0
   -2.2125    2.7792    0.0000 C   0  0  0  0  0  0  0  0  0  0  0  0
   -0.6042   -1.9250    0.0000 C   0  0  0  0  0  0  0  0  0  0  0  0
    0.8250   -1.9250    0.0000 C   0  0  0  0  0  0  0  0  0  0  0  0
    0.1083   -3.1625    0.0000 C   0  0  0  0  0  0  0  0  0  0  0  0
    1.8625   -0.4875    0.0000 C   0  0  0  0  0  0  0  0  0  0  0  0
    2.9167    0.9625    0.0000 C   0  0  0  0  0  0  0  0  0  0  0  0
  2  1  1  0  0  0  0
  3  2  2  0  0  0  0
  4  1  2  0  0  0  0
  5  3  1  0  0  0  0
  6  4  1  0  0  0  0
  6  5  2  0  0  0  0
  7  3  1  0  0  0  0
  7  9  1  0  0  0  0
  8  2  1  0  0  0  0
  9  8  2  0  0  0  0
 10  1  1  0  0  0  0
 11  6  1  0  0  0  0
 12 11  1  0  0  0  0
 13 23  1  0  0  0  0
 14 22  1  0  0  0  0
 14 21  1  0  0  0  0
 15 13  3  0  0  0  0
 16 11  2  0  0  0  0
 17 10  1  0  0  0  0
 18 10  1  0  0  0  0
 19 12  1  0  0  0  0
 19 20  2  0  0  0  0
 20 16  1  0  0  0  0
 21 18  1  0  0  0  0
 22 17  1  0  0  0  0
 23 14  1  0  0  0  0
 24  8  1  0  0  0  0
 25  9  1  0  0  0  0
M  END
> <CdId>
3237

> <Mol Weight>
368.519

> <Formula>
C19H20N4S2

> <Click_ID>
CLK042E10 __ __ 

$$$$
