CLK018_C02
 OpenBabel03181410512D

 22 23  0  0  0  0  0  0  0  0999 V2000
   -0.4535    0.1053    0.0000 C    0  0  0  0  0  0  0  0  0  0  0  0
    0.9666    0.1053    0.0000 N    0  0  0  0  0  0  0  0  0  0  0  0
    0.2520   -1.1315    0.0000 N    0  0  0  0  0  0  0  0  0  0  0  0
   -0.4535   -0.7192    0.0000 C    0  0  0  0  0  0  0  0  0  0  0  0
    0.2520    0.5176    0.0000 C    0  0  0  0  0  0  0  0  0  0  0  0
    0.9666   -0.7192    0.0000 C    0  0  0  0  0  0  0  0  0  0  0  0
   -1.1681    0.5176    0.0000 C    0  0  0  0  0  0  0  0  0  0  0  0
   -3.3119   -0.7146    0.0000 C    0  0  0  0  0  0  0  0  0  0  0  0
   -3.3119    0.1099    0.0000 C    0  0  0  0  0  0  0  0  0  0  0  0
   -2.5973   -1.1269    0.0000 C    0  0  0  0  0  0  0  0  0  0  0  0
   -1.8827    0.1053    0.0000 C    0  0  0  0  0  0  0  0  0  0  0  0
   -4.7411   -2.3683    0.0000 C    0  0  0  0  0  0  0  0  0  0  0  0
   -4.7411   -3.1928    0.0000 C    0  0  0  0  0  0  0  0  0  0  0  0
   -1.8827   -0.7146    0.0000 C    0  0  0  0  0  0  0  0  0  0  0  0
   -2.5973    0.5176    0.0000 C    0  0  0  0  0  0  0  0  0  0  0  0
    0.2520    1.3421    0.0000 O    0  0  0  0  0  0  0  0  0  0  0  0
   -1.1681   -1.1315    0.0000 O    0  0  0  0  0  0  0  0  0  0  0  0
    1.6812   -1.1315    0.0000 O    0  0  0  0  0  0  0  0  0  0  0  0
   -4.0265    0.5222    0.0000 Cl   0  0  0  0  0  0  0  0  0  0  0  0
   -2.5973   -1.9514    0.0000 Cl   0  0  0  0  0  0  0  0  0  0  0  0
   -4.0265   -1.1269    0.0000 O    0  0  0  0  0  0  0  0  0  0  0  0
   -4.0265   -1.9560    0.0000 C    0  0  0  0  0  0  0  0  0  0  0  0
  2  5  1  0  0  0  0
  3  4  1  0  0  0  0
  4  1  1  0  0  0  0
  5  1  1  0  0  0  0
  6  2  1  0  0  0  0
  6  3  1  0  0  0  0
  7  1  2  0  0  0  0
  8  9  1  0  0  0  0
  9 15  2  0  0  0  0
 10 14  1  0  0  0  0
 10  8  2  0  0  0  0
 11  7  1  0  0  0  0
 12 22  1  0  0  0  0
 13 12  3  0  0  0  0
 14 11  2  0  0  0  0
 15 11  1  0  0  0  0
 16  5  2  0  0  0  0
 17  4  2  0  0  0  0
 18  6  2  0  0  0  0
 19  9  1  0  0  0  0
 20 10  1  0  0  0  0
 21  8  1  0  0  0  0
 22 21  1  0  0  0  0
M  END
> <CdId>
1337

> <Mol Weight>
339.13

> <Formula>
C14H8Cl2N2O4

> <Click_ID>
CLK018_C02 __ __ 

$$$$
