CLK038F08
 OpenBabel03181410512D

 27 29  0  0  0  0  0  0  0  0999 V2000
    1.0000   -0.4667    0.0000 N   0  0  0  0  0  0  0  0  0  0  0  0
    1.4125    0.8000    0.0000 C   0  0  3  0  0  0  0  0  0  0  0  0
    0.7458    0.3167    0.0000 C   0  0  0  0  0  0  0  0  0  0  0  0
    1.8250   -0.4667    0.0000 C   0  0  0  0  0  0  0  0  0  0  0  0
    2.0792    0.3167    0.0000 N   0  0  0  0  0  0  0  0  0  0  0  0
    0.7000    1.2125    0.0000 C   0  0  0  0  0  0  0  0  0  0  0  0
    0.5167   -1.1333    0.0000 C   0  0  0  0  0  0  0  0  0  0  0  0
   -0.3042   -1.0500    0.0000 C   0  0  0  0  0  0  0  0  0  0  0  0
   -2.4292   -1.5458    0.0000 C   0  0  0  0  0  0  0  0  0  0  0  0
   -3.2500   -1.4583    0.0000 C   0  0  0  0  0  0  0  0  0  0  0  0
   -0.7917   -1.7167    0.0000 N   0  0  0  0  0  0  0  0  0  0  0  0
    2.3083   -1.1333    0.0000 O   0  0  0  0  0  0  0  0  0  0  0  0
   -0.0375    0.5708    0.0000 O   0  0  0  0  0  0  0  0  0  0  0  0
    0.7000    2.0375    0.0000 C   0  0  0  0  0  0  0  0  0  0  0  0
   -1.6125   -1.6292    0.0000 C   0  0  0  0  0  0  0  0  0  0  0  0
    2.1250    1.2125    0.0000 C   0  0  0  0  0  0  0  0  0  0  0  0
    1.4125    2.4500    0.0000 O   0  0  0  0  0  0  0  0  0  0  0  0
   -0.6417   -0.2958    0.0000 O   0  0  0  0  0  0  0  0  0  0  0  0
    2.1250    2.0375    0.0000 C   0  0  0  0  0  0  0  0  0  0  0  0
   -0.0167    0.8000    0.0000 C   0  0  0  0  0  0  0  0  0  0  0  0
   -1.5250   -0.8083    0.0000 C   0  0  0  0  0  0  0  0  0  0  0  0
   -1.6958   -2.4500    0.0000 C   0  0  0  0  0  0  0  0  0  0  0  0
   -0.0167    2.4500    0.0000 C   0  0  0  0  0  0  0  0  0  0  0  0
   -0.7292    1.2125    0.0000 C   0  0  0  0  0  0  0  0  0  0  0  0
   -0.7708   -0.4750    0.0000 C   0  0  0  0  0  0  0  0  0  0  0  0
   -2.4500   -2.7875    0.0000 C   0  0  0  0  0  0  0  0  0  0  0  0
   -0.7292    2.0375    0.0000 C   0  0  0  0  0  0  0  0  0  0  0  0
  2  3  1  0  0  0  0
  2  5  1  0  0  0  0
  3  1  1  0  0  0  0
  4  1  1  0  0  0  0
  5  4  1  0  0  0  0
  6  2  1  0  0  0  0
  7  1  1  0  0  0  0
  8  7  1  0  0  0  0
  9 15  1  0  0  0  0
 10  9  3  0  0  0  0
 11  8  1  0  0  0  0
 12  4  2  0  0  0  0
 13  3  2  0  0  0  0
 14  6  2  0  0  0  0
 15 11  1  0  0  0  0
 16  2  1  0  0  0  0
 17 14  1  0  0  0  0
 17 19  1  0  0  0  0
 18  8  2  0  0  0  0
 19 16  1  0  0  0  0
 20  6  1  0  0  0  0
 21 15  1  0  0  0  0
 22 15  1  0  0  0  0
 23 14  1  0  0  0  0
 24 20  2  0  0  0  0
 24 27  1  0  0  0  0
 25 21  1  0  0  0  0
 26 22  1  0  0  0  0
 27 23  2  0  0  0  0
M  END
> <CdId>
2902

> <Mol Weight>
369.4143

> <Formula>
C20H23N3O4

> <Click_ID>
CLK038F08 __ __ 

$$$$
