CLK036_H04
 OpenBabel03181410512D

 26 28  0  0  0  0  0  0  0  0999 V2000
    4.1567   -0.6990    0.0000 C   0  0  0  0  0  0  0  0  0  0  0  0
    4.4937   -1.4522    0.0000 N   0  0  0  0  0  0  0  0  0  0  0  0
    3.3495   -0.5285    0.0000 N   0  0  0  0  0  0  0  0  0  0  0  0
    4.5686    0.0083    0.0000 S   0  0  0  0  0  0  0  0  0  0  0  0
    7.6311   -3.2205    0.0000 S   0  0  0  0  0  0  0  0  0  0  0  0
    4.0111    0.6241    0.0000 C   0  0  0  0  0  0  0  0  0  0  0  0
    3.2622    0.2954    0.0000 C   0  0  0  0  0  0  0  0  0  0  0  0
    5.3093   -1.5396    0.0000 C   0  0  0  0  0  0  0  0  0  0  0  0
    6.8072   -3.1373    0.0000 C   0  0  0  0  0  0  0  0  0  0  0  0
    5.6463   -2.2968    0.0000 C   0  0  0  0  0  0  0  0  0  0  0  0
    4.0985    1.4438    0.0000 C   0  0  0  0  0  0  0  0  0  0  0  0
    2.9251   -1.8766    0.0000 C   0  0  0  0  0  0  0  0  0  0  0  0
    6.4702   -2.3842    0.0000 C   0  0  0  0  0  0  0  0  0  0  0  0
    3.1082   -2.6838    0.0000 C   0  0  0  0  0  0  0  0  0  0  0  0
    2.5964    0.7822    0.0000 C   0  0  0  0  0  0  0  0  0  0  0  0
    7.5437   -4.0444    0.0000 O   0  0  0  0  0  0  0  0  0  0  0  0
    7.7143   -2.3967    0.0000 O   0  0  0  0  0  0  0  0  0  0  0  0
    5.7961   -0.8738    0.0000 O   0  0  0  0  0  0  0  0  0  0  0  0
    2.7504   -1.0860    0.0000 C   0  0  0  0  0  0  0  0  0  0  0  0
    3.4327    1.9306    0.0000 C   0  0  0  0  0  0  0  0  0  0  0  0
    2.6838    1.5978    0.0000 C   0  0  0  0  0  0  0  0  0  0  0  0
    8.4549   -3.2996    0.0000 C   0  0  0  0  0  0  0  0  0  0  0  0
    3.5076    2.7545    0.0000 F   0  0  0  0  0  0  0  0  0  0  0  0
    6.3204   -3.8072    0.0000 C   0  0  0  0  0  0  0  0  0  0  0  0
    5.1595   -2.9626    0.0000 C   0  0  0  0  0  0  0  0  0  0  0  0
    5.4965   -3.7198    0.0000 C   0  0  0  0  0  0  0  0  0  0  0  0
  2  1  2  0  0  0  0
  3  1  1  0  0  0  0
  4  1  1  0  0  0  0
  5  9  1  0  0  0  0
  6  4  1  0  0  0  0
  7  3  1  0  0  0  0
  7  6  2  0  0  0  0
  8  2  1  0  0  0  0
  9 13  2  0  0  0  0
  9 24  1  0  0  0  0
 10  8  1  0  0  0  0
 11  6  1  0  0  0  0
 12 19  1  0  0  0  0
 13 10  1  0  0  0  0
 14 12  3  0  0  0  0
 15  7  1  0  0  0  0
 16  5  2  0  0  0  0
 17  5  2  0  0  0  0
 18  8  2  0  0  0  0
 19  3  1  0  0  0  0
 20 11  2  0  0  0  0
 21 15  2  0  0  0  0
 21 20  1  0  0  0  0
 22  5  1  0  0  0  0
 23 20  1  0  0  0  0
 24 26  2  0  0  0  0
 25 10  2  0  0  0  0
 26 25  1  0  0  0  0
M  END
> <CdId>
2766

> <Mol Weight>
388.436

> <Formula>
C18H13FN2O3S2

> <Click_ID>
CLK036_H04 __ __ 

$$$$
