CLK039C04
 OpenBabel03181410512D

 17 17  0  0  0  0  0  0  0  0999 V2000
   -0.1292    0.9958    0.0000 S   0  0  0  0  0  0  0  0  0  0  0  0
   -0.1292   -2.3042    0.0000 C   0  0  0  0  0  0  0  0  0  0  0  0
   -0.1292    0.1708    0.0000 C   0  0  0  0  0  0  0  0  0  0  0  0
    0.5875    3.0583    0.0000 C   0  0  0  0  0  0  0  0  0  0  0  0
    0.5875    3.8833    0.0000 C   0  0  0  0  0  0  0  0  0  0  0  0
   -0.9542    0.9958    0.0000 O   0  0  0  0  0  0  0  0  0  0  0  0
    0.6958    0.9958    0.0000 O   0  0  0  0  0  0  0  0  0  0  0  0
   -0.1292   -1.4792    0.0000 C   0  0  0  0  0  0  0  0  0  0  0  0
   -0.1292    1.8208    0.0000 N   0  0  0  0  0  0  0  0  0  0  0  0
    0.5875   -0.2417    0.0000 C   0  0  0  0  0  0  0  0  0  0  0  0
   -0.8417   -0.2417    0.0000 C   0  0  0  0  0  0  0  0  0  0  0  0
    0.5875   -1.0667    0.0000 C   0  0  0  0  0  0  0  0  0  0  0  0
   -0.8417   -1.0667    0.0000 C   0  0  0  0  0  0  0  0  0  0  0  0
    0.6958   -2.3042    0.0000 F   0  0  0  0  0  0  0  0  0  0  0  0
   -0.9542   -2.3042    0.0000 F   0  0  0  0  0  0  0  0  0  0  0  0
   -0.1292   -3.1292    0.0000 F   0  0  0  0  0  0  0  0  0  0  0  0
    0.5875    2.2333    0.0000 C   0  0  0  0  0  0  0  0  0  0  0  0
  2  8  1  0  0  0  0
  3  1  1  0  0  0  0
  4 17  1  0  0  0  0
  5  4  3  0  0  0  0
  6  1  2  0  0  0  0
  7  1  2  0  0  0  0
  8 13  2  0  0  0  0
  9  1  1  0  0  0  0
 10  3  1  0  0  0  0
 11  3  2  0  0  0  0
 12 10  2  0  0  0  0
 12  8  1  0  0  0  0
 13 11  1  0  0  0  0
 14  2  1  0  0  0  0
 15  2  1  0  0  0  0
 16  2  1  0  0  0  0
 17  9  1  0  0  0  0
M  END
> <CdId>
2947

> <Mol Weight>
263.236

> <Formula>
C10H8F3NO2S

> <Click_ID>
CLK039C04 __ __ 

$$$$
