CLK046H03
 OpenBabel03181410512D

 29 32  0  0  0  0  0  0  0  0999 V2000
   -0.3831    0.2541    0.0000 N   0  0  0  0  0  0  0  0  0  0  0  0
   -1.5367    1.0911    0.0000 C   0  0  0  0  0  0  0  0  0  0  0  0
   -1.0536    1.7573    0.0000 C   0  0  0  0  0  0  0  0  0  0  0  0
    0.0999    0.9203    0.0000 C   0  0  0  0  0  0  0  0  0  0  0  0
   -0.2332    1.6741    0.0000 N   0  0  0  0  0  0  0  0  0  0  0  0
   -1.2035    0.3373    0.0000 C   0  0  0  0  0  0  0  0  0  0  0  0
   -1.5367    2.4279    0.0000 S   0  0  0  0  0  0  0  0  0  0  0  0
   -2.3237    1.3451    0.0000 C   0  0  0  0  0  0  0  0  0  0  0  0
   -2.3237    2.1696    0.0000 C   0  0  0  0  0  0  0  0  0  0  0  0
   -0.0500   -0.4997    0.0000 C   0  0  0  0  0  0  0  0  0  0  0  0
    0.9203    0.8328    0.0000 S   0  0  0  0  0  0  0  0  0  0  0  0
   -0.5330   -1.1661    0.0000 C   0  0  0  0  0  0  0  0  0  0  0  0
    3.5689   -1.5991    0.0000 C   0  0  0  0  0  0  0  0  0  0  0  0
    3.9021   -2.3529    0.0000 C   0  0  0  0  0  0  0  0  0  0  0  0
   -1.6866   -0.3290    0.0000 O   0  0  0  0  0  0  0  0  0  0  0  0
   -0.1957   -1.9198    0.0000 C   0  0  0  0  0  0  0  0  0  0  0  0
    2.0781   -0.0083    0.0000 C   0  0  0  0  0  0  0  0  0  0  0  0
    0.7704   -0.5872    0.0000 C   0  0  0  0  0  0  0  0  0  0  0  0
    0.6247   -2.0072    0.0000 C   0  0  0  0  0  0  0  0  0  0  0  0
    2.5611    0.6621    0.0000 O   0  0  0  0  0  0  0  0  0  0  0  0
    1.1077   -1.3410    0.0000 C   0  0  0  0  0  0  0  0  0  0  0  0
    1.2576    0.0792    0.0000 C   0  0  0  0  0  0  0  0  0  0  0  0
    2.4112   -0.7579    0.0000 N   0  0  0  0  0  0  0  0  0  0  0  0
   -3.1066    1.0911    0.0000 C   0  0  0  0  0  0  0  0  0  0  0  0
   -3.1066    2.4279    0.0000 C   0  0  0  0  0  0  0  0  0  0  0  0
    3.2315   -0.8453    0.0000 C   0  0  0  0  0  0  0  0  0  0  0  0
   -3.5938    1.7573    0.0000 C   0  0  0  0  0  0  0  0  0  0  0  0
   -0.6829   -2.5903    0.0000 C   0  0  0  0  0  0  0  0  0  0  0  0
    0.9578   -2.7610    0.0000 C   0  0  0  0  0  0  0  0  0  0  0  0
  2  6  1  0  0  0  0
  3  2  2  0  0  0  0
  3  5  1  0  0  0  0
  4  1  1  0  0  0  0
  5  4  2  0  0  0  0
  6  1  1  0  0  0  0
  7  3  1  0  0  0  0
  8  2  1  0  0  0  0
  9  8  2  0  0  0  0
  9  7  1  0  0  0  0
 10  1  1  0  0  0  0
 11  4  1  0  0  0  0
 12 10  2  0  0  0  0
 13 26  1  0  0  0  0
 14 13  3  0  0  0  0
 15  6  2  0  0  0  0
 16 12  1  0  0  0  0
 17 22  1  0  0  0  0
 18 10  1  0  0  0  0
 19 16  2  0  0  0  0
 20 17  2  0  0  0  0
 21 18  2  0  0  0  0
 21 19  1  0  0  0  0
 22 11  1  0  0  0  0
 23 17  1  0  0  0  0
 24  8  1  0  0  0  0
 25  9  1  0  0  0  0
 26 23  1  0  0  0  0
 27 24  1  0  0  0  0
 27 25  1  0  0  0  0
 28 16  1  0  0  0  0
 29 19  1  0  0  0  0
M  END
> <CdId>
3504

> <Mol Weight>
423.551

> <Formula>
C22H21N3O2S2

> <Click_ID>
CLK046H03 __ __ 

$$$$
