CLK025_B02
 OpenBabel03181410512D

 24 27  0  0  0  0  0  0  0  0999 V2000
   -0.4757    0.8160    0.0000 C   0  0  3  0  0  0  0  0  0  0  0  0
    0.3611    1.1077    0.0000 C   0  0  0  0  0  0  0  0  0  0  0  0
   -0.0833    0.0902    0.0000 C   0  0  0  0  0  0  0  0  0  0  0  0
   -0.6597   -0.5035    0.0000 N   0  0  0  0  0  0  0  0  0  0  0  0
   -1.2882    0.6702    0.0000 C   0  0  0  0  0  0  0  0  0  0  0  0
    0.1146    1.8923    0.0000 C   0  0  0  0  0  0  0  0  0  0  0  0
   -1.3958   -0.1458    0.0000 C   0  0  0  0  0  0  0  0  0  0  0  0
    0.7743    2.3750    0.0000 N   0  0  0  0  0  0  0  0  0  0  0  0
    1.1875    1.1077    0.0000 C   0  0  0  0  0  0  0  0  0  0  0  0
    1.4479    1.8923    0.0000 C   0  0  0  0  0  0  0  0  0  0  0  0
   -1.1493   -1.8506    0.0000 C   0  0  0  0  0  0  0  0  0  0  0  0
   -1.7812   -2.3715    0.0000 C   0  0  0  0  0  0  0  0  0  0  0  0
    0.7708    0.0243    0.0000 O   0  0  0  0  0  0  0  0  0  0  0  0
   -0.7361    1.7535    0.0000 O   0  0  0  0  0  0  0  0  0  0  0  0
   -0.5173   -1.3125    0.0000 C   0  0  0  0  0  0  0  0  0  0  0  0
   -1.9340    1.1875    0.0000 C   0  0  0  0  0  0  0  0  0  0  0  0
   -0.6667    2.1493    0.0000 C   0  0  0  0  0  0  0  0  0  0  0  0
   -2.1666   -0.4479    0.0000 C   0  0  0  0  0  0  0  0  0  0  0  0
    1.7465    0.5000    0.0000 C   0  0  0  0  0  0  0  0  0  0  0  0
    2.2535    2.0694    0.0000 C   0  0  0  0  0  0  0  0  0  0  0  0
   -2.6944    0.8785    0.0000 C   0  0  0  0  0  0  0  0  0  0  0  0
   -2.8125    0.0625    0.0000 C   0  0  0  0  0  0  0  0  0  0  0  0
    2.5486    0.6667    0.0000 C   0  0  0  0  0  0  0  0  0  0  0  0
    2.8090    1.4479    0.0000 C   0  0  0  0  0  0  0  0  0  0  0  0
  2  1  1  0  0  0  0
  3  1  1  0  0  0  0
  4  3  1  0  0  0  0
  5  1  1  0  0  0  0
  6  2  2  0  0  0  0
  7  5  2  0  0  0  0
  7  4  1  0  0  0  0
  8  6  1  0  0  0  0
  9  2  1  0  0  0  0
 10  9  2  0  0  0  0
 10  8  1  0  0  0  0
 11 15  1  0  0  0  0
 12 11  3  0  0  0  0
 13  3  2  0  0  0  0
 14  1  1  0  0  0  0
 15  4  1  0  0  0  0
 16  5  1  0  0  0  0
 17  6  1  0  0  0  0
 18  7  1  0  0  0  0
 19  9  1  0  0  0  0
 20 10  1  0  0  0  0
 21 16  2  0  0  0  0
 22 21  1  0  0  0  0
 22 18  2  0  0  0  0
 23 19  2  0  0  0  0
 24 23  1  0  0  0  0
 24 20  2  0  0  0  0
M  END
> <CdId>
1867

> <Mol Weight>
316.3532

> <Formula>
C20H16N2O2

> <Click_ID>
CLK025_B02 __ __ 

$$$$
