CLK019_D09
 OpenBabel03181410512D

 23 24  0  0  0  0  0  0  0  0999 V2000
   -1.1208   -0.8625    0.0000 C    0  0  0  0  0  0  0  0  0  0  0  0
   -1.5333   -1.5750    0.0000 C    0  0  0  0  0  0  0  0  0  0  0  0
   -0.2958   -0.8417    0.0000 C    0  0  0  0  0  0  0  0  0  0  0  0
   -2.3583   -1.5750    0.0000 C    0  0  0  0  0  0  0  0  0  0  0  0
   -3.1833   -1.5667    0.0000 N    0  0  0  0  0  0  0  0  0  0  0  0
   -0.3875    2.0208    0.0000 C    0  0  0  0  0  0  0  0  0  0  0  0
    0.0000    2.7458    0.0000 C    0  0  0  0  0  0  0  0  0  0  0  0
   -1.1250   -2.2917    0.0000 C    0  0  0  0  0  0  0  0  0  0  0  0
    0.0917   -0.1125    0.0000 C    0  0  0  0  0  0  0  0  0  0  0  0
    0.1417   -1.5375    0.0000 C    0  0  0  0  0  0  0  0  0  0  0  0
   -1.5375   -3.0042    0.0000 C    0  0  0  0  0  0  0  0  0  0  0  0
   -0.2958   -2.3000    0.0000 C    0  0  0  0  0  0  0  0  0  0  0  0
    0.9250   -0.0875    0.0000 C    0  0  0  0  0  0  0  0  0  0  0  0
    0.9667   -1.5167    0.0000 C    0  0  0  0  0  0  0  0  0  0  0  0
   -0.3083   -3.7292    0.0000 C    0  0  0  0  0  0  0  0  0  0  0  0
    1.3542   -0.7875    0.0000 C    0  0  0  0  0  0  0  0  0  0  0  0
    0.1125   -3.0167    0.0000 C    0  0  0  0  0  0  0  0  0  0  0  0
   -1.1333   -3.7167    0.0000 C    0  0  0  0  0  0  0  0  0  0  0  0
    0.0917   -4.4417    0.0000 Cl   0  0  0  0  0  0  0  0  0  0  0  0
   -0.3458    0.5875    0.0000 O    0  0  0  0  0  0  0  0  0  0  0  0
    0.0417    1.3208    0.0000 C    0  0  0  0  0  0  0  0  0  0  0  0
    1.3917   -2.2125    0.0000 O    0  0  0  0  0  0  0  0  0  0  0  0
    2.2167   -2.1917    0.0000 C    0  0  0  0  0  0  0  0  0  0  0  0
  2  1  2  0  0  0  0
  3  1  1  0  0  0  0
  4  2  1  0  0  0  0
  5  4  3  0  0  0  0
  6 21  1  0  0  0  0
  7  6  3  0  0  0  0
  8  2  1  0  0  0  0
  9  3  2  0  0  0  0
 10  3  1  0  0  0  0
 11  8  2  0  0  0  0
 12  8  1  0  0  0  0
 13  9  1  0  0  0  0
 13 16  2  0  0  0  0
 14 10  2  0  0  0  0
 15 17  1  0  0  0  0
 15 18  2  0  0  0  0
 16 14  1  0  0  0  0
 17 12  2  0  0  0  0
 18 11  1  0  0  0  0
 19 15  1  0  0  0  0
 20  9  1  0  0  0  0
 21 20  1  0  0  0  0
 22 14  1  0  0  0  0
 23 22  1  0  0  0  0
M  END
> <CdId>
1434

> <Mol Weight>
323.773

> <Formula>
C19H14ClNO2

> <Click_ID>
CLK019_D09 __ __ 

$$$$
