CLK002_G02
 OpenBabel03181410512D

 32 36  0  0  0  0  0  0  0  0999 V2000
   -0.7431    0.0529    0.0000 C   0  0  0  0  0  0  0  0  0  0  0  0
   -1.4597   -0.3302    0.0000 C   0  0  0  0  0  0  0  0  0  0  0  0
   -0.7431    0.8652    0.0000 C   0  0  0  0  0  0  0  0  0  0  0  0
   -0.0231   -0.3302    0.0000 C   0  0  0  0  0  0  0  0  0  0  0  0
   -2.1665    0.0529    0.0000 C   0  0  0  0  0  0  0  0  0  0  0  0
   -2.1499   -0.7299    0.0000 C   0  0  0  0  0  0  0  0  0  0  0  0
   -0.7431   -0.7431    0.0000 C   0  0  0  0  0  0  0  0  0  0  0  0
   -1.4597    1.3276    0.0000 C   0  0  0  0  0  0  0  0  0  0  0  0
   -0.0231    1.3276    0.0000 N   0  0  0  0  0  0  0  0  0  0  0  0
    0.7233    0.0529    0.0000 N   0  0  0  0  0  0  0  0  0  0  0  0
   -0.0231   -1.1823    0.0000 O   0  0  0  0  0  0  0  0  0  0  0  0
   -2.1665    0.8652    0.0000 C   0  0  0  0  0  0  0  0  0  0  0  0
   -2.1499   -1.5654    0.0000 C   0  0  0  0  0  0  0  0  0  0  0  0
   -0.7431   -1.5654    0.0000 C   0  0  0  0  0  0  0  0  0  0  0  0
   -1.4597    2.1499    0.0000 C   0  0  0  0  0  0  0  0  0  0  0  0
    0.7233    0.8652    0.0000 C   0  0  0  0  0  0  0  0  0  0  0  0
    1.4597   -0.3600    0.0000 C   0  0  0  0  0  0  0  0  0  0  0  0
   -2.8864    1.3276    0.0000 C   0  0  0  0  0  0  0  0  0  0  0  0
   -1.4696   -1.9584    0.0000 C   0  0  0  0  0  0  0  0  0  0  0  0
   -2.1665    2.5528    0.0000 C   0  0  0  0  0  0  0  0  0  0  0  0
    1.4729    1.2483    0.0000 S   0  0  0  0  0  0  0  0  0  0  0  0
    1.4597   -1.2286    0.0000 C   0  0  0  0  0  0  0  0  0  0  0  0
   -2.8864    2.1499    0.0000 C   0  0  0  0  0  0  0  0  0  0  0  0
    1.4729    2.0839    0.0000 C   0  0  0  0  0  0  0  0  0  0  0  0
    2.1797   -1.6413    0.0000 C   0  0  0  0  0  0  0  0  0  0  0  0
    0.7530    2.4933    0.0000 C   0  0  0  0  0  0  0  0  0  0  0  0
    2.8962   -1.2286    0.0000 C   0  0  0  0  0  0  0  0  0  0  0  0
    2.1797   -2.4670    0.0000 C   0  0  0  0  0  0  0  0  0  0  0  0
    0.0429    2.8962    0.0000 C   0  0  0  0  0  0  0  0  0  0  0  0
    3.6063   -1.6413    0.0000 C   0  0  0  0  0  0  0  0  0  0  0  0
    2.8896   -2.8864    0.0000 C   0  0  0  0  0  0  0  0  0  0  0  0
    3.6063   -2.4670    0.0000 C   0  0  0  0  0  0  0  0  0  0  0  0
  1  2  1  0  0  0  0
  1  3  2  0  0  0  0
  1  4  1  0  0  0  0
  2  5  1  0  0  0  0
  2  6  1  0  0  0  0
  2  7  1  0  0  0  0
  3  8  1  0  0  0  0
  3  9  1  0  0  0  0
  4 10  1  0  0  0  0
  4 11  2  0  0  0  0
  5 12  1  0  0  0  0
  6 13  1  0  0  0  0
  7 14  1  0  0  0  0
  8 15  2  0  0  0  0
  8 12  1  0  0  0  0
  9 16  2  0  0  0  0
 10 17  1  0  0  0  0
 10 16  1  0  0  0  0
 12 18  2  0  0  0  0
 13 19  1  0  0  0  0
 14 19  1  0  0  0  0
 15 20  1  0  0  0  0
 16 21  1  0  0  0  0
 17 22  1  0  0  0  0
 18 23  1  0  0  0  0
 20 23  2  0  0  0  0
 21 24  1  0  0  0  0
 22 25  1  0  0  0  0
 24 26  1  0  0  0  0
 25 27  2  0  0  0  0
 25 28  1  0  0  0  0
 26 29  3  0  0  0  0
 27 30  1  0  0  0  0
 28 31  2  0  0  0  0
 30 32  2  0  0  0  0
 31 32  1  0  0  0  0
M  END
> <CdId>
141

> <Mol Weight>
440.6

> <Formula>
C28H28N2OS

> <Click_ID>
CLK002_G02 __ __ 

$$$$
