CLK013_D10
 OpenBabel03181410512D

 19 20  0  0  0  0  0  0  0  0999 V2000
    1.5619   -0.8142    0.0000 N   0  0  0  0  0  0  0  0  0  0  0  0
    1.8195   -1.5993    0.0000 C   0  0  0  0  0  0  0  0  0  0  0  0
    2.8954   -0.8142    0.0000 C   0  0  0  0  0  0  0  0  0  0  0  0
    2.2307   -0.3282    0.0000 C   0  0  0  0  0  0  0  0  0  0  0  0
    2.6420   -1.5993    0.0000 S   0  0  0  0  0  0  0  0  0  0  0  0
    3.6805   -0.5608    0.0000 C   0  0  0  0  0  0  0  0  0  0  0  0
    0.6106    0.2451    0.0000 C   0  0  0  0  0  0  0  0  0  0  0  0
    3.8425    0.2451    0.0000 C   0  0  0  0  0  0  0  0  0  0  0  0
    0.3905    1.0426    0.0000 C   0  0  0  0  0  0  0  0  0  0  0  0
    1.3334   -2.2598    0.0000 O   0  0  0  0  0  0  0  0  0  0  0  0
    2.2224    0.4943    0.0000 O   0  0  0  0  0  0  0  0  0  0  0  0
    0.7851   -0.5608    0.0000 C   0  0  0  0  0  0  0  0  0  0  0  0
    4.6276    0.5068    0.0000 C   0  0  0  0  0  0  0  0  0  0  0  0
    5.2341   -0.0416    0.0000 O   0  0  0  0  0  0  0  0  0  0  0  0
    3.2194    0.7934    0.0000 C   0  0  0  0  0  0  0  0  0  0  0  0
    4.7896    1.3168    0.0000 C   0  0  0  0  0  0  0  0  0  0  0  0
    5.0721   -0.8474    0.0000 C   0  0  0  0  0  0  0  0  0  0  0  0
    3.3814    1.5951    0.0000 C   0  0  0  0  0  0  0  0  0  0  0  0
    4.1665    1.8568    0.0000 C   0  0  0  0  0  0  0  0  0  0  0  0
  2  1  1  0  0  0  0
  3  4  1  0  0  0  0
  4  1  1  0  0  0  0
  5  2  1  0  0  0  0
  5  3  1  0  0  0  0
  6  3  2  0  0  0  0
  7 12  1  0  0  0  0
  8  6  1  0  0  0  0
  9  7  3  0  0  0  0
 10  2  2  0  0  0  0
 11  4  2  0  0  0  0
 12  1  1  0  0  0  0
 13  8  1  0  0  0  0
 14 13  1  0  0  0  0
 15  8  2  0  0  0  0
 16 13  2  0  0  0  0
 16 19  1  0  0  0  0
 17 14  1  0  0  0  0
 18 15  1  0  0  0  0
 19 18  2  0  0  0  0
M  END
> <CdId>
955

> <Mol Weight>
273.307

> <Formula>
C14H11NO3S

> <Click_ID>
CLK013_D10 __ __ 

$$$$
