CLK027_B08
 OpenBabel03181410512D

 20 21  0  0  0  0  0  0  0  0999 V2000
   -1.9932   -0.3574    0.0000 N   0  0  0  0  0  0  0  0  0  0  0  0
   -2.3918   -1.0790    0.0000 C   0  0  0  0  0  0  0  0  0  0  0  0
   -1.1753   -0.5258    0.0000 C   0  0  0  0  0  0  0  0  0  0  0  0
   -1.0893   -1.3437    0.0000 C   0  0  0  0  0  0  0  0  0  0  0  0
   -1.8385   -1.6804    0.0000 S   0  0  0  0  0  0  0  0  0  0  0  0
   -0.3780   -1.7491    0.0000 C   0  0  0  0  0  0  0  0  0  0  0  0
   -1.8522    1.0447    0.0000 C   0  0  0  0  0  0  0  0  0  0  0  0
   -1.4124    1.7526    0.0000 C   0  0  0  0  0  0  0  0  0  0  0  0
    1.0309   -0.0790    0.0000 C   0  0  0  0  0  0  0  0  0  0  0  0
   -3.2027   -1.1684    0.0000 O   0  0  0  0  0  0  0  0  0  0  0  0
   -0.5808    0.0344    0.0000 O   0  0  0  0  0  0  0  0  0  0  0  0
    0.3334   -1.3299    0.0000 C   0  0  0  0  0  0  0  0  0  0  0  0
   -2.3264    0.3814    0.0000 C   0  0  0  0  0  0  0  0  0  0  0  0
    0.3196   -0.4948    0.0000 C   0  0  0  0  0  0  0  0  0  0  0  0
    1.7560   -0.4811    0.0000 C   0  0  0  0  0  0  0  0  0  0  0  0
    1.7767   -1.3058    0.0000 C   0  0  0  0  0  0  0  0  0  0  0  0
    1.0309    0.7423    0.0000 I   0  0  0  0  0  0  0  0  0  0  0  0
    1.0584   -1.7423    0.0000 C   0  0  0  0  0  0  0  0  0  0  0  0
    2.4674   -0.0653    0.0000 O   0  0  0  0  0  0  0  0  0  0  0  0
    3.1993   -0.4674    0.0000 C   0  0  0  0  0  0  0  0  0  0  0  0
  2  1  1  0  0  0  0
  3  1  1  0  0  0  0
  4  3  1  0  0  0  0
  5  2  1  0  0  0  0
  5  4  1  0  0  0  0
  6  4  2  0  0  0  0
  7 13  1  0  0  0  0
  8  7  3  0  0  0  0
  9 14  1  0  0  0  0
 10  2  2  0  0  0  0
 11  3  2  0  0  0  0
 12  6  1  0  0  0  0
 13  1  1  0  0  0  0
 14 12  2  0  0  0  0
 15 16  1  0  0  0  0
 15  9  2  0  0  0  0
 16 18  2  0  0  0  0
 17  9  1  0  0  0  0
 18 12  1  0  0  0  0
 19 15  1  0  0  0  0
 20 19  1  0  0  0  0
M  END
> <CdId>
2032

> <Mol Weight>
399.204

> <Formula>
C14H10INO3S

> <Click_ID>
CLK027_B08 __ __ 

$$$$
