CLK020_E04
 OpenBabel03181410512D

 24 26  0  0  0  0  0  0  0  0999 V2000
    5.5016    2.5102    0.0000 C    0  0  0  0  0  0  0  0  0  0  0  0
    4.7870    2.9225    0.0000 C    0  0  0  0  0  0  0  0  0  0  0  0
    5.5931    1.6903    0.0000 N    0  0  0  0  0  0  0  0  0  0  0  0
    6.2574    2.8447    0.0000 N    0  0  0  0  0  0  0  0  0  0  0  0
    4.0724    2.5102    0.0000 C    0  0  0  0  0  0  0  0  0  0  0  0
    4.0724    1.6857    0.0000 C    0  0  0  0  0  0  0  0  0  0  0  0
    4.7870    3.7470    0.0000 C    0  0  0  0  0  0  0  0  0  0  0  0
    6.3948    1.5208    0.0000 C    0  0  0  0  0  0  0  0  0  0  0  0
    6.8071    2.2354    0.0000 C    0  0  0  0  0  0  0  0  0  0  0  0
    4.7870    4.5671    0.0000 N    0  0  0  0  0  0  0  0  0  0  0  0
    1.2231    1.6857    0.0000 C    0  0  0  0  0  0  0  0  0  0  0  0
    0.5085    2.0980    0.0000 C    0  0  0  0  0  0  0  0  0  0  0  0
    3.3578    1.2734    0.0000 C    0  0  0  0  0  0  0  0  0  0  0  0
    4.7870    1.2734    0.0000 C    0  0  0  0  0  0  0  0  0  0  0  0
    3.3578    0.4489    0.0000 C    0  0  0  0  0  0  0  0  0  0  0  0
    4.7870    0.4489    0.0000 C    0  0  0  0  0  0  0  0  0  0  0  0
    4.0724    0.0366    0.0000 C    0  0  0  0  0  0  0  0  0  0  0  0
    5.5016    0.0366    0.0000 Br   0  0  0  0  0  0  0  0  0  0  0  0
    2.6432    1.6857    0.0000 O    0  0  0  0  0  0  0  0  0  0  0  0
    1.9285    1.2734    0.0000 C    0  0  0  0  0  0  0  0  0  0  0  0
    6.8071    0.8062    0.0000 C    0  0  0  0  0  0  0  0  0  0  0  0
    7.6316    2.2354    0.0000 C    0  0  0  0  0  0  0  0  0  0  0  0
    7.6316    0.8062    0.0000 C    0  0  0  0  0  0  0  0  0  0  0  0
    8.0439    1.5208    0.0000 C    0  0  0  0  0  0  0  0  0  0  0  0
  2  1  1  0  0  0  0
  3  1  2  0  0  0  0
  4  1  1  0  0  0  0
  5  2  2  0  0  0  0
  6  5  1  0  0  0  0
  7  2  1  0  0  0  0
  8  3  1  0  0  0  0
  8  9  2  0  0  0  0
  9  4  1  0  0  0  0
 10  7  3  0  0  0  0
 11 20  1  0  0  0  0
 12 11  3  0  0  0  0
 13  6  2  0  0  0  0
 14  6  1  0  0  0  0
 15 13  1  0  0  0  0
 15 17  2  0  0  0  0
 16 14  2  0  0  0  0
 17 16  1  0  0  0  0
 18 16  1  0  0  0  0
 19 13  1  0  0  0  0
 20 19  1  0  0  0  0
 21  8  1  0  0  0  0
 22  9  1  0  0  0  0
 23 21  2  0  0  0  0
 24 22  2  0  0  0  0
 24 23  1  0  0  0  0
M  END
> <CdId>
1519

> <Mol Weight>
378.222

> <Formula>
C19H12BrN3O

> <Click_ID>
CLK020_E04 __ __ 

$$$$
