CLK038A11
 OpenBabel03181410512D

 26 29  0  0  0  0  0  0  0  0999 V2000
    0.2583   -1.0417    0.0000 C   0  0  0  0  0  0  0  0  0  0  0  0
    0.7417   -0.3750    0.0000 C   0  0  0  0  0  0  0  0  0  0  0  0
    1.5292   -0.6292    0.0000 C   0  0  0  0  0  0  0  0  0  0  0  0
    0.7417   -1.7083    0.0000 S   0  0  0  0  0  0  0  0  0  0  0  0
    1.5292   -1.4542    0.0000 C   0  0  0  0  0  0  0  0  0  0  0  0
    0.4083    0.3792    0.0000 N   0  0  0  0  0  0  0  0  0  0  0  0
   -0.4125    0.4667    0.0000 C   0  0  3  0  0  0  0  0  0  0  0  0
   -0.5625   -0.9583    0.0000 C   0  0  0  0  0  0  0  0  0  0  0  0
   -0.9000   -0.2042    0.0000 N   0  0  0  0  0  0  0  0  0  0  0  0
   -0.7500    1.2167    0.0000 C   0  0  0  0  0  0  0  0  0  0  0  0
    2.2417   -1.8667    0.0000 N   0  0  0  0  0  0  0  0  0  0  0  0
    2.2417   -0.2167    0.0000 C   0  0  0  0  0  0  0  0  0  0  0  0
   -3.3583    0.0542    0.0000 C   0  0  0  0  0  0  0  0  0  0  0  0
   -3.8458   -0.6125    0.0000 C   0  0  0  0  0  0  0  0  0  0  0  0
    2.9542   -0.6292    0.0000 C   0  0  0  0  0  0  0  0  0  0  0  0
    2.9542   -1.4542    0.0000 C   0  0  0  0  0  0  0  0  0  0  0  0
   -1.0458   -1.6250    0.0000 O   0  0  0  0  0  0  0  0  0  0  0  0
   -1.5708    1.3042    0.0000 C   0  0  0  0  0  0  0  0  0  0  0  0
   -0.2625    1.8875    0.0000 C   0  0  0  0  0  0  0  0  0  0  0  0
   -2.0542    0.6375    0.0000 O   0  0  0  0  0  0  0  0  0  0  0  0
    2.2417    0.6083    0.0000 C   0  0  0  0  0  0  0  0  0  0  0  0
   -2.8750    0.7250    0.0000 C   0  0  0  0  0  0  0  0  0  0  0  0
    3.6708   -1.8667    0.0000 C   0  0  0  0  0  0  0  0  0  0  0  0
   -1.9042    2.0583    0.0000 C   0  0  0  0  0  0  0  0  0  0  0  0
   -0.6000    2.6375    0.0000 C   0  0  0  0  0  0  0  0  0  0  0  0
   -1.4208    2.7250    0.0000 C   0  0  0  0  0  0  0  0  0  0  0  0
  2  1  2  0  0  0  0
  3  2  1  0  0  0  0
  4  1  1  0  0  0  0
  5  4  1  0  0  0  0
  5  3  2  0  0  0  0
  6  2  1  0  0  0  0
  7  6  1  0  0  0  0
  8  1  1  0  0  0  0
  9  8  1  0  0  0  0
  9  7  1  0  0  0  0
 10  7  1  0  0  0  0
 11  5  1  0  0  0  0
 12  3  1  0  0  0  0
 13 22  1  0  0  0  0
 14 13  3  0  0  0  0
 15 12  2  0  0  0  0
 15 16  1  0  0  0  0
 16 11  2  0  0  0  0
 17  8  2  0  0  0  0
 18 10  2  0  0  0  0
 19 10  1  0  0  0  0
 20 18  1  0  0  0  0
 21 12  1  0  0  0  0
 22 20  1  0  0  0  0
 23 16  1  0  0  0  0
 24 18  1  0  0  0  0
 25 19  2  0  0  0  0
 26 24  2  0  0  0  0
 26 25  1  0  0  0  0
M  END
> <CdId>
2921

> <Mol Weight>
363.433

> <Formula>
C20H17N3O2S

> <Click_ID>
CLK038A11 __ __ 

$$$$
