CLK005_D10
 OpenBabel03181410512D

 23 24  0  0  0  0  0  0  0  0999 V2000
    0.1723    0.5962    0.0000 C   0  0  0  0  0  0  0  0  0  0  0  0
   -0.5410    0.1792    0.0000 C   0  0  0  0  0  0  0  0  0  0  0  0
    0.9270    0.2653    0.0000 O   0  0  0  0  0  0  0  0  0  0  0  0
    0.2515    1.4163    0.0000 C   0  0  0  0  0  0  0  0  0  0  0  0
   -0.5410   -0.6548    0.0000 C   0  0  0  0  0  0  0  0  0  0  0  0
   -1.2613    0.5927    0.0000 C   0  0  0  0  0  0  0  0  0  0  0  0
    1.4749    0.8787    0.0000 C   0  0  0  0  0  0  0  0  0  0  0  0
    1.0614    1.5921    0.0000 C   0  0  0  0  0  0  0  0  0  0  0  0
   -1.2613   -1.0648    0.0000 C   0  0  0  0  0  0  0  0  0  0  0  0
   -1.9711    0.1723    0.0000 C   0  0  0  0  0  0  0  0  0  0  0  0
    2.2951    0.7926    0.0000 C   0  0  0  0  0  0  0  0  0  0  0  0
   -1.9711   -0.6548    0.0000 C   0  0  0  0  0  0  0  0  0  0  0  0
   -1.2509   -1.8954    0.0000 C   0  0  0  0  0  0  0  0  0  0  0  0
    2.7741    1.4645    0.0000 C   0  0  0  0  0  0  0  0  0  0  0  0
   -1.9711   -2.3054    0.0000 O   0  0  0  0  0  0  0  0  0  0  0  0
   -0.5410   -2.3054    0.0000 O   0  0  0  0  0  0  0  0  0  0  0  0
    3.5976    1.3784    0.0000 C   0  0  0  0  0  0  0  0  0  0  0  0
    2.4363    2.2089    0.0000 C   0  0  0  0  0  0  0  0  0  0  0  0
   -2.6844   -1.8954    0.0000 C   0  0  0  0  0  0  0  0  0  0  0  0
    4.4178    1.3025    0.0000 N   0  0  0  0  0  0  0  0  0  0  0  0
    2.0883    2.9567    0.0000 N   0  0  0  0  0  0  0  0  0  0  0  0
   -3.3978   -2.3054    0.0000 C   0  0  0  0  0  0  0  0  0  0  0  0
   -4.1076   -2.7189    0.0000 C   0  0  0  0  0  0  0  0  0  0  0  0
  1  2  1  0  0  0  0
  1  3  1  0  0  0  0
  1  4  2  0  0  0  0
  2  5  1  0  0  0  0
  2  6  2  0  0  0  0
  3  7  1  0  0  0  0
  4  8  1  0  0  0  0
  5  9  2  0  0  0  0
  6 10  1  0  0  0  0
  7 11  1  0  0  0  0
  7  8  2  0  0  0  0
  9 12  1  0  0  0  0
  9 13  1  0  0  0  0
 10 12  2  0  0  0  0
 11 14  2  0  0  0  0
 13 15  1  0  0  0  0
 13 16  2  0  0  0  0
 14 17  1  0  0  0  0
 14 18  1  0  0  0  0
 15 19  1  0  0  0  0
 17 20  3  0  0  0  0
 18 21  3  0  0  0  0
 19 22  1  0  0  0  0
 22 23  3  0  0  0  0
M  END
> <CdId>
359

> <Mol Weight>
302.2836

> <Formula>
C18H10N2O3

> <Click_ID>
CLK005_D10 __ __ 

$$$$
