CLK008_H05
 OpenBabel03181410512D

 18 18  0  0  0  0  0  0  0  0999 V2000
    1.3271    0.0885    0.0000 C    0  0  0  0  0  0  0  0  0  0  0  0
    0.5270    0.3461    0.0000 S    0  0  0  0  0  0  0  0  0  0  0  0
    1.9771    0.6039    0.0000 C    0  0  0  0  0  0  0  0  0  0  0  0
    1.4770   -0.7193    0.0000 C    0  0  0  0  0  0  0  0  0  0  0  0
   -0.2654    0.6039    0.0000 C    0  0  0  0  0  0  0  0  0  0  0  0
    0.2693   -0.4385    0.0000 O    0  0  0  0  0  0  0  0  0  0  0  0
    0.7846    1.1386    0.0000 O    0  0  0  0  0  0  0  0  0  0  0  0
    2.7579    0.3039    0.0000 C    0  0  0  0  0  0  0  0  0  0  0  0
    2.2425   -1.0270    0.0000 C    0  0  0  0  0  0  0  0  0  0  0  0
   -0.8655    0.0462    0.0000 C    0  0  0  0  0  0  0  0  0  0  0  0
    2.8888   -0.4962    0.0000 C    0  0  0  0  0  0  0  0  0  0  0  0
   -1.6463    0.3039    0.0000 C    0  0  0  0  0  0  0  0  0  0  0  0
    3.6696   -0.7885    0.0000 C    0  0  0  0  0  0  0  0  0  0  0  0
   -2.2579   -0.2462    0.0000 C    0  0  0  0  0  0  0  0  0  0  0  0
   -3.0233    0.0077    0.0000 Si   0  0  0  0  0  0  0  0  0  0  0  0
   -3.2657   -0.7731    0.0000 C    0  0  0  0  0  0  0  0  0  0  0  0
   -3.8195    0.2462    0.0000 C    0  0  0  0  0  0  0  0  0  0  0  0
   -2.7772    0.7923    0.0000 C    0  0  0  0  0  0  0  0  0  0  0  0
  1  2  1  0  0  0  0
  1  3  1  0  0  0  0
  1  4  2  0  0  0  0
  2  5  1  0  0  0  0
  2  6  2  0  0  0  0
  2  7  2  0  0  0  0
  3  8  2  0  0  0  0
  4  9  1  0  0  0  0
  5 10  2  0  0  0  0
  8 11  1  0  0  0  0
  9 11  2  0  0  0  0
 10 12  1  0  0  0  0
 11 13  1  0  0  0  0
 12 14  3  0  0  0  0
 14 15  1  0  0  0  0
 15 16  1  0  0  0  0
 15 17  1  0  0  0  0
 15 18  1  0  0  0  0
M  END
> <CdId>
596

> <Mol Weight>
278.442

> <Formula>
C14H18O2SSi

> <Click_ID>
CLK008_H05 __ __ 

$$$$
