CLK045H10
 OpenBabel03181410512D

 27 29  0  0  0  0  0  0  0  0999 V2000
    0.3042   -1.0583    0.0000 N   0  0  0  0  0  0  0  0  0  0  0  0
    1.7333   -1.0583    0.0000 C   0  0  0  0  0  0  0  0  0  0  0  0
    1.7333   -0.2333    0.0000 C   0  0  0  0  0  0  0  0  0  0  0  0
    1.0208   -1.4708    0.0000 C   0  0  0  0  0  0  0  0  0  0  0  0
    1.0208    0.1792    0.0000 N   0  0  0  0  0  0  0  0  0  0  0  0
    0.3042   -0.2333    0.0000 C   0  0  0  0  0  0  0  0  0  0  0  0
    2.5208    0.0208    0.0000 S   0  0  0  0  0  0  0  0  0  0  0  0
    2.5208   -1.3125    0.0000 C   0  0  0  0  0  0  0  0  0  0  0  0
    3.0042   -0.6458    0.0000 C   0  0  0  0  0  0  0  0  0  0  0  0
   -0.4083    0.1792    0.0000 S   0  0  0  0  0  0  0  0  0  0  0  0
   -0.4083   -1.4708    0.0000 C   0  0  0  0  0  0  0  0  0  0  0  0
   -1.8375    3.4792    0.0000 C   0  0  0  0  0  0  0  0  0  0  0  0
    1.0208   -2.2958    0.0000 O   0  0  0  0  0  0  0  0  0  0  0  0
   -1.8375    4.3000    0.0000 C   0  0  0  0  0  0  0  0  0  0  0  0
   -1.1250    1.4167    0.0000 C   0  0  0  0  0  0  0  0  0  0  0  0
   -1.8375    1.0042    0.0000 O   0  0  0  0  0  0  0  0  0  0  0  0
   -0.4083    1.0042    0.0000 C   0  0  0  0  0  0  0  0  0  0  0  0
   -1.1250    2.2417    0.0000 N   0  0  0  0  0  0  0  0  0  0  0  0
   -1.1250   -1.0583    0.0000 C   0  0  0  0  0  0  0  0  0  0  0  0
    2.7750   -2.1000    0.0000 C   0  0  0  0  0  0  0  0  0  0  0  0
    3.8292   -0.6458    0.0000 C   0  0  0  0  0  0  0  0  0  0  0  0
   -1.8375    2.6542    0.0000 C   0  0  0  0  0  0  0  0  0  0  0  0
   -1.8375   -1.4708    0.0000 C   0  0  0  0  0  0  0  0  0  0  0  0
   -1.1250   -0.2333    0.0000 C   0  0  0  0  0  0  0  0  0  0  0  0
   -1.8375    0.1792    0.0000 C   0  0  0  0  0  0  0  0  0  0  0  0
   -2.5500   -1.0583    0.0000 C   0  0  0  0  0  0  0  0  0  0  0  0
   -2.5500   -0.2333    0.0000 C   0  0  0  0  0  0  0  0  0  0  0  0
  2  4  1  0  0  0  0
  3  2  2  0  0  0  0
  4  1  1  0  0  0  0
  5  6  2  0  0  0  0
  5  3  1  0  0  0  0
  6  1  1  0  0  0  0
  7  3  1  0  0  0  0
  7  9  1  0  0  0  0
  8  2  1  0  0  0  0
  9  8  2  0  0  0  0
 10  6  1  0  0  0  0
 11  1  1  0  0  0  0
 12 22  1  0  0  0  0
 13  4  2  0  0  0  0
 14 12  3  0  0  0  0
 15 17  1  0  0  0  0
 16 15  2  0  0  0  0
 17 10  1  0  0  0  0
 18 15  1  0  0  0  0
 19 11  1  0  0  0  0
 20  8  1  0  0  0  0
 21  9  1  0  0  0  0
 22 18  1  0  0  0  0
 23 19  2  0  0  0  0
 24 19  1  0  0  0  0
 25 24  2  0  0  0  0
 26 23  1  0  0  0  0
 27 26  2  0  0  0  0
 27 25  1  0  0  0  0
M  END
> <CdId>
3480

> <Mol Weight>
397.514

> <Formula>
C20H19N3O2S2

> <Click_ID>
CLK045H10 __ __ 

$$$$
