CLK025_G02
 OpenBabel03181410512D

 26 28  0  0  0  0  0  0  0  0999 V2000
   -1.5400    2.4371    0.0000 C    0  0  0  0  0  0  0  0  0  0  0  0
   -2.0246    3.1108    0.0000 N    0  0  0  0  0  0  0  0  0  0  0  0
   -2.0109    1.7634    0.0000 S    0  0  0  0  0  0  0  0  0  0  0  0
    1.7634   -0.3919    0.0000 C    0  0  0  0  0  0  0  0  0  0  0  0
    0.9419   -0.3919    0.0000 C    0  0  0  0  0  0  0  0  0  0  0  0
    2.1759    0.3197    0.0000 C    0  0  0  0  0  0  0  0  0  0  0  0
   -2.8084    2.8393    0.0000 C    0  0  0  0  0  0  0  0  0  0  0  0
   -2.8014    2.0143    0.0000 C    0  0  0  0  0  0  0  0  0  0  0  0
    2.1827   -2.5333    0.0000 C    0  0  0  0  0  0  0  0  0  0  0  0
    1.7772   -3.2552    0.0000 C    0  0  0  0  0  0  0  0  0  0  0  0
   -0.2956    1.7393    0.0000 N    0  0  0  0  0  0  0  0  0  0  0  0
   -0.7150    2.4508    0.0000 N    0  0  0  0  0  0  0  0  0  0  0  0
    0.5294    0.3128    0.0000 C    0  0  0  0  0  0  0  0  0  0  0  0
    1.7634    1.0347    0.0000 C    0  0  0  0  0  0  0  0  0  0  0  0
    0.9419    1.0312    0.0000 C    0  0  0  0  0  0  0  0  0  0  0  0
    0.5294    1.7393    0.0000 C    0  0  0  0  0  0  0  0  0  0  0  0
    0.5294   -1.1137    0.0000 Cl   0  0  0  0  0  0  0  0  0  0  0  0
    2.1827   -1.0999    0.0000 O    0  0  0  0  0  0  0  0  0  0  0  0
    2.9974    0.3335    0.0000 O    0  0  0  0  0  0  0  0  0  0  0  0
    1.7634   -1.8184    0.0000 C    0  0  0  0  0  0  0  0  0  0  0  0
   -3.5302    3.2586    0.0000 C    0  0  0  0  0  0  0  0  0  0  0  0
   -3.5302    1.6155    0.0000 C    0  0  0  0  0  0  0  0  0  0  0  0
    3.4168   -0.3644    0.0000 C    0  0  0  0  0  0  0  0  0  0  0  0
    4.2383   -0.3541    0.0000 C    0  0  0  0  0  0  0  0  0  0  0  0
   -4.2418    2.8393    0.0000 C    0  0  0  0  0  0  0  0  0  0  0  0
   -4.2418    2.0143    0.0000 C    0  0  0  0  0  0  0  0  0  0  0  0
  2  1  2  0  0  0  0
  3  1  1  0  0  0  0
  4  6  1  0  0  0  0
  4  5  2  0  0  0  0
  5 13  1  0  0  0  0
  6 14  2  0  0  0  0
  7  2  1  0  0  0  0
  8  3  1  0  0  0  0
  8  7  1  0  0  0  0
  9 20  1  0  0  0  0
 10  9  3  0  0  0  0
 11 12  1  0  0  0  0
 12  1  1  0  0  0  0
 13 15  2  0  0  0  0
 14 15  1  0  0  0  0
 15 16  1  0  0  0  0
 16 11  2  0  0  0  0
 17  5  1  0  0  0  0
 18  4  1  0  0  0  0
 19  6  1  0  0  0  0
 20 18  1  0  0  0  0
 21  7  2  0  0  0  0
 22  8  2  0  0  0  0
 23 19  1  0  0  0  0
 24 23  1  0  0  0  0
 25 21  1  0  0  0  0
 26 22  1  0  0  0  0
 26 25  2  0  0  0  0
M  END
> <CdId>
1917

> <Mol Weight>
385.867

> <Formula>
C19H16ClN3O2S

> <Click_ID>
CLK025_G02 __ __ 

$$$$
