CLK048H07
 OpenBabel03181410512D

 22 24  0  0  0  0  0  0  0  0999 V2000
    0.4208   -2.8208    0.0000 N   0  0  0  0  0  0  0  0  0  0  0  0
    0.4208    0.4792    0.0000 C   0  0  0  0  0  0  0  0  0  0  0  0
    0.4208   -1.9958    0.0000 C   0  0  0  0  0  0  0  0  0  0  0  0
    0.4208   -0.3458    0.0000 C   0  0  0  0  0  0  0  0  0  0  0  0
    1.1333   -1.5833    0.0000 N   0  0  0  0  0  0  0  0  0  0  0  0
    0.8333   -4.0875    0.0000 N   0  0  0  0  0  0  0  0  0  0  0  0
   -0.2958    0.8917    0.0000 N   0  0  0  0  0  0  0  0  0  0  0  0
    1.0875   -3.3042    0.0000 C   0  0  0  0  0  0  0  0  0  0  0  0
   -1.7250    3.3667    0.0000 C   0  0  0  0  0  0  0  0  0  0  0  0
   -2.4375    3.7792    0.0000 C   0  0  0  0  0  0  0  0  0  0  0  0
    1.1333   -0.7583    0.0000 C   0  0  0  0  0  0  0  0  0  0  0  0
   -0.2458   -3.3042    0.0000 C   0  0  0  0  0  0  0  0  0  0  0  0
    0.0083   -4.0875    0.0000 C   0  0  0  0  0  0  0  0  0  0  0  0
    1.1333    0.8917    0.0000 O   0  0  0  0  0  0  0  0  0  0  0  0
   -0.2958   -0.7583    0.0000 C   0  0  0  0  0  0  0  0  0  0  0  0
   -0.2958    1.7167    0.0000 C   0  0  0  0  0  0  0  0  0  0  0  0
   -0.2958   -1.5833    0.0000 C   0  0  0  0  0  0  0  0  0  0  0  0
   -1.0083    2.9542    0.0000 C   0  0  0  0  0  0  0  0  0  0  0  0
   -1.0083    2.1292    0.0000 C   0  0  0  0  0  0  0  0  0  0  0  0
    0.4208    2.9542    0.0000 C   0  0  0  0  0  0  0  0  0  0  0  0
    0.4208    2.1292    0.0000 C   0  0  0  0  0  0  0  0  0  0  0  0
   -0.2958    3.3667    0.0000 C   0  0  0  0  0  0  0  0  0  0  0  0
  2  4  1  0  0  0  0
  3  1  1  0  0  0  0
  4 11  2  0  0  0  0
  5  3  2  0  0  0  0
  6  8  2  0  0  0  0
  6 13  1  0  0  0  0
  7  2  1  0  0  0  0
  8  1  1  0  0  0  0
  9 18  1  0  0  0  0
 10  9  3  0  0  0  0
 11  5  1  0  0  0  0
 12  1  1  0  0  0  0
 13 12  2  0  0  0  0
 14  2  2  0  0  0  0
 15 17  2  0  0  0  0
 15  4  1  0  0  0  0
 16  7  1  0  0  0  0
 17  3  1  0  0  0  0
 18 19  1  0  0  0  0
 19 16  2  0  0  0  0
 20 21  2  0  0  0  0
 21 16  1  0  0  0  0
 22 18  2  0  0  0  0
 22 20  1  0  0  0  0
M  END
> <CdId>
3696

> <Mol Weight>
288.3034

> <Formula>
C17H12N4O

> <Click_ID>
CLK048H07 __ __ 

$$$$
