CLK048H02
 OpenBabel03181410512D

 15 16  0  0  0  0  0  0  0  0999 V2000
   -2.2167   -0.3917    0.0000 N   0  0  0  0  0  0  0  0  0  0  0  0
   -1.4333   -0.1375    0.0000 C   0  0  0  0  0  0  0  0  0  0  0  0
    0.7125   -0.5500    0.0000 C   0  0  0  0  0  0  0  0  0  0  0  0
   -2.7000    0.2750    0.0000 C   0  0  0  0  0  0  0  0  0  0  0  0
   -0.0042   -0.1375    0.0000 C   0  0  0  0  0  0  0  0  0  0  0  0
   -2.2167    0.9458    0.0000 N   0  0  0  0  0  0  0  0  0  0  0  0
    2.8542   -0.1375    0.0000 C   0  0  0  0  0  0  0  0  0  0  0  0
   -0.7167   -0.5500    0.0000 C   0  0  0  0  0  0  0  0  0  0  0  0
    3.5708    0.2750    0.0000 C   0  0  0  0  0  0  0  0  0  0  0  0
   -1.4333    0.6875    0.0000 C   0  0  0  0  0  0  0  0  0  0  0  0
    0.7125   -1.3750    0.0000 O   0  0  0  0  0  0  0  0  0  0  0  0
   -0.0042    0.6875    0.0000 C   0  0  0  0  0  0  0  0  0  0  0  0
   -0.7167    1.1000    0.0000 C   0  0  0  0  0  0  0  0  0  0  0  0
    1.4250   -0.1375    0.0000 N   0  0  0  0  0  0  0  0  0  0  0  0
    2.1417   -0.5500    0.0000 C   0  0  0  0  0  0  0  0  0  0  0  0
  2  1  1  0  0  0  0
  3  5  1  0  0  0  0
  4  1  2  0  0  0  0
  5  8  2  0  0  0  0
  6  4  1  0  0  0  0
  6 10  1  0  0  0  0
  7 15  1  0  0  0  0
  8  2  1  0  0  0  0
  9  7  3  0  0  0  0
 10  2  2  0  0  0  0
 11  3  2  0  0  0  0
 12  5  1  0  0  0  0
 13 10  1  0  0  0  0
 13 12  2  0  0  0  0
 14  3  1  0  0  0  0
 15 14  1  0  0  0  0
M  END
> <CdId>
3656

> <Mol Weight>
199.2087

> <Formula>
C11H9N3O

> <Click_ID>
CLK048H02 __ __ 

$$$$
