CLK033_C05
 OpenBabel03181410512D

 24 26  0  0  0  0  0  0  0  0999 V2000
   -4.6004    2.5609    0.0000 C   0  0  0  0  0  0  0  0  0  0  0  0
   -3.8664    2.9863    0.0000 N   0  0  0  0  0  0  0  0  0  0  0  0
   -4.6922    1.7351    0.0000 N   0  0  0  0  0  0  0  0  0  0  0  0
   -5.3262    2.9029    0.0000 S   0  0  0  0  0  0  0  0  0  0  0  0
   -3.8747    3.8038    0.0000 C   0  0  0  0  0  0  0  0  0  0  0  0
   -5.5013    1.5849    0.0000 C   0  0  0  0  0  0  0  0  0  0  0  0
   -5.9018    2.3106    0.0000 C   0  0  0  0  0  0  0  0  0  0  0  0
   -4.2751    0.3587    0.0000 C   0  0  0  0  0  0  0  0  0  0  0  0
   -3.1615    4.2168    0.0000 C   0  0  0  0  0  0  0  0  0  0  0  0
   -4.4628   -0.4547    0.0000 C   0  0  0  0  0  0  0  0  0  0  0  0
   -4.5879    4.2168    0.0000 O   0  0  0  0  0  0  0  0  0  0  0  0
   -5.9310    0.8842    0.0000 C   0  0  0  0  0  0  0  0  0  0  0  0
   -2.4483    3.8038    0.0000 C   0  0  0  0  0  0  0  0  0  0  0  0
   -4.0874    1.1637    0.0000 C   0  0  0  0  0  0  0  0  0  0  0  0
   -1.7351    4.2084    0.0000 C   0  0  0  0  0  0  0  0  0  0  0  0
   -6.7193    2.3357    0.0000 C   0  0  0  0  0  0  0  0  0  0  0  0
   -0.9968    3.8038    0.0000 O   0  0  0  0  0  0  0  0  0  0  0  0
   -3.1615    5.0343    0.0000 C   0  0  0  0  0  0  0  0  0  0  0  0
   -7.1489    1.6266    0.0000 C   0  0  0  0  0  0  0  0  0  0  0  0
   -2.4483    5.4472    0.0000 C   0  0  0  0  0  0  0  0  0  0  0  0
   -6.7360    0.8967    0.0000 C   0  0  0  0  0  0  0  0  0  0  0  0
   -5.5389    0.1502    0.0000 C   0  0  0  0  0  0  0  0  0  0  0  0
   -1.7267    5.0343    0.0000 C   0  0  0  0  0  0  0  0  0  0  0  0
   -0.2836    4.2084    0.0000 C   0  0  0  0  0  0  0  0  0  0  0  0
  2  1  2  0  0  0  0
  3  1  1  0  0  0  0
  4  1  1  0  0  0  0
  5  2  1  0  0  0  0
  6  3  1  0  0  0  0
  7  4  1  0  0  0  0
  7  6  2  0  0  0  0
  8 14  1  0  0  0  0
  9  5  1  0  0  0  0
 10  8  3  0  0  0  0
 11  5  2  0  0  0  0
 12  6  1  0  0  0  0
 13  9  2  0  0  0  0
 14  3  1  0  0  0  0
 15 13  1  0  0  0  0
 15 23  2  0  0  0  0
 16  7  1  0  0  0  0
 17 15  1  0  0  0  0
 18  9  1  0  0  0  0
 19 16  2  0  0  0  0
 20 18  2  0  0  0  0
 21 12  2  0  0  0  0
 21 19  1  0  0  0  0
 22 12  1  0  0  0  0
 23 20  1  0  0  0  0
 24 17  1  0  0  0  0
M  END
> <CdId>
2509

> <Mol Weight>
336.408

> <Formula>
C19H16N2O2S

> <Click_ID>
CLK033_C05 __ __ 

$$$$
