CLK050B09
 OpenBabel03181410512D

 17 17  0  0  0  0  0  0  0  0999 V2000
   -1.5583    0.1250    0.0000 C   0  0  0  0  0  0  0  0  0  0  0  0
   -3.7000   -0.2875    0.0000 C   0  0  0  0  0  0  0  0  0  0  0  0
   -4.4167   -0.7000    0.0000 C   0  0  0  0  0  0  0  0  0  0  0  0
   -1.5583    0.9500    0.0000 O   0  0  0  0  0  0  0  0  0  0  0  0
   -0.8417   -0.2875    0.0000 N   0  0  0  0  0  0  0  0  0  0  0  0
   -2.2708   -0.2875    0.0000 N   0  0  0  0  0  0  0  0  0  0  0  0
    2.0167   -0.2875    0.0000 C   0  0  0  0  0  0  0  0  0  0  0  0
    1.3000    0.1250    0.0000 C   0  0  0  0  0  0  0  0  0  0  0  0
   -2.9875    0.1250    0.0000 C   0  0  0  0  0  0  0  0  0  0  0  0
   -0.1292    0.1250    0.0000 C   0  0  0  0  0  0  0  0  0  0  0  0
    2.0167   -1.1125    0.0000 O   0  0  0  0  0  0  0  0  0  0  0  0
    0.5875   -0.2875    0.0000 C   0  0  0  0  0  0  0  0  0  0  0  0
    2.7292    0.1250    0.0000 C   0  0  0  0  0  0  0  0  0  0  0  0
    1.3000    0.9500    0.0000 C   0  0  0  0  0  0  0  0  0  0  0  0
    2.7292   -1.5250    0.0000 C   0  0  0  0  0  0  0  0  0  0  0  0
    2.0167    1.3625    0.0000 C   0  0  0  0  0  0  0  0  0  0  0  0
    2.7292    0.9500    0.0000 C   0  0  0  0  0  0  0  0  0  0  0  0
  2  9  1  0  0  0  0
  3  2  3  0  0  0  0
  4  1  2  0  0  0  0
  5  1  1  0  0  0  0
  6  1  1  0  0  0  0
  7  8  2  0  0  0  0
  8 12  1  0  0  0  0
  9  6  1  0  0  0  0
 10  5  1  0  0  0  0
 11  7  1  0  0  0  0
 12 10  1  0  0  0  0
 13  7  1  0  0  0  0
 14  8  1  0  0  0  0
 15 11  1  0  0  0  0
 16 14  2  0  0  0  0
 16 17  1  0  0  0  0
 17 13  2  0  0  0  0
M  END
> <CdId>
3866

> <Mol Weight>
232.2783

> <Formula>
C13H16N2O2

> <Click_ID>
CLK050B09 __ __ 

$$$$
