CLK013_H05
 OpenBabel03181410512D

 25 26  0  0  0  0  0  0  0  0999 V2000
    1.5650   -0.8158    0.0000 N    0  0  0  0  0  0  0  0  0  0  0  0
    1.8230   -1.6024    0.0000 C    0  0  0  0  0  0  0  0  0  0  0  0
    2.2350   -0.3288    0.0000 C    0  0  0  0  0  0  0  0  0  0  0  0
    2.9010   -0.8158    0.0000 C    0  0  0  0  0  0  0  0  0  0  0  0
    2.6470   -1.6024    0.0000 S    0  0  0  0  0  0  0  0  0  0  0  0
    3.6876   -0.5619    0.0000 C    0  0  0  0  0  0  0  0  0  0  0  0
    0.6118    0.2455    0.0000 C    0  0  0  0  0  0  0  0  0  0  0  0
    0.3913    1.0446    0.0000 C    0  0  0  0  0  0  0  0  0  0  0  0
    4.8113    1.3068    0.0000 C    0  0  0  0  0  0  0  0  0  0  0  0
    1.3360   -2.2642    0.0000 O    0  0  0  0  0  0  0  0  0  0  0  0
    2.2267    0.4952    0.0000 O    0  0  0  0  0  0  0  0  0  0  0  0
    4.2078    1.8604    0.0000 C    0  0  0  0  0  0  0  0  0  0  0  0
    3.8582    0.2497    0.0000 C    0  0  0  0  0  0  0  0  0  0  0  0
    5.3482    3.7167    0.0000 C    0  0  0  0  0  0  0  0  0  0  0  0
    0.7866   -0.5619    0.0000 C    0  0  0  0  0  0  0  0  0  0  0  0
    4.6365    0.5077    0.0000 C    0  0  0  0  0  0  0  0  0  0  0  0
    4.3868    2.6595    0.0000 O    0  0  0  0  0  0  0  0  0  0  0  0
    4.7364    4.2619    0.0000 O    0  0  0  0  0  0  0  0  0  0  0  0
    3.4212    1.6107    0.0000 C    0  0  0  0  0  0  0  0  0  0  0  0
    5.1609    2.9051    0.0000 C    0  0  0  0  0  0  0  0  0  0  0  0
    5.5938    1.5566    0.0000 Br   0  0  0  0  0  0  0  0  0  0  0  0
    3.2464    0.7949    0.0000 C    0  0  0  0  0  0  0  0  0  0  0  0
    6.1307    3.9664    0.0000 O    0  0  0  0  0  0  0  0  0  0  0  0
    6.3097    4.7614    0.0000 C    0  0  0  0  0  0  0  0  0  0  0  0
    7.0838    4.9986    0.0000 C    0  0  0  0  0  0  0  0  0  0  0  0
  2  1  1  0  0  0  0
  3  1  1  0  0  0  0
  4  3  1  0  0  0  0
  4  5  1  0  0  0  0
  5  2  1  0  0  0  0
  6  4  2  0  0  0  0
  7 15  1  0  0  0  0
  8  7  3  0  0  0  0
  9 16  2  0  0  0  0
  9 12  1  0  0  0  0
 10  2  2  0  0  0  0
 11  3  2  0  0  0  0
 12 19  2  0  0  0  0
 13  6  1  0  0  0  0
 14 20  1  0  0  0  0
 15  1  1  0  0  0  0
 16 13  1  0  0  0  0
 17 12  1  0  0  0  0
 18 14  2  0  0  0  0
 19 22  1  0  0  0  0
 20 17  1  0  0  0  0
 21  9  1  0  0  0  0
 22 13  2  0  0  0  0
 23 14  1  0  0  0  0
 24 23  1  0  0  0  0
 25 24  1  0  0  0  0
M  END
> <CdId>
990

> <Mol Weight>
424.266

> <Formula>
C17H14BrNO5S

> <Click_ID>
CLK013_H05 __ __ 

$$$$
