CLK021_C05
 OpenBabel03181410512D

 21 21  0  0  0  0  0  0  0  0999 V2000
    6.3417   -8.0375    0.0000 Cl   0  0  0  0  0  0  0  0  0  0  0  0
    2.2042   -6.9167    0.0000 C    0  0  0  0  0  0  0  0  0  0  0  0
    1.3792   -6.9167    0.0000 C    0  0  0  0  0  0  0  0  0  0  0  0
    4.2667   -6.2042    0.0000 C    0  0  0  0  0  0  0  0  0  0  0  0
    7.1542   -6.9167    0.0000 N    0  0  0  0  0  0  0  0  0  0  0  0
    5.9167   -6.2042    0.0000 C    0  0  0  0  0  0  0  0  0  0  0  0
    4.6792   -5.4917    0.0000 C    0  0  0  0  0  0  0  0  0  0  0  0
    4.6792   -6.9167    0.0000 C    0  0  0  0  0  0  0  0  0  0  0  0
    5.5042   -5.4917    0.0000 C    0  0  0  0  0  0  0  0  0  0  0  0
    5.5042   -6.9167    0.0000 C    0  0  0  0  0  0  0  0  0  0  0  0
    3.0292   -6.9167    0.0000 C    0  0  0  0  0  0  0  0  0  0  0  0
    3.4417   -6.2042    0.0000 O    0  0  0  0  0  0  0  0  0  0  0  0
    9.2167   -7.6375    0.0000 C    0  0  0  0  0  0  0  0  0  0  0  0
    6.7417   -6.2042    0.0000 C    0  0  0  0  0  0  0  0  0  0  0  0
    7.9792   -6.9167    0.0000 C    0  0  0  0  0  0  0  0  0  0  0  0
    8.3917   -7.6375    0.0000 C    0  0  0  0  0  0  0  0  0  0  0  0
    9.6292   -8.3500    0.0000 C    0  0  0  0  0  0  0  0  0  0  0  0
    9.6292   -6.9167    0.0000 C    0  0  0  0  0  0  0  0  0  0  0  0
   10.4542   -6.9167    0.0000 C    0  0  0  0  0  0  0  0  0  0  0  0
   10.4542   -8.3500    0.0000 C    0  0  0  0  0  0  0  0  0  0  0  0
   10.8667   -7.6375    0.0000 C    0  0  0  0  0  0  0  0  0  0  0  0
  3  2  3  0  0  0  0
  4 12  1  0  0  0  0
  5 14  1  0  0  0  0
  6  9  1  0  0  0  0
  6 10  2  0  0  0  0
  7  4  1  0  0  0  0
  8  4  2  0  0  0  0
  9  7  2  0  0  0  0
 10  8  1  0  0  0  0
 11  2  1  0  0  0  0
 12 11  1  0  0  0  0
 13 16  1  0  0  0  0
 14  6  1  0  0  0  0
 15  5  1  0  0  0  0
 16 15  1  0  0  0  0
 17 13  1  0  0  0  0
 18 13  2  0  0  0  0
 19 18  1  0  0  0  0
 20 17  2  0  0  0  0
 21 20  1  0  0  0  0
 21 19  2  0  0  0  0
M  END
> <CdId>
1580

> <Mol Weight>
301.811

> <Formula>
C18H20ClNO

> <Click_ID>
CLK021_C05 __ __ 

$$$$
