CLK027_H05
 OpenBabel03181410512D

 27 28  0  0  0  0  0  0  0  0999 V2000
   -0.8000   -1.0379    0.0000 C    0  0  0  0  0  0  0  0  0  0  0  0
   -1.5137   -1.4516    0.0000 C    0  0  0  0  0  0  0  0  0  0  0  0
   -0.0828   -1.4516    0.0000 C    0  0  0  0  0  0  0  0  0  0  0  0
    2.0688   -0.2034    0.0000 C    0  0  0  0  0  0  0  0  0  0  0  0
    2.0688   -1.0275    0.0000 C    0  0  0  0  0  0  0  0  0  0  0  0
   -0.8103   -0.2104    0.0000 C    0  0  0  0  0  0  0  0  0  0  0  0
    1.3551    0.2104    0.0000 C    0  0  0  0  0  0  0  0  0  0  0  0
    0.6413   -1.0275    0.0000 C    0  0  0  0  0  0  0  0  0  0  0  0
   -0.8103    0.6138    0.0000 N    0  0  0  0  0  0  0  0  0  0  0  0
    4.2239    0.2241    0.0000 C    0  0  0  0  0  0  0  0  0  0  0  0
   -2.2343   -1.0379    0.0000 N    0  0  0  0  0  0  0  0  0  0  0  0
    4.9341    0.6345    0.0000 C    0  0  0  0  0  0  0  0  0  0  0  0
    1.3551   -1.4413    0.0000 C    0  0  0  0  0  0  0  0  0  0  0  0
    0.6413   -0.2034    0.0000 C    0  0  0  0  0  0  0  0  0  0  0  0
   -1.5137   -2.2757    0.0000 O    0  0  0  0  0  0  0  0  0  0  0  0
   -4.4514   -1.2930    0.0000 O    0  0  0  0  0  0  0  0  0  0  0  0
    2.7964   -1.4550    0.0000 Cl   0  0  0  0  0  0  0  0  0  0  0  0
    2.7964    0.2137    0.0000 O    0  0  0  0  0  0  0  0  0  0  0  0
   -2.9481   -1.4516    0.0000 C    0  0  0  0  0  0  0  0  0  0  0  0
    1.3551    1.0379    0.0000 O    0  0  0  0  0  0  0  0  0  0  0  0
   -3.6653   -1.0379    0.0000 C    0  0  3  0  0  0  0  0  0  0  0  0
    3.5101   -0.1897    0.0000 C    0  0  0  0  0  0  0  0  0  0  0  0
   -4.9376   -0.6172    0.0000 C    0  0  0  0  0  0  0  0  0  0  0  0
    2.0688    1.4482    0.0000 C    0  0  0  0  0  0  0  0  0  0  0  0
   -3.6653   -0.2034    0.0000 C    0  0  0  0  0  0  0  0  0  0  0  0
    2.0688    2.2792    0.0000 C    0  0  0  0  0  0  0  0  0  0  0  0
   -4.4514    0.0482    0.0000 C    0  0  0  0  0  0  0  0  0  0  0  0
  2  1  1  0  0  0  0
  3  1  2  0  0  0  0
  4  7  2  0  0  0  0
  5 13  2  0  0  0  0
  5  4  1  0  0  0  0
  6  1  1  0  0  0  0
  7 14  1  0  0  0  0
  8  3  1  0  0  0  0
  9  6  3  0  0  0  0
 10 22  1  0  0  0  0
 11  2  1  0  0  0  0
 12 10  3  0  0  0  0
 13  8  1  0  0  0  0
 14  8  2  0  0  0  0
 15  2  2  0  0  0  0
 16 21  1  0  0  0  0
 17  5  1  0  0  0  0
 18  4  1  0  0  0  0
 19 11  1  0  0  0  0
 20  7  1  0  0  0  0
 21 19  1  0  0  0  0
 22 18  1  0  0  0  0
 23 16  1  0  0  0  0
 24 20  1  0  0  0  0
 25 21  1  0  0  0  0
 26 24  1  0  0  0  0
 27 25  1  0  0  0  0
 27 23  1  0  0  0  0
M  END
> <CdId>
2081

> <Mol Weight>
388.845

> <Formula>
C20H21ClN2O4

> <Click_ID>
CLK027_H05 __ __ 

$$$$
