CLK043E06
 OpenBabel03181410512D

 24 26  0  0  0  0  0  0  0  0999 V2000
    0.7262    1.3731    0.0000 N   0  0  0  0  0  0  0  0  0  0  0  0
   -0.0584    2.4541    0.0000 C   0  0  0  0  0  0  0  0  0  0  0  0
   -0.5467    1.7863    0.0000 O   0  0  0  0  0  0  0  0  0  0  0  0
    0.7262    2.1995    0.0000 C   0  0  0  0  0  0  0  0  0  0  0  0
   -0.0584    1.1186    0.0000 C   0  0  0  0  0  0  0  0  0  0  0  0
    1.1311   -4.4826    0.0000 C   0  0  0  0  0  0  0  0  0  0  0  0
    1.6820   -5.0961    0.0000 C   0  0  0  0  0  0  0  0  0  0  0  0
   -0.0167   -1.0685    0.0000 C   0  0  0  0  0  0  0  0  0  0  0  0
    0.5342   -1.6820    0.0000 N   0  0  0  0  0  0  0  0  0  0  0  0
   -0.3130    3.2430    0.0000 C   0  0  0  0  0  0  0  0  0  0  0  0
    0.2797   -2.4667    0.0000 C   0  0  0  0  0  0  0  0  0  0  0  0
   -0.8264   -1.2396    0.0000 O   0  0  0  0  0  0  0  0  0  0  0  0
    0.5760   -3.8690    0.0000 C   0  0  0  0  0  0  0  0  0  0  0  0
   -0.3130    0.3339    0.0000 C   0  0  0  0  0  0  0  0  0  0  0  0
    0.8347   -3.0844    0.0000 C   0  0  0  0  0  0  0  0  0  0  0  0
    0.2379   -0.2838    0.0000 C   0  0  0  0  0  0  0  0  0  0  0  0
   -0.7846   -3.4266    0.0000 C   0  0  0  0  0  0  0  0  0  0  0  0
   -0.5259   -2.6420    0.0000 C   0  0  0  0  0  0  0  0  0  0  0  0
    0.2379    3.8565    0.0000 C   0  0  0  0  0  0  0  0  0  0  0  0
   -1.1227    3.4141    0.0000 C   0  0  0  0  0  0  0  0  0  0  0  0
   -0.2296   -4.0401    0.0000 C   0  0  0  0  0  0  0  0  0  0  0  0
   -0.0167    4.6370    0.0000 C   0  0  0  0  0  0  0  0  0  0  0  0
   -1.3773    4.1946    0.0000 C   0  0  0  0  0  0  0  0  0  0  0  0
   -0.8264    4.8081    0.0000 C   0  0  0  0  0  0  0  0  0  0  0  0
  2  4  2  0  0  0  0
  3  5  1  0  0  0  0
  3  2  1  0  0  0  0
  4  1  1  0  0  0  0
  5  1  2  0  0  0  0
  6 13  1  0  0  0  0
  7  6  3  0  0  0  0
  8 16  1  0  0  0  0
  9  8  1  0  0  0  0
 10  2  1  0  0  0  0
 11  9  1  0  0  0  0
 12  8  2  0  0  0  0
 13 15  1  0  0  0  0
 14  5  1  0  0  0  0
 15 11  2  0  0  0  0
 16 14  1  0  0  0  0
 17 18  2  0  0  0  0
 18 11  1  0  0  0  0
 19 10  1  0  0  0  0
 20 10  2  0  0  0  0
 21 13  2  0  0  0  0
 21 17  1  0  0  0  0
 22 19  2  0  0  0  0
 23 20  1  0  0  0  0
 24 23  2  0  0  0  0
 24 22  1  0  0  0  0
M  END
> <CdId>
3285

> <Mol Weight>
316.3532

> <Formula>
C20H16N2O2

> <Click_ID>
CLK043E06 __ __ 

$$$$
