CLK010_G05
 OpenBabel03181410512D

 28 30  0  0  0  0  0  0  0  0999 V2000
    1.1566   -0.6513    0.0000 N    0  0  0  0  0  0  0  0  0  0  0  0
    1.1566   -1.4781    0.0000 C    0  0  0  0  0  0  0  0  0  0  0  0
    1.8664   -1.8831    0.0000 C    0  0  0  0  0  0  0  0  0  0  0  0
    1.8664   -0.2297    0.0000 C    0  0  0  0  0  0  0  0  0  0  0  0
    2.5845   -0.6430    0.0000 N    0  0  0  0  0  0  0  0  0  0  0  0
    2.5803   -1.4697    0.0000 C    0  0  0  0  0  0  0  0  0  0  0  0
    0.4384   -0.2297    0.0000 C    0  0  0  0  0  0  0  0  0  0  0  0
    1.8664   -2.7098    0.0000 C    0  0  0  0  0  0  0  0  0  0  0  0
   -0.2839   -0.6513    0.0000 C    0  0  0  0  0  0  0  0  0  0  0  0
    5.4029   -5.6241    0.0000 C    0  0  0  0  0  0  0  0  0  0  0  0
    1.8664    0.5970    0.0000 O    0  0  0  0  0  0  0  0  0  0  0  0
    6.1169   -6.0417    0.0000 C    0  0  0  0  0  0  0  0  0  0  0  0
    0.4384   -1.8914    0.0000 O    0  0  0  0  0  0  0  0  0  0  0  0
   -0.9979   -0.2380    0.0000 C    0  0  0  0  0  0  0  0  0  0  0  0
    3.2985   -1.8914    0.0000 O    0  0  0  0  0  0  0  0  0  0  0  0
    0.4384    0.5970    0.0000 C    0  0  0  0  0  0  0  0  0  0  0  0
   -0.9979    0.5970    0.0000 C    0  0  0  0  0  0  0  0  0  0  0  0
   -0.2756    1.0021    0.0000 C    0  0  0  0  0  0  0  0  0  0  0  0
    2.5803   -3.1232    0.0000 C    0  0  0  0  0  0  0  0  0  0  0  0
   -1.7118    1.0104    0.0000 Br   0  0  0  0  0  0  0  0  0  0  0  0
    4.0000   -3.9499    0.0000 C    0  0  0  0  0  0  0  0  0  0  0  0
    2.5803   -3.9457    0.0000 C    0  0  0  0  0  0  0  0  0  0  0  0
    3.2985   -2.7181    0.0000 C    0  0  0  0  0  0  0  0  0  0  0  0
    4.0083   -3.1357    0.0000 C    0  0  0  0  0  0  0  0  0  0  0  0
    3.2860   -4.3632    0.0000 C    0  0  0  0  0  0  0  0  0  0  0  0
    4.7014   -5.1983    0.0000 C    0  0  0  0  0  0  0  0  0  0  0  0
    4.7097   -4.3758    0.0000 O    0  0  0  0  0  0  0  0  0  0  0  0
   -1.7118   -0.6430    0.0000 C    0  0  0  0  0  0  0  0  0  0  0  0
  2  1  1  0  0  0  0
  3  2  1  0  0  0  0
  4  1  1  0  0  0  0
  5  4  1  0  0  0  0
  6  5  1  0  0  0  0
  6  3  1  0  0  0  0
  7  1  1  0  0  0  0
  8  3  2  0  0  0  0
  9  7  1  0  0  0  0
 10 26  1  0  0  0  0
 11  4  2  0  0  0  0
 12 10  3  0  0  0  0
 13  2  2  0  0  0  0
 14  9  2  0  0  0  0
 14 17  1  0  0  0  0
 15  6  2  0  0  0  0
 16  7  2  0  0  0  0
 17 18  2  0  0  0  0
 18 16  1  0  0  0  0
 19  8  1  0  0  0  0
 20 17  1  0  0  0  0
 21 24  2  0  0  0  0
 21 25  1  0  0  0  0
 22 19  1  0  0  0  0
 23 19  2  0  0  0  0
 24 23  1  0  0  0  0
 25 22  2  0  0  0  0
 26 27  1  0  0  0  0
 27 21  1  0  0  0  0
 28 14  1  0  0  0  0
M  END
> <CdId>
740

> <Mol Weight>
439.259

> <Formula>
C21H15BrN2O4

> <Click_ID>
CLK010_G05 __ __ 

$$$$
