CLK004_B04
 OpenBabel03181410512D

 12 12  0  0  0  0  0  0  0  0999 V2000
    7.9347  -23.4110    0.0000 C   0  0  0  0  0  0  0  0  0  0  0  0
    8.6549  -23.8208    0.0000 C   0  0  0  0  0  0  0  0  0  0  0  0
    5.7741  -22.1941    0.0000 C   0  0  0  0  0  0  0  0  0  0  0  0
    6.4861  -21.7719    0.0000 C   0  0  3  0  0  0  0  0  0  0  0  0
    7.2063  -22.1817    0.0000 N   0  0  0  0  0  0  0  0  0  0  0  0
    7.2187  -23.0095    0.0000 C   0  0  0  0  0  0  0  0  0  0  0  0
    5.7741  -23.0219    0.0000 C   0  0  0  0  0  0  0  0  0  0  0  0
    5.0663  -21.7843    0.0000 C   0  0  0  0  0  0  0  0  0  0  0  0
    6.4736  -20.9523    0.0000 C   0  0  0  0  0  0  0  0  0  0  0  0
    4.3503  -22.1941    0.0000 C   0  0  0  0  0  0  0  0  0  0  0  0
    5.0663  -23.4317    0.0000 C   0  0  0  0  0  0  0  0  0  0  0  0
    4.3503  -23.0219    0.0000 C   0  0  0  0  0  0  0  0  0  0  0  0
  2  1  3  0  0  0  0
  3  4  1  0  0  0  0
  4  5  1  0  0  0  0
  5  6  1  0  0  0  0
  6  1  1  0  0  0  0
  7  3  1  0  0  0  0
  8  3  2  0  0  0  0
  9  4  1  0  0  0  0
 10  8  1  0  0  0  0
 11  7  2  0  0  0  0
 12 10  2  0  0  0  0
 12 11  1  0  0  0  0
M  END
> <CdId>
253

> <Mol Weight>
159.2276

> <Formula>
C11H13N

> <Click_ID>
CLK004_B04 __ __ 

$$$$
