CLK023_B09
 OpenBabel03181410512D

 29 32  0  0  0  0  0  0  0  0999 V2000
    1.4747   -0.1375    0.0000 C   0  0  0  0  0  0  0  0  0  0  0  0
    0.6668   -0.1237    0.0000 N   0  0  0  0  0  0  0  0  0  0  0  0
    1.9525   -0.8009    0.0000 C   0  0  0  0  0  0  0  0  0  0  0  0
   -3.0456    0.1788    0.0000 N   0  0  0  0  0  0  0  0  0  0  0  0
   -3.3687   -0.5878    0.0000 C   0  0  0  0  0  0  0  0  0  0  0  0
    1.9525    0.5259    0.0000 S   0  0  0  0  0  0  0  0  0  0  0  0
   -2.0247   -0.7012    0.0000 C   0  0  0  0  0  0  0  0  0  0  0  0
   -2.2069    0.1134    0.0000 C   0  0  0  0  0  0  0  0  0  0  0  0
   -0.6084   -0.5500    0.0000 C   0  0  0  0  0  0  0  0  0  0  0  0
    0.1685    0.5259    0.0000 C   0  0  0  0  0  0  0  0  0  0  0  0
   -2.7431   -1.1241    0.0000 S   0  0  0  0  0  0  0  0  0  0  0  0
    0.1788   -0.8078    0.0000 C   0  0  0  0  0  0  0  0  0  0  0  0
    2.7363   -0.5466    0.0000 C   0  0  0  0  0  0  0  0  0  0  0  0
    2.7499    0.2887    0.0000 C   0  0  0  0  0  0  0  0  0  0  0  0
   -1.2616   -1.0244    0.0000 C   0  0  0  0  0  0  0  0  0  0  0  0
   -0.6119    0.2750    0.0000 C   0  0  0  0  0  0  0  0  0  0  0  0
    1.7050   -1.5813    0.0000 C   0  0  0  0  0  0  0  0  0  0  0  0
    1.4540   -2.3615    0.0000 N   0  0  0  0  0  0  0  0  0  0  0  0
   -3.0593    1.6156    0.0000 C   0  0  0  0  0  0  0  0  0  0  0  0
   -2.6984    2.3650    0.0000 C   0  0  0  0  0  0  0  0  0  0  0  0
   -4.1697   -0.7631    0.0000 O   0  0  0  0  0  0  0  0  0  0  0  0
   -1.6706    0.7425    0.0000 O   0  0  0  0  0  0  0  0  0  0  0  0
   -3.4684    0.8869    0.0000 C   0  0  0  0  0  0  0  0  0  0  0  0
    0.4160    1.3165    0.0000 C   0  0  0  0  0  0  0  0  0  0  0  0
    3.4409   -0.9625    0.0000 C   0  0  0  0  0  0  0  0  0  0  0  0
    0.4297   -1.5881    0.0000 C   0  0  0  0  0  0  0  0  0  0  0  0
    3.4547    0.6909    0.0000 C   0  0  0  0  0  0  0  0  0  0  0  0
    4.1627   -0.5500    0.0000 C   0  0  0  0  0  0  0  0  0  0  0  0
    4.1662    0.2750    0.0000 C   0  0  0  0  0  0  0  0  0  0  0  0
  2  1  1  0  0  0  0
  3  1  2  0  0  0  0
  4  8  1  0  0  0  0
  4  5  1  0  0  0  0
  5 11  1  0  0  0  0
  6  1  1  0  0  0  0
  7 15  2  0  0  0  0
  8  7  1  0  0  0  0
  9 12  2  0  0  0  0
  9 16  1  0  0  0  0
 10  2  1  0  0  0  0
 11  7  1  0  0  0  0
 12  2  1  0  0  0  0
 13  3  1  0  0  0  0
 13 14  2  0  0  0  0
 14  6  1  0  0  0  0
 15  9  1  0  0  0  0
 16 10  2  0  0  0  0
 17  3  1  0  0  0  0
 18 17  3  0  0  0  0
 19 23  1  0  0  0  0
 20 19  3  0  0  0  0
 21  5  2  0  0  0  0
 22  8  2  0  0  0  0
 23  4  1  0  0  0  0
 24 10  1  0  0  0  0
 25 13  1  0  0  0  0
 26 12  1  0  0  0  0
 27 14  1  0  0  0  0
 28 25  1  0  0  0  0
 29 27  1  0  0  0  0
 29 28  1  0  0  0  0
M  END
> <CdId>
1714

> <Mol Weight>
421.535

> <Formula>
C22H19N3O2S2

> <Click_ID>
CLK023_B09 __ __ 

$$$$
