CLK021_A09
 OpenBabel03181410512D

 19 19  0  0  0  0  0  0  0  0999 V2000
    4.0036    1.5804    0.0000 C   0  0  0  0  0  0  0  0  0  0  0  0
    0.4398    1.1681    0.0000 C   0  0  0  0  0  0  0  0  0  0  0  0
   -1.5758    1.7544    0.0000 C   0  0  0  0  0  0  0  0  0  0  0  0
    3.2890    1.1681    0.0000 C   0  0  0  0  0  0  0  0  0  0  0  0
    1.1544    1.5804    0.0000 N   0  0  0  0  0  0  0  0  0  0  0  0
   -2.1622    2.3362    0.0000 C   0  0  0  0  0  0  0  0  0  0  0  0
   -0.2748    1.5804    0.0000 O   0  0  0  0  0  0  0  0  0  0  0  0
   -0.9895    1.1681    0.0000 C   0  0  0  0  0  0  0  0  0  0  0  0
    0.4398    0.3436    0.0000 O   0  0  0  0  0  0  0  0  0  0  0  0
    2.5744    1.5804    0.0000 C   0  0  0  0  0  0  0  0  0  0  0  0
    1.8598    1.1681    0.0000 C   0  0  0  0  0  0  0  0  0  0  0  0
    4.5900    0.9986    0.0000 F   0  0  0  0  0  0  0  0  0  0  0  0
    4.6358    2.1117    0.0000 F   0  0  0  0  0  0  0  0  0  0  0  0
    3.5364    2.2537    0.0000 F   0  0  0  0  0  0  0  0  0  0  0  0
    3.2890    0.3436    0.0000 C   0  0  0  0  0  0  0  0  0  0  0  0
    2.5744   -0.0687    0.0000 C   0  0  0  0  0  0  0  0  0  0  0  0
    1.8598    0.3436    0.0000 C   0  0  0  0  0  0  0  0  0  0  0  0
   -1.6216    0.6413    0.0000 C   0  0  0  0  0  0  0  0  0  0  0  0
   -0.5176    0.4947    0.0000 C   0  0  0  0  0  0  0  0  0  0  0  0
  2  5  1  0  0  0  0
  3  8  1  0  0  0  0
  4  1  1  0  0  0  0
  5 11  1  0  0  0  0
  6  3  3  0  0  0  0
  7  2  1  0  0  0  0
  8  7  1  0  0  0  0
  9  2  2  0  0  0  0
 10  4  2  0  0  0  0
 11 10  1  0  0  0  0
 11 17  2  0  0  0  0
 12  1  1  0  0  0  0
 13  1  1  0  0  0  0
 14  1  1  0  0  0  0
 15  4  1  0  0  0  0
 16 15  2  0  0  0  0
 17 16  1  0  0  0  0
 18  8  1  0  0  0  0
 19  8  1  0  0  0  0
M  END
> <CdId>
1564

> <Mol Weight>
271.2351

> <Formula>
C13H12F3NO2

> <Click_ID>
CLK021_A09 __ __ 

$$$$
