CLK049G10
 OpenBabel03181410512D

 16 16  0  0  0  0  0  0  0  0999 V2000
    0.2667   -1.0292    0.0000 C    0  0  0  0  0  0  0  0  0  0  0  0
   -0.4500    1.0333    0.0000 C    0  0  0  0  0  0  0  0  0  0  0  0
    0.2667   -0.2042    0.0000 N    0  0  0  0  0  0  0  0  0  0  0  0
   -0.4500    0.2083    0.0000 C    0  0  3  0  0  0  0  0  0  0  0  0
    1.6958   -2.6792    0.0000 C    0  0  0  0  0  0  0  0  0  0  0  0
    2.4083   -3.0917    0.0000 C    0  0  0  0  0  0  0  0  0  0  0  0
   -1.1625    1.4458    0.0000 C    0  0  0  0  0  0  0  0  0  0  0  0
   -0.4500   -1.4417    0.0000 O    0  0  0  0  0  0  0  0  0  0  0  0
    0.9792   -1.4417    0.0000 N    0  0  0  0  0  0  0  0  0  0  0  0
   -1.8792    1.0333    0.0000 Cl   0  0  0  0  0  0  0  0  0  0  0  0
    0.9792   -2.2667    0.0000 C    0  0  0  0  0  0  0  0  0  0  0  0
    0.2667    1.4458    0.0000 C    0  0  0  0  0  0  0  0  0  0  0  0
   -1.1625   -0.2042    0.0000 C    0  0  0  0  0  0  0  0  0  0  0  0
   -1.1625    2.2708    0.0000 C    0  0  0  0  0  0  0  0  0  0  0  0
    0.2667    2.2708    0.0000 C    0  0  0  0  0  0  0  0  0  0  0  0
   -0.4500    2.6833    0.0000 C    0  0  0  0  0  0  0  0  0  0  0  0
  2  4  1  0  0  0  0
  3  1  1  0  0  0  0
  4  3  1  0  0  0  0
  5 11  1  0  0  0  0
  6  5  3  0  0  0  0
  7  2  2  0  0  0  0
  8  1  2  0  0  0  0
  9  1  1  0  0  0  0
 10  7  1  0  0  0  0
 11  9  1  0  0  0  0
 12  2  1  0  0  0  0
 13  4  1  0  0  0  0
 14  7  1  0  0  0  0
 15 12  2  0  0  0  0
 16 14  2  0  0  0  0
 16 15  1  0  0  0  0
M  END
> <CdId>
3799

> <Mol Weight>
236.697

> <Formula>
C12H13ClN2O

> <Click_ID>
CLK049G10 __ __ 

$$$$
