CLK035_F10
 OpenBabel03181410512D

 28 30  0  0  0  0  0  0  0  0999 V2000
    0.4131    2.6119    0.0000 C   0  0  0  0  0  0  0  0  0  0  0  0
   -0.2962    2.1988    0.0000 N   0  0  0  0  0  0  0  0  0  0  0  0
    0.4882    3.4297    0.0000 N   0  0  0  0  0  0  0  0  0  0  0  0
    1.1808    2.2864    0.0000 S   0  0  0  0  0  0  0  0  0  0  0  0
   -1.0139    2.6119    0.0000 C   0  0  0  0  0  0  0  0  0  0  0  0
    3.7719    3.6800    0.0000 N   0  3  0  0  0  0  0  0  0  0  0  0
    1.7191    2.9165    0.0000 C   0  0  0  0  0  0  0  0  0  0  0  0
   -1.7232    2.1905    0.0000 C   0  0  0  0  0  0  0  0  0  0  0  0
    1.2935    3.6300    0.0000 C   0  0  0  0  0  0  0  0  0  0  0  0
   -2.4408    2.6036    0.0000 C   0  0  0  0  0  0  0  0  0  0  0  0
    2.5535    2.9373    0.0000 C   0  0  0  0  0  0  0  0  0  0  0  0
    2.9457    3.6508    0.0000 C   0  0  0  0  0  0  0  0  0  0  0  0
    0.0167    4.7858    0.0000 C   0  0  0  0  0  0  0  0  0  0  0  0
    1.6940    4.3477    0.0000 C   0  0  0  0  0  0  0  0  0  0  0  0
   -0.6008    5.3240    0.0000 C   0  0  0  0  0  0  0  0  0  0  0  0
    4.1974    2.9749    0.0000 O   0  5  0  0  0  0  0  0  0  0  0  0
    4.1724    4.3935    0.0000 O   0  0  0  0  0  0  0  0  0  0  0  0
   -1.0139    3.4380    0.0000 O   0  0  0  0  0  0  0  0  0  0  0  0
    2.5076    4.3602    0.0000 C   0  0  0  0  0  0  0  0  0  0  0  0
   -3.1543    2.1905    0.0000 C   0  0  0  0  0  0  0  0  0  0  0  0
   -0.1377    3.9762    0.0000 C   0  0  0  0  0  0  0  0  0  0  0  0
   -2.4492    3.4297    0.0000 O   0  0  0  0  0  0  0  0  0  0  0  0
   -1.7232    1.3602    0.0000 C   0  0  0  0  0  0  0  0  0  0  0  0
   -3.8761    2.6036    0.0000 O   0  0  0  0  0  0  0  0  0  0  0  0
   -2.4408    0.9471    0.0000 C   0  0  0  0  0  0  0  0  0  0  0  0
   -3.1543    1.3602    0.0000 C   0  0  0  0  0  0  0  0  0  0  0  0
   -3.1626    3.8386    0.0000 C   0  0  0  0  0  0  0  0  0  0  0  0
   -4.5896    2.1905    0.0000 C   0  0  0  0  0  0  0  0  0  0  0  0
  2  1  2  0  0  0  0
  3  1  1  0  0  0  0
  4  1  1  0  0  0  0
  5  2  1  0  0  0  0
  6 12  1  0  0  0  0
  7  4  1  0  0  0  0
  8  5  1  0  0  0  0
  9  3  1  0  0  0  0
  9  7  2  0  0  0  0
 10  8  2  0  0  0  0
 11  7  1  0  0  0  0
 12 11  2  0  0  0  0
 13 21  1  0  0  0  0
 14  9  1  0  0  0  0
 15 13  3  0  0  0  0
 16  6  1  0  0  0  0
 17  6  2  0  0  0  0
 18  5  2  0  0  0  0
 19 14  2  0  0  0  0
 19 12  1  0  0  0  0
 20 10  1  0  0  0  0
 21  3  1  0  0  0  0
 22 10  1  0  0  0  0
 23  8  1  0  0  0  0
 24 20  1  0  0  0  0
 25 23  2  0  0  0  0
 26 25  1  0  0  0  0
 26 20  2  0  0  0  0
 27 22  1  0  0  0  0
 28 24  1  0  0  0  0
M  END
> <CdId>
2704

> <Mol Weight>
397.405

> <Formula>
C19H15N3O5S

> <Click_ID>
CLK035_F10 __ __ 

$$$$
