CLK050C09
 OpenBabel03181410512D

 14 14  0  0  0  0  0  0  0  0999 V2000
    0.3042   -0.0583    0.0000 C    0  0  0  0  0  0  0  0  0  0  0  0
    1.0167   -0.4708    0.0000 C    0  0  0  0  0  0  0  0  0  0  0  0
   -0.4083   -0.4708    0.0000 C    0  0  0  0  0  0  0  0  0  0  0  0
   -2.5542   -0.0583    0.0000 C    0  0  0  0  0  0  0  0  0  0  0  0
    0.3042    0.7667    0.0000 C    0  0  0  0  0  0  0  0  0  0  0  0
   -3.2667    0.3542    0.0000 C    0  0  0  0  0  0  0  0  0  0  0  0
    1.7333   -0.0583    0.0000 C    0  0  0  0  0  0  0  0  0  0  0  0
   -0.4083   -1.2958    0.0000 O    0  0  0  0  0  0  0  0  0  0  0  0
   -1.1250   -0.0583    0.0000 N    0  0  0  0  0  0  0  0  0  0  0  0
    1.7333    0.7667    0.0000 C    0  0  0  0  0  0  0  0  0  0  0  0
    1.0167   -1.2958    0.0000 O    0  0  0  0  0  0  0  0  0  0  0  0
    1.0167    1.1792    0.0000 C    0  0  0  0  0  0  0  0  0  0  0  0
    2.4458    1.1792    0.0000 Cl   0  0  0  0  0  0  0  0  0  0  0  0
   -1.8375   -0.4708    0.0000 C    0  0  0  0  0  0  0  0  0  0  0  0
  2  1  2  0  0  0  0
  3  1  1  0  0  0  0
  4 14  1  0  0  0  0
  5  1  1  0  0  0  0
  6  4  3  0  0  0  0
  7  2  1  0  0  0  0
  8  3  2  0  0  0  0
  9  3  1  0  0  0  0
 10  7  2  0  0  0  0
 11  2  1  0  0  0  0
 12  5  2  0  0  0  0
 12 10  1  0  0  0  0
 13 10  1  0  0  0  0
 14  9  1  0  0  0  0
M  END
> <CdId>
3867

> <Mol Weight>
209.629

> <Formula>
C10H8ClNO2

> <Click_ID>
CLK050C09 __ __ 

$$$$
