CLK008_C03
 OpenBabel03181410512D

 26 28  0  0  0  0  0  0  0  0999 V2000
   -0.0137   -1.8310    0.0000 C   0  0  0  0  0  0  0  0  0  0  0  0
   -0.0069   -2.6623    0.0000 C   0  0  0  0  0  0  0  0  0  0  0  0
   -0.6492   -1.3295    0.0000 N   0  0  0  0  0  0  0  0  0  0  0  0
    0.6699   -1.3810    0.0000 O   0  0  0  0  0  0  0  0  0  0  0  0
   -0.7249   -3.0712    0.0000 C   0  0  0  0  0  0  0  0  0  0  0  0
    0.7042   -3.0712    0.0000 C   0  0  0  0  0  0  0  0  0  0  0  0
   -0.3572   -0.5565    0.0000 C   0  0  0  0  0  0  0  0  0  0  0  0
    0.4535   -0.5943    0.0000 C   0  0  0  0  0  0  0  0  0  0  0  0
   -0.7249   -3.8990    0.0000 C   0  0  0  0  0  0  0  0  0  0  0  0
    0.6940   -3.8990    0.0000 C   0  0  0  0  0  0  0  0  0  0  0  0
   -0.8107    0.1409    0.0000 C   0  0  0  0  0  0  0  0  0  0  0  0
    0.9653    0.0619    0.0000 O   0  0  0  0  0  0  0  0  0  0  0  0
   -0.0137   -4.3078    0.0000 C   0  0  0  0  0  0  0  0  0  0  0  0
   -0.4294    0.8760    0.0000 C   0  0  0  0  0  0  0  0  0  0  0  0
   -0.0137   -5.1322    0.0000 C   0  0  0  0  0  0  0  0  0  0  0  0
   -0.8863    1.5733    0.0000 C   0  0  0  0  0  0  0  0  0  0  0  0
    0.3847    0.9241    0.0000 C   0  0  0  0  0  0  0  0  0  0  0  0
   -0.5119    2.3084    0.0000 C   0  0  0  0  0  0  0  0  0  0  0  0
    0.7661    1.6558    0.0000 C   0  0  0  0  0  0  0  0  0  0  0  0
    0.3091    2.3532    0.0000 C   0  0  0  0  0  0  0  0  0  0  0  0
   -0.9619    2.9887    0.0000 O   0  0  0  0  0  0  0  0  0  0  0  0
    0.6836    3.0883    0.0000 O   0  0  0  0  0  0  0  0  0  0  0  0
   -1.7829    2.9474    0.0000 C   0  0  0  0  0  0  0  0  0  0  0  0
    0.2336    3.7719    0.0000 C   0  0  0  0  0  0  0  0  0  0  0  0
    0.6080    4.5001    0.0000 C   0  0  0  0  0  0  0  0  0  0  0  0
    1.4291    4.5414    0.0000 C   0  0  0  0  0  0  0  0  0  0  0  0
  1  2  1  0  0  0  0
  1  3  2  0  0  0  0
  1  4  1  0  0  0  0
  2  5  2  0  0  0  0
  2  6  1  0  0  0  0
  3  7  1  0  0  0  0
  4  8  1  0  0  0  0
  5  9  1  0  0  0  0
  6 10  2  0  0  0  0
  7 11  2  0  0  0  0
  7  8  1  0  0  0  0
  8 12  2  0  0  0  0
  9 13  2  0  0  0  0
 10 13  1  0  0  0  0
 11 14  1  0  0  0  0
 13 15  1  0  0  0  0
 14 16  1  0  0  0  0
 14 17  2  0  0  0  0
 16 18  2  0  0  0  0
 17 19  1  0  0  0  0
 18 20  1  0  0  0  0
 18 21  1  0  0  0  0
 19 20  2  0  0  0  0
 20 22  1  0  0  0  0
 21 23  1  0  0  0  0
 22 24  1  0  0  0  0
 24 25  1  0  0  0  0
 25 26  3  0  0  0  0
M  END
> <CdId>
572

> <Mol Weight>
347.364

> <Formula>
C21H17NO4

> <Click_ID>
CLK008_C03 __ __ 

$$$$
