CLK051B03
 OpenBabel03181410512D

 17 17  0  0  0  0  0  0  0  0999 V2000
   -0.1708   -0.2875    0.0000 C   0  0  0  0  0  0  0  0  0  0  0  0
    1.2583   -0.2875    0.0000 N   0  0  0  0  0  0  0  0  0  0  0  0
    1.9750    0.9500    0.0000 C   0  0  0  0  0  0  0  0  0  0  0  0
    0.5458   -0.7000    0.0000 C   0  0  0  0  0  0  0  0  0  0  0  0
    1.2583    0.5375    0.0000 C   0  0  0  0  0  0  0  0  0  0  0  0
   -0.8833   -0.7000    0.0000 C   0  0  0  0  0  0  0  0  0  0  0  0
   -0.1708    0.5375    0.0000 C   0  0  0  0  0  0  0  0  0  0  0  0
   -3.0292   -0.2875    0.0000 C   0  0  0  0  0  0  0  0  0  0  0  0
   -3.7417    0.1250    0.0000 C   0  0  0  0  0  0  0  0  0  0  0  0
    0.5458    0.9500    0.0000 C   0  0  0  0  0  0  0  0  0  0  0  0
   -0.8833   -1.5250    0.0000 O   0  0  0  0  0  0  0  0  0  0  0  0
    1.5625    1.6625    0.0000 F   0  0  0  0  0  0  0  0  0  0  0  0
    2.3875    0.2333    0.0000 F   0  0  0  0  0  0  0  0  0  0  0  0
    2.6875    1.3625    0.0000 F   0  0  0  0  0  0  0  0  0  0  0  0
   -1.6000   -0.2875    0.0000 N   0  0  0  0  0  0  0  0  0  0  0  0
   -2.3125   -0.7000    0.0000 C   0  0  0  0  0  0  0  0  0  0  0  0
    0.5458   -1.5250    0.0000 C   0  0  0  0  0  0  0  0  0  0  0  0
  2  4  1  0  0  0  0
  3  5  1  0  0  0  0
  4  1  2  0  0  0  0
  5  2  2  0  0  0  0
  6  1  1  0  0  0  0
  7  1  1  0  0  0  0
  8 16  1  0  0  0  0
  9  8  3  0  0  0  0
 10  7  2  0  0  0  0
 10  5  1  0  0  0  0
 11  6  2  0  0  0  0
 12  3  1  0  0  0  0
 13  3  1  0  0  0  0
 14  3  1  0  0  0  0
 15  6  1  0  0  0  0
 16 15  1  0  0  0  0
 17  4  1  0  0  0  0
M  END
> <CdId>
3898

> <Mol Weight>
242.1972

> <Formula>
C11H9F3N2O

> <Click_ID>
CLK051B03 __ __ 

$$$$
