CLK018_E04
 OpenBabel03181410512D

 23 25  0  0  0  0  0  0  0  0999 V2000
    5.6454   -3.6263    0.0000 C   0  0  3  0  0  0  0  0  0  0  0  0
    6.1033   -4.2581    0.0000 C   0  0  0  0  0  0  0  0  0  0  0  0
    5.6454   -4.9633    0.0000 N   0  0  0  0  0  0  0  0  0  0  0  0
    4.8534   -3.8781    0.0000 C   0  0  0  0  0  0  0  0  0  0  0  0
    4.8534   -4.7114    0.0000 C   0  0  0  0  0  0  0  0  0  0  0  0
    6.4880   -2.8479    0.0000 C   0  0  0  0  0  0  0  0  0  0  0  0
    7.4495   -3.0265    0.0000 C   0  0  0  0  0  0  0  0  0  0  0  0
    5.3891   -6.3643    0.0000 C   0  0  0  0  0  0  0  0  0  0  0  0
    4.8534   -6.9962    0.0000 C   0  0  0  0  0  0  0  0  0  0  0  0
    6.9000   -4.3268    0.0000 O   0  0  0  0  0  0  0  0  0  0  0  0
    5.9202   -5.7416    0.0000 C   0  0  0  0  0  0  0  0  0  0  0  0
    5.2517   -2.7518    0.0000 O   0  0  0  0  0  0  0  0  0  0  0  0
    7.7242   -3.6034    0.0000 O   0  0  0  0  0  0  0  0  0  0  0  0
    8.9604   -1.0623    0.0000 N   0  0  0  0  0  0  0  0  0  0  0  0
    7.9531   -2.3672    0.0000 C   0  0  0  0  0  0  0  0  0  0  0  0
    4.1391   -3.4661    0.0000 C   0  0  0  0  0  0  0  0  0  0  0  0
    4.1391   -5.1235    0.0000 C   0  0  0  0  0  0  0  0  0  0  0  0
    8.1363   -0.9524    0.0000 C   0  0  0  0  0  0  0  0  0  0  0  0
    9.2717   -1.8315    0.0000 C   0  0  0  0  0  0  0  0  0  0  0  0
    7.6372   -1.6117    0.0000 C   0  0  0  0  0  0  0  0  0  0  0  0
    8.7681   -2.4771    0.0000 C   0  0  0  0  0  0  0  0  0  0  0  0
    3.4249   -3.8781    0.0000 C   0  0  0  0  0  0  0  0  0  0  0  0
    3.4249   -4.7114    0.0000 C   0  0  0  0  0  0  0  0  0  0  0  0
  2  1  1  0  0  0  0
  3  2  1  0  0  0  0
  4  1  1  0  0  0  0
  5  4  2  0  0  0  0
  5  3  1  0  0  0  0
  6  1  1  0  0  0  0
  7  6  1  0  0  0  0
  8 11  1  0  0  0  0
  9  8  3  0  0  0  0
 10  2  2  0  0  0  0
 11  3  1  0  0  0  0
 12  1  1  0  0  0  0
 13  7  2  0  0  0  0
 14 19  1  0  0  0  0
 14 18  2  0  0  0  0
 15  7  1  0  0  0  0
 16  4  1  0  0  0  0
 17  5  1  0  0  0  0
 17 23  2  0  0  0  0
 18 20  1  0  0  0  0
 19 21  2  0  0  0  0
 20 15  2  0  0  0  0
 21 15  1  0  0  0  0
 22 16  2  0  0  0  0
 23 22  1  0  0  0  0
M  END
> <CdId>
1359

> <Mol Weight>
306.3154

> <Formula>
C18H14N2O3

> <Click_ID>
CLK018_E04 __ __ 

$$$$
