CLK045B09
 OpenBabel03181410512D

 20 21  0  0  0  0  0  0  0  0999 V2000
    0.1750    0.3542    0.0000 C   0  0  0  0  0  0  0  0  0  0  0  0
    0.8917    0.7667    0.0000 C   0  0  0  0  0  0  0  0  0  0  0  0
   -0.5375    0.7667    0.0000 N   0  0  0  0  0  0  0  0  0  0  0  0
   -1.9667   -1.7083    0.0000 C   0  0  0  0  0  0  0  0  0  0  0  0
   -1.9667   -2.5333    0.0000 C   0  0  0  0  0  0  0  0  0  0  0  0
    0.1750   -0.4708    0.0000 O   0  0  0  0  0  0  0  0  0  0  0  0
    1.6042    0.3542    0.0000 C   0  0  0  0  0  0  0  0  0  0  0  0
   -1.2542    0.3542    0.0000 C   0  0  0  0  0  0  0  0  0  0  0  0
   -1.9667   -0.8833    0.0000 C   0  0  0  0  0  0  0  0  0  0  0  0
   -1.2542   -0.4708    0.0000 C   0  0  0  0  0  0  0  0  0  0  0  0
    0.8917    1.5917    0.0000 C   0  0  0  0  0  0  0  0  0  0  0  0
    1.6042   -0.4708    0.0000 O   0  0  0  0  0  0  0  0  0  0  0  0
   -2.6833    0.3542    0.0000 C   0  0  0  0  0  0  0  0  0  0  0  0
   -1.9667    0.7667    0.0000 C   0  0  0  0  0  0  0  0  0  0  0  0
    2.3208    0.7667    0.0000 C   0  0  0  0  0  0  0  0  0  0  0  0
   -2.6833   -0.4708    0.0000 C   0  0  0  0  0  0  0  0  0  0  0  0
    2.3208   -0.8833    0.0000 C   0  0  0  0  0  0  0  0  0  0  0  0
    1.6042    2.0042    0.0000 C   0  0  0  0  0  0  0  0  0  0  0  0
    2.3208   -1.7083    0.0000 C   0  0  0  0  0  0  0  0  0  0  0  0
    2.3208    1.5917    0.0000 C   0  0  0  0  0  0  0  0  0  0  0  0
  2  1  1  0  0  0  0
  3  1  1  0  0  0  0
  4  9  1  0  0  0  0
  5  4  3  0  0  0  0
  6  1  2  0  0  0  0
  7  2  2  0  0  0  0
  8  3  1  0  0  0  0
  9 10  1  0  0  0  0
 10  8  2  0  0  0  0
 11  2  1  0  0  0  0
 12  7  1  0  0  0  0
 13 14  2  0  0  0  0
 14  8  1  0  0  0  0
 15  7  1  0  0  0  0
 16  9  2  0  0  0  0
 16 13  1  0  0  0  0
 17 12  1  0  0  0  0
 18 11  2  0  0  0  0
 18 20  1  0  0  0  0
 19 17  1  0  0  0  0
 20 15  2  0  0  0  0
M  END
> <CdId>
3466

> <Mol Weight>
265.3065

> <Formula>
C17H15NO2

> <Click_ID>
CLK045B09 __ __ 

$$$$
