CLK028_F10
 OpenBabel03181410512D

 21 22  0  0  0  0  0  0  0  0999 V2000
   -1.8364    2.2216    0.0000 N   0  0  0  0  0  0  0  0  0  0  0  0
   -1.0214    2.1837    0.0000 C   0  0  0  0  0  0  0  0  0  0  0  0
   -1.5028    0.9354    0.0000 C   0  0  0  0  0  0  0  0  0  0  0  0
   -2.1356    1.4581    0.0000 C   0  0  0  0  0  0  0  0  0  0  0  0
   -0.8082    1.3824    0.0000 S   0  0  0  0  0  0  0  0  0  0  0  0
    0.2545   -1.4581    0.0000 C   0  0  0  0  0  0  0  0  0  0  0  0
   -1.6404    0.1307    0.0000 C   0  0  0  0  0  0  0  0  0  0  0  0
    0.4024   -0.6465    0.0000 C   0  0  0  0  0  0  0  0  0  0  0  0
   -0.5124   -1.7470    0.0000 C   0  0  0  0  0  0  0  0  0  0  0  0
   -1.0007   -0.4058    0.0000 C   0  0  0  0  0  0  0  0  0  0  0  0
    2.3041   -2.2422    0.0000 C   0  0  0  0  0  0  0  0  0  0  0  0
    2.9334   -2.7717    0.0000 C   0  0  0  0  0  0  0  0  0  0  0  0
   -0.2338   -0.1203    0.0000 C   0  0  0  0  0  0  0  0  0  0  0  0
   -1.1486   -1.2174    0.0000 C   0  0  0  0  0  0  0  0  0  0  0  0
   -0.5124    2.8474    0.0000 O   0  0  0  0  0  0  0  0  0  0  0  0
   -2.9368    1.2586    0.0000 O   0  0  0  0  0  0  0  0  0  0  0  0
    1.1830   -0.3542    0.0000 I   0  0  0  0  0  0  0  0  0  0  0  0
    0.8941   -1.9980    0.0000 O   0  0  0  0  0  0  0  0  0  0  0  0
   -0.6603   -2.5620    0.0000 O   0  0  0  0  0  0  0  0  0  0  0  0
    1.6713   -1.7091    0.0000 C   0  0  0  0  0  0  0  0  0  0  0  0
   -1.4272   -2.8439    0.0000 C   0  0  0  0  0  0  0  0  0  0  0  0
  2  1  1  0  0  0  0
  3  4  1  0  0  0  0
  3  5  1  0  0  0  0
  4  1  1  0  0  0  0
  5  2  1  0  0  0  0
  6  9  1  0  0  0  0
  7  3  2  0  0  0  0
  8 13  1  0  0  0  0
  8  6  2  0  0  0  0
  9 14  2  0  0  0  0
 10  7  1  0  0  0  0
 11 20  1  0  0  0  0
 12 11  3  0  0  0  0
 13 10  2  0  0  0  0
 14 10  1  0  0  0  0
 15  2  2  0  0  0  0
 16  4  2  0  0  0  0
 17  8  1  0  0  0  0
 18  6  1  0  0  0  0
 19  9  1  0  0  0  0
 20 18  1  0  0  0  0
 21 19  1  0  0  0  0
M  END
> <CdId>
2144

> <Mol Weight>
415.203

> <Formula>
C14H10INO4S

> <Click_ID>
CLK028_F10 __ __ 

$$$$
