CLK003_D02
 OpenBabel03181410512D

 33 36  0  0  0  0  0  0  0  0999 V2000
    0.3227   -0.2315    0.0000 C   0  0  3  0  0  0  0  0  0  0  0  0
    0.3227   -1.0553    0.0000 C   0  0  0  0  0  0  0  0  0  0  0  0
    1.0364    0.1709    0.0000 C   0  0  0  0  0  0  0  0  0  0  0  0
   -0.3910    0.1822    0.0000 C   0  0  0  0  0  0  0  0  0  0  0  0
    1.0364   -1.4691    0.0000 C   0  0  0  0  0  0  0  0  0  0  0  0
   -0.3910   -1.4653    0.0000 C   0  0  0  0  0  0  0  0  0  0  0  0
    1.7425   -0.2391    0.0000 C   0  0  0  0  0  0  0  0  0  0  0  0
    1.0364    0.9984    0.0000 C   0  0  0  0  0  0  0  0  0  0  0  0
   -1.1085   -0.2315    0.0000 C   0  0  0  0  0  0  0  0  0  0  0  0
   -0.3910    1.0060    0.0000 C   0  0  0  0  0  0  0  0  0  0  0  0
    1.7425   -1.0553    0.0000 N   0  0  0  0  0  0  0  0  0  0  0  0
    1.0364   -2.2967    0.0000 C   0  0  0  0  0  0  0  0  0  0  0  0
   -0.3910   -2.2967    0.0000 C   0  0  0  0  0  0  0  0  0  0  0  0
   -1.1122   -1.0516    0.0000 O   0  0  0  0  0  0  0  0  0  0  0  0
    2.4561    0.1822    0.0000 C   0  0  0  0  0  0  0  0  0  0  0  0
    1.7425    1.4046    0.0000 C   0  0  0  0  0  0  0  0  0  0  0  0
    0.3189    1.4198    0.0000 O   0  0  0  0  0  0  0  0  0  0  0  0
   -1.8222    0.1822    0.0000 C   0  0  0  0  0  0  0  0  0  0  0  0
   -1.1085    1.4198    0.0000 C   0  0  0  0  0  0  0  0  0  0  0  0
    2.4561   -1.4691    0.0000 C   0  0  0  0  0  0  0  0  0  0  0  0
    0.3189   -2.7066    0.0000 C   0  0  0  0  0  0  0  0  0  0  0  0
    2.4561    0.9945    0.0000 C   0  0  0  0  0  0  0  0  0  0  0  0
   -1.8222    1.0060    0.0000 C   0  0  0  0  0  0  0  0  0  0  0  0
   -2.5396   -0.2315    0.0000 O   0  0  0  0  0  0  0  0  0  0  0  0
    0.3189   -3.5418    0.0000 C   0  0  0  0  0  0  0  0  0  0  0  0
   -0.5163   -2.7066    0.0000 C   0  0  0  0  0  0  0  0  0  0  0  0
    2.0385    1.7121    0.0000 C   0  0  0  0  0  0  0  0  0  0  0  0
    3.1812    1.4198    0.0000 C   0  0  0  0  0  0  0  0  0  0  0  0
   -2.5396    1.4122    0.0000 O   0  0  0  0  0  0  0  0  0  0  0  0
   -3.2533    0.1822    0.0000 C   0  0  0  0  0  0  0  0  0  0  0  0
   -2.5396    2.2359    0.0000 C   0  0  0  0  0  0  0  0  0  0  0  0
   -1.8222    2.6497    0.0000 C   0  0  0  0  0  0  0  0  0  0  0  0
   -1.8222    3.4735    0.0000 C   0  0  0  0  0  0  0  0  0  0  0  0
  1  2  1  0  0  0  0
  1  3  1  0  0  0  0
  1  4  1  0  0  0  0
  2  5  2  0  0  0  0
  2  6  1  0  0  0  0
  3  7  2  0  0  0  0
  3  8  1  0  0  0  0
  4  9  1  0  0  0  0
  4 10  2  0  0  0  0
  5 11  1  0  0  0  0
  5 12  1  0  0  0  0
  6 13  1  0  0  0  0
  6 14  2  0  0  0  0
  7 15  1  0  0  0  0
  7 11  1  0  0  0  0
  8 16  1  0  0  0  0
  8 17  2  0  0  0  0
  9 18  2  0  0  0  0
 10 19  1  0  0  0  0
 11 20  1  0  0  0  0
 12 21  1  0  0  0  0
 13 21  1  0  0  0  0
 15 22  1  0  0  0  0
 16 22  1  0  0  0  0
 18 23  1  0  0  0  0
 18 24  1  0  0  0  0
 19 23  2  0  0  0  0
 21 25  1  0  0  0  0
 21 26  1  0  0  0  0
 22 27  1  0  0  0  0
 22 28  1  0  0  0  0
 23 29  1  0  0  0  0
 24 30  1  0  0  0  0
 29 31  1  0  0  0  0
 31 32  1  0  0  0  0
 32 33  3  0  0  0  0
M  END
> <CdId>
191

> <Mol Weight>
447.5659

> <Formula>
C28H33NO4

> <Click_ID>
CLK003_D02 __ __ 

$$$$
