CLK005_B04
 OpenBabel03181410512D

 21 22  0  0  0  0  0  0  0  0999 V2000
   -0.3966    0.2000    0.0000 C   0  0  0  0  0  0  0  0  0  0  0  0
   -1.2137    0.2000    0.0000 S   0  0  0  0  0  0  0  0  0  0  0  0
    0.0172   -0.5138    0.0000 C   0  0  0  0  0  0  0  0  0  0  0  0
    0.0172    0.9137    0.0000 C   0  0  0  0  0  0  0  0  0  0  0  0
   -2.0377    0.2000    0.0000 N   0  0  0  0  0  0  0  0  0  0  0  0
   -1.2206   -0.6240    0.0000 O   0  0  0  0  0  0  0  0  0  0  0  0
   -1.2137    1.0240    0.0000 O   0  0  0  0  0  0  0  0  0  0  0  0
    0.8413   -0.5138    0.0000 C   0  0  0  0  0  0  0  0  0  0  0  0
    0.8378    0.9240    0.0000 C   0  0  0  0  0  0  0  0  0  0  0  0
   -2.4584    0.9137    0.0000 C   0  0  0  0  0  0  0  0  0  0  0  0
   -2.4584   -0.5138    0.0000 C   0  0  0  0  0  0  0  0  0  0  0  0
    1.2551    0.2034    0.0000 C   0  0  0  0  0  0  0  0  0  0  0  0
   -3.2825    0.9137    0.0000 C   0  0  0  0  0  0  0  0  0  0  0  0
   -3.2825   -0.5138    0.0000 C   0  0  0  0  0  0  0  0  0  0  0  0
    2.0791    0.2034    0.0000 C   0  0  0  0  0  0  0  0  0  0  0  0
   -3.6963    0.2000    0.0000 C   0  0  0  0  0  0  0  0  0  0  0  0
    2.4998   -0.5069    0.0000 O   0  0  0  0  0  0  0  0  0  0  0  0
    2.4929    0.9240    0.0000 O   0  0  0  0  0  0  0  0  0  0  0  0
    3.3238   -0.5000    0.0000 C   0  0  0  0  0  0  0  0  0  0  0  0
    3.7411   -1.2137    0.0000 C   0  0  0  0  0  0  0  0  0  0  0  0
    4.1513   -1.9239    0.0000 C   0  0  0  0  0  0  0  0  0  0  0  0
  1  2  1  0  0  0  0
  1  3  2  0  0  0  0
  1  4  1  0  0  0  0
  2  5  1  0  0  0  0
  2  6  2  0  0  0  0
  2  7  2  0  0  0  0
  3  8  1  0  0  0  0
  4  9  2  0  0  0  0
  5 10  1  0  0  0  0
  5 11  1  0  0  0  0
  8 12  2  0  0  0  0
  9 12  1  0  0  0  0
 10 13  1  0  0  0  0
 11 14  1  0  0  0  0
 12 15  1  0  0  0  0
 13 16  1  0  0  0  0
 14 16  1  0  0  0  0
 15 17  1  0  0  0  0
 15 18  2  0  0  0  0
 17 19  1  0  0  0  0
 19 20  1  0  0  0  0
 20 21  3  0  0  0  0
M  END
> <CdId>
333

> <Mol Weight>
307.365

> <Formula>
C15H17NO4S

> <Click_ID>
CLK005_B04 __ __ 

$$$$
