CLK051C10
 OpenBabel03181410512D

 25 26  0  0  0  0  0  0  0  0999 V2000
   -0.2292   -0.6917    0.0000 S   0  0  0  0  0  0  0  0  0  0  0  0
   -0.2292   -1.5167    0.0000 C   0  0  0  0  0  0  0  0  0  0  0  0
   -0.2292    0.1333    0.0000 N   0  0  0  0  0  0  0  0  0  0  0  0
    0.4833    1.3708    0.0000 C   0  0  0  0  0  0  0  0  0  0  0  0
   -0.9458   -1.9292    0.0000 C   0  0  0  0  0  0  0  0  0  0  0  0
    0.4833   -1.9292    0.0000 C   0  0  0  0  0  0  0  0  0  0  0  0
    0.4833    0.5458    0.0000 C   0  0  0  0  0  0  0  0  0  0  0  0
   -0.2292    1.7833    0.0000 C   0  0  0  0  0  0  0  0  0  0  0  0
   -1.0542   -0.6917    0.0000 O   0  0  0  0  0  0  0  0  0  0  0  0
    0.5958   -0.6917    0.0000 O   0  0  0  0  0  0  0  0  0  0  0  0
   -0.9458    3.8458    0.0000 C   0  0  0  0  0  0  0  0  0  0  0  0
   -0.9458    4.6667    0.0000 C   0  0  0  0  0  0  0  0  0  0  0  0
   -0.9458   -2.7542    0.0000 C   0  0  0  0  0  0  0  0  0  0  0  0
    0.4833   -2.7542    0.0000 C   0  0  0  0  0  0  0  0  0  0  0  0
   -0.9458    1.3708    0.0000 O   0  0  0  0  0  0  0  0  0  0  0  0
   -0.2292   -3.1667    0.0000 C   0  0  0  0  0  0  0  0  0  0  0  0
   -0.2292    2.6083    0.0000 N   0  0  0  0  0  0  0  0  0  0  0  0
   -0.9458    3.0208    0.0000 C   0  0  0  0  0  0  0  0  0  0  0  0
    1.2000    1.7833    0.0000 C   0  0  0  0  0  0  0  0  0  0  0  0
    1.2000   -1.5167    0.0000 C   0  0  0  0  0  0  0  0  0  0  0  0
   -1.6583   -1.5167    0.0000 C   0  0  0  0  0  0  0  0  0  0  0  0
    1.2000    0.1333    0.0000 C   0  0  0  0  0  0  0  0  0  0  0  0
   -0.2292   -3.9917    0.0000 C   0  0  0  0  0  0  0  0  0  0  0  0
    1.9125    1.3708    0.0000 C   0  0  0  0  0  0  0  0  0  0  0  0
    1.9125    0.5458    0.0000 C   0  0  0  0  0  0  0  0  0  0  0  0
  2  1  1  0  0  0  0
  3  1  1  0  0  0  0
  4  7  2  0  0  0  0
  5  2  2  0  0  0  0
  6  2  1  0  0  0  0
  7  3  1  0  0  0  0
  8  4  1  0  0  0  0
  9  1  2  0  0  0  0
 10  1  2  0  0  0  0
 11 18  1  0  0  0  0
 12 11  3  0  0  0  0
 13  5  1  0  0  0  0
 14  6  2  0  0  0  0
 14 16  1  0  0  0  0
 15  8  2  0  0  0  0
 16 13  2  0  0  0  0
 17  8  1  0  0  0  0
 18 17  1  0  0  0  0
 19  4  1  0  0  0  0
 20  6  1  0  0  0  0
 21  5  1  0  0  0  0
 22  7  1  0  0  0  0
 23 16  1  0  0  0  0
 24 19  2  0  0  0  0
 24 25  1  0  0  0  0
 25 22  2  0  0  0  0
M  END
> <CdId>
3955

> <Mol Weight>
356.439

> <Formula>
C19H20N2O3S

> <Click_ID>
CLK051C10 __ __ 

$$$$
