CLK018_B02
 OpenBabel03181410512D

 20 21  0  0  0  0  0  0  0  0999 V2000
    2.1099   -0.2289    0.0000 N   0  0  0  0  0  0  0  0  0  0  0  0
    2.3595   -1.0154    0.0000 C   0  0  0  0  0  0  0  0  0  0  0  0
    3.4374   -0.2289    0.0000 C   0  0  0  0  0  0  0  0  0  0  0  0
    2.7715    0.2580    0.0000 C   0  0  0  0  0  0  0  0  0  0  0  0
    4.3987    0.8323    0.0000 C   0  0  0  0  0  0  0  0  0  0  0  0
    5.0686    1.9850    0.0000 N   0  0  0  0  0  0  0  0  0  0  0  0
    3.1835   -1.0154    0.0000 S   0  0  0  0  0  0  0  0  0  0  0  0
    5.1477    1.1693    0.0000 C   0  0  0  0  0  0  0  0  0  0  0  0
    4.2614    2.1556    0.0000 C   0  0  0  0  0  0  0  0  0  0  0  0
    4.2239    0.0250    0.0000 C   0  0  0  0  0  0  0  0  0  0  0  0
    3.8494    1.4440    0.0000 C   0  0  0  0  0  0  0  0  0  0  0  0
    0.7116   -0.5285    0.0000 C   0  0  0  0  0  0  0  0  0  0  0  0
    0.1248   -1.1111    0.0000 C   0  0  0  0  0  0  0  0  0  0  0  0
    1.8768   -1.6771    0.0000 O   0  0  0  0  0  0  0  0  0  0  0  0
    2.7715    1.0819    0.0000 O   0  0  0  0  0  0  0  0  0  0  0  0
    1.3275    0.0250    0.0000 C   0  0  0  0  0  0  0  0  0  0  0  0
    5.6721    2.5426    0.0000 C   0  0  0  0  0  0  0  0  0  0  0  0
    5.8594    0.7491    0.0000 C   0  0  0  0  0  0  0  0  0  0  0  0
    3.9243    2.9089    0.0000 C   0  0  0  0  0  0  0  0  0  0  0  0
    5.5056    3.3416    0.0000 C   0  0  0  0  0  0  0  0  0  0  0  0
  2  1  1  0  0  0  0
  3  4  1  0  0  0  0
  3  7  1  0  0  0  0
  4  1  1  0  0  0  0
  5 10  1  0  0  0  0
  6  8  1  0  0  0  0
  7  2  1  0  0  0  0
  8  5  2  0  0  0  0
  9 11  2  0  0  0  0
  9  6  1  0  0  0  0
 10  3  2  0  0  0  0
 11  5  1  0  0  0  0
 12 16  1  0  0  0  0
 13 12  3  0  0  0  0
 14  2  2  0  0  0  0
 15  4  2  0  0  0  0
 16  1  1  0  0  0  0
 17  6  1  0  0  0  0
 18  8  1  0  0  0  0
 19  9  1  0  0  0  0
 20 17  1  0  0  0  0
M  END
> <CdId>
1327

> <Mol Weight>
288.365

> <Formula>
C15H16N2O2S

> <Click_ID>
CLK018_B02 __ __ 

$$$$
