CLK007_A06
 OpenBabel03181410512D

 21 23  0  0  0  0  0  0  0  0999 V2000
    5.4625   -5.8917    0.0000 C   0  0  0  0  0  0  0  0  0  0  0  0
    4.9792   -5.2292    0.0000 N   0  0  0  0  0  0  0  0  0  0  0  0
    4.9792   -6.5625    0.0000 N   0  0  0  0  0  0  0  0  0  0  0  0
    4.1917   -6.3042    0.0000 C   0  0  0  0  0  0  0  0  0  0  0  0
    4.1917   -5.4792    0.0000 C   0  0  0  0  0  0  0  0  0  0  0  0
    4.6792   -7.9542    0.0000 C   0  0  0  0  0  0  0  0  0  0  0  0
    4.1250   -8.5667    0.0000 C   0  0  0  0  0  0  0  0  0  0  0  0
    6.2875   -5.8875    0.0000 C   0  0  0  0  0  0  0  0  0  0  0  0
    6.7000   -5.1750    0.0000 O   0  0  0  0  0  0  0  0  0  0  0  0
    7.5292   -5.1750    0.0000 C   0  0  0  0  0  0  0  0  0  0  0  0
    5.2292   -7.3500    0.0000 C   0  0  0  0  0  0  0  0  0  0  0  0
    7.9417   -5.8875    0.0000 C   0  0  0  0  0  0  0  0  0  0  0  0
    3.4792   -6.7167    0.0000 C   0  0  0  0  0  0  0  0  0  0  0  0
    3.4792   -5.0667    0.0000 C   0  0  0  0  0  0  0  0  0  0  0  0
    7.9417   -4.4542    0.0000 C   0  0  0  0  0  0  0  0  0  0  0  0
    7.5167   -6.6042    0.0000 C   0  0  0  0  0  0  0  0  0  0  0  0
    8.7667   -5.8875    0.0000 C   0  0  0  0  0  0  0  0  0  0  0  0
    2.7667   -6.3042    0.0000 C   0  0  0  0  0  0  0  0  0  0  0  0
    2.7667   -5.4792    0.0000 C   0  0  0  0  0  0  0  0  0  0  0  0
    8.7667   -4.4542    0.0000 C   0  0  0  0  0  0  0  0  0  0  0  0
    9.1792   -5.1750    0.0000 C   0  0  0  0  0  0  0  0  0  0  0  0
  2  1  2  0  0  0  0
  3  1  1  0  0  0  0
  4  3  1  0  0  0  0
  5  2  1  0  0  0  0
  5  4  1  0  0  0  0
  6 11  1  0  0  0  0
  7  6  3  0  0  0  0
  8  1  1  0  0  0  0
  9  8  1  0  0  0  0
 10  9  1  0  0  0  0
 11  3  1  0  0  0  0
 12 10  2  0  0  0  0
 13  4  2  0  0  0  0
 14  5  2  0  0  0  0
 15 10  1  0  0  0  0
 16 12  1  0  0  0  0
 17 12  1  0  0  0  0
 18 13  1  0  0  0  0
 19 14  1  0  0  0  0
 19 18  2  0  0  0  0
 20 15  2  0  0  0  0
 21 20  1  0  0  0  0
 21 17  2  0  0  0  0
M  END
> <CdId>
485

> <Mol Weight>
276.3324

> <Formula>
C18H16N2O

> <Click_ID>
CLK007_A06 __ __ 

$$$$
