CLK022_C03
 OpenBabel03181410512D

 21 21  0  0  0  0  0  0  0  0999 V2000
    3.1516    2.7713    0.0000 C   0  0  0  0  0  0  0  0  0  0  0  0
    4.5808    2.7713    0.0000 C   0  0  0  0  0  0  0  0  0  0  0  0
    3.8662    3.1836    0.0000 N   0  0  0  0  0  0  0  0  0  0  0  0
    1.1452    3.3485    0.0000 C   0  0  0  0  0  0  0  0  0  0  0  0
    2.4370    3.1836    0.0000 N   0  0  0  0  0  0  0  0  0  0  0  0
    0.5543    3.9394    0.0000 C   0  0  0  0  0  0  0  0  0  0  0  0
    4.5808    1.9468    0.0000 C   0  0  0  0  0  0  0  0  0  0  0  0
    1.7224    2.7713    0.0000 C   0  0  0  0  0  0  0  0  0  0  0  0
    5.2954    3.1836    0.0000 C   0  0  0  0  0  0  0  0  0  0  0  0
    3.1516    1.9468    0.0000 O   0  0  0  0  0  0  0  0  0  0  0  0
    6.0100    2.7713    0.0000 C   0  0  0  0  0  0  0  0  0  0  0  0
    5.2954    1.5345    0.0000 C   0  0  0  0  0  0  0  0  0  0  0  0
    6.0100    1.9468    0.0000 C   0  0  0  0  0  0  0  0  0  0  0  0
    5.2954    4.0082    0.0000 O   0  0  0  0  0  0  0  0  0  0  0  0
    5.2954    0.7100    0.0000 O   0  0  0  0  0  0  0  0  0  0  0  0
    1.0903    2.2354    0.0000 C   0  0  0  0  0  0  0  0  0  0  0  0
    2.1988    2.0888    0.0000 C   0  0  0  0  0  0  0  0  0  0  0  0
    6.0100    4.4113    0.0000 C   0  0  0  0  0  0  0  0  0  0  0  0
    6.0100    0.2977    0.0000 C   0  0  0  0  0  0  0  0  0  0  0  0
    1.8461    1.3421    0.0000 C   0  0  0  0  0  0  0  0  0  0  0  0
    1.2368    1.4246    0.0000 C   0  0  0  0  0  0  0  0  0  0  0  0
  2  3  1  0  0  0  0
  3  1  1  0  0  0  0
  4  8  1  0  0  0  0
  5  1  1  0  0  0  0
  6  4  3  0  0  0  0
  7  2  1  0  0  0  0
  8  5  1  0  0  0  0
  9  2  2  0  0  0  0
 10  1  2  0  0  0  0
 11  9  1  0  0  0  0
 12  7  2  0  0  0  0
 12 13  1  0  0  0  0
 13 11  2  0  0  0  0
 14  9  1  0  0  0  0
 15 12  1  0  0  0  0
 16  8  1  0  0  0  0
 17  8  1  0  0  0  0
 18 14  1  0  0  0  0
 19 15  1  0  0  0  0
 20 17  1  0  0  0  0
 21 16  1  0  0  0  0
M  END
> <CdId>
1654

> <Mol Weight>
290.3575

> <Formula>
C16H22N2O3

> <Click_ID>
CLK022_C03 __ __ 

$$$$
