CLK003_D08
 OpenBabel03181410512D

 23 25  0  0  0  0  0  0  0  0999 V2000
   -0.9599    0.8758    0.0000 C   0  0  0  0  0  0  0  0  0  0  0  0
   -0.4169    1.4838    0.0000 C   0  0  0  0  0  0  0  0  0  0  0  0
   -0.7840    0.0842    0.0000 N   0  0  0  0  0  0  0  0  0  0  0  0
   -1.7668    0.9561    0.0000 S   0  0  0  0  0  0  0  0  0  0  0  0
    0.3824    1.3195    0.0000 C   0  0  0  0  0  0  0  0  0  0  0  0
   -0.7151    2.3634    0.0000 C   0  0  0  0  0  0  0  0  0  0  0  0
   -1.4838   -0.3327    0.0000 C   0  0  0  0  0  0  0  0  0  0  0  0
   -2.0958    0.2104    0.0000 C   0  0  0  0  0  0  0  0  0  0  0  0
    0.6464    0.5392    0.0000 C   0  0  0  0  0  0  0  0  0  0  0  0
   -1.0058    3.2469    0.0000 N   0  0  0  0  0  0  0  0  0  0  0  0
   -1.6406   -1.1358    0.0000 C   0  0  0  0  0  0  0  0  0  0  0  0
   -2.8721   -0.0536    0.0000 C   0  0  0  0  0  0  0  0  0  0  0  0
    1.4532    0.3671    0.0000 C   0  0  0  0  0  0  0  0  0  0  0  0
    0.0918   -0.0918    0.0000 C   0  0  0  0  0  0  0  0  0  0  0  0
   -2.4285   -1.3959    0.0000 C   0  0  0  0  0  0  0  0  0  0  0  0
   -3.0289   -0.8529    0.0000 C   0  0  0  0  0  0  0  0  0  0  0  0
    1.7172   -0.4245    0.0000 C   0  0  0  0  0  0  0  0  0  0  0  0
    0.3557   -0.8796    0.0000 C   0  0  0  0  0  0  0  0  0  0  0  0
    1.1703   -1.0478    0.0000 C   0  0  0  0  0  0  0  0  0  0  0  0
    2.5355   -0.5889    0.0000 O   0  0  0  0  0  0  0  0  0  0  0  0
    2.7994   -1.3806    0.0000 C   0  0  0  0  0  0  0  0  0  0  0  0
    3.6179   -1.5450    0.0000 C   0  0  0  0  0  0  0  0  0  0  0  0
    4.4286   -1.7133    0.0000 C   0  0  0  0  0  0  0  0  0  0  0  0
  1  2  1  0  0  0  0
  1  3  2  0  0  0  0
  1  4  1  0  0  0  0
  2  5  2  0  0  0  0
  2  6  1  0  0  0  0
  3  7  1  0  0  0  0
  4  8  1  0  0  0  0
  5  9  1  0  0  0  0
  6 10  3  0  0  0  0
  7 11  1  0  0  0  0
  7  8  2  0  0  0  0
  8 12  1  0  0  0  0
  9 13  2  0  0  0  0
  9 14  1  0  0  0  0
 11 15  2  0  0  0  0
 12 16  2  0  0  0  0
 13 17  1  0  0  0  0
 14 18  2  0  0  0  0
 15 16  1  0  0  0  0
 17 19  2  0  0  0  0
 17 20  1  0  0  0  0
 18 19  1  0  0  0  0
 20 21  1  0  0  0  0
 21 22  1  0  0  0  0
 22 23  3  0  0  0  0
M  END
> <CdId>
197

> <Mol Weight>
316.376

> <Formula>
C19H12N2OS

> <Click_ID>
CLK003_D08 __ __ 

$$$$
