CLK016_G09
 OpenBabel03181410512D

 31 33  0  0  0  0  0  0  0  0999 V2000
    1.5864   -0.8270    0.0000 N    0  0  0  0  0  0  0  0  0  0  0  0
    1.8479   -1.6243    0.0000 C    0  0  0  0  0  0  0  0  0  0  0  0
    2.2656   -0.3333    0.0000 C    0  0  0  0  0  0  0  0  0  0  0  0
    2.9406   -0.8270    0.0000 C    0  0  0  0  0  0  0  0  0  0  0  0
    2.6833   -1.6243    0.0000 S    0  0  0  0  0  0  0  0  0  0  0  0
    4.2696    1.8437    0.0000 C    0  0  0  0  0  0  0  0  0  0  0  0
    3.7380   -0.5696    0.0000 C    0  0  0  0  0  0  0  0  0  0  0  0
    4.8645    1.2783    0.0000 C    0  0  0  0  0  0  0  0  0  0  0  0
    3.4849    1.5948    0.0000 C    0  0  0  0  0  0  0  0  0  0  0  0
    3.9110    0.2278    0.0000 C    0  0  0  0  0  0  0  0  0  0  0  0
    4.4595    2.6410    0.0000 O    0  0  0  0  0  0  0  0  0  0  0  0
    5.9910    6.0753    0.0000 C    0  0  0  0  0  0  0  0  0  0  0  0
    0.6202    0.2489    0.0000 C    0  0  0  0  0  0  0  0  0  0  0  0
    0.3966    1.0589    0.0000 C    0  0  0  0  0  0  0  0  0  0  0  0
    1.3543   -2.2951    0.0000 O    0  0  0  0  0  0  0  0  0  0  0  0
    4.6873    0.4767    0.0000 C    0  0  0  0  0  0  0  0  0  0  0  0
    2.2572    0.5020    0.0000 O    0  0  0  0  0  0  0  0  0  0  0  0
    3.2950    0.7847    0.0000 C    0  0  0  0  0  0  0  0  0  0  0  0
    5.8011    5.2779    0.0000 C    0  0  0  0  0  0  0  0  0  0  0  0
    0.7974   -0.5696    0.0000 C    0  0  0  0  0  0  0  0  0  0  0  0
    5.4087    6.6491    0.0000 O    0  0  0  0  0  0  0  0  0  0  0  0
    5.0290    5.0417    0.0000 C    0  0  0  0  0  0  0  0  0  0  0  0
    6.4044    4.7126    0.0000 C    0  0  0  0  0  0  0  0  0  0  0  0
    5.6576    1.5146    0.0000 Cl   0  0  0  0  0  0  0  0  0  0  0  0
    5.2442    2.8731    0.0000 C    0  0  0  0  0  0  0  0  0  0  0  0
    6.7841    6.3200    0.0000 O    0  0  0  0  0  0  0  0  0  0  0  0
    2.8858    2.1474    0.0000 O    0  0  0  0  0  0  0  0  0  0  0  0
    5.4341    3.6916    0.0000 C    0  0  0  0  0  0  0  0  0  0  0  0
    4.8349    4.2317    0.0000 C    0  0  0  0  0  0  0  0  0  0  0  0
    6.2145    3.9194    0.0000 C    0  0  0  0  0  0  0  0  0  0  0  0
    2.1053    1.9069    0.0000 C    0  0  0  0  0  0  0  0  0  0  0  0
  2  1  1  0  0  0  0
  3  1  1  0  0  0  0
  4  3  1  0  0  0  0
  4  5  1  0  0  0  0
  5  2  1  0  0  0  0
  6  9  2  0  0  0  0
  6  8  1  0  0  0  0
  7  4  2  0  0  0  0
  8 16  2  0  0  0  0
  9 18  1  0  0  0  0
 10  7  1  0  0  0  0
 11  6  1  0  0  0  0
 12 19  1  0  0  0  0
 13 20  1  0  0  0  0
 14 13  3  0  0  0  0
 15  2  2  0  0  0  0
 16 10  1  0  0  0  0
 17  3  2  0  0  0  0
 18 10  2  0  0  0  0
 19 23  2  0  0  0  0
 20  1  1  0  0  0  0
 21 12  2  0  0  0  0
 22 29  2  0  0  0  0
 22 19  1  0  0  0  0
 23 30  1  0  0  0  0
 24  8  1  0  0  0  0
 25 11  1  0  0  0  0
 26 12  1  0  0  0  0
 27  9  1  0  0  0  0
 28 25  1  0  0  0  0
 29 28  1  0  0  0  0
 30 28  2  0  0  0  0
 31 27  1  0  0  0  0
M  END
> <CdId>
1224

> <Mol Weight>
457.884

> <Formula>
C22H16ClNO6S

> <Click_ID>
CLK016_G09 __ __ 

$$$$
