CLK002_H03
 OpenBabel03181410512D

 32 36  0  0  0  0  0  0  0  0999 V2000
   -1.2454   -0.5061    0.0000 C   0  0  0  0  0  0  0  0  0  0  0  0
   -0.5273   -0.1121    0.0000 C   0  0  0  0  0  0  0  0  0  0  0  0
   -1.9424   -0.1121    0.0000 C   0  0  0  0  0  0  0  0  0  0  0  0
   -0.5273   -0.9121    0.0000 C   0  0  0  0  0  0  0  0  0  0  0  0
   -1.9424   -0.9121    0.0000 C   0  0  0  0  0  0  0  0  0  0  0  0
   -0.5273    0.7303    0.0000 C   0  0  0  0  0  0  0  0  0  0  0  0
    0.1848   -0.5061    0.0000 C   0  0  0  0  0  0  0  0  0  0  0  0
   -1.9424    0.7303    0.0000 C   0  0  0  0  0  0  0  0  0  0  0  0
   -0.5273   -1.7454    0.0000 C   0  0  0  0  0  0  0  0  0  0  0  0
   -1.9424   -1.7454    0.0000 C   0  0  0  0  0  0  0  0  0  0  0  0
   -1.2454    1.1273    0.0000 C   0  0  0  0  0  0  0  0  0  0  0  0
    0.1848    1.1273    0.0000 N   0  0  0  0  0  0  0  0  0  0  0  0
    0.8878   -0.1121    0.0000 N   0  0  0  0  0  0  0  0  0  0  0  0
    0.1848   -1.3515    0.0000 O   0  0  0  0  0  0  0  0  0  0  0  0
   -2.6606    1.1273    0.0000 C   0  0  0  0  0  0  0  0  0  0  0  0
   -1.2454   -2.1515    0.0000 C   0  0  0  0  0  0  0  0  0  0  0  0
   -1.2454    1.9545    0.0000 C   0  0  0  0  0  0  0  0  0  0  0  0
    0.8878    0.7303    0.0000 C   0  0  0  0  0  0  0  0  0  0  0  0
    1.5818   -0.5061    0.0000 C   0  0  0  0  0  0  0  0  0  0  0  0
   -2.6606    1.9545    0.0000 C   0  0  0  0  0  0  0  0  0  0  0  0
   -1.9424    2.3757    0.0000 C   0  0  0  0  0  0  0  0  0  0  0  0
    1.5818    1.1363    0.0000 S   0  0  0  0  0  0  0  0  0  0  0  0
    1.5818   -1.3515    0.0000 C   0  0  0  0  0  0  0  0  0  0  0  0
    2.3121   -0.1030    0.0000 C   0  0  0  0  0  0  0  0  0  0  0  0
    1.5818    1.9606    0.0000 C   0  0  0  0  0  0  0  0  0  0  0  0
    2.3121   -1.7818    0.0000 C   0  0  0  0  0  0  0  0  0  0  0  0
    0.8697   -1.7546    0.0000 O   0  0  0  0  0  0  0  0  0  0  0  0
    3.0333   -0.5061    0.0000 C   0  0  0  0  0  0  0  0  0  0  0  0
    0.8697    2.3757    0.0000 C   0  0  0  0  0  0  0  0  0  0  0  0
    3.0242   -1.3606    0.0000 C   0  0  0  0  0  0  0  0  0  0  0  0
    0.8637   -2.5727    0.0000 C   0  0  0  0  0  0  0  0  0  0  0  0
    0.1667    2.7788    0.0000 C   0  0  0  0  0  0  0  0  0  0  0  0
  1  2  1  0  0  0  0
  1  3  1  0  0  0  0
  1  4  1  0  0  0  0
  1  5  1  0  0  0  0
  2  6  2  0  0  0  0
  2  7  1  0  0  0  0
  3  8  1  0  0  0  0
  4  9  1  0  0  0  0
  5 10  1  0  0  0  0
  6 11  1  0  0  0  0
  6 12  1  0  0  0  0
  7 13  1  0  0  0  0
  7 14  2  0  0  0  0
  8 15  2  0  0  0  0
  8 11  1  0  0  0  0
  9 16  1  0  0  0  0
 10 16  1  0  0  0  0
 11 17  2  0  0  0  0
 12 18  2  0  0  0  0
 13 19  1  0  0  0  0
 13 18  1  0  0  0  0
 15 20  1  0  0  0  0
 17 21  1  0  0  0  0
 18 22  1  0  0  0  0
 19 23  1  0  0  0  0
 19 24  2  0  0  0  0
 20 21  2  0  0  0  0
 22 25  1  0  0  0  0
 23 26  2  0  0  0  0
 23 27  1  0  0  0  0
 24 28  1  0  0  0  0
 25 29  1  0  0  0  0
 26 30  1  0  0  0  0
 27 31  1  0  0  0  0
 28 30  2  0  0  0  0
 29 32  3  0  0  0  0
M  END
> <CdId>
152

> <Mol Weight>
442.573

> <Formula>
C27H26N2O2S

> <Click_ID>
CLK002_H03 __ __ 

$$$$
