CLK043B05
 OpenBabel03181410512D

 25 27  0  0  0  0  0  0  0  0999 V2000
    0.4000   -2.6292    0.0000 C   0  0  0  0  0  0  0  0  0  0  0  0
   -0.3167    1.0833    0.0000 C   0  0  0  0  0  0  0  0  0  0  0  0
    0.4000   -3.4542    0.0000 C   0  0  0  0  0  0  0  0  0  0  0  0
    0.4000    1.4958    0.0000 N   0  0  0  0  0  0  0  0  0  0  0  0
   -0.3167   -2.2167    0.0000 N   0  0  0  0  0  0  0  0  0  0  0  0
   -1.0292    3.9708    0.0000 C   0  0  0  0  0  0  0  0  0  0  0  0
   -1.7458    4.3792    0.0000 C   0  0  0  0  0  0  0  0  0  0  0  0
    1.0667   -3.9375    0.0000 O   0  0  0  0  0  0  0  0  0  0  0  0
   -0.3167    0.2583    0.0000 C   0  0  0  0  0  0  0  0  0  0  0  0
   -0.2708   -3.9375    0.0000 C   0  0  0  0  0  0  0  0  0  0  0  0
    1.1125   -2.2167    0.0000 O   0  0  0  0  0  0  0  0  0  0  0  0
   -1.0292    1.4958    0.0000 O   0  0  0  0  0  0  0  0  0  0  0  0
    0.4000    2.3208    0.0000 C   0  0  0  0  0  0  0  0  0  0  0  0
    0.8125   -4.7250    0.0000 C   0  0  0  0  0  0  0  0  0  0  0  0
   -0.0125   -4.7250    0.0000 C   0  0  0  0  0  0  0  0  0  0  0  0
   -1.0292   -0.1542    0.0000 C   0  0  0  0  0  0  0  0  0  0  0  0
    0.4000   -0.1542    0.0000 C   0  0  0  0  0  0  0  0  0  0  0  0
   -0.3167   -1.3917    0.0000 C   0  0  0  0  0  0  0  0  0  0  0  0
   -0.3167    3.5583    0.0000 C   0  0  0  0  0  0  0  0  0  0  0  0
   -0.3167    2.7333    0.0000 C   0  0  0  0  0  0  0  0  0  0  0  0
   -1.0292   -0.9792    0.0000 C   0  0  0  0  0  0  0  0  0  0  0  0
    0.4000   -0.9792    0.0000 C   0  0  0  0  0  0  0  0  0  0  0  0
    1.1125    3.5583    0.0000 C   0  0  0  0  0  0  0  0  0  0  0  0
    1.1125    2.7333    0.0000 C   0  0  0  0  0  0  0  0  0  0  0  0
    0.4000    3.9708    0.0000 C   0  0  0  0  0  0  0  0  0  0  0  0
  2  9  1  0  0  0  0
  3  1  1  0  0  0  0
  4  2  1  0  0  0  0
  5  1  1  0  0  0  0
  6 19  1  0  0  0  0
  7  6  3  0  0  0  0
  8  3  1  0  0  0  0
  9 16  2  0  0  0  0
  9 17  1  0  0  0  0
 10  3  2  0  0  0  0
 11  1  2  0  0  0  0
 12  2  2  0  0  0  0
 13  4  1  0  0  0  0
 14  8  1  0  0  0  0
 14 15  2  0  0  0  0
 15 10  1  0  0  0  0
 16 21  1  0  0  0  0
 17 22  2  0  0  0  0
 18  5  1  0  0  0  0
 19 20  1  0  0  0  0
 20 13  2  0  0  0  0
 21 18  2  0  0  0  0
 22 18  1  0  0  0  0
 23 24  2  0  0  0  0
 24 13  1  0  0  0  0
 25 19  2  0  0  0  0
 25 23  1  0  0  0  0
M  END
> <CdId>
3274

> <Mol Weight>
330.3368

> <Formula>
C20H14N2O3

> <Click_ID>
CLK043B05 __ __ 

$$$$
