CLK050D02
 OpenBabel03181410512D

 19 20  0  0  0  0  0  0  0  0999 V2000
    1.1833   -0.1583    0.0000 C   0  0  0  0  0  0  0  0  0  0  0  0
    2.4542   -0.5708    0.0000 N   0  0  0  0  0  0  0  0  0  0  0  0
    0.3583   -0.1583    0.0000 C   0  0  0  0  0  0  0  0  0  0  0  0
    2.4542    0.2542    0.0000 N   0  0  0  0  0  0  0  0  0  0  0  0
    1.6708   -0.8250    0.0000 C   0  0  0  0  0  0  0  0  0  0  0  0
    1.6708    0.5083    0.0000 C   0  0  0  0  0  0  0  0  0  0  0  0
   -0.0542    0.5583    0.0000 N   0  0  0  0  0  0  0  0  0  0  0  0
   -2.5292   -0.8708    0.0000 C   0  0  0  0  0  0  0  0  0  0  0  0
   -2.9417   -1.5875    0.0000 C   0  0  0  0  0  0  0  0  0  0  0  0
   -0.0542   -0.8708    0.0000 O   0  0  0  0  0  0  0  0  0  0  0  0
   -0.8792    0.5583    0.0000 C   0  0  0  0  0  0  0  0  0  0  0  0
   -2.1167   -0.1583    0.0000 C   0  0  0  0  0  0  0  0  0  0  0  0
   -1.2917   -0.1583    0.0000 C   0  0  0  0  0  0  0  0  0  0  0  0
    3.1208    0.7375    0.0000 C   0  0  0  0  0  0  0  0  0  0  0  0
    1.4167   -1.6083    0.0000 C   0  0  0  0  0  0  0  0  0  0  0  0
    1.4167    1.2958    0.0000 C   0  0  0  0  0  0  0  0  0  0  0  0
   -2.1167    1.2708    0.0000 C   0  0  0  0  0  0  0  0  0  0  0  0
   -1.2917    1.2708    0.0000 C   0  0  0  0  0  0  0  0  0  0  0  0
   -2.5292    0.5583    0.0000 C   0  0  0  0  0  0  0  0  0  0  0  0
  2  5  2  0  0  0  0
  3  1  1  0  0  0  0
  4  6  1  0  0  0  0
  4  2  1  0  0  0  0
  5  1  1  0  0  0  0
  6  1  2  0  0  0  0
  7  3  1  0  0  0  0
  8 12  1  0  0  0  0
  9  8  3  0  0  0  0
 10  3  2  0  0  0  0
 11  7  1  0  0  0  0
 12 13  1  0  0  0  0
 13 11  2  0  0  0  0
 14  4  1  0  0  0  0
 15  5  1  0  0  0  0
 16  6  1  0  0  0  0
 17 18  2  0  0  0  0
 18 11  1  0  0  0  0
 19 12  2  0  0  0  0
 19 17  1  0  0  0  0
M  END
> <CdId>
3812

> <Mol Weight>
253.2991

> <Formula>
C15H15N3O

> <Click_ID>
CLK050D02 __ __ 

$$$$
