CLK032_G08
 OpenBabel03181410512D

 23 25  0  0  0  0  0  0  0  0999 V2000
   -1.8997    2.1628    0.0000 C   0  0  0  0  0  0  0  0  0  0  0  0
   -1.0730    2.1628    0.0000 N   0  0  0  0  0  0  0  0  0  0  0  0
   -2.3799    2.8266    0.0000 N   0  0  0  0  0  0  0  0  0  0  0  0
   -2.3799    1.4864    0.0000 S   0  0  0  0  0  0  0  0  0  0  0  0
   -3.1691    2.5636    0.0000 C   0  0  0  0  0  0  0  0  0  0  0  0
   -3.1648    1.7369    0.0000 C   0  0  0  0  0  0  0  0  0  0  0  0
   -0.6597    1.4488    0.0000 C   0  0  0  0  0  0  0  0  0  0  0  0
   -1.3235    3.7786    0.0000 C   0  0  0  0  0  0  0  0  0  0  0  0
    0.1670    1.4488    0.0000 C   0  0  0  0  0  0  0  0  0  0  0  0
   -0.5219    3.9540    0.0000 C   0  0  0  0  0  0  0  0  0  0  0  0
   -3.8830    2.9895    0.0000 C   0  0  0  0  0  0  0  0  0  0  0  0
   -1.0647    0.7265    0.0000 O   0  0  0  0  0  0  0  0  0  0  0  0
    0.5804    0.7390    0.0000 C   0  0  0  0  0  0  0  0  0  0  0  0
   -2.1294    3.6158    0.0000 C   0  0  0  0  0  0  0  0  0  0  0  0
    1.4029    0.7473    0.0000 C   0  0  0  0  0  0  0  0  0  0  0  0
   -3.8830    3.8079    0.0000 F   0  0  0  0  0  0  0  0  0  0  0  0
   -3.8830    1.3277    0.0000 C   0  0  0  0  0  0  0  0  0  0  0  0
    1.8205    0.0251    0.0000 F   0  0  0  0  0  0  0  0  0  0  0  0
    0.5804    2.1628    0.0000 C   0  0  0  0  0  0  0  0  0  0  0  0
   -4.5928    1.7369    0.0000 C   0  0  0  0  0  0  0  0  0  0  0  0
    1.3946    2.1670    0.0000 C   0  0  0  0  0  0  0  0  0  0  0  0
   -4.5928    2.5636    0.0000 C   0  0  0  0  0  0  0  0  0  0  0  0
    1.8079    1.4530    0.0000 C   0  0  0  0  0  0  0  0  0  0  0  0
  2  1  2  0  0  0  0
  3  1  1  0  0  0  0
  4  1  1  0  0  0  0
  5  3  1  0  0  0  0
  6  4  1  0  0  0  0
  6  5  2  0  0  0  0
  7  2  1  0  0  0  0
  8 14  1  0  0  0  0
  9  7  1  0  0  0  0
 10  8  3  0  0  0  0
 11  5  1  0  0  0  0
 12  7  2  0  0  0  0
 13  9  2  0  0  0  0
 14  3  1  0  0  0  0
 15 13  1  0  0  0  0
 15 23  2  0  0  0  0
 16 11  1  0  0  0  0
 17  6  1  0  0  0  0
 18 15  1  0  0  0  0
 19  9  1  0  0  0  0
 20 17  2  0  0  0  0
 20 22  1  0  0  0  0
 21 19  2  0  0  0  0
 22 11  2  0  0  0  0
 23 21  1  0  0  0  0
M  END
> <CdId>
2472

> <Mol Weight>
328.336

> <Formula>
C17H10F2N2OS

> <Click_ID>
CLK032_G08 __ __ 

$$$$
