CLK044E02
 OpenBabel03181410512D

 23 25  0  0  0  0  0  0  0  0999 V2000
   -0.7708    0.1875    0.0000 C   0  0  0  0  0  0  0  0  0  0  0  0
    0.0542    0.1875    0.0000 C   0  0  0  0  0  0  0  0  0  0  0  0
   -1.2542    0.8542    0.0000 N   0  0  0  0  0  0  0  0  0  0  0  0
   -1.2542   -0.4792    0.0000 S   0  0  0  0  0  0  0  0  0  0  0  0
    0.4667    0.9042    0.0000 C   0  0  0  0  0  0  0  0  0  0  0  0
    0.4667   -0.5250    0.0000 C   0  0  0  0  0  0  0  0  0  0  0  0
   -2.0375    0.6000    0.0000 C   0  0  0  0  0  0  0  0  0  0  0  0
   -2.0375   -0.2250    0.0000 C   0  0  0  0  0  0  0  0  0  0  0  0
    0.8792   -1.2417    0.0000 N   0  0  0  0  0  0  0  0  0  0  0  0
    1.2917    0.9042    0.0000 C   0  0  0  0  0  0  0  0  0  0  0  0
    1.2917   -1.9542    0.0000 C   0  0  0  0  0  0  0  0  0  0  0  0
    0.8792   -2.6708    0.0000 C   0  0  0  0  0  0  0  0  0  0  0  0
    1.7042    0.1875    0.0000 C   0  0  0  0  0  0  0  0  0  0  0  0
    1.2917   -0.5250    0.0000 O   0  0  0  0  0  0  0  0  0  0  0  0
    1.7042   -1.2417    0.0000 C   0  0  0  0  0  0  0  0  0  0  0  0
   -2.7542    1.0125    0.0000 C   0  0  0  0  0  0  0  0  0  0  0  0
   -2.7542   -0.6375    0.0000 C   0  0  0  0  0  0  0  0  0  0  0  0
    1.7042    1.6167    0.0000 C   0  0  0  0  0  0  0  0  0  0  0  0
    2.5292    0.1875    0.0000 C   0  0  0  0  0  0  0  0  0  0  0  0
   -3.4667   -0.2250    0.0000 C   0  0  0  0  0  0  0  0  0  0  0  0
   -3.4667    0.6000    0.0000 C   0  0  0  0  0  0  0  0  0  0  0  0
    2.5292    1.6167    0.0000 C   0  0  0  0  0  0  0  0  0  0  0  0
    2.9417    0.9042    0.0000 C   0  0  0  0  0  0  0  0  0  0  0  0
  2  1  1  0  0  0  0
  3  1  2  0  0  0  0
  4  1  1  0  0  0  0
  5  2  2  0  0  0  0
  6  2  1  0  0  0  0
  7  3  1  0  0  0  0
  8  4  1  0  0  0  0
  8  7  2  0  0  0  0
  9  6  3  0  0  0  0
 10  5  1  0  0  0  0
 11 15  1  0  0  0  0
 12 11  3  0  0  0  0
 13 10  2  0  0  0  0
 14 13  1  0  0  0  0
 15 14  1  0  0  0  0
 16  7  1  0  0  0  0
 17  8  1  0  0  0  0
 18 10  1  0  0  0  0
 19 13  1  0  0  0  0
 20 17  2  0  0  0  0
 20 21  1  0  0  0  0
 21 16  2  0  0  0  0
 22 18  2  0  0  0  0
 22 23  1  0  0  0  0
 23 19  2  0  0  0  0
M  END
> <CdId>
3333

> <Mol Weight>
316.376

> <Formula>
C19H12N2OS

> <Click_ID>
CLK044E02 __ __ 

$$$$
