CLK049F10
 OpenBabel03181410512D

 13 13  0  0  0  0  0  0  0  0999 V2000
    0.4085    0.0750    0.0000 C   0  0  0  0  0  0  0  0  0  0  0  0
    1.1673   -0.2501    0.0000 N   0  0  0  0  0  0  0  0  0  0  0  0
    0.4835    0.8962    0.0000 C   0  0  0  0  0  0  0  0  0  0  0  0
    1.7092    0.3710    0.0000 C   0  0  0  0  0  0  0  0  0  0  0  0
   -0.3002   -0.3502    0.0000 C   0  0  0  0  0  0  0  0  0  0  0  0
    1.2881    1.0797    0.0000 C   0  0  0  0  0  0  0  0  0  0  0  0
   -2.4512    0.0292    0.0000 C   0  0  0  0  0  0  0  0  0  0  0  0
   -3.1724    0.4335    0.0000 C   0  0  0  0  0  0  0  0  0  0  0  0
   -0.2876   -1.1756    0.0000 O   0  0  0  0  0  0  0  0  0  0  0  0
   -1.0213    0.0542    0.0000 N   0  0  0  0  0  0  0  0  0  0  0  0
    1.3507   -1.0547    0.0000 C   0  0  0  0  0  0  0  0  0  0  0  0
   -1.7301   -0.3710    0.0000 C   0  0  0  0  0  0  0  0  0  0  0  0
    2.5305    0.2959    0.0000 C   0  0  0  0  0  0  0  0  0  0  0  0
  2  1  1  0  0  0  0
  3  1  2  0  0  0  0
  4  2  1  0  0  0  0
  5  1  1  0  0  0  0
  6  3  1  0  0  0  0
  6  4  2  0  0  0  0
  7 12  1  0  0  0  0
  8  7  3  0  0  0  0
  9  5  2  0  0  0  0
 10  5  1  0  0  0  0
 11  2  1  0  0  0  0
 12 10  1  0  0  0  0
 13  4  1  0  0  0  0
M  END
> <CdId>
3798

> <Mol Weight>
176.2151

> <Formula>
C10H12N2O

> <Click_ID>
CLK049F10 __ __ 

$$$$
