CLK042B08
 OpenBabel03181410512D

 28 30  0  0  0  0  0  0  0  0999 V2000
    0.9375    0.2042    0.0000 C   0  0  0  0  0  0  0  0  0  0  0  0
   -2.7750   -0.5125    0.0000 S   0  0  0  0  0  0  0  0  0  0  0  0
    1.4208    0.8708    0.0000 N   0  0  0  0  0  0  0  0  0  0  0  0
    0.1125    0.2042    0.0000 N   0  0  0  0  0  0  0  0  0  0  0  0
    1.4208   -0.4625    0.0000 S   0  0  0  0  0  0  0  0  0  0  0  0
   -0.3000    0.9167    0.0000 C   0  0  0  0  0  0  0  0  0  0  0  0
    2.2083   -0.2083    0.0000 C   0  0  0  0  0  0  0  0  0  0  0  0
    2.2083    0.6167    0.0000 C   0  0  0  0  0  0  0  0  0  0  0  0
   -2.3625    0.2042    0.0000 C   0  0  0  0  0  0  0  0  0  0  0  0
   -1.1250    0.9167    0.0000 C   0  0  0  0  0  0  0  0  0  0  0  0
   -4.4250   -1.9417    0.0000 C   0  0  0  0  0  0  0  0  0  0  0  0
   -1.5375    0.2042    0.0000 C   0  0  0  0  0  0  0  0  0  0  0  0
    2.9208   -0.6208    0.0000 C   0  0  0  0  0  0  0  0  0  0  0  0
   -4.8375   -2.6542    0.0000 C   0  0  0  0  0  0  0  0  0  0  0  0
   -3.4875   -0.1000    0.0000 O   0  0  0  0  0  0  0  0  0  0  0  0
   -2.0625   -0.9250    0.0000 O   0  0  0  0  0  0  0  0  0  0  0  0
   -3.1875   -1.2250    0.0000 N   0  0  0  0  0  0  0  0  0  0  0  0
    0.1125    1.6333    0.0000 O   0  0  0  0  0  0  0  0  0  0  0  0
    2.9208    1.0292    0.0000 C   0  0  0  0  0  0  0  0  0  0  0  0
    3.6375   -0.2083    0.0000 C   0  0  0  0  0  0  0  0  0  0  0  0
    3.6375    0.6167    0.0000 C   0  0  0  0  0  0  0  0  0  0  0  0
   -4.0125   -1.2250    0.0000 C   0  0  0  0  0  0  0  0  0  0  0  0
    4.3500   -0.6208    0.0000 O   0  0  0  0  0  0  0  0  0  0  0  0
   -2.7750    0.9167    0.0000 C   0  0  0  0  0  0  0  0  0  0  0  0
   -1.5375    1.6333    0.0000 C   0  0  0  0  0  0  0  0  0  0  0  0
   -2.3625    1.6333    0.0000 C   0  0  0  0  0  0  0  0  0  0  0  0
    5.0667   -0.2083    0.0000 C   0  0  0  0  0  0  0  0  0  0  0  0
    5.7792   -0.6208    0.0000 C   0  0  0  0  0  0  0  0  0  0  0  0
  2  9  1  0  0  0  0
  3  1  2  0  0  0  0
  4  1  1  0  0  0  0
  5  1  1  0  0  0  0
  6  4  1  0  0  0  0
  7  5  1  0  0  0  0
  7  8  2  0  0  0  0
  8  3  1  0  0  0  0
  9 12  1  0  0  0  0
 10  6  1  0  0  0  0
 11 22  1  0  0  0  0
 12 10  2  0  0  0  0
 13  7  1  0  0  0  0
 14 11  3  0  0  0  0
 15  2  2  0  0  0  0
 16  2  2  0  0  0  0
 17  2  1  0  0  0  0
 18  6  2  0  0  0  0
 19  8  1  0  0  0  0
 20 13  2  0  0  0  0
 21 19  2  0  0  0  0
 21 20  1  0  0  0  0
 22 17  1  0  0  0  0
 23 20  1  0  0  0  0
 24  9  2  0  0  0  0
 24 26  1  0  0  0  0
 25 10  1  0  0  0  0
 26 25  2  0  0  0  0
 27 23  1  0  0  0  0
 28 27  1  0  0  0  0
M  END
> <CdId>
3218

> <Mol Weight>
415.486

> <Formula>
C19H17N3O4S2

> <Click_ID>
CLK042B08 __ __ 

$$$$
