CLK035_C07
 OpenBabel03181410512D

 24 26  0  0  0  0  0  0  0  0999 V2000
   -4.5935    2.5570    0.0000 C   0  0  0  0  0  0  0  0  0  0  0  0
   -4.6810    1.7324    0.0000 N   0  0  0  0  0  0  0  0  0  0  0  0
   -3.8606    2.9818    0.0000 N   0  0  0  0  0  0  0  0  0  0  0  0
   -5.3182    2.8944    0.0000 S   0  0  0  0  0  0  0  0  0  0  0  0
   -5.4848    1.5825    0.0000 C   0  0  0  0  0  0  0  0  0  0  0  0
   -5.8929    2.2989    0.0000 C   0  0  0  0  0  0  0  0  0  0  0  0
   -3.8689    3.7981    0.0000 C   0  0  0  0  0  0  0  0  0  0  0  0
   -4.2562    0.3581    0.0000 C   0  0  0  0  0  0  0  0  0  0  0  0
   -4.4436   -0.4540    0.0000 C   0  0  0  0  0  0  0  0  0  0  0  0
   -5.9179    0.8829    0.0000 C   0  0  0  0  0  0  0  0  0  0  0  0
   -4.5810    4.2146    0.0000 O   0  0  0  0  0  0  0  0  0  0  0  0
   -4.0688    1.1619    0.0000 C   0  0  0  0  0  0  0  0  0  0  0  0
   -3.1567    4.2104    0.0000 C   0  0  0  0  0  0  0  0  0  0  0  0
   -6.7009    2.3197    0.0000 C   0  0  0  0  0  0  0  0  0  0  0  0
   -3.1567    5.0267    0.0000 C   0  0  0  0  0  0  0  0  0  0  0  0
   -5.5181    0.1457    0.0000 O   0  0  0  0  0  0  0  0  0  0  0  0
   -7.1382    1.6200    0.0000 C   0  0  0  0  0  0  0  0  0  0  0  0
   -6.7259    0.8871    0.0000 C   0  0  0  0  0  0  0  0  0  0  0  0
   -2.4446    5.4473    0.0000 C   0  0  0  0  0  0  0  0  0  0  0  0
   -3.8731    5.4390    0.0000 C   0  0  0  0  0  0  0  0  0  0  0  0
   -5.9554   -0.5539    0.0000 C   0  0  0  0  0  0  0  0  0  0  0  0
   -2.4446    6.2719    0.0000 C   0  0  0  0  0  0  0  0  0  0  0  0
   -3.8814    6.2594    0.0000 C   0  0  0  0  0  0  0  0  0  0  0  0
   -3.1692    6.6759    0.0000 C   0  0  0  0  0  0  0  0  0  0  0  0
  2  1  1  0  0  0  0
  3  1  2  0  0  0  0
  4  1  1  0  0  0  0
  5  2  1  0  0  0  0
  6  4  1  0  0  0  0
  6  5  2  0  0  0  0
  7  3  1  0  0  0  0
  8 12  1  0  0  0  0
  9  8  3  0  0  0  0
 10  5  1  0  0  0  0
 11  7  2  0  0  0  0
 12  2  1  0  0  0  0
 13  7  1  0  0  0  0
 14  6  1  0  0  0  0
 15 13  1  0  0  0  0
 16 10  1  0  0  0  0
 17 14  2  0  0  0  0
 18 10  2  0  0  0  0
 18 17  1  0  0  0  0
 19 15  2  0  0  0  0
 20 15  1  0  0  0  0
 21 16  1  0  0  0  0
 22 19  1  0  0  0  0
 23 20  2  0  0  0  0
 24 23  1  0  0  0  0
 24 22  2  0  0  0  0
M  END
> <CdId>
2671

> <Mol Weight>
336.408

> <Formula>
C19H16N2O2S

> <Click_ID>
CLK035_C07 __ __ 

$$$$
