CLK011_C05
 OpenBabel03181410512D

 22 23  0  0  0  0  0  0  0  0999 V2000
    2.8465   -1.9101    0.0000 C   0  0  0  0  0  0  0  0  0  0  0  0
    2.8465   -0.2539    0.0000 C   0  0  0  0  0  0  0  0  0  0  0  0
    3.5623   -0.6742    0.0000 N   0  0  0  0  0  0  0  0  0  0  0  0
    2.1390   -0.6742    0.0000 N   0  0  0  0  0  0  0  0  0  0  0  0
    2.1390   -1.5023    0.0000 C   0  0  0  0  0  0  0  0  0  0  0  0
    3.5623   -1.5023    0.0000 C   0  0  0  0  0  0  0  0  0  0  0  0
    2.8465   -2.7383    0.0000 C   0  0  0  0  0  0  0  0  0  0  0  0
    2.8465    0.5743    0.0000 S   0  0  0  0  0  0  0  0  0  0  0  0
    6.3963   -5.6472    0.0000 C   0  0  0  0  0  0  0  0  0  0  0  0
    7.1037   -6.0717    0.0000 C   0  0  0  0  0  0  0  0  0  0  0  0
    4.2822   -1.9143    0.0000 O   0  0  0  0  0  0  0  0  0  0  0  0
    1.4149   -1.9143    0.0000 O   0  0  0  0  0  0  0  0  0  0  0  0
    4.2739   -0.2622    0.0000 C   0  0  0  0  0  0  0  0  0  0  0  0
    1.4232   -0.2622    0.0000 C   0  0  0  0  0  0  0  0  0  0  0  0
    3.5623   -3.1503    0.0000 C   0  0  0  0  0  0  0  0  0  0  0  0
    4.9855   -3.9826    0.0000 C   0  0  0  0  0  0  0  0  0  0  0  0
    3.5623   -3.9701    0.0000 C   0  0  0  0  0  0  0  0  0  0  0  0
    4.2822   -2.7383    0.0000 C   0  0  0  0  0  0  0  0  0  0  0  0
    4.9855   -3.1628    0.0000 C   0  0  0  0  0  0  0  0  0  0  0  0
    4.2739   -4.3946    0.0000 C   0  0  0  0  0  0  0  0  0  0  0  0
    5.6847   -5.2227    0.0000 C   0  0  0  0  0  0  0  0  0  0  0  0
    5.6929   -4.3987    0.0000 O   0  0  0  0  0  0  0  0  0  0  0  0
  2  3  1  0  0  0  0
  3  6  1  0  0  0  0
  4  5  1  0  0  0  0
  4  2  1  0  0  0  0
  5  1  1  0  0  0  0
  6  1  1  0  0  0  0
  7  1  2  0  0  0  0
  8  2  2  0  0  0  0
  9 21  1  0  0  0  0
 10  9  3  0  0  0  0
 11  6  2  0  0  0  0
 12  5  2  0  0  0  0
 13  3  1  0  0  0  0
 14  4  1  0  0  0  0
 15  7  1  0  0  0  0
 16 19  2  0  0  0  0
 17 15  1  0  0  0  0
 18 15  2  0  0  0  0
 19 18  1  0  0  0  0
 20 17  2  0  0  0  0
 20 16  1  0  0  0  0
 21 22  1  0  0  0  0
 22 16  1  0  0  0  0
M  END
> <CdId>
780

> <Mol Weight>
314.359

> <Formula>
C16H14N2O3S

> <Click_ID>
CLK011_C05 __ __ 

$$$$
