CLK041A10
 OpenBabel03181410512D

 26 29  0  0  0  0  0  0  0  0999 V2000
   -0.9707   -0.2583    0.0000 C   0  0  0  0  0  0  0  0  0  0  0  0
   -1.4540    0.4124    0.0000 N   0  0  0  0  0  0  0  0  0  0  0  0
   -1.4540   -0.9249    0.0000 N   0  0  0  0  0  0  0  0  0  0  0  0
   -0.1458   -0.2583    0.0000 C   0  0  3  0  0  0  0  0  0  0  0  0
    1.1248    0.1542    0.0000 N   0  0  0  0  0  0  0  0  0  0  0  0
    1.1248   -0.6707    0.0000 C   0  0  0  0  0  0  0  0  0  0  0  0
    0.3374    0.4124    0.0000 C   0  0  0  0  0  0  0  0  0  0  0  0
   -2.2414   -0.6707    0.0000 C   0  0  0  0  0  0  0  0  0  0  0  0
   -2.2414    0.1542    0.0000 C   0  0  0  0  0  0  0  0  0  0  0  0
    0.3374   -0.9249    0.0000 C   0  0  0  0  0  0  0  0  0  0  0  0
    1.7914    0.6416    0.0000 C   0  0  0  0  0  0  0  0  0  0  0  0
   -1.7539   -2.3204    0.0000 C   0  0  0  0  0  0  0  0  0  0  0  0
   -2.3038   -2.9329    0.0000 C   0  0  0  0  0  0  0  0  0  0  0  0
    1.7914   -1.1540    0.0000 O   0  0  0  0  0  0  0  0  0  0  0  0
   -1.1998   -1.7080    0.0000 C   0  0  0  0  0  0  0  0  0  0  0  0
    1.7039    1.4623    0.0000 C   0  0  0  0  0  0  0  0  0  0  0  0
    2.5454    0.3042    0.0000 C   0  0  0  0  0  0  0  0  0  0  0  0
    3.1245    1.6123    0.0000 C   0  0  0  0  0  0  0  0  0  0  0  0
    2.3704    1.9455    0.0000 C   0  0  0  0  0  0  0  0  0  0  0  0
    3.2120    0.7916    0.0000 C   0  0  0  0  0  0  0  0  0  0  0  0
   -2.9538   -1.0831    0.0000 C   0  0  0  0  0  0  0  0  0  0  0  0
   -2.9538    0.5666    0.0000 C   0  0  0  0  0  0  0  0  0  0  0  0
    3.7911    2.0955    0.0000 O   0  0  0  0  0  0  0  0  0  0  0  0
    3.7077    2.9163    0.0000 C   0  0  0  0  0  0  0  0  0  0  0  0
   -3.6702   -0.6707    0.0000 C   0  0  0  0  0  0  0  0  0  0  0  0
   -3.6702    0.1542    0.0000 C   0  0  0  0  0  0  0  0  0  0  0  0
  2  1  2  0  0  0  0
  3  1  1  0  0  0  0
  4  1  1  0  0  0  0
  5  7  1  0  0  0  0
  6 10  1  0  0  0  0
  6  5  1  0  0  0  0
  7  4  1  0  0  0  0
  8  3  1  0  0  0  0
  8  9  2  0  0  0  0
  9  2  1  0  0  0  0
 10  4  1  0  0  0  0
 11  5  1  0  0  0  0
 12 15  1  0  0  0  0
 13 12  3  0  0  0  0
 14  6  2  0  0  0  0
 15  3  1  0  0  0  0
 16 11  1  0  0  0  0
 17 11  2  0  0  0  0
 18 20  2  0  0  0  0
 19 16  2  0  0  0  0
 19 18  1  0  0  0  0
 20 17  1  0  0  0  0
 21  8  1  0  0  0  0
 22  9  1  0  0  0  0
 23 18  1  0  0  0  0
 24 23  1  0  0  0  0
 25 21  2  0  0  0  0
 25 26  1  0  0  0  0
 26 22  2  0  0  0  0
M  END
> <CdId>
3153

> <Mol Weight>
345.3945

> <Formula>
C21H19N3O2

> <Click_ID>
CLK041A10 __ __ 

$$$$
