CLK024_A03
 OpenBabel03181410512D

 30 32  0  0  0  0  0  0  0  0999 V2000
    2.1415   -0.8147    0.0000 C   0  0  0  0  0  0  0  0  0  0  0  0
    2.1415   -1.6397    0.0000 C   0  0  0  0  0  0  0  0  0  0  0  0
    1.4128    0.4125    0.0000 C   0  0  0  0  0  0  0  0  0  0  0  0
    0.6909    0.8215    0.0000 C   0  0  0  0  0  0  0  0  0  0  0  0
    0.7116   -0.8181    0.0000 N   0  0  0  0  0  0  0  0  0  0  0  0
    2.8497   -0.3919    0.0000 C   0  0  0  0  0  0  0  0  0  0  0  0
   -0.7219   -0.8285    0.0000 C   0  0  0  0  0  0  0  0  0  0  0  0
    1.4266   -0.4056    0.0000 C   0  0  0  0  0  0  0  0  0  0  0  0
   -0.0068   -0.4125    0.0000 N   0  0  0  0  0  0  0  0  0  0  0  0
    2.8634   -2.0522    0.0000 C   0  0  0  0  0  0  0  0  0  0  0  0
   -0.7219   -1.6534    0.0000 O   0  0  0  0  0  0  0  0  0  0  0  0
    3.5681   -0.8009    0.0000 C   0  0  0  0  0  0  0  0  0  0  0  0
    3.5818   -1.6293    0.0000 C   0  0  0  0  0  0  0  0  0  0  0  0
   -2.8703    2.0453    0.0000 C   0  0  0  0  0  0  0  0  0  0  0  0
   -2.8703    0.3953    0.0000 C   0  0  0  0  0  0  0  0  0  0  0  0
    2.8427    0.4263    0.0000 O   0  0  0  0  0  0  0  0  0  0  0  0
   -3.5852    1.6362    0.0000 C   0  0  0  0  0  0  0  0  0  0  0  0
   -2.1484    1.6362    0.0000 C   0  0  0  0  0  0  0  0  0  0  0  0
   -2.1484    0.8078    0.0000 C   0  0  0  0  0  0  0  0  0  0  0  0
   -3.5852    0.8078    0.0000 C   0  0  0  0  0  0  0  0  0  0  0  0
    2.1243    0.8318    0.0000 C   0  0  0  0  0  0  0  0  0  0  0  0
   -2.8703    2.8703    0.0000 O   0  0  0  0  0  0  0  0  0  0  0  0
   -1.4334   -0.4160    0.0000 C   0  0  0  0  0  0  0  0  0  0  0  0
    1.4369   -2.0556    0.0000 C   0  0  0  0  0  0  0  0  0  0  0  0
   -2.1381   -0.8285    0.0000 C   0  0  0  0  0  0  0  0  0  0  0  0
   -2.8634   -0.4263    0.0000 C   0  0  0  0  0  0  0  0  0  0  0  0
    2.8668   -2.8668    0.0000 C   0  0  0  0  0  0  0  0  0  0  0  0
   -2.1484    3.2828    0.0000 C   0  0  0  0  0  0  0  0  0  0  0  0
    1.4437   -2.8771    0.0000 C   0  0  0  0  0  0  0  0  0  0  0  0
    2.1621   -3.2793    0.0000 C   0  0  0  0  0  0  0  0  0  0  0  0
  2  1  2  0  0  0  0
  3 21  1  0  0  0  0
  4  3  3  0  0  0  0
  5  8  2  0  0  0  0
  6  1  1  0  0  0  0
  7  9  1  0  0  0  0
  8  1  1  0  0  0  0
  9  5  1  0  0  0  0
 10  2  1  0  0  0  0
 11  7  2  0  0  0  0
 12  6  2  0  0  0  0
 13 12  1  0  0  0  0
 13 10  2  0  0  0  0
 14 17  1  0  0  0  0
 14 18  2  0  0  0  0
 15 26  1  0  0  0  0
 16  6  1  0  0  0  0
 17 20  2  0  0  0  0
 18 19  1  0  0  0  0
 19 15  2  0  0  0  0
 20 15  1  0  0  0  0
 21 16  1  0  0  0  0
 22 14  1  0  0  0  0
 23  7  1  0  0  0  0
 24  2  1  0  0  0  0
 25 23  1  0  0  0  0
 26 25  1  0  0  0  0
 27 10  1  0  0  0  0
 27 30  2  0  0  0  0
 28 22  1  0  0  0  0
 29 24  2  0  0  0  0
 30 29  1  0  0  0  0
M  END
> <CdId>
1778

> <Mol Weight>
400.4697

> <Formula>
C25H24N2O3

> <Click_ID>
CLK024_A03 __ __ 

$$$$
