CLK047C04
 OpenBabel03181410512D

 31 33  0  0  0  0  0  0  0  0999 V2000
   -0.9307    3.2386    0.0000 S   0  0  0  0  0  0  0  0  0  0  0  0
   -0.6719    2.4498    0.0000 C   0  0  0  0  0  0  0  0  0  0  0  0
    1.5818   -3.5266    0.0000 S   0  0  0  0  0  0  0  0  0  0  0  0
   -1.1852    4.0191    0.0000 N   0  0  0  0  0  0  0  0  0  0  0  0
   -1.1602    1.7822    0.0000 S   0  0  0  0  0  0  0  0  0  0  0  0
    0.1127    2.1953    0.0000 C   0  0  0  0  0  0  0  0  0  0  0  0
   -0.6303   -1.0725    0.0000 C   0  0  0  0  0  0  0  0  0  0  0  0
   -0.6719    1.1143    0.0000 C   0  0  0  0  0  0  0  0  0  0  0  0
    1.0267   -2.9131    0.0000 C   0  0  0  0  0  0  0  0  0  0  0  0
   -0.1419    3.4932    0.0000 O   0  0  0  0  0  0  0  0  0  0  0  0
   -1.7154    2.9841    0.0000 O   0  0  0  0  0  0  0  0  0  0  0  0
    2.4290   -5.5424    0.0000 C   0  0  0  0  0  0  0  0  0  0  0  0
    0.1127    1.3690    0.0000 C   0  0  0  0  0  0  0  0  0  0  0  0
    2.9841   -6.1559    0.0000 C   0  0  0  0  0  0  0  0  0  0  0  0
   -0.3756   -0.2838    0.0000 N   0  0  0  0  0  0  0  0  0  0  0  0
    2.1953   -2.9757    0.0000 O   0  0  0  0  0  0  0  0  0  0  0  0
    0.9683   -4.0817    0.0000 O   0  0  0  0  0  0  0  0  0  0  0  0
   -0.0793   -1.6861    0.0000 C   0  0  0  0  0  0  0  0  0  0  0  0
    2.1327   -4.1401    0.0000 N   0  0  0  0  0  0  0  0  0  0  0  0
   -1.4399   -1.2437    0.0000 O   0  0  0  0  0  0  0  0  0  0  0  0
    0.2212   -3.0843    0.0000 C   0  0  0  0  0  0  0  0  0  0  0  0
    1.2813   -2.1285    0.0000 C   0  0  0  0  0  0  0  0  0  0  0  0
   -0.3339   -2.4708    0.0000 C   0  0  0  0  0  0  0  0  0  0  0  0
    0.7304   -1.5150    0.0000 C   0  0  0  0  0  0  0  0  0  0  0  0
   -1.6945    5.5925    0.0000 O   0  0  0  0  0  0  0  0  0  0  0  0
   -0.9307    0.3298    0.0000 C   0  0  0  0  0  0  0  0  0  0  0  0
   -0.6303    4.6326    0.0000 C   0  0  0  0  0  0  0  0  0  0  0  0
   -1.9907    4.1902    0.0000 C   0  0  0  0  0  0  0  0  0  0  0  0
    1.8781   -4.9289    0.0000 C   0  0  0  0  0  0  0  0  0  0  0  0
   -0.8847    5.4172    0.0000 C   0  0  0  0  0  0  0  0  0  0  0  0
   -2.2495    4.9790    0.0000 C   0  0  0  0  0  0  0  0  0  0  0  0
  2  1  1  0  0  0  0
  3  9  1  0  0  0  0
  4  1  1  0  0  0  0
  5  2  1  0  0  0  0
  6  2  2  0  0  0  0
  7 15  1  0  0  0  0
  8  5  1  0  0  0  0
  9 22  2  0  0  0  0
  9 21  1  0  0  0  0
 10  1  2  0  0  0  0
 11  1  2  0  0  0  0
 12 29  1  0  0  0  0
 13  6  1  0  0  0  0
 13  8  2  0  0  0  0
 14 12  3  0  0  0  0
 15 26  1  0  0  0  0
 16  3  2  0  0  0  0
 17  3  2  0  0  0  0
 18  7  1  0  0  0  0
 19  3  1  0  0  0  0
 20  7  2  0  0  0  0
 21 23  2  0  0  0  0
 22 24  1  0  0  0  0
 23 18  1  0  0  0  0
 24 18  2  0  0  0  0
 25 31  1  0  0  0  0
 25 30  1  0  0  0  0
 26  8  1  0  0  0  0
 27  4  1  0  0  0  0
 28  4  1  0  0  0  0
 29 19  1  0  0  0  0
 30 27  1  0  0  0  0
 31 28  1  0  0  0  0
M  END
> <CdId>
3587

> <Mol Weight>
483.582

> <Formula>
C19H21N3O6S3

> <Click_ID>
CLK047C04 __ __ 

$$$$
