CLK006_D09
 OpenBabel03181410512D

 25 27  0  0  0  0  0  0  0  0999 V2000
    0.6599    0.0587    0.0000 C   0  0  3  0  0  0  0  0  0  0  0  0
   -0.0553   -0.3524    0.0000 C   0  0  0  0  0  0  0  0  0  0  0  0
    0.6599    0.8880    0.0000 C   0  0  0  0  0  0  0  0  0  0  0  0
    1.3751   -0.3455    0.0000 C   0  0  0  0  0  0  0  0  0  0  0  0
   -0.0553   -1.1713    0.0000 C   0  0  0  0  0  0  0  0  0  0  0  0
   -0.7670    0.0691    0.0000 C   0  0  0  0  0  0  0  0  0  0  0  0
    1.3751    1.2992    0.0000 C   0  0  0  0  0  0  0  0  0  0  0  0
   -0.0553    1.2957    0.0000 C   0  0  0  0  0  0  0  0  0  0  0  0
    1.3751   -1.1713    0.0000 C   0  0  0  0  0  0  0  0  0  0  0  0
   -0.7670   -1.5859    0.0000 N   0  0  0  0  0  0  0  0  0  0  0  0
    0.6599   -1.5859    0.0000 N   0  0  0  0  0  0  0  0  0  0  0  0
   -1.4753   -0.3524    0.0000 N   0  0  0  0  0  0  0  0  0  0  0  0
   -0.7670    0.8949    0.0000 O   0  0  0  0  0  0  0  0  0  0  0  0
    1.3682    2.1249    0.0000 C   0  0  0  0  0  0  0  0  0  0  0  0
    2.1698    1.0883    0.0000 O   0  0  0  0  0  0  0  0  0  0  0  0
   -0.0656    2.1145    0.0000 C   0  0  0  0  0  0  0  0  0  0  0  0
    2.0869   -1.5859    0.0000 O   0  0  0  0  0  0  0  0  0  0  0  0
   -1.4753   -1.1816    0.0000 C   0  0  0  0  0  0  0  0  0  0  0  0
    0.6565    2.5360    0.0000 C   0  0  0  0  0  0  0  0  0  0  0  0
    2.5775    0.3731    0.0000 C   0  0  0  0  0  0  0  0  0  0  0  0
   -2.1974   -1.5928    0.0000 S   0  0  0  0  0  0  0  0  0  0  0  0
    2.1629   -0.3421    0.0000 C   0  0  0  0  0  0  0  0  0  0  0  0
   -2.9091   -1.1816    0.0000 C   0  0  0  0  0  0  0  0  0  0  0  0
   -2.9091   -0.3524    0.0000 C   0  0  0  0  0  0  0  0  0  0  0  0
   -3.6244    0.0587    0.0000 C   0  0  0  0  0  0  0  0  0  0  0  0
  1  2  1  0  0  0  0
  1  3  1  0  0  0  0
  1  4  1  0  0  0  0
  2  5  2  0  0  0  0
  2  6  1  0  0  0  0
  3  7  2  0  0  0  0
  3  8  1  0  0  0  0
  4  9  1  0  0  0  0
  5 10  1  0  0  0  0
  5 11  1  0  0  0  0
  6 12  1  0  0  0  0
  6 13  2  0  0  0  0
  7 14  1  0  0  0  0
  7 15  1  0  0  0  0
  8 16  2  0  0  0  0
  9 17  2  0  0  0  0
  9 11  1  0  0  0  0
 10 18  2  0  0  0  0
 12 18  1  0  0  0  0
 14 19  2  0  0  0  0
 15 20  1  0  0  0  0
 16 19  1  0  0  0  0
 18 21  1  0  0  0  0
 20 22  1  0  0  0  0
 21 23  1  0  0  0  0
 23 24  1  0  0  0  0
 24 25  3  0  0  0  0
M  END
> <CdId>
438

> <Mol Weight>
355.411

> <Formula>
C18H17N3O3S

> <Click_ID>
CLK006_D09 __ __ 

$$$$
