CLK007_E03
 OpenBabel03181410512D

 34 38  0  0  0  0  0  0  0  0999 V2000
   -0.0898    0.7731    0.0000 C   0  0  3  0  0  0  0  0  0  0  0  0
   -0.8111    0.3555    0.0000 C   0  0  0  0  0  0  0  0  0  0  0  0
    0.7041    0.9872    0.0000 C   0  0  0  0  0  0  0  0  0  0  0  0
    0.6178    0.3555    0.0000 C   0  0  0  0  0  0  0  0  0  0  0  0
   -0.5488    1.4635    0.0000 C   0  0  0  0  0  0  0  0  0  0  0  0
   -0.8111   -0.4695    0.0000 C   0  0  0  0  0  0  0  0  0  0  0  0
   -1.5222    0.7731    0.0000 C   0  0  0  0  0  0  0  0  0  0  0  0
    0.7421    1.8121    0.0000 C   0  0  0  0  0  0  0  0  0  0  0  0
    1.3910    0.5453    0.0000 C   0  0  0  0  0  0  0  0  0  0  0  0
    0.6178   -0.4695    0.0000 C   0  0  0  0  0  0  0  0  0  0  0  0
    1.3289   -0.0553    0.0000 C   0  0  0  0  0  0  0  0  0  0  0  0
   -0.0276    2.1089    0.0000 N   0  0  0  0  0  0  0  0  0  0  0  0
   -1.1356    2.0572    0.0000 O   0  0  0  0  0  0  0  0  0  0  0  0
   -0.0967   -0.8802    0.0000 N   0  0  0  0  0  0  0  0  0  0  0  0
   -1.5222   -0.8768    0.0000 C   0  0  0  0  0  0  0  0  0  0  0  0
   -2.2298    0.3555    0.0000 C   0  0  0  0  0  0  0  0  0  0  0  0
   -2.1123    1.3634    0.0000 O   0  0  0  0  0  0  0  0  0  0  0  0
    1.4807    2.1952    0.0000 C   0  0  0  0  0  0  0  0  0  0  0  0
    2.1297    0.9216    0.0000 C   0  0  0  0  0  0  0  0  0  0  0  0
    1.3289   -0.8906    0.0000 N   0  0  0  0  0  0  0  0  0  0  0  0
    2.0434   -0.4695    0.0000 N   0  0  0  0  0  0  0  0  0  0  0  0
   -0.2485    2.9097    0.0000 C   0  0  0  0  0  0  0  0  0  0  0  0
   -0.1104   -1.7017    0.0000 C   0  0  0  0  0  0  0  0  0  0  0  0
   -2.2298   -0.4695    0.0000 C   0  0  0  0  0  0  0  0  0  0  0  0
    2.1676    1.7465    0.0000 C   0  0  0  0  0  0  0  0  0  0  0  0
    0.3382    3.4896    0.0000 C   0  0  0  0  0  0  0  0  0  0  0  0
   -0.8215   -2.1089    0.0000 C   0  0  0  0  0  0  0  0  0  0  0  0
    0.6040   -2.1193    0.0000 C   0  0  0  0  0  0  0  0  0  0  0  0
    0.1173    4.2870    0.0000 C   0  0  0  0  0  0  0  0  0  0  0  0
   -0.8284   -2.9338    0.0000 C   0  0  0  0  0  0  0  0  0  0  0  0
    0.6040   -2.9408    0.0000 C   0  0  0  0  0  0  0  0  0  0  0  0
   -0.1139   -3.3550    0.0000 C   0  0  0  0  0  0  0  0  0  0  0  0
   -0.1208   -4.1800    0.0000 C   0  0  0  0  0  0  0  0  0  0  0  0
   -0.8353   -4.5837    0.0000 C   0  0  0  0  0  0  0  0  0  0  0  0
  1  2  1  0  0  0  0
  1  3  1  0  0  0  0
  1  4  1  0  0  0  0
  1  5  1  0  0  0  0
  2  6  2  0  0  0  0
  2  7  1  0  0  0  0
  3  8  2  0  0  0  0
  3  9  1  0  0  0  0
  4 10  2  0  0  0  0
  4 11  1  0  0  0  0
  5 12  1  0  0  0  0
  5 13  2  0  0  0  0
  6 14  1  0  0  0  0
  6 15  1  0  0  0  0
  7 16  1  0  0  0  0
  7 17  2  0  0  0  0
  8 18  1  0  0  0  0
  8 12  1  0  0  0  0
  9 19  2  0  0  0  0
 10 20  1  0  0  0  0
 10 14  1  0  0  0  0
 11 21  3  0  0  0  0
 12 22  1  0  0  0  0
 14 23  1  0  0  0  0
 15 24  1  0  0  0  0
 16 24  1  0  0  0  0
 18 25  2  0  0  0  0
 19 25  1  0  0  0  0
 22 26  1  0  0  0  0
 23 27  2  0  0  0  0
 23 28  1  0  0  0  0
 26 29  3  0  0  0  0
 27 30  1  0  0  0  0
 28 31  2  0  0  0  0
 30 32  2  0  0  0  0
 31 32  1  0  0  0  0
 32 33  1  0  0  0  0
 33 34  1  0  0  0  0
M  END
> <CdId>
522

> <Mol Weight>
448.5158

> <Formula>
C28H24N4O2

> <Click_ID>
CLK007_E03 __ __ 

$$$$
