CLK047D04
 OpenBabel03181410512D

 20 20  0  0  0  0  0  0  0  0999 V2000
   -0.9667    1.0542    0.0000 S   0  0  0  0  0  0  0  0  0  0  0  0
    0.4625   -1.4208    0.0000 C   0  0  0  0  0  0  0  0  0  0  0  0
   -0.2542    0.6417    0.0000 C   0  0  0  0  0  0  0  0  0  0  0  0
    0.4625   -0.5958    0.0000 C   0  0  0  0  0  0  0  0  0  0  0  0
   -0.2542   -0.1833    0.0000 C   0  0  0  0  0  0  0  0  0  0  0  0
   -2.3958    2.7042    0.0000 C   0  0  0  0  0  0  0  0  0  0  0  0
   -3.1083    3.1167    0.0000 C   0  0  0  0  0  0  0  0  0  0  0  0
   -1.3792    0.3375    0.0000 O   0  0  0  0  0  0  0  0  0  0  0  0
   -0.5542    1.7667    0.0000 O   0  0  0  0  0  0  0  0  0  0  0  0
    1.1750   -1.8333    0.0000 N   0  0  0  0  0  0  0  0  0  0  0  0
   -1.6792    1.4667    0.0000 N   0  0  0  0  0  0  0  0  0  0  0  0
   -0.2542   -1.8333    0.0000 O   0  0  0  0  0  0  0  0  0  0  0  0
   -1.6792    2.2917    0.0000 C   0  0  0  0  0  0  0  0  0  0  0  0
    1.1750   -0.1833    0.0000 C   0  0  0  0  0  0  0  0  0  0  0  0
    0.4625    1.0542    0.0000 C   0  0  0  0  0  0  0  0  0  0  0  0
    1.1750    0.6417    0.0000 C   0  0  0  0  0  0  0  0  0  0  0  0
    1.1750   -2.6583    0.0000 C   0  0  0  0  0  0  0  0  0  0  0  0
    1.8917   -1.4208    0.0000 C   0  0  0  0  0  0  0  0  0  0  0  0
    1.8917   -3.0708    0.0000 C   0  0  0  0  0  0  0  0  0  0  0  0
    2.6042   -1.8333    0.0000 C   0  0  0  0  0  0  0  0  0  0  0  0
  2  4  1  0  0  0  0
  3  1  1  0  0  0  0
  4  5  2  0  0  0  0
  5  3  1  0  0  0  0
  6 13  1  0  0  0  0
  7  6  3  0  0  0  0
  8  1  2  0  0  0  0
  9  1  2  0  0  0  0
 10  2  1  0  0  0  0
 11  1  1  0  0  0  0
 12  2  2  0  0  0  0
 13 11  1  0  0  0  0
 14  4  1  0  0  0  0
 15  3  2  0  0  0  0
 16 15  1  0  0  0  0
 16 14  2  0  0  0  0
 17 10  1  0  0  0  0
 18 10  1  0  0  0  0
 19 17  1  0  0  0  0
 20 18  1  0  0  0  0
M  END
> <CdId>
3588

> <Mol Weight>
294.369

> <Formula>
C14H18N2O3S

> <Click_ID>
CLK047D04 __ __ 

$$$$
