CLK014_E06
 OpenBabel03181410512D

 32 35  0  0  0  0  0  0  0  0999 V2000
    1.5576   -0.8119    0.0000 N    0  0  0  0  0  0  0  0  0  0  0  0
    1.8144   -1.5948    0.0000 C    0  0  0  0  0  0  0  0  0  0  0  0
    2.2245   -0.3273    0.0000 C    0  0  0  0  0  0  0  0  0  0  0  0
    2.8873   -0.8119    0.0000 C    0  0  0  0  0  0  0  0  0  0  0  0
    2.6345   -1.5948    0.0000 S    0  0  0  0  0  0  0  0  0  0  0  0
    4.2004    1.8599    0.0000 C    0  0  0  0  0  0  0  0  0  0  0  0
    3.6702   -0.5592    0.0000 C    0  0  0  0  0  0  0  0  0  0  0  0
    4.8093    1.3131    0.0000 C    0  0  0  0  0  0  0  0  0  0  0  0
    3.4092    1.6238    0.0000 C    0  0  0  0  0  0  0  0  0  0  0  0
    4.3909    2.6718    0.0000 O    0  0  0  0  0  0  0  0  0  0  0  0
    3.8442    0.2568    0.0000 C    0  0  0  0  0  0  0  0  0  0  0  0
    0.6089    0.2444    0.0000 C    0  0  0  0  0  0  0  0  0  0  0  0
    0.3894    1.0397    0.0000 C    0  0  0  0  0  0  0  0  0  0  0  0
    1.3297   -2.2535    0.0000 O    0  0  0  0  0  0  0  0  0  0  0  0
    4.6353    0.5053    0.0000 C    0  0  0  0  0  0  0  0  0  0  0  0
    2.2162    0.4929    0.0000 O    0  0  0  0  0  0  0  0  0  0  0  0
    3.2352    0.8078    0.0000 C    0  0  0  0  0  0  0  0  0  0  0  0
    4.7472    4.2667    0.0000 C    0  0  0  0  0  0  0  0  0  0  0  0
    0.7829   -0.5592    0.0000 C    0  0  0  0  0  0  0  0  0  0  0  0
    5.1739    2.9079    0.0000 C    0  0  0  0  0  0  0  0  0  0  0  0
    5.3685    3.7240    0.0000 C    0  0  0  0  0  0  0  0  0  0  0  0
    5.5964    1.5616    0.0000 Cl   0  0  0  0  0  0  0  0  0  0  0  0
    4.9336    5.0744    0.0000 C    0  0  0  0  0  0  0  0  0  0  0  0
    2.8127    2.1706    0.0000 O    0  0  0  0  0  0  0  0  0  0  0  0
    6.3296    4.7513    0.0000 C    0  0  0  0  0  0  0  0  0  0  0  0
    6.1432    3.9643    0.0000 C    0  0  0  0  0  0  0  0  0  0  0  0
    3.9560    4.0306    0.0000 C    0  0  0  0  0  0  0  0  0  0  0  0
    5.7206    5.3230    0.0000 C    0  0  0  0  0  0  0  0  0  0  0  0
    4.3412    5.6337    0.0000 C    0  0  0  0  0  0  0  0  0  0  0  0
    2.0380    1.9345    0.0000 C    0  0  0  0  0  0  0  0  0  0  0  0
    3.3595    4.5898    0.0000 C    0  0  0  0  0  0  0  0  0  0  0  0
    3.5542    5.4100    0.0000 C    0  0  0  0  0  0  0  0  0  0  0  0
  2  1  1  0  0  0  0
  3  1  1  0  0  0  0
  4  3  1  0  0  0  0
  4  5  1  0  0  0  0
  5  2  1  0  0  0  0
  6  9  2  0  0  0  0
  6  8  1  0  0  0  0
  7  4  2  0  0  0  0
  8 15  2  0  0  0  0
  9 17  1  0  0  0  0
 10  6  1  0  0  0  0
 11  7  1  0  0  0  0
 12 19  1  0  0  0  0
 13 12  3  0  0  0  0
 14  2  2  0  0  0  0
 15 11  1  0  0  0  0
 16  3  2  0  0  0  0
 17 11  2  0  0  0  0
 18 21  1  0  0  0  0
 19  1  1  0  0  0  0
 20 10  1  0  0  0  0
 21 20  1  0  0  0  0
 22  8  1  0  0  0  0
 23 18  1  0  0  0  0
 23 28  1  0  0  0  0
 24  9  1  0  0  0  0
 25 26  1  0  0  0  0
 26 21  2  0  0  0  0
 27 18  2  0  0  0  0
 28 25  2  0  0  0  0
 29 23  2  0  0  0  0
 29 32  1  0  0  0  0
 30 24  1  0  0  0  0
 31 27  1  0  0  0  0
 32 31  2  0  0  0  0
M  END
> <CdId>
1041

> <Mol Weight>
463.933

> <Formula>
C25H18ClNO4S

> <Click_ID>
CLK014_E06 __ __ 

$$$$
