CLK018_H06
 OpenBabel03181410512D

 27 29  0  0  0  0  0  0  0  0999 V2000
    1.1567   -0.9187    0.0000 N    0  0  0  0  0  0  0  0  0  0  0  0
    1.4156   -1.7079    0.0000 C    0  0  0  0  0  0  0  0  0  0  0  0
    1.8290   -0.4301    0.0000 C    0  0  0  0  0  0  0  0  0  0  0  0
    2.4972   -0.9187    0.0000 C    0  0  0  0  0  0  0  0  0  0  0  0
    2.2424   -1.7079    0.0000 N    0  0  0  0  0  0  0  0  0  0  0  0
    0.3758   -0.6639    0.0000 C    0  0  0  0  0  0  0  0  0  0  0  0
    3.2864   -0.6639    0.0000 C    0  0  0  0  0  0  0  0  0  0  0  0
    0.2004    0.1461    0.0000 C    0  0  0  0  0  0  0  0  0  0  0  0
    4.9275    3.6162    0.0000 C    0  0  0  0  0  0  0  0  0  0  0  0
    5.1028    4.4013    0.0000 C    0  0  0  0  0  0  0  0  0  0  0  0
    4.3971    1.1984    0.0000 C    0  0  0  0  0  0  0  0  0  0  0  0
    0.9270   -2.3719    0.0000 O    0  0  0  0  0  0  0  0  0  0  0  0
    1.8207    0.3967    0.0000 O    0  0  0  0  0  0  0  0  0  0  0  0
    3.4492    0.1461    0.0000 C    0  0  0  0  0  0  0  0  0  0  0  0
    4.2259    0.3967    0.0000 C    0  0  0  0  0  0  0  0  0  0  0  0
    3.7875    1.7496    0.0000 C    0  0  0  0  0  0  0  0  0  0  0  0
   -0.5846    0.3967    0.0000 C    0  0  0  0  0  0  0  0  0  0  0  0
    3.0108    1.4991    0.0000 C    0  0  0  0  0  0  0  0  0  0  0  0
    5.1780    1.4532    0.0000 Br   0  0  0  0  0  0  0  0  0  0  0  0
    2.8437    0.6890    0.0000 C    0  0  0  0  0  0  0  0  0  0  0  0
   -1.1984   -0.1545    0.0000 F    0  0  0  0  0  0  0  0  0  0  0  0
    3.9629    2.5556    0.0000 O    0  0  0  0  0  0  0  0  0  0  0  0
    4.7479    2.8019    0.0000 C    0  0  0  0  0  0  0  0  0  0  0  0
    0.8185    0.6973    0.0000 C    0  0  0  0  0  0  0  0  0  0  0  0
   -0.7600    1.2026    0.0000 C    0  0  0  0  0  0  0  0  0  0  0  0
    0.6431    1.5033    0.0000 C    0  0  0  0  0  0  0  0  0  0  0  0
   -0.1461    1.7621    0.0000 C    0  0  0  0  0  0  0  0  0  0  0  0
  2  1  1  0  0  0  0
  3  1  1  0  0  0  0
  4  3  1  0  0  0  0
  4  5  1  0  0  0  0
  5  2  1  0  0  0  0
  6  1  1  0  0  0  0
  7  4  2  0  0  0  0
  8  6  1  0  0  0  0
  9 23  1  0  0  0  0
 10  9  3  0  0  0  0
 11 15  2  0  0  0  0
 12  2  2  0  0  0  0
 13  3  2  0  0  0  0
 14  7  1  0  0  0  0
 15 14  1  0  0  0  0
 16 18  2  0  0  0  0
 16 11  1  0  0  0  0
 17  8  1  0  0  0  0
 18 20  1  0  0  0  0
 19 11  1  0  0  0  0
 20 14  2  0  0  0  0
 21 17  1  0  0  0  0
 22 16  1  0  0  0  0
 23 22  1  0  0  0  0
 24  8  2  0  0  0  0
 25 17  2  0  0  0  0
 26 24  1  0  0  0  0
 27 26  2  0  0  0  0
 27 25  1  0  0  0  0
M  END
> <CdId>
1391

> <Mol Weight>
429.239

> <Formula>
C20H14BrFN2O3

> <Click_ID>
CLK018_H06 __ __ 

$$$$
