CLK009_D02
 OpenBabel03181410512D

 16 16  0  0  0  0  0  0  0  0999 V2000
   -0.8609    1.5937    0.0000 N    0  0  0  0  0  0  0  0  0  0  0  0
   -0.1486    1.9934    0.0000 C    0  0  0  0  0  0  0  0  0  0  0  0
    0.5586    0.7789    0.0000 N    0  0  0  0  0  0  0  0  0  0  0  0
    0.5586    1.5937    0.0000 C    0  0  0  0  0  0  0  0  0  0  0  0
   -0.8609    0.7789    0.0000 C    0  0  0  0  0  0  0  0  0  0  0  0
   -0.1486    2.7928    0.0000 C    0  0  0  0  0  0  0  0  0  0  0  0
   -0.1486    0.3690    0.0000 C    0  0  0  0  0  0  0  0  0  0  0  0
   -1.6603    1.9678    0.0000 C    0  0  0  0  0  0  0  0  0  0  0  0
   -1.6603    2.7928    0.0000 C    0  0  0  0  0  0  0  0  0  0  0  0
    2.6186    0.8148    0.0000 C    0  0  0  0  0  0  0  0  0  0  0  0
    3.6333    0.5534    0.0000 C    0  0  0  0  0  0  0  0  0  0  0  0
    1.5835    0.3843    0.0000 C    0  0  0  0  0  0  0  0  0  0  0  0
    1.4144    1.9473    0.0000 C    0  0  0  0  0  0  0  0  0  0  0  0
   -2.5776    1.6142    0.0000 C    0  0  0  0  0  0  0  0  0  0  0  0
    1.3375    2.5468    0.0000 C    0  0  0  0  0  0  0  0  0  0  0  0
    2.0754    1.4399    0.0000 Br   0  0  0  0  0  0  0  0  0  0  0  0
  2  1  1  0  0  0  0
  3  7  1  0  0  0  0
  3  4  2  0  0  0  0
  4  2  1  0  0  0  0
  5  1  1  0  0  0  0
  6  2  2  0  0  0  0
  6  9  1  0  0  0  0
  7  5  2  0  0  0  0
  8  1  1  0  0  0  0
  9  8  2  0  0  0  0
 10 12  1  0  0  0  0
 11 10  3  0  0  0  0
 12  3  1  0  0  0  0
 13  4  1  0  0  0  0
 14  8  1  0  0  0  0
 15 13  1  0  0  0  0
M  END
> <CdId>
627

> <Mol Weight>
279.176

> <Formula>
C13H15BrN2

> <Click_ID>
CLK009_D02 __ __ 

$$$$
