CLK023_F10
 OpenBabel03181410512D

 32 34  0  0  0  0  0  0  0  0999 V2000
   -1.0335    1.0712    0.0000 C    0  0  0  0  0  0  0  0  0  0  0  0
   -1.8540    1.0712    0.0000 C    0  0  0  0  0  0  0  0  0  0  0  0
   -0.6215    1.7888    0.0000 C    0  0  0  0  0  0  0  0  0  0  0  0
   -2.2695    0.3570    0.0000 N    0  0  0  0  0  0  0  0  0  0  0  0
    0.2095    1.7888    0.0000 C    0  0  0  0  0  0  0  0  0  0  0  0
   -3.1004   -1.0747    0.0000 N    0  0  0  0  0  0  0  0  0  0  0  0
   -0.6215    0.3570    0.0000 C    0  0  0  0  0  0  0  0  0  0  0  0
    1.4317    2.5030    0.0000 C    0  0  0  0  0  0  0  0  0  0  0  0
    0.6112    2.4995    0.0000 C    0  0  0  0  0  0  0  0  0  0  0  0
   -0.2025   -0.3502    0.0000 N    0  0  0  0  0  0  0  0  0  0  0  0
    1.8540    1.7888    0.0000 C    0  0  0  0  0  0  0  0  0  0  0  0
    0.6112    1.0712    0.0000 C    0  0  0  0  0  0  0  0  0  0  0  0
    3.9073    2.4995    0.0000 C    0  0  0  0  0  0  0  0  0  0  0  0
    1.4420    1.0678    0.0000 C    0  0  0  0  0  0  0  0  0  0  0  0
    4.7278    2.4995    0.0000 C    0  0  0  0  0  0  0  0  0  0  0  0
   -2.2695    1.7888    0.0000 O    0  0  0  0  0  0  0  0  0  0  0  0
   -1.8575   -0.3502    0.0000 C    0  0  0  0  0  0  0  0  0  0  0  0
   -3.1004    0.3640    0.0000 C    0  0  0  0  0  0  0  0  0  0  0  0
   -2.2695   -1.0678    0.0000 C    0  0  0  0  0  0  0  0  0  0  0  0
   -3.5159   -0.3502    0.0000 C    0  0  0  0  0  0  0  0  0  0  0  0
   -3.4986   -1.7819    0.0000 C    0  0  0  0  0  0  0  0  0  0  0  0
    0.1992    3.2137    0.0000 Br   0  0  0  0  0  0  0  0  0  0  0  0
    2.6746    1.7888    0.0000 O    0  0  0  0  0  0  0  0  0  0  0  0
    1.8506    0.3640    0.0000 O    0  0  0  0  0  0  0  0  0  0  0  0
    3.0763    2.4995    0.0000 C    0  0  0  0  0  0  0  0  0  0  0  0
   -4.3227   -1.7819    0.0000 C    0  0  0  0  0  0  0  0  0  0  0  0
   -3.0866   -2.4892    0.0000 C    0  0  0  0  0  0  0  0  0  0  0  0
    2.6746    0.3640    0.0000 C    0  0  0  0  0  0  0  0  0  0  0  0
    3.0763   -0.3502    0.0000 C    0  0  0  0  0  0  0  0  0  0  0  0
   -3.4850   -3.2034    0.0000 C    0  0  0  0  0  0  0  0  0  0  0  0
   -4.7313   -2.4995    0.0000 C    0  0  0  0  0  0  0  0  0  0  0  0
   -4.3124   -3.2102    0.0000 C    0  0  0  0  0  0  0  0  0  0  0  0
  2  1  1  0  0  0  0
  3  1  2  0  0  0  0
  4  2  1  0  0  0  0
  5  3  1  0  0  0  0
  6 20  1  0  0  0  0
  6 19  1  0  0  0  0
  7  1  1  0  0  0  0
  8  9  2  0  0  0  0
  9  5  1  0  0  0  0
 10  7  3  0  0  0  0
 11 14  2  0  0  0  0
 11  8  1  0  0  0  0
 12  5  2  0  0  0  0
 13 25  1  0  0  0  0
 14 12  1  0  0  0  0
 15 13  3  0  0  0  0
 16  2  2  0  0  0  0
 17  4  1  0  0  0  0
 18  4  1  0  0  0  0
 19 17  1  0  0  0  0
 20 18  1  0  0  0  0
 21  6  1  0  0  0  0
 22  9  1  0  0  0  0
 23 11  1  0  0  0  0
 24 14  1  0  0  0  0
 25 23  1  0  0  0  0
 26 21  2  0  0  0  0
 27 21  1  0  0  0  0
 28 24  1  0  0  0  0
 29 28  1  0  0  0  0
 30 27  2  0  0  0  0
 31 26  1  0  0  0  0
 31 32  2  0  0  0  0
 32 30  1  0  0  0  0
M  END
> <CdId>
1755

> <Mol Weight>
494.38

> <Formula>
C25H24BrN3O3

> <Click_ID>
CLK023_F10 __ __ 

$$$$
