CLK026_F03
 OpenBabel03181410512D

 25 26  0  0  0  0  0  0  0  0999 V2000
   -1.8583    2.1513    0.0000 N   0  3  0  0  0  0  0  0  0  0  0  0
   -2.2823    1.4273    0.0000 C   0  0  0  0  0  0  0  0  0  0  0  0
   -0.6309    0.0000    0.0000 C   0  0  0  0  0  0  0  0  0  0  0  0
    0.2034    0.0000    0.0000 C   0  0  3  0  0  0  0  0  0  0  0  0
   -1.0446    0.7137    0.0000 N   0  0  0  0  0  0  0  0  0  0  0  0
   -1.8721    0.7137    0.0000 C   0  0  0  0  0  0  0  0  0  0  0  0
    0.6171   -0.7137    0.0000 C   0  0  0  0  0  0  0  0  0  0  0  0
    0.6171    0.7171    0.0000 N   0  0  0  0  0  0  0  0  0  0  0  0
    1.4445   -0.7137    0.0000 C   0  0  0  0  0  0  0  0  0  0  0  0
    3.0960   -2.1410    0.0000 C   0  0  0  0  0  0  0  0  0  0  0  0
    3.5201   -2.8615    0.0000 C   0  0  0  0  0  0  0  0  0  0  0  0
   -1.0205    2.1410    0.0000 O   0  5  0  0  0  0  0  0  0  0  0  0
   -2.2720    2.8650    0.0000 O   0  0  0  0  0  0  0  0  0  0  0  0
   -1.0446   -0.7137    0.0000 O   0  0  0  0  0  0  0  0  0  0  0  0
    1.8583    0.0035    0.0000 O   0  0  0  0  0  0  0  0  0  0  0  0
    1.8583   -1.4273    0.0000 O   0  0  0  0  0  0  0  0  0  0  0  0
   -3.1098    1.4273    0.0000 C   0  0  0  0  0  0  0  0  0  0  0  0
    2.6857   -1.4273    0.0000 C   0  0  0  0  0  0  0  0  0  0  0  0
    1.4205    0.8930    0.0000 C   0  0  0  0  0  0  0  0  0  0  0  0
    0.2034    1.4377    0.0000 C   0  0  0  0  0  0  0  0  0  0  0  0
   -2.2823    0.0000    0.0000 C   0  0  0  0  0  0  0  0  0  0  0  0
   -3.5235    0.7137    0.0000 C   0  0  0  0  0  0  0  0  0  0  0  0
    0.7585    2.0514    0.0000 C   0  0  0  0  0  0  0  0  0  0  0  0
    1.5066    1.7135    0.0000 C   0  0  0  0  0  0  0  0  0  0  0  0
   -3.1098    0.0000    0.0000 C   0  0  0  0  0  0  0  0  0  0  0  0
  2  1  1  0  0  0  0
  3  5  1  0  0  0  0
  4  3  1  0  0  0  0
  5  6  1  0  0  0  0
  6  2  2  0  0  0  0
  7  4  1  0  0  0  0
  8  4  1  0  0  0  0
  9  7  1  0  0  0  0
 10 18  1  0  0  0  0
 11 10  3  0  0  0  0
 12  1  1  0  0  0  0
 13  1  2  0  0  0  0
 14  3  2  0  0  0  0
 15  9  2  0  0  0  0
 16  9  1  0  0  0  0
 17  2  1  0  0  0  0
 18 16  1  0  0  0  0
 19  8  1  0  0  0  0
 20  8  1  0  0  0  0
 21  6  1  0  0  0  0
 22 17  2  0  0  0  0
 23 20  1  0  0  0  0
 23 24  1  0  0  0  0
 24 19  1  0  0  0  0
 25 22  1  0  0  0  0
 25 21  2  0  0  0  0
M  END
> <CdId>
1988

> <Mol Weight>
345.3499

> <Formula>
C17H19N3O5

> <Click_ID>
CLK026_F03 __ __ 

$$$$
