CLK016_E09
 OpenBabel03181410512D

 23 25  0  0  0  0  0  0  0  0999 V2000
    1.5783   -0.8228    0.0000 N   0  0  0  0  0  0  0  0  0  0  0  0
    1.8386   -1.6161    0.0000 C   0  0  0  0  0  0  0  0  0  0  0  0
    2.9258   -0.8228    0.0000 C   0  0  0  0  0  0  0  0  0  0  0  0
    2.2541   -0.3316    0.0000 C   0  0  0  0  0  0  0  0  0  0  0  0
    2.6697   -1.6161    0.0000 S   0  0  0  0  0  0  0  0  0  0  0  0
    3.7191   -0.5667    0.0000 C   0  0  0  0  0  0  0  0  0  0  0  0
    4.5754    1.3936    0.0000 C   0  0  0  0  0  0  0  0  0  0  0  0
    4.6510    0.5750    0.0000 O   0  0  0  0  0  0  0  0  0  0  0  0
    3.8954    0.2393    0.0000 C   0  0  0  0  0  0  0  0  0  0  0  0
    3.7443    1.5573    0.0000 C   0  0  0  0  0  0  0  0  0  0  0  0
    0.6170    0.2476    0.0000 C   0  0  0  0  0  0  0  0  0  0  0  0
    3.3413    0.8437    0.0000 C   0  0  0  0  0  0  0  0  0  0  0  0
    0.3946    1.0536    0.0000 C   0  0  0  0  0  0  0  0  0  0  0  0
    1.3474   -2.2835    0.0000 O   0  0  0  0  0  0  0  0  0  0  0  0
    5.1883    1.9393    0.0000 C   0  0  0  0  0  0  0  0  0  0  0  0
    2.2458    0.4995    0.0000 O   0  0  0  0  0  0  0  0  0  0  0  0
    0.7933   -0.5667    0.0000 C   0  0  0  0  0  0  0  0  0  0  0  0
    5.9690    1.6832    0.0000 C   0  0  0  0  0  0  0  0  0  0  0  0
    5.0120    2.7410    0.0000 C   0  0  0  0  0  0  0  0  0  0  0  0
    6.4140    3.0432    0.0000 C   0  0  0  0  0  0  0  0  0  0  0  0
    6.5777    2.2247    0.0000 C   0  0  0  0  0  0  0  0  0  0  0  0
    5.6290    3.2825    0.0000 C   0  0  0  0  0  0  0  0  0  0  0  0
    7.0394    3.5847    0.0000 F   0  0  0  0  0  0  0  0  0  0  0  0
  2  1  1  0  0  0  0
  3  4  1  0  0  0  0
  4  1  1  0  0  0  0
  5  2  1  0  0  0  0
  5  3  1  0  0  0  0
  6  3  2  0  0  0  0
  7  8  1  0  0  0  0
  8  9  1  0  0  0  0
  9  6  1  0  0  0  0
 10 12  1  0  0  0  0
 10  7  2  0  0  0  0
 11 17  1  0  0  0  0
 12  9  2  0  0  0  0
 13 11  3  0  0  0  0
 14  2  2  0  0  0  0
 15  7  1  0  0  0  0
 16  4  2  0  0  0  0
 17  1  1  0  0  0  0
 18 15  2  0  0  0  0
 19 15  1  0  0  0  0
 20 22  1  0  0  0  0
 20 21  2  0  0  0  0
 21 18  1  0  0  0  0
 22 19  2  0  0  0  0
 23 20  1  0  0  0  0
M  END
> <CdId>
1204

> <Mol Weight>
327.33

> <Formula>
C17H10FNO3S

> <Click_ID>
CLK016_E09 __ __ 

$$$$
