CLK019_A11
 OpenBabel03181410512D

 20 19  0  0  0  0  0  0  0  0999 V2000
    5.3762    3.1487    0.0000 C    0  0  0  0  0  0  0  0  0  0  0  0
    6.6137    3.8591    0.0000 C    0  0  0  0  0  0  0  0  0  0  0  0
    6.2012    3.1487    0.0000 C    0  0  0  0  0  0  0  0  0  0  0  0
    4.9637    3.8591    0.0000 C    0  0  0  0  0  0  0  0  0  0  0  0
    6.2012    4.5696    0.0000 C    0  0  0  0  0  0  0  0  0  0  0  0
    2.9013    3.1487    0.0000 C    0  0  0  0  0  0  0  0  0  0  0  0
    5.3762    4.5696    0.0000 C    0  0  0  0  0  0  0  0  0  0  0  0
    2.0762    3.1487    0.0000 C    0  0  0  0  0  0  0  0  0  0  0  0
    7.8513    4.5696    0.0000 N    0  0  0  0  0  0  0  0  0  0  0  0
    6.6137    2.4337    0.0000 Br   0  0  0  0  0  0  0  0  0  0  0  0
    4.1387    3.8591    0.0000 O    0  0  0  0  0  0  0  0  0  0  0  0
    7.4387    3.8591    0.0000 C    0  0  0  0  0  0  0  0  0  0  0  0
    4.9637    5.2846    0.0000 O    0  0  0  0  0  0  0  0  0  0  0  0
    3.7262    3.1487    0.0000 C    0  0  0  0  0  0  0  0  0  0  0  0
    8.6762    4.5696    0.0000 C    0  0  0  0  0  0  0  0  0  0  0  0
    9.0887    5.2846    0.0000 C    0  0  0  0  0  0  0  0  0  0  0  0
    5.3762    5.9996    0.0000 C    0  0  0  0  0  0  0  0  0  0  0  0
    9.9137    5.2846    0.0000 C    0  0  0  0  0  0  0  0  0  0  0  0
    8.6762    5.9996    0.0000 C    0  0  0  0  0  0  0  0  0  0  0  0
   10.7296    2.4337    0.0000 Cl   0  0  0  0  0  0  0  0  0  0  0  0
  2  3  1  0  0  0  0
  2  5  2  0  0  0  0
  3  1  2  0  0  0  0
  4  1  1  0  0  0  0
  5  7  1  0  0  0  0
  6 14  1  0  0  0  0
  7  4  2  0  0  0  0
  8  6  3  0  0  0  0
  9 12  1  0  0  0  0
 10  3  1  0  0  0  0
 11  4  1  0  0  0  0
 12  2  1  0  0  0  0
 13  7  1  0  0  0  0
 14 11  1  0  0  0  0
 15  9  1  0  0  0  0
 16 15  1  0  0  0  0
 17 13  1  0  0  0  0
 18 16  1  0  0  0  0
 19 16  1  0  0  0  0
M  END
> <CdId>
1406

> <Mol Weight>
362.69

> <Formula>
C15H21BrClNO2

> <Click_ID>
CLK019_A11 __ __ 

$$$$
