CLK027_A07
 OpenBabel03181410512D

 26 27  0  0  0  0  0  0  0  0999 V2000
   -0.8353   -1.9388    0.0000 N   0  0  0  0  0  0  0  0  0  0  0  0
   -0.5843   -2.7260    0.0000 C   0  0  0  0  0  0  0  0  0  0  0  0
   -0.1718   -1.4541    0.0000 C   0  0  0  0  0  0  0  0  0  0  0  0
    0.4950   -1.9388    0.0000 C   0  0  0  0  0  0  0  0  0  0  0  0
    0.2407   -2.7260    0.0000 S   0  0  0  0  0  0  0  0  0  0  0  0
    1.2822   -1.6809    0.0000 C   0  0  0  0  0  0  0  0  0  0  0  0
    1.7978    0.7357    0.0000 C   0  0  0  0  0  0  0  0  0  0  0  0
    2.4063    0.1856    0.0000 C   0  0  0  0  0  0  0  0  0  0  0  0
   -1.6191   -1.6809    0.0000 C   0  0  0  0  0  0  0  0  0  0  0  0
    1.0175    0.4882    0.0000 C   0  0  0  0  0  0  0  0  0  0  0  0
    1.4541   -0.8731    0.0000 C   0  0  0  0  0  0  0  0  0  0  0  0
    2.9494    2.6022    0.0000 C   0  0  0  0  0  0  0  0  0  0  0  0
    3.1315    3.3928    0.0000 C   0  0  0  0  0  0  0  0  0  0  0  0
   -2.2378   -2.2378    0.0000 C   0  0  0  0  0  0  0  0  0  0  0  0
   -1.0690   -3.3928    0.0000 O   0  0  0  0  0  0  0  0  0  0  0  0
   -0.1718   -0.6291    0.0000 O   0  0  0  0  0  0  0  0  0  0  0  0
    2.2343   -0.6291    0.0000 C   0  0  0  0  0  0  0  0  0  0  0  0
    0.8422   -0.3162    0.0000 C   0  0  0  0  0  0  0  0  0  0  0  0
   -2.0625   -3.0457    0.0000 O   0  0  0  0  0  0  0  0  0  0  0  0
    3.1934    0.4366    0.0000 I   0  0  0  0  0  0  0  0  0  0  0  0
    1.9800    1.5503    0.0000 O   0  0  0  0  0  0  0  0  0  0  0  0
    0.4160    1.0484    0.0000 O   0  0  0  0  0  0  0  0  0  0  0  0
   -3.0216   -1.9800    0.0000 O   0  0  0  0  0  0  0  0  0  0  0  0
    2.7672    1.7875    0.0000 C   0  0  0  0  0  0  0  0  0  0  0  0
   -0.3609    0.7975    0.0000 C   0  0  0  0  0  0  0  0  0  0  0  0
   -3.1969   -1.1791    0.0000 C   0  0  0  0  0  0  0  0  0  0  0  0
  2  1  1  0  0  0  0
  3  1  1  0  0  0  0
  4  3  1  0  0  0  0
  5  2  1  0  0  0  0
  5  4  1  0  0  0  0
  6  4  2  0  0  0  0
  7 10  2  0  0  0  0
  8 17  2  0  0  0  0
  8  7  1  0  0  0  0
  9  1  1  0  0  0  0
 10 18  1  0  0  0  0
 11  6  1  0  0  0  0
 12 24  1  0  0  0  0
 13 12  3  0  0  0  0
 14  9  1  0  0  0  0
 15  2  2  0  0  0  0
 16  3  2  0  0  0  0
 17 11  1  0  0  0  0
 18 11  2  0  0  0  0
 19 14  2  0  0  0  0
 20  8  1  0  0  0  0
 21  7  1  0  0  0  0
 22 10  1  0  0  0  0
 23 14  1  0  0  0  0
 24 21  1  0  0  0  0
 25 22  1  0  0  0  0
 26 23  1  0  0  0  0
M  END
> <CdId>
2022

> <Mol Weight>
487.266

> <Formula>
C17H14INO6S

> <Click_ID>
CLK027_A07 __ __ 

$$$$
