CLK012_F07
 OpenBabel03181410512D

 26 28  0  0  0  0  0  0  0  0999 V2000
    2.0119   -0.7333    0.0000 C   0  0  3  0  0  0  0  0  0  0  0  0
    2.4060   -1.4620    0.0000 C   0  0  0  0  0  0  0  0  0  0  0  0
    1.8286   -2.0532    0.0000 N   0  0  0  0  0  0  0  0  0  0  0  0
    1.2008   -0.8799    0.0000 C   0  0  0  0  0  0  0  0  0  0  0  0
    5.2017   -1.2833    0.0000 N   0  3  0  0  0  0  0  0  0  0  0  0
    1.0908   -1.6957    0.0000 C   0  0  0  0  0  0  0  0  0  0  0  0
    2.9469   -0.1009    0.0000 C   0  0  0  0  0  0  0  0  0  0  0  0
    3.7397   -0.5225    0.0000 C   0  0  0  0  0  0  0  0  0  0  0  0
    4.4317   -0.0734    0.0000 C   0  0  0  0  0  0  0  0  0  0  0  0
    5.1604   -0.4583    0.0000 C   0  0  0  0  0  0  0  0  0  0  0  0
    1.3382   -3.4006    0.0000 C   0  0  0  0  0  0  0  0  0  0  0  0
    0.7058   -3.9230    0.0000 C   0  0  0  0  0  0  0  0  0  0  0  0
    4.5096   -1.7232    0.0000 O   0  5  0  0  0  0  0  0  0  0  0  0
    3.2218   -1.5811    0.0000 O   0  0  0  0  0  0  0  0  0  0  0  0
    5.9303   -1.6636    0.0000 O   0  0  0  0  0  0  0  0  0  0  0  0
    3.7718   -1.2099    0.0000 O   0  0  0  0  0  0  0  0  0  0  0  0
    1.9707   -2.8644    0.0000 C   0  0  0  0  0  0  0  0  0  0  0  0
    1.7507    0.2016    0.0000 O   0  0  0  0  0  0  0  0  0  0  0  0
    0.5546   -0.3621    0.0000 C   0  0  0  0  0  0  0  0  0  0  0  0
    0.3208   -1.9982    0.0000 C   0  0  0  0  0  0  0  0  0  0  0  0
    4.3996    0.7516    0.0000 C   0  0  0  0  0  0  0  0  0  0  0  0
    5.8616   -0.0137    0.0000 C   0  0  0  0  0  0  0  0  0  0  0  0
   -0.2062   -0.6737    0.0000 C   0  0  0  0  0  0  0  0  0  0  0  0
    5.0917    1.1915    0.0000 C   0  0  0  0  0  0  0  0  0  0  0  0
   -0.3254   -1.4895    0.0000 C   0  0  0  0  0  0  0  0  0  0  0  0
    5.8203    0.8112    0.0000 C   0  0  0  0  0  0  0  0  0  0  0  0
  2  1  1  0  0  0  0
  3  2  1  0  0  0  0
  4  1  1  0  0  0  0
  5 10  1  0  0  0  0
  6  4  2  0  0  0  0
  6  3  1  0  0  0  0
  7  1  1  0  0  0  0
  8  7  1  0  0  0  0
  9  8  1  0  0  0  0
 10  9  1  0  0  0  0
 11 17  1  0  0  0  0
 12 11  3  0  0  0  0
 13  5  1  0  0  0  0
 14  2  2  0  0  0  0
 15  5  2  0  0  0  0
 16  8  2  0  0  0  0
 17  3  1  0  0  0  0
 18  1  1  0  0  0  0
 19  4  1  0  0  0  0
 20  6  1  0  0  0  0
 21  9  2  0  0  0  0
 22 10  2  0  0  0  0
 22 26  1  0  0  0  0
 23 19  2  0  0  0  0
 24 21  1  0  0  0  0
 25 23  1  0  0  0  0
 25 20  2  0  0  0  0
 26 24  2  0  0  0  0
M  END
> <CdId>
892

> <Mol Weight>
350.3249

> <Formula>
C19H14N2O5

> <Click_ID>
CLK012_F07 __ __ 

$$$$
