CLK003_E11
 OpenBabel03181410512D

 18 19  0  0  0  0  0  0  0  0999 V2000
   -1.1551    0.5759    0.0000 C   0  0  0  0  0  0  0  0  0  0  0  0
   -1.1551   -0.2586    0.0000 C   0  0  0  0  0  0  0  0  0  0  0  0
   -0.4345    0.9999    0.0000 N   0  0  0  0  0  0  0  0  0  0  0  0
   -1.8688    0.9896    0.0000 C   0  0  0  0  0  0  0  0  0  0  0  0
   -0.4448   -0.6689    0.0000 C   0  0  0  0  0  0  0  0  0  0  0  0
   -1.8688   -0.6620    0.0000 C   0  0  0  0  0  0  0  0  0  0  0  0
    0.2793    0.5759    0.0000 C   0  0  0  0  0  0  0  0  0  0  0  0
   -2.5826    0.5759    0.0000 C   0  0  0  0  0  0  0  0  0  0  0  0
    0.2793   -0.2586    0.0000 N   0  0  0  0  0  0  0  0  0  0  0  0
   -0.4448   -1.4965    0.0000 O   0  0  0  0  0  0  0  0  0  0  0  0
   -2.5826   -0.2483    0.0000 C   0  0  0  0  0  0  0  0  0  0  0  0
    1.0033    0.9896    0.0000 S   0  0  0  0  0  0  0  0  0  0  0  0
    0.9930   -0.6723    0.0000 C   0  0  0  0  0  0  0  0  0  0  0  0
    1.7137    0.5759    0.0000 C   0  0  0  0  0  0  0  0  0  0  0  0
    0.9930   -1.4999    0.0000 C   0  0  0  0  0  0  0  0  0  0  0  0
    2.4274    0.9896    0.0000 C   0  0  0  0  0  0  0  0  0  0  0  0
    1.7068   -1.9101    0.0000 C   0  0  0  0  0  0  0  0  0  0  0  0
    3.1376    1.4033    0.0000 C   0  0  0  0  0  0  0  0  0  0  0  0
  1  2  1  0  0  0  0
  1  3  1  0  0  0  0
  1  4  2  0  0  0  0
  2  5  1  0  0  0  0
  2  6  2  0  0  0  0
  3  7  2  0  0  0  0
  4  8  1  0  0  0  0
  5  9  1  0  0  0  0
  5 10  2  0  0  0  0
  6 11  1  0  0  0  0
  7 12  1  0  0  0  0
  7  9  1  0  0  0  0
  8 11  2  0  0  0  0
  9 13  1  0  0  0  0
 12 14  1  0  0  0  0
 13 15  1  0  0  0  0
 14 16  1  0  0  0  0
 15 17  2  0  0  0  0
 16 18  3  0  0  0  0
M  END
> <CdId>
210

> <Mol Weight>
256.323

> <Formula>
C14H12N2OS

> <Click_ID>
CLK003_E11 __ __ 

$$$$
