CLK040B09
 OpenBabel03181410512D

 22 23  0  0  0  0  0  0  0  0999 V2000
   -2.1792    0.4333    0.0000 C   0  0  0  0  0  0  0  0  0  0  0  0
   -1.4625    0.0208    0.0000 N   0  0  0  0  0  0  0  0  0  0  0  0
    1.3958   -0.8042    0.0000 C   0  0  0  0  0  0  0  0  0  0  0  0
   -0.0333   -0.8042    0.0000 N   0  0  0  0  0  0  0  0  0  0  0  0
   -2.8917    2.4958    0.0000 C   0  0  0  0  0  0  0  0  0  0  0  0
   -2.8917    3.3208    0.0000 C   0  0  0  0  0  0  0  0  0  0  0  0
    0.6792   -1.2167    0.0000 C   0  0  0  0  0  0  0  0  0  0  0  0
    2.1083   -1.2167    0.0000 C   0  0  0  0  0  0  0  0  0  0  0  0
    1.3958    0.0208    0.0000 C   0  0  0  0  0  0  0  0  0  0  0  0
   -2.8917    0.0208    0.0000 O   0  0  0  0  0  0  0  0  0  0  0  0
   -0.7500    0.4333    0.0000 C   0  0  0  0  0  0  0  0  0  0  0  0
   -1.4625   -0.8042    0.0000 C   0  0  0  0  0  0  0  0  0  0  0  0
   -2.1792    1.2583    0.0000 N   0  0  0  0  0  0  0  0  0  0  0  0
    2.8250   -0.8042    0.0000 C   0  0  0  0  0  0  0  0  0  0  0  0
   -0.7500   -1.2167    0.0000 C   0  0  0  0  0  0  0  0  0  0  0  0
   -0.0333    0.0208    0.0000 C   0  0  0  0  0  0  0  0  0  0  0  0
    2.1083    0.4333    0.0000 C   0  0  0  0  0  0  0  0  0  0  0  0
    2.8250    0.0208    0.0000 C   0  0  0  0  0  0  0  0  0  0  0  0
    2.1083    1.2583    0.0000 F   0  0  0  0  0  0  0  0  0  0  0  0
   -2.8917    1.6708    0.0000 C   0  0  0  0  0  0  0  0  0  0  0  0
    2.1083   -2.0417    0.0000 O   0  0  0  0  0  0  0  0  0  0  0  0
    2.8250   -2.4542    0.0000 C   0  0  0  0  0  0  0  0  0  0  0  0
  2  1  1  0  0  0  0
  3  7  1  0  0  0  0
  4 15  1  0  0  0  0
  5 20  1  0  0  0  0
  6  5  3  0  0  0  0
  7  4  1  0  0  0  0
  8  3  2  0  0  0  0
  9  3  1  0  0  0  0
 10  1  2  0  0  0  0
 11  2  1  0  0  0  0
 12  2  1  0  0  0  0
 13  1  1  0  0  0  0
 14  8  1  0  0  0  0
 15 12  1  0  0  0  0
 16 11  1  0  0  0  0
 16  4  1  0  0  0  0
 17  9  2  0  0  0  0
 17 18  1  0  0  0  0
 18 14  2  0  0  0  0
 19 17  1  0  0  0  0
 20 13  1  0  0  0  0
 21  8  1  0  0  0  0
 22 21  1  0  0  0  0
M  END
> <CdId>
3066

> <Mol Weight>
305.3473

> <Formula>
C16H20FN3O2

> <Click_ID>
CLK040B09 __ __ 

$$$$
