CLK017_E10
 OpenBabel03181410512D

 22 23  0  0  0  0  0  0  0  0999 V2000
    4.1749   -3.5607    0.0000 N   0  0  0  0  0  0  0  0  0  0  0  0
    3.4653   -3.9715    0.0000 C   0  0  0  0  0  0  0  0  0  0  0  0
    4.0006   -2.7556    0.0000 C   0  0  0  0  0  0  0  0  0  0  0  0
    3.1872   -2.6685    0.0000 C   0  0  0  0  0  0  0  0  0  0  0  0
    2.8510   -3.4155    0.0000 S   0  0  0  0  0  0  0  0  0  0  0  0
    2.7681   -1.9588    0.0000 C   0  0  0  0  0  0  0  0  0  0  0  0
   -1.7762   -2.6767    0.0000 C   0  0  0  0  0  0  0  0  0  0  0  0
   -2.5979   -2.6767    0.0000 C   0  0  0  0  0  0  0  0  0  0  0  0
    3.3781   -4.7850    0.0000 O   0  0  0  0  0  0  0  0  0  0  0  0
    4.5484   -2.1456    0.0000 O   0  0  0  0  0  0  0  0  0  0  0  0
    1.9422   -1.9588    0.0000 C   0  0  0  0  0  0  0  0  0  0  0  0
    4.9219   -3.8886    0.0000 C   0  0  0  0  0  0  0  0  0  0  0  0
    0.2781   -1.9546    0.0000 C   0  0  0  0  0  0  0  0  0  0  0  0
    1.5313   -2.6685    0.0000 C   0  0  0  0  0  0  0  0  0  0  0  0
    1.5313   -1.2325    0.0000 C   0  0  0  0  0  0  0  0  0  0  0  0
    0.7014   -2.6685    0.0000 C   0  0  0  0  0  0  0  0  0  0  0  0
    0.7014   -1.2325    0.0000 C   0  0  0  0  0  0  0  0  0  0  0  0
   -0.9545   -2.6685    0.0000 C   0  0  0  0  0  0  0  0  0  0  0  0
   -0.5436   -1.9546    0.0000 O   0  0  0  0  0  0  0  0  0  0  0  0
    5.0091   -4.7103    0.0000 C   0  0  0  0  0  0  0  0  0  0  0  0
    5.7643   -5.0422    0.0000 C   0  0  0  0  0  0  0  0  0  0  0  0
    5.8432   -5.8557    0.0000 C   0  0  0  0  0  0  0  0  0  0  0  0
  2  1  1  0  0  0  0
  3  1  1  0  0  0  0
  4  3  1  0  0  0  0
  4  5  1  0  0  0  0
  5  2  1  0  0  0  0
  6  4  2  0  0  0  0
  7 18  1  0  0  0  0
  8  7  3  0  0  0  0
  9  2  2  0  0  0  0
 10  3  2  0  0  0  0
 11  6  1  0  0  0  0
 12  1  1  0  0  0  0
 13 17  2  0  0  0  0
 14 11  1  0  0  0  0
 15 11  2  0  0  0  0
 16 14  2  0  0  0  0
 16 13  1  0  0  0  0
 17 15  1  0  0  0  0
 18 19  1  0  0  0  0
 19 13  1  0  0  0  0
 20 12  1  0  0  0  0
 21 20  1  0  0  0  0
 22 21  1  0  0  0  0
M  END
> <CdId>
1285

> <Mol Weight>
315.387

> <Formula>
C17H17NO3S

> <Click_ID>
CLK017_E10 __ __ 

$$$$
