CLK034_G10
 OpenBabel03181410512D

 20 21  0  0  0  0  0  0  0  0999 V2000
   -4.5928    2.5553    0.0000 C   0  0  0  0  0  0  0  0  0  0  0  0
   -4.6930    1.7369    0.0000 N   0  0  0  0  0  0  0  0  0  0  0  0
   -3.8788    2.9770    0.0000 N   0  0  0  0  0  0  0  0  0  0  0  0
   -5.3318    2.9018    0.0000 S   0  0  0  0  0  0  0  0  0  0  0  0
   -5.4989    1.5783    0.0000 C   0  0  0  0  0  0  0  0  0  0  0  0
   -5.9080    2.3006    0.0000 C   0  0  0  0  0  0  0  0  0  0  0  0
   -3.8788    3.8079    0.0000 C   0  0  0  0  0  0  0  0  0  0  0  0
   -4.2588    0.3507    0.0000 C   0  0  0  0  0  0  0  0  0  0  0  0
   -4.4425   -0.4635    0.0000 C   0  0  0  0  0  0  0  0  0  0  0  0
   -5.9248    0.8726    0.0000 C   0  0  0  0  0  0  0  0  0  0  0  0
   -4.0709    1.1607    0.0000 C   0  0  0  0  0  0  0  0  0  0  0  0
   -4.6053    4.2129    0.0000 O   0  0  0  0  0  0  0  0  0  0  0  0
   -6.7181    2.3173    0.0000 C   0  0  0  0  0  0  0  0  0  0  0  0
   -5.5322    0.1378    0.0000 O   0  0  0  0  0  0  0  0  0  0  0  0
   -7.1565    1.6116    0.0000 C   0  0  0  0  0  0  0  0  0  0  0  0
   -3.1648    4.2212    0.0000 C   0  0  0  0  0  0  0  0  0  0  0  0
   -6.7431    0.8851    0.0000 C   0  0  0  0  0  0  0  0  0  0  0  0
   -5.9581   -0.5679    0.0000 C   0  0  0  0  0  0  0  0  0  0  0  0
   -3.1648    5.0396    0.0000 C   0  0  0  0  0  0  0  0  0  0  0  0
   -5.5740   -1.2819    0.0000 C   0  0  0  0  0  0  0  0  0  0  0  0
  2  1  1  0  0  0  0
  3  1  2  0  0  0  0
  4  1  1  0  0  0  0
  5  2  1  0  0  0  0
  6  4  1  0  0  0  0
  6  5  2  0  0  0  0
  7  3  1  0  0  0  0
  8 11  1  0  0  0  0
  9  8  3  0  0  0  0
 10  5  1  0  0  0  0
 11  2  1  0  0  0  0
 12  7  2  0  0  0  0
 13  6  1  0  0  0  0
 14 10  1  0  0  0  0
 15 13  2  0  0  0  0
 16  7  1  0  0  0  0
 17 10  2  0  0  0  0
 17 15  1  0  0  0  0
 18 14  1  0  0  0  0
 19 16  1  0  0  0  0
 20 18  1  0  0  0  0
M  END
> <CdId>
2634

> <Mol Weight>
288.365

> <Formula>
C15H16N2O2S

> <Click_ID>
CLK034_G10 __ __ 

$$$$
