CLK001_H09
 OpenBabel03181410512D

 27 29  0  0  0  0  0  0  0  0999 V2000
    1.8205    0.9551    0.0000 C   0  0  0  0  0  0  0  0  0  0  0  0
    1.3722    1.6412    0.0000 C   0  0  0  0  0  0  0  0  0  0  0  0
    1.3101    0.3069    0.0000 C   0  0  0  0  0  0  0  0  0  0  0  0
    2.6445    0.9930    0.0000 C   0  0  0  0  0  0  0  0  0  0  0  0
    0.5792    1.4274    0.0000 N   0  0  0  0  0  0  0  0  0  0  0  0
    1.7446    2.3721    0.0000 C   0  0  0  0  0  0  0  0  0  0  0  0
    0.5344    0.6033    0.0000 C   0  0  0  0  0  0  0  0  0  0  0  0
    1.5205   -0.4827    0.0000 C   0  0  0  0  0  0  0  0  0  0  0  0
    3.0203    1.7274    0.0000 C   0  0  0  0  0  0  0  0  0  0  0  0
   -0.0655    1.9445    0.0000 C   0  0  0  0  0  0  0  0  0  0  0  0
    2.5721    2.4169    0.0000 C   0  0  0  0  0  0  0  0  0  0  0  0
    0.9413   -1.0723    0.0000 C   0  0  0  0  0  0  0  0  0  0  0  0
    0.0724    2.7582    0.0000 C   0  0  0  0  0  0  0  0  0  0  0  0
    0.1448   -0.8654    0.0000 C   0  0  0  0  0  0  0  0  0  0  0  0
    1.1551   -1.8722    0.0000 C   0  0  0  0  0  0  0  0  0  0  0  0
    0.2448    3.5616    0.0000 C   0  0  0  0  0  0  0  0  0  0  0  0
   -0.4413   -1.4550    0.0000 N   0  0  0  0  0  0  0  0  0  0  0  0
   -0.0793   -0.0724    0.0000 O   0  0  0  0  0  0  0  0  0  0  0  0
    1.3653   -2.6652    0.0000 N   0  0  0  0  0  0  0  0  0  0  0  0
   -1.2653   -1.4446    0.0000 C   0  0  0  0  0  0  0  0  0  0  0  0
   -1.6791   -2.1652    0.0000 C   0  0  0  0  0  0  0  0  0  0  0  0
   -1.6688   -0.7275    0.0000 C   0  0  0  0  0  0  0  0  0  0  0  0
   -2.5169   -2.1583    0.0000 C   0  0  0  0  0  0  0  0  0  0  0  0
   -2.5031   -0.7206    0.0000 C   0  0  0  0  0  0  0  0  0  0  0  0
   -2.9203   -1.4343    0.0000 C   0  0  0  0  0  0  0  0  0  0  0  0
   -3.7409   -1.4274    0.0000 O   0  0  0  0  0  0  0  0  0  0  0  0
   -4.1650   -2.1411    0.0000 C   0  0  0  0  0  0  0  0  0  0  0  0
  1  2  1  0  0  0  0
  1  3  1  0  0  0  0
  1  4  2  0  0  0  0
  2  5  1  0  0  0  0
  2  6  2  0  0  0  0
  3  7  2  0  0  0  0
  3  8  1  0  0  0  0
  4  9  1  0  0  0  0
  5 10  1  0  0  0  0
  5  7  1  0  0  0  0
  6 11  1  0  0  0  0
  8 12  2  0  0  0  0
  9 11  2  0  0  0  0
 10 13  1  0  0  0  0
 12 14  1  0  0  0  0
 12 15  1  0  0  0  0
 13 16  3  0  0  0  0
 14 17  1  0  0  0  0
 14 18  2  0  0  0  0
 15 19  3  0  0  0  0
 17 20  1  0  0  0  0
 20 21  2  0  0  0  0
 20 22  1  0  0  0  0
 21 23  1  0  0  0  0
 22 24  2  0  0  0  0
 23 25  2  0  0  0  0
 24 25  1  0  0  0  0
 25 26  1  0  0  0  0
 26 27  1  0  0  0  0
M  END
> <CdId>
78

> <Mol Weight>
355.3893

> <Formula>
C22H17N3O2

> <Click_ID>
CLK001_H09 __ __ 

$$$$
