CLK022_H03
 OpenBabel03181410512D

 21 21  0  0  0  0  0  0  0  0999 V2000
    4.8812    1.7829    0.0000 C   0  0  0  0  0  0  0  0  0  0  0  0
    2.7362    1.3704    0.0000 C   0  0  0  0  0  0  0  0  0  0  0  0
    4.1662    1.3704    0.0000 C   0  0  0  0  0  0  0  0  0  0  0  0
    3.4512    1.7829    0.0000 N   0  0  0  0  0  0  0  0  0  0  0  0
    4.8812    2.6079    0.0000 C   0  0  0  0  0  0  0  0  0  0  0  0
    0.7196    1.9525    0.0000 C   0  0  0  0  0  0  0  0  0  0  0  0
    2.0212    1.7829    0.0000 N   0  0  0  0  0  0  0  0  0  0  0  0
    0.1421    2.5391    0.0000 C   0  0  0  0  0  0  0  0  0  0  0  0
    1.3109    1.3704    0.0000 C   0  0  0  0  0  0  0  0  0  0  0  0
    2.7362    0.5454    0.0000 O   0  0  0  0  0  0  0  0  0  0  0  0
    4.1662    3.0204    0.0000 O   0  0  0  0  0  0  0  0  0  0  0  0
    5.5962    3.0204    0.0000 O   0  0  0  0  0  0  0  0  0  0  0  0
    5.5962    1.3704    0.0000 C   0  0  0  0  0  0  0  0  0  0  0  0
    4.1662    0.5454    0.0000 C   0  0  0  0  0  0  0  0  0  0  0  0
    0.6784    0.8479    0.0000 C   0  0  0  0  0  0  0  0  0  0  0  0
    1.7784    0.6966    0.0000 C   0  0  0  0  0  0  0  0  0  0  0  0
    5.5962    3.8454    0.0000 C   0  0  0  0  0  0  0  0  0  0  0  0
    5.5962    0.5454    0.0000 C   0  0  0  0  0  0  0  0  0  0  0  0
    0.8159    0.0275    0.0000 C   0  0  0  0  0  0  0  0  0  0  0  0
    1.4346   -0.0459    0.0000 C   0  0  0  0  0  0  0  0  0  0  0  0
    4.8812    0.1329    0.0000 C   0  0  0  0  0  0  0  0  0  0  0  0
  2  4  1  0  0  0  0
  3  1  1  0  0  0  0
  4  3  1  0  0  0  0
  5  1  1  0  0  0  0
  6  9  1  0  0  0  0
  7  2  1  0  0  0  0
  8  6  3  0  0  0  0
  9  7  1  0  0  0  0
 10  2  2  0  0  0  0
 11  5  2  0  0  0  0
 12  5  1  0  0  0  0
 13  1  2  0  0  0  0
 14  3  2  0  0  0  0
 15  9  1  0  0  0  0
 16  9  1  0  0  0  0
 17 12  1  0  0  0  0
 18 13  1  0  0  0  0
 19 15  1  0  0  0  0
 20 16  1  0  0  0  0
 21 18  2  0  0  0  0
 21 14  1  0  0  0  0
M  END
> <CdId>
1691

> <Mol Weight>
288.3416

> <Formula>
C16H20N2O3

> <Click_ID>
CLK022_H03 __ __ 

$$$$
