CLK007_F11
 OpenBabel03181410512D

 26 28  0  0  0  0  0  0  0  0999 V2000
   -0.0690   -1.9335    0.0000 C   0  0  0  0  0  0  0  0  0  0  0  0
   -0.0621   -2.7641    0.0000 C   0  0  0  0  0  0  0  0  0  0  0  0
   -0.7065   -1.4269    0.0000 N   0  0  0  0  0  0  0  0  0  0  0  0
    0.6169   -1.4821    0.0000 O   0  0  0  0  0  0  0  0  0  0  0  0
    0.6514   -3.1777    0.0000 C   0  0  0  0  0  0  0  0  0  0  0  0
   -0.7824   -3.1777    0.0000 C   0  0  0  0  0  0  0  0  0  0  0  0
   -0.4136   -0.6549    0.0000 C   0  0  0  0  0  0  0  0  0  0  0  0
    0.3998   -0.6894    0.0000 C   0  0  0  0  0  0  0  0  0  0  0  0
    0.6411   -4.0049    0.0000 C   0  0  0  0  0  0  0  0  0  0  0  0
    1.3648   -2.7641    0.0000 F   0  0  0  0  0  0  0  0  0  0  0  0
   -0.7824   -4.0049    0.0000 C   0  0  0  0  0  0  0  0  0  0  0  0
   -0.8686    0.0448    0.0000 C   0  0  0  0  0  0  0  0  0  0  0  0
    0.9133   -0.0345    0.0000 O   0  0  0  0  0  0  0  0  0  0  0  0
   -0.0690   -4.4185    0.0000 C   0  0  0  0  0  0  0  0  0  0  0  0
   -0.4860    0.7824    0.0000 C   0  0  0  0  0  0  0  0  0  0  0  0
   -0.9443    1.4821    0.0000 C   0  0  0  0  0  0  0  0  0  0  0  0
    0.3308    0.8341    0.0000 C   0  0  0  0  0  0  0  0  0  0  0  0
   -0.5687    2.2196    0.0000 C   0  0  0  0  0  0  0  0  0  0  0  0
    0.7134    1.5647    0.0000 C   0  0  0  0  0  0  0  0  0  0  0  0
    0.2551    2.2644    0.0000 C   0  0  0  0  0  0  0  0  0  0  0  0
   -1.0202    2.9019    0.0000 O   0  0  0  0  0  0  0  0  0  0  0  0
    0.6307    3.0019    0.0000 O   0  0  0  0  0  0  0  0  0  0  0  0
   -1.8439    2.8607    0.0000 C   0  0  0  0  0  0  0  0  0  0  0  0
    0.1792    3.6912    0.0000 C   0  0  0  0  0  0  0  0  0  0  0  0
    0.5549    4.4185    0.0000 C   0  0  0  0  0  0  0  0  0  0  0  0
    1.3786    4.4598    0.0000 C   0  0  0  0  0  0  0  0  0  0  0  0
  1  2  1  0  0  0  0
  1  3  2  0  0  0  0
  1  4  1  0  0  0  0
  2  5  1  0  0  0  0
  2  6  2  0  0  0  0
  3  7  1  0  0  0  0
  4  8  1  0  0  0  0
  5  9  2  0  0  0  0
  5 10  1  0  0  0  0
  6 11  1  0  0  0  0
  7 12  2  0  0  0  0
  7  8  1  0  0  0  0
  8 13  2  0  0  0  0
  9 14  1  0  0  0  0
 11 14  2  0  0  0  0
 12 15  1  0  0  0  0
 15 16  1  0  0  0  0
 15 17  2  0  0  0  0
 16 18  2  0  0  0  0
 17 19  1  0  0  0  0
 18 20  1  0  0  0  0
 18 21  1  0  0  0  0
 19 20  2  0  0  0  0
 20 22  1  0  0  0  0
 21 23  1  0  0  0  0
 22 24  1  0  0  0  0
 24 25  1  0  0  0  0
 25 26  3  0  0  0  0
M  END
> <CdId>
540

> <Mol Weight>
351.3279

> <Formula>
C20H14FNO4

> <Click_ID>
CLK007_F11 __ __ 

$$$$
