CLK050D05
 OpenBabel03181410512D

 29 31  0  0  0  0  0  0  0  0999 V2000
    3.4062    0.0832    0.0000 S   0  0  0  0  0  0  0  0  0  0  0  0
   -3.6978   -1.4908    0.0000 N   0  0  0  0  0  0  0  0  0  0  0  0
   -3.6978   -0.6663    0.0000 C   0  0  0  0  0  0  0  0  0  0  0  0
   -4.4806   -1.7447    0.0000 C   0  0  0  0  0  0  0  0  0  0  0  0
   -4.9637   -1.0785    0.0000 S   0  0  0  0  0  0  0  0  0  0  0  0
   -4.4806   -0.4122    0.0000 C   0  0  0  0  0  0  0  0  0  0  0  0
    0.3915    1.4241    0.0000 C   0  0  0  0  0  0  0  0  0  0  0  0
    2.6526    0.4164    0.0000 C   0  0  0  0  0  0  0  0  0  0  0  0
    4.9970   -1.4074    0.0000 C   0  0  0  0  0  0  0  0  0  0  0  0
    5.7507   -1.7447    0.0000 C   0  0  0  0  0  0  0  0  0  0  0  0
   -0.2748    0.9369    0.0000 N   0  0  0  0  0  0  0  0  0  0  0  0
    3.7394    0.8328    0.0000 O   0  0  0  0  0  0  0  0  0  0  0  0
    3.0689   -0.6704    0.0000 O   0  0  0  0  0  0  0  0  0  0  0  0
   -3.0274   -0.1791    0.0000 C   0  0  0  0  0  0  0  0  0  0  0  0
    1.1451    1.0868    0.0000 C   0  0  0  0  0  0  0  0  0  0  0  0
    4.1600   -0.2540    0.0000 N   0  0  0  0  0  0  0  0  0  0  0  0
    0.3081    2.2444    0.0000 O   0  0  0  0  0  0  0  0  0  0  0  0
    1.9863   -0.0667    0.0000 C   0  0  0  0  0  0  0  0  0  0  0  0
    2.5651    1.2367    0.0000 C   0  0  0  0  0  0  0  0  0  0  0  0
    1.2326    0.2665    0.0000 C   0  0  0  0  0  0  0  0  0  0  0  0
    1.8114    1.5740    0.0000 C   0  0  0  0  0  0  0  0  0  0  0  0
   -2.2736   -0.5164    0.0000 C   0  0  0  0  0  0  0  0  0  0  0  0
   -3.1148    0.6413    0.0000 C   0  0  0  0  0  0  0  0  0  0  0  0
   -1.0286    1.2742    0.0000 C   0  0  0  0  0  0  0  0  0  0  0  0
   -1.6948    0.7870    0.0000 C   0  0  0  0  0  0  0  0  0  0  0  0
   -2.4485    1.1243    0.0000 C   0  0  0  0  0  0  0  0  0  0  0  0
   -1.6073   -0.0292    0.0000 C   0  0  0  0  0  0  0  0  0  0  0  0
    4.2432   -1.0743    0.0000 C   0  0  0  0  0  0  0  0  0  0  0  0
   -4.7346   -2.5277    0.0000 C   0  0  0  0  0  0  0  0  0  0  0  0
  2  3  1  0  0  0  0
  3 14  1  0  0  0  0
  4  2  2  0  0  0  0
  5  6  1  0  0  0  0
  5  4  1  0  0  0  0
  6  3  2  0  0  0  0
  7 15  1  0  0  0  0
  8  1  1  0  0  0  0
  9 28  1  0  0  0  0
 10  9  3  0  0  0  0
 11  7  1  0  0  0  0
 12  1  2  0  0  0  0
 13  1  2  0  0  0  0
 14 23  2  0  0  0  0
 15 21  2  0  0  0  0
 16  1  1  0  0  0  0
 17  7  2  0  0  0  0
 18  8  1  0  0  0  0
 19  8  2  0  0  0  0
 20 18  2  0  0  0  0
 20 15  1  0  0  0  0
 21 19  1  0  0  0  0
 22 27  2  0  0  0  0
 22 14  1  0  0  0  0
 23 26  1  0  0  0  0
 24 11  1  0  0  0  0
 25 24  1  0  0  0  0
 26 25  2  0  0  0  0
 27 25  1  0  0  0  0
 28 16  1  0  0  0  0
 29  4  1  0  0  0  0
M  END
> <CdId>
3836

> <Mol Weight>
425.524

> <Formula>
C21H19N3O3S2

> <Click_ID>
CLK050D05 __ __ 

$$$$
