CLK025_D05
 OpenBabel03181410512D

 27 29  0  0  0  0  0  0  0  0999 V2000
    0.9591    0.5018    0.0000 C    0  0  0  0  0  0  0  0  0  0  0  0
    1.0416   -0.3162    0.0000 C    0  0  0  0  0  0  0  0  0  0  0  0
    1.7119    0.8388    0.0000 C    0  0  0  0  0  0  0  0  0  0  0  0
    1.8494   -0.4882    0.0000 N    0  0  0  0  0  0  0  0  0  0  0  0
    2.2653    0.2269    0.0000 C    0  0  0  0  0  0  0  0  0  0  0  0
   -1.1825   -0.7322    0.0000 N    0  0  0  0  0  0  0  0  0  0  0  0
    0.2475    0.9143    0.0000 N    0  0  0  0  0  0  0  0  0  0  0  0
   -1.8975    0.5018    0.0000 C    0  0  0  0  0  0  0  0  0  0  0  0
   -1.8975   -0.3232    0.0000 C    0  0  0  0  0  0  0  0  0  0  0  0
   -1.1825    0.9143    0.0000 C    0  0  0  0  0  0  0  0  0  0  0  0
   -0.4675    0.5018    0.0000 N    0  0  0  0  0  0  0  0  0  0  0  0
    1.7016   -1.9113    0.0000 C    0  0  0  0  0  0  0  0  0  0  0  0
    3.0731    0.3919    0.0000 C    0  0  0  0  0  0  0  0  0  0  0  0
    1.2169   -2.5747    0.0000 C    0  0  0  0  0  0  0  0  0  0  0  0
    1.9628    1.6225    0.0000 C    0  0  0  0  0  0  0  0  0  0  0  0
   -1.1825   -1.5572    0.0000 O    0  0  0  0  0  0  0  0  0  0  0  0
    0.4331   -0.8663    0.0000 O    0  0  0  0  0  0  0  0  0  0  0  0
   -0.4675   -0.3232    0.0000 O    0  0  0  0  0  0  0  0  0  0  0  0
   -1.1825    1.7393    0.0000 O    0  0  0  0  0  0  0  0  0  0  0  0
    2.1828   -1.2410    0.0000 C    0  0  0  0  0  0  0  0  0  0  0  0
    2.7741    1.7944    0.0000 C    0  0  0  0  0  0  0  0  0  0  0  0
    3.3241    1.1756    0.0000 C    0  0  0  0  0  0  0  0  0  0  0  0
   -2.6194    0.9213    0.0000 C    0  0  0  0  0  0  0  0  0  0  0  0
    3.0319    2.5781    0.0000 Br   0  0  0  0  0  0  0  0  0  0  0  0
   -2.6194   -0.7322    0.0000 C    0  0  0  0  0  0  0  0  0  0  0  0
   -3.3275    0.5018    0.0000 C    0  0  0  0  0  0  0  0  0  0  0  0
   -3.3275   -0.3232    0.0000 C    0  0  0  0  0  0  0  0  0  0  0  0
  2  1  1  0  0  0  0
  3  1  1  0  0  0  0
  4  2  1  0  0  0  0
  5  3  2  0  0  0  0
  5  4  1  0  0  0  0
  6  9  1  0  0  0  0
  7  1  2  0  0  0  0
  8 10  1  0  0  0  0
  9  8  2  0  0  0  0
 10 11  1  0  0  0  0
 11  7  1  0  0  0  0
 12 20  1  0  0  0  0
 13  5  1  0  0  0  0
 14 12  3  0  0  0  0
 15  3  1  0  0  0  0
 16  6  1  0  0  0  0
 17  2  2  0  0  0  0
 18  6  2  0  0  0  0
 19 10  2  0  0  0  0
 20  4  1  0  0  0  0
 21 15  2  0  0  0  0
 22 21  1  0  0  0  0
 22 13  2  0  0  0  0
 23  8  1  0  0  0  0
 24 21  1  0  0  0  0
 25  9  1  0  0  0  0
 25 27  2  0  0  0  0
 26 23  2  0  0  0  0
 27 26  1  0  0  0  0
M  END
> <CdId>
1890

> <Mol Weight>
427.208

> <Formula>
C18H11BrN4O4

> <Click_ID>
CLK025_D05 __ __ 

$$$$
