CLK006_D10
 OpenBabel03181410512D

 25 28  0  0  0  0  0  0  0  0999 V2000
    5.8655  -24.6465    0.0000 C   0  0  0  0  0  0  0  0  0  0  0  0
    6.2770  -23.9357    0.0000 C   0  0  0  0  0  0  0  0  0  0  0  0
    5.0382  -24.6465    0.0000 N   0  0  0  0  0  0  0  0  0  0  0  0
    5.8655  -23.2206    0.0000 C   0  0  0  0  0  0  0  0  0  0  0  0
    5.0382  -23.2206    0.0000 N   0  0  0  0  0  0  0  0  0  0  0  0
    4.6267  -23.9357    0.0000 C   0  0  0  0  0  0  0  0  0  0  0  0
    6.2770  -25.3614    0.0000 N   0  0  0  0  0  0  0  0  0  0  0  0
    7.1042  -23.9357    0.0000 C   0  0  3  0  0  0  0  0  0  0  0  0
    7.1042  -25.3614    0.0000 C   0  0  0  0  0  0  0  0  0  0  0  0
    7.5157  -23.2206    0.0000 C   0  0  0  0  0  0  0  0  0  0  0  0
    8.7545  -22.5098    0.0000 C   0  0  0  0  0  0  0  0  0  0  0  0
    7.5157  -24.6465    0.0000 C   0  0  0  0  0  0  0  0  0  0  0  0
    8.3430  -23.2206    0.0000 C   0  0  0  0  0  0  0  0  0  0  0  0
    2.5648  -24.6465    0.0000 C   0  0  0  0  0  0  0  0  0  0  0  0
    1.7417  -24.6465    0.0000 C   0  0  0  0  0  0  0  0  0  0  0  0
    6.2853  -22.5015    0.0000 O   0  0  0  0  0  0  0  0  0  0  0  0
    8.3430  -21.7907    0.0000 C   0  0  0  0  0  0  0  0  0  0  0  0
    9.5609  -22.3394    0.0000 O   0  0  0  0  0  0  0  0  0  0  0  0
    8.9000  -21.1796    0.0000 O   0  0  0  0  0  0  0  0  0  0  0  0
    9.6482  -21.5246    0.0000 C   0  0  0  0  0  0  0  0  0  0  0  0
    7.5241  -26.0807    0.0000 O   0  0  0  0  0  0  0  0  0  0  0  0
    7.1042  -22.5056    0.0000 C   0  0  0  0  0  0  0  0  0  0  0  0
    3.8036  -23.9357    0.0000 S   0  0  0  0  0  0  0  0  0  0  0  0
    7.5157  -21.7907    0.0000 C   0  0  0  0  0  0  0  0  0  0  0  0
    3.3921  -24.6465    0.0000 C   0  0  0  0  0  0  0  0  0  0  0  0
  2  1  2  0  0  0  0
  3  1  1  0  0  0  0
  4  2  1  0  0  0  0
  4  5  1  0  0  0  0
  5  6  1  0  0  0  0
  6  3  2  0  0  0  0
  7  1  1  0  0  0  0
  8  2  1  0  0  0  0
  8 12  1  0  0  0  0
  9  7  1  0  0  0  0
 10  8  1  0  0  0  0
 11 13  1  0  0  0  0
 11 17  2  0  0  0  0
 12  9  1  0  0  0  0
 13 10  2  0  0  0  0
 14 25  1  0  0  0  0
 15 14  3  0  0  0  0
 16  4  2  0  0  0  0
 17 24  1  0  0  0  0
 18 11  1  0  0  0  0
 19 17  1  0  0  0  0
 19 20  1  0  0  0  0
 20 18  1  0  0  0  0
 21  9  2  0  0  0  0
 22 10  1  0  0  0  0
 23  6  1  0  0  0  0
 24 22  2  0  0  0  0
 25 23  1  0  0  0  0
M  END
> <CdId>
439

> <Mol Weight>
355.368

> <Formula>
C17H13N3O4S

> <Click_ID>
CLK006_D10 __ __ 

$$$$
