CLK008_C06
 OpenBabel03181410512D

 46 52  0  0  0  0  0  0  0  0999 V2000
    2.8733    1.6968    0.0000 N   0  0  0  0  0  0  0  0  0  0  0  0
    2.4092    1.0453    0.0000 C   0  0  0  0  0  0  0  0  0  0  0  0
    3.6983    1.6124    0.0000 C   0  0  0  0  0  0  0  0  0  0  0  0
    2.4092    2.3577    0.0000 C   0  0  0  0  0  0  0  0  0  0  0  0
    1.6172    1.2890    0.0000 C   0  0  0  0  0  0  0  0  0  0  0  0
    2.6952    0.2531    0.0000 O   0  0  0  0  0  0  0  0  0  0  0  0
    4.1623    2.2921    0.0000 C   0  0  0  0  0  0  0  0  0  0  0  0
    4.0404    0.8812    0.0000 C   0  0  0  0  0  0  0  0  0  0  0  0
    1.6172    2.1140    0.0000 C   0  0  0  0  0  0  0  0  0  0  0  0
    2.6952    3.1358    0.0000 O   0  0  0  0  0  0  0  0  0  0  0  0
    0.9281    0.8812    0.0000 C   0  0  0  0  0  0  0  0  0  0  0  0
    4.9919    2.2405    0.0000 C   0  0  0  0  0  0  0  0  0  0  0  0
    4.8701    0.8156    0.0000 C   0  0  0  0  0  0  0  0  0  0  0  0
    0.9281    2.5218    0.0000 C   0  0  0  0  0  0  0  0  0  0  0  0
    0.2062    1.2890    0.0000 C   0  0  0  0  0  0  0  0  0  0  0  0
    5.3528    1.5046    0.0000 C   0  0  0  0  0  0  0  0  0  0  0  0
    5.4841    2.9296    0.0000 C   0  0  0  0  0  0  0  0  0  0  0  0
    0.2062    2.1140    0.0000 C   0  0  0  0  0  0  0  0  0  0  0  0
   -0.5437    0.8812    0.0000 O   0  0  0  0  0  0  0  0  0  0  0  0
    5.9576    3.6092    0.0000 C   0  0  0  0  0  0  0  0  0  0  0  0
   -1.2374    1.2890    0.0000 C   0  0  0  0  0  0  0  0  0  0  0  0
   -1.9545    0.8812    0.0000 C   0  0  0  0  0  0  0  0  0  0  0  0
   -1.2374    2.1140    0.0000 C   0  0  0  0  0  0  0  0  0  0  0  0
   -2.6717    1.2890    0.0000 C   0  0  0  0  0  0  0  0  0  0  0  0
   -1.9264    2.5218    0.0000 C   0  0  0  0  0  0  0  0  0  0  0  0
   -3.3983    0.8577    0.0000 O   0  0  0  0  0  0  0  0  0  0  0  0
   -2.6717    2.1140    0.0000 C   0  0  0  0  0  0  0  0  0  0  0  0
   -3.4123    0.0421    0.0000 C   0  0  0  0  0  0  0  0  0  0  0  0
   -2.6905   -0.3657    0.0000 C   0  0  0  0  0  0  0  0  0  0  0  0
   -4.1294   -0.3657    0.0000 C   0  0  0  0  0  0  0  0  0  0  0  0
   -2.6905   -1.1952    0.0000 C   0  0  0  0  0  0  0  0  0  0  0  0
   -4.1294   -1.1952    0.0000 C   0  0  0  0  0  0  0  0  0  0  0  0
   -3.4123   -1.6030    0.0000 C   0  0  0  0  0  0  0  0  0  0  0  0
   -2.0905   -1.7577    0.0000 C   0  0  0  0  0  0  0  0  0  0  0  0
   -3.2342   -2.4046    0.0000 C   0  0  0  0  0  0  0  0  0  0  0  0
   -2.4280   -2.4889    0.0000 N   0  0  0  0  0  0  0  0  0  0  0  0
   -1.2749   -1.6030    0.0000 O   0  0  0  0  0  0  0  0  0  0  0  0
   -3.7779   -3.0326    0.0000 O   0  0  0  0  0  0  0  0  0  0  0  0
   -1.9921   -3.1685    0.0000 C   0  0  0  0  0  0  0  0  0  0  0  0
   -1.1719   -3.1264    0.0000 C   0  0  0  0  0  0  0  0  0  0  0  0
   -2.3623   -3.9138    0.0000 C   0  0  0  0  0  0  0  0  0  0  0  0
   -0.7172   -3.8061    0.0000 C   0  0  0  0  0  0  0  0  0  0  0  0
   -1.9170   -4.5935    0.0000 C   0  0  0  0  0  0  0  0  0  0  0  0
   -1.0874   -4.5560    0.0000 C   0  0  0  0  0  0  0  0  0  0  0  0
    0.0984   -3.7404    0.0000 C   0  0  0  0  0  0  0  0  0  0  0  0
    0.9281   -3.6701    0.0000 C   0  0  0  0  0  0  0  0  0  0  0  0
  1  2  1  0  0  0  0
  1  3  1  0  0  0  0
  1  4  1  0  0  0  0
  2  5  1  0  0  0  0
  2  6  2  0  0  0  0
  3  7  1  0  0  0  0
  3  8  2  0  0  0  0
  4  9  1  0  0  0  0
  4 10  2  0  0  0  0
  5 11  1  0  0  0  0
  5  9  2  0  0  0  0
  7 12  2  0  0  0  0
  8 13  1  0  0  0  0
  9 14  1  0  0  0  0
 11 15  2  0  0  0  0
 12 16  1  0  0  0  0
 12 17  1  0  0  0  0
 13 16  2  0  0  0  0
 14 18  2  0  0  0  0
 15 19  1  0  0  0  0
 15 18  1  0  0  0  0
 17 20  3  0  0  0  0
 19 21  1  0  0  0  0
 21 22  1  0  0  0  0
 21 23  2  0  0  0  0
 22 24  2  0  0  0  0
 23 25  1  0  0  0  0
 24 26  1  0  0  0  0
 24 27  1  0  0  0  0
 25 27  2  0  0  0  0
 26 28  1  0  0  0  0
 28 29  2  0  0  0  0
 28 30  1  0  0  0  0
 29 31  1  0  0  0  0
 30 32  2  0  0  0  0
 31 33  2  0  0  0  0
 31 34  1  0  0  0  0
 32 33  1  0  0  0  0
 33 35  1  0  0  0  0
 34 36  1  0  0  0  0
 34 37  2  0  0  0  0
 35 38  2  0  0  0  0
 35 36  1  0  0  0  0
 36 39  1  0  0  0  0
 39 40  1  0  0  0  0
 39 41  2  0  0  0  0
 40 42  2  0  0  0  0
 41 43  1  0  0  0  0
 42 44  1  0  0  0  0
 42 45  1  0  0  0  0
 43 44  2  0  0  0  0
 45 46  3  0  0  0  0
M  END
> <CdId>
575

> <Mol Weight>
600.5752

> <Formula>
C38H20N2O6

> <Click_ID>
CLK008_C06 __ __ 

$$$$
