CLK007_A11
 OpenBabel03181410512D

 33 36  0  0  0  0  0  0  0  0999 V2000
    0.3037   -1.3532    0.0000 C   0  0  0  0  0  0  0  0  0  0  0  0
    1.0183   -0.9424    0.0000 C   0  0  3  0  0  0  0  0  0  0  0  0
    0.3037   -2.1714    0.0000 C   0  0  0  0  0  0  0  0  0  0  0  0
   -0.4073   -0.9320    0.0000 C   0  0  0  0  0  0  0  0  0  0  0  0
    1.0183   -0.1139    0.0000 C   0  0  0  0  0  0  0  0  0  0  0  0
    1.7295   -1.3463    0.0000 C   0  0  0  0  0  0  0  0  0  0  0  0
   -0.4073   -2.5856    0.0000 N   0  0  0  0  0  0  0  0  0  0  0  0
    1.0183   -2.5856    0.0000 N   0  0  0  0  0  0  0  0  0  0  0  0
   -1.1150   -1.3532    0.0000 N   0  0  0  0  0  0  0  0  0  0  0  0
   -0.4073   -0.1070    0.0000 O   0  0  0  0  0  0  0  0  0  0  0  0
    1.7295    0.2969    0.0000 C   0  0  0  0  0  0  0  0  0  0  0  0
    0.3037    0.2969    0.0000 C   0  0  0  0  0  0  0  0  0  0  0  0
    1.7295   -2.1714    0.0000 C   0  0  0  0  0  0  0  0  0  0  0  0
   -1.1150   -2.1817    0.0000 C   0  0  0  0  0  0  0  0  0  0  0  0
    1.7295    1.1322    0.0000 C   0  0  0  0  0  0  0  0  0  0  0  0
    0.3037    1.1322    0.0000 C   0  0  0  0  0  0  0  0  0  0  0  0
    2.4441   -2.5856    0.0000 O   0  0  0  0  0  0  0  0  0  0  0  0
   -1.8365   -2.5925    0.0000 S   0  0  0  0  0  0  0  0  0  0  0  0
    1.0183    1.5431    0.0000 C   0  0  0  0  0  0  0  0  0  0  0  0
    2.4441    1.5431    0.0000 O   0  0  0  0  0  0  0  0  0  0  0  0
   -2.5476   -2.1817    0.0000 C   0  0  0  0  0  0  0  0  0  0  0  0
    1.0149    2.3716    0.0000 O   0  0  0  0  0  0  0  0  0  0  0  0
    3.1656    1.1357    0.0000 C   0  0  0  0  0  0  0  0  0  0  0  0
   -2.5476   -1.3532    0.0000 C   0  0  0  0  0  0  0  0  0  0  0  0
    0.3003    2.7754    0.0000 C   0  0  0  0  0  0  0  0  0  0  0  0
   -3.2622   -0.9424    0.0000 C   0  0  0  0  0  0  0  0  0  0  0  0
   -0.4143    2.3578    0.0000 C   0  0  0  0  0  0  0  0  0  0  0  0
   -1.1357    2.7720    0.0000 C   0  0  0  0  0  0  0  0  0  0  0  0
   -0.4143    1.5327    0.0000 C   0  0  0  0  0  0  0  0  0  0  0  0
   -1.8468    2.3578    0.0000 C   0  0  0  0  0  0  0  0  0  0  0  0
   -1.1357    3.5970    0.0000 C   0  0  0  0  0  0  0  0  0  0  0  0
   -1.1357    1.1184    0.0000 C   0  0  0  0  0  0  0  0  0  0  0  0
   -1.8468    1.5327    0.0000 C   0  0  0  0  0  0  0  0  0  0  0  0
  1  2  1  0  0  0  0
  1  3  2  0  0  0  0
  1  4  1  0  0  0  0
  2  5  1  0  0  0  0
  2  6  1  0  0  0  0
  3  7  1  0  0  0  0
  3  8  1  0  0  0  0
  4  9  1  0  0  0  0
  4 10  2  0  0  0  0
  5 11  2  0  0  0  0
  5 12  1  0  0  0  0
  6 13  1  0  0  0  0
  7 14  2  0  0  0  0
  8 13  1  0  0  0  0
  9 14  1  0  0  0  0
 11 15  1  0  0  0  0
 12 16  2  0  0  0  0
 13 17  2  0  0  0  0
 14 18  1  0  0  0  0
 15 19  2  0  0  0  0
 15 20  1  0  0  0  0
 16 19  1  0  0  0  0
 18 21  1  0  0  0  0
 19 22  1  0  0  0  0
 20 23  1  0  0  0  0
 21 24  1  0  0  0  0
 22 25  1  0  0  0  0
 24 26  3  0  0  0  0
 25 27  1  0  0  0  0
 27 28  2  0  0  0  0
 27 29  1  0  0  0  0
 28 30  1  0  0  0  0
 28 31  1  0  0  0  0
 29 32  2  0  0  0  0
 30 33  2  0  0  0  0
 32 33  1  0  0  0  0
M  END
> <CdId>
490

> <Mol Weight>
461.533

> <Formula>
C25H23N3O4S

> <Click_ID>
CLK007_A11 __ __ 

$$$$
