CLK006_B02
 OpenBabel03181410512D

 19 20  0  0  0  0  0  0  0  0999 V2000
    1.3928    0.1965    0.0000 C   0  0  0  0  0  0  0  0  0  0  0  0
    0.6770   -1.0409    0.0000 N   0  0  0  0  0  0  0  0  0  0  0  0
   -0.0412    0.1965    0.0000 C   0  0  0  0  0  0  0  0  0  0  0  0
    1.3928   -0.6285    0.0000 C   0  0  0  0  0  0  0  0  0  0  0  0
    0.6770    0.6090    0.0000 C   0  0  0  0  0  0  0  0  0  0  0  0
   -1.4680    0.1965    0.0000 C   0  0  0  0  0  0  0  0  0  0  0  0
   -0.7546    0.6090    0.0000 N   0  0  0  0  0  0  0  0  0  0  0  0
   -3.6129    0.6090    0.0000 C   0  0  0  0  0  0  0  0  0  0  0  0
   -0.0412   -0.6285    0.0000 C   0  0  0  0  0  0  0  0  0  0  0  0
   -4.3190    1.0239    0.0000 C   0  0  0  0  0  0  0  0  0  0  0  0
   -1.4680   -0.6285    0.0000 O   0  0  0  0  0  0  0  0  0  0  0  0
    2.1061   -1.0409    0.0000 C   0  0  0  0  0  0  0  0  0  0  0  0
   -2.1886    0.6090    0.0000 N   0  0  0  0  0  0  0  0  0  0  0  0
    0.6770    1.4340    0.0000 O   0  0  0  0  0  0  0  0  0  0  0  0
    2.1061    0.6090    0.0000 C   0  0  0  0  0  0  0  0  0  0  0  0
   -2.9020    0.1965    0.0000 C   0  0  0  0  0  0  0  0  0  0  0  0
    2.8195    0.1965    0.0000 C   0  0  0  0  0  0  0  0  0  0  0  0
    2.8195   -0.6285    0.0000 C   0  0  0  0  0  0  0  0  0  0  0  0
    2.1061   -1.8659    0.0000 C   0  0  0  0  0  0  0  0  0  0  0  0
  2  4  1  0  0  0  0
  3  5  2  0  0  0  0
  4  1  1  0  0  0  0
  5  1  1  0  0  0  0
  6  7  1  0  0  0  0
  7  3  1  0  0  0  0
  8 16  1  0  0  0  0
  9  3  1  0  0  0  0
  9  2  2  0  0  0  0
 10  8  3  0  0  0  0
 11  6  2  0  0  0  0
 12  4  2  0  0  0  0
 13  6  1  0  0  0  0
 14  5  1  0  0  0  0
 15  1  2  0  0  0  0
 16 13  1  0  0  0  0
 17 15  1  0  0  0  0
 18 17  2  0  0  0  0
 18 12  1  0  0  0  0
 19 12  1  0  0  0  0
M  END
> <CdId>
411

> <Mol Weight>
255.2719

> <Formula>
C14H13N3O2

> <Click_ID>
CLK006_B02 __ __ 

$$$$
