CLK039D08
 OpenBabel03181410512D

 19 20  0  0  0  0  0  0  0  0999 V2000
   -1.1958    0.5125    0.0000 S   0  0  0  0  0  0  0  0  0  0  0  0
    1.7333   -0.9792    0.0000 N   0  0  0  0  0  0  0  0  0  0  0  0
    0.9500   -0.7250    0.0000 C   0  0  0  0  0  0  0  0  0  0  0  0
   -0.4792    0.1000    0.0000 C   0  0  0  0  0  0  0  0  0  0  0  0
    0.9500    0.1000    0.0000 C   0  0  0  0  0  0  0  0  0  0  0  0
    1.9875   -1.7667    0.0000 C   0  0  0  0  0  0  0  0  0  0  0  0
    2.2208   -0.3125    0.0000 C   0  0  0  0  0  0  0  0  0  0  0  0
    0.2333    0.5125    0.0000 C   0  0  0  0  0  0  0  0  0  0  0  0
   -2.6208    2.1625    0.0000 C   0  0  0  0  0  0  0  0  0  0  0  0
    0.2333   -1.1375    0.0000 C   0  0  0  0  0  0  0  0  0  0  0  0
   -3.3375    2.5750    0.0000 C   0  0  0  0  0  0  0  0  0  0  0  0
   -1.6083   -0.2042    0.0000 O   0  0  0  0  0  0  0  0  0  0  0  0
   -0.7833    1.2250    0.0000 O   0  0  0  0  0  0  0  0  0  0  0  0
   -1.9083    0.9250    0.0000 N   0  0  0  0  0  0  0  0  0  0  0  0
    1.7333    0.3542    0.0000 C   0  0  0  0  0  0  0  0  0  0  0  0
   -0.4792   -0.7250    0.0000 C   0  0  0  0  0  0  0  0  0  0  0  0
    2.7958   -1.9375    0.0000 O   0  0  0  0  0  0  0  0  0  0  0  0
   -1.9083    1.7500    0.0000 C   0  0  0  0  0  0  0  0  0  0  0  0
    1.4375   -2.3792    0.0000 C   0  0  0  0  0  0  0  0  0  0  0  0
  2  3  1  0  0  0  0
  3 10  1  0  0  0  0
  3  5  2  0  0  0  0
  4  1  1  0  0  0  0
  5  8  1  0  0  0  0
  6  2  1  0  0  0  0
  7 15  1  0  0  0  0
  7  2  1  0  0  0  0
  8  4  2  0  0  0  0
  9 18  1  0  0  0  0
 10 16  2  0  0  0  0
 11  9  3  0  0  0  0
 12  1  2  0  0  0  0
 13  1  2  0  0  0  0
 14  1  1  0  0  0  0
 15  5  1  0  0  0  0
 16  4  1  0  0  0  0
 17  6  2  0  0  0  0
 18 14  1  0  0  0  0
 19  6  1  0  0  0  0
M  END
> <CdId>
2980

> <Mol Weight>
278.327

> <Formula>
C13H14N2O3S

> <Click_ID>
CLK039D08 __ __ 

$$$$
