CLK051H08
 OpenBabel03181410512D

 21 22  0  0  0  0  0  0  0  0999 V2000
   -0.8875    0.9458    0.0000 C   0  0  0  0  0  0  0  0  0  0  0  0
   -0.8875    0.1208    0.0000 C   0  0  0  0  0  0  0  0  0  0  0  0
   -2.3167   -1.5292    0.0000 C   0  0  0  0  0  0  0  0  0  0  0  0
   -3.0292   -1.9417    0.0000 C   0  0  0  0  0  0  0  0  0  0  0  0
   -0.1708    1.3583    0.0000 C   0  0  0  0  0  0  0  0  0  0  0  0
    0.5417    0.9458    0.0000 O   0  0  0  0  0  0  0  0  0  0  0  0
   -0.1708   -0.2917    0.0000 O   0  0  0  0  0  0  0  0  0  0  0  0
   -1.6000   -0.2917    0.0000 N   0  0  0  0  0  0  0  0  0  0  0  0
    0.5417    0.1208    0.0000 C   0  0  0  0  0  0  0  0  0  0  0  0
    1.2583   -1.1167    0.0000 C   0  0  0  0  0  0  0  0  0  0  0  0
    1.2583   -0.2917    0.0000 C   0  0  0  0  0  0  0  0  0  0  0  0
   -1.6000   -1.1167    0.0000 C   0  0  0  0  0  0  0  0  0  0  0  0
   -1.6000    1.3583    0.0000 C   0  0  0  0  0  0  0  0  0  0  0  0
    1.9708   -1.5292    0.0000 C   0  0  0  0  0  0  0  0  0  0  0  0
    2.6875   -0.2917    0.0000 C   0  0  0  0  0  0  0  0  0  0  0  0
   -0.1708    2.1833    0.0000 C   0  0  0  0  0  0  0  0  0  0  0  0
    1.9708    0.1208    0.0000 C   0  0  0  0  0  0  0  0  0  0  0  0
    2.6875   -1.1167    0.0000 C   0  0  0  0  0  0  0  0  0  0  0  0
    1.9708   -2.3542    0.0000 C   0  0  0  0  0  0  0  0  0  0  0  0
   -1.6000    2.1833    0.0000 C   0  0  0  0  0  0  0  0  0  0  0  0
   -0.8875    2.5958    0.0000 C   0  0  0  0  0  0  0  0  0  0  0  0
  2  1  1  0  0  0  0
  3 12  1  0  0  0  0
  4  3  3  0  0  0  0
  5  1  2  0  0  0  0
  6  5  1  0  0  0  0
  7  2  2  0  0  0  0
  8  2  1  0  0  0  0
  9  6  1  0  0  0  0
 10 11  1  0  0  0  0
 11  9  1  0  0  0  0
 12  8  1  0  0  0  0
 13  1  1  0  0  0  0
 14 10  2  0  0  0  0
 15 17  1  0  0  0  0
 15 18  2  0  0  0  0
 16  5  1  0  0  0  0
 17 11  2  0  0  0  0
 18 14  1  0  0  0  0
 19 14  1  0  0  0  0
 20 13  2  0  0  0  0
 20 21  1  0  0  0  0
 21 16  2  0  0  0  0
M  END
> <CdId>
3944

> <Mol Weight>
279.3331

> <Formula>
C18H17NO2

> <Click_ID>
CLK051H08 __ __ 

$$$$
