CLK029_B04
 OpenBabel03181410512D

 27 29  0  0  0  0  0  0  0  0999 V2000
   -1.1762    0.9669    0.0000 C   0  0  0  0  0  0  0  0  0  0  0  0
   -1.6660    0.2972    0.0000 N   0  0  0  0  0  0  0  0  0  0  0  0
   -0.3474    0.9669    0.0000 N   0  0  0  0  0  0  0  0  0  0  0  0
   -1.6660    1.6409    0.0000 S   0  0  0  0  0  0  0  0  0  0  0  0
    2.6371    1.0758    0.0000 C   0  0  0  0  0  0  0  0  0  0  0  0
   -2.4571    0.5525    0.0000 C   0  0  0  0  0  0  0  0  0  0  0  0
    2.0511    1.6534    0.0000 N   0  0  0  0  0  0  0  0  0  0  0  0
   -2.4571    1.3814    0.0000 C   0  0  0  0  0  0  0  0  0  0  0  0
    2.5116    0.2763    0.0000 N   0  0  0  0  0  0  0  0  0  0  0  0
   -0.1339    1.7706    0.0000 C   0  0  0  0  0  0  0  0  0  0  0  0
    3.4325    1.2181    0.0000 S   0  0  0  0  0  0  0  0  0  0  0  0
   -0.6028   -0.6572    0.0000 C   0  0  0  0  0  0  0  0  0  0  0  0
    2.2604    2.4362    0.0000 C   0  0  0  0  0  0  0  0  0  0  0  0
   -0.0502   -0.0419    0.0000 C   0  0  0  0  0  0  0  0  0  0  0  0
    3.2441   -0.0879    0.0000 C   0  0  0  0  0  0  0  0  0  0  0  0
    3.8092    0.4855    0.0000 C   0  0  0  0  0  0  0  0  0  0  0  0
   -1.4065   -0.4814    0.0000 C   0  0  0  0  0  0  0  0  0  0  0  0
   -0.7241    2.3566    0.0000 O   0  0  0  0  0  0  0  0  0  0  0  0
    3.1394    2.6831    0.0000 O   0  0  0  0  0  0  0  0  0  0  0  0
    0.8707    2.7962    0.0000 S   0  0  0  0  0  0  0  0  0  0  0  0
    0.6572    1.9925    0.0000 C   0  0  0  0  0  0  0  0  0  0  0  0
    1.6702    3.0139    0.0000 C   0  0  0  0  0  0  0  0  0  0  0  0
   -3.1729    0.1465    0.0000 C   0  0  0  0  0  0  0  0  0  0  0  0
   -3.1729    1.8041    0.0000 C   0  0  0  0  0  0  0  0  0  0  0  0
   -3.8804    0.5525    0.0000 C   0  0  0  0  0  0  0  0  0  0  0  0
   -3.8804    1.3814    0.0000 C   0  0  0  0  0  0  0  0  0  0  0  0
   -4.6045    1.7915    0.0000 H   0  0  0  0  0  0  0  0  0  0  0  0
  2  1  1  0  0  0  0
  3  1  2  0  0  0  0
  4  1  1  0  0  0  0
  5  7  1  0  0  0  0
  6  2  1  0  0  0  0
  7 13  1  0  0  0  0
  8  4  1  0  0  0  0
  8  6  2  0  0  0  0
  9  5  2  0  0  0  0
 10  3  1  0  0  0  0
 11  5  1  0  0  0  0
 12 17  1  0  0  0  0
 13 22  1  0  0  0  0
 14 12  3  0  0  0  0
 15  9  1  0  0  0  0
 15 16  2  0  0  0  0
 16 11  1  0  0  0  0
 17  2  1  0  0  0  0
 18 10  2  0  0  0  0
 19 13  2  0  0  0  0
 20 21  1  0  0  0  0
 21 10  1  0  0  0  0
 22 20  1  0  0  0  0
 23  6  1  0  0  0  0
 24  8  1  0  0  0  0
 25 23  2  0  0  0  0
 26 24  2  0  0  0  0
 26 25  1  0  0  0  0
 27 26  1  0  0  0  0
M  END
> <CdId>
2178

> <Mol Weight>
402.514

> <Formula>
C17H14N4O2S3

> <Click_ID>
CLK029_B04 __ __ 

$$$$
