CLK047D09
 OpenBabel03181410512D

 18 19  0  0  0  0  0  0  0  0999 V2000
    1.5875   -0.5917    0.0000 N   0  0  0  0  0  0  0  0  0  0  0  0
    2.3000   -0.1792    0.0000 C   0  0  0  0  0  0  0  0  0  0  0  0
    1.5875    1.0583    0.0000 S   0  0  0  0  0  0  0  0  0  0  0  0
    0.8708   -0.1792    0.0000 C   0  0  0  0  0  0  0  0  0  0  0  0
    0.8708    0.6458    0.0000 C   0  0  0  0  0  0  0  0  0  0  0  0
    2.3000    0.6458    0.0000 C   0  0  3  0  0  0  0  0  0  0  0  0
   -1.2708   -0.5917    0.0000 C   0  0  0  0  0  0  0  0  0  0  0  0
   -0.5583   -0.1792    0.0000 C   0  0  0  0  0  0  0  0  0  0  0  0
    0.1583   -0.5917    0.0000 C   0  0  0  0  0  0  0  0  0  0  0  0
   -3.4167   -0.1792    0.0000 C   0  0  0  0  0  0  0  0  0  0  0  0
   -4.1292    0.2333    0.0000 C   0  0  0  0  0  0  0  0  0  0  0  0
    3.0167   -0.5917    0.0000 O   0  0  0  0  0  0  0  0  0  0  0  0
   -1.2708   -1.4167    0.0000 O   0  0  0  0  0  0  0  0  0  0  0  0
    0.1583    1.0583    0.0000 C   0  0  0  0  0  0  0  0  0  0  0  0
   -0.5583    0.6458    0.0000 C   0  0  0  0  0  0  0  0  0  0  0  0
   -1.9875   -0.1792    0.0000 N   0  0  0  0  0  0  0  0  0  0  0  0
   -2.7000   -0.5917    0.0000 C   0  0  0  0  0  0  0  0  0  0  0  0
    3.0167    1.0583    0.0000 C   0  0  0  0  0  0  0  0  0  0  0  0
  2  1  1  0  0  0  0
  3  6  1  0  0  0  0
  4  1  1  0  0  0  0
  5  4  2  0  0  0  0
  5  3  1  0  0  0  0
  6  2  1  0  0  0  0
  7  8  1  0  0  0  0
  8  9  2  0  0  0  0
  8 15  1  0  0  0  0
  9  4  1  0  0  0  0
 10 17  1  0  0  0  0
 11 10  3  0  0  0  0
 12  2  2  0  0  0  0
 13  7  2  0  0  0  0
 14  5  1  0  0  0  0
 15 14  2  0  0  0  0
 16  7  1  0  0  0  0
 17 16  1  0  0  0  0
 18  6  1  0  0  0  0
M  END
> <CdId>
3628

> <Mol Weight>
260.312

> <Formula>
C13H12N2O2S

> <Click_ID>
CLK047D09 __ __ 

$$$$
