CLK052B03
 OpenBabel03181410512D

 24 25  0  0  0  0  0  0  0  0999 V2000
    0.1750    0.0000    0.0000 C   0  0  0  0  0  0  0  0  0  0  0  0
   -0.5375    0.4125    0.0000 C   0  0  0  0  0  0  0  0  0  0  0  0
    0.1750   -0.8250    0.0000 C   0  0  0  0  0  0  0  0  0  0  0  0
    0.8917    0.4125    0.0000 C   0  0  0  0  0  0  0  0  0  0  0  0
    0.8917   -1.2375    0.0000 C   0  0  0  0  0  0  0  0  0  0  0  0
    1.6042    0.8250    0.0000 N   0  0  0  0  0  0  0  0  0  0  0  0
   -0.5375    1.2375    0.0000 C   0  0  0  0  0  0  0  0  0  0  0  0
   -3.3958    1.2375    0.0000 C   0  0  0  0  0  0  0  0  0  0  0  0
   -4.1083    0.8250    0.0000 C   0  0  0  0  0  0  0  0  0  0  0  0
    0.8917   -2.0625    0.0000 C   0  0  0  0  0  0  0  0  0  0  0  0
   -0.5375   -1.2375    0.0000 O   0  0  0  0  0  0  0  0  0  0  0  0
   -1.2542    1.6500    0.0000 C   0  0  0  0  0  0  0  0  0  0  0  0
    1.6042   -2.4750    0.0000 C   0  0  0  0  0  0  0  0  0  0  0  0
   -1.9667    1.2375    0.0000 O   0  0  0  0  0  0  0  0  0  0  0  0
   -2.6833    1.6500    0.0000 C   0  0  0  0  0  0  0  0  0  0  0  0
    1.6042   -0.8250    0.0000 C   0  0  0  0  0  0  0  0  0  0  0  0
    1.6042   -3.3000    0.0000 O   0  0  0  0  0  0  0  0  0  0  0  0
    2.3208   -1.2375    0.0000 C   0  0  0  0  0  0  0  0  0  0  0  0
    0.1750    1.6500    0.0000 C   0  0  0  0  0  0  0  0  0  0  0  0
   -1.2542    2.4750    0.0000 C   0  0  0  0  0  0  0  0  0  0  0  0
    2.3208   -2.0625    0.0000 C   0  0  0  0  0  0  0  0  0  0  0  0
    2.3208   -3.7125    0.0000 C   0  0  0  0  0  0  0  0  0  0  0  0
    0.1750    2.4750    0.0000 C   0  0  0  0  0  0  0  0  0  0  0  0
   -0.5375    2.8917    0.0000 C   0  0  0  0  0  0  0  0  0  0  0  0
  2  1  2  0  0  0  0
  3  1  1  0  0  0  0
  4  1  1  0  0  0  0
  5  3  1  0  0  0  0
  6  4  3  0  0  0  0
  7  2  1  0  0  0  0
  8 15  1  0  0  0  0
  9  8  3  0  0  0  0
 10  5  1  0  0  0  0
 11  3  2  0  0  0  0
 12  7  2  0  0  0  0
 13 10  2  0  0  0  0
 14 12  1  0  0  0  0
 15 14  1  0  0  0  0
 16  5  2  0  0  0  0
 17 13  1  0  0  0  0
 18 16  1  0  0  0  0
 18 21  2  0  0  0  0
 19  7  1  0  0  0  0
 20 12  1  0  0  0  0
 21 13  1  0  0  0  0
 22 17  1  0  0  0  0
 23 19  2  0  0  0  0
 24 20  2  0  0  0  0
 24 23  1  0  0  0  0
M  END
> <CdId>
3978

> <Mol Weight>
317.338

> <Formula>
C20H15NO3

> <Click_ID>
CLK052B03 __ __ 

$$$$
