CLK014_H08
 OpenBabel03181410512D

 21 23  0  0  0  0  0  0  0  0999 V2000
    1.5677   -0.8172    0.0000 N    0  0  0  0  0  0  0  0  0  0  0  0
    1.8262   -1.6052    0.0000 C    0  0  0  0  0  0  0  0  0  0  0  0
    2.9061   -0.8172    0.0000 C    0  0  0  0  0  0  0  0  0  0  0  0
    2.2389   -0.3294    0.0000 C    0  0  0  0  0  0  0  0  0  0  0  0
    2.6517   -1.6052    0.0000 S    0  0  0  0  0  0  0  0  0  0  0  0
    3.6941   -0.5629    0.0000 C    0  0  0  0  0  0  0  0  0  0  0  0
    3.8567    0.2460    0.0000 C    0  0  0  0  0  0  0  0  0  0  0  0
    4.8073    1.3091    0.0000 C    0  0  0  0  0  0  0  0  0  0  0  0
    4.1944    1.8595    0.0000 C    0  0  0  0  0  0  0  0  0  0  0  0
    3.4147    1.5968    0.0000 C    0  0  0  0  0  0  0  0  0  0  0  0
    4.6447    0.5003    0.0000 C    0  0  0  0  0  0  0  0  0  0  0  0
    3.2438    0.7963    0.0000 C    0  0  0  0  0  0  0  0  0  0  0  0
    0.6129    0.2460    0.0000 C    0  0  0  0  0  0  0  0  0  0  0  0
    0.3920    1.0465    0.0000 C    0  0  0  0  0  0  0  0  0  0  0  0
    1.3384   -2.2681    0.0000 O    0  0  0  0  0  0  0  0  0  0  0  0
    4.1902    2.6767    0.0000 O    0  0  0  0  0  0  0  0  0  0  0  0
    2.9311    2.2597    0.0000 O    0  0  0  0  0  0  0  0  0  0  0  0
    2.2306    0.4961    0.0000 O    0  0  0  0  0  0  0  0  0  0  0  0
    0.7880   -0.5629    0.0000 C    0  0  0  0  0  0  0  0  0  0  0  0
    3.4064    2.9227    0.0000 C    0  0  0  0  0  0  0  0  0  0  0  0
    5.2576   -0.0542    0.0000 Cl   0  0  0  0  0  0  0  0  0  0  0  0
  2  1  1  0  0  0  0
  3  4  1  0  0  0  0
  4  1  1  0  0  0  0
  5  2  1  0  0  0  0
  5  3  1  0  0  0  0
  6  3  2  0  0  0  0
  7  6  1  0  0  0  0
  8 11  1  0  0  0  0
  9 10  1  0  0  0  0
  9  8  2  0  0  0  0
 10 12  2  0  0  0  0
 11  7  2  0  0  0  0
 12  7  1  0  0  0  0
 13 19  1  0  0  0  0
 14 13  3  0  0  0  0
 15  2  2  0  0  0  0
 16  9  1  0  0  0  0
 17 10  1  0  0  0  0
 18  4  2  0  0  0  0
 19  1  1  0  0  0  0
 20 17  1  0  0  0  0
 20 16  1  0  0  0  0
 21 11  1  0  0  0  0
M  END
> <CdId>
1073

> <Mol Weight>
321.736

> <Formula>
C14H8ClNO4S

> <Click_ID>
CLK014_H08 __ __ 

$$$$
