CLK024_C06
 OpenBabel03181410512D

 28 30  0  0  0  0  0  0  0  0999 V2000
   -3.1155    0.9034    0.0000 N    0  0  0  0  0  0  0  0  0  0  0  0
   -2.6793    0.1958    0.0000 C    0  0  0  0  0  0  0  0  0  0  0  0
   -2.5694    1.5251    0.0000 C    0  0  0  0  0  0  0  0  0  0  0  0
   -1.8102    1.2022    0.0000 C    0  0  0  0  0  0  0  0  0  0  0  0
   -1.8755    0.3813    0.0000 S    0  0  0  0  0  0  0  0  0  0  0  0
    1.0614    0.4190    0.0000 C    0  0  0  0  0  0  0  0  0  0  0  0
   -1.0923    1.6247    0.0000 C    0  0  0  0  0  0  0  0  0  0  0  0
    1.0476    1.2366    0.0000 C    0  0  0  0  0  0  0  0  0  0  0  0
    0.3504   -0.0035    0.0000 C    0  0  0  0  0  0  0  0  0  0  0  0
   -0.3813    1.2263    0.0000 C    0  0  0  0  0  0  0  0  0  0  0  0
    1.7827    0.0206    0.0000 O    0  0  0  0  0  0  0  0  0  0  0  0
   -4.2765    1.7141    0.0000 C    0  0  0  0  0  0  0  0  0  0  0  0
   -4.6681    2.4457    0.0000 C    0  0  0  0  0  0  0  0  0  0  0  0
   -3.0090   -0.5633    0.0000 O    0  0  0  0  0  0  0  0  0  0  0  0
   -0.3675    0.3950    0.0000 C    0  0  0  0  0  0  0  0  0  0  0  0
    0.3263    1.6419    0.0000 C    0  0  0  0  0  0  0  0  0  0  0  0
   -2.7582    2.3254    0.0000 O    0  0  0  0  0  0  0  0  0  0  0  0
   -3.9296    0.9687    0.0000 C    0  0  0  0  0  0  0  0  0  0  0  0
    0.3641   -0.8244    0.0000 I    0  0  0  0  0  0  0  0  0  0  0  0
    1.7518    1.6522    0.0000 I    0  0  0  0  0  0  0  0  0  0  0  0
    1.7930   -0.8072    0.0000 C    0  0  0  0  0  0  0  0  0  0  0  0
    3.9536   -2.0163    0.0000 C    0  0  0  0  0  0  0  0  0  0  0  0
    2.5144   -1.2091    0.0000 C    0  0  0  0  0  0  0  0  0  0  0  0
    4.6646   -2.4251    0.0000 Br   0  0  0  0  0  0  0  0  0  0  0  0
    3.2426   -2.4422    0.0000 C    0  0  0  0  0  0  0  0  0  0  0  0
    3.9399   -1.1919    0.0000 C    0  0  0  0  0  0  0  0  0  0  0  0
    3.2186   -0.7832    0.0000 C    0  0  0  0  0  0  0  0  0  0  0  0
    2.5247   -2.0301    0.0000 C    0  0  0  0  0  0  0  0  0  0  0  0
  2  1  1  0  0  0  0
  3  1  1  0  0  0  0
  4  3  1  0  0  0  0
  4  5  1  0  0  0  0
  5  2  1  0  0  0  0
  6  8  2  0  0  0  0
  6  9  1  0  0  0  0
  7  4  2  0  0  0  0
  8 16  1  0  0  0  0
  9 15  2  0  0  0  0
 10  7  1  0  0  0  0
 11  6  1  0  0  0  0
 12 18  1  0  0  0  0
 13 12  3  0  0  0  0
 14  2  2  0  0  0  0
 15 10  1  0  0  0  0
 16 10  2  0  0  0  0
 17  3  2  0  0  0  0
 18  1  1  0  0  0  0
 19  9  1  0  0  0  0
 20  8  1  0  0  0  0
 21 11  1  0  0  0  0
 22 25  2  0  0  0  0
 22 26  1  0  0  0  0
 23 21  1  0  0  0  0
 24 22  1  0  0  0  0
 25 28  1  0  0  0  0
 26 27  2  0  0  0  0
 27 23  1  0  0  0  0
 28 23  2  0  0  0  0
M  END
> <CdId>
1801

> <Mol Weight>
680.092

> <Formula>
C20H12BrI2NO3S

> <Click_ID>
CLK024_C06 __ __ 

$$$$
