CLK009_H11
 OpenBabel03181410512D

 14 14  0  0  0  0  0  0  0  0999 V2000
   -3.4558    0.7440    0.0000 N   0  3  0  0  0  0  0  0  0  0  0  0
   -2.7230    0.3310    0.0000 C   0  0  0  0  0  0  0  0  0  0  0  0
   -2.0088    0.7589    0.0000 C   0  0  0  0  0  0  0  0  0  0  0  0
    0.8816    0.7440    0.0000 C   0  0  0  0  0  0  0  0  0  0  0  0
   -1.2945    0.3534    0.0000 C   0  0  0  0  0  0  0  0  0  0  0  0
    1.6108    1.1569    0.0000 C   0  0  0  0  0  0  0  0  0  0  0  0
   -3.4930    1.5624    0.0000 O   0  5  0  0  0  0  0  0  0  0  0  0
   -4.1700    0.2976    0.0000 O   0  0  0  0  0  0  0  0  0  0  0  0
   -1.2945   -0.4910    0.0000 C   0  0  0  0  0  0  0  0  0  0  0  0
   -2.7230   -0.4910    0.0000 C   0  0  0  0  0  0  0  0  0  0  0  0
   -2.0088   -0.8965    0.0000 C   0  0  0  0  0  0  0  0  0  0  0  0
   -0.5803   -0.9189    0.0000 N   0  0  0  0  0  0  0  0  0  0  0  0
   -0.5654    0.7589    0.0000 O   0  0  0  0  0  0  0  0  0  0  0  0
    0.1674    0.3310    0.0000 C   0  0  0  0  0  0  0  0  0  0  0  0
  2  1  1  0  0  0  0
  3  2  1  0  0  0  0
  4 14  1  0  0  0  0
  5  3  2  0  0  0  0
  5  9  1  0  0  0  0
  6  4  3  0  0  0  0
  7  1  1  0  0  0  0
  8  1  2  0  0  0  0
  9 11  2  0  0  0  0
 10  2  2  0  0  0  0
 11 10  1  0  0  0  0
 12  9  1  0  0  0  0
 13  5  1  0  0  0  0
 14 13  1  0  0  0  0
M  END
> <CdId>
676

> <Mol Weight>
192.1714

> <Formula>
C9H8N2O3

> <Click_ID>
CLK009_H11 __ __ 

$$$$
