CLK018_G07
 OpenBabel03181410512D

 25 27  0  0  0  0  0  0  0  0999 V2000
    1.5697   -0.8182    0.0000 N   0  0  0  0  0  0  0  0  0  0  0  0
    1.8284   -1.6072    0.0000 C   0  0  0  0  0  0  0  0  0  0  0  0
    2.9097   -0.8182    0.0000 C   0  0  0  0  0  0  0  0  0  0  0  0
    2.2417   -0.3298    0.0000 C   0  0  0  0  0  0  0  0  0  0  0  0
    2.6550   -1.6072    0.0000 S   0  0  0  0  0  0  0  0  0  0  0  0
    6.1783   -3.1559    0.0000 N   0  3  0  0  0  0  0  0  0  0  0  0
    5.5104   -1.6448    0.0000 C   0  0  0  0  0  0  0  0  0  0  0  0
    3.6987   -0.5636    0.0000 C   0  0  0  0  0  0  0  0  0  0  0  0
    6.3369   -1.7325    0.0000 C   0  0  0  0  0  0  0  0  0  0  0  0
    6.6667   -2.4839    0.0000 C   0  0  0  0  0  0  0  0  0  0  0  0
    5.1013   -0.9310    0.0000 O   0  0  0  0  0  0  0  0  0  0  0  0
    4.3123   -1.1021    0.0000 C   0  0  0  0  0  0  0  0  0  0  0  0
    4.9761   -2.2542    0.0000 C   0  0  0  0  0  0  0  0  0  0  0  0
    0.6137    0.2463    0.0000 C   0  0  0  0  0  0  0  0  0  0  0  0
    4.2246   -1.9328    0.0000 C   0  0  0  0  0  0  0  0  0  0  0  0
    0.3924    1.0478    0.0000 C   0  0  0  0  0  0  0  0  0  0  0  0
    5.3643   -3.0725    0.0000 O   0  5  0  0  0  0  0  0  0  0  0  0
    1.3400   -2.2710    0.0000 O   0  0  0  0  0  0  0  0  0  0  0  0
    6.5165   -3.9116    0.0000 O   0  0  0  0  0  0  0  0  0  0  0  0
    2.2334    0.4967    0.0000 O   0  0  0  0  0  0  0  0  0  0  0  0
    0.7890   -0.5636    0.0000 C   0  0  0  0  0  0  0  0  0  0  0  0
    6.8170   -1.0770    0.0000 C   0  0  0  0  0  0  0  0  0  0  0  0
    7.4808   -2.5841    0.0000 C   0  0  0  0  0  0  0  0  0  0  0  0
    7.6394   -1.1647    0.0000 C   0  0  0  0  0  0  0  0  0  0  0  0
    7.9650   -1.9161    0.0000 C   0  0  0  0  0  0  0  0  0  0  0  0
  2  1  1  0  0  0  0
  3  4  1  0  0  0  0
  3  5  1  0  0  0  0
  4  1  1  0  0  0  0
  5  2  1  0  0  0  0
  6 10  1  0  0  0  0
  7 11  1  0  0  0  0
  7 13  2  0  0  0  0
  8  3  2  0  0  0  0
  9  7  1  0  0  0  0
 10  9  2  0  0  0  0
 11 12  1  0  0  0  0
 12  8  1  0  0  0  0
 13 15  1  0  0  0  0
 14 21  1  0  0  0  0
 15 12  2  0  0  0  0
 16 14  3  0  0  0  0
 17  6  1  0  0  0  0
 18  2  2  0  0  0  0
 19  6  2  0  0  0  0
 20  4  2  0  0  0  0
 21  1  1  0  0  0  0
 22  9  1  0  0  0  0
 23 10  1  0  0  0  0
 23 25  2  0  0  0  0
 24 22  2  0  0  0  0
 25 24  1  0  0  0  0
M  END
> <CdId>
1382

> <Mol Weight>
354.337

> <Formula>
C17H10N2O5S

> <Click_ID>
CLK018_G07 __ __ 

$$$$
