CLK047G07
 OpenBabel03181410512D

 26 28  0  0  0  0  0  0  0  0999 V2000
    0.0250    0.4625    0.0000 C   0  0  0  0  0  0  0  0  0  0  0  0
    0.7417   -3.2500    0.0000 N   0  0  0  0  0  0  0  0  0  0  0  0
    0.7417    0.0500    0.0000 N   0  0  0  0  0  0  0  0  0  0  0  0
   -2.1167    4.1708    0.0000 C   0  0  0  0  0  0  0  0  0  0  0  0
   -0.6875    1.7000    0.0000 N   0  0  0  0  0  0  0  0  0  0  0  0
   -2.8333    4.5833    0.0000 C   0  0  0  0  0  0  0  0  0  0  0  0
    0.0250    1.2875    0.0000 C   0  0  3  0  0  0  0  0  0  0  0  0
    0.7417   -2.4250    0.0000 C   0  0  0  0  0  0  0  0  0  0  0  0
   -0.6875    0.0500    0.0000 O   0  0  0  0  0  0  0  0  0  0  0  0
   -0.6875    2.5250    0.0000 C   0  0  0  0  0  0  0  0  0  0  0  0
    1.4542   -2.0125    0.0000 C   0  0  0  0  0  0  0  0  0  0  0  0
    0.0250   -2.0125    0.0000 C   0  0  0  0  0  0  0  0  0  0  0  0
    0.7417   -0.7750    0.0000 C   0  0  0  0  0  0  0  0  0  0  0  0
   -1.4042    3.7625    0.0000 C   0  0  0  0  0  0  0  0  0  0  0  0
   -1.4042    2.9375    0.0000 C   0  0  0  0  0  0  0  0  0  0  0  0
    1.4542   -1.1875    0.0000 C   0  0  0  0  0  0  0  0  0  0  0  0
    0.0250   -1.1875    0.0000 C   0  0  0  0  0  0  0  0  0  0  0  0
    0.0250   -3.6625    0.0000 C   0  0  0  0  0  0  0  0  0  0  0  0
    1.4542   -3.6625    0.0000 C   0  0  0  0  0  0  0  0  0  0  0  0
    0.0250    3.7625    0.0000 C   0  0  0  0  0  0  0  0  0  0  0  0
    0.0250    2.9375    0.0000 C   0  0  0  0  0  0  0  0  0  0  0  0
    0.7417    1.7000    0.0000 C   0  0  0  0  0  0  0  0  0  0  0  0
   -0.6875    4.1708    0.0000 C   0  0  0  0  0  0  0  0  0  0  0  0
    1.4542   -4.4875    0.0000 C   0  0  0  0  0  0  0  0  0  0  0  0
    0.0250   -4.4875    0.0000 C   0  0  0  0  0  0  0  0  0  0  0  0
    0.7417   -4.9000    0.0000 C   0  0  0  0  0  0  0  0  0  0  0  0
  2  8  1  0  0  0  0
  3  1  1  0  0  0  0
  4 14  1  0  0  0  0
  5  7  1  0  0  0  0
  6  4  3  0  0  0  0
  7  1  1  0  0  0  0
  8 11  2  0  0  0  0
  8 12  1  0  0  0  0
  9  1  2  0  0  0  0
 10  5  1  0  0  0  0
 11 16  1  0  0  0  0
 12 17  2  0  0  0  0
 13  3  1  0  0  0  0
 14 15  1  0  0  0  0
 15 10  2  0  0  0  0
 16 13  2  0  0  0  0
 17 13  1  0  0  0  0
 18  2  1  0  0  0  0
 19  2  1  0  0  0  0
 20 21  2  0  0  0  0
 21 10  1  0  0  0  0
 22  7  1  0  0  0  0
 23 14  2  0  0  0  0
 23 20  1  0  0  0  0
 24 19  1  0  0  0  0
 25 18  1  0  0  0  0
 26 24  1  0  0  0  0
 26 25  1  0  0  0  0
M  END
> <CdId>
3615

> <Mol Weight>
347.4534

> <Formula>
C22H25N3O

> <Click_ID>
CLK047G07 __ __ 

$$$$
