CLK040C09
 OpenBabel03181410512D

 26 28  0  0  0  0  0  0  0  0999 V2000
   -0.0333    0.7621    0.0000 N   0  0  0  0  0  0  0  0  0  0  0  0
   -0.5164    1.4284    0.0000 C   0  0  0  0  0  0  0  0  0  0  0  0
   -0.0333    2.0947    0.0000 N   0  0  0  0  0  0  0  0  0  0  0  0
    0.7538    1.0161    0.0000 C   0  0  0  0  0  0  0  0  0  0  0  0
    0.7538    1.8407    0.0000 N   0  0  0  0  0  0  0  0  0  0  0  0
   -0.2873   -0.0208    0.0000 C   0  0  0  0  0  0  0  0  0  0  0  0
   -1.3410    1.4284    0.0000 N   0  0  0  0  0  0  0  0  0  0  0  0
    1.4200    0.5330    0.0000 S   0  0  0  0  0  0  0  0  0  0  0  0
    2.4944   -2.8984    0.0000 C   0  0  0  0  0  0  0  0  0  0  0  0
    2.4070   -3.7188    0.0000 C   0  0  0  0  0  0  0  0  0  0  0  0
    1.9989   -0.7704    0.0000 C   0  0  0  0  0  0  0  0  0  0  0  0
   -1.0911   -0.1916    0.0000 C   0  0  0  0  0  0  0  0  0  0  0  0
    2.7527   -0.4373    0.0000 O   0  0  0  0  0  0  0  0  0  0  0  0
   -2.9901    1.4284    0.0000 O   0  0  0  0  0  0  0  0  0  0  0  0
    1.3326   -0.2873    0.0000 C   0  0  0  0  0  0  0  0  0  0  0  0
    1.9157   -1.5908    0.0000 N   0  0  0  0  0  0  0  0  0  0  0  0
    2.5819   -2.0781    0.0000 C   0  0  0  0  0  0  0  0  0  0  0  0
   -1.7532    2.1446    0.0000 C   0  0  0  0  0  0  0  0  0  0  0  0
   -1.7532    0.7163    0.0000 C   0  0  0  0  0  0  0  0  0  0  0  0
    0.2666   -0.6330    0.0000 C   0  0  0  0  0  0  0  0  0  0  0  0
   -2.5778    0.7163    0.0000 C   0  0  0  0  0  0  0  0  0  0  0  0
   -2.5778    2.1446    0.0000 C   0  0  0  0  0  0  0  0  0  0  0  0
   -1.6449    0.4206    0.0000 C   0  0  0  0  0  0  0  0  0  0  0  0
   -1.3493   -0.9787    0.0000 C   0  0  0  0  0  0  0  0  0  0  0  0
    0.0125   -1.4200    0.0000 C   0  0  0  0  0  0  0  0  0  0  0  0
   -0.7954   -1.5908    0.0000 C   0  0  0  0  0  0  0  0  0  0  0  0
  2  1  1  0  0  0  0
  3  2  2  0  0  0  0
  3  5  1  0  0  0  0
  4  1  1  0  0  0  0
  5  4  2  0  0  0  0
  6  1  1  0  0  0  0
  7  2  1  0  0  0  0
  8  4  1  0  0  0  0
  9 17  1  0  0  0  0
 10  9  3  0  0  0  0
 11 15  1  0  0  0  0
 12  6  2  0  0  0  0
 13 11  2  0  0  0  0
 14 21  1  0  0  0  0
 14 22  1  0  0  0  0
 15  8  1  0  0  0  0
 16 11  1  0  0  0  0
 17 16  1  0  0  0  0
 18  7  1  0  0  0  0
 19  7  1  0  0  0  0
 20  6  1  0  0  0  0
 21 19  1  0  0  0  0
 22 18  1  0  0  0  0
 23 12  1  0  0  0  0
 24 12  1  0  0  0  0
 25 20  2  0  0  0  0
 25 26  1  0  0  0  0
 26 24  2  0  0  0  0
M  END
> <CdId>
3067

> <Mol Weight>
371.457

> <Formula>
C18H21N5O2S

> <Click_ID>
CLK040C09 __ __ 

$$$$
