CLK003_E02
 OpenBabel03181410512D

 32 35  0  0  0  0  0  0  0  0999 V2000
    0.4024   -0.2771    0.0000 C   0  0  3  0  0  0  0  0  0  0  0  0
    0.4024   -1.1009    0.0000 C   0  0  0  0  0  0  0  0  0  0  0  0
    1.1122    0.1253    0.0000 C   0  0  0  0  0  0  0  0  0  0  0  0
   -0.3151    0.1366    0.0000 C   0  0  0  0  0  0  0  0  0  0  0  0
    1.1122   -1.5147    0.0000 C   0  0  0  0  0  0  0  0  0  0  0  0
   -0.3151   -1.5147    0.0000 C   0  0  0  0  0  0  0  0  0  0  0  0
    1.8183   -0.2847    0.0000 C   0  0  0  0  0  0  0  0  0  0  0  0
    1.1122    0.9528    0.0000 C   0  0  0  0  0  0  0  0  0  0  0  0
   -1.0288   -0.2771    0.0000 C   0  0  0  0  0  0  0  0  0  0  0  0
   -0.3151    0.9604    0.0000 C   0  0  0  0  0  0  0  0  0  0  0  0
    1.8183   -1.1009    0.0000 N   0  0  0  0  0  0  0  0  0  0  0  0
    1.1122   -2.3422    0.0000 C   0  0  0  0  0  0  0  0  0  0  0  0
   -0.3151   -2.3422    0.0000 C   0  0  0  0  0  0  0  0  0  0  0  0
   -1.0364   -1.0971    0.0000 O   0  0  0  0  0  0  0  0  0  0  0  0
    2.5320    0.1366    0.0000 C   0  0  0  0  0  0  0  0  0  0  0  0
    1.8183    1.3590    0.0000 C   0  0  0  0  0  0  0  0  0  0  0  0
    0.3948    1.3742    0.0000 O   0  0  0  0  0  0  0  0  0  0  0  0
   -1.7462    0.1366    0.0000 C   0  0  0  0  0  0  0  0  0  0  0  0
   -1.0288    1.3742    0.0000 C   0  0  0  0  0  0  0  0  0  0  0  0
    0.3948   -2.7522    0.0000 C   0  0  0  0  0  0  0  0  0  0  0  0
    2.5320    0.9491    0.0000 C   0  0  0  0  0  0  0  0  0  0  0  0
   -1.7462    0.9604    0.0000 C   0  0  0  0  0  0  0  0  0  0  0  0
   -2.4599   -0.2771    0.0000 O   0  0  0  0  0  0  0  0  0  0  0  0
    0.3948   -3.5874    0.0000 C   0  0  0  0  0  0  0  0  0  0  0  0
   -0.4404   -2.7522    0.0000 C   0  0  0  0  0  0  0  0  0  0  0  0
    2.1182    1.6665    0.0000 C   0  0  0  0  0  0  0  0  0  0  0  0
    3.2571    1.3742    0.0000 C   0  0  0  0  0  0  0  0  0  0  0  0
   -2.4599    1.3666    0.0000 O   0  0  0  0  0  0  0  0  0  0  0  0
   -3.1774    0.1366    0.0000 C   0  0  0  0  0  0  0  0  0  0  0  0
   -2.4599    2.1904    0.0000 C   0  0  0  0  0  0  0  0  0  0  0  0
   -1.7462    2.6041    0.0000 C   0  0  0  0  0  0  0  0  0  0  0  0
   -1.7462    3.4279    0.0000 C   0  0  0  0  0  0  0  0  0  0  0  0
  1  2  1  0  0  0  0
  1  3  1  0  0  0  0
  1  4  1  0  0  0  0
  2  5  2  0  0  0  0
  2  6  1  0  0  0  0
  3  7  2  0  0  0  0
  3  8  1  0  0  0  0
  4  9  1  0  0  0  0
  4 10  2  0  0  0  0
  5 11  1  0  0  0  0
  5 12  1  0  0  0  0
  6 13  1  0  0  0  0
  6 14  2  0  0  0  0
  7 15  1  0  0  0  0
  7 11  1  0  0  0  0
  8 16  1  0  0  0  0
  8 17  2  0  0  0  0
  9 18  2  0  0  0  0
 10 19  1  0  0  0  0
 12 20  1  0  0  0  0
 13 20  1  0  0  0  0
 15 21  1  0  0  0  0
 16 21  1  0  0  0  0
 18 22  1  0  0  0  0
 18 23  1  0  0  0  0
 19 22  2  0  0  0  0
 20 24  1  0  0  0  0
 20 25  1  0  0  0  0
 21 26  1  0  0  0  0
 21 27  1  0  0  0  0
 22 28  1  0  0  0  0
 23 29  1  0  0  0  0
 28 30  1  0  0  0  0
 30 31  1  0  0  0  0
 31 32  3  0  0  0  0
M  END
> <CdId>
201

> <Mol Weight>
433.5393

> <Formula>
C27H31NO4

> <Click_ID>
CLK003_E02 __ __ 

$$$$
