CLK016_G07
 OpenBabel03181410512D

 31 33  0  0  0  0  0  0  0  0999 V2000
    4.6041   -2.4996    0.0000 N   0  0  0  0  0  0  0  0  0  0  0  0
    4.4710   -3.3231    0.0000 C   0  0  0  0  0  0  0  0  0  0  0  0
    3.8679   -2.1253    0.0000 C   0  0  0  0  0  0  0  0  0  0  0  0
    3.2815   -2.7117    0.0000 C   0  0  0  0  0  0  0  0  0  0  0  0
    3.6558   -3.4479    0.0000 S   0  0  0  0  0  0  0  0  0  0  0  0
    5.3319   -2.1336    0.0000 C   0  0  0  0  0  0  0  0  0  0  0  0
    2.4622   -2.5745    0.0000 C   0  0  0  0  0  0  0  0  0  0  0  0
    5.3818   -1.3101    0.0000 C   0  0  0  0  0  0  0  0  0  0  0  0
    0.1414   -6.5672    0.0000 C   0  0  0  0  0  0  0  0  0  0  0  0
   -0.3826   -7.2035    0.0000 C   0  0  0  0  0  0  0  0  0  0  0  0
    5.0532   -3.9053    0.0000 O   0  0  0  0  0  0  0  0  0  0  0  0
    1.7094   -4.6332    0.0000 C   0  0  0  0  0  0  0  0  0  0  0  0
    3.7348   -1.3143    0.0000 O   0  0  0  0  0  0  0  0  0  0  0  0
    1.9381   -3.2233    0.0000 C   0  0  0  0  0  0  0  0  0  0  0  0
    6.1180   -0.9400    0.0000 C   0  0  0  0  0  0  0  0  0  0  0  0
    2.2334   -3.9969    0.0000 C   0  0  0  0  0  0  0  0  0  0  0  0
    0.8901   -4.5084    0.0000 C   0  0  0  0  0  0  0  0  0  0  0  0
    4.6956   -0.8609    0.0000 O   0  0  0  0  0  0  0  0  0  0  0  0
    6.1554   -0.1165    0.0000 C   0  0  0  0  0  0  0  0  0  0  0  0
    6.8042   -1.3892    0.0000 C   0  0  0  0  0  0  0  0  0  0  0  0
    0.5906   -3.7224    0.0000 C   0  0  0  0  0  0  0  0  0  0  0  0
    1.1147   -3.0860    0.0000 C   0  0  0  0  0  0  0  0  0  0  0  0
    2.0005   -5.4068    0.0000 O   0  0  0  0  0  0  0  0  0  0  0  0
    7.5362   -1.0231    0.0000 C   0  0  0  0  0  0  0  0  0  0  0  0
    6.8916    0.2495    0.0000 C   0  0  0  0  0  0  0  0  0  0  0  0
    7.5861   -0.2038    0.0000 C   0  0  0  0  0  0  0  0  0  0  0  0
    0.3660   -5.1530    0.0000 O   0  0  0  0  0  0  0  0  0  0  0  0
    0.6530   -5.9183    0.0000 C   0  0  0  0  0  0  0  0  0  0  0  0
    2.8198   -5.5398    0.0000 C   0  0  0  0  0  0  0  0  0  0  0  0
    8.3222    0.1705    0.0000 C   0  0  0  0  0  0  0  0  0  0  0  0
    3.1110   -6.3051    0.0000 C   0  0  0  0  0  0  0  0  0  0  0  0
  2  1  1  0  0  0  0
  3  1  1  0  0  0  0
  4  3  1  0  0  0  0
  5  2  1  0  0  0  0
  5  4  1  0  0  0  0
  6  1  1  0  0  0  0
  7  4  2  0  0  0  0
  8  6  1  0  0  0  0
  9 28  1  0  0  0  0
 10  9  3  0  0  0  0
 11  2  2  0  0  0  0
 12 16  2  0  0  0  0
 13  3  2  0  0  0  0
 14  7  1  0  0  0  0
 15  8  1  0  0  0  0
 16 14  1  0  0  0  0
 17 21  2  0  0  0  0
 17 12  1  0  0  0  0
 18  8  2  0  0  0  0
 19 15  1  0  0  0  0
 20 15  2  0  0  0  0
 21 22  1  0  0  0  0
 22 14  2  0  0  0  0
 23 12  1  0  0  0  0
 24 20  1  0  0  0  0
 25 19  2  0  0  0  0
 26 24  2  0  0  0  0
 26 25  1  0  0  0  0
 27 17  1  0  0  0  0
 28 27  1  0  0  0  0
 29 23  1  0  0  0  0
 30 26  1  0  0  0  0
 31 29  1  0  0  0  0
M  END
> <CdId>
1222

> <Mol Weight>
435.492

> <Formula>
C24H21NO5S

> <Click_ID>
CLK016_G07 __ __ 

$$$$
