CLK043C07
 OpenBabel03181410512D

 30 33  0  0  0  0  0  0  0  0999 V2000
   -3.5458    0.3167    0.0000 C   0  0  0  0  0  0  0  0  0  0  0  0
    3.4417   -0.0958    0.0000 S   0  0  0  0  0  0  0  0  0  0  0  0
   -3.0583    0.9875    0.0000 N   0  0  0  0  0  0  0  0  0  0  0  0
   -3.0583   -0.3500    0.0000 S   0  0  0  0  0  0  0  0  0  0  0  0
   -2.2750   -0.0958    0.0000 C   0  0  0  0  0  0  0  0  0  0  0  0
   -4.3708    0.3167    0.0000 N   0  0  0  0  0  0  0  0  0  0  0  0
    0.5833   -0.0958    0.0000 C   0  0  0  0  0  0  0  0  0  0  0  0
   -2.2750    0.7292    0.0000 C   0  0  0  0  0  0  0  0  0  0  0  0
    2.7250   -0.5083    0.0000 C   0  0  0  0  0  0  0  0  0  0  0  0
   -0.1333   -0.5083    0.0000 N   0  0  0  0  0  0  0  0  0  0  0  0
    1.2958   -0.5083    0.0000 C   0  0  0  0  0  0  0  0  0  0  0  0
   -1.5625   -0.5083    0.0000 C   0  0  0  0  0  0  0  0  0  0  0  0
    5.5833    0.3167    0.0000 C   0  0  0  0  0  0  0  0  0  0  0  0
    2.0125   -0.0958    0.0000 C   0  0  0  0  0  0  0  0  0  0  0  0
    6.3000    0.7292    0.0000 C   0  0  0  0  0  0  0  0  0  0  0  0
    3.0292    0.6208    0.0000 O   0  0  0  0  0  0  0  0  0  0  0  0
    3.8542   -0.8083    0.0000 O   0  0  0  0  0  0  0  0  0  0  0  0
   -0.8458   -0.0958    0.0000 C   0  0  0  0  0  0  0  0  0  0  0  0
    4.1542    0.3167    0.0000 N   0  0  0  0  0  0  0  0  0  0  0  0
    0.5833    0.7292    0.0000 O   0  0  0  0  0  0  0  0  0  0  0  0
   -1.5625    1.1417    0.0000 C   0  0  0  0  0  0  0  0  0  0  0  0
   -0.8458    0.7292    0.0000 C   0  0  0  0  0  0  0  0  0  0  0  0
    4.8708   -0.0958    0.0000 C   0  0  0  0  0  0  0  0  0  0  0  0
   -4.8542    0.9875    0.0000 C   0  0  0  0  0  0  0  0  0  0  0  0
   -4.8542   -0.3500    0.0000 C   0  0  0  0  0  0  0  0  0  0  0  0
    2.7250   -1.3333    0.0000 C   0  0  0  0  0  0  0  0  0  0  0  0
    1.2958   -1.3333    0.0000 C   0  0  0  0  0  0  0  0  0  0  0  0
    2.0125   -1.7458    0.0000 C   0  0  0  0  0  0  0  0  0  0  0  0
   -5.6417    0.7292    0.0000 C   0  0  0  0  0  0  0  0  0  0  0  0
   -5.6417   -0.0958    0.0000 C   0  0  0  0  0  0  0  0  0  0  0  0
  2  9  1  0  0  0  0
  3  1  2  0  0  0  0
  4  1  1  0  0  0  0
  5  4  1  0  0  0  0
  5  8  2  0  0  0  0
  6  1  1  0  0  0  0
  7 10  1  0  0  0  0
  8  3  1  0  0  0  0
  9 14  1  0  0  0  0
 10 18  1  0  0  0  0
 11  7  1  0  0  0  0
 12  5  1  0  0  0  0
 13 23  1  0  0  0  0
 14 11  2  0  0  0  0
 15 13  3  0  0  0  0
 16  2  2  0  0  0  0
 17  2  2  0  0  0  0
 18 12  2  0  0  0  0
 19  2  1  0  0  0  0
 20  7  2  0  0  0  0
 21  8  1  0  0  0  0
 22 21  2  0  0  0  0
 22 18  1  0  0  0  0
 23 19  1  0  0  0  0
 24  6  1  0  0  0  0
 25  6  1  0  0  0  0
 26  9  2  0  0  0  0
 26 28  1  0  0  0  0
 27 11  1  0  0  0  0
 28 27  2  0  0  0  0
 29 24  1  0  0  0  0
 30 25  1  0  0  0  0
 30 29  1  0  0  0  0
M  END
> <CdId>
3291

> <Mol Weight>
440.538

> <Formula>
C21H20N4O3S2

> <Click_ID>
CLK043C07 __ __ 

$$$$
