CLK039A02
 OpenBabel03181410512D

 24 25  0  0  0  0  0  0  0  0999 V2000
    0.9614    0.0707    0.0000 N   0  0  0  0  0  0  0  0  0  0  0  0
    1.7480    0.3246    0.0000 C   0  0  0  0  0  0  0  0  0  0  0  0
    0.4787    0.7367    0.0000 C   0  0  0  0  0  0  0  0  0  0  0  0
    1.7480    1.1487    0.0000 N   0  0  0  0  0  0  0  0  0  0  0  0
    0.9614    1.4067    0.0000 C   0  0  3  0  0  0  0  0  0  0  0  0
    0.7075   -0.7117    0.0000 C   0  0  0  0  0  0  0  0  0  0  0  0
   -0.0957   -0.8823    0.0000 C   0  0  0  0  0  0  0  0  0  0  0  0
   -1.9645   -2.0102    0.0000 C   0  0  0  0  0  0  0  0  0  0  0  0
   -2.7718   -2.1808    0.0000 C   0  0  0  0  0  0  0  0  0  0  0  0
   -0.3538   -1.6689    0.0000 N   0  0  0  0  0  0  0  0  0  0  0  0
    2.4139   -0.1581    0.0000 O   0  0  0  0  0  0  0  0  0  0  0  0
   -0.3454    0.7367    0.0000 O   0  0  0  0  0  0  0  0  0  0  0  0
   -1.1570   -1.8396    0.0000 C   0  0  0  0  0  0  0  0  0  0  0  0
    0.1581    1.5774    0.0000 C   0  0  3  0  0  0  0  0  0  0  0  0
   -0.6493   -0.2705    0.0000 O   0  0  0  0  0  0  0  0  0  0  0  0
    1.5150    2.0185    0.0000 C   0  0  0  0  0  0  0  0  0  0  0  0
   -1.3277   -1.0321    0.0000 C   0  0  0  0  0  0  0  0  0  0  0  0
   -0.9864   -2.6428    0.0000 C   0  0  0  0  0  0  0  0  0  0  0  0
   -0.3953    0.9656    0.0000 C   0  0  0  0  0  0  0  0  0  0  0  0
   -0.0957    2.3598    0.0000 C   0  0  0  0  0  0  0  0  0  0  0  0
    1.2611    2.8010    0.0000 C   0  0  0  0  0  0  0  0  0  0  0  0
   -1.5982   -3.1963    0.0000 C   0  0  0  0  0  0  0  0  0  0  0  0
   -0.7159   -0.4827    0.0000 C   0  0  0  0  0  0  0  0  0  0  0  0
    0.4537    2.9716    0.0000 C   0  0  0  0  0  0  0  0  0  0  0  0
  2  1  1  0  0  0  0
  3  1  1  0  0  0  0
  4  2  1  0  0  0  0
  5  3  1  0  0  0  0
  5  4  1  0  0  0  0
  6  1  1  0  0  0  0
  7  6  1  0  0  0  0
  8 13  1  0  0  0  0
  9  8  3  0  0  0  0
 10  7  1  0  0  0  0
 11  2  2  0  0  0  0
 12  3  2  0  0  0  0
 13 10  1  0  0  0  0
 14  5  1  0  0  0  0
 15  7  2  0  0  0  0
 16  5  1  0  0  0  0
 17 13  1  0  0  0  0
 18 13  1  0  0  0  0
 19 14  1  0  0  0  0
 20 14  1  0  0  0  0
 21 16  1  0  0  0  0
 22 18  1  0  0  0  0
 23 17  1  0  0  0  0
 24 20  1  0  0  0  0
 24 21  1  0  0  0  0
M  END
> <CdId>
2929

> <Mol Weight>
333.4253

> <Formula>
C18H27N3O3

> <Click_ID>
CLK039A02 __ __ 

$$$$
