CLK034_B02
 OpenBabel03181410512D

 26 28  0  0  0  0  0  0  0  0999 V2000
   -4.5897    2.5536    0.0000 C   0  0  0  0  0  0  0  0  0  0  0  0
   -3.8762    2.9749    0.0000 N   0  0  0  0  0  0  0  0  0  0  0  0
   -4.6899    1.7357    0.0000 N   0  0  0  0  0  0  0  0  0  0  0  0
   -1.8526    4.4979    0.0000 C   0  0  0  0  0  0  0  0  0  0  0  0
   -5.3282    2.8998    0.0000 S   0  0  0  0  0  0  0  0  0  0  0  0
   -1.0222    4.4228    0.0000 N   0  3  0  0  0  0  0  0  0  0  0  0
   -2.3991    3.8887    0.0000 S   0  0  0  0  0  0  0  0  0  0  0  0
   -5.4951    1.5772    0.0000 C   0  0  0  0  0  0  0  0  0  0  0  0
   -3.8762    3.8053    0.0000 C   0  0  0  0  0  0  0  0  0  0  0  0
   -3.1627    4.2184    0.0000 C   0  0  0  0  0  0  0  0  0  0  0  0
   -5.9040    2.2990    0.0000 C   0  0  0  0  0  0  0  0  0  0  0  0
   -2.2865    5.2114    0.0000 C   0  0  0  0  0  0  0  0  0  0  0  0
   -3.0751    5.0237    0.0000 C   0  0  0  0  0  0  0  0  0  0  0  0
   -4.2559    0.3505    0.0000 C   0  0  0  0  0  0  0  0  0  0  0  0
   -4.4394   -0.4631    0.0000 C   0  0  0  0  0  0  0  0  0  0  0  0
   -0.6718    3.6760    0.0000 O   0  5  0  0  0  0  0  0  0  0  0  0
   -0.5466    5.0988    0.0000 O   0  0  0  0  0  0  0  0  0  0  0  0
   -5.9208    0.8720    0.0000 C   0  0  0  0  0  0  0  0  0  0  0  0
   -4.6022    4.2100    0.0000 O   0  0  0  0  0  0  0  0  0  0  0  0
   -4.0682    1.1599    0.0000 C   0  0  0  0  0  0  0  0  0  0  0  0
   -6.7136    2.3157    0.0000 C   0  0  0  0  0  0  0  0  0  0  0  0
   -5.5284    0.1377    0.0000 O   0  0  0  0  0  0  0  0  0  0  0  0
   -7.1516    1.6106    0.0000 C   0  0  0  0  0  0  0  0  0  0  0  0
   -6.7386    0.8845    0.0000 C   0  0  0  0  0  0  0  0  0  0  0  0
   -5.9541   -0.5675    0.0000 C   0  0  0  0  0  0  0  0  0  0  0  0
   -5.5703   -1.2810    0.0000 C   0  0  0  0  0  0  0  0  0  0  0  0
  2  1  2  0  0  0  0
  3  1  1  0  0  0  0
  4  7  1  0  0  0  0
  4 12  2  0  0  0  0
  5  1  1  0  0  0  0
  6  4  1  0  0  0  0
  7 10  1  0  0  0  0
  8  3  1  0  0  0  0
  9  2  1  0  0  0  0
 10  9  1  0  0  0  0
 11  5  1  0  0  0  0
 11  8  2  0  0  0  0
 12 13  1  0  0  0  0
 13 10  2  0  0  0  0
 14 20  1  0  0  0  0
 15 14  3  0  0  0  0
 16  6  1  0  0  0  0
 17  6  2  0  0  0  0
 18  8  1  0  0  0  0
 19  9  2  0  0  0  0
 20  3  1  0  0  0  0
 21 11  1  0  0  0  0
 22 18  1  0  0  0  0
 23 21  2  0  0  0  0
 24 18  2  0  0  0  0
 24 23  1  0  0  0  0
 25 22  1  0  0  0  0
 26 25  1  0  0  0  0
M  END
> <CdId>
2576

> <Mol Weight>
387.433

> <Formula>
C17H13N3O4S2

> <Click_ID>
CLK034_B02 __ __ 

$$$$
