CLK024_B06
 OpenBabel03181410512D

 29 31  0  0  0  0  0  0  0  0999 V2000
   -2.7533    0.9109    0.0000 N    0  0  0  0  0  0  0  0  0  0  0  0
   -2.3270    0.2028    0.0000 C    0  0  0  0  0  0  0  0  0  0  0  0
   -2.2033    1.5227    0.0000 C    0  0  0  0  0  0  0  0  0  0  0  0
   -1.4437    1.2100    0.0000 C    0  0  0  0  0  0  0  0  0  0  0  0
   -1.5193    0.3781    0.0000 S    0  0  0  0  0  0  0  0  0  0  0  0
    1.4265    0.4125    0.0000 C    0  0  0  0  0  0  0  0  0  0  0  0
   -0.7356    1.6190    0.0000 C    0  0  0  0  0  0  0  0  0  0  0  0
    1.4162    1.2237    0.0000 C    0  0  0  0  0  0  0  0  0  0  0  0
    0.7150   -0.0103    0.0000 C    0  0  0  0  0  0  0  0  0  0  0  0
    2.1380    0.0000    0.0000 O    0  0  0  0  0  0  0  0  0  0  0  0
   -0.0138    1.2203    0.0000 C    0  0  0  0  0  0  0  0  0  0  0  0
    3.5954    0.8490    0.0000 N    0  0  0  0  0  0  0  0  0  0  0  0
   -3.9117    1.7324    0.0000 C    0  0  0  0  0  0  0  0  0  0  0  0
    3.5645    0.0172    0.0000 C    0  0  0  0  0  0  0  0  0  0  0  0
   -4.3069    2.4646    0.0000 C    0  0  0  0  0  0  0  0  0  0  0  0
   -2.6536   -0.5568    0.0000 O    0  0  0  0  0  0  0  0  0  0  0  0
   -0.0035    0.3884    0.0000 C    0  0  0  0  0  0  0  0  0  0  0  0
    0.6944    1.6361    0.0000 C    0  0  0  0  0  0  0  0  0  0  0  0
   -2.3924    2.3270    0.0000 O    0  0  0  0  0  0  0  0  0  0  0  0
   -3.5645    0.9865    0.0000 C    0  0  0  0  0  0  0  0  0  0  0  0
    3.5817   -0.8043    0.0000 C    0  0  0  0  0  0  0  0  0  0  0  0
    2.1517   -0.8284    0.0000 C    0  0  0  0  0  0  0  0  0  0  0  0
    2.8736   -1.2306    0.0000 C    0  0  0  0  0  0  0  0  0  0  0  0
    2.1277    1.6431    0.0000 Br   0  0  0  0  0  0  0  0  0  0  0  0
    0.7184   -0.8318    0.0000 Br   0  0  0  0  0  0  0  0  0  0  0  0
    4.3036   -1.2168    0.0000 C    0  0  0  0  0  0  0  0  0  0  0  0
    2.8805   -2.0486    0.0000 C    0  0  0  0  0  0  0  0  0  0  0  0
    3.5954   -2.4611    0.0000 C    0  0  0  0  0  0  0  0  0  0  0  0
    4.3036   -2.0486    0.0000 C    0  0  0  0  0  0  0  0  0  0  0  0
  2  1  1  0  0  0  0
  3  1  1  0  0  0  0
  4  3  1  0  0  0  0
  4  5  1  0  0  0  0
  5  2  1  0  0  0  0
  6  8  2  0  0  0  0
  6  9  1  0  0  0  0
  7  4  2  0  0  0  0
  8 18  1  0  0  0  0
  9 17  2  0  0  0  0
 10  6  1  0  0  0  0
 11  7  1  0  0  0  0
 12 14  3  0  0  0  0
 13 20  1  0  0  0  0
 14 21  1  0  0  0  0
 15 13  3  0  0  0  0
 16  2  2  0  0  0  0
 17 11  1  0  0  0  0
 18 11  2  0  0  0  0
 19  3  2  0  0  0  0
 20  1  1  0  0  0  0
 21 23  1  0  0  0  0
 22 10  1  0  0  0  0
 23 22  1  0  0  0  0
 24  8  1  0  0  0  0
 25  9  1  0  0  0  0
 26 21  2  0  0  0  0
 27 23  2  0  0  0  0
 28 27  1  0  0  0  0
 29 28  2  0  0  0  0
 29 26  1  0  0  0  0
M  END
> <CdId>
1791

> <Mol Weight>
532.205

> <Formula>
C21H12Br2N2O3S

> <Click_ID>
CLK024_B06 __ __ 

$$$$
