CLK048F09
 OpenBabel03181410512D

 19 20  0  0  0  0  0  0  0  0999 V2000
   -0.6252    0.4334    0.0000 N   0  0  0  0  0  0  0  0  0  0  0  0
    0.6460    0.0208    0.0000 C   0  0  0  0  0  0  0  0  0  0  0  0
   -0.1417   -0.2334    0.0000 C   0  0  0  0  0  0  0  0  0  0  0  0
   -0.1417    1.1003    0.0000 N   0  0  0  0  0  0  0  0  0  0  0  0
    0.6460    0.8460    0.0000 C   0  0  0  0  0  0  0  0  0  0  0  0
   -1.4504    0.4334    0.0000 C   0  0  0  0  0  0  0  0  0  0  0  0
    1.3128   -0.4626    0.0000 C   0  0  0  0  0  0  0  0  0  0  0  0
    3.4884   -0.2793    0.0000 C   0  0  0  0  0  0  0  0  0  0  0  0
    4.2428    0.0583    0.0000 C   0  0  0  0  0  0  0  0  0  0  0  0
   -1.8630   -0.2793    0.0000 C   0  0  0  0  0  0  0  0  0  0  0  0
    1.2253   -1.2836    0.0000 O   0  0  0  0  0  0  0  0  0  0  0  0
    2.0672   -0.1292    0.0000 N   0  0  0  0  0  0  0  0  0  0  0  0
   -0.3959   -1.0211    0.0000 C   0  0  0  0  0  0  0  0  0  0  0  0
   -1.4504   -0.9961    0.0000 F   0  0  0  0  0  0  0  0  0  0  0  0
    2.7340   -0.6127    0.0000 C   0  0  0  0  0  0  0  0  0  0  0  0
   -1.8630    1.1461    0.0000 C   0  0  0  0  0  0  0  0  0  0  0  0
   -2.6882   -0.2793    0.0000 C   0  0  0  0  0  0  0  0  0  0  0  0
   -2.6882    1.1461    0.0000 C   0  0  0  0  0  0  0  0  0  0  0  0
   -3.1008    0.4334    0.0000 C   0  0  0  0  0  0  0  0  0  0  0  0
  2  3  2  0  0  0  0
  3  1  1  0  0  0  0
  4  1  1  0  0  0  0
  5  4  2  0  0  0  0
  5  2  1  0  0  0  0
  6  1  1  0  0  0  0
  7  2  1  0  0  0  0
  8 15  1  0  0  0  0
  9  8  3  0  0  0  0
 10  6  2  0  0  0  0
 11  7  2  0  0  0  0
 12  7  1  0  0  0  0
 13  3  1  0  0  0  0
 14 10  1  0  0  0  0
 15 12  1  0  0  0  0
 16  6  1  0  0  0  0
 17 10  1  0  0  0  0
 18 16  2  0  0  0  0
 19 17  2  0  0  0  0
 19 18  1  0  0  0  0
M  END
> <CdId>
3710

> <Mol Weight>
257.263

> <Formula>
C14H12FN3O

> <Click_ID>
CLK048F09 __ __ 

$$$$
