CLK018_F02
 OpenBabel03181410512D

 23 24  0  0  0  0  0  0  0  0999 V2000
   -0.0249    0.3201    0.0000 N    0  0  0  0  0  0  0  0  0  0  0  0
    0.7981    0.3201    0.0000 C    0  0  0  0  0  0  0  0  0  0  0  0
    0.3783   -0.9478    0.0000 C    0  0  0  0  0  0  0  0  0  0  0  0
   -0.2826   -0.4656    0.0000 C    0  0  0  0  0  0  0  0  0  0  0  0
    1.0517   -0.4656    0.0000 N    0  0  0  0  0  0  0  0  0  0  0  0
    0.3783   -1.7709    0.0000 C    0  0  0  0  0  0  0  0  0  0  0  0
    2.5440   -3.0221    0.0000 C    0  0  0  0  0  0  0  0  0  0  0  0
    1.8125   -3.4337    0.0000 C    0  0  0  0  0  0  0  0  0  0  0  0
    2.5316   -2.1866    0.0000 C    0  0  0  0  0  0  0  0  0  0  0  0
    1.1016   -2.1866    0.0000 C    0  0  0  0  0  0  0  0  0  0  0  0
    1.2762    0.9810    0.0000 S    0  0  0  0  0  0  0  0  0  0  0  0
    4.6890   -3.4295    0.0000 C    0  0  0  0  0  0  0  0  0  0  0  0
    5.3999   -3.8452    0.0000 C    0  0  0  0  0  0  0  0  0  0  0  0
   -1.0683   -0.7150    0.0000 O    0  0  0  0  0  0  0  0  0  0  0  0
    1.0974   -3.0221    0.0000 C    0  0  0  0  0  0  0  0  0  0  0  0
    1.8207   -1.7750    0.0000 C    0  0  0  0  0  0  0  0  0  0  0  0
   -0.5113    0.9810    0.0000 C    0  0  0  0  0  0  0  0  0  0  0  0
    1.8125   -4.2567    0.0000 Br   0  0  0  0  0  0  0  0  0  0  0  0
    1.8332   -0.7150    0.0000 C    0  0  0  0  0  0  0  0  0  0  0  0
    3.2591   -3.4337    0.0000 O    0  0  0  0  0  0  0  0  0  0  0  0
    3.2466   -1.7833    0.0000 O    0  0  0  0  0  0  0  0  0  0  0  0
    3.9699   -3.0221    0.0000 C    0  0  0  0  0  0  0  0  0  0  0  0
    3.2466   -0.9520    0.0000 C    0  0  0  0  0  0  0  0  0  0  0  0
  2  1  1  0  0  0  0
  3  4  1  0  0  0  0
  4  1  1  0  0  0  0
  5  2  1  0  0  0  0
  5  3  1  0  0  0  0
  6  3  2  0  0  0  0
  7  9  1  0  0  0  0
  7  8  2  0  0  0  0
  8 15  1  0  0  0  0
  9 16  2  0  0  0  0
 10  6  1  0  0  0  0
 11  2  2  0  0  0  0
 12 22  1  0  0  0  0
 13 12  3  0  0  0  0
 14  4  2  0  0  0  0
 15 10  2  0  0  0  0
 16 10  1  0  0  0  0
 17  1  1  0  0  0  0
 18  8  1  0  0  0  0
 19  5  1  0  0  0  0
 20  7  1  0  0  0  0
 21  9  1  0  0  0  0
 22 20  1  0  0  0  0
 23 21  1  0  0  0  0
M  END
> <CdId>
1367

> <Mol Weight>
395.271

> <Formula>
C16H15BrN2O3S

> <Click_ID>
CLK018_F02 __ __ 

$$$$
