CLK007_F08
 OpenBabel03181410512D

 26 28  0  0  0  0  0  0  0  0999 V2000
   -0.0758   -2.0984    0.0000 C    0  0  0  0  0  0  0  0  0  0  0  0
   -0.0689   -2.9323    0.0000 C    0  0  0  0  0  0  0  0  0  0  0  0
   -0.7133   -1.5954    0.0000 N    0  0  0  0  0  0  0  0  0  0  0  0
    0.6098   -1.6505    0.0000 O    0  0  0  0  0  0  0  0  0  0  0  0
   -0.7891   -3.3458    0.0000 C    0  0  0  0  0  0  0  0  0  0  0  0
    0.6443   -3.3458    0.0000 C    0  0  0  0  0  0  0  0  0  0  0  0
   -0.4169   -0.8201    0.0000 C    0  0  0  0  0  0  0  0  0  0  0  0
    0.3928   -0.8580    0.0000 C    0  0  0  0  0  0  0  0  0  0  0  0
   -0.7891   -4.1728    0.0000 C    0  0  0  0  0  0  0  0  0  0  0  0
    0.6340   -4.1728    0.0000 C    0  0  0  0  0  0  0  0  0  0  0  0
   -0.8752   -0.1206    0.0000 C    0  0  0  0  0  0  0  0  0  0  0  0
    0.9062   -0.1999    0.0000 O    0  0  0  0  0  0  0  0  0  0  0  0
   -0.0758   -4.5863    0.0000 C    0  0  0  0  0  0  0  0  0  0  0  0
   -0.4927    0.6167    0.0000 C    0  0  0  0  0  0  0  0  0  0  0  0
   -0.9510    1.3162    0.0000 C    0  0  0  0  0  0  0  0  0  0  0  0
    0.3239    0.6650    0.0000 C    0  0  0  0  0  0  0  0  0  0  0  0
   -0.5755    2.0502    0.0000 C    0  0  0  0  0  0  0  0  0  0  0  0
    0.7064    1.3990    0.0000 C    0  0  0  0  0  0  0  0  0  0  0  0
    0.2481    2.0984    0.0000 C    0  0  0  0  0  0  0  0  0  0  0  0
   -1.0268    2.7359    0.0000 O    0  0  0  0  0  0  0  0  0  0  0  0
    1.5299    1.4368    0.0000 Cl   0  0  0  0  0  0  0  0  0  0  0  0
    0.6236    2.8358    0.0000 O    0  0  0  0  0  0  0  0  0  0  0  0
   -1.8503    2.6911    0.0000 C    0  0  0  0  0  0  0  0  0  0  0  0
    0.1723    3.5215    0.0000 C    0  0  0  0  0  0  0  0  0  0  0  0
    0.5479    4.2485    0.0000 C    0  0  0  0  0  0  0  0  0  0  0  0
    1.3714    4.2899    0.0000 C    0  0  0  0  0  0  0  0  0  0  0  0
  1  2  1  0  0  0  0
  1  3  2  0  0  0  0
  1  4  1  0  0  0  0
  2  5  2  0  0  0  0
  2  6  1  0  0  0  0
  3  7  1  0  0  0  0
  4  8  1  0  0  0  0
  5  9  1  0  0  0  0
  6 10  2  0  0  0  0
  7 11  2  0  0  0  0
  7  8  1  0  0  0  0
  8 12  2  0  0  0  0
  9 13  2  0  0  0  0
 10 13  1  0  0  0  0
 11 14  1  0  0  0  0
 14 15  1  0  0  0  0
 14 16  2  0  0  0  0
 15 17  2  0  0  0  0
 16 18  1  0  0  0  0
 17 19  1  0  0  0  0
 17 20  1  0  0  0  0
 18 21  1  0  0  0  0
 18 19  2  0  0  0  0
 19 22  1  0  0  0  0
 20 23  1  0  0  0  0
 22 24  1  0  0  0  0
 24 25  1  0  0  0  0
 25 26  3  0  0  0  0
M  END
> <CdId>
537

> <Mol Weight>
367.782

> <Formula>
C20H14ClNO4

> <Click_ID>
CLK007_F08 __ __ 

$$$$
