CLK029_G06
 OpenBabel03181410512D

 26 29  0  0  0  0  0  0  0  0999 V2000
   -4.7353    5.0318    0.0000 C   0  0  0  0  0  0  0  0  0  0  0  0
   -5.2048    5.6742    0.0000 N   0  0  0  0  0  0  0  0  0  0  0  0
   -5.2048    4.3647    0.0000 N   0  0  0  0  0  0  0  0  0  0  0  0
   -3.9200    4.9824    0.0000 C   0  0  3  0  0  0  0  0  0  0  0  0
   -2.6436    5.4024    0.0000 N   0  0  0  0  0  0  0  0  0  0  0  0
   -2.6436    4.5707    0.0000 C   0  0  0  0  0  0  0  0  0  0  0  0
   -3.4259    5.6495    0.0000 C   0  0  0  0  0  0  0  0  0  0  0  0
   -5.9954    4.6118    0.0000 C   0  0  0  0  0  0  0  0  0  0  0  0
   -5.9954    5.4271    0.0000 C   0  0  0  0  0  0  0  0  0  0  0  0
   -1.9682    5.8471    0.0000 C   0  0  0  0  0  0  0  0  0  0  0  0
   -3.4259    4.3153    0.0000 C   0  0  0  0  0  0  0  0  0  0  0  0
   -5.4848    2.9401    0.0000 C   0  0  0  0  0  0  0  0  0  0  0  0
   -6.0284    2.3224    0.0000 C   0  0  0  0  0  0  0  0  0  0  0  0
   -2.0176    6.6624    0.0000 C   0  0  0  0  0  0  0  0  0  0  0  0
   -1.9682    4.0930    0.0000 O   0  0  0  0  0  0  0  0  0  0  0  0
   -4.9330    3.5741    0.0000 C   0  0  0  0  0  0  0  0  0  0  0  0
   -1.3341    7.1319    0.0000 C   0  0  0  0  0  0  0  0  0  0  0  0
   -1.4000    7.9391    0.0000 S   0  0  0  0  0  0  0  0  0  0  0  0
   -1.2270    5.4848    0.0000 C   0  0  0  0  0  0  0  0  0  0  0  0
   -6.6954    4.1918    0.0000 C   0  0  0  0  0  0  0  0  0  0  0  0
   -6.6954    5.8471    0.0000 C   0  0  0  0  0  0  0  0  0  0  0  0
   -0.5352    5.9459    0.0000 C   0  0  0  0  0  0  0  0  0  0  0  0
   -0.5847    6.7613    0.0000 C   0  0  0  0  0  0  0  0  0  0  0  0
   -2.1412    8.3097    0.0000 C   0  0  0  0  0  0  0  0  0  0  0  0
   -7.4119    4.6118    0.0000 C   0  0  0  0  0  0  0  0  0  0  0  0
   -7.4119    5.4271    0.0000 C   0  0  0  0  0  0  0  0  0  0  0  0
  2  1  2  0  0  0  0
  3  1  1  0  0  0  0
  4  1  1  0  0  0  0
  5  7  1  0  0  0  0
  6 11  1  0  0  0  0
  6  5  1  0  0  0  0
  7  4  1  0  0  0  0
  8  3  1  0  0  0  0
  8  9  2  0  0  0  0
  9  2  1  0  0  0  0
 10  5  1  0  0  0  0
 11  4  1  0  0  0  0
 12 16  1  0  0  0  0
 13 12  3  0  0  0  0
 14 10  2  0  0  0  0
 15  6  2  0  0  0  0
 16  3  1  0  0  0  0
 17 14  1  0  0  0  0
 18 17  1  0  0  0  0
 19 10  1  0  0  0  0
 20  8  1  0  0  0  0
 21  9  1  0  0  0  0
 22 19  2  0  0  0  0
 23 22  1  0  0  0  0
 23 17  2  0  0  0  0
 24 18  1  0  0  0  0
 25 20  2  0  0  0  0
 26 21  2  0  0  0  0
 26 25  1  0  0  0  0
M  END
> <CdId>
2230

> <Mol Weight>
361.46

> <Formula>
C21H19N3OS

> <Click_ID>
CLK029_G06 __ __ 

$$$$
