CLK048A11
 OpenBabel03181410512D

 13 13  0  0  0  0  0  0  0  0999 V2000
    0.4795   -0.0458    0.0000 C   0  0  0  0  0  0  0  0  0  0  0  0
    1.2383   -0.3711    0.0000 C   0  0  0  0  0  0  0  0  0  0  0  0
    1.7804    0.2502    0.0000 S   0  0  0  0  0  0  0  0  0  0  0  0
    0.5546    0.7755    0.0000 C   0  0  0  0  0  0  0  0  0  0  0  0
   -0.2294   -0.4670    0.0000 C   0  0  0  0  0  0  0  0  0  0  0  0
    1.3592    0.9590    0.0000 C   0  0  0  0  0  0  0  0  0  0  0  0
   -2.3808   -0.0876    0.0000 C   0  0  0  0  0  0  0  0  0  0  0  0
   -3.1021    0.3127    0.0000 C   0  0  0  0  0  0  0  0  0  0  0  0
   -0.2168   -1.2926    0.0000 O   0  0  0  0  0  0  0  0  0  0  0  0
   -0.9506   -0.0667    0.0000 N   0  0  0  0  0  0  0  0  0  0  0  0
    1.4218   -1.1758    0.0000 C   0  0  0  0  0  0  0  0  0  0  0  0
   -1.6594   -0.4878    0.0000 C   0  0  0  0  0  0  0  0  0  0  0  0
    1.6844    1.7179    0.0000 C   0  0  0  0  0  0  0  0  0  0  0  0
  2  1  2  0  0  0  0
  3  2  1  0  0  0  0
  3  6  1  0  0  0  0
  4  1  1  0  0  0  0
  5  1  1  0  0  0  0
  6  4  2  0  0  0  0
  7 12  1  0  0  0  0
  8  7  3  0  0  0  0
  9  5  2  0  0  0  0
 10  5  1  0  0  0  0
 11  2  1  0  0  0  0
 12 10  1  0  0  0  0
 13  6  1  0  0  0  0
M  END
> <CdId>
3721

> <Mol Weight>
193.265

> <Formula>
C10H11NOS

> <Click_ID>
CLK048A11 __ __ 

$$$$
