CLK027_F02
 OpenBabel03181410512D

 23 24  0  0  0  0  0  0  0  0999 V2000
   -2.1356    0.5993    0.0000 C    0  0  0  0  0  0  0  0  0  0  0  0
    4.2952   -0.6165    0.0000 C    0  0  0  0  0  0  0  0  0  0  0  0
    5.0049   -1.0265    0.0000 C    0  0  0  0  0  0  0  0  0  0  0  0
   -3.5719    0.6062    0.0000 N    0  0  0  0  0  0  0  0  0  0  0  0
   -0.7027    0.5925    0.0000 N    0  0  0  0  0  0  0  0  0  0  0  0
    2.1528    0.6062    0.0000 C    0  0  0  0  0  0  0  0  0  0  0  0
   -1.4260    1.0195    0.0000 N    0  0  0  0  0  0  0  0  0  0  0  0
    2.1528   -0.2170    0.0000 C    0  0  0  0  0  0  0  0  0  0  0  0
   -2.8520    1.0195    0.0000 C    0  0  0  0  0  0  0  0  0  0  0  0
    1.4432    1.0058    0.0000 C    0  0  0  0  0  0  0  0  0  0  0  0
   -2.1356   -0.2239    0.0000 O    0  0  0  0  0  0  0  0  0  0  0  0
   -5.0049   -0.2032    0.0000 O    0  0  0  0  0  0  0  0  0  0  0  0
    1.4432   -0.6475    0.0000 C    0  0  0  0  0  0  0  0  0  0  0  0
    0.0103    1.0092    0.0000 C    0  0  0  0  0  0  0  0  0  0  0  0
    0.7199    0.5925    0.0000 C    0  0  0  0  0  0  0  0  0  0  0  0
    2.8796    1.0195    0.0000 Br   0  0  0  0  0  0  0  0  0  0  0  0
    0.7268   -0.2308    0.0000 C    0  0  0  0  0  0  0  0  0  0  0  0
    2.8658   -0.6269    0.0000 O    0  0  0  0  0  0  0  0  0  0  0  0
    3.5754   -0.2135    0.0000 C    0  0  0  0  0  0  0  0  0  0  0  0
   -3.5719   -0.2239    0.0000 C    0  0  0  0  0  0  0  0  0  0  0  0
   -4.2815    1.0299    0.0000 C    0  0  0  0  0  0  0  0  0  0  0  0
   -4.9945    0.6200    0.0000 C    0  0  0  0  0  0  0  0  0  0  0  0
   -4.2952   -0.6269    0.0000 C    0  0  0  0  0  0  0  0  0  0  0  0
  2 19  1  0  0  0  0
  3  2  3  0  0  0  0
  4  9  1  0  0  0  0
  5  7  1  0  0  0  0
  6 10  1  0  0  0  0
  6  8  2  0  0  0  0
  7  1  1  0  0  0  0
  8 13  1  0  0  0  0
  9  1  1  0  0  0  0
 10 15  2  0  0  0  0
 11  1  2  0  0  0  0
 12 22  1  0  0  0  0
 13 17  2  0  0  0  0
 14  5  2  0  0  0  0
 15 14  1  0  0  0  0
 16  6  1  0  0  0  0
 17 15  1  0  0  0  0
 18  8  1  0  0  0  0
 19 18  1  0  0  0  0
 20  4  1  0  0  0  0
 21  4  1  0  0  0  0
 22 21  1  0  0  0  0
 23 20  1  0  0  0  0
 23 12  1  0  0  0  0
M  END
> <CdId>
2062

> <Mol Weight>
380.236

> <Formula>
C16H18BrN3O3

> <Click_ID>
CLK027_F02 __ __ 

$$$$
