CLK001_G10
 OpenBabel03181410512D

 36 39  0  0  0  0  0  0  0  0999 V2000
    0.0910    0.1251    0.0000 C   0  0  3  0  0  0  0  0  0  0  0  0
    0.8149   -0.2729    0.0000 C   0  0  0  0  0  0  0  0  0  0  0  0
    0.0872    0.9513    0.0000 C   0  0  0  0  0  0  0  0  0  0  0  0
   -0.6140   -0.2957    0.0000 C   0  0  0  0  0  0  0  0  0  0  0  0
    1.5199    0.1440    0.0000 C   0  0  0  0  0  0  0  0  0  0  0  0
    0.8186   -1.0915    0.0000 C   0  0  0  0  0  0  0  0  0  0  0  0
    0.7921    1.3606    0.0000 C   0  0  0  0  0  0  0  0  0  0  0  0
   -0.6367    1.3493    0.0000 C   0  0  0  0  0  0  0  0  0  0  0  0
   -1.3379    0.1136    0.0000 C   0  0  0  0  0  0  0  0  0  0  0  0
   -0.5988   -1.1143    0.0000 C   0  0  0  0  0  0  0  0  0  0  0  0
    1.5084    0.9627    0.0000 N   0  0  0  0  0  0  0  0  0  0  0  0
    2.2362   -0.2539    0.0000 C   0  0  0  0  0  0  0  0  0  0  0  0
    1.5425   -1.4971    0.0000 C   0  0  0  0  0  0  0  0  0  0  0  0
    0.1062   -1.5236    0.0000 O   0  0  0  0  0  0  0  0  0  0  0  0
    0.7770    2.1907    0.0000 C   0  0  0  0  0  0  0  0  0  0  0  0
   -0.6406    2.1718    0.0000 C   0  0  0  0  0  0  0  0  0  0  0  0
   -1.3493    0.9285    0.0000 O   0  0  0  0  0  0  0  0  0  0  0  0
   -2.0428   -0.3146    0.0000 C   0  0  0  0  0  0  0  0  0  0  0  0
   -1.3114   -1.5464    0.0000 C   0  0  0  0  0  0  0  0  0  0  0  0
    2.2172    1.3909    0.0000 C   0  0  0  0  0  0  0  0  0  0  0  0
    2.2475   -1.0840    0.0000 C   0  0  0  0  0  0  0  0  0  0  0  0
    0.0607    2.5848    0.0000 C   0  0  0  0  0  0  0  0  0  0  0  0
   -2.0277   -1.1370    0.0000 C   0  0  0  0  0  0  0  0  0  0  0  0
   -2.7667    0.0834    0.0000 O   0  0  0  0  0  0  0  0  0  0  0  0
    2.9373    0.9930    0.0000 C   0  0  0  0  0  0  0  0  0  0  0  0
    1.8382   -1.8117    0.0000 C   0  0  0  0  0  0  0  0  0  0  0  0
    2.9714   -1.4895    0.0000 C   0  0  0  0  0  0  0  0  0  0  0  0
    0.0492    3.4225    0.0000 C   0  0  0  0  0  0  0  0  0  0  0  0
   -0.7731    2.5696    0.0000 C   0  0  0  0  0  0  0  0  0  0  0  0
   -2.7402   -1.5653    0.0000 O   0  0  0  0  0  0  0  0  0  0  0  0
   -2.7782    0.9096    0.0000 C   0  0  0  0  0  0  0  0  0  0  0  0
    3.6347    1.4175    0.0000 O   0  0  0  0  0  0  0  0  0  0  0  0
    2.9487    0.1667    0.0000 O   0  0  0  0  0  0  0  0  0  0  0  0
   -2.7251   -2.3877    0.0000 C   0  0  0  0  0  0  0  0  0  0  0  0
   -3.4376   -2.8161    0.0000 C   0  0  0  0  0  0  0  0  0  0  0  0
   -3.4262   -3.6384    0.0000 C   0  0  0  0  0  0  0  0  0  0  0  0
  1  2  1  0  0  0  0
  1  3  1  0  0  0  0
  1  4  1  0  0  0  0
  2  5  2  0  0  0  0
  2  6  1  0  0  0  0
  3  7  2  0  0  0  0
  3  8  1  0  0  0  0
  4  9  1  0  0  0  0
  4 10  2  0  0  0  0
  5 11  1  0  0  0  0
  5 12  1  0  0  0  0
  6 13  1  0  0  0  0
  6 14  2  0  0  0  0
  7 15  1  0  0  0  0
  7 11  1  0  0  0  0
  8 16  1  0  0  0  0
  8 17  2  0  0  0  0
  9 18  2  0  0  0  0
 10 19  1  0  0  0  0
 11 20  1  0  0  0  0
 12 21  1  0  0  0  0
 13 21  1  0  0  0  0
 15 22  1  0  0  0  0
 16 22  1  0  0  0  0
 18 23  1  0  0  0  0
 18 24  1  0  0  0  0
 19 23  2  0  0  0  0
 20 25  1  0  0  0  0
 21 26  1  0  0  0  0
 21 27  1  0  0  0  0
 22 28  1  0  0  0  0
 22 29  1  0  0  0  0
 23 30  1  0  0  0  0
 24 31  1  0  0  0  0
 25 32  1  0  0  0  0
 25 33  2  0  0  0  0
 30 34  1  0  0  0  0
 34 35  1  0  0  0  0
 35 36  3  0  0  0  0
M  END
> <CdId>
69

> <Mol Weight>
491.5754

> <Formula>
C29H33NO6

> <Click_ID>
CLK001_G10 __ __ 

$$$$
