CLK012_B03
 OpenBabel03181410512D

 26 28  0  0  0  0  0  0  0  0999 V2000
    1.5650   -0.8158    0.0000 N   0  0  0  0  0  0  0  0  0  0  0  0
    1.8230   -1.6024    0.0000 C   0  0  0  0  0  0  0  0  0  0  0  0
    2.9010   -0.8158    0.0000 C   0  0  0  0  0  0  0  0  0  0  0  0
    2.2350   -0.3288    0.0000 C   0  0  0  0  0  0  0  0  0  0  0  0
    2.6470   -1.6024    0.0000 S   0  0  0  0  0  0  0  0  0  0  0  0
    3.7126    1.5690    0.0000 C   0  0  0  0  0  0  0  0  0  0  0  0
    3.6876   -0.5619    0.0000 C   0  0  0  0  0  0  0  0  0  0  0  0
    3.3005    0.8573    0.0000 O   0  0  0  0  0  0  0  0  0  0  0  0
    3.3879    2.3307    0.0000 C   0  0  0  0  0  0  0  0  0  0  0  0
    3.8499    0.2455    0.0000 C   0  0  0  0  0  0  0  0  0  0  0  0
    2.5721    2.4056    0.0000 C   0  0  0  0  0  0  0  0  0  0  0  0
    4.5242    1.3984    0.0000 C   0  0  0  0  0  0  0  0  0  0  0  0
    2.2392    3.1673    0.0000 C   0  0  0  0  0  0  0  0  0  0  0  0
    1.4151    3.2547    0.0000 C   0  0  0  0  0  0  0  0  0  0  0  0
    0.6118    0.2455    0.0000 C   0  0  0  0  0  0  0  0  0  0  0  0
    4.6116    0.5826    0.0000 C   0  0  0  0  0  0  0  0  0  0  0  0
    0.3913    1.0446    0.0000 C   0  0  0  0  0  0  0  0  0  0  0  0
    1.3360   -2.2642    0.0000 O   0  0  0  0  0  0  0  0  0  0  0  0
    2.2267    0.4952    0.0000 O   0  0  0  0  0  0  0  0  0  0  0  0
    3.8707    2.9925    0.0000 C   0  0  0  0  0  0  0  0  0  0  0  0
    0.7866   -0.5619    0.0000 C   0  0  0  0  0  0  0  0  0  0  0  0
    0.9282    2.5846    0.0000 O   0  0  0  0  0  0  0  0  0  0  0  0
    2.7220    3.8290    0.0000 C   0  0  0  0  0  0  0  0  0  0  0  0
    3.5378    3.7416    0.0000 C   0  0  0  0  0  0  0  0  0  0  0  0
    1.0863    3.9997    0.0000 O   0  0  0  0  0  0  0  0  0  0  0  0
    4.6865    2.8968    0.0000 C   0  0  0  0  0  0  0  0  0  0  0  0
  2  1  1  0  0  0  0
  3  4  1  0  0  0  0
  3  5  1  0  0  0  0
  4  1  1  0  0  0  0
  5  2  1  0  0  0  0
  6  8  1  0  0  0  0
  6 12  2  0  0  0  0
  7  3  2  0  0  0  0
  8 10  1  0  0  0  0
  9  6  1  0  0  0  0
 10  7  1  0  0  0  0
 11  9  1  0  0  0  0
 12 16  1  0  0  0  0
 13 11  2  0  0  0  0
 14 13  1  0  0  0  0
 15 21  1  0  0  0  0
 16 10  2  0  0  0  0
 17 15  3  0  0  0  0
 18  2  2  0  0  0  0
 19  4  2  0  0  0  0
 20  9  2  0  0  0  0
 21  1  1  0  0  0  0
 22 14  2  0  0  0  0
 23 24  2  0  0  0  0
 23 13  1  0  0  0  0
 24 20  1  0  0  0  0
 25 14  1  0  0  0  0
 26 20  1  0  0  0  0
M  END
> <CdId>
848

> <Mol Weight>
367.375

> <Formula>
C19H13NO5S

> <Click_ID>
CLK012_B03 __ __ 

$$$$
