CLK022_C09
 OpenBabel03181410512D

 21 22  0  0  0  0  0  0  0  0999 V2000
    4.9931    1.4933    0.0000 C   0  0  0  0  0  0  0  0  0  0  0  0
    4.5808    2.2079    0.0000 N   0  0  0  0  0  0  0  0  0  0  0  0
    9.5281    0.7787    0.0000 C   0  0  0  0  0  0  0  0  0  0  0  0
   10.3526    0.7787    0.0000 C   0  0  0  0  0  0  0  0  0  0  0  0
    5.8176    1.4933    0.0000 C   0  0  0  0  0  0  0  0  0  0  0  0
    4.5808    0.7787    0.0000 O   0  0  0  0  0  0  0  0  0  0  0  0
    6.2299    0.7787    0.0000 C   0  0  0  0  0  0  0  0  0  0  0  0
    6.2299    2.2079    0.0000 C   0  0  0  0  0  0  0  0  0  0  0  0
    3.7563    2.2079    0.0000 C   0  0  0  0  0  0  0  0  0  0  0  0
    7.4667    1.4933    0.0000 C   0  0  0  0  0  0  0  0  0  0  0  0
    7.0545    2.2079    0.0000 C   0  0  0  0  0  0  0  0  0  0  0  0
    7.0545    0.7787    0.0000 C   0  0  0  0  0  0  0  0  0  0  0  0
    2.1072    2.2079    0.0000 C   0  0  0  0  0  0  0  0  0  0  0  0
    3.3440    1.4933    0.0000 C   0  0  0  0  0  0  0  0  0  0  0  0
    3.3440    2.9225    0.0000 C   0  0  0  0  0  0  0  0  0  0  0  0
    2.5195    2.9225    0.0000 C   0  0  0  0  0  0  0  0  0  0  0  0
    2.5195    1.4933    0.0000 C   0  0  0  0  0  0  0  0  0  0  0  0
    8.7035    0.7787    0.0000 C   0  0  0  0  0  0  0  0  0  0  0  0
    8.2913    1.4933    0.0000 O   0  0  0  0  0  0  0  0  0  0  0  0
    1.2827    2.2079    0.0000 C   0  0  0  0  0  0  0  0  0  0  0  0
    0.8704    1.4933    0.0000 C   0  0  0  0  0  0  0  0  0  0  0  0
  2  1  1  0  0  0  0
  3 18  1  0  0  0  0
  4  3  3  0  0  0  0
  5  1  1  0  0  0  0
  6  1  2  0  0  0  0
  7  5  2  0  0  0  0
  8  5  1  0  0  0  0
  9  2  1  0  0  0  0
 10 11  1  0  0  0  0
 10 12  2  0  0  0  0
 11  8  2  0  0  0  0
 12  7  1  0  0  0  0
 13 16  1  0  0  0  0
 14  9  2  0  0  0  0
 15  9  1  0  0  0  0
 16 15  2  0  0  0  0
 17 14  1  0  0  0  0
 17 13  2  0  0  0  0
 18 19  1  0  0  0  0
 19 10  1  0  0  0  0
 20 13  1  0  0  0  0
 21 20  1  0  0  0  0
M  END
> <CdId>
1660

> <Mol Weight>
279.3331

> <Formula>
C18H17NO2

> <Click_ID>
CLK022_C09 __ __ 

$$$$
