CLK023_B02
 OpenBabel03181410512D

 33 36  0  0  0  0  0  0  0  0999 V2000
   -0.4367   -0.5571    0.0000 N   0  0  0  0  0  0  0  0  0  0  0  0
   -0.1857   -1.3445    0.0000 C   0  0  0  0  0  0  0  0  0  0  0  0
    0.9009   -0.5571    0.0000 C   0  0  0  0  0  0  0  0  0  0  0  0
    0.2269   -0.0687    0.0000 C   0  0  0  0  0  0  0  0  0  0  0  0
    0.6396   -1.3445    0.0000 N   0  0  0  0  0  0  0  0  0  0  0  0
    1.6540   -0.2201    0.0000 C   0  0  0  0  0  0  0  0  0  0  0  0
    2.3279   -0.7083    0.0000 C   0  0  0  0  0  0  0  0  0  0  0  0
   -1.2241   -0.3026    0.0000 C   0  0  0  0  0  0  0  0  0  0  0  0
   -1.3961    0.5055    0.0000 C   0  0  0  0  0  0  0  0  0  0  0  0
    2.2385   -1.5267    0.0000 C   0  0  0  0  0  0  0  0  0  0  0  0
    4.0128    1.6093    0.0000 C   0  0  0  0  0  0  0  0  0  0  0  0
    4.0988    2.4345    0.0000 C   0  0  0  0  0  0  0  0  0  0  0  0
   -0.6740   -2.0150    0.0000 O   0  0  0  0  0  0  0  0  0  0  0  0
   -2.1835    0.7565    0.0000 N   0  0  0  0  0  0  0  0  0  0  0  0
    3.0776   -0.3679    0.0000 C   0  0  0  0  0  0  0  0  0  0  0  0
    0.2269    0.7565    0.0000 O   0  0  0  0  0  0  0  0  0  0  0  0
   -0.7840    1.0557    0.0000 O   0  0  0  0  0  0  0  0  0  0  0  0
   -2.3588    1.5611    0.0000 C   0  0  0  0  0  0  0  0  0  0  0  0
    2.9022   -2.0081    0.0000 C   0  0  0  0  0  0  0  0  0  0  0  0
    3.7481   -0.8527    0.0000 C   0  0  0  0  0  0  0  0  0  0  0  0
    3.6621   -1.6677    0.0000 C   0  0  0  0  0  0  0  0  0  0  0  0
   -3.1395    1.8190    0.0000 C   0  0  0  0  0  0  0  0  0  0  0  0
    3.1738    0.4574    0.0000 O   0  0  0  0  0  0  0  0  0  0  0  0
   -3.3148    2.6202    0.0000 C   0  0  0  0  0  0  0  0  0  0  0  0
    3.9235    0.7943    0.0000 C   0  0  0  0  0  0  0  0  0  0  0  0
    1.4855   -1.8637    0.0000 C   0  0  0  0  0  0  0  0  0  0  0  0
   -1.9222    2.9194    0.0000 C   0  0  0  0  0  0  0  0  0  0  0  0
   -1.7468    2.1182    0.0000 C   0  0  0  0  0  0  0  0  0  0  0  0
   -2.7096    3.1738    0.0000 C   0  0  0  0  0  0  0  0  0  0  0  0
    2.8162   -2.8334    0.0000 C   0  0  0  0  0  0  0  0  0  0  0  0
   -4.1022    2.8678    0.0000 C   0  0  0  0  0  0  0  0  0  0  0  0
    1.3995   -2.6821    0.0000 C   0  0  0  0  0  0  0  0  0  0  0  0
    2.0666   -3.1704    0.0000 C   0  0  0  0  0  0  0  0  0  0  0  0
  2  1  1  0  0  0  0
  3  4  1  0  0  0  0
  4  1  1  0  0  0  0
  5  2  1  0  0  0  0
  5  3  1  0  0  0  0
  6  3  2  0  0  0  0
  7  6  1  0  0  0  0
  8  1  1  0  0  0  0
  9  8  1  0  0  0  0
 10  7  1  0  0  0  0
 11 25  1  0  0  0  0
 12 11  3  0  0  0  0
 13  2  2  0  0  0  0
 14  9  1  0  0  0  0
 15  7  2  0  0  0  0
 16  4  2  0  0  0  0
 17  9  2  0  0  0  0
 18 14  1  0  0  0  0
 19 10  1  0  0  0  0
 20 15  1  0  0  0  0
 21 20  2  0  0  0  0
 21 19  1  0  0  0  0
 22 18  1  0  0  0  0
 23 15  1  0  0  0  0
 24 22  2  0  0  0  0
 24 29  1  0  0  0  0
 25 23  1  0  0  0  0
 26 10  2  0  0  0  0
 27 28  1  0  0  0  0
 28 18  2  0  0  0  0
 29 27  2  0  0  0  0
 30 19  2  0  0  0  0
 31 24  1  0  0  0  0
 32 26  1  0  0  0  0
 33 32  2  0  0  0  0
 33 30  1  0  0  0  0
M  END
> <CdId>
1707

> <Mol Weight>
439.4626

> <Formula>
C26H21N3O4

> <Click_ID>
CLK023_B02 __ __ 

$$$$
