CLK050E08
 OpenBabel03181410512D

 16 16  0  0  0  0  0  0  0  0999 V2000
    0.4458   -1.5958    0.0000 C   0  0  0  0  0  0  0  0  0  0  0  0
    1.8750   -3.2458    0.0000 C   0  0  0  0  0  0  0  0  0  0  0  0
    2.5875   -3.6583    0.0000 C   0  0  0  0  0  0  0  0  0  0  0  0
   -0.2708   -2.0083    0.0000 O   0  0  0  0  0  0  0  0  0  0  0  0
    1.1583   -2.0083    0.0000 N   0  0  0  0  0  0  0  0  0  0  0  0
    0.4458   -0.7708    0.0000 N   0  0  0  0  0  0  0  0  0  0  0  0
   -0.9833    0.8792    0.0000 S   0  0  0  0  0  0  0  0  0  0  0  0
    1.1583   -2.8333    0.0000 C   0  0  0  0  0  0  0  0  0  0  0  0
   -0.9833    1.7042    0.0000 C   0  0  0  0  0  0  0  0  0  0  0  0
   -0.2708   -0.3583    0.0000 C   0  0  0  0  0  0  0  0  0  0  0  0
   -0.2708    0.4667    0.0000 C   0  0  0  0  0  0  0  0  0  0  0  0
   -0.2708    2.1167    0.0000 C   0  0  0  0  0  0  0  0  0  0  0  0
   -1.7000    2.1167    0.0000 C   0  0  0  0  0  0  0  0  0  0  0  0
   -1.7000    2.9417    0.0000 C   0  0  0  0  0  0  0  0  0  0  0  0
   -0.2708    2.9417    0.0000 C   0  0  0  0  0  0  0  0  0  0  0  0
   -0.9833    3.3542    0.0000 C   0  0  0  0  0  0  0  0  0  0  0  0
  2  8  1  0  0  0  0
  3  2  3  0  0  0  0
  4  1  2  0  0  0  0
  5  1  1  0  0  0  0
  6  1  1  0  0  0  0
  7 11  1  0  0  0  0
  8  5  1  0  0  0  0
  9  7  1  0  0  0  0
 10  6  1  0  0  0  0
 11 10  1  0  0  0  0
 12  9  1  0  0  0  0
 13  9  2  0  0  0  0
 14 13  1  0  0  0  0
 15 12  2  0  0  0  0
 16 14  2  0  0  0  0
 16 15  1  0  0  0  0
M  END
> <CdId>
3861

> <Mol Weight>
234.317

> <Formula>
C12H14N2OS

> <Click_ID>
CLK050E08 __ __ 

$$$$
