CLK039E02
 OpenBabel03181410512D

 19 20  0  0  0  0  0  0  0  0999 V2000
   -1.0917    0.6333    0.0000 N   0  0  0  0  0  0  0  0  0  0  0  0
   -0.3792    0.2208    0.0000 C   0  0  0  0  0  0  0  0  0  0  0  0
   -1.8083    0.2208    0.0000 C   0  0  0  0  0  0  0  0  0  0  0  0
   -1.0917   -1.0167    0.0000 C   0  0  0  0  0  0  0  0  0  0  0  0
    3.9083    0.2208    0.0000 C   0  0  0  0  0  0  0  0  0  0  0  0
   -1.8083   -0.6042    0.0000 C   0  0  0  0  0  0  0  0  0  0  0  0
    4.6250   -0.1917    0.0000 C   0  0  0  0  0  0  0  0  0  0  0  0
   -0.3792   -0.6042    0.0000 C   0  0  0  0  0  0  0  0  0  0  0  0
    1.7667    0.6333    0.0000 C   0  0  0  0  0  0  0  0  0  0  0  0
    0.3375    0.6333    0.0000 S   0  0  0  0  0  0  0  0  0  0  0  0
    1.7667    1.4583    0.0000 O   0  0  0  0  0  0  0  0  0  0  0  0
    2.4792    0.2208    0.0000 N   0  0  0  0  0  0  0  0  0  0  0  0
    1.0500    0.2208    0.0000 C   0  0  0  0  0  0  0  0  0  0  0  0
    3.1958    0.6333    0.0000 C   0  0  0  0  0  0  0  0  0  0  0  0
   -1.0917   -1.8417    0.0000 C   0  0  0  0  0  0  0  0  0  0  0  0
   -2.5208    0.6333    0.0000 C   0  0  0  0  0  0  0  0  0  0  0  0
   -2.5208   -1.0167    0.0000 C   0  0  0  0  0  0  0  0  0  0  0  0
   -3.2375    0.2208    0.0000 C   0  0  0  0  0  0  0  0  0  0  0  0
   -3.2375   -0.6042    0.0000 C   0  0  0  0  0  0  0  0  0  0  0  0
  2  1  1  0  0  0  0
  3  1  2  0  0  0  0
  4  6  2  0  0  0  0
  5 14  1  0  0  0  0
  6  3  1  0  0  0  0
  7  5  3  0  0  0  0
  8  2  2  0  0  0  0
  8  4  1  0  0  0  0
  9 13  1  0  0  0  0
 10  2  1  0  0  0  0
 11  9  2  0  0  0  0
 12  9  1  0  0  0  0
 13 10  1  0  0  0  0
 14 12  1  0  0  0  0
 15  4  1  0  0  0  0
 16  3  1  0  0  0  0
 17  6  1  0  0  0  0
 18 16  2  0  0  0  0
 19 17  2  0  0  0  0
 19 18  1  0  0  0  0
M  END
> <CdId>
2933

> <Mol Weight>
270.349

> <Formula>
C15H14N2OS

> <Click_ID>
CLK039E02 __ __ 

$$$$
