CLK003_C10
 OpenBabel03181410512D

 18 20  0  0  0  0  0  0  0  0999 V2000
   -0.7132    0.1058    0.0000 C   0  0  0  0  0  0  0  0  0  0  0  0
   -1.5412    0.1058    0.0000 C   0  0  0  0  0  0  0  0  0  0  0  0
   -0.4684   -0.6829    0.0000 C   0  0  0  0  0  0  0  0  0  0  0  0
   -0.1723    0.7192    0.0000 C   0  0  0  0  0  0  0  0  0  0  0  0
   -1.7829   -0.6829    0.0000 C   0  0  0  0  0  0  0  0  0  0  0  0
   -2.2030    0.5772    0.0000 C   0  0  0  0  0  0  0  0  0  0  0  0
   -1.1363   -1.1543    0.0000 S   0  0  0  0  0  0  0  0  0  0  0  0
    0.3384   -0.8582    0.0000 N   0  0  0  0  0  0  0  0  0  0  0  0
    0.6346    0.5590    0.0000 N   0  0  0  0  0  0  0  0  0  0  0  0
   -0.4171    1.5230    0.0000 O   0  0  0  0  0  0  0  0  0  0  0  0
   -2.6079   -0.6829    0.0000 C   0  0  0  0  0  0  0  0  0  0  0  0
   -2.8708    0.0726    0.0000 C   0  0  0  0  0  0  0  0  0  0  0  0
    0.8975   -0.2448    0.0000 C   0  0  0  0  0  0  0  0  0  0  0  0
    1.1755    1.1906    0.0000 C   0  0  0  0  0  0  0  0  0  0  0  0
    1.7014   -0.4382    0.0000 S   0  0  0  0  0  0  0  0  0  0  0  0
    2.2664    0.1602    0.0000 C   0  0  0  0  0  0  0  0  0  0  0  0
    3.0551   -0.0363    0.0000 C   0  0  0  0  0  0  0  0  0  0  0  0
    3.8589   -0.2297    0.0000 C   0  0  0  0  0  0  0  0  0  0  0  0
  1  2  1  0  0  0  0
  1  3  2  0  0  0  0
  1  4  1  0  0  0  0
  2  5  2  0  0  0  0
  2  6  1  0  0  0  0
  3  7  1  0  0  0  0
  3  8  1  0  0  0  0
  4  9  1  0  0  0  0
  4 10  2  0  0  0  0
  5 11  1  0  0  0  0
  5  7  1  0  0  0  0
  6 12  1  0  0  0  0
  8 13  2  0  0  0  0
  9 14  1  0  0  0  0
  9 13  1  0  0  0  0
 11 12  1  0  0  0  0
 13 15  1  0  0  0  0
 15 16  1  0  0  0  0
 16 17  1  0  0  0  0
 17 18  3  0  0  0  0
M  END
> <CdId>
189

> <Mol Weight>
276.377

> <Formula>
C13H12N2OS2

> <Click_ID>
CLK003_C10 __ __ 

$$$$
