CLK013_H04
 OpenBabel03181410512D

 16 16  0  0  0  0  0  0  0  0999 V2000
    1.5167    0.9000    0.0000 C    0  0  0  0  0  0  0  0  0  0  0  0
    2.2292    2.1333    0.0000 C    0  0  0  0  0  0  0  0  0  0  0  0
    2.2292    1.3083    0.0000 C    0  0  0  0  0  0  0  0  0  0  0  0
    1.5250    2.5500    0.0000 C    0  0  0  0  0  0  0  0  0  0  0  0
    0.8042    1.3208    0.0000 C    0  0  0  0  0  0  0  0  0  0  0  0
    2.2542    4.5917    0.0000 C    0  0  0  0  0  0  0  0  0  0  0  0
    0.8042    2.1458    0.0000 C    0  0  0  0  0  0  0  0  0  0  0  0
    2.2542    5.4292    0.0000 C    0  0  0  0  0  0  0  0  0  0  0  0
    1.5167    0.0750    0.0000 C    0  0  0  0  0  0  0  0  0  0  0  0
    0.8042   -0.3375    0.0000 O    0  0  0  0  0  0  0  0  0  0  0  0
    2.9375    0.9000    0.0000 Br   0  0  0  0  0  0  0  0  0  0  0  0
    1.5292    3.3708    0.0000 O    0  0  0  0  0  0  0  0  0  0  0  0
    0.1042    2.5583    0.0000 O    0  0  0  0  0  0  0  0  0  0  0  0
    2.2417    3.7833    0.0000 C    0  0  0  0  0  0  0  0  0  0  0  0
   -0.6125    2.1458    0.0000 C    0  0  0  0  0  0  0  0  0  0  0  0
   -1.3208    2.5583    0.0000 C    0  0  0  0  0  0  0  0  0  0  0  0
  2  3  2  0  0  0  0
  3  1  1  0  0  0  0
  4  7  2  0  0  0  0
  4  2  1  0  0  0  0
  5  1  2  0  0  0  0
  6 14  1  0  0  0  0
  7  5  1  0  0  0  0
  8  6  3  0  0  0  0
  9  1  1  0  0  0  0
 10  9  2  0  0  0  0
 11  3  1  0  0  0  0
 12  4  1  0  0  0  0
 13  7  1  0  0  0  0
 14 12  1  0  0  0  0
 15 13  1  0  0  0  0
 16 15  1  0  0  0  0
M  END
> <CdId>
989

> <Mol Weight>
283.118

> <Formula>
C12H11BrO3

> <Click_ID>
CLK013_H04 __ __ 

$$$$
