CLK002_H10
 OpenBabel03181410512D

 26 28  0  0  0  0  0  0  0  0999 V2000
   -1.3915    0.2015    0.0000 C   0  0  0  0  0  0  0  0  0  0  0  0
   -0.5893    0.2129    0.0000 C   0  0  0  0  0  0  0  0  0  0  0  0
   -1.8742    0.8516    0.0000 N   0  0  0  0  0  0  0  0  0  0  0  0
   -1.8742   -0.4486    0.0000 N   0  0  0  0  0  0  0  0  0  0  0  0
   -0.1825   -0.5019    0.0000 C   0  0  0  0  0  0  0  0  0  0  0  0
   -0.1255    0.9960    0.0000 C   0  0  0  0  0  0  0  0  0  0  0  0
   -2.6346    0.6006    0.0000 C   0  0  0  0  0  0  0  0  0  0  0  0
   -2.6346   -0.2015    0.0000 C   0  0  0  0  0  0  0  0  0  0  0  0
    0.6463   -0.5019    0.0000 C   0  0  0  0  0  0  0  0  0  0  0  0
    0.3307    1.7982    0.0000 N   0  0  0  0  0  0  0  0  0  0  0  0
   -3.3379    1.0112    0.0000 C   0  0  0  0  0  0  0  0  0  0  0  0
   -3.3379   -0.6121    0.0000 C   0  0  0  0  0  0  0  0  0  0  0  0
    1.0569    0.2168    0.0000 C   0  0  0  0  0  0  0  0  0  0  0  0
    1.0569   -1.2165    0.0000 C   0  0  0  0  0  0  0  0  0  0  0  0
   -4.0412    0.6006    0.0000 C   0  0  0  0  0  0  0  0  0  0  0  0
   -4.0412   -0.2015    0.0000 C   0  0  0  0  0  0  0  0  0  0  0  0
    1.8856    0.2129    0.0000 C   0  0  0  0  0  0  0  0  0  0  0  0
    1.8856   -1.2204    0.0000 C   0  0  0  0  0  0  0  0  0  0  0  0
   -4.7560    1.0264    0.0000 C   0  0  0  0  0  0  0  0  0  0  0  0
    2.3000   -0.5056    0.0000 C   0  0  0  0  0  0  0  0  0  0  0  0
    2.3039    0.9276    0.0000 O   0  0  0  0  0  0  0  0  0  0  0  0
    3.1250   -0.5056    0.0000 O   0  0  0  0  0  0  0  0  0  0  0  0
    3.1288    0.9276    0.0000 C   0  0  0  0  0  0  0  0  0  0  0  0
    3.5394   -1.2204    0.0000 C   0  0  0  0  0  0  0  0  0  0  0  0
    4.3644   -1.2204    0.0000 C   0  0  0  0  0  0  0  0  0  0  0  0
    5.1931   -1.2204    0.0000 C   0  0  0  0  0  0  0  0  0  0  0  0
  1  2  1  0  0  0  0
  1  3  1  0  0  0  0
  1  4  2  0  0  0  0
  2  5  2  0  0  0  0
  2  6  1  0  0  0  0
  3  7  1  0  0  0  0
  4  8  1  0  0  0  0
  5  9  1  0  0  0  0
  6 10  3  0  0  0  0
  7 11  1  0  0  0  0
  7  8  2  0  0  0  0
  8 12  1  0  0  0  0
  9 13  2  0  0  0  0
  9 14  1  0  0  0  0
 11 15  2  0  0  0  0
 12 16  2  0  0  0  0
 13 17  1  0  0  0  0
 14 18  2  0  0  0  0
 15 19  1  0  0  0  0
 15 16  1  0  0  0  0
 17 20  2  0  0  0  0
 17 21  1  0  0  0  0
 18 20  1  0  0  0  0
 20 22  1  0  0  0  0
 21 23  1  0  0  0  0
 22 24  1  0  0  0  0
 24 25  1  0  0  0  0
 25 26  3  0  0  0  0
M  END
> <CdId>
159

> <Mol Weight>
343.3786

> <Formula>
C21H17N3O2

> <Click_ID>
CLK002_H10 __ __ 

$$$$
