CLK044C07
 OpenBabel03181410512D

 29 31  0  0  0  0  0  0  0  0999 V2000
   -0.6595    1.3357    0.0000 N    0  0  0  0  0  0  0  0  0  0  0  0
    0.1252    1.0811    0.0000 C    0  0  0  0  0  0  0  0  0  0  0  0
   -1.1479    0.6679    0.0000 C    0  0  0  0  0  0  0  0  0  0  0  0
   -0.6595    0.0000    0.0000 C    0  0  0  0  0  0  0  0  0  0  0  0
    0.1252    0.2547    0.0000 S    0  0  0  0  0  0  0  0  0  0  0  0
   -0.9141   -0.7889    0.0000 C    0  0  0  0  0  0  0  0  0  0  0  0
    0.7430   -2.6297    0.0000 C    0  0  0  0  0  0  0  0  0  0  0  0
   -0.9141    2.1205    0.0000 C    0  0  0  0  0  0  0  0  0  0  0  0
   -0.0668   -2.8008    0.0000 C    0  0  0  0  0  0  0  0  0  0  0  0
    0.9976   -1.8450    0.0000 C    0  0  0  0  0  0  0  0  0  0  0  0
   -0.3632   -1.4025    0.0000 C    0  0  0  0  0  0  0  0  0  0  0  0
    0.7931    1.5653    0.0000 S    0  0  0  0  0  0  0  0  0  0  0  0
    1.5946   -4.6459    0.0000 C    0  0  0  0  0  0  0  0  0  0  0  0
    2.1456   -5.2595    0.0000 C    0  0  0  0  0  0  0  0  0  0  0  0
   -0.6178    3.5230    0.0000 N    0  0  0  0  0  0  0  0  0  0  0  0
   -0.6178   -2.1872    0.0000 C    0  0  0  0  0  0  0  0  0  0  0  0
   -1.9744    0.6679    0.0000 O    0  0  0  0  0  0  0  0  0  0  0  0
    0.4466   -1.2314    0.0000 C    0  0  0  0  0  0  0  0  0  0  0  0
   -0.3632    2.7341    0.0000 C    0  0  0  0  0  0  0  0  0  0  0  0
   -1.1270    5.0884    0.0000 O    0  0  0  0  0  0  0  0  0  0  0  0
   -0.3214   -3.5898    0.0000 Cl   0  0  0  0  0  0  0  0  0  0  0  0
    1.2981   -3.2433    0.0000 O    0  0  0  0  0  0  0  0  0  0  0  0
    1.8075   -1.6738    0.0000 O    0  0  0  0  0  0  0  0  0  0  0  0
    1.0394   -4.0323    0.0000 C    0  0  0  0  0  0  0  0  0  0  0  0
   -0.0668    4.1324    0.0000 C    0  0  0  0  0  0  0  0  0  0  0  0
   -1.4276    3.6942    0.0000 C    0  0  0  0  0  0  0  0  0  0  0  0
   -1.6822    4.4748    0.0000 C    0  0  0  0  0  0  0  0  0  0  0  0
   -0.3214    4.9172    0.0000 C    0  0  0  0  0  0  0  0  0  0  0  0
    2.0620   -0.8849    0.0000 C    0  0  0  0  0  0  0  0  0  0  0  0
  2  1  1  0  0  0  0
  3  1  1  0  0  0  0
  4  3  1  0  0  0  0
  5  2  1  0  0  0  0
  5  4  1  0  0  0  0
  6  4  2  0  0  0  0
  7  9  1  0  0  0  0
  7 10  2  0  0  0  0
  8  1  1  0  0  0  0
  9 16  2  0  0  0  0
 10 18  1  0  0  0  0
 11  6  1  0  0  0  0
 12  2  2  0  0  0  0
 13 24  1  0  0  0  0
 14 13  3  0  0  0  0
 15 19  1  0  0  0  0
 16 11  1  0  0  0  0
 17  3  2  0  0  0  0
 18 11  2  0  0  0  0
 19  8  1  0  0  0  0
 20 27  1  0  0  0  0
 20 28  1  0  0  0  0
 21  9  1  0  0  0  0
 22  7  1  0  0  0  0
 23 10  1  0  0  0  0
 24 22  1  0  0  0  0
 25 15  1  0  0  0  0
 26 15  1  0  0  0  0
 27 26  1  0  0  0  0
 28 25  1  0  0  0  0
 29 23  1  0  0  0  0
M  END
> <CdId>
3371

> <Mol Weight>
452.975

> <Formula>
C20H21ClN2O4S2

> <Click_ID>
CLK044C07 __ __ 

$$$$
