CLK041A09
 OpenBabel03181410512D

 25 27  0  0  0  0  0  0  0  0999 V2000
    2.4250   -0.0292    0.0000 S   0  0  0  0  0  0  0  0  0  0  0  0
   -0.4333   -0.0292    0.0000 C   0  0  0  0  0  0  0  0  0  0  0  0
    1.7125   -0.4417    0.0000 C   0  0  0  0  0  0  0  0  0  0  0  0
   -1.1458   -0.4417    0.0000 N   0  0  0  0  0  0  0  0  0  0  0  0
    0.2833   -0.4417    0.0000 C   0  0  0  0  0  0  0  0  0  0  0  0
    4.5708    0.3833    0.0000 C   0  0  0  0  0  0  0  0  0  0  0  0
    0.9958   -0.0292    0.0000 C   0  0  0  0  0  0  0  0  0  0  0  0
    5.2833    0.7958    0.0000 C   0  0  0  0  0  0  0  0  0  0  0  0
    2.0125    0.6833    0.0000 O   0  0  0  0  0  0  0  0  0  0  0  0
    2.8375   -0.7458    0.0000 O   0  0  0  0  0  0  0  0  0  0  0  0
   -3.2875   -0.0292    0.0000 C   0  0  0  0  0  0  0  0  0  0  0  0
    3.1417    0.3833    0.0000 N   0  0  0  0  0  0  0  0  0  0  0  0
   -1.8625   -0.0292    0.0000 C   0  0  0  0  0  0  0  0  0  0  0  0
   -2.5750   -0.4417    0.0000 C   0  0  0  0  0  0  0  0  0  0  0  0
   -0.4333    0.7958    0.0000 O   0  0  0  0  0  0  0  0  0  0  0  0
   -3.2875    0.7958    0.0000 C   0  0  0  0  0  0  0  0  0  0  0  0
   -2.5750    1.2083    0.0000 C   0  0  0  0  0  0  0  0  0  0  0  0
   -1.8625    0.7958    0.0000 C   0  0  0  0  0  0  0  0  0  0  0  0
    3.8542   -0.0292    0.0000 C   0  0  0  0  0  0  0  0  0  0  0  0
    1.7125   -1.2667    0.0000 C   0  0  0  0  0  0  0  0  0  0  0  0
    0.2833   -1.2667    0.0000 C   0  0  0  0  0  0  0  0  0  0  0  0
   -4.0750   -0.2875    0.0000 C   0  0  0  0  0  0  0  0  0  0  0  0
    0.9958   -1.6792    0.0000 C   0  0  0  0  0  0  0  0  0  0  0  0
   -4.5583    0.3833    0.0000 C   0  0  0  0  0  0  0  0  0  0  0  0
   -4.0750    1.0500    0.0000 C   0  0  0  0  0  0  0  0  0  0  0  0
  2  5  1  0  0  0  0
  3  1  1  0  0  0  0
  4  2  1  0  0  0  0
  5  7  2  0  0  0  0
  6 19  1  0  0  0  0
  7  3  1  0  0  0  0
  8  6  3  0  0  0  0
  9  1  2  0  0  0  0
 10  1  2  0  0  0  0
 11 14  1  0  0  0  0
 12  1  1  0  0  0  0
 13  4  1  0  0  0  0
 14 13  2  0  0  0  0
 15  2  2  0  0  0  0
 16 11  2  0  0  0  0
 16 17  1  0  0  0  0
 17 18  2  0  0  0  0
 18 13  1  0  0  0  0
 19 12  1  0  0  0  0
 20  3  2  0  0  0  0
 21  5  1  0  0  0  0
 22 11  1  0  0  0  0
 23 20  1  0  0  0  0
 23 21  2  0  0  0  0
 24 22  1  0  0  0  0
 24 25  1  0  0  0  0
 25 16  1  0  0  0  0
M  END
> <CdId>
3145

> <Mol Weight>
354.423

> <Formula>
C19H18N2O3S

> <Click_ID>
CLK041A09 __ __ 

$$$$
