CLK047D08
 OpenBabel03181410512D

 17 18  0  0  0  0  0  0  0  0999 V2000
    0.5458   -0.5542    0.0000 C   0  0  0  0  0  0  0  0  0  0  0  0
   -0.1708   -0.1417    0.0000 N   0  0  0  0  0  0  0  0  0  0  0  0
   -1.6000    2.3333    0.0000 C   0  0  0  0  0  0  0  0  0  0  0  0
   -2.3125    2.7458    0.0000 C   0  0  0  0  0  0  0  0  0  0  0  0
    1.2583   -0.1417    0.0000 O   0  0  0  0  0  0  0  0  0  0  0  0
   -0.1708    0.6833    0.0000 C   0  0  0  0  0  0  0  0  0  0  0  0
    0.5458   -1.3792    0.0000 C   0  0  3  0  0  0  0  0  0  0  0  0
    1.2583   -2.6167    0.0000 C   0  0  0  0  0  0  0  0  0  0  0  0
   -0.8833    1.9208    0.0000 C   0  0  0  0  0  0  0  0  0  0  0  0
    0.5458   -3.0292    0.0000 C   0  0  0  0  0  0  0  0  0  0  0  0
   -0.8833    1.0958    0.0000 C   0  0  0  0  0  0  0  0  0  0  0  0
    1.2583   -1.7917    0.0000 C   0  0  0  0  0  0  0  0  0  0  0  0
    0.5458    1.9208    0.0000 C   0  0  0  0  0  0  0  0  0  0  0  0
    0.5458    1.0958    0.0000 C   0  0  0  0  0  0  0  0  0  0  0  0
   -0.1708   -2.6167    0.0000 C   0  0  0  0  0  0  0  0  0  0  0  0
   -0.1708    2.3333    0.0000 C   0  0  0  0  0  0  0  0  0  0  0  0
   -0.1708   -1.7917    0.0000 C   0  0  0  0  0  0  0  0  0  0  0  0
  2  1  1  0  0  0  0
  3  9  1  0  0  0  0
  4  3  3  0  0  0  0
  5  1  2  0  0  0  0
  6  2  1  0  0  0  0
  7  1  1  0  0  0  0
  8 12  1  0  0  0  0
  9 11  1  0  0  0  0
 10  8  2  0  0  0  0
 10 15  1  0  0  0  0
 11  6  2  0  0  0  0
 12  7  1  0  0  0  0
 13 14  2  0  0  0  0
 14  6  1  0  0  0  0
 15 17  1  0  0  0  0
 16  9  2  0  0  0  0
 16 13  1  0  0  0  0
 17  7  1  0  0  0  0
M  END
> <CdId>
3620

> <Mol Weight>
225.2857

> <Formula>
C15H15NO

> <Click_ID>
CLK047D08 __ __ 

$$$$
