CLK022_B03
 OpenBabel03181410512D

 18 18  0  0  0  0  0  0  0  0999 V2000
    3.7288    1.9193    0.0000 C   0  0  0  0  0  0  0  0  0  0  0  0
    1.7178    1.3421    0.0000 C   0  0  0  0  0  0  0  0  0  0  0  0
    3.0142    1.5070    0.0000 N   0  0  0  0  0  0  0  0  0  0  0  0
    4.4434    1.5070    0.0000 N   0  0  0  0  0  0  0  0  0  0  0  0
    1.1315    0.7512    0.0000 C   0  0  0  0  0  0  0  0  0  0  0  0
    2.2996    1.9193    0.0000 C   0  0  0  0  0  0  0  0  0  0  0  0
    3.7288    2.7439    0.0000 O   0  0  0  0  0  0  0  0  0  0  0  0
    5.1580    1.9193    0.0000 C   0  0  0  0  0  0  0  0  0  0  0  0
    5.8726    1.5070    0.0000 C   0  0  0  0  0  0  0  0  0  0  0  0
    6.5872    1.9193    0.0000 C   0  0  0  0  0  0  0  0  0  0  0  0
    5.8726    3.1561    0.0000 C   0  0  0  0  0  0  0  0  0  0  0  0
    5.1580    2.7439    0.0000 C   0  0  0  0  0  0  0  0  0  0  0  0
    2.7760    2.5927    0.0000 C   0  0  0  0  0  0  0  0  0  0  0  0
    1.6674    2.4553    0.0000 C   0  0  0  0  0  0  0  0  0  0  0  0
    6.5872    2.7439    0.0000 C   0  0  0  0  0  0  0  0  0  0  0  0
    7.3018    1.5070    0.0000 C   0  0  0  0  0  0  0  0  0  0  0  0
    1.8140    3.2661    0.0000 C   0  0  0  0  0  0  0  0  0  0  0  0
    2.4233    3.3485    0.0000 C   0  0  0  0  0  0  0  0  0  0  0  0
  2  6  1  0  0  0  0
  3  1  1  0  0  0  0
  4  1  1  0  0  0  0
  5  2  3  0  0  0  0
  6  3  1  0  0  0  0
  7  1  2  0  0  0  0
  8  4  1  0  0  0  0
  9  8  2  0  0  0  0
 10  9  1  0  0  0  0
 11 12  2  0  0  0  0
 12  8  1  0  0  0  0
 13  6  1  0  0  0  0
 14  6  1  0  0  0  0
 15 11  1  0  0  0  0
 15 10  2  0  0  0  0
 16 10  1  0  0  0  0
 17 14  1  0  0  0  0
 18 13  1  0  0  0  0
M  END
> <CdId>
1646

> <Mol Weight>
244.3321

> <Formula>
C15H20N2O

> <Click_ID>
CLK022_B03 __ __ 

$$$$
