CLK020_E09
 OpenBabel03181410512D

 22 23  0  0  0  0  0  0  0  0999 V2000
    4.6068   -3.1753    0.0000 C   0  0  0  0  0  0  0  0  0  0  0  0
   -0.3371   -4.6318    0.0000 C   0  0  0  0  0  0  0  0  0  0  0  0
   -1.1611   -4.6360    0.0000 C   0  0  0  0  0  0  0  0  0  0  0  0
    5.4308   -3.1628    0.0000 C   0  0  0  0  0  0  0  0  0  0  0  0
    2.1390   -4.6235    0.0000 C   0  0  0  0  0  0  0  0  0  0  0  0
    4.1990   -3.8952    0.0000 C   0  0  0  0  0  0  0  0  0  0  0  0
    1.7229   -3.9118    0.0000 C   0  0  0  0  0  0  0  0  0  0  0  0
    2.9713   -4.6193    0.0000 C   0  0  0  0  0  0  0  0  0  0  0  0
    5.8345   -2.4470    0.0000 O   0  0  0  0  0  0  0  0  0  0  0  0
    5.8552   -3.8702    0.0000 C   0  0  0  0  0  0  0  0  0  0  0  0
    3.3750   -3.8994    0.0000 C   0  0  0  0  0  0  0  0  0  0  0  0
    2.1266   -3.1877    0.0000 C   0  0  0  0  0  0  0  0  0  0  0  0
    2.9630   -3.1877    0.0000 C   0  0  0  0  0  0  0  0  0  0  0  0
    1.7353   -5.3351    0.0000 O   0  0  0  0  0  0  0  0  0  0  0  0
    0.8989   -3.9118    0.0000 O   0  0  0  0  0  0  0  0  0  0  0  0
    0.4869   -4.6318    0.0000 C   0  0  0  0  0  0  0  0  0  0  0  0
    5.4474   -4.5943    0.0000 C   0  0  0  0  0  0  0  0  0  0  0  0
    6.6834   -3.8619    0.0000 C   0  0  0  0  0  0  0  0  0  0  0  0
    2.1473   -6.0467    0.0000 C   0  0  0  0  0  0  0  0  0  0  0  0
    7.1037   -4.5735    0.0000 C   0  0  0  0  0  0  0  0  0  0  0  0
    5.8719   -5.2976    0.0000 C   0  0  0  0  0  0  0  0  0  0  0  0
    6.6959   -5.2934    0.0000 C   0  0  0  0  0  0  0  0  0  0  0  0
  2 16  1  0  0  0  0
  3  2  3  0  0  0  0
  4  1  1  0  0  0  0
  5  8  1  0  0  0  0
  5  7  2  0  0  0  0
  6  1  2  0  0  0  0
  7 12  1  0  0  0  0
  8 11  2  0  0  0  0
  9  4  2  0  0  0  0
 10  4  1  0  0  0  0
 11  6  1  0  0  0  0
 12 13  2  0  0  0  0
 13 11  1  0  0  0  0
 14  5  1  0  0  0  0
 15  7  1  0  0  0  0
 16 15  1  0  0  0  0
 17 10  2  0  0  0  0
 18 10  1  0  0  0  0
 19 14  1  0  0  0  0
 20 18  2  0  0  0  0
 21 17  1  0  0  0  0
 22 20  1  0  0  0  0
 22 21  2  0  0  0  0
M  END
> <CdId>
1524

> <Mol Weight>
292.3285

> <Formula>
C19H16O3

> <Click_ID>
CLK020_E09 __ __ 

$$$$
