CLK040F03
 OpenBabel03181410512D

 23 24  0  0  0  0  0  0  0  0999 V2000
   -1.9917   -0.9292    0.0000 S   0  0  0  0  0  0  0  0  0  0  0  0
    0.8667    0.7208    0.0000 C   0  0  0  0  0  0  0  0  0  0  0  0
    1.5833    0.3083    0.0000 N   0  0  0  0  0  0  0  0  0  0  0  0
   -1.2750   -0.5167    0.0000 C   0  0  0  0  0  0  0  0  0  0  0  0
   -4.1333   -1.3417    0.0000 C   0  0  0  0  0  0  0  0  0  0  0  0
    2.2958    0.7208    0.0000 C   0  0  0  0  0  0  0  0  0  0  0  0
   -4.8500   -1.7542    0.0000 C   0  0  0  0  0  0  0  0  0  0  0  0
   -1.5792   -1.6458    0.0000 O   0  0  0  0  0  0  0  0  0  0  0  0
   -2.4042   -0.2167    0.0000 O   0  0  0  0  0  0  0  0  0  0  0  0
    0.1542    0.3083    0.0000 C   0  0  0  0  0  0  0  0  0  0  0  0
   -2.7042   -1.3417    0.0000 N   0  0  0  0  0  0  0  0  0  0  0  0
    0.8667    1.5458    0.0000 O   0  0  0  0  0  0  0  0  0  0  0  0
    3.0125    0.3083    0.0000 C   0  0  0  0  0  0  0  0  0  0  0  0
   -1.2750    0.3083    0.0000 C   0  0  0  0  0  0  0  0  0  0  0  0
   -0.5625   -0.9292    0.0000 C   0  0  0  0  0  0  0  0  0  0  0  0
   -0.5625    0.7208    0.0000 C   0  0  0  0  0  0  0  0  0  0  0  0
    0.1542   -0.5167    0.0000 C   0  0  0  0  0  0  0  0  0  0  0  0
   -3.4208   -0.9292    0.0000 C   0  0  0  0  0  0  0  0  0  0  0  0
    3.0125   -0.5167    0.0000 O   0  0  0  0  0  0  0  0  0  0  0  0
    2.2958    1.5458    0.0000 C   0  0  0  0  0  0  0  0  0  0  0  0
    3.7250    0.7208    0.0000 C   0  0  0  0  0  0  0  0  0  0  0  0
    3.0125    1.9583    0.0000 C   0  0  0  0  0  0  0  0  0  0  0  0
    3.7250    1.5458    0.0000 C   0  0  0  0  0  0  0  0  0  0  0  0
  2 10  1  0  0  0  0
  3  2  1  0  0  0  0
  4  1  1  0  0  0  0
  5 18  1  0  0  0  0
  6  3  1  0  0  0  0
  7  5  3  0  0  0  0
  8  1  2  0  0  0  0
  9  1  2  0  0  0  0
 10 17  2  0  0  0  0
 11  1  1  0  0  0  0
 12  2  2  0  0  0  0
 13  6  2  0  0  0  0
 14  4  1  0  0  0  0
 15  4  2  0  0  0  0
 16 14  2  0  0  0  0
 16 10  1  0  0  0  0
 17 15  1  0  0  0  0
 18 11  1  0  0  0  0
 19 13  1  0  0  0  0
 20  6  1  0  0  0  0
 21 13  1  0  0  0  0
 22 20  2  0  0  0  0
 22 23  1  0  0  0  0
 23 21  2  0  0  0  0
M  END
> <CdId>
3022

> <Mol Weight>
330.358

> <Formula>
C16H14N2O4S

> <Click_ID>
CLK040F03 __ __ 

$$$$
