CLK007_B04
 OpenBabel03181410512D

 25 26  0  0  0  0  0  0  0  0999 V2000
    3.7167   -8.7596    0.0000 C   0  0  0  0  0  0  0  0  0  0  0  0
    4.4318   -9.1712    0.0000 C   0  0  3  0  0  0  0  0  0  0  0  0
    3.0058   -9.1712    0.0000 C   0  0  0  0  0  0  0  0  0  0  0  0
    3.7167  -10.4100    0.0000 C   0  0  0  0  0  0  0  0  0  0  0  0
    3.0058   -9.9984    0.0000 N   0  0  0  0  0  0  0  0  0  0  0  0
    4.4318   -9.9984    0.0000 N   0  0  0  0  0  0  0  0  0  0  0  0
    3.7167   -7.9365    0.0000 C   0  0  0  0  0  0  0  0  0  0  0  0
    5.1427   -8.7596    0.0000 C   0  0  0  0  0  0  0  0  0  0  0  0
    5.8536   -9.1712    0.0000 C   0  0  0  0  0  0  0  0  0  0  0  0
    8.7180   -7.5082    0.0000 C   0  0  0  0  0  0  0  0  0  0  0  0
    9.4331   -7.0884    0.0000 C   0  0  0  0  0  0  0  0  0  0  0  0
    6.5686   -8.7596    0.0000 C   0  0  0  0  0  0  0  0  0  0  0  0
    3.7167  -11.2332    0.0000 O   0  0  0  0  0  0  0  0  0  0  0  0
    6.5686   -7.9323    0.0000 C   0  0  0  0  0  0  0  0  0  0  0  0
    5.1427   -7.9323    0.0000 C   0  0  0  0  0  0  0  0  0  0  0  0
    4.4276   -7.5249    0.0000 O   0  0  0  0  0  0  0  0  0  0  0  0
    5.8536   -7.5207    0.0000 C   0  0  0  0  0  0  0  0  0  0  0  0
    3.0016   -7.5249    0.0000 O   0  0  0  0  0  0  0  0  0  0  0  0
    2.2866   -8.7512    0.0000 C   0  0  0  0  0  0  0  0  0  0  0  0
    7.2879   -9.1795    0.0000 O   0  0  0  0  0  0  0  0  0  0  0  0
    7.2879   -7.5124    0.0000 O   0  0  0  0  0  0  0  0  0  0  0  0
    8.0071   -7.9240    0.0000 C   0  0  0  0  0  0  0  0  0  0  0  0
    8.0071   -8.7679    0.0000 C   0  0  0  0  0  0  0  0  0  0  0  0
    3.0016   -6.6975    0.0000 C   0  0  0  0  0  0  0  0  0  0  0  0
    8.7180   -9.1837    0.0000 C   0  0  0  0  0  0  0  0  0  0  0  0
  2  1  1  0  0  0  0
  3  1  2  0  0  0  0
  4  5  1  0  0  0  0
  4  6  1  0  0  0  0
  5  3  1  0  0  0  0
  6  2  1  0  0  0  0
  7  1  1  0  0  0  0
  8  2  1  0  0  0  0
  9  8  2  0  0  0  0
 10 22  1  0  0  0  0
 11 10  3  0  0  0  0
 12  9  1  0  0  0  0
 13  4  2  0  0  0  0
 14 17  1  0  0  0  0
 14 12  2  0  0  0  0
 15  8  1  0  0  0  0
 16  7  2  0  0  0  0
 17 15  2  0  0  0  0
 18  7  1  0  0  0  0
 19  3  1  0  0  0  0
 20 12  1  0  0  0  0
 21 14  1  0  0  0  0
 22 21  1  0  0  0  0
 23 20  1  0  0  0  0
 24 18  1  0  0  0  0
 25 23  1  0  0  0  0
M  END
> <CdId>
493

> <Mol Weight>
344.3618

> <Formula>
C18H20N2O5

> <Click_ID>
CLK007_B04 __ __ 

$$$$
