CLK037B09
 OpenBabel03181410512D

 29 29  0  0  0  0  0  0  0  0999 V2000
   -1.2333    1.7083    0.0000 C   0  0  0  0  0  0  0  0  0  0  0  0
    0.9083   -2.0042    0.0000 C   0  0  0  0  0  0  0  0  0  0  0  0
   -0.5208    0.4708    0.0000 C   0  0  0  0  0  0  0  0  0  0  0  0
   -1.2333    0.8833    0.0000 N   0  0  0  0  0  0  0  0  0  0  0  0
   -1.9500    3.7708    0.0000 C   0  0  0  0  0  0  0  0  0  0  0  0
    2.3375   -3.6542    0.0000 C   0  0  0  0  0  0  0  0  0  0  0  0
   -0.5208   -0.3542    0.0000 C   0  0  0  0  0  0  0  0  0  0  0  0
   -1.9500    2.1208    0.0000 N   0  0  0  0  0  0  0  0  0  0  0  0
    0.9083   -2.8292    0.0000 N   0  0  0  0  0  0  0  0  0  0  0  0
    0.1958   -1.5917    0.0000 N   0  0  0  0  0  0  0  0  0  0  0  0
   -1.9500    4.5917    0.0000 C   0  0  0  0  0  0  0  0  0  0  0  0
    3.0542   -4.0667    0.0000 C   0  0  0  0  0  0  0  0  0  0  0  0
   -1.9500    2.9458    0.0000 C   0  0  0  0  0  0  0  0  0  0  0  0
    1.6250   -3.2417    0.0000 C   0  0  0  0  0  0  0  0  0  0  0  0
    0.1958   -0.7667    0.0000 C   0  0  0  0  0  0  0  0  0  0  0  0
   -0.5208    2.1208    0.0000 O   0  0  0  0  0  0  0  0  0  0  0  0
    0.1958    0.8833    0.0000 C   0  0  0  0  0  0  0  0  0  0  0  0
    1.6250   -1.5917    0.0000 O   0  0  0  0  0  0  0  0  0  0  0  0
    0.9083    0.4708    0.0000 C   0  0  0  0  0  0  0  0  0  0  0  0
    0.9083   -0.3542    0.0000 C   0  0  0  0  0  0  0  0  0  0  0  0
    1.2125   -3.9542    0.0000 C   0  0  0  0  0  0  0  0  0  0  0  0
   -2.7750    2.9458    0.0000 C   0  0  0  0  0  0  0  0  0  0  0  0
   -1.1250    2.9458    0.0000 C   0  0  0  0  0  0  0  0  0  0  0  0
    2.0375   -2.5250    0.0000 C   0  0  0  0  0  0  0  0  0  0  0  0
    0.1958    1.7083    0.0000 C   0  0  0  0  0  0  0  0  0  0  0  0
   -3.1875    3.6625    0.0000 C   0  0  0  0  0  0  0  0  0  0  0  0
    2.8625   -2.5250    0.0000 C   0  0  0  0  0  0  0  0  0  0  0  0
   -0.7125    2.2333    0.0000 C   0  0  0  0  0  0  0  0  0  0  0  0
    0.3875   -3.9542    0.0000 C   0  0  0  0  0  0  0  0  0  0  0  0
  2 10  1  0  0  0  0
  3  4  1  0  0  0  0
  4  1  1  0  0  0  0
  5 13  1  0  0  0  0
  6 14  1  0  0  0  0
  7  3  1  0  0  0  0
  8  1  1  0  0  0  0
  9  2  1  0  0  0  0
 10 15  1  0  0  0  0
 11  5  3  0  0  0  0
 12  6  3  0  0  0  0
 13  8  1  0  0  0  0
 14  9  1  0  0  0  0
 15  7  2  0  0  0  0
 16  1  2  0  0  0  0
 17  3  2  0  0  0  0
 18  2  2  0  0  0  0
 19 17  1  0  0  0  0
 19 20  2  0  0  0  0
 20 15  1  0  0  0  0
 21 14  1  0  0  0  0
 22 13  1  0  0  0  0
 23 13  1  0  0  0  0
 24 14  1  0  0  0  0
 25 17  1  0  0  0  0
 26 22  1  0  0  0  0
 27 24  1  0  0  0  0
 28 23  1  0  0  0  0
 29 21  1  0  0  0  0
M  END
> <CdId>
2826

> <Mol Weight>
396.5258

> <Formula>
C23H32N4O2

> <Click_ID>
CLK037B09 __ __ 

$$$$
