CLK010_E06
 OpenBabel03181410512D

 29 31  0  0  0  0  0  0  0  0999 V2000
    2.8559   -0.6764    0.0000 N   0  0  0  0  0  0  0  0  0  0  0  0
    3.5616   -1.9165    0.0000 C   0  0  0  0  0  0  0  0  0  0  0  0
    2.8476   -1.5031    0.0000 C   0  0  0  0  0  0  0  0  0  0  0  0
    3.5699   -0.2630    0.0000 C   0  0  0  0  0  0  0  0  0  0  0  0
    4.2839   -0.6806    0.0000 N   0  0  0  0  0  0  0  0  0  0  0  0
    4.2755   -1.5073    0.0000 C   0  0  0  0  0  0  0  0  0  0  0  0
    3.5574   -2.7432    0.0000 C   0  0  0  0  0  0  0  0  0  0  0  0
    2.1336   -0.2630    0.0000 C   0  0  0  0  0  0  0  0  0  0  0  0
    7.0939   -5.6409    0.0000 C   0  0  0  0  0  0  0  0  0  0  0  0
    3.5699    0.5637    0.0000 O   0  0  0  0  0  0  0  0  0  0  0  0
    7.8036   -6.0625    0.0000 C   0  0  0  0  0  0  0  0  0  0  0  0
    2.1336   -1.9081    0.0000 O   0  0  0  0  0  0  0  0  0  0  0  0
    5.6910   -3.1607    0.0000 C   0  0  0  0  0  0  0  0  0  0  0  0
    4.9895   -1.9207    0.0000 O   0  0  0  0  0  0  0  0  0  0  0  0
    4.2630   -3.1482    0.0000 C   0  0  0  0  0  0  0  0  0  0  0  0
    4.9853   -2.7474    0.0000 C   0  0  0  0  0  0  0  0  0  0  0  0
    5.6910   -3.9749    0.0000 C   0  0  0  0  0  0  0  0  0  0  0  0
    1.4154   -0.6764    0.0000 C   0  0  0  0  0  0  0  0  0  0  0  0
    2.1336    0.5720    0.0000 C   0  0  0  0  0  0  0  0  0  0  0  0
    4.9770   -4.3758    0.0000 C   0  0  0  0  0  0  0  0  0  0  0  0
    4.2630   -3.9624    0.0000 C   0  0  0  0  0  0  0  0  0  0  0  0
    6.4049   -2.7599    0.0000 O   0  0  0  0  0  0  0  0  0  0  0  0
    1.4154    0.9853    0.0000 C   0  0  0  0  0  0  0  0  0  0  0  0
    0.7015   -0.2630    0.0000 C   0  0  0  0  0  0  0  0  0  0  0  0
    0.7015    0.5720    0.0000 C   0  0  0  0  0  0  0  0  0  0  0  0
    6.3924   -4.4008    0.0000 O   0  0  0  0  0  0  0  0  0  0  0  0
    6.3924   -5.2150    0.0000 C   0  0  0  0  0  0  0  0  0  0  0  0
   -0.0208    0.9853    0.0000 C   0  0  0  0  0  0  0  0  0  0  0  0
    6.4049   -1.9415    0.0000 C   0  0  0  0  0  0  0  0  0  0  0  0
  2  3  1  0  0  0  0
  2  6  1  0  0  0  0
  3  1  1  0  0  0  0
  4  1  1  0  0  0  0
  5  4  1  0  0  0  0
  6  5  1  0  0  0  0
  7  2  2  0  0  0  0
  8  1  1  0  0  0  0
  9 27  1  0  0  0  0
 10  4  2  0  0  0  0
 11  9  3  0  0  0  0
 12  3  2  0  0  0  0
 13 16  1  0  0  0  0
 13 17  2  0  0  0  0
 14  6  2  0  0  0  0
 15  7  1  0  0  0  0
 16 15  2  0  0  0  0
 17 20  1  0  0  0  0
 18  8  1  0  0  0  0
 19  8  2  0  0  0  0
 20 21  2  0  0  0  0
 21 15  1  0  0  0  0
 22 13  1  0  0  0  0
 23 19  1  0  0  0  0
 24 18  2  0  0  0  0
 25 23  2  0  0  0  0
 25 24  1  0  0  0  0
 26 17  1  0  0  0  0
 27 26  1  0  0  0  0
 28 25  1  0  0  0  0
 29 22  1  0  0  0  0
M  END
> <CdId>
721

> <Mol Weight>
390.3887

> <Formula>
C22H18N2O5

> <Click_ID>
CLK010_E06 __ __ 

$$$$
