CLK035_H08
 OpenBabel03181410512D

 20 22  0  0  0  0  0  0  0  0999 V2000
   -4.3954    1.8654    0.0000 N   0  0  0  0  0  0  0  0  0  0  0  0
   -3.6116    2.1129    0.0000 C   0  0  0  0  0  0  0  0  0  0  0  0
   -4.8766    2.5162    0.0000 N   0  0  0  0  0  0  0  0  0  0  0  0
   -3.6116    2.9379    0.0000 C   0  0  0  0  0  0  0  0  0  0  0  0
   -4.3954    3.1900    0.0000 C   0  0  0  0  0  0  0  0  0  0  0  0
   -2.9013    3.3504    0.0000 C   0  0  0  0  0  0  0  0  0  0  0  0
   -2.9013    1.7004    0.0000 N   0  0  0  0  0  0  0  0  0  0  0  0
   -2.1862    2.9379    0.0000 N   0  0  0  0  0  0  0  0  0  0  0  0
   -4.7300    1.1000    0.0000 C   0  0  0  0  0  0  0  0  0  0  0  0
   -2.1954    5.4084    0.0000 C   0  0  0  0  0  0  0  0  0  0  0  0
   -2.1954    6.2334    0.0000 C   0  0  0  0  0  0  0  0  0  0  0  0
   -2.1862    2.1129    0.0000 C   0  0  0  0  0  0  0  0  0  0  0  0
   -4.2441    0.4400    0.0000 C   0  0  0  0  0  0  0  0  0  0  0  0
   -5.5504    1.0129    0.0000 C   0  0  0  0  0  0  0  0  0  0  0  0
   -2.9013    4.1754    0.0000 S   0  0  0  0  0  0  0  0  0  0  0  0
   -5.3991   -0.4171    0.0000 C   0  0  0  0  0  0  0  0  0  0  0  0
   -5.8850    0.2566    0.0000 C   0  0  0  0  0  0  0  0  0  0  0  0
   -4.5741   -0.3209    0.0000 C   0  0  0  0  0  0  0  0  0  0  0  0
   -5.7429   -1.1734    0.0000 F   0  0  0  0  0  0  0  0  0  0  0  0
   -2.1954    4.5834    0.0000 C   0  0  0  0  0  0  0  0  0  0  0  0
  2  1  1  0  0  0  0
  3  1  1  0  0  0  0
  4  2  2  0  0  0  0
  5  3  2  0  0  0  0
  5  4  1  0  0  0  0
  6  4  1  0  0  0  0
  7  2  1  0  0  0  0
  8 12  1  0  0  0  0
  8  6  2  0  0  0  0
  9  1  1  0  0  0  0
 10 20  1  0  0  0  0
 11 10  3  0  0  0  0
 12  7  2  0  0  0  0
 13  9  2  0  0  0  0
 14  9  1  0  0  0  0
 15  6  1  0  0  0  0
 16 17  1  0  0  0  0
 16 18  2  0  0  0  0
 17 14  2  0  0  0  0
 18 13  1  0  0  0  0
 19 16  1  0  0  0  0
 20 15  1  0  0  0  0
M  END
> <CdId>
2722

> <Mol Weight>
284.311

> <Formula>
C14H9FN4S

> <Click_ID>
CLK035_H08 __ __ 

$$$$
