CLK035_H02
 OpenBabel03181410512D

 25 27  0  0  0  0  0  0  0  0999 V2000
   -4.5954    2.5581    0.0000 C   0  0  0  0  0  0  0  0  0  0  0  0
   -3.8622    2.9831    0.0000 N   0  0  0  0  0  0  0  0  0  0  0  0
   -4.6871    1.7332    0.0000 N   0  0  0  0  0  0  0  0  0  0  0  0
   -5.3204    2.8998    0.0000 S   0  0  0  0  0  0  0  0  0  0  0  0
   -3.8705    3.7997    0.0000 C   0  0  0  0  0  0  0  0  0  0  0  0
   -3.8705    5.4413    0.0000 N   0  3  0  0  0  0  0  0  0  0  0  0
   -3.1580    4.2122    0.0000 C   0  0  0  0  0  0  0  0  0  0  0  0
   -5.4954    1.5832    0.0000 C   0  0  0  0  0  0  0  0  0  0  0  0
   -5.8953    2.3081    0.0000 C   0  0  0  0  0  0  0  0  0  0  0  0
   -3.1497    5.0288    0.0000 C   0  0  0  0  0  0  0  0  0  0  0  0
   -4.2705    0.3583    0.0000 C   0  0  0  0  0  0  0  0  0  0  0  0
   -4.4579   -0.4542    0.0000 C   0  0  0  0  0  0  0  0  0  0  0  0
   -3.8747    6.2662    0.0000 O   0  5  0  0  0  0  0  0  0  0  0  0
   -4.5829    5.0246    0.0000 O   0  0  0  0  0  0  0  0  0  0  0  0
   -4.5829    4.2122    0.0000 O   0  0  0  0  0  0  0  0  0  0  0  0
   -5.9245    0.8832    0.0000 C   0  0  0  0  0  0  0  0  0  0  0  0
   -4.0830    1.1624    0.0000 C   0  0  0  0  0  0  0  0  0  0  0  0
   -2.4331    3.7997    0.0000 C   0  0  0  0  0  0  0  0  0  0  0  0
   -6.7120    2.3331    0.0000 C   0  0  0  0  0  0  0  0  0  0  0  0
   -2.4373    5.4413    0.0000 C   0  0  0  0  0  0  0  0  0  0  0  0
   -7.1411    1.6249    0.0000 C   0  0  0  0  0  0  0  0  0  0  0  0
   -6.7287    0.8957    0.0000 C   0  0  0  0  0  0  0  0  0  0  0  0
   -5.5329    0.1500    0.0000 C   0  0  0  0  0  0  0  0  0  0  0  0
   -1.7207    4.2039    0.0000 C   0  0  0  0  0  0  0  0  0  0  0  0
   -1.7207    5.0288    0.0000 C   0  0  0  0  0  0  0  0  0  0  0  0
  2  1  2  0  0  0  0
  3  1  1  0  0  0  0
  4  1  1  0  0  0  0
  5  2  1  0  0  0  0
  6 10  1  0  0  0  0
  7  5  1  0  0  0  0
  8  3  1  0  0  0  0
  9  4  1  0  0  0  0
  9  8  2  0  0  0  0
 10  7  1  0  0  0  0
 11 17  1  0  0  0  0
 12 11  3  0  0  0  0
 13  6  1  0  0  0  0
 14  6  2  0  0  0  0
 15  5  2  0  0  0  0
 16  8  1  0  0  0  0
 17  3  1  0  0  0  0
 18  7  2  0  0  0  0
 19  9  1  0  0  0  0
 20 10  2  0  0  0  0
 20 25  1  0  0  0  0
 21 19  2  0  0  0  0
 22 16  2  0  0  0  0
 22 21  1  0  0  0  0
 23 16  1  0  0  0  0
 24 18  1  0  0  0  0
 25 24  2  0  0  0  0
M  END
> <CdId>
2716

> <Mol Weight>
351.379

> <Formula>
C18H13N3O3S

> <Click_ID>
CLK035_H02 __ __ 

$$$$
