CLK019_H11
 OpenBabel03181410512D

 24 24  0  0  0  0  0  0  0  0999 V2000
    1.4621    4.0241    0.0000 C    0  0  0  0  0  0  0  0  0  0  0  0
    0.6371    4.0241    0.0000 C    0  0  0  0  0  0  0  0  0  0  0  0
    3.9371    2.5987    0.0000 C    0  0  0  0  0  0  0  0  0  0  0  0
    3.5246    3.3229    0.0000 C    0  0  0  0  0  0  0  0  0  0  0  0
    4.7621    2.5987    0.0000 C    0  0  0  0  0  0  0  0  0  0  0  0
    3.9371    4.0241    0.0000 C    0  0  0  0  0  0  0  0  0  0  0  0
    5.1746    3.3229    0.0000 C    0  0  0  0  0  0  0  0  0  0  0  0
    4.7621    4.0241    0.0000 C    0  0  0  0  0  0  0  0  0  0  0  0
    3.5246    1.8837    0.0000 O    0  0  0  0  0  0  0  0  0  0  0  0
    6.4121    2.5987    0.0000 N    0  0  0  0  0  0  0  0  0  0  0  0
    2.6996    3.3229    0.0000 O    0  0  0  0  0  0  0  0  0  0  0  0
    2.2871    4.0241    0.0000 C    0  0  0  0  0  0  0  0  0  0  0  0
    8.4746    1.8837    0.0000 C    0  0  0  0  0  0  0  0  0  0  0  0
    5.9996    3.3229    0.0000 C    0  0  0  0  0  0  0  0  0  0  0  0
    7.2371    2.5987    0.0000 C    0  0  0  0  0  0  0  0  0  0  0  0
    7.6496    1.8837    0.0000 C    0  0  0  0  0  0  0  0  0  0  0  0
    3.9371    1.1687    0.0000 C    0  0  0  0  0  0  0  0  0  0  0  0
    8.8871    1.1687    0.0000 C    0  0  0  0  0  0  0  0  0  0  0  0
    8.8871    2.5987    0.0000 C    0  0  0  0  0  0  0  0  0  0  0  0
    3.5246    0.4537    0.0000 C    0  0  0  0  0  0  0  0  0  0  0  0
    9.7121    2.5987    0.0000 C    0  0  0  0  0  0  0  0  0  0  0  0
    9.7121    1.1687    0.0000 C    0  0  0  0  0  0  0  0  0  0  0  0
   10.1246    1.8837    0.0000 C    0  0  0  0  0  0  0  0  0  0  0  0
   10.9496    0.4537    0.0000 Cl   0  0  0  0  0  0  0  0  0  0  0  0
  2  1  3  0  0  0  0
  3  4  2  0  0  0  0
  4 11  1  0  0  0  0
  5  3  1  0  0  0  0
  6  4  1  0  0  0  0
  7  8  1  0  0  0  0
  7  5  2  0  0  0  0
  8  6  2  0  0  0  0
  9  3  1  0  0  0  0
 10 14  1  0  0  0  0
 11 12  1  0  0  0  0
 12  1  1  0  0  0  0
 13 16  1  0  0  0  0
 14  7  1  0  0  0  0
 15 10  1  0  0  0  0
 16 15  1  0  0  0  0
 17  9  1  0  0  0  0
 18 13  1  0  0  0  0
 19 13  2  0  0  0  0
 20 17  1  0  0  0  0
 21 19  1  0  0  0  0
 22 18  2  0  0  0  0
 23 22  1  0  0  0  0
 23 21  2  0  0  0  0
M  END
> <CdId>
1476

> <Mol Weight>
345.863

> <Formula>
C20H24ClNO2

> <Click_ID>
CLK019_H11 __ __ 

$$$$
