CLK025_G03
 OpenBabel03181410512D

 25 27  0  0  0  0  0  0  0  0999 V2000
    1.3761    0.8943    0.0000 C    0  0  0  0  0  0  0  0  0  0  0  0
    1.4593    0.0763    0.0000 C    0  0  0  0  0  0  0  0  0  0  0  0
    2.2704   -0.0936    0.0000 N    0  0  0  0  0  0  0  0  0  0  0  0
    2.1318    1.2306    0.0000 C    0  0  0  0  0  0  0  0  0  0  0  0
    2.6829    0.6204    0.0000 C    0  0  0  0  0  0  0  0  0  0  0  0
    0.6620    1.3103    0.0000 N    0  0  0  0  0  0  0  0  0  0  0  0
   -1.4835    0.8943    0.0000 C    0  0  0  0  0  0  0  0  0  0  0  0
   -0.7695    1.3103    0.0000 C    0  0  0  0  0  0  0  0  0  0  0  0
   -0.0555    0.8943    0.0000 N    0  0  0  0  0  0  0  0  0  0  0  0
    2.1179   -1.5217    0.0000 C    0  0  0  0  0  0  0  0  0  0  0  0
    1.6361   -2.1838    0.0000 C    0  0  0  0  0  0  0  0  0  0  0  0
   -1.4835    0.0693    0.0000 C    0  0  0  0  0  0  0  0  0  0  0  0
    0.8527   -0.4749    0.0000 O    0  0  0  0  0  0  0  0  0  0  0  0
   -2.2011    1.3137    0.0000 C    0  0  0  0  0  0  0  0  0  0  0  0
   -0.7695    2.1353    0.0000 O    0  0  0  0  0  0  0  0  0  0  0  0
    2.6101   -0.8527    0.0000 C    0  0  0  0  0  0  0  0  0  0  0  0
   -2.2011   -0.3432    0.0000 C    0  0  0  0  0  0  0  0  0  0  0  0
   -2.9152    0.8943    0.0000 C    0  0  0  0  0  0  0  0  0  0  0  0
    2.3882    2.0139    0.0000 C    0  0  0  0  0  0  0  0  0  0  0  0
   -2.9152    0.0693    0.0000 C    0  0  0  0  0  0  0  0  0  0  0  0
   -0.7695   -0.3432    0.0000 O    0  0  0  0  0  0  0  0  0  0  0  0
   -3.7540    1.4177    0.0000 Cl   0  0  0  0  0  0  0  0  0  0  0  0
    3.4940    0.7868    0.0000 C    0  0  0  0  0  0  0  0  0  0  0  0
    3.1924    2.1872    0.0000 C    0  0  0  0  0  0  0  0  0  0  0  0
    3.7505    1.5702    0.0000 C    0  0  0  0  0  0  0  0  0  0  0  0
  2  1  1  0  0  0  0
  3  2  1  0  0  0  0
  3  5  1  0  0  0  0
  4  1  1  0  0  0  0
  5  4  2  0  0  0  0
  6  1  2  0  0  0  0
  7  8  1  0  0  0  0
  8  9  1  0  0  0  0
  9  6  1  0  0  0  0
 10 16  1  0  0  0  0
 11 10  3  0  0  0  0
 12  7  2  0  0  0  0
 13  2  2  0  0  0  0
 14  7  1  0  0  0  0
 15  8  2  0  0  0  0
 16  3  1  0  0  0  0
 17 12  1  0  0  0  0
 18 14  2  0  0  0  0
 19  4  1  0  0  0  0
 20 18  1  0  0  0  0
 20 17  2  0  0  0  0
 21 12  1  0  0  0  0
 22 18  1  0  0  0  0
 23  5  1  0  0  0  0
 23 25  2  0  0  0  0
 24 19  2  0  0  0  0
 25 24  1  0  0  0  0
M  END
> <CdId>
1918

> <Mol Weight>
353.759

> <Formula>
C18H12ClN3O3

> <Click_ID>
CLK025_G03 __ __ 

$$$$
