CLK017_G02
 OpenBabel03181410512D

 31 33  0  0  0  0  0  0  0  0999 V2000
    5.7330   -2.7084    0.0000 C    0  0  0  0  0  0  0  0  0  0  0  0
    5.2289   -2.0485    0.0000 C    0  0  0  0  0  0  0  0  0  0  0  0
    4.4544   -2.3143    0.0000 N    0  0  0  0  0  0  0  0  0  0  0  0
    4.4681   -3.1392    0.0000 N    0  0  0  0  0  0  0  0  0  0  0  0
    5.2564   -3.3866    0.0000 C    0  0  0  0  0  0  0  0  0  0  0  0
    5.4764   -1.2557    0.0000 C    0  0  0  0  0  0  0  0  0  0  0  0
    6.5578   -2.6946    0.0000 C    0  0  0  0  0  0  0  0  0  0  0  0
    3.8128   -3.6432    0.0000 C    0  0  0  0  0  0  0  0  0  0  0  0
    8.2810   -6.9474    0.0000 C    0  0  0  0  0  0  0  0  0  0  0  0
    8.7072   -7.6577    0.0000 C    0  0  0  0  0  0  0  0  0  0  0  0
    5.5267   -4.1657    0.0000 O    0  0  0  0  0  0  0  0  0  0  0  0
    8.2260   -4.0878    0.0000 C    0  0  0  0  0  0  0  0  0  0  0  0
    6.9749   -3.4004    0.0000 C    0  0  0  0  0  0  0  0  0  0  0  0
    7.7998   -3.3866    0.0000 C    0  0  0  0  0  0  0  0  0  0  0  0
    7.8273   -4.8165    0.0000 C    0  0  0  0  0  0  0  0  0  0  0  0
    5.6963   -0.5408    0.0000 F    0  0  0  0  0  0  0  0  0  0  0  0
    6.2600   -0.9395    0.0000 F    0  0  0  0  0  0  0  0  0  0  0  0
    4.9952   -0.5408    0.0000 F    0  0  0  0  0  0  0  0  0  0  0  0
    3.9091   -4.4590    0.0000 C    0  0  0  0  0  0  0  0  0  0  0  0
    3.0521   -3.3179    0.0000 C    0  0  0  0  0  0  0  0  0  0  0  0
    7.0024   -4.8302    0.0000 C    0  0  0  0  0  0  0  0  0  0  0  0
    6.5762   -4.1244    0.0000 C    0  0  0  0  0  0  0  0  0  0  0  0
    2.4930   -4.6331    0.0000 C    0  0  0  0  0  0  0  0  0  0  0  0
    2.3922   -3.8128    0.0000 C    0  0  0  0  0  0  0  0  0  0  0  0
    3.2492   -4.9539    0.0000 C    0  0  0  0  0  0  0  0  0  0  0  0
    9.0509   -4.0741    0.0000 O    0  0  0  0  0  0  0  0  0  0  0  0
    1.8331   -5.1327    0.0000 Cl   0  0  0  0  0  0  0  0  0  0  0  0
    8.2535   -5.5176    0.0000 O    0  0  0  0  0  0  0  0  0  0  0  0
    7.8548   -6.2416    0.0000 C    0  0  0  0  0  0  0  0  0  0  0  0
    9.4771   -4.7843    0.0000 C    0  0  0  0  0  0  0  0  0  0  0  0
   10.3019   -4.7706    0.0000 C    0  0  0  0  0  0  0  0  0  0  0  0
  2  1  1  0  0  0  0
  3  2  2  0  0  0  0
  3  4  1  0  0  0  0
  4  5  1  0  0  0  0
  5  1  1  0  0  0  0
  6  2  1  0  0  0  0
  7  1  2  0  0  0  0
  8  4  1  0  0  0  0
  9 29  1  0  0  0  0
 10  9  3  0  0  0  0
 11  5  2  0  0  0  0
 12 14  1  0  0  0  0
 13  7  1  0  0  0  0
 14 13  2  0  0  0  0
 15 21  1  0  0  0  0
 15 12  2  0  0  0  0
 16  6  1  0  0  0  0
 17  6  1  0  0  0  0
 18  6  1  0  0  0  0
 19  8  2  0  0  0  0
 20  8  1  0  0  0  0
 21 22  2  0  0  0  0
 22 13  1  0  0  0  0
 23 24  1  0  0  0  0
 23 25  2  0  0  0  0
 24 20  2  0  0  0  0
 25 19  1  0  0  0  0
 26 12  1  0  0  0  0
 27 23  1  0  0  0  0
 28 15  1  0  0  0  0
 29 28  1  0  0  0  0
 30 26  1  0  0  0  0
 31 30  1  0  0  0  0
M  END
> <CdId>
1297

> <Mol Weight>
448.822

> <Formula>
C22H16ClF3N2O3

> <Click_ID>
CLK017_G02 __ __ 

$$$$
