CLK003_H11
 OpenBabel03181410512D

 27 29  0  0  0  0  0  0  0  0999 V2000
   -1.0480    0.1291    0.0000 C   0  0  3  0  0  0  0  0  0  0  0  0
   -1.8607   -0.0113    0.0000 C   0  0  0  0  0  0  0  0  0  0  0  0
   -0.6531   -0.5999    0.0000 C   0  0  0  0  0  0  0  0  0  0  0  0
   -0.1101    0.7595    0.0000 C   0  0  0  0  0  0  0  0  0  0  0  0
   -1.3101    1.0747    0.0000 O   0  0  0  0  0  0  0  0  0  0  0  0
   -1.9708   -0.8240    0.0000 C   0  0  0  0  0  0  0  0  0  0  0  0
   -2.5062    0.5013    0.0000 C   0  0  0  0  0  0  0  0  0  0  0  0
   -1.2303   -1.1924    0.0000 N   0  0  0  0  0  0  0  0  0  0  0  0
    0.1633   -0.7139    0.0000 O   0  0  0  0  0  0  0  0  0  0  0  0
    0.6835    0.3456    0.0000 C   0  0  0  0  0  0  0  0  0  0  0  0
   -2.7417   -1.1353    0.0000 C   0  0  0  0  0  0  0  0  0  0  0  0
   -3.2695    0.1937    0.0000 C   0  0  0  0  0  0  0  0  0  0  0  0
   -1.0899   -2.0050    0.0000 C   0  0  0  0  0  0  0  0  0  0  0  0
    1.3746    0.8012    0.0000 C   0  0  0  0  0  0  0  0  0  0  0  0
    0.7139   -0.3417    0.0000 O   0  0  0  0  0  0  0  0  0  0  0  0
   -3.3872   -0.6266    0.0000 C   0  0  0  0  0  0  0  0  0  0  0  0
   -1.7239   -2.5328    0.0000 C   0  0  0  0  0  0  0  0  0  0  0  0
    2.1036    0.4139    0.0000 C   0  0  0  0  0  0  0  0  0  0  0  0
    1.3442    1.6177    0.0000 C   0  0  0  0  0  0  0  0  0  0  0  0
   -2.3543   -3.0644    0.0000 C   0  0  0  0  0  0  0  0  0  0  0  0
    2.8062    0.8544    0.0000 C   0  0  0  0  0  0  0  0  0  0  0  0
    2.1455   -0.4101    0.0000 O   0  0  0  0  0  0  0  0  0  0  0  0
    2.0353    2.0657    0.0000 C   0  0  0  0  0  0  0  0  0  0  0  0
    2.7643    1.6822    0.0000 C   0  0  0  0  0  0  0  0  0  0  0  0
    1.4544   -0.8620    0.0000 C   0  0  0  0  0  0  0  0  0  0  0  0
    3.4669    2.1264    0.0000 O   0  0  0  0  0  0  0  0  0  0  0  0
    4.1959    1.7506    0.0000 C   0  0  0  0  0  0  0  0  0  0  0  0
  1  2  1  0  0  0  0
  1  3  1  0  0  0  0
  1  4  1  0  0  0  0
  1  5  1  0  0  0  0
  2  6  2  0  0  0  0
  2  7  1  0  0  0  0
  3  8  1  0  0  0  0
  3  9  2  0  0  0  0
  4 10  1  0  0  0  0
  6 11  1  0  0  0  0
  6  8  1  0  0  0  0
  7 12  2  0  0  0  0
  8 13  1  0  0  0  0
 10 14  1  0  0  0  0
 10 15  2  0  0  0  0
 11 16  2  0  0  0  0
 12 16  1  0  0  0  0
 13 17  1  0  0  0  0
 14 18  1  0  0  0  0
 14 19  2  0  0  0  0
 17 20  3  0  0  0  0
 18 21  2  0  0  0  0
 18 22  1  0  0  0  0
 19 23  1  0  0  0  0
 21 24  1  0  0  0  0
 22 25  1  0  0  0  0
 23 24  2  0  0  0  0
 24 26  1  0  0  0  0
 26 27  1  0  0  0  0
M  END
> <CdId>
240

> <Mol Weight>
365.3793

> <Formula>
C21H19NO5

> <Click_ID>
CLK003_H11 __ __ 

$$$$
