CLK039E09
 OpenBabel03181410512D

 28 30  0  0  0  0  0  0  0  0999 V2000
    1.6609   -2.0491    0.0000 S   0  0  0  0  0  0  0  0  0  0  0  0
   -0.3213    1.2771    0.0000 N   0  0  0  0  0  0  0  0  0  0  0  0
   -1.1060    2.3579    0.0000 C   0  0  0  0  0  0  0  0  0  0  0  0
   -1.5900    1.6901    0.0000 O   0  0  0  0  0  0  0  0  0  0  0  0
   -0.3213    2.1033    0.0000 C   0  0  0  0  0  0  0  0  0  0  0  0
   -1.1060    1.0224    0.0000 C   0  0  0  0  0  0  0  0  0  0  0  0
    0.8513   -2.2201    0.0000 C   0  0  0  0  0  0  0  0  0  0  0  0
   -1.0642   -1.1644    0.0000 C   0  0  0  0  0  0  0  0  0  0  0  0
    3.8268   -2.3203    0.0000 C   0  0  0  0  0  0  0  0  0  0  0  0
   -0.5091   -1.7778    0.0000 C   0  0  0  0  0  0  0  0  0  0  0  0
    0.2963   -1.6067    0.0000 C   0  0  0  0  0  0  0  0  0  0  0  0
    4.6365   -2.1492    0.0000 C   0  0  0  0  0  0  0  0  0  0  0  0
    1.4856   -1.2395    0.0000 O   0  0  0  0  0  0  0  0  0  0  0  0
    1.8321   -2.8587    0.0000 O   0  0  0  0  0  0  0  0  0  0  0  0
    2.4664   -1.8780    0.0000 N   0  0  0  0  0  0  0  0  0  0  0  0
   -0.8096   -0.3798    0.0000 O   0  0  0  0  0  0  0  0  0  0  0  0
   -1.3604    3.1466    0.0000 C   0  0  0  0  0  0  0  0  0  0  0  0
   -1.8697   -1.3354    0.0000 O   0  0  0  0  0  0  0  0  0  0  0  0
   -1.3604    0.2379    0.0000 C   0  0  0  0  0  0  0  0  0  0  0  0
    3.0214   -2.4914    0.0000 C   0  0  0  0  0  0  0  0  0  0  0  0
    0.5967   -3.0048    0.0000 C   0  0  0  0  0  0  0  0  0  0  0  0
   -0.7637   -2.5623    0.0000 C   0  0  0  0  0  0  0  0  0  0  0  0
   -0.2129   -3.1800    0.0000 C   0  0  0  0  0  0  0  0  0  0  0  0
   -2.1701    3.3177    0.0000 C   0  0  0  0  0  0  0  0  0  0  0  0
   -0.8096    3.7601    0.0000 C   0  0  0  0  0  0  0  0  0  0  0  0
   -1.0642    4.5405    0.0000 C   0  0  0  0  0  0  0  0  0  0  0  0
   -2.4246    4.0981    0.0000 C   0  0  0  0  0  0  0  0  0  0  0  0
   -1.8697    4.7116    0.0000 C   0  0  0  0  0  0  0  0  0  0  0  0
  2  6  2  0  0  0  0
  3  4  1  0  0  0  0
  3  5  2  0  0  0  0
  4  6  1  0  0  0  0
  5  2  1  0  0  0  0
  6 19  1  0  0  0  0
  7  1  1  0  0  0  0
  8 10  1  0  0  0  0
  9 20  1  0  0  0  0
 10 11  2  0  0  0  0
 11  7  1  0  0  0  0
 12  9  3  0  0  0  0
 13  1  2  0  0  0  0
 14  1  2  0  0  0  0
 15  1  1  0  0  0  0
 16  8  1  0  0  0  0
 17  3  1  0  0  0  0
 18  8  2  0  0  0  0
 19 16  1  0  0  0  0
 20 15  1  0  0  0  0
 21  7  2  0  0  0  0
 22 10  1  0  0  0  0
 23 21  1  0  0  0  0
 23 22  2  0  0  0  0
 24 17  2  0  0  0  0
 25 17  1  0  0  0  0
 26 25  2  0  0  0  0
 27 24  1  0  0  0  0
 28 27  2  0  0  0  0
 28 26  1  0  0  0  0
M  END
> <CdId>
2989

> <Mol Weight>
396.416

> <Formula>
C20H16N2O5S

> <Click_ID>
CLK039E09 __ __ 

$$$$
