CLK019_F08
 OpenBabel03181410512D

 25 26  0  0  0  0  0  0  0  0999 V2000
   -0.5582   -4.6407    0.0000 N   0  3  0  0  0  0  0  0  0  0  0  0
   -1.7704   -1.0540    0.0000 C   0  0  0  0  0  0  0  0  0  0  0  0
   -2.1829   -1.7663    0.0000 C   0  0  0  0  0  0  0  0  0  0  0  0
   -0.9456   -1.0373    0.0000 C   0  0  0  0  0  0  0  0  0  0  0  0
   -3.0119   -1.7663    0.0000 C   0  0  0  0  0  0  0  0  0  0  0  0
   -3.8367   -1.7663    0.0000 N   0  0  0  0  0  0  0  0  0  0  0  0
   -0.9581   -3.9242    0.0000 C   0  0  0  0  0  0  0  0  0  0  0  0
   -1.0456    1.8204    0.0000 C   0  0  0  0  0  0  0  0  0  0  0  0
   -0.6582    2.5453    0.0000 C   0  0  0  0  0  0  0  0  0  0  0  0
   -0.9831   -5.3531    0.0000 O   0  5  0  0  0  0  0  0  0  0  0  0
   -1.7829   -2.4870    0.0000 C   0  0  0  0  0  0  0  0  0  0  0  0
    0.2666   -4.6532    0.0000 O   0  0  0  0  0  0  0  0  0  0  0  0
   -0.5582   -0.3041    0.0000 C   0  0  0  0  0  0  0  0  0  0  0  0
   -0.5124   -1.7288    0.0000 C   0  0  0  0  0  0  0  0  0  0  0  0
   -0.5457   -3.2118    0.0000 C   0  0  0  0  0  0  0  0  0  0  0  0
   -1.7871   -3.9159    0.0000 C   0  0  0  0  0  0  0  0  0  0  0  0
   -0.9456   -2.4912    0.0000 C   0  0  0  0  0  0  0  0  0  0  0  0
   -2.1954   -3.1993    0.0000 C   0  0  0  0  0  0  0  0  0  0  0  0
    0.2666   -0.2791    0.0000 C   0  0  0  0  0  0  0  0  0  0  0  0
    0.3124   -1.7121    0.0000 C   0  0  0  0  0  0  0  0  0  0  0  0
    0.7041   -0.9790    0.0000 C   0  0  0  0  0  0  0  0  0  0  0  0
   -0.9956    0.3957    0.0000 O   0  0  0  0  0  0  0  0  0  0  0  0
   -0.6082    1.1206    0.0000 C   0  0  0  0  0  0  0  0  0  0  0  0
    0.7415   -2.4037    0.0000 O   0  0  0  0  0  0  0  0  0  0  0  0
    1.5664   -2.3870    0.0000 C   0  0  0  0  0  0  0  0  0  0  0  0
  2  3  2  0  0  0  0
  3 11  1  0  0  0  0
  4  2  1  0  0  0  0
  5  3  1  0  0  0  0
  6  5  3  0  0  0  0
  7  1  1  0  0  0  0
  8 23  1  0  0  0  0
  9  8  3  0  0  0  0
 10  1  1  0  0  0  0
 11 18  2  0  0  0  0
 11 17  1  0  0  0  0
 12  1  2  0  0  0  0
 13  4  2  0  0  0  0
 14  4  1  0  0  0  0
 15  7  1  0  0  0  0
 16  7  2  0  0  0  0
 17 15  2  0  0  0  0
 18 16  1  0  0  0  0
 19 13  1  0  0  0  0
 19 21  2  0  0  0  0
 20 14  2  0  0  0  0
 21 20  1  0  0  0  0
 22 13  1  0  0  0  0
 23 22  1  0  0  0  0
 24 20  1  0  0  0  0
 25 24  1  0  0  0  0
M  END
> <CdId>
1453

> <Mol Weight>
334.3255

> <Formula>
C19H14N2O4

> <Click_ID>
CLK019_F08 __ __ 

$$$$
