CLK018_E10
 OpenBabel03181410512D

 26 28  0  0  0  0  0  0  0  0999 V2000
    0.8222   -0.3609    0.0000 C   0  0  0  0  0  0  0  0  0  0  0  0
    1.2470   -1.0460    0.0000 N   0  0  0  0  0  0  0  0  0  0  0  0
    0.8405   -1.7723    0.0000 C   0  0  0  0  0  0  0  0  0  0  0  0
    0.0046   -0.3837    0.0000 C   0  0  0  0  0  0  0  0  0  0  0  0
    1.1922    0.3791    0.0000 C   0  0  0  0  0  0  0  0  0  0  0  0
   -1.6581    1.0551    0.0000 C   0  0  0  0  0  0  0  0  0  0  0  0
    0.7172    2.4894    0.0000 C   0  0  0  0  0  0  0  0  0  0  0  0
    0.2924    3.1928    0.0000 C   0  0  0  0  0  0  0  0  0  0  0  0
   -1.2424    1.7905    0.0000 C   0  0  0  0  0  0  0  0  0  0  0  0
   -2.4620    1.2013    0.0000 O   0  0  0  0  0  0  0  0  0  0  0  0
   -0.4065    0.3426    0.0000 C   0  0  0  0  0  0  0  0  0  0  0  0
   -1.8316    2.4072    0.0000 O   0  0  0  0  0  0  0  0  0  0  0  0
   -2.5762    2.0509    0.0000 C   0  0  0  0  0  0  0  0  0  0  0  0
   -1.2424    0.3426    0.0000 C   0  0  0  0  0  0  0  0  0  0  0  0
    0.0046   -1.7860    0.0000 O   0  0  0  0  0  0  0  0  0  0  0  0
    1.2790   -2.4712    0.0000 C   0  0  0  0  0  0  0  0  0  0  0  0
    2.0144    0.4065    0.0000 O   0  0  0  0  0  0  0  0  0  0  0  0
   -0.4202    1.7905    0.0000 C   0  0  0  0  0  0  0  0  0  0  0  0
    0.7674    1.0779    0.0000 O   0  0  0  0  0  0  0  0  0  0  0  0
    0.0046    1.0551    0.0000 C   0  0  0  0  0  0  0  0  0  0  0  0
    1.1511    1.7905    0.0000 C   0  0  0  0  0  0  0  0  0  0  0  0
    2.0829   -2.4301    0.0000 C   0  0  0  0  0  0  0  0  0  0  0  0
    0.9090   -3.2202    0.0000 C   0  0  0  0  0  0  0  0  0  0  0  0
    2.5534   -3.1243    0.0000 C   0  0  0  0  0  0  0  0  0  0  0  0
    1.3566   -3.9100    0.0000 C   0  0  0  0  0  0  0  0  0  0  0  0
    2.1788   -3.8415    0.0000 C   0  0  0  0  0  0  0  0  0  0  0  0
  2  1  1  0  0  0  0
  3  2  1  0  0  0  0
  4  1  2  0  0  0  0
  5  1  1  0  0  0  0
  6 14  1  0  0  0  0
  6  9  2  0  0  0  0
  7 21  1  0  0  0  0
  8  7  3  0  0  0  0
  9 18  1  0  0  0  0
 10  6  1  0  0  0  0
 11  4  1  0  0  0  0
 12  9  1  0  0  0  0
 13 10  1  0  0  0  0
 13 12  1  0  0  0  0
 14 11  2  0  0  0  0
 15  3  2  0  0  0  0
 16  3  1  0  0  0  0
 17  5  2  0  0  0  0
 18 20  2  0  0  0  0
 19  5  1  0  0  0  0
 20 11  1  0  0  0  0
 21 19  1  0  0  0  0
 22 16  1  0  0  0  0
 23 16  2  0  0  0  0
 24 22  2  0  0  0  0
 25 23  1  0  0  0  0
 26 25  2  0  0  0  0
 26 24  1  0  0  0  0
M  END
> <CdId>
1365

> <Mol Weight>
349.3368

> <Formula>
C20H15NO5

> <Click_ID>
CLK018_E10 __ __ 

$$$$
