CLK038D02
 OpenBabel03181410512D

 15 16  0  0  0  0  0  0  0  0999 V2000
   -0.0583   -0.3000    0.0000 N   0  0  0  0  0  0  0  0  0  0  0  0
   -0.5417    0.3667    0.0000 C   0  0  0  0  0  0  0  0  0  0  0  0
   -0.0583    1.0375    0.0000 N   0  0  0  0  0  0  0  0  0  0  0  0
    0.7250   -0.0458    0.0000 C   0  0  0  0  0  0  0  0  0  0  0  0
    0.7250    0.7792    0.0000 N   0  0  0  0  0  0  0  0  0  0  0  0
   -1.3667    0.3667    0.0000 C   0  0  0  0  0  0  0  0  0  0  0  0
    2.8167   -0.6792    0.0000 C   0  0  0  0  0  0  0  0  0  0  0  0
    3.4833   -1.1625    0.0000 C   0  0  0  0  0  0  0  0  0  0  0  0
   -1.8542   -0.3000    0.0000 O   0  0  0  0  0  0  0  0  0  0  0  0
   -1.8542    1.0375    0.0000 C   0  0  0  0  0  0  0  0  0  0  0  0
    1.3958   -0.5292    0.0000 S   0  0  0  0  0  0  0  0  0  0  0  0
   -2.6375   -0.0458    0.0000 C   0  0  0  0  0  0  0  0  0  0  0  0
   -2.6375    0.7792    0.0000 C   0  0  0  0  0  0  0  0  0  0  0  0
   -0.3125   -1.0833    0.0000 C   0  0  0  0  0  0  0  0  0  0  0  0
    2.1458   -0.1958    0.0000 C   0  0  0  0  0  0  0  0  0  0  0  0
  2  1  1  0  0  0  0
  3  2  2  0  0  0  0
  3  5  1  0  0  0  0
  4  1  1  0  0  0  0
  5  4  2  0  0  0  0
  6  2  1  0  0  0  0
  7 15  1  0  0  0  0
  8  7  3  0  0  0  0
  9  6  1  0  0  0  0
 10  6  2  0  0  0  0
 11  4  1  0  0  0  0
 12  9  1  0  0  0  0
 12 13  2  0  0  0  0
 13 10  1  0  0  0  0
 14  1  1  0  0  0  0
 15 11  1  0  0  0  0
M  END
> <CdId>
2852

> <Mol Weight>
219.263

> <Formula>
C10H9N3OS

> <Click_ID>
CLK038D02 __ __ 

$$$$
