CLK023_A04
 OpenBabel03181410512D

 28 31  0  0  0  0  0  0  0  0999 V2000
   -2.1085    1.2073    0.0000 N   0  0  0  0  0  0  0  0  0  0  0  0
   -2.3630    2.0122    0.0000 C   0  0  0  0  0  0  0  0  0  0  0  0
   -1.2864    1.2073    0.0000 C   0  0  0  0  0  0  0  0  0  0  0  0
   -1.0216    1.9984    0.0000 C   0  0  0  0  0  0  0  0  0  0  0  0
    0.3715    1.6992    0.0000 C   0  0  0  0  0  0  0  0  0  0  0  0
   -1.6855    2.4903    0.0000 N   0  0  0  0  0  0  0  0  0  0  0  0
    1.5891    1.1454    0.0000 N   0  0  0  0  0  0  0  0  0  0  0  0
   -0.2305    2.2392    0.0000 C   0  0  0  0  0  0  0  0  0  0  0  0
    1.1867    1.8609    0.0000 C   0  0  0  0  0  0  0  0  0  0  0  0
    0.2855    0.8874    0.0000 C   0  0  0  0  0  0  0  0  0  0  0  0
    1.0319    0.5434    0.0000 C   0  0  0  0  0  0  0  0  0  0  0  0
   -2.5901    0.5366    0.0000 C   0  0  0  0  0  0  0  0  0  0  0  0
    2.7414    0.2924    0.0000 C   0  0  0  0  0  0  0  0  0  0  0  0
    3.1508   -0.4196    0.0000 C   0  0  0  0  0  0  0  0  0  0  0  0
   -3.1541    2.2736    0.0000 O   0  0  0  0  0  0  0  0  0  0  0  0
   -0.8049    0.5331    0.0000 O   0  0  0  0  0  0  0  0  0  0  0  0
    2.4146    1.0491    0.0000 C   0  0  0  0  0  0  0  0  0  0  0  0
   -2.2495   -0.2202    0.0000 C   0  0  0  0  0  0  0  0  0  0  0  0
   -1.5685   -1.7301    0.0000 C   0  0  0  0  0  0  0  0  0  0  0  0
   -1.2314   -2.4869    0.0000 F   0  0  0  0  0  0  0  0  0  0  0  0
   -1.4309   -0.2958    0.0000 C   0  0  0  0  0  0  0  0  0  0  0  0
   -2.7345   -0.8909    0.0000 C   0  0  0  0  0  0  0  0  0  0  0  0
   -2.3975   -1.6476    0.0000 C   0  0  0  0  0  0  0  0  0  0  0  0
   -1.0870   -1.0457    0.0000 C   0  0  0  0  0  0  0  0  0  0  0  0
    1.1076   -0.2683    0.0000 C   0  0  0  0  0  0  0  0  0  0  0  0
   -0.3783    0.4196    0.0000 C   0  0  0  0  0  0  0  0  0  0  0  0
    0.4437   -0.7430    0.0000 C   0  0  0  0  0  0  0  0  0  0  0  0
   -0.3061   -0.4024    0.0000 C   0  0  0  0  0  0  0  0  0  0  0  0
  2  1  1  0  0  0  0
  3  1  1  0  0  0  0
  4  3  1  0  0  0  0
  5  8  1  0  0  0  0
  6  2  1  0  0  0  0
  6  4  1  0  0  0  0
  7  9  1  0  0  0  0
  7 11  1  0  0  0  0
  8  4  2  0  0  0  0
  9  5  2  0  0  0  0
 10  5  1  0  0  0  0
 11 10  2  0  0  0  0
 12  1  1  0  0  0  0
 13 17  1  0  0  0  0
 14 13  3  0  0  0  0
 15  2  2  0  0  0  0
 16  3  2  0  0  0  0
 17  7  1  0  0  0  0
 18 12  1  0  0  0  0
 19 23  2  0  0  0  0
 19 24  1  0  0  0  0
 20 19  1  0  0  0  0
 21 18  1  0  0  0  0
 22 18  2  0  0  0  0
 23 22  1  0  0  0  0
 24 21  2  0  0  0  0
 25 11  1  0  0  0  0
 25 27  2  0  0  0  0
 26 10  1  0  0  0  0
 27 28  1  0  0  0  0
 28 26  2  0  0  0  0
M  END
> <CdId>
1699

> <Mol Weight>
373.3797

> <Formula>
C22H16FN3O2

> <Click_ID>
CLK023_A04 __ __ 

$$$$
