CLK041A05
 OpenBabel03181410512D

 27 28  0  0  0  0  0  0  0  0999 V2000
   -0.6375    1.5917    0.0000 C   0  0  0  0  0  0  0  0  0  0  0  0
    0.0792    1.1792    0.0000 N   0  0  0  0  0  0  0  0  0  0  0  0
    0.7917   -0.0583    0.0000 C   0  0  0  0  0  0  0  0  0  0  0  0
    0.7917   -0.8833    0.0000 C   0  0  0  0  0  0  0  0  0  0  0  0
    0.0792    0.3542    0.0000 C   0  0  3  0  0  0  0  0  0  0  0  0
    1.5042   -2.9458    0.0000 C   0  0  0  0  0  0  0  0  0  0  0  0
    1.5042   -3.7708    0.0000 C   0  0  0  0  0  0  0  0  0  0  0  0
    1.5042   -1.2958    0.0000 N   0  0  0  0  0  0  0  0  0  0  0  0
    1.5042   -2.1208    0.0000 C   0  0  0  0  0  0  0  0  0  0  0  0
   -1.3500    1.1792    0.0000 O   0  0  0  0  0  0  0  0  0  0  0  0
   -0.6375    2.4167    0.0000 C   0  0  0  0  0  0  0  0  0  0  0  0
    0.0792   -1.2958    0.0000 O   0  0  0  0  0  0  0  0  0  0  0  0
   -0.6375   -0.0583    0.0000 C   0  0  0  0  0  0  0  0  0  0  0  0
    2.3292   -2.1208    0.0000 C   0  0  0  0  0  0  0  0  0  0  0  0
    0.6792   -2.1208    0.0000 C   0  0  0  0  0  0  0  0  0  0  0  0
   -1.3500    2.8292    0.0000 C   0  0  0  0  0  0  0  0  0  0  0  0
    0.0792    2.8292    0.0000 C   0  0  0  0  0  0  0  0  0  0  0  0
   -1.3500    0.3542    0.0000 C   0  0  0  0  0  0  0  0  0  0  0  0
   -0.6375   -0.8833    0.0000 C   0  0  0  0  0  0  0  0  0  0  0  0
    2.7417   -2.8375    0.0000 C   0  0  0  0  0  0  0  0  0  0  0  0
    0.2667   -1.4083    0.0000 C   0  0  0  0  0  0  0  0  0  0  0  0
   -1.3500   -1.2958    0.0000 C   0  0  0  0  0  0  0  0  0  0  0  0
   -1.3500    3.6542    0.0000 C   0  0  0  0  0  0  0  0  0  0  0  0
    0.0792    3.6542    0.0000 C   0  0  0  0  0  0  0  0  0  0  0  0
   -2.0667   -0.0583    0.0000 C   0  0  0  0  0  0  0  0  0  0  0  0
   -0.6375    4.0625    0.0000 C   0  0  0  0  0  0  0  0  0  0  0  0
   -2.0667   -0.8833    0.0000 C   0  0  0  0  0  0  0  0  0  0  0  0
  2  1  1  0  0  0  0
  3  5  1  0  0  0  0
  4  3  1  0  0  0  0
  5  2  1  0  0  0  0
  6  9  1  0  0  0  0
  7  6  3  0  0  0  0
  8  4  1  0  0  0  0
  9  8  1  0  0  0  0
 10  1  2  0  0  0  0
 11  1  1  0  0  0  0
 12  4  2  0  0  0  0
 13  5  1  0  0  0  0
 14  9  1  0  0  0  0
 15  9  1  0  0  0  0
 16 11  2  0  0  0  0
 17 11  1  0  0  0  0
 18 13  1  0  0  0  0
 19 13  2  0  0  0  0
 20 14  1  0  0  0  0
 21 15  1  0  0  0  0
 22 19  1  0  0  0  0
 23 16  1  0  0  0  0
 24 17  2  0  0  0  0
 25 18  2  0  0  0  0
 26 23  2  0  0  0  0
 26 24  1  0  0  0  0
 27 22  2  0  0  0  0
 27 25  1  0  0  0  0
M  END
> <CdId>
3113

> <Mol Weight>
362.4647

> <Formula>
C23H26N2O2

> <Click_ID>
CLK041A05 __ __ 

$$$$
