CLK051A06
 OpenBabel03181410512D

 21 22  0  0  0  0  0  0  0  0999 V2000
   -0.3919    0.2543    0.0000 N   0  0  0  0  0  0  0  0  0  0  0  0
   -1.1756    0.0000    0.0000 C   0  0  0  0  0  0  0  0  0  0  0  0
   -1.6592    0.6671    0.0000 S   0  0  0  0  0  0  0  0  0  0  0  0
   -0.3919    1.0798    0.0000 C   0  0  0  0  0  0  0  0  0  0  0  0
   -1.1756    1.3340    0.0000 C   0  0  0  0  0  0  0  0  0  0  0  0
    3.8770    1.5300    0.0000 C   0  0  0  0  0  0  0  0  0  0  0  0
    4.6274    1.1923    0.0000 C   0  0  0  0  0  0  0  0  0  0  0  0
    1.7009    1.7134    0.0000 C   0  0  0  0  0  0  0  0  0  0  0  0
    0.2793    1.5675    0.0000 C   0  0  0  0  0  0  0  0  0  0  0  0
    1.0297    1.2298    0.0000 C   0  0  0  0  0  0  0  0  0  0  0  0
   -1.4300   -0.7837    0.0000 C   0  0  0  0  0  0  0  0  0  0  0  0
    1.6134    2.5346    0.0000 O   0  0  0  0  0  0  0  0  0  0  0  0
   -2.2387   -0.9547    0.0000 C   0  0  0  0  0  0  0  0  0  0  0  0
   -0.8797   -1.3965    0.0000 C   0  0  0  0  0  0  0  0  0  0  0  0
    2.4555    1.3799    0.0000 N   0  0  0  0  0  0  0  0  0  0  0  0
   -1.9385   -2.3554    0.0000 C   0  0  0  0  0  0  0  0  0  0  0  0
   -1.1339   -2.1845    0.0000 C   0  0  0  0  0  0  0  0  0  0  0  0
   -2.4930   -1.7426    0.0000 C   0  0  0  0  0  0  0  0  0  0  0  0
    3.1224    1.8635    0.0000 C   0  0  0  0  0  0  0  0  0  0  0  0
   -2.1970   -3.1392    0.0000 O   0  0  0  0  0  0  0  0  0  0  0  0
   -1.6426   -3.7520    0.0000 C   0  0  0  0  0  0  0  0  0  0  0  0
  2  1  2  0  0  0  0
  3  2  1  0  0  0  0
  3  5  1  0  0  0  0
  4  1  1  0  0  0  0
  5  4  2  0  0  0  0
  6 19  1  0  0  0  0
  7  6  3  0  0  0  0
  8 10  1  0  0  0  0
  9  4  1  0  0  0  0
 10  9  2  0  0  0  0
 11  2  1  0  0  0  0
 12  8  2  0  0  0  0
 13 11  2  0  0  0  0
 14 11  1  0  0  0  0
 15  8  1  0  0  0  0
 16 18  2  0  0  0  0
 17 14  2  0  0  0  0
 17 16  1  0  0  0  0
 18 13  1  0  0  0  0
 19 15  1  0  0  0  0
 20 16  1  0  0  0  0
 21 20  1  0  0  0  0
M  END
> <CdId>
3921

> <Mol Weight>
298.36

> <Formula>
C16H14N2O2S

> <Click_ID>
CLK051A06 __ __ 

$$$$
