CLK026_B07
 OpenBabel03181410512D

 27 30  0  0  0  0  0  0  0  0999 V2000
   -1.7529    1.8457    0.0000 N   0  0  0  0  0  0  0  0  0  0  0  0
   -2.5606    1.6841    0.0000 C   0  0  0  0  0  0  0  0  0  0  0  0
   -1.9075    0.5293    0.0000 C   0  0  0  0  0  0  0  0  0  0  0  0
   -1.3473    1.1274    0.0000 C   0  0  0  0  0  0  0  0  0  0  0  0
    0.3747   -0.5774    0.0000 N   0  0  0  0  0  0  0  0  0  0  0  0
   -0.9692   -0.5499    0.0000 C   0  0  0  0  0  0  0  0  0  0  0  0
   -2.6534    0.8627    0.0000 S   0  0  0  0  0  0  0  0  0  0  0  0
   -0.2852   -0.0756    0.0000 C   0  0  0  0  0  0  0  0  0  0  0  0
   -1.7460   -0.2819    0.0000 C   0  0  0  0  0  0  0  0  0  0  0  0
    0.0996   -1.3576    0.0000 C   0  0  0  0  0  0  0  0  0  0  0  0
   -0.7218   -1.3370    0.0000 C   0  0  0  0  0  0  0  0  0  0  0  0
   -0.5980    2.6671    0.0000 C   0  0  0  0  0  0  0  0  0  0  0  0
    1.1651   -0.3299    0.0000 C   0  0  0  0  0  0  0  0  0  0  0  0
    0.2234    2.7943    0.0000 C   0  0  0  0  0  0  0  0  0  0  0  0
   -3.1586    2.2443    0.0000 O   0  0  0  0  0  0  0  0  0  0  0  0
   -0.5327    1.0379    0.0000 O   0  0  0  0  0  0  0  0  0  0  0  0
   -1.4091    2.5846    0.0000 C   0  0  0  0  0  0  0  0  0  0  0  0
    1.7769   -0.8902    0.0000 C   0  0  0  0  0  0  0  0  0  0  0  0
    0.5087   -2.0725    0.0000 C   0  0  0  0  0  0  0  0  0  0  0  0
   -1.1480   -2.0450    0.0000 C   0  0  0  0  0  0  0  0  0  0  0  0
    2.5503   -0.6531    0.0000 C   0  0  0  0  0  0  0  0  0  0  0  0
    1.5810   -1.7116    0.0000 C   0  0  0  0  0  0  0  0  0  0  0  0
    0.0756   -2.7908    0.0000 C   0  0  0  0  0  0  0  0  0  0  0  0
   -0.7459   -2.7702    0.0000 C   0  0  0  0  0  0  0  0  0  0  0  0
    3.1551   -1.2270    0.0000 C   0  0  0  0  0  0  0  0  0  0  0  0
    2.1791   -2.2719    0.0000 C   0  0  0  0  0  0  0  0  0  0  0  0
    2.9627   -2.0347    0.0000 C   0  0  0  0  0  0  0  0  0  0  0  0
  2  1  1  0  0  0  0
  3  4  1  0  0  0  0
  4  1  1  0  0  0  0
  5  8  1  0  0  0  0
  6  9  1  0  0  0  0
  7  2  1  0  0  0  0
  7  3  1  0  0  0  0
  8  6  2  0  0  0  0
  9  3  2  0  0  0  0
 10 11  1  0  0  0  0
 10  5  1  0  0  0  0
 11  6  1  0  0  0  0
 12 17  1  0  0  0  0
 13  5  1  0  0  0  0
 14 12  3  0  0  0  0
 15  2  2  0  0  0  0
 16  4  2  0  0  0  0
 17  1  1  0  0  0  0
 18 13  1  0  0  0  0
 19 10  2  0  0  0  0
 20 11  2  0  0  0  0
 21 18  1  0  0  0  0
 22 18  2  0  0  0  0
 23 24  2  0  0  0  0
 23 19  1  0  0  0  0
 24 20  1  0  0  0  0
 25 21  2  0  0  0  0
 26 22  1  0  0  0  0
 27 26  2  0  0  0  0
 27 25  1  0  0  0  0
M  END
> <CdId>
1952

> <Mol Weight>
372.44

> <Formula>
C22H16N2O2S

> <Click_ID>
CLK026_B07 __ __ 

$$$$
