CLK050D03
 OpenBabel03181410512D

 19 20  0  0  0  0  0  0  0  0999 V2000
   -0.1542    1.6083    0.0000 N   0  0  0  0  0  0  0  0  0  0  0  0
   -0.8667    2.0208    0.0000 C   0  0  0  0  0  0  0  0  0  0  0  0
   -0.1542   -1.6917    0.0000 C   0  0  0  0  0  0  0  0  0  0  0  0
    1.2750   -3.3417    0.0000 C   0  0  0  0  0  0  0  0  0  0  0  0
    1.9917   -3.7542    0.0000 C   0  0  0  0  0  0  0  0  0  0  0  0
   -0.1542    0.7833    0.0000 C   0  0  0  0  0  0  0  0  0  0  0  0
   -0.1542   -0.8667    0.0000 C   0  0  0  0  0  0  0  0  0  0  0  0
   -1.5833    1.6083    0.0000 O   0  0  0  0  0  0  0  0  0  0  0  0
   -0.8667   -2.1042    0.0000 O   0  0  0  0  0  0  0  0  0  0  0  0
   -0.8667    0.3708    0.0000 C   0  0  0  0  0  0  0  0  0  0  0  0
    0.5625    0.3708    0.0000 C   0  0  0  0  0  0  0  0  0  0  0  0
   -0.8667   -0.4542    0.0000 C   0  0  0  0  0  0  0  0  0  0  0  0
    0.5625   -0.4542    0.0000 C   0  0  0  0  0  0  0  0  0  0  0  0
    0.5625   -2.1042    0.0000 N   0  0  0  0  0  0  0  0  0  0  0  0
    0.5625    2.0208    0.0000 C   0  0  0  0  0  0  0  0  0  0  0  0
    0.5625   -2.9292    0.0000 C   0  0  0  0  0  0  0  0  0  0  0  0
   -0.8667    2.8458    0.0000 C   0  0  0  0  0  0  0  0  0  0  0  0
    0.5625    2.8458    0.0000 C   0  0  0  0  0  0  0  0  0  0  0  0
   -0.1542    3.2583    0.0000 C   0  0  0  0  0  0  0  0  0  0  0  0
  2  1  1  0  0  0  0
  3  7  1  0  0  0  0
  4 16  1  0  0  0  0
  5  4  3  0  0  0  0
  6  1  1  0  0  0  0
  7 12  2  0  0  0  0
  8  2  2  0  0  0  0
  9  3  2  0  0  0  0
 10  6  2  0  0  0  0
 11  6  1  0  0  0  0
 12 10  1  0  0  0  0
 13 11  2  0  0  0  0
 13  7  1  0  0  0  0
 14  3  1  0  0  0  0
 15  1  1  0  0  0  0
 16 14  1  0  0  0  0
 17  2  1  0  0  0  0
 18 15  1  0  0  0  0
 19 17  1  0  0  0  0
 19 18  1  0  0  0  0
M  END
> <CdId>
3820

> <Mol Weight>
256.2997

> <Formula>
C15H16N2O2

> <Click_ID>
CLK050D03 __ __ 

$$$$
