CLK020_C10
 OpenBabel03181410512D

 17 19  0  0  0  0  0  0  0  0999 V2000
   -3.2034    0.4864    0.0000 C   0  0  0  0  0  0  0  0  0  0  0  0
   -3.6059    1.2076    0.0000 C   0  0  0  0  0  0  0  0  0  0  0  0
   -2.3774    0.4864    0.0000 N   0  0  0  0  0  0  0  0  0  0  0  0
   -2.3774    1.8952    0.0000 N   0  0  0  0  0  0  0  0  0  0  0  0
   -3.2034    1.9120    0.0000 C   0  0  0  0  0  0  0  0  0  0  0  0
   -3.7443   -0.1174    0.0000 S   0  0  0  0  0  0  0  0  0  0  0  0
   -4.4110    1.0272    0.0000 C   0  0  0  0  0  0  0  0  0  0  0  0
   -1.9832    1.2076    0.0000 C   0  0  0  0  0  0  0  0  0  0  0  0
   -4.4739    0.2474    0.0000 C   0  0  0  0  0  0  0  0  0  0  0  0
    0.1174    0.5492    0.0000 C   0  0  0  0  0  0  0  0  0  0  0  0
    0.9434    0.5661    0.0000 C   0  0  0  0  0  0  0  0  0  0  0  0
   -3.6059    2.6373    0.0000 N   0  0  0  0  0  0  0  0  0  0  0  0
   -1.1530    1.2285    0.0000 S   0  0  0  0  0  0  0  0  0  0  0  0
   -5.1531    1.3543    0.0000 C   0  0  0  0  0  0  0  0  0  0  0  0
   -5.2789    0.0461    0.0000 C   0  0  0  0  0  0  0  0  0  0  0  0
   -0.7254    0.5241    0.0000 C   0  0  0  0  0  0  0  0  0  0  0  0
   -5.6814    0.7044    0.0000 C   0  0  0  0  0  0  0  0  0  0  0  0
  2  1  2  0  0  0  0
  3  1  1  0  0  0  0
  4  8  1  0  0  0  0
  4  5  2  0  0  0  0
  5  2  1  0  0  0  0
  6  1  1  0  0  0  0
  7  2  1  0  0  0  0
  8  3  2  0  0  0  0
  9  6  1  0  0  0  0
  9  7  2  0  0  0  0
 10 16  1  0  0  0  0
 11 10  3  0  0  0  0
 12  5  1  0  0  0  0
 13  8  1  0  0  0  0
 14  7  1  0  0  0  0
 15  9  1  0  0  0  0
 16 13  1  0  0  0  0
 17 15  1  0  0  0  0
 17 14  1  0  0  0  0
M  END
> <CdId>
1505

> <Mol Weight>
261.366

> <Formula>
C12H11N3S2

> <Click_ID>
CLK020_C10 __ __ 

$$$$
