CLK023_E05
 OpenBabel03181410512D

 29 31  0  0  0  0  0  0  0  0999 V2000
   -1.0415    1.8664    0.0000 N   0  0  0  0  0  0  0  0  0  0  0  0
   -0.3300    0.6255    0.0000 C   0  0  0  0  0  0  0  0  0  0  0  0
   -1.0415    1.0380    0.0000 C   0  0  0  0  0  0  0  0  0  0  0  0
   -0.3265    2.2789    0.0000 C   0  0  0  0  0  0  0  0  0  0  0  0
    0.3884    1.8664    0.0000 N   0  0  0  0  0  0  0  0  0  0  0  0
    0.3884    1.0380    0.0000 C   0  0  0  0  0  0  0  0  0  0  0  0
   -0.3368   -0.1994    0.0000 C   0  0  0  0  0  0  0  0  0  0  0  0
    1.7908   -1.4402    0.0000 C   0  0  0  0  0  0  0  0  0  0  0  0
    1.0793   -1.8423    0.0000 C   0  0  0  0  0  0  0  0  0  0  0  0
    1.8011   -0.6152    0.0000 C   0  0  0  0  0  0  0  0  0  0  0  0
   -1.7530    2.2789    0.0000 C   0  0  0  0  0  0  0  0  0  0  0  0
    0.3747   -0.6152    0.0000 C   0  0  0  0  0  0  0  0  0  0  0  0
    3.1966   -3.1073    0.0000 C   0  0  0  0  0  0  0  0  0  0  0  0
   -0.3265    3.1073    0.0000 O   0  0  0  0  0  0  0  0  0  0  0  0
    3.9047   -3.5301    0.0000 C   0  0  0  0  0  0  0  0  0  0  0  0
   -1.7598    0.6290    0.0000 O   0  0  0  0  0  0  0  0  0  0  0  0
    1.0896   -0.1994    0.0000 C   0  0  0  0  0  0  0  0  0  0  0  0
    0.3747   -1.4230    0.0000 C   0  0  0  0  0  0  0  0  0  0  0  0
    1.1034    0.6187    0.0000 O   0  0  0  0  0  0  0  0  0  0  0  0
   -2.4817    1.8664    0.0000 C   0  0  0  0  0  0  0  0  0  0  0  0
   -1.7530    3.1107    0.0000 C   0  0  0  0  0  0  0  0  0  0  0  0
    1.0724   -2.6570    0.0000 I   0  0  0  0  0  0  0  0  0  0  0  0
    2.5195   -0.2269    0.0000 I   0  0  0  0  0  0  0  0  0  0  0  0
    2.4954   -1.8630    0.0000 O   0  0  0  0  0  0  0  0  0  0  0  0
   -3.1966    3.1107    0.0000 C   0  0  0  0  0  0  0  0  0  0  0  0
   -2.4817    3.5301    0.0000 C   0  0  0  0  0  0  0  0  0  0  0  0
   -3.1966    2.2789    0.0000 C   0  0  0  0  0  0  0  0  0  0  0  0
   -3.9081    3.5231    0.0000 F   0  0  0  0  0  0  0  0  0  0  0  0
    2.4954   -2.6810    0.0000 C   0  0  0  0  0  0  0  0  0  0  0  0
  2  3  1  0  0  0  0
  2  6  1  0  0  0  0
  3  1  1  0  0  0  0
  4  1  1  0  0  0  0
  5  4  1  0  0  0  0
  6  5  1  0  0  0  0
  7  2  2  0  0  0  0
  8  9  1  0  0  0  0
  9 18  2  0  0  0  0
 10 17  1  0  0  0  0
 10  8  2  0  0  0  0
 11  1  1  0  0  0  0
 12  7  1  0  0  0  0
 13 29  1  0  0  0  0
 14  4  2  0  0  0  0
 15 13  3  0  0  0  0
 16  3  2  0  0  0  0
 17 12  2  0  0  0  0
 18 12  1  0  0  0  0
 19  6  2  0  0  0  0
 20 11  1  0  0  0  0
 21 11  2  0  0  0  0
 22  9  1  0  0  0  0
 23 10  1  0  0  0  0
 24  8  1  0  0  0  0
 25 26  2  0  0  0  0
 25 27  1  0  0  0  0
 26 21  1  0  0  0  0
 27 20  2  0  0  0  0
 28 25  1  0  0  0  0
 29 24  1  0  0  0  0
M  END
> <CdId>
1740

> <Mol Weight>
616.1197

> <Formula>
C20H11FI2N2O4

> <Click_ID>
CLK023_E05 __ __ 

$$$$
