CLK006_B07
 OpenBabel03181410512D

 32 34  0  0  0  0  0  0  0  0999 V2000
   -0.4476   -1.1355    0.0000 C   0  0  3  0  0  0  0  0  0  0  0  0
    0.4982   -0.1947    0.0000 C   0  0  0  0  0  0  0  0  0  0  0  0
   -1.1987   -1.4187    0.0000 C   0  0  0  0  0  0  0  0  0  0  0  0
    0.1214   -1.4187    0.0000 C   0  0  0  0  0  0  0  0  0  0  0  0
   -1.2897   -0.4754    0.0000 C   0  0  0  0  0  0  0  0  0  0  0  0
    0.0430    0.5235    0.0000 C   0  0  0  0  0  0  0  0  0  0  0  0
    1.3706    0.0177    0.0000 C   0  0  0  0  0  0  0  0  0  0  0  0
   -1.1987   -2.1697    0.0000 C   0  0  0  0  0  0  0  0  0  0  0  0
   -1.7625   -1.1355    0.0000 C   0  0  0  0  0  0  0  0  0  0  0  0
    0.1214   -2.1697    0.0000 C   0  0  0  0  0  0  0  0  0  0  0  0
    1.0646   -1.3757    0.0000 C   0  0  0  0  0  0  0  0  0  0  0  0
   -1.0419    0.5235    0.0000 N   0  0  0  0  0  0  0  0  0  0  0  0
   -2.2355   -0.4754    0.0000 O   0  0  0  0  0  0  0  0  0  0  0  0
    0.1442    1.3049    0.0000 C   0  0  0  0  0  0  0  0  0  0  0  0
    1.5097    0.6120    0.0000 O   0  0  0  0  0  0  0  0  0  0  0  0
    2.0458   -0.0986    0.0000 O   0  0  0  0  0  0  0  0  0  0  0  0
   -0.4476   -2.5465    0.0000 O   0  0  0  0  0  0  0  0  0  0  0  0
   -1.7625   -2.5465    0.0000 C   0  0  0  0  0  0  0  0  0  0  0  0
   -2.5161   -1.4187    0.0000 C   0  0  0  0  0  0  0  0  0  0  0  0
    0.7814   -2.5465    0.0000 N   0  0  0  0  0  0  0  0  0  0  0  0
    1.8258   -1.3858    0.0000 N   0  0  0  0  0  0  0  0  0  0  0  0
   -1.5628    1.4237    0.0000 C   0  0  0  0  0  0  0  0  0  0  0  0
    0.7713    1.8409    0.0000 C   0  0  0  0  0  0  0  0  0  0  0  0
    2.2127    1.1101    0.0000 C   0  0  0  0  0  0  0  0  0  0  0  0
   -2.5161   -2.2658    0.0000 C   0  0  0  0  0  0  0  0  0  0  0  0
   -1.0419    2.3189    0.0000 C   0  0  0  0  0  0  0  0  0  0  0  0
    0.7713    2.6704    0.0000 O   0  0  0  0  0  0  0  0  0  0  0  0
    1.4971    1.4288    0.0000 O   0  0  0  0  0  0  0  0  0  0  0  0
    2.8095    0.7966    0.0000 C   0  0  0  0  0  0  0  0  0  0  0  0
   -1.5628    3.2116    0.0000 C   0  0  0  0  0  0  0  0  0  0  0  0
    1.4971    3.0826    0.0000 C   0  0  0  0  0  0  0  0  0  0  0  0
    1.4971    3.9121    0.0000 C   0  0  0  0  0  0  0  0  0  0  0  0
  1  2  1  0  0  0  0
  1  3  1  0  0  0  0
  1  4  1  0  0  0  0
  1  5  1  0  0  0  0
  2  6  2  0  0  0  0
  2  7  1  0  0  0  0
  3  8  1  0  0  0  0
  3  9  2  0  0  0  0
  4 10  2  0  0  0  0
  4 11  1  0  0  0  0
  5 12  1  0  0  0  0
  5 13  2  0  0  0  0
  6 14  1  0  0  0  0
  6 12  1  0  0  0  0
  7 15  1  0  0  0  0
  7 16  2  0  0  0  0
  8 17  1  0  0  0  0
  8 18  2  0  0  0  0
  9 19  1  0  0  0  0
 10 20  1  0  0  0  0
 10 17  1  0  0  0  0
 11 21  3  0  0  0  0
 12 22  1  0  0  0  0
 14 23  1  0  0  0  0
 15 24  1  0  0  0  0
 18 25  1  0  0  0  0
 19 25  2  0  0  0  0
 22 26  1  0  0  0  0
 23 27  1  0  0  0  0
 23 28  2  0  0  0  0
 24 29  1  0  0  0  0
 26 30  3  0  0  0  0
 27 31  1  0  0  0  0
 31 32  1  0  0  0  0
M  END
> <CdId>
416

> <Mol Weight>
435.4293

> <Formula>
C23H21N3O6

> <Click_ID>
CLK006_B07 __ __ 

$$$$
