CLK034_D09
 OpenBabel03181410512D

 26 28  0  0  0  0  0  0  0  0999 V2000
   -4.5928    2.5553    0.0000 C    0  0  0  0  0  0  0  0  0  0  0  0
   -3.8788    2.9770    0.0000 N    0  0  0  0  0  0  0  0  0  0  0  0
   -4.6847    1.7369    0.0000 N    0  0  0  0  0  0  0  0  0  0  0  0
   -5.3318    2.9018    0.0000 S    0  0  0  0  0  0  0  0  0  0  0  0
   -5.4947    1.5741    0.0000 C    0  0  0  0  0  0  0  0  0  0  0  0
   -5.8955    2.3006    0.0000 C    0  0  0  0  0  0  0  0  0  0  0  0
   -3.8788    3.8079    0.0000 C    0  0  0  0  0  0  0  0  0  0  0  0
   -0.9895    5.4613    0.0000 C    0  0  0  0  0  0  0  0  0  0  0  0
   -4.2546    0.3507    0.0000 C    0  0  0  0  0  0  0  0  0  0  0  0
   -4.4300   -0.4551    0.0000 C    0  0  0  0  0  0  0  0  0  0  0  0
   -3.1648    4.2212    0.0000 C    0  0  0  0  0  0  0  0  0  0  0  0
   -1.7244    5.0521    0.0000 C    0  0  0  0  0  0  0  0  0  0  0  0
   -5.9205    0.8726    0.0000 C    0  0  0  0  0  0  0  0  0  0  0  0
   -4.6053    4.2212    0.0000 O    0  0  0  0  0  0  0  0  0  0  0  0
   -0.2839    5.0354    0.0000 O    0  0  0  0  0  0  0  0  0  0  0  0
   -4.0667    1.1607    0.0000 C    0  0  0  0  0  0  0  0  0  0  0  0
   -3.1648    5.0396    0.0000 C    0  0  0  0  0  0  0  0  0  0  0  0
   -2.4509    3.8162    0.0000 C    0  0  0  0  0  0  0  0  0  0  0  0
   -2.4383    5.4530    0.0000 C    0  0  0  0  0  0  0  0  0  0  0  0
   -1.7286    4.2129    0.0000 C    0  0  0  0  0  0  0  0  0  0  0  0
   -5.5197    0.1461    0.0000 Cl   0  0  0  0  0  0  0  0  0  0  0  0
   -0.9979    6.2797    0.0000 O    0  0  0  0  0  0  0  0  0  0  0  0
   -6.7181    2.3131    0.0000 C    0  0  0  0  0  0  0  0  0  0  0  0
   -7.1440    1.6033    0.0000 C    0  0  0  0  0  0  0  0  0  0  0  0
   -6.7306    0.8768    0.0000 C    0  0  0  0  0  0  0  0  0  0  0  0
   -1.7118    6.7139    0.0000 C    0  0  0  0  0  0  0  0  0  0  0  0
  2  1  2  0  0  0  0
  3  1  1  0  0  0  0
  4  1  1  0  0  0  0
  5  3  1  0  0  0  0
  6  4  1  0  0  0  0
  6  5  2  0  0  0  0
  7  2  1  0  0  0  0
  8 12  1  0  0  0  0
  9 16  1  0  0  0  0
 10  9  3  0  0  0  0
 11  7  1  0  0  0  0
 12 20  2  0  0  0  0
 12 19  1  0  0  0  0
 13  5  1  0  0  0  0
 14  7  2  0  0  0  0
 15  8  2  0  0  0  0
 16  3  1  0  0  0  0
 17 11  1  0  0  0  0
 18 11  2  0  0  0  0
 19 17  2  0  0  0  0
 20 18  1  0  0  0  0
 21 13  1  0  0  0  0
 22  8  1  0  0  0  0
 23  6  1  0  0  0  0
 24 23  2  0  0  0  0
 25 13  2  0  0  0  0
 25 24  1  0  0  0  0
 26 22  1  0  0  0  0
M  END
> <CdId>
2603

> <Mol Weight>
384.836

> <Formula>
C19H13ClN2O3S

> <Click_ID>
CLK034_D09 __ __ 

$$$$
