CLK045C05
 OpenBabel03181410512D

 28 29  0  0  0  0  0  0  0  0999 V2000
   -0.3756    2.8422    0.0000 C   0  0  0  0  0  0  0  0  0  0  0  0
    0.4090    1.7612    0.0000 N   0  0  0  0  0  0  0  0  0  0  0  0
   -0.8639    2.1743    0.0000 O   0  0  0  0  0  0  0  0  0  0  0  0
    0.4090    2.5876    0.0000 C   0  0  0  0  0  0  0  0  0  0  0  0
   -0.3756    1.5067    0.0000 C   0  0  0  0  0  0  0  0  0  0  0  0
    1.3690   -4.7077    0.0000 C   0  0  0  0  0  0  0  0  0  0  0  0
    1.9198   -5.3213    0.0000 C   0  0  0  0  0  0  0  0  0  0  0  0
    0.5176   -2.6961    0.0000 C   0  0  0  0  0  0  0  0  0  0  0  0
   -0.6303    3.6267    0.0000 C   0  0  0  0  0  0  0  0  0  0  0  0
    0.2630   -3.4807    0.0000 N   0  0  0  0  0  0  0  0  0  0  0  0
   -0.3339   -0.6803    0.0000 C   0  0  0  0  0  0  0  0  0  0  0  0
    0.8138   -4.0943    0.0000 C   0  0  0  0  0  0  0  0  0  0  0  0
    1.3230   -2.5208    0.0000 O   0  0  0  0  0  0  0  0  0  0  0  0
   -1.1436   -0.8514    0.0000 O   0  0  0  0  0  0  0  0  0  0  0  0
    0.2171   -1.2938    0.0000 O   0  0  0  0  0  0  0  0  0  0  0  0
   -0.0793    4.2403    0.0000 C   0  0  0  0  0  0  0  0  0  0  0  0
   -1.4399    3.8020    0.0000 C   0  0  0  0  0  0  0  0  0  0  0  0
   -0.6303    0.7178    0.0000 C   0  0  0  0  0  0  0  0  0  0  0  0
   -0.0376   -2.0784    0.0000 C   0  0  0  0  0  0  0  0  0  0  0  0
   -0.0793    0.1044    0.0000 C   0  0  0  0  0  0  0  0  0  0  0  0
   -1.6945    4.5825    0.0000 C   0  0  0  0  0  0  0  0  0  0  0  0
   -0.3339    5.0250    0.0000 C   0  0  0  0  0  0  0  0  0  0  0  0
   -1.1436    5.1961    0.0000 C   0  0  0  0  0  0  0  0  0  0  0  0
    1.4274   -3.5433    0.0000 C   0  0  0  0  0  0  0  0  0  0  0  0
    0.2003   -4.6493    0.0000 C   0  0  0  0  0  0  0  0  0  0  0  0
   -1.3981    5.9806    0.0000 C   0  0  0  0  0  0  0  0  0  0  0  0
   -0.5843   -4.3906    0.0000 C   0  0  0  0  0  0  0  0  0  0  0  0
    2.2161   -3.7979    0.0000 C   0  0  0  0  0  0  0  0  0  0  0  0
  2  4  1  0  0  0  0
  2  5  2  0  0  0  0
  3  1  1  0  0  0  0
  4  1  2  0  0  0  0
  5  3  1  0  0  0  0
  6 12  1  0  0  0  0
  7  6  3  0  0  0  0
  8 19  1  0  0  0  0
  9  1  1  0  0  0  0
 10  8  1  0  0  0  0
 11 20  1  0  0  0  0
 12 10  1  0  0  0  0
 13  8  2  0  0  0  0
 14 11  2  0  0  0  0
 15 11  1  0  0  0  0
 16  9  1  0  0  0  0
 17  9  2  0  0  0  0
 18  5  1  0  0  0  0
 19 15  1  0  0  0  0
 20 18  1  0  0  0  0
 21 17  1  0  0  0  0
 22 16  2  0  0  0  0
 23 21  2  0  0  0  0
 23 22  1  0  0  0  0
 24 12  1  0  0  0  0
 25 12  1  0  0  0  0
 26 23  1  0  0  0  0
 27 25  1  0  0  0  0
 28 24  1  0  0  0  0
M  END
> <CdId>
3435

> <Mol Weight>
382.4528

> <Formula>
C22H26N2O4

> <Click_ID>
CLK045C05 __ __ 

$$$$
