CLK016_E11
 OpenBabel03181410512D

 23 24  0  0  0  0  0  0  0  0999 V2000
    1.5677   -0.8172    0.0000 N   0  0  0  0  0  0  0  0  0  0  0  0
    1.8262   -1.6052    0.0000 C   0  0  0  0  0  0  0  0  0  0  0  0
    2.2389   -0.3294    0.0000 C   0  0  0  0  0  0  0  0  0  0  0  0
    2.9061   -0.8172    0.0000 C   0  0  0  0  0  0  0  0  0  0  0  0
    2.6517   -1.6052    0.0000 S   0  0  0  0  0  0  0  0  0  0  0  0
    3.6941   -0.5629    0.0000 C   0  0  0  0  0  0  0  0  0  0  0  0
    4.2069    1.8512    0.0000 C   0  0  0  0  0  0  0  0  0  0  0  0
    3.4189    1.6093    0.0000 C   0  0  0  0  0  0  0  0  0  0  0  0
    3.8567    0.2460    0.0000 C   0  0  0  0  0  0  0  0  0  0  0  0
    4.8198    1.3008    0.0000 C   0  0  0  0  0  0  0  0  0  0  0  0
    0.6129    0.2460    0.0000 C   0  0  0  0  0  0  0  0  0  0  0  0
    0.3920    1.0465    0.0000 C   0  0  0  0  0  0  0  0  0  0  0  0
    1.3384   -2.2681    0.0000 O   0  0  0  0  0  0  0  0  0  0  0  0
    2.2306    0.4961    0.0000 O   0  0  0  0  0  0  0  0  0  0  0  0
    3.2521    0.7963    0.0000 C   0  0  0  0  0  0  0  0  0  0  0  0
    4.6447    0.5003    0.0000 C   0  0  0  0  0  0  0  0  0  0  0  0
    0.7880   -0.5629    0.0000 C   0  0  0  0  0  0  0  0  0  0  0  0
    6.2082    1.0089    0.0000 C   0  0  0  0  0  0  0  0  0  0  0  0
    6.9837    1.2716    0.0000 C   0  0  0  0  0  0  0  0  0  0  0  0
    4.3945    2.6600    0.0000 O   0  0  0  0  0  0  0  0  0  0  0  0
    2.8268    2.1514    0.0000 O   0  0  0  0  0  0  0  0  0  0  0  0
    5.5953    1.5593    0.0000 C   0  0  0  0  0  0  0  0  0  0  0  0
    2.0430    1.9095    0.0000 C   0  0  0  0  0  0  0  0  0  0  0  0
  2  1  1  0  0  0  0
  3  1  1  0  0  0  0
  4  3  1  0  0  0  0
  5  2  1  0  0  0  0
  5  4  1  0  0  0  0
  6  4  2  0  0  0  0
  7 10  1  0  0  0  0
  8 15  1  0  0  0  0
  8  7  2  0  0  0  0
  9  6  1  0  0  0  0
 10 16  2  0  0  0  0
 11 17  1  0  0  0  0
 12 11  3  0  0  0  0
 13  2  2  0  0  0  0
 14  3  2  0  0  0  0
 15  9  2  0  0  0  0
 16  9  1  0  0  0  0
 17  1  1  0  0  0  0
 18 22  1  0  0  0  0
 19 18  2  0  0  0  0
 20  7  1  0  0  0  0
 21  8  1  0  0  0  0
 22 10  1  0  0  0  0
 23 21  1  0  0  0  0
M  END
> <CdId>
1206

> <Mol Weight>
329.37

> <Formula>
C17H15NO4S

> <Click_ID>
CLK016_E11 __ __ 

$$$$
