CLK018_C10
 OpenBabel03181410512D

 23 25  0  0  0  0  0  0  0  0999 V2000
    1.5766   -0.8218    0.0000 N    0  0  0  0  0  0  0  0  0  0  0  0
    1.8365   -1.6143    0.0000 C    0  0  0  0  0  0  0  0  0  0  0  0
    2.9225   -0.8218    0.0000 C    0  0  0  0  0  0  0  0  0  0  0  0
    2.2516   -0.3313    0.0000 C    0  0  0  0  0  0  0  0  0  0  0  0
    2.6667   -1.6143    0.0000 S    0  0  0  0  0  0  0  0  0  0  0  0
    3.7150   -0.5660    0.0000 C    0  0  0  0  0  0  0  0  0  0  0  0
    5.5137   -1.6646    0.0000 C    0  0  0  0  0  0  0  0  0  0  0  0
    5.1196   -0.9560    0.0000 O    0  0  0  0  0  0  0  0  0  0  0  0
    4.3187   -1.1112    0.0000 C    0  0  0  0  0  0  0  0  0  0  0  0
    4.9728   -2.2684    0.0000 C    0  0  0  0  0  0  0  0  0  0  0  0
    0.6164    0.2473    0.0000 C    0  0  0  0  0  0  0  0  0  0  0  0
    4.2265   -1.9414    0.0000 C    0  0  0  0  0  0  0  0  0  0  0  0
    0.3942    1.0524    0.0000 C    0  0  0  0  0  0  0  0  0  0  0  0
    1.3459   -2.2810    0.0000 O    0  0  0  0  0  0  0  0  0  0  0  0
    6.3313   -1.7610    0.0000 C    0  0  0  0  0  0  0  0  0  0  0  0
    2.2432    0.4989    0.0000 O    0  0  0  0  0  0  0  0  0  0  0  0
    0.7925   -0.5660    0.0000 C    0  0  0  0  0  0  0  0  0  0  0  0
    6.6584   -2.5200    0.0000 C    0  0  0  0  0  0  0  0  0  0  0  0
    6.8219   -1.0986    0.0000 C    0  0  0  0  0  0  0  0  0  0  0  0
    7.9624   -1.9414    0.0000 C    0  0  0  0  0  0  0  0  0  0  0  0
    7.4760   -2.6080    0.0000 C    0  0  0  0  0  0  0  0  0  0  0  0
    7.6395   -1.1950    0.0000 C    0  0  0  0  0  0  0  0  0  0  0  0
    8.7842   -2.0503    0.0000 Br   0  0  0  0  0  0  0  0  0  0  0  0
  2  1  1  0  0  0  0
  3  4  1  0  0  0  0
  3  5  1  0  0  0  0
  4  1  1  0  0  0  0
  5  2  1  0  0  0  0
  6  3  2  0  0  0  0
  7  8  1  0  0  0  0
  7 10  2  0  0  0  0
  8  9  1  0  0  0  0
  9  6  1  0  0  0  0
 10 12  1  0  0  0  0
 11 17  1  0  0  0  0
 12  9  2  0  0  0  0
 13 11  3  0  0  0  0
 14  2  2  0  0  0  0
 15  7  1  0  0  0  0
 16  4  2  0  0  0  0
 17  1  1  0  0  0  0
 18 15  2  0  0  0  0
 19 15  1  0  0  0  0
 20 22  1  0  0  0  0
 21 18  1  0  0  0  0
 21 20  2  0  0  0  0
 22 19  2  0  0  0  0
 23 20  1  0  0  0  0
M  END
> <CdId>
1345

> <Mol Weight>
388.235

> <Formula>
C17H10BrNO3S

> <Click_ID>
CLK018_C10 __ __ 

$$$$
