CLK003_F07
 OpenBabel03181410512D

 32 35  0  0  0  0  0  0  0  0999 V2000
    0.0435   -0.5194    0.0000 C   0  0  0  0  0  0  0  0  0  0  0  0
    0.0435    0.3020    0.0000 C   0  0  0  0  0  0  0  0  0  0  0  0
   -0.6716   -0.9470    0.0000 N   0  0  0  0  0  0  0  0  0  0  0  0
    0.7634   -0.9470    0.0000 N   0  0  0  0  0  0  0  0  0  0  0  0
   -0.6716    0.7271    0.0000 C   0  0  0  0  0  0  0  0  0  0  0  0
    0.7634    0.7271    0.0000 C   0  0  0  0  0  0  0  0  0  0  0  0
   -1.4108   -0.5194    0.0000 C   0  0  0  0  0  0  0  0  0  0  0  0
   -0.6716   -1.7708    0.0000 C   0  0  0  0  0  0  0  0  0  0  0  0
    1.5026   -0.5194    0.0000 C   0  0  0  0  0  0  0  0  0  0  0  0
    0.7634   -1.7708    0.0000 C   0  0  0  0  0  0  0  0  0  0  0  0
   -0.6716    1.5485    0.0000 C   0  0  0  0  0  0  0  0  0  0  0  0
    0.7634    1.5485    0.0000 C   0  0  0  0  0  0  0  0  0  0  0  0
   -2.1259   -0.9180    0.0000 C   0  0  0  0  0  0  0  0  0  0  0  0
    0.0435   -2.1984    0.0000 C   0  0  0  0  0  0  0  0  0  0  0  0
    2.2201   -0.9180    0.0000 C   0  0  0  0  0  0  0  0  0  0  0  0
    0.0435    1.9737    0.0000 C   0  0  0  0  0  0  0  0  0  0  0  0
   -1.4108    1.9737    0.0000 O   0  0  0  0  0  0  0  0  0  0  0  0
   -2.1259   -1.7708    0.0000 C   0  0  0  0  0  0  0  0  0  0  0  0
   -2.8458   -0.5194    0.0000 C   0  0  0  0  0  0  0  0  0  0  0  0
    2.2201   -1.7708    0.0000 C   0  0  0  0  0  0  0  0  0  0  0  0
    2.9401   -0.5194    0.0000 C   0  0  0  0  0  0  0  0  0  0  0  0
    0.0435    2.7951    0.0000 O   0  0  0  0  0  0  0  0  0  0  0  0
   -2.1259    1.5751    0.0000 C   0  0  0  0  0  0  0  0  0  0  0  0
   -2.8458   -2.1694    0.0000 C   0  0  0  0  0  0  0  0  0  0  0  0
   -3.5681   -0.9180    0.0000 C   0  0  0  0  0  0  0  0  0  0  0  0
    2.9401   -2.1694    0.0000 C   0  0  0  0  0  0  0  0  0  0  0  0
    3.6624   -0.9180    0.0000 C   0  0  0  0  0  0  0  0  0  0  0  0
    0.7634    3.2227    0.0000 C   0  0  0  0  0  0  0  0  0  0  0  0
   -3.5681   -1.7708    0.0000 C   0  0  0  0  0  0  0  0  0  0  0  0
    3.6624   -1.7708    0.0000 C   0  0  0  0  0  0  0  0  0  0  0  0
    0.7634    4.0465    0.0000 C   0  0  0  0  0  0  0  0  0  0  0  0
    0.7634    4.8969    0.0000 C   0  0  0  0  0  0  0  0  0  0  0  0
  1  2  1  0  0  0  0
  1  3  1  0  0  0  0
  1  4  1  0  0  0  0
  2  5  2  0  0  0  0
  2  6  1  0  0  0  0
  3  7  1  0  0  0  0
  3  8  1  0  0  0  0
  4  9  1  0  0  0  0
  4 10  1  0  0  0  0
  5 11  1  0  0  0  0
  6 12  2  0  0  0  0
  7 13  1  0  0  0  0
  8 14  1  0  0  0  0
  9 15  1  0  0  0  0
 10 14  1  0  0  0  0
 11 16  2  0  0  0  0
 11 17  1  0  0  0  0
 12 16  1  0  0  0  0
 13 18  2  0  0  0  0
 13 19  1  0  0  0  0
 15 20  1  0  0  0  0
 15 21  2  0  0  0  0
 16 22  1  0  0  0  0
 17 23  1  0  0  0  0
 18 24  1  0  0  0  0
 19 25  2  0  0  0  0
 20 26  2  0  0  0  0
 21 27  1  0  0  0  0
 22 28  1  0  0  0  0
 24 29  2  0  0  0  0
 25 29  1  0  0  0  0
 26 30  1  0  0  0  0
 27 30  2  0  0  0  0
 28 31  1  0  0  0  0
 31 32  3  0  0  0  0
M  END
> <CdId>
216

> <Mol Weight>
426.55

> <Formula>
C28H30N2O2

> <Click_ID>
CLK003_F07 __ __ 

$$$$
