CLK039F08
 OpenBabel03181410512D

 19 20  0  0  0  0  0  0  0  0999 V2000
   -1.3917   -0.0333    0.0000 S   0  0  0  0  0  0  0  0  0  0  0  0
    1.9083   -0.0333    0.0000 N   0  0  0  0  0  0  0  0  0  0  0  0
    2.3917   -0.7000    0.0000 C   0  0  0  0  0  0  0  0  0  0  0  0
   -0.5667   -0.0333    0.0000 C   0  0  0  0  0  0  0  0  0  0  0  0
   -3.4542    0.6792    0.0000 C   0  0  0  0  0  0  0  0  0  0  0  0
    1.0833   -0.0333    0.0000 C   0  0  0  0  0  0  0  0  0  0  0  0
   -4.2792    0.6792    0.0000 C   0  0  0  0  0  0  0  0  0  0  0  0
   -1.3917   -0.8583    0.0000 O   0  0  0  0  0  0  0  0  0  0  0  0
   -1.3917    0.7917    0.0000 O   0  0  0  0  0  0  0  0  0  0  0  0
   -2.2167   -0.0333    0.0000 N   0  0  0  0  0  0  0  0  0  0  0  0
    2.1375   -1.4875    0.0000 O   0  0  0  0  0  0  0  0  0  0  0  0
   -0.1542    0.6792    0.0000 C   0  0  0  0  0  0  0  0  0  0  0  0
   -0.1542   -0.7500    0.0000 C   0  0  0  0  0  0  0  0  0  0  0  0
    0.6708    0.6792    0.0000 C   0  0  0  0  0  0  0  0  0  0  0  0
    0.6708   -0.7500    0.0000 C   0  0  0  0  0  0  0  0  0  0  0  0
    2.3917    0.6333    0.0000 C   0  0  0  0  0  0  0  0  0  0  0  0
   -2.6292    0.6792    0.0000 C   0  0  0  0  0  0  0  0  0  0  0  0
    3.1750   -0.4458    0.0000 C   0  0  0  0  0  0  0  0  0  0  0  0
    3.1750    0.3792    0.0000 C   0  0  0  0  0  0  0  0  0  0  0  0
  2  6  1  0  0  0  0
  3  2  1  0  0  0  0
  4  1  1  0  0  0  0
  5 17  1  0  0  0  0
  6 15  2  0  0  0  0
  7  5  3  0  0  0  0
  8  1  2  0  0  0  0
  9  1  2  0  0  0  0
 10  1  1  0  0  0  0
 11  3  2  0  0  0  0
 12  4  1  0  0  0  0
 13  4  2  0  0  0  0
 14 12  2  0  0  0  0
 14  6  1  0  0  0  0
 15 13  1  0  0  0  0
 16  2  1  0  0  0  0
 17 10  1  0  0  0  0
 18  3  1  0  0  0  0
 19 16  1  0  0  0  0
 19 18  1  0  0  0  0
M  END
> <CdId>
2982

> <Mol Weight>
278.327

> <Formula>
C13H14N2O3S

> <Click_ID>
CLK039F08 __ __ 

$$$$
