CLK044G02
 OpenBabel03181410512D

 24 26  0  0  0  0  0  0  0  0999 V2000
   -2.1167    0.0750    0.0000 N   0  0  0  0  0  0  0  0  0  0  0  0
   -1.6333   -0.5917    0.0000 C   0  0  0  0  0  0  0  0  0  0  0  0
   -2.1167   -1.2625    0.0000 O   0  0  0  0  0  0  0  0  0  0  0  0
   -2.9000   -0.1792    0.0000 C   0  0  0  0  0  0  0  0  0  0  0  0
   -2.9000   -1.0042    0.0000 C   0  0  0  0  0  0  0  0  0  0  0  0
   -0.8083   -0.5917    0.0000 C   0  0  0  0  0  0  0  0  0  0  0  0
    4.1417   -0.5917    0.0000 C   0  0  0  0  0  0  0  0  0  0  0  0
    4.9667   -0.5917    0.0000 C   0  0  0  0  0  0  0  0  0  0  0  0
    1.6667    0.8375    0.0000 C   0  0  0  0  0  0  0  0  0  0  0  0
   -0.3958    0.1208    0.0000 C   0  0  0  0  0  0  0  0  0  0  0  0
    2.0792    0.1208    0.0000 C   0  0  0  0  0  0  0  0  0  0  0  0
    0.8417    0.8375    0.0000 C   0  0  0  0  0  0  0  0  0  0  0  0
    0.4292    0.1208    0.0000 C   0  0  0  0  0  0  0  0  0  0  0  0
    1.6667   -0.5917    0.0000 C   0  0  0  0  0  0  0  0  0  0  0  0
    0.8417   -0.5917    0.0000 C   0  0  0  0  0  0  0  0  0  0  0  0
    2.0792    1.5500    0.0000 O   0  0  0  0  0  0  0  0  0  0  0  0
    2.9042    0.1208    0.0000 O   0  0  0  0  0  0  0  0  0  0  0  0
    3.3167   -0.5917    0.0000 C   0  0  0  0  0  0  0  0  0  0  0  0
   -3.6167    0.2333    0.0000 C   0  0  0  0  0  0  0  0  0  0  0  0
   -3.6167   -1.4167    0.0000 C   0  0  0  0  0  0  0  0  0  0  0  0
    1.6667    2.2667    0.0000 C   0  0  0  0  0  0  0  0  0  0  0  0
    2.0792    2.9792    0.0000 C   0  0  0  0  0  0  0  0  0  0  0  0
   -4.3292   -0.1792    0.0000 C   0  0  0  0  0  0  0  0  0  0  0  0
   -4.3292   -1.0042    0.0000 C   0  0  0  0  0  0  0  0  0  0  0  0
  2  1  2  0  0  0  0
  3  2  1  0  0  0  0
  3  5  1  0  0  0  0
  4  1  1  0  0  0  0
  5  4  2  0  0  0  0
  6  2  1  0  0  0  0
  7 18  1  0  0  0  0
  8  7  3  0  0  0  0
  9 12  1  0  0  0  0
 10  6  2  0  0  0  0
 11 14  1  0  0  0  0
 11  9  2  0  0  0  0
 12 13  2  0  0  0  0
 13 10  1  0  0  0  0
 14 15  2  0  0  0  0
 15 13  1  0  0  0  0
 16  9  1  0  0  0  0
 17 11  1  0  0  0  0
 18 17  1  0  0  0  0
 19  4  1  0  0  0  0
 20  5  1  0  0  0  0
 21 16  1  0  0  0  0
 22 21  1  0  0  0  0
 23 19  2  0  0  0  0
 24 20  2  0  0  0  0
 24 23  1  0  0  0  0
M  END
> <CdId>
3335

> <Mol Weight>
319.3539

> <Formula>
C20H17NO3

> <Click_ID>
CLK044G02 __ __ 

$$$$
