CLK007_H06
 OpenBabel03181410512D

 23 25  0  0  0  0  0  0  0  0999 V2000
    0.2174   -0.4488    0.0000 C   0  0  0  0  0  0  0  0  0  0  0  0
    0.9320   -0.0379    0.0000 C   0  0  3  0  0  0  0  0  0  0  0  0
    0.2174   -1.2669    0.0000 C   0  0  0  0  0  0  0  0  0  0  0  0
   -0.4971   -0.0276    0.0000 C   0  0  0  0  0  0  0  0  0  0  0  0
    0.9320    0.7871    0.0000 C   0  0  0  0  0  0  0  0  0  0  0  0
    1.6432   -0.4419    0.0000 C   0  0  0  0  0  0  0  0  0  0  0  0
   -0.4971   -1.6811    0.0000 N   0  0  0  0  0  0  0  0  0  0  0  0
    0.9320   -1.6811    0.0000 N   0  0  0  0  0  0  0  0  0  0  0  0
   -1.2013   -0.4488    0.0000 N   0  0  0  0  0  0  0  0  0  0  0  0
   -0.4971    0.7975    0.0000 O   0  0  0  0  0  0  0  0  0  0  0  0
    1.6432    1.1979    0.0000 C   0  0  0  0  0  0  0  0  0  0  0  0
    0.2174    1.1979    0.0000 C   0  0  0  0  0  0  0  0  0  0  0  0
    1.6432   -1.2669    0.0000 C   0  0  0  0  0  0  0  0  0  0  0  0
   -1.2013   -1.2773    0.0000 C   0  0  0  0  0  0  0  0  0  0  0  0
    1.6432    2.0229    0.0000 C   0  0  0  0  0  0  0  0  0  0  0  0
    0.2036    2.0160    0.0000 C   0  0  0  0  0  0  0  0  0  0  0  0
    2.3578   -1.6811    0.0000 O   0  0  0  0  0  0  0  0  0  0  0  0
   -1.9228   -1.6880    0.0000 S   0  0  0  0  0  0  0  0  0  0  0  0
    0.9251    2.4372    0.0000 C   0  0  0  0  0  0  0  0  0  0  0  0
   -2.6339   -1.2773    0.0000 C   0  0  0  0  0  0  0  0  0  0  0  0
    0.9182    3.2622    0.0000 F   0  0  0  0  0  0  0  0  0  0  0  0
   -2.6339   -0.4488    0.0000 C   0  0  0  0  0  0  0  0  0  0  0  0
   -3.3485   -0.0379    0.0000 C   0  0  0  0  0  0  0  0  0  0  0  0
  1  2  1  0  0  0  0
  1  3  2  0  0  0  0
  1  4  1  0  0  0  0
  2  5  1  0  0  0  0
  2  6  1  0  0  0  0
  3  7  1  0  0  0  0
  3  8  1  0  0  0  0
  4  9  1  0  0  0  0
  4 10  2  0  0  0  0
  5 11  2  0  0  0  0
  5 12  1  0  0  0  0
  6 13  1  0  0  0  0
  7 14  2  0  0  0  0
  8 13  1  0  0  0  0
  9 14  1  0  0  0  0
 11 15  1  0  0  0  0
 12 16  2  0  0  0  0
 13 17  2  0  0  0  0
 14 18  1  0  0  0  0
 15 19  2  0  0  0  0
 16 19  1  0  0  0  0
 18 20  1  0  0  0  0
 19 21  1  0  0  0  0
 20 22  1  0  0  0  0
 22 23  3  0  0  0  0
M  END
> <CdId>
555

> <Mol Weight>
329.349

> <Formula>
C16H12FN3O2S

> <Click_ID>
CLK007_H06 __ __ 

$$$$
