CLK028_B02
 OpenBabel03181410512D

 29 30  0  0  0  0  0  0  0  0999 V2000
   -0.3678    0.8284    0.0000 C    0  0  0  0  0  0  0  0  0  0  0  0
   -1.0827    1.2409    0.0000 C    0  0  0  0  0  0  0  0  0  0  0  0
    0.3506    1.2409    0.0000 C    0  0  0  0  0  0  0  0  0  0  0  0
   -1.8011    0.8284    0.0000 N    0  0  0  0  0  0  0  0  0  0  0  0
    1.0656    0.8284    0.0000 C    0  0  0  0  0  0  0  0  0  0  0  0
   -2.5126    1.2409    0.0000 C    0  0  0  0  0  0  0  0  0  0  0  0
   -3.2207    0.8284    0.0000 C    0  0  0  0  0  0  0  0  0  0  0  0
   -0.3678   -0.0068    0.0000 C    0  0  0  0  0  0  0  0  0  0  0  0
    2.4989    0.8146    0.0000 C    0  0  0  0  0  0  0  0  0  0  0  0
    1.7908    1.2409    0.0000 C    0  0  0  0  0  0  0  0  0  0  0  0
   -0.3678   -0.8284    0.0000 N    0  0  0  0  0  0  0  0  0  0  0  0
    2.4989   -0.0068    0.0000 C    0  0  0  0  0  0  0  0  0  0  0  0
    1.0759   -0.0068    0.0000 C    0  0  0  0  0  0  0  0  0  0  0  0
    3.9322   -1.6602    0.0000 C    0  0  0  0  0  0  0  0  0  0  0  0
    1.7908   -0.4193    0.0000 C    0  0  0  0  0  0  0  0  0  0  0  0
    4.6437   -2.0727    0.0000 C    0  0  0  0  0  0  0  0  0  0  0  0
   -1.0827    2.0623    0.0000 O    0  0  0  0  0  0  0  0  0  0  0  0
   -3.9356    1.2409    0.0000 C    0  0  0  0  0  0  0  0  0  0  0  0
    1.7908    2.0623    0.0000 Br   0  0  0  0  0  0  0  0  0  0  0  0
   -4.6471    0.8284    0.0000 Cl   0  0  0  0  0  0  0  0  0  0  0  0
    3.2104   -0.4193    0.0000 O    0  0  0  0  0  0  0  0  0  0  0  0
    1.7908   -1.2409    0.0000 O    0  0  0  0  0  0  0  0  0  0  0  0
    3.2241   -1.2409    0.0000 C    0  0  0  0  0  0  0  0  0  0  0  0
   -2.5126    2.0658    0.0000 C    0  0  0  0  0  0  0  0  0  0  0  0
   -3.2207    0.0068    0.0000 C    0  0  0  0  0  0  0  0  0  0  0  0
   -3.2207    2.4783    0.0000 C    0  0  0  0  0  0  0  0  0  0  0  0
   -3.9459    2.0658    0.0000 C    0  0  0  0  0  0  0  0  0  0  0  0
    1.0759   -1.6533    0.0000 C    0  0  0  0  0  0  0  0  0  0  0  0
    1.0759   -2.4748    0.0000 C    0  0  0  0  0  0  0  0  0  0  0  0
  2  1  1  0  0  0  0
  3  1  2  0  0  0  0
  4  2  1  0  0  0  0
  5  3  1  0  0  0  0
  6  4  1  0  0  0  0
  7  6  1  0  0  0  0
  8  1  1  0  0  0  0
  9 10  1  0  0  0  0
 10  5  2  0  0  0  0
 11  8  3  0  0  0  0
 12 15  1  0  0  0  0
 12  9  2  0  0  0  0
 13  5  1  0  0  0  0
 14 23  1  0  0  0  0
 15 13  2  0  0  0  0
 16 14  3  0  0  0  0
 17  2  2  0  0  0  0
 18  7  2  0  0  0  0
 19 10  1  0  0  0  0
 20 18  1  0  0  0  0
 21 12  1  0  0  0  0
 22 15  1  0  0  0  0
 23 21  1  0  0  0  0
 24  6  2  0  0  0  0
 25  7  1  0  0  0  0
 26 24  1  0  0  0  0
 27 26  2  0  0  0  0
 27 18  1  0  0  0  0
 28 22  1  0  0  0  0
 29 28  1  0  0  0  0
M  END
> <CdId>
2096

> <Mol Weight>
473.747

> <Formula>
C22H18BrClN2O3

> <Click_ID>
CLK028_B02 __ __ 

$$$$
