CLK034_D05
 OpenBabel03181410512D

 34 36  0  0  0  0  0  0  0  0999 V2000
   -4.5918    2.5561    0.0000 C   0  0  0  0  0  0  0  0  0  0  0  0
   -1.0075    5.4620    0.0000 S   0  0  0  0  0  0  0  0  0  0  0  0
   -3.8592    2.9807    0.0000 N   0  0  0  0  0  0  0  0  0  0  0  0
   -4.6834    1.7318    0.0000 N   0  0  0  0  0  0  0  0  0  0  0  0
   -5.3162    2.8975    0.0000 S   0  0  0  0  0  0  0  0  0  0  0  0
   -5.4911    1.5819    0.0000 C   0  0  0  0  0  0  0  0  0  0  0  0
   -5.8907    2.3064    0.0000 C   0  0  0  0  0  0  0  0  0  0  0  0
   -3.8675    3.7968    0.0000 C   0  0  0  0  0  0  0  0  0  0  0  0
   -1.7235    5.0373    0.0000 C   0  0  0  0  0  0  0  0  0  0  0  0
   -0.2955    5.8741    0.0000 N   0  0  0  0  0  0  0  0  0  0  0  0
   -1.0241    8.7591    0.0000 N   0  0  0  0  0  0  0  0  0  0  0  0
    2.5770    5.0706    0.0000 N   0  0  0  0  0  0  0  0  0  0  0  0
   -4.2671    0.3580    0.0000 C   0  0  0  0  0  0  0  0  0  0  0  0
   -0.5870    4.7376    0.0000 O   0  0  0  0  0  0  0  0  0  0  0  0
   -1.4321    6.1738    0.0000 O   0  0  0  0  0  0  0  0  0  0  0  0
   -4.4544   -0.4538    0.0000 C   0  0  0  0  0  0  0  0  0  0  0  0
   -1.0324    7.9348    0.0000 C   0  0  0  0  0  0  0  0  0  0  0  0
    1.8526    5.4745    0.0000 C   0  0  0  0  0  0  0  0  0  0  0  0
   -3.1556    4.2089    0.0000 C   0  0  0  0  0  0  0  0  0  0  0  0
   -4.5793    4.2089    0.0000 O   0  0  0  0  0  0  0  0  0  0  0  0
   -5.9199    0.8826    0.0000 C   0  0  0  0  0  0  0  0  0  0  0  0
   -4.0798    1.1615    0.0000 C   0  0  0  0  0  0  0  0  0  0  0  0
   -1.7193    4.2089    0.0000 C   0  0  0  0  0  0  0  0  0  0  0  0
   -2.4437    5.4370    0.0000 C   0  0  0  0  0  0  0  0  0  0  0  0
   -3.1473    5.0248    0.0000 C   0  0  0  0  0  0  0  0  0  0  0  0
   -2.4229    3.7968    0.0000 C   0  0  0  0  0  0  0  0  0  0  0  0
    1.1282    5.8866    0.0000 C   0  0  0  0  0  0  0  0  0  0  0  0
   -1.0199    7.0981    0.0000 C   0  0  0  0  0  0  0  0  0  0  0  0
   -6.7068    2.3313    0.0000 C   0  0  0  0  0  0  0  0  0  0  0  0
   -0.2997    6.6985    0.0000 C   0  0  0  0  0  0  0  0  0  0  0  0
    0.4163    5.4620    0.0000 C   0  0  0  0  0  0  0  0  0  0  0  0
   -7.1356    1.6236    0.0000 C   0  0  0  0  0  0  0  0  0  0  0  0
   -6.7234    0.8951    0.0000 C   0  0  0  0  0  0  0  0  0  0  0  0
   -5.5285    0.1499    0.0000 C   0  0  0  0  0  0  0  0  0  0  0  0
  2  9  1  0  0  0  0
  3  1  2  0  0  0  0
  4  1  1  0  0  0  0
  5  1  1  0  0  0  0
  6  4  1  0  0  0  0
  7  5  1  0  0  0  0
  7  6  2  0  0  0  0
  8  3  1  0  0  0  0
  9 23  2  0  0  0  0
  9 24  1  0  0  0  0
 10  2  1  0  0  0  0
 11 17  3  0  0  0  0
 12 18  3  0  0  0  0
 13 22  1  0  0  0  0
 14  2  2  0  0  0  0
 15  2  2  0  0  0  0
 16 13  3  0  0  0  0
 17 28  1  0  0  0  0
 18 27  1  0  0  0  0
 19  8  1  0  0  0  0
 20  8  2  0  0  0  0
 21  6  1  0  0  0  0
 22  4  1  0  0  0  0
 23 26  1  0  0  0  0
 24 25  2  0  0  0  0
 25 19  1  0  0  0  0
 26 19  2  0  0  0  0
 27 31  1  0  0  0  0
 28 30  1  0  0  0  0
 29  7  1  0  0  0  0
 30 10  1  0  0  0  0
 31 10  1  0  0  0  0
 32 29  2  0  0  0  0
 33 21  2  0  0  0  0
 33 32  1  0  0  0  0
 34 21  1  0  0  0  0
M  END
> <CdId>
2599

> <Mol Weight>
491.585

> <Formula>
C24H21N5O3S2

> <Click_ID>
CLK034_D05 __ __ 

$$$$
