CLK026_G08
 OpenBabel03181410512D

 21 22  0  0  0  0  0  0  0  0999 V2000
    1.8352   -0.0274    0.0000 N   0  0  0  0  0  0  0  0  0  0  0  0
    1.5093    0.7101    0.0000 C   0  0  0  0  0  0  0  0  0  0  0  0
    0.5214   -0.1818    0.0000 C   0  0  0  0  0  0  0  0  0  0  0  0
    1.2281   -0.5831    0.0000 C   0  0  0  0  0  0  0  0  0  0  0  0
    0.6827    0.6175    0.0000 S   0  0  0  0  0  0  0  0  0  0  0  0
   -3.0426   -0.5934    0.0000 N   0  3  0  0  0  0  0  0  0  0  0  0
   -0.1921   -0.5934    0.0000 C   0  0  0  0  0  0  0  0  0  0  0  0
   -0.9159   -0.1818    0.0000 C   0  0  0  0  0  0  0  0  0  0  0  0
   -2.3326   -0.1681    0.0000 C   0  0  0  0  0  0  0  0  0  0  0  0
   -1.6328   -0.5900    0.0000 C   0  0  0  0  0  0  0  0  0  0  0  0
    3.1833    0.4322    0.0000 C   0  0  0  0  0  0  0  0  0  0  0  0
    3.7424    1.0565    0.0000 C   0  0  0  0  0  0  0  0  0  0  0  0
   -3.7459   -0.1955    0.0000 O   0  5  0  0  0  0  0  0  0  0  0  0
    1.9347    1.4236    0.0000 O   0  0  0  0  0  0  0  0  0  0  0  0
   -3.0152   -1.4201    0.0000 O   0  0  0  0  0  0  0  0  0  0  0  0
    1.3207   -1.4064    0.0000 O   0  0  0  0  0  0  0  0  0  0  0  0
   -0.9021    0.6449    0.0000 C   0  0  0  0  0  0  0  0  0  0  0  0
    2.6448   -0.1887    0.0000 C   0  0  0  0  0  0  0  0  0  0  0  0
   -2.3292    0.6586    0.0000 C   0  0  0  0  0  0  0  0  0  0  0  0
   -1.6157    1.0668    0.0000 C   0  0  0  0  0  0  0  0  0  0  0  0
   -0.1955    1.0428    0.0000 O   0  0  0  0  0  0  0  0  0  0  0  0
  2  1  1  0  0  0  0
  3  4  1  0  0  0  0
  4  1  1  0  0  0  0
  5  2  1  0  0  0  0
  5  3  1  0  0  0  0
  6  9  1  0  0  0  0
  7  3  2  0  0  0  0
  8  7  1  0  0  0  0
  9 10  2  0  0  0  0
 10  8  1  0  0  0  0
 11 18  1  0  0  0  0
 12 11  3  0  0  0  0
 13  6  1  0  0  0  0
 14  2  2  0  0  0  0
 15  6  2  0  0  0  0
 16  4  2  0  0  0  0
 17  8  2  0  0  0  0
 18  1  1  0  0  0  0
 19 20  2  0  0  0  0
 19  9  1  0  0  0  0
 20 17  1  0  0  0  0
 21 17  1  0  0  0  0
M  END
> <CdId>
2003

> <Mol Weight>
304.278

> <Formula>
C13H8N2O5S

> <Click_ID>
CLK026_G08 __ __ 

$$$$
