CLK013_H07
 OpenBabel03181410512D

 27 29  0  0  0  0  0  0  0  0999 V2000
    1.5650   -0.8158    0.0000 N    0  0  0  0  0  0  0  0  0  0  0  0
    1.8230   -1.6024    0.0000 C    0  0  0  0  0  0  0  0  0  0  0  0
    2.2350   -0.3288    0.0000 C    0  0  0  0  0  0  0  0  0  0  0  0
    2.9010   -0.8158    0.0000 C    0  0  0  0  0  0  0  0  0  0  0  0
    2.6470   -1.6024    0.0000 S    0  0  0  0  0  0  0  0  0  0  0  0
    3.6876   -0.5619    0.0000 C    0  0  0  0  0  0  0  0  0  0  0  0
    0.6118    0.2455    0.0000 C    0  0  0  0  0  0  0  0  0  0  0  0
    0.3913    1.0446    0.0000 C    0  0  0  0  0  0  0  0  0  0  0  0
    4.7988    1.3318    0.0000 C    0  0  0  0  0  0  0  0  0  0  0  0
    1.3360   -2.2642    0.0000 O    0  0  0  0  0  0  0  0  0  0  0  0
    5.3233    3.7416    0.0000 C    0  0  0  0  0  0  0  0  0  0  0  0
    2.2267    0.4952    0.0000 O    0  0  0  0  0  0  0  0  0  0  0  0
    4.1870    1.8729    0.0000 C    0  0  0  0  0  0  0  0  0  0  0  0
    3.8499    0.2455    0.0000 C    0  0  0  0  0  0  0  0  0  0  0  0
    0.7866   -0.5619    0.0000 C    0  0  0  0  0  0  0  0  0  0  0  0
    4.3618    2.6803    0.0000 O    0  0  0  0  0  0  0  0  0  0  0  0
    4.6240    0.5077    0.0000 C    0  0  0  0  0  0  0  0  0  0  0  0
    5.1443    2.9300    0.0000 C    0  0  0  0  0  0  0  0  0  0  0  0
    6.1099    3.9831    0.0000 C    0  0  0  0  0  0  0  0  0  0  0  0
    3.4087    1.6107    0.0000 C    0  0  0  0  0  0  0  0  0  0  0  0
    5.5855    1.5732    0.0000 Br   0  0  0  0  0  0  0  0  0  0  0  0
    3.2256    0.8074    0.0000 C    0  0  0  0  0  0  0  0  0  0  0  0
    6.7217    3.4295    0.0000 F    0  0  0  0  0  0  0  0  0  0  0  0
    4.7114    4.2744    0.0000 C    0  0  0  0  0  0  0  0  0  0  0  0
    6.2847    4.7864    0.0000 C    0  0  0  0  0  0  0  0  0  0  0  0
    4.8862    5.0860    0.0000 C    0  0  0  0  0  0  0  0  0  0  0  0
    5.6729    5.3482    0.0000 C    0  0  0  0  0  0  0  0  0  0  0  0
  2  1  1  0  0  0  0
  3  1  1  0  0  0  0
  4  3  1  0  0  0  0
  5  2  1  0  0  0  0
  5  4  1  0  0  0  0
  6  4  2  0  0  0  0
  7 15  1  0  0  0  0
  8  7  3  0  0  0  0
  9 17  2  0  0  0  0
 10  2  2  0  0  0  0
 11 18  1  0  0  0  0
 12  3  2  0  0  0  0
 13 20  2  0  0  0  0
 13  9  1  0  0  0  0
 14  6  1  0  0  0  0
 15  1  1  0  0  0  0
 16 13  1  0  0  0  0
 17 14  1  0  0  0  0
 18 16  1  0  0  0  0
 19 11  2  0  0  0  0
 20 22  1  0  0  0  0
 21  9  1  0  0  0  0
 22 14  2  0  0  0  0
 23 19  1  0  0  0  0
 24 11  1  0  0  0  0
 25 19  1  0  0  0  0
 26 24  2  0  0  0  0
 27 26  1  0  0  0  0
 27 25  2  0  0  0  0
M  END
> <CdId>
992

> <Mol Weight>
446.29

> <Formula>
C20H13BrFNO3S

> <Click_ID>
CLK013_H07 __ __ 

$$$$
