CLK027_B07
 OpenBabel03181410512D

 24 25  0  0  0  0  0  0  0  0999 V2000
   -2.1999    1.6499    0.0000 N   0  0  0  0  0  0  0  0  0  0  0  0
   -1.3783    1.6499    0.0000 C   0  0  0  0  0  0  0  0  0  0  0  0
   -1.1205    0.8662    0.0000 N   0  0  0  0  0  0  0  0  0  0  0  0
   -1.7874    0.3850    0.0000 C   0  0  0  0  0  0  0  0  0  0  0  0
   -2.4473    0.8662    0.0000 C   0  0  0  0  0  0  0  0  0  0  0  0
   -1.7874   -0.4399    0.0000 C   0  0  0  0  0  0  0  0  0  0  0  0
   -0.3438    0.6084    0.0000 C   0  0  0  0  0  0  0  0  0  0  0  0
   -0.8903    2.3098    0.0000 S   0  0  0  0  0  0  0  0  0  0  0  0
    2.5126   -2.0967    0.0000 C   0  0  0  0  0  0  0  0  0  0  0  0
    3.2310   -2.5126    0.0000 C   0  0  0  0  0  0  0  0  0  0  0  0
    0.2750    1.1652    0.0000 C   0  0  0  0  0  0  0  0  0  0  0  0
   -3.2344    0.6084    0.0000 O   0  0  0  0  0  0  0  0  0  0  0  0
    1.0518    0.9040    0.0000 O   0  0  0  0  0  0  0  0  0  0  0  0
   -2.6845    2.3098    0.0000 C   0  0  0  0  0  0  0  0  0  0  0  0
   -1.0656   -0.8524    0.0000 C   0  0  0  0  0  0  0  0  0  0  0  0
    0.3678   -1.6877    0.0000 C   0  0  0  0  0  0  0  0  0  0  0  0
    0.1066    1.9627    0.0000 O   0  0  0  0  0  0  0  0  0  0  0  0
   -0.3541   -0.4434    0.0000 C   0  0  0  0  0  0  0  0  0  0  0  0
   -1.0793   -1.6877    0.0000 C   0  0  0  0  0  0  0  0  0  0  0  0
    0.3541   -0.8524    0.0000 C   0  0  0  0  0  0  0  0  0  0  0  0
   -0.3574   -2.1001    0.0000 C   0  0  0  0  0  0  0  0  0  0  0  0
    1.7977   -1.6877    0.0000 C   0  0  0  0  0  0  0  0  0  0  0  0
    1.0862   -2.1001    0.0000 O   0  0  0  0  0  0  0  0  0  0  0  0
    0.7184    2.5161    0.0000 C   0  0  0  0  0  0  0  0  0  0  0  0
  2  1  1  0  0  0  0
  3  2  1  0  0  0  0
  3  4  1  0  0  0  0
  4  5  1  0  0  0  0
  5  1  1  0  0  0  0
  6  4  2  0  0  0  0
  7  3  1  0  0  0  0
  8  2  2  0  0  0  0
  9 22  1  0  0  0  0
 10  9  3  0  0  0  0
 11  7  1  0  0  0  0
 12  5  2  0  0  0  0
 13 11  2  0  0  0  0
 14  1  1  0  0  0  0
 15  6  1  0  0  0  0
 16 21  2  0  0  0  0
 16 20  1  0  0  0  0
 17 11  1  0  0  0  0
 18 15  1  0  0  0  0
 19 15  2  0  0  0  0
 20 18  2  0  0  0  0
 21 19  1  0  0  0  0
 22 23  1  0  0  0  0
 23 16  1  0  0  0  0
 24 17  1  0  0  0  0
M  END
> <CdId>
2031

> <Mol Weight>
344.385

> <Formula>
C17H16N2O4S

> <Click_ID>
CLK027_B07 __ __ 

$$$$
