CLK022_G08
 OpenBabel03181410512D

 25 27  0  0  0  0  0  0  0  0999 V2000
    5.1946    3.0874    0.0000 C   0  0  0  0  0  0  0  0  0  0  0  0
    5.9092    2.6751    0.0000 N   0  0  0  0  0  0  0  0  0  0  0  0
    7.3384    1.8506    0.0000 N   0  0  0  0  0  0  0  0  0  0  0  0
    0.9116    1.4383    0.0000 C   0  0  0  0  0  0  0  0  0  0  0  0
    0.1970    1.0261    0.0000 C   0  0  0  0  0  0  0  0  0  0  0  0
    4.4800    2.6751    0.0000 C   0  0  0  0  0  0  0  0  0  0  0  0
    8.0530    1.4383    0.0000 C   0  0  0  0  0  0  0  0  0  0  0  0
    6.6238    3.0874    0.0000 C   0  0  0  0  0  0  0  0  0  0  0  0
    5.9092    1.8506    0.0000 C   0  0  0  0  0  0  0  0  0  0  0  0
    7.3384    2.6751    0.0000 C   0  0  0  0  0  0  0  0  0  0  0  0
    6.6238    1.4383    0.0000 C   0  0  0  0  0  0  0  0  0  0  0  0
    5.1946    3.9120    0.0000 O   0  0  0  0  0  0  0  0  0  0  0  0
    8.0530    0.6138    0.0000 C   0  0  0  0  0  0  0  0  0  0  0  0
    8.7676    1.8506    0.0000 C   0  0  0  0  0  0  0  0  0  0  0  0
    3.7654    3.0874    0.0000 C   0  0  0  0  0  0  0  0  0  0  0  0
    4.4800    1.8506    0.0000 C   0  0  0  0  0  0  0  0  0  0  0  0
    9.4731    0.6138    0.0000 C   0  0  0  0  0  0  0  0  0  0  0  0
    3.0508    1.8506    0.0000 C   0  0  0  0  0  0  0  0  0  0  0  0
    9.4731    1.4383    0.0000 C   0  0  0  0  0  0  0  0  0  0  0  0
    8.7676    0.2015    0.0000 C   0  0  0  0  0  0  0  0  0  0  0  0
    3.7654    1.4383    0.0000 C   0  0  0  0  0  0  0  0  0  0  0  0
    3.0508    2.6751    0.0000 C   0  0  0  0  0  0  0  0  0  0  0  0
   10.1877    0.2015    0.0000 F   0  0  0  0  0  0  0  0  0  0  0  0
    1.6262    1.8506    0.0000 C   0  0  0  0  0  0  0  0  0  0  0  0
    2.3408    1.4383    0.0000 O   0  0  0  0  0  0  0  0  0  0  0  0
  2  1  1  0  0  0  0
  3 11  1  0  0  0  0
  4 24  1  0  0  0  0
  5  4  3  0  0  0  0
  6  1  1  0  0  0  0
  7  3  1  0  0  0  0
  8  2  1  0  0  0  0
  9  2  1  0  0  0  0
 10  8  1  0  0  0  0
 10  3  1  0  0  0  0
 11  9  1  0  0  0  0
 12  1  2  0  0  0  0
 13  7  2  0  0  0  0
 14  7  1  0  0  0  0
 15  6  2  0  0  0  0
 16  6  1  0  0  0  0
 17 19  1  0  0  0  0
 18 21  1  0  0  0  0
 19 14  2  0  0  0  0
 20 13  1  0  0  0  0
 20 17  2  0  0  0  0
 21 16  2  0  0  0  0
 22 15  1  0  0  0  0
 22 18  2  0  0  0  0
 23 17  1  0  0  0  0
 24 25  1  0  0  0  0
 25 18  1  0  0  0  0
M  END
> <CdId>
1689

> <Mol Weight>
338.3755

> <Formula>
C20H19FN2O2

> <Click_ID>
CLK022_G08 __ __ 

$$$$
