CLK037B10
 OpenBabel03181410512D

 16 16  0  0  0  0  0  0  0  0999 V2000
    0.4458    0.0542    0.0000 C   0  0  0  0  0  0  0  0  0  0  0  0
   -0.9833    0.0542    0.0000 N   0  0  0  0  0  0  0  0  0  0  0  0
   -0.2708   -1.1833    0.0000 C   0  0  0  0  0  0  0  0  0  0  0  0
   -0.2708    0.4667    0.0000 C   0  0  0  0  0  0  0  0  0  0  0  0
    0.4458   -0.7708    0.0000 C   0  0  0  0  0  0  0  0  0  0  0  0
   -0.9833   -0.7708    0.0000 C   0  0  0  0  0  0  0  0  0  0  0  0
    1.1583    0.4667    0.0000 C   0  0  0  0  0  0  0  0  0  0  0  0
    1.8750    0.8792    0.0000 N   0  0  0  0  0  0  0  0  0  0  0  0
    0.4458    2.5292    0.0000 C   0  0  0  0  0  0  0  0  0  0  0  0
    0.4458    3.3542    0.0000 C   0  0  0  0  0  0  0  0  0  0  0  0
   -0.2708   -2.0083    0.0000 C   0  0  0  0  0  0  0  0  0  0  0  0
    0.4458   -2.4208    0.0000 O   0  0  0  0  0  0  0  0  0  0  0  0
   -0.2708    1.2917    0.0000 S   0  0  0  0  0  0  0  0  0  0  0  0
    0.4458    1.7042    0.0000 C   0  0  0  0  0  0  0  0  0  0  0  0
   -1.7000   -1.1833    0.0000 C   0  0  0  0  0  0  0  0  0  0  0  0
   -0.9833   -2.4208    0.0000 C   0  0  0  0  0  0  0  0  0  0  0  0
  2  4  2  0  0  0  0
  3  5  1  0  0  0  0
  4  1  1  0  0  0  0
  5  1  2  0  0  0  0
  6  2  1  0  0  0  0
  6  3  2  0  0  0  0
  7  1  1  0  0  0  0
  8  7  3  0  0  0  0
  9 14  1  0  0  0  0
 10  9  3  0  0  0  0
 11  3  1  0  0  0  0
 12 11  2  0  0  0  0
 13  4  1  0  0  0  0
 14 13  1  0  0  0  0
 15  6  1  0  0  0  0
 16 11  1  0  0  0  0
M  END
> <CdId>
2834

> <Mol Weight>
230.286

> <Formula>
C12H10N2OS

> <Click_ID>
CLK037B10 __ __ 

$$$$
