CLK006_E07
 OpenBabel03181410512D

 26 28  0  0  0  0  0  0  0  0999 V2000
   -1.5882   -0.8833    0.0000 C   0  0  3  0  0  0  0  0  0  0  0  0
   -0.8915   -0.3815    0.0000 C   0  0  0  0  0  0  0  0  0  0  0  0
   -2.2517   -0.3981    0.0000 C   0  0  0  0  0  0  0  0  0  0  0  0
   -0.8750   -1.2980    0.0000 C   0  0  0  0  0  0  0  0  0  0  0  0
   -1.1736    0.3898    0.0000 C   0  0  0  0  0  0  0  0  0  0  0  0
   -1.9987    0.3857    0.0000 N   0  0  0  0  0  0  0  0  0  0  0  0
   -0.8667   -2.1231    0.0000 C   0  0  0  0  0  0  0  0  0  0  0  0
   -1.5841   -2.5337    0.0000 O   0  0  0  0  0  0  0  0  0  0  0  0
   -2.3015   -1.3062    0.0000 C   0  0  0  0  0  0  0  0  0  0  0  0
   -0.0705   -0.3774    0.0000 C   0  0  0  0  0  0  0  0  0  0  0  0
   -2.2973   -2.1315    0.0000 C   0  0  0  0  0  0  0  0  0  0  0  0
   -0.1617   -1.7126    0.0000 C   0  0  0  0  0  0  0  0  0  0  0  0
    0.5474   -2.1231    0.0000 N   0  0  0  0  0  0  0  0  0  0  0  0
   -2.1439    1.7997    0.0000 C   0  0  0  0  0  0  0  0  0  0  0  0
   -1.8080    2.5503    0.0000 C   0  0  0  0  0  0  0  0  0  0  0  0
   -3.0811   -0.4064    0.0000 O   0  0  0  0  0  0  0  0  0  0  0  0
   -2.4798    1.0533    0.0000 C   0  0  0  0  0  0  0  0  0  0  0  0
   -0.1451   -2.5379    0.0000 N   0  0  0  0  0  0  0  0  0  0  0  0
    0.3359   -1.0865    0.0000 O   0  0  0  0  0  0  0  0  0  0  0  0
   -0.7049    1.0616    0.0000 C   0  0  0  0  0  0  0  0  0  0  0  0
    0.3359    0.3317    0.0000 O   0  0  0  0  0  0  0  0  0  0  0  0
   -3.0148   -0.8915    0.0000 C   0  0  0  0  0  0  0  0  0  0  0  0
   -3.0023   -2.5461    0.0000 C   0  0  0  0  0  0  0  0  0  0  0  0
    1.1570    0.3401    0.0000 C   0  0  0  0  0  0  0  0  0  0  0  0
   -3.7280   -1.3145    0.0000 C   0  0  0  0  0  0  0  0  0  0  0  0
   -3.7239   -2.1356    0.0000 C   0  0  0  0  0  0  0  0  0  0  0  0
  2  1  1  0  0  0  0
  3  1  1  0  0  0  0
  4  1  1  0  0  0  0
  5  2  2  0  0  0  0
  6  3  1  0  0  0  0
  6  5  1  0  0  0  0
  7  4  2  0  0  0  0
  8 11  1  0  0  0  0
  8  7  1  0  0  0  0
  9  1  1  0  0  0  0
 10  2  1  0  0  0  0
 11  9  1  0  0  0  0
 12  4  1  0  0  0  0
 13 12  3  0  0  0  0
 14 17  1  0  0  0  0
 15 14  3  0  0  0  0
 16  3  2  0  0  0  0
 17  6  1  0  0  0  0
 18  7  1  0  0  0  0
 19 10  2  0  0  0  0
 20  5  1  0  0  0  0
 21 10  1  0  0  0  0
 22  9  2  0  0  0  0
 23 11  2  0  0  0  0
 24 21  1  0  0  0  0
 25 22  1  0  0  0  0
 26 25  2  0  0  0  0
 26 23  1  0  0  0  0
M  END
> <CdId>
446

> <Mol Weight>
349.3401

> <Formula>
C19H15N3O4

> <Click_ID>
CLK006_E07 __ __ 

$$$$
