CLK046B06
 OpenBabel03181410512D

 20 21  0  0  0  0  0  0  0  0999 V2000
   -0.5375    3.1167    0.0000 C    0  0  0  0  0  0  0  0  0  0  0  0
    0.1750    0.2292    0.0000 C    0  0  0  0  0  0  0  0  0  0  0  0
   -1.2542    3.5292    0.0000 C    0  0  0  0  0  0  0  0  0  0  0  0
    0.1750   -0.5958    0.0000 C    0  0  0  0  0  0  0  0  0  0  0  0
    0.8917    0.6417    0.0000 N    0  0  0  0  0  0  0  0  0  0  0  0
   -0.5375   -1.0083    0.0000 C    0  0  0  0  0  0  0  0  0  0  0  0
    0.8917    1.4667    0.0000 C    0  0  0  0  0  0  0  0  0  0  0  0
   -0.5375    0.6417    0.0000 O    0  0  0  0  0  0  0  0  0  0  0  0
    0.1750    2.7042    0.0000 C    0  0  0  0  0  0  0  0  0  0  0  0
   -0.5375   -1.8333    0.0000 C    0  0  0  0  0  0  0  0  0  0  0  0
    0.1750    1.8792    0.0000 C    0  0  0  0  0  0  0  0  0  0  0  0
   -0.5375   -3.4833    0.0000 C    0  0  0  0  0  0  0  0  0  0  0  0
   -0.5375   -4.3083    0.0000 Cl   0  0  0  0  0  0  0  0  0  0  0  0
    0.1750   -2.2458    0.0000 C    0  0  0  0  0  0  0  0  0  0  0  0
   -1.2542   -2.2458    0.0000 C    0  0  0  0  0  0  0  0  0  0  0  0
    0.1750   -3.0708    0.0000 C    0  0  0  0  0  0  0  0  0  0  0  0
   -1.2542   -3.0708    0.0000 C    0  0  0  0  0  0  0  0  0  0  0  0
    1.6042    2.7042    0.0000 C    0  0  0  0  0  0  0  0  0  0  0  0
    1.6042    1.8792    0.0000 C    0  0  0  0  0  0  0  0  0  0  0  0
    0.8917    3.1167    0.0000 C    0  0  0  0  0  0  0  0  0  0  0  0
  2  5  1  0  0  0  0
  3  1  3  0  0  0  0
  4  2  1  0  0  0  0
  5  7  1  0  0  0  0
  6  4  2  0  0  0  0
  7 11  2  0  0  0  0
  8  2  2  0  0  0  0
  9  1  1  0  0  0  0
 10  6  1  0  0  0  0
 11  9  1  0  0  0  0
 12 17  2  0  0  0  0
 13 12  1  0  0  0  0
 14 10  1  0  0  0  0
 15 10  2  0  0  0  0
 16 14  2  0  0  0  0
 16 12  1  0  0  0  0
 17 15  1  0  0  0  0
 18 20  1  0  0  0  0
 18 19  2  0  0  0  0
 19  7  1  0  0  0  0
 20  9  2  0  0  0  0
M  END
> <CdId>
3522

> <Mol Weight>
281.736

> <Formula>
C17H12ClNO

> <Click_ID>
CLK046B06 __ __ 

$$$$
