CLK020_E05
 OpenBabel03181410512D

 24 26  0  0  0  0  0  0  0  0999 V2000
    3.6025    2.5529    0.0000 C   0  0  3  0  0  0  0  0  0  0  0  0
    2.9334    3.0341    0.0000 C   0  0  0  0  0  0  0  0  0  0  0  0
    2.2687    2.5529    0.0000 N   0  0  0  0  0  0  0  0  0  0  0  0
    3.3459    1.7600    0.0000 C   0  0  0  0  0  0  0  0  0  0  0  0
    5.7337    2.6079    0.0000 C   0  0  0  0  0  0  0  0  0  0  0  0
    4.9271    2.8050    0.0000 C   0  0  0  0  0  0  0  0  0  0  0  0
    4.3587    2.2091    0.0000 C   0  0  0  0  0  0  0  0  0  0  0  0
    2.5209    1.7600    0.0000 C   0  0  0  0  0  0  0  0  0  0  0  0
    6.3571    3.1350    0.0000 C   0  0  0  0  0  0  0  0  0  0  0  0
    7.0584    2.7041    0.0000 O   0  0  0  0  0  0  0  0  0  0  0  0
    6.0409    1.8379    0.0000 C   0  0  0  0  0  0  0  0  0  0  0  0
    6.8659    1.8975    0.0000 C   0  0  0  0  0  0  0  0  0  0  0  0
    0.9762    2.1541    0.0000 C   0  0  0  0  0  0  0  0  0  0  0  0
    0.4675    1.5079    0.0000 C   0  0  0  0  0  0  0  0  0  0  0  0
    2.9334    3.8591    0.0000 O   0  0  0  0  0  0  0  0  0  0  0  0
    4.7713    3.3641    0.0000 O   0  0  0  0  0  0  0  0  0  0  0  0
    1.4850    2.8004    0.0000 C   0  0  0  0  0  0  0  0  0  0  0  0
    4.0150    3.2587    0.0000 O   0  0  0  0  0  0  0  0  0  0  0  0
    3.7584    1.0450    0.0000 C   0  0  0  0  0  0  0  0  0  0  0  0
    2.1084    1.0450    0.0000 C   0  0  0  0  0  0  0  0  0  0  0  0
    6.3021    3.9646    0.0000 C   0  0  0  0  0  0  0  0  0  0  0  0
    5.6009    1.1412    0.0000 C   0  0  0  0  0  0  0  0  0  0  0  0
    3.3459    0.3391    0.0000 C   0  0  0  0  0  0  0  0  0  0  0  0
    2.5209    0.3391    0.0000 C   0  0  0  0  0  0  0  0  0  0  0  0
  2  1  1  0  0  0  0
  3  2  1  0  0  0  0
  3  8  1  0  0  0  0
  4  1  1  0  0  0  0
  5  6  1  0  0  0  0
  6  7  1  0  0  0  0
  7  1  1  0  0  0  0
  8  4  2  0  0  0  0
  9  5  2  0  0  0  0
 10  9  1  0  0  0  0
 11  5  1  0  0  0  0
 12 11  2  0  0  0  0
 12 10  1  0  0  0  0
 13 17  1  0  0  0  0
 14 13  3  0  0  0  0
 15  2  2  0  0  0  0
 16  6  2  0  0  0  0
 17  3  1  0  0  0  0
 18  1  1  0  0  0  0
 19  4  1  0  0  0  0
 20  8  1  0  0  0  0
 20 24  2  0  0  0  0
 21  9  1  0  0  0  0
 22 11  1  0  0  0  0
 23 19  2  0  0  0  0
 24 23  1  0  0  0  0
M  END
> <CdId>
1520

> <Mol Weight>
323.3426

> <Formula>
C19H17NO4

> <Click_ID>
CLK020_E05 __ __ 

$$$$
