CLK002_A09
 OpenBabel03181410512D

 10 10  0  0  0  0  0  0  0  0999 V2000
    6.9361   -9.7421    0.0000 C   0  0  0  0  0  0  0  0  0  0  0  0
    7.5439   -9.1843    0.0000 C   0  0  0  0  0  0  0  0  0  0  0  0
    4.1591  -10.3458    0.0000 C   0  0  0  0  0  0  0  0  0  0  0  0
    3.4889  -10.8287    0.0000 O   0  0  0  0  0  0  0  0  0  0  0  0
    3.9010   -9.5590    0.0000 C   0  0  0  0  0  0  0  0  0  0  0  0
    2.8144  -10.3333    0.0000 C   0  0  0  0  0  0  0  0  0  0  0  0
    3.0850   -9.5590    0.0000 C   0  0  0  0  0  0  0  0  0  0  0  0
    5.5497  -10.0461    0.0000 N   0  0  0  0  0  0  0  0  0  0  0  0
    6.3366  -10.2959    0.0000 C   0  0  0  0  0  0  0  0  0  0  0  0
    4.9460  -10.5956    0.0000 C   0  0  0  0  0  0  0  0  0  0  0  0
  2  1  3  0  0  0  0
  3 10  1  0  0  0  0
  4  3  1  0  0  0  0
  5  3  2  0  0  0  0
  6  4  1  0  0  0  0
  6  7  2  0  0  0  0
  7  5  1  0  0  0  0
  8  9  1  0  0  0  0
  9  1  1  0  0  0  0
 10  8  1  0  0  0  0
M  END
> <CdId>
88

> <Mol Weight>
135.1632

> <Formula>
C8H9NO

> <Click_ID>
CLK002_A09 __ __ 

$$$$
