CLK041F10
 OpenBabel03181410512D

 24 25  0  0  0  0  0  0  0  0999 V2000
   -0.5958    1.9958    0.0000 S   0  0  0  0  0  0  0  0  0  0  0  0
    0.8333   -0.4792    0.0000 C   0  0  0  0  0  0  0  0  0  0  0  0
    0.1167    1.5833    0.0000 C   0  0  0  0  0  0  0  0  0  0  0  0
    0.1167   -0.8917    0.0000 N   0  0  0  0  0  0  0  0  0  0  0  0
    0.8333    0.3458    0.0000 C   0  0  0  0  0  0  0  0  0  0  0  0
   -2.0250    3.6458    0.0000 C   0  0  0  0  0  0  0  0  0  0  0  0
    0.1167    0.7583    0.0000 C   0  0  0  0  0  0  0  0  0  0  0  0
   -2.7417    4.0542    0.0000 C   0  0  0  0  0  0  0  0  0  0  0  0
   -1.0083    1.2833    0.0000 O   0  0  0  0  0  0  0  0  0  0  0  0
   -0.1833    2.7083    0.0000 O   0  0  0  0  0  0  0  0  0  0  0  0
   -1.3125    2.4083    0.0000 N   0  0  0  0  0  0  0  0  0  0  0  0
    1.5458   -0.8917    0.0000 O   0  0  0  0  0  0  0  0  0  0  0  0
    0.1167   -1.7167    0.0000 C   0  0  0  0  0  0  0  0  0  0  0  0
    0.1167   -3.3667    0.0000 C   0  0  0  0  0  0  0  0  0  0  0  0
    0.1167   -4.1917    0.0000 S   0  0  0  0  0  0  0  0  0  0  0  0
   -1.3125    3.2333    0.0000 C   0  0  0  0  0  0  0  0  0  0  0  0
    0.8333   -2.1292    0.0000 C   0  0  0  0  0  0  0  0  0  0  0  0
   -0.5958   -2.1292    0.0000 C   0  0  0  0  0  0  0  0  0  0  0  0
    0.8333   -2.9542    0.0000 C   0  0  0  0  0  0  0  0  0  0  0  0
   -0.5958   -2.9542    0.0000 C   0  0  0  0  0  0  0  0  0  0  0  0
    0.8333    1.9958    0.0000 C   0  0  0  0  0  0  0  0  0  0  0  0
    1.5458    0.7583    0.0000 C   0  0  0  0  0  0  0  0  0  0  0  0
    1.5458    1.5833    0.0000 C   0  0  0  0  0  0  0  0  0  0  0  0
    0.8333   -4.6042    0.0000 C   0  0  0  0  0  0  0  0  0  0  0  0
  2  5  1  0  0  0  0
  3  1  1  0  0  0  0
  4  2  1  0  0  0  0
  5  7  2  0  0  0  0
  6 16  1  0  0  0  0
  7  3  1  0  0  0  0
  8  6  3  0  0  0  0
  9  1  2  0  0  0  0
 10  1  2  0  0  0  0
 11  1  1  0  0  0  0
 12  2  2  0  0  0  0
 13  4  1  0  0  0  0
 14 20  2  0  0  0  0
 15 14  1  0  0  0  0
 16 11  1  0  0  0  0
 17 13  1  0  0  0  0
 18 13  2  0  0  0  0
 19 17  2  0  0  0  0
 19 14  1  0  0  0  0
 20 18  1  0  0  0  0
 21  3  2  0  0  0  0
 22  5  1  0  0  0  0
 23 21  1  0  0  0  0
 23 22  2  0  0  0  0
 24 15  1  0  0  0  0
M  END
> <CdId>
3158

> <Mol Weight>
360.451

> <Formula>
C17H16N2O3S2

> <Click_ID>
CLK041F10 __ __ 

$$$$
