CLK021_F03
 OpenBabel03181410512D

 24 25  0  0  0  0  0  0  0  0999 V2000
    5.8071    2.4841    0.0000 C    0  0  0  0  0  0  0  0  0  0  0  0
    2.9196    1.7691    0.0000 C    0  0  0  0  0  0  0  0  0  0  0  0
    5.3946    1.7691    0.0000 C    0  0  0  0  0  0  0  0  0  0  0  0
    3.3321    1.0541    0.0000 C    0  0  0  0  0  0  0  0  0  0  0  0
    3.3321    2.4841    0.0000 C    0  0  0  0  0  0  0  0  0  0  0  0
    4.5696    1.7691    0.0000 C    0  0  0  0  0  0  0  0  0  0  0  0
    6.6321    2.4841    0.0000 C    0  0  0  0  0  0  0  0  0  0  0  0
    7.4571    2.4841    0.0000 N    0  0  0  0  0  0  0  0  0  0  0  0
    0.8571    2.4841    0.0000 C    0  0  0  0  0  0  0  0  0  0  0  0
    5.3946    3.1991    0.0000 C    0  0  0  0  0  0  0  0  0  0  0  0
    0.0321    2.4841    0.0000 C    0  0  0  0  0  0  0  0  0  0  0  0
    4.1571    1.0541    0.0000 C    0  0  0  0  0  0  0  0  0  0  0  0
    4.1571    2.4841    0.0000 C    0  0  0  0  0  0  0  0  0  0  0  0
    5.8071    3.9141    0.0000 C    0  0  0  0  0  0  0  0  0  0  0  0
    2.9196    0.3391    0.0000 Cl   0  0  0  0  0  0  0  0  0  0  0  0
    2.0946    1.7691    0.0000 O    0  0  0  0  0  0  0  0  0  0  0  0
    5.3946    4.6246    0.0000 C    0  0  0  0  0  0  0  0  0  0  0  0
    2.9196    3.1991    0.0000 O    0  0  0  0  0  0  0  0  0  0  0  0
    5.8071    5.3396    0.0000 F    0  0  0  0  0  0  0  0  0  0  0  0
    1.6821    2.4841    0.0000 C    0  0  0  0  0  0  0  0  0  0  0  0
    4.5696    3.1991    0.0000 C    0  0  0  0  0  0  0  0  0  0  0  0
    4.1571    3.9141    0.0000 C    0  0  0  0  0  0  0  0  0  0  0  0
    4.5696    4.6246    0.0000 C    0  0  0  0  0  0  0  0  0  0  0  0
    3.3321    3.9141    0.0000 C    0  0  0  0  0  0  0  0  0  0  0  0
  2  5  2  0  0  0  0
  2  4  1  0  0  0  0
  3  1  2  0  0  0  0
  4 12  2  0  0  0  0
  5 13  1  0  0  0  0
  6  3  1  0  0  0  0
  7  1  1  0  0  0  0
  8  7  3  0  0  0  0
  9 20  1  0  0  0  0
 10  1  1  0  0  0  0
 11  9  3  0  0  0  0
 12  6  1  0  0  0  0
 13  6  2  0  0  0  0
 14 10  1  0  0  0  0
 15  4  1  0  0  0  0
 16  2  1  0  0  0  0
 17 14  2  0  0  0  0
 18  5  1  0  0  0  0
 19 17  1  0  0  0  0
 20 16  1  0  0  0  0
 21 10  2  0  0  0  0
 22 21  1  0  0  0  0
 23 22  2  0  0  0  0
 23 17  1  0  0  0  0
 24 18  1  0  0  0  0
M  END
> <CdId>
1608

> <Mol Weight>
341.763

> <Formula>
C19H13ClFNO2

> <Click_ID>
CLK021_F03 __ __ 

$$$$
