CLK028_A06
 OpenBabel03181410512D

 31 33  0  0  0  0  0  0  0  0999 V2000
   -2.1403    0.4226    0.0000 C    0  0  0  0  0  0  0  0  0  0  0  0
   -2.8584    0.0068    0.0000 C    0  0  0  0  0  0  0  0  0  0  0  0
    2.1334    1.2471    0.0000 C    0  0  0  0  0  0  0  0  0  0  0  0
    1.4291    1.6525    0.0000 C    0  0  0  0  0  0  0  0  0  0  0  0
    2.1334    0.4260    0.0000 C    0  0  0  0  0  0  0  0  0  0  0  0
    4.2737    1.6490    0.0000 C    0  0  0  0  0  0  0  0  0  0  0  0
    4.9986    2.0510    0.0000 C    0  0  0  0  0  0  0  0  0  0  0  0
   -0.7111    0.4226    0.0000 N    0  0  0  0  0  0  0  0  0  0  0  0
   -1.4258    0.0068    0.0000 N    0  0  0  0  0  0  0  0  0  0  0  0
    0.7180    1.2471    0.0000 C    0  0  0  0  0  0  0  0  0  0  0  0
    1.4188    0.0206    0.0000 C    0  0  0  0  0  0  0  0  0  0  0  0
   -2.1403    1.2471    0.0000 O    0  0  0  0  0  0  0  0  0  0  0  0
    0.7180    0.4226    0.0000 C    0  0  0  0  0  0  0  0  0  0  0  0
   -3.5729    0.4226    0.0000 C    0  0  0  0  0  0  0  0  0  0  0  0
   -2.8584   -0.8177    0.0000 C    0  0  0  0  0  0  0  0  0  0  0  0
    0.0035    0.0068    0.0000 C    0  0  0  0  0  0  0  0  0  0  0  0
    2.8481    0.0138    0.0000 Cl   0  0  0  0  0  0  0  0  0  0  0  0
    1.4291    2.4770    0.0000 Cl   0  0  0  0  0  0  0  0  0  0  0  0
   -3.0713    0.8107    0.0000 O    0  0  0  0  0  0  0  0  0  0  0  0
    2.8549    1.6490    0.0000 O    0  0  0  0  0  0  0  0  0  0  0  0
    3.5592    1.2402    0.0000 C    0  0  0  0  0  0  0  0  0  0  0  0
   -4.2875    0.0068    0.0000 C    0  0  0  0  0  0  0  0  0  0  0  0
   -3.5798   -1.2299    0.0000 C    0  0  0  0  0  0  0  0  0  0  0  0
   -2.1437   -1.2299    0.0000 C    0  0  0  0  0  0  0  0  0  0  0  0
   -3.5695    1.2471    0.0000 C    0  0  0  0  0  0  0  0  0  0  0  0
   -2.1541   -2.0578    0.0000 C    0  0  0  0  0  0  0  0  0  0  0  0
   -3.5798   -2.0545    0.0000 C    0  0  0  0  0  0  0  0  0  0  0  0
   -4.9986    0.4260    0.0000 C    0  0  0  0  0  0  0  0  0  0  0  0
   -4.2807    1.6628    0.0000 C    0  0  0  0  0  0  0  0  0  0  0  0
   -4.9986    1.2539    0.0000 C    0  0  0  0  0  0  0  0  0  0  0  0
   -2.8652   -2.4736    0.0000 C    0  0  0  0  0  0  0  0  0  0  0  0
  2  1  1  0  0  0  0
  3  5  1  0  0  0  0
  3  4  2  0  0  0  0
  4 10  1  0  0  0  0
  5 11  2  0  0  0  0
  6 21  1  0  0  0  0
  7  6  3  0  0  0  0
  8  9  1  0  0  0  0
  9  1  1  0  0  0  0
 10 13  2  0  0  0  0
 11 13  1  0  0  0  0
 12  1  2  0  0  0  0
 13 16  1  0  0  0  0
 14  2  1  0  0  0  0
 15  2  1  0  0  0  0
 16  8  2  0  0  0  0
 17  5  1  0  0  0  0
 18  4  1  0  0  0  0
 19  2  1  0  0  0  0
 20  3  1  0  0  0  0
 21 20  1  0  0  0  0
 22 14  1  0  0  0  0
 23 15  2  0  0  0  0
 24 15  1  0  0  0  0
 25 14  2  0  0  0  0
 26 24  2  0  0  0  0
 27 23  1  0  0  0  0
 28 22  2  0  0  0  0
 28 30  1  0  0  0  0
 29 25  1  0  0  0  0
 30 29  2  0  0  0  0
 31 26  1  0  0  0  0
 31 27  2  0  0  0  0
M  END
> <CdId>
2090

> <Mol Weight>
453.317

> <Formula>
C24H18Cl2N2O3

> <Click_ID>
CLK028_A06 __ __ 

$$$$
