CLK040E07
 OpenBabel03181410512D

 25 27  0  0  0  0  0  0  0  0999 V2000
    0.2126    1.6342    0.0000 C   0  0  0  0  0  0  0  0  0  0  0  0
    0.6962    2.3012    0.0000 C   0  0  0  0  0  0  0  0  0  0  0  0
    0.5461    0.8797    0.0000 C   0  0  0  0  0  0  0  0  0  0  0  0
    0.2126    2.9683    0.0000 S   0  0  0  0  0  0  0  0  0  0  0  0
   -0.5753    1.8885    0.0000 C   0  0  0  0  0  0  0  0  0  0  0  0
    1.5175    2.2137    0.0000 N   0  0  0  0  0  0  0  0  0  0  0  0
    1.3674    0.7921    0.0000 N   0  0  0  0  0  0  0  0  0  0  0  0
   -0.5753    2.7139    0.0000 C   0  0  0  0  0  0  0  0  0  0  0  0
    1.8510    1.4591    0.0000 C   0  0  0  0  0  0  0  0  0  0  0  0
    0.0625    0.2126    0.0000 S   0  0  0  0  0  0  0  0  0  0  0  0
   -0.7212   -3.3017    0.0000 C   0  0  0  0  0  0  0  0  0  0  0  0
   -1.2089   -3.9688    0.0000 C   0  0  0  0  0  0  0  0  0  0  0  0
   -0.0875   -1.2131    0.0000 C   0  0  0  0  0  0  0  0  0  0  0  0
    0.2459   -1.9635    0.0000 N   0  0  0  0  0  0  0  0  0  0  0  0
   -0.2376   -2.6347    0.0000 C   0  0  0  0  0  0  0  0  0  0  0  0
   -0.9088   -1.1256    0.0000 O   0  0  0  0  0  0  0  0  0  0  0  0
    0.3960   -0.5420    0.0000 C   0  0  0  0  0  0  0  0  0  0  0  0
   -1.3590    1.6342    0.0000 C   0  0  0  0  0  0  0  0  0  0  0  0
   -1.3590    2.9683    0.0000 C   0  0  0  0  0  0  0  0  0  0  0  0
   -1.8427    2.3012    0.0000 C   0  0  0  0  0  0  0  0  0  0  0  0
    2.6722    1.3757    0.0000 C   0  0  0  0  0  0  0  0  0  0  0  0
    0.4294   -3.1183    0.0000 C   0  0  0  0  0  0  0  0  0  0  0  0
   -0.9047   -2.1469    0.0000 C   0  0  0  0  0  0  0  0  0  0  0  0
    0.3419   -3.9396    0.0000 C   0  0  0  0  0  0  0  0  0  0  0  0
   -0.8212   -1.3257    0.0000 C   0  0  0  0  0  0  0  0  0  0  0  0
  2  1  1  0  0  0  0
  3  1  2  0  0  0  0
  4  2  1  0  0  0  0
  5  1  1  0  0  0  0
  6  2  2  0  0  0  0
  7  3  1  0  0  0  0
  8  5  2  0  0  0  0
  8  4  1  0  0  0  0
  9  6  1  0  0  0  0
  9  7  2  0  0  0  0
 10  3  1  0  0  0  0
 11 15  1  0  0  0  0
 12 11  3  0  0  0  0
 13 17  1  0  0  0  0
 14 13  1  0  0  0  0
 15 14  1  0  0  0  0
 16 13  2  0  0  0  0
 17 10  1  0  0  0  0
 18  5  1  0  0  0  0
 19  8  1  0  0  0  0
 20 18  1  0  0  0  0
 20 19  1  0  0  0  0
 21  9  1  0  0  0  0
 22 15  1  0  0  0  0
 23 15  1  0  0  0  0
 24 22  1  0  0  0  0
 25 23  1  0  0  0  0
M  END
> <CdId>
3053

> <Mol Weight>
373.535

> <Formula>
C19H23N3OS2

> <Click_ID>
CLK040E07 __ __ 

$$$$
