CLK025_B08
 OpenBabel03181410512D

 23 25  0  0  0  0  0  0  0  0999 V2000
   -0.1239   -0.2856    0.0000 C   0  0  3  0  0  0  0  0  0  0  0  0
   -0.6127   -0.9499    0.0000 C   0  0  0  0  0  0  0  0  0  0  0  0
   -1.3939   -0.6986    0.0000 N   0  0  0  0  0  0  0  0  0  0  0  0
   -0.6092    0.3820    0.0000 C   0  0  0  0  0  0  0  0  0  0  0  0
   -1.3939    0.1274    0.0000 C   0  0  0  0  0  0  0  0  0  0  0  0
    0.6986   -0.2856    0.0000 C   0  0  0  0  0  0  0  0  0  0  0  0
    1.1116   -0.9981    0.0000 C   0  0  0  0  0  0  0  0  0  0  0  0
   -2.8188   -0.8363    0.0000 C   0  0  0  0  0  0  0  0  0  0  0  0
   -3.5828   -0.5059    0.0000 C   0  0  0  0  0  0  0  0  0  0  0  0
   -0.3614   -1.7346    0.0000 O   0  0  0  0  0  0  0  0  0  0  0  0
    1.9377   -1.0050    0.0000 C   0  0  0  0  0  0  0  0  0  0  0  0
    2.3403   -1.7174    0.0000 N   0  0  0  0  0  0  0  0  0  0  0  0
   -2.0719   -1.1736    0.0000 C   0  0  0  0  0  0  0  0  0  0  0  0
    0.2616    0.4578    0.0000 O   0  0  0  0  0  0  0  0  0  0  0  0
    0.6918   -1.7105    0.0000 O   0  0  0  0  0  0  0  0  0  0  0  0
   -0.4371    1.1909    0.0000 C   0  0  0  0  0  0  0  0  0  0  0  0
   -2.0134    0.6883    0.0000 C   0  0  0  0  0  0  0  0  0  0  0  0
    3.1664   -1.7243    0.0000 C   0  0  0  0  0  0  0  0  0  0  0  0
    2.3403   -0.2856    0.0000 C   0  0  0  0  0  0  0  0  0  0  0  0
   -1.0463    1.7381    0.0000 C   0  0  0  0  0  0  0  0  0  0  0  0
   -1.8344    1.5006    0.0000 C   0  0  0  0  0  0  0  0  0  0  0  0
    3.5794   -1.0119    0.0000 C   0  0  0  0  0  0  0  0  0  0  0  0
    3.1664   -0.2856    0.0000 C   0  0  0  0  0  0  0  0  0  0  0  0
  2  1  1  0  0  0  0
  3  2  1  0  0  0  0
  3  5  1  0  0  0  0
  4  1  1  0  0  0  0
  5  4  1  0  0  0  0
  6  1  1  0  0  0  0
  7  6  1  0  0  0  0
  8 13  1  0  0  0  0
  9  8  3  0  0  0  0
 10  2  2  0  0  0  0
 11  7  1  0  0  0  0
 12 11  2  0  0  0  0
 13  3  1  0  0  0  0
 14  1  1  0  0  0  0
 15  7  2  0  0  0  0
 16  4  2  0  0  0  0
 17  5  2  0  0  0  0
 18 12  1  0  0  0  0
 18 22  2  0  0  0  0
 19 11  1  0  0  0  0
 20 16  1  0  0  0  0
 21 20  2  0  0  0  0
 21 17  1  0  0  0  0
 22 23  1  0  0  0  0
 23 19  2  0  0  0  0
M  END
> <CdId>
1873

> <Mol Weight>
306.3154

> <Formula>
C18H14N2O3

> <Click_ID>
CLK025_B08 __ __ 

$$$$
