CLK012_A07
 OpenBabel03181410512D

 32 34  0  0  0  0  0  0  0  0999 V2000
    3.9340    0.5471    0.0000 N   0  0  0  0  0  0  0  0  0  0  0  0
    3.6751   -0.2423    0.0000 C   0  0  0  0  0  0  0  0  0  0  0  0
    3.2617    1.0274    0.0000 C   0  0  0  0  0  0  0  0  0  0  0  0
    2.5977    0.5471    0.0000 C   0  0  0  0  0  0  0  0  0  0  0  0
    2.8482   -0.2423    0.0000 S   0  0  0  0  0  0  0  0  0  0  0  0
    1.8083    0.7976    0.0000 C   0  0  0  0  0  0  0  0  0  0  0  0
    4.7233    0.7976    0.0000 C   0  0  0  0  0  0  0  0  0  0  0  0
    5.3289    0.2464    0.0000 C   0  0  0  0  0  0  0  0  0  0  0  0
   -2.0297   -1.6956    0.0000 C   0  0  0  0  0  0  0  0  0  0  0  0
   -2.6436   -2.2468    0.0000 C   0  0  0  0  0  0  0  0  0  0  0  0
    4.1637   -0.9146    0.0000 O   0  0  0  0  0  0  0  0  0  0  0  0
    0.7559   -1.1193    0.0000 C   0  0  0  0  0  0  0  0  0  0  0  0
    6.1182    0.4969    0.0000 N   0  0  0  0  0  0  0  0  0  0  0  0
    3.2617    1.8542    0.0000 O   0  0  0  0  0  0  0  0  0  0  0  0
    1.1944    0.2380    0.0000 C   0  0  0  0  0  0  0  0  0  0  0  0
    1.3698   -0.5555    0.0000 C   0  0  0  0  0  0  0  0  0  0  0  0
   -0.0125   -0.8645    0.0000 C   0  0  0  0  0  0  0  0  0  0  0  0
    5.1618   -0.5680    0.0000 O   0  0  0  0  0  0  0  0  0  0  0  0
   -0.1837   -0.0626    0.0000 C   0  0  0  0  0  0  0  0  0  0  0  0
    6.7321   -0.0543    0.0000 C   0  0  0  0  0  0  0  0  0  0  0  0
    0.4302    0.4969    0.0000 C   0  0  0  0  0  0  0  0  0  0  0  0
    0.9313   -1.9086    0.0000 O   0  0  0  0  0  0  0  0  0  0  0  0
    7.9557   -1.1694    0.0000 C   0  0  0  0  0  0  0  0  0  0  0  0
   -0.6348   -1.4074    0.0000 O   0  0  0  0  0  0  0  0  0  0  0  0
    7.5172    0.1962    0.0000 C   0  0  0  0  0  0  0  0  0  0  0  0
    6.5567   -0.8687    0.0000 C   0  0  0  0  0  0  0  0  0  0  0  0
    8.1311   -0.3633    0.0000 C   0  0  0  0  0  0  0  0  0  0  0  0
    7.1664   -1.4200    0.0000 C   0  0  0  0  0  0  0  0  0  0  0  0
   -1.4115   -1.1526    0.0000 C   0  0  0  0  0  0  0  0  0  0  0  0
    1.7081   -2.1591    0.0000 C   0  0  0  0  0  0  0  0  0  0  0  0
    8.5696   -1.7290    0.0000 C   0  0  0  0  0  0  0  0  0  0  0  0
    1.8793   -2.9610    0.0000 C   0  0  0  0  0  0  0  0  0  0  0  0
  2  1  1  0  0  0  0
  3  1  1  0  0  0  0
  4  3  1  0  0  0  0
  5  2  1  0  0  0  0
  5  4  1  0  0  0  0
  6  4  2  0  0  0  0
  7  1  1  0  0  0  0
  8  7  1  0  0  0  0
  9 29  1  0  0  0  0
 10  9  3  0  0  0  0
 11  2  2  0  0  0  0
 12 16  1  0  0  0  0
 13  8  1  0  0  0  0
 14  3  2  0  0  0  0
 15  6  1  0  0  0  0
 16 15  2  0  0  0  0
 17 19  1  0  0  0  0
 17 12  2  0  0  0  0
 18  8  2  0  0  0  0
 19 21  2  0  0  0  0
 20 13  1  0  0  0  0
 21 15  1  0  0  0  0
 22 12  1  0  0  0  0
 23 28  2  0  0  0  0
 23 27  1  0  0  0  0
 24 17  1  0  0  0  0
 25 20  1  0  0  0  0
 26 20  2  0  0  0  0
 27 25  2  0  0  0  0
 28 26  1  0  0  0  0
 29 24  1  0  0  0  0
 30 22  1  0  0  0  0
 31 23  1  0  0  0  0
 32 30  1  0  0  0  0
M  END
> <CdId>
842

> <Mol Weight>
450.507

> <Formula>
C24H22N2O5S

> <Click_ID>
CLK012_A07 __ __ 

$$$$
