CLK001_B11
 OpenBabel03181410512D

 20 21  0  0  0  0  0  0  0  0999 V2000
   -0.8616   -0.1545    0.0000 C   0  0  3  0  0  0  0  0  0  0  0  0
   -0.2918    0.4325    0.0000 O   0  0  0  0  0  0  0  0  0  0  0  0
   -1.5687   -0.5629    0.0000 C   0  0  3  0  0  0  0  0  0  0  0  0
   -0.1373   -0.5664    0.0000 C   0  0  0  0  0  0  0  0  0  0  0  0
   -1.4623    0.4222    0.0000 C   0  0  0  0  0  0  0  0  0  0  0  0
    0.4703    0.2300    0.0000 C   0  0  0  0  0  0  0  0  0  0  0  0
   -1.5687   -1.3868    0.0000 C   0  0  0  0  0  0  0  0  0  0  0  0
   -2.2929   -0.1304    0.0000 C   0  0  0  0  0  0  0  0  0  0  0  0
   -0.1510   -1.3868    0.0000 C   0  0  3  0  0  0  0  0  0  0  0  0
   -1.2495    1.1945    0.0000 C   0  0  0  0  0  0  0  0  0  0  0  0
    1.0194    0.8307    0.0000 C   0  0  0  0  0  0  0  0  0  0  0  0
    0.7312   -0.5423    0.0000 O   0  0  0  0  0  0  0  0  0  0  0  0
   -0.8616   -1.7918    0.0000 N   0  0  0  0  0  0  0  0  0  0  0  0
    0.5939   -1.7918    0.0000 C   0  0  0  0  0  0  0  0  0  0  0  0
    0.7792    1.6271    0.0000 C   0  0  0  0  0  0  0  0  0  0  0  0
    1.8399    0.6522    0.0000 C   0  0  0  0  0  0  0  0  0  0  0  0
   -0.8616   -2.6190    0.0000 C   0  0  0  0  0  0  0  0  0  0  0  0
    1.3284    2.2243    0.0000 C   0  0  0  0  0  0  0  0  0  0  0  0
    2.3960    1.2632    0.0000 C   0  0  0  0  0  0  0  0  0  0  0  0
    2.1523    2.0459    0.0000 C   0  0  0  0  0  0  0  0  0  0  0  0
  1  2  1  0  0  0  0
  1  3  1  0  0  0  0
  1  4  1  0  0  0  0
  1  5  1  0  0  0  0
  2  6  1  0  0  0  0
  3  7  1  0  0  0  0
  3  8  1  0  0  0  0
  4  9  1  0  0  0  0
  5 10  3  0  0  0  0
  6 11  1  0  0  0  0
  6 12  2  0  0  0  0
  7 13  1  0  0  0  0
  9 14  1  0  0  0  0
  9 13  1  0  0  0  0
 11 15  1  0  0  0  0
 11 16  2  0  0  0  0
 13 17  1  0  0  0  0
 15 18  2  0  0  0  0
 16 19  1  0  0  0  0
 18 20  1  0  0  0  0
 19 20  2  0  0  0  0
M  END
> <CdId>
20

> <Mol Weight>
271.3541

> <Formula>
C17H21NO2

> <Click_ID>
CLK001_B11 __ __ 

$$$$
