CLK022_F04
 OpenBabel03181410512D

 21 22  0  0  0  0  0  0  0  0999 V2000
    7.5080    1.5345    0.0000 C   0  0  0  0  0  0  0  0  0  0  0  0
    3.2203   -0.1146    0.0000 C   0  0  0  0  0  0  0  0  0  0  0  0
    2.5057   -0.5268    0.0000 C   0  0  0  0  0  0  0  0  0  0  0  0
    8.2226    1.1223    0.0000 N   0  0  0  0  0  0  0  0  0  0  0  0
    6.7933    1.1223    0.0000 C   0  0  0  0  0  0  0  0  0  0  0  0
    7.5080    2.3591    0.0000 O   0  0  0  0  0  0  0  0  0  0  0  0
    6.0787    1.5345    0.0000 C   0  0  0  0  0  0  0  0  0  0  0  0
    6.7933    0.2977    0.0000 C   0  0  0  0  0  0  0  0  0  0  0  0
    8.9325    1.5345    0.0000 C   0  0  0  0  0  0  0  0  0  0  0  0
   11.0763    0.2977    0.0000 C   0  0  0  0  0  0  0  0  0  0  0  0
    9.6471    1.1223    0.0000 C   0  0  0  0  0  0  0  0  0  0  0  0
    5.3641    0.2977    0.0000 C   0  0  0  0  0  0  0  0  0  0  0  0
    6.0787   -0.1146    0.0000 C   0  0  0  0  0  0  0  0  0  0  0  0
    5.3641    1.1223    0.0000 C   0  0  0  0  0  0  0  0  0  0  0  0
   11.7910   -0.1146    0.0000 F   0  0  0  0  0  0  0  0  0  0  0  0
   11.0763    1.1223    0.0000 C   0  0  0  0  0  0  0  0  0  0  0  0
   10.3617   -0.1146    0.0000 C   0  0  0  0  0  0  0  0  0  0  0  0
   10.3617    1.5345    0.0000 C   0  0  0  0  0  0  0  0  0  0  0  0
    9.6471    0.2977    0.0000 C   0  0  0  0  0  0  0  0  0  0  0  0
    3.9349    0.2977    0.0000 C   0  0  0  0  0  0  0  0  0  0  0  0
    4.6495   -0.1146    0.0000 O   0  0  0  0  0  0  0  0  0  0  0  0
  2 20  1  0  0  0  0
  3  2  3  0  0  0  0
  4  1  1  0  0  0  0
  5  1  1  0  0  0  0
  6  1  2  0  0  0  0
  7  5  2  0  0  0  0
  8  5  1  0  0  0  0
  9  4  1  0  0  0  0
 10 17  2  0  0  0  0
 10 16  1  0  0  0  0
 11  9  1  0  0  0  0
 12 13  1  0  0  0  0
 12 14  2  0  0  0  0
 13  8  2  0  0  0  0
 14  7  1  0  0  0  0
 15 10  1  0  0  0  0
 16 18  2  0  0  0  0
 17 19  1  0  0  0  0
 18 11  1  0  0  0  0
 19 11  2  0  0  0  0
 20 21  1  0  0  0  0
 21 12  1  0  0  0  0
M  END
> <CdId>
1678

> <Mol Weight>
283.297

> <Formula>
C17H14FNO2

> <Click_ID>
CLK022_F04 __ __ 

$$$$
