CLK034_E10
 OpenBabel03181410512D

 19 20  0  0  0  0  0  0  0  0999 V2000
   -4.5819    2.5492    0.0000 C   0  0  0  0  0  0  0  0  0  0  0  0
   -4.6736    1.7328    0.0000 N   0  0  0  0  0  0  0  0  0  0  0  0
   -5.3192    2.8949    0.0000 S   0  0  0  0  0  0  0  0  0  0  0  0
   -5.4817    1.5703    0.0000 C   0  0  0  0  0  0  0  0  0  0  0  0
   -3.8696    2.9699    0.0000 N   0  0  0  0  0  0  0  0  0  0  0  0
   -5.8815    2.2951    0.0000 C   0  0  0  0  0  0  0  0  0  0  0  0
   -6.7022    2.3076    0.0000 C   0  0  0  0  0  0  0  0  0  0  0  0
   -3.8696    3.7989    0.0000 C   0  0  0  0  0  0  0  0  0  0  0  0
   -4.2445    0.3499    0.0000 C   0  0  0  0  0  0  0  0  0  0  0  0
   -4.4195   -0.4541    0.0000 C   0  0  0  0  0  0  0  0  0  0  0  0
   -5.9065    0.8705    0.0000 C   0  0  0  0  0  0  0  0  0  0  0  0
   -7.1271    1.5995    0.0000 C   0  0  0  0  0  0  0  0  0  0  0  0
   -6.7147    0.8830    0.0000 C   0  0  0  0  0  0  0  0  0  0  0  0
   -4.0571    1.1622    0.0000 C   0  0  0  0  0  0  0  0  0  0  0  0
   -4.5944    4.2112    0.0000 O   0  0  0  0  0  0  0  0  0  0  0  0
   -7.1021    3.0324    0.0000 C   0  0  0  0  0  0  0  0  0  0  0  0
   -3.1574    4.2112    0.0000 C   0  0  0  0  0  0  0  0  0  0  0  0
   -7.1146    0.1583    0.0000 C   0  0  0  0  0  0  0  0  0  0  0  0
   -3.1574    5.0277    0.0000 C   0  0  0  0  0  0  0  0  0  0  0  0
  2  1  1  0  0  0  0
  3  1  1  0  0  0  0
  4  2  1  0  0  0  0
  5  1  2  0  0  0  0
  6  3  1  0  0  0  0
  6  4  2  0  0  0  0
  7  6  1  0  0  0  0
  8  5  1  0  0  0  0
  9 14  1  0  0  0  0
 10  9  3  0  0  0  0
 11  4  1  0  0  0  0
 12  7  2  0  0  0  0
 13 11  2  0  0  0  0
 13 12  1  0  0  0  0
 14  2  1  0  0  0  0
 15  8  2  0  0  0  0
 16  7  1  0  0  0  0
 17  8  1  0  0  0  0
 18 13  1  0  0  0  0
 19 17  1  0  0  0  0
M  END
> <CdId>
2614

> <Mol Weight>
272.365

> <Formula>
C15H16N2OS

> <Click_ID>
CLK034_E10 __ __ 

$$$$
