CLK005_E09
 OpenBabel03181410512D

 29 31  0  0  0  0  0  0  0  0999 V2000
   -1.9481   -0.3562    0.0000 N    0  0  0  0  0  0  0  0  0  0  0  0
   -2.6607   -0.7694    0.0000 C    0  0  0  0  0  0  0  0  0  0  0  0
   -1.2318   -0.7694    0.0000 C    0  0  0  0  0  0  0  0  0  0  0  0
   -1.9481    0.4700    0.0000 C    0  0  0  0  0  0  0  0  0  0  0  0
   -2.6607   -1.5919    0.0000 C    0  0  0  0  0  0  0  0  0  0  0  0
   -3.3770   -0.3562    0.0000 C    0  0  0  0  0  0  0  0  0  0  0  0
   -0.5192   -0.3562    0.0000 C    0  0  0  0  0  0  0  0  0  0  0  0
   -1.2318   -1.5919    0.0000 O    0  0  0  0  0  0  0  0  0  0  0  0
   -1.2318    0.8793    0.0000 N    0  0  0  0  0  0  0  0  0  0  0  0
   -2.6607    0.8793    0.0000 O    0  0  0  0  0  0  0  0  0  0  0  0
   -3.3770   -2.0049    0.0000 C    0  0  0  0  0  0  0  0  0  0  0  0
   -4.0895   -0.7694    0.0000 C    0  0  0  0  0  0  0  0  0  0  0  0
    0.1971   -0.7694    0.0000 C    0  0  0  0  0  0  0  0  0  0  0  0
   -0.5192    0.4700    0.0000 C    0  0  0  0  0  0  0  0  0  0  0  0
   -4.0895   -1.5919    0.0000 C    0  0  0  0  0  0  0  0  0  0  0  0
    0.9096   -0.3562    0.0000 C    0  0  0  0  0  0  0  0  0  0  0  0
    0.1971    0.8793    0.0000 O    0  0  0  0  0  0  0  0  0  0  0  0
    1.6259   -0.7694    0.0000 C    0  0  0  0  0  0  0  0  0  0  0  0
    0.9096    0.4700    0.0000 C    0  0  0  0  0  0  0  0  0  0  0  0
    2.3422   -0.3562    0.0000 C    0  0  0  0  0  0  0  0  0  0  0  0
    1.6259    0.8793    0.0000 C    0  0  0  0  0  0  0  0  0  0  0  0
    2.3422    0.4700    0.0000 C    0  0  0  0  0  0  0  0  0  0  0  0
    3.0548   -0.7694    0.0000 O    0  0  0  0  0  0  0  0  0  0  0  0
    1.6259    1.7055    0.0000 Cl   0  0  0  0  0  0  0  0  0  0  0  0
    3.0548    0.8793    0.0000 O    0  0  0  0  0  0  0  0  0  0  0  0
    3.0548   -1.5919    0.0000 C    0  0  0  0  0  0  0  0  0  0  0  0
    3.0548    1.7055    0.0000 C    0  0  0  0  0  0  0  0  0  0  0  0
    3.7711    2.1187    0.0000 C    0  0  0  0  0  0  0  0  0  0  0  0
    3.7711    2.9412    0.0000 C    0  0  0  0  0  0  0  0  0  0  0  0
  1  2  1  0  0  0  0
  1  3  1  0  0  0  0
  1  4  1  0  0  0  0
  2  5  2  0  0  0  0
  2  6  1  0  0  0  0
  3  7  1  0  0  0  0
  3  8  2  0  0  0  0
  4  9  1  0  0  0  0
  4 10  2  0  0  0  0
  5 11  1  0  0  0  0
  6 12  2  0  0  0  0
  7 13  2  0  0  0  0
  7 14  1  0  0  0  0
  9 14  1  0  0  0  0
 11 15  2  0  0  0  0
 12 15  1  0  0  0  0
 13 16  1  0  0  0  0
 14 17  2  0  0  0  0
 16 18  1  0  0  0  0
 16 19  2  0  0  0  0
 18 20  2  0  0  0  0
 19 21  1  0  0  0  0
 20 22  1  0  0  0  0
 20 23  1  0  0  0  0
 21 24  1  0  0  0  0
 21 22  2  0  0  0  0
 22 25  1  0  0  0  0
 23 26  1  0  0  0  0
 25 27  1  0  0  0  0
 27 28  1  0  0  0  0
 28 29  3  0  0  0  0
M  END
> <CdId>
368

> <Mol Weight>
410.807

> <Formula>
C21H15ClN2O5

> <Click_ID>
CLK005_E09 __ __ 

$$$$
