CLK001_C02
 OpenBabel03181410512D

 18 18  0  0  0  0  0  0  0  0999 V2000
    1.5473   -0.0343    0.0000 N   0  0  0  0  0  0  0  0  0  0  0  0
    0.8308    0.3811    0.0000 C   0  0  0  0  0  0  0  0  0  0  0  0
    1.5473   -0.8613    0.0000 C   0  0  0  0  0  0  0  0  0  0  0  0
    2.2676    0.3811    0.0000 C   0  0  0  0  0  0  0  0  0  0  0  0
    0.1105   -0.0229    0.0000 C   0  0  0  0  0  0  0  0  0  0  0  0
    0.8308    1.2120    0.0000 O   0  0  0  0  0  0  0  0  0  0  0  0
    2.2676   -1.2768    0.0000 C   0  0  0  0  0  0  0  0  0  0  0  0
    2.9841   -0.0343    0.0000 C   0  0  0  0  0  0  0  0  0  0  0  0
   -0.5984    0.3963    0.0000 C   0  0  0  0  0  0  0  0  0  0  0  0
    2.9803   -0.8613    0.0000 O   0  0  0  0  0  0  0  0  0  0  0  0
   -0.5945    1.2195    0.0000 C   0  0  0  0  0  0  0  0  0  0  0  0
   -1.3073    1.6350    0.0000 C   0  0  0  0  0  0  0  0  0  0  0  0
   -2.0275    1.2234    0.0000 C   0  0  0  0  0  0  0  0  0  0  0  0
   -2.0275    0.4002    0.0000 C   0  0  0  0  0  0  0  0  0  0  0  0
   -2.7402   -0.0153    0.0000 C   0  0  0  0  0  0  0  0  0  0  0  0
   -2.7402   -0.8384    0.0000 C   0  0  0  0  0  0  0  0  0  0  0  0
   -2.0275   -1.2500    0.0000 C   0  0  0  0  0  0  0  0  0  0  0  0
   -1.3073   -1.6578    0.0000 C   0  0  0  0  0  0  0  0  0  0  0  0
  1  2  1  0  0  0  0
  1  3  1  0  0  0  0
  1  4  1  0  0  0  0
  2  5  1  0  0  0  0
  2  6  2  0  0  0  0
  3  7  1  0  0  0  0
  4  8  1  0  0  0  0
  5  9  1  0  0  0  0
  7 10  1  0  0  0  0
  8 10  1  0  0  0  0
  9 11  1  0  0  0  0
 11 12  1  0  0  0  0
 12 13  1  0  0  0  0
 13 14  1  0  0  0  0
 14 15  1  0  0  0  0
 15 16  1  0  0  0  0
 16 17  1  0  0  0  0
 17 18  3  0  0  0  0
M  END
> <CdId>
21

> <Mol Weight>
251.3645

> <Formula>
C15H25NO2

> <Click_ID>
CLK001_C02 __ __ 

$$$$
