CLK038B10
 OpenBabel03181410512D

 24 27  0  0  0  0  0  0  0  0999 V2000
   -0.5500    0.6083    0.0000 N   0  0  0  0  0  0  0  0  0  0  0  0
   -0.5500    1.4333    0.0000 C   0  0  0  0  0  0  0  0  0  0  0  0
    0.1625    0.1958    0.0000 C   0  0  3  0  0  0  0  0  0  0  0  0
    0.1625    1.8458    0.0000 N   0  0  0  0  0  0  0  0  0  0  0  0
    0.8792    0.6083    0.0000 N   0  0  0  0  0  0  0  0  0  0  0  0
   -1.3333    1.6875    0.0000 N   0  0  0  0  0  0  0  0  0  0  0  0
    0.8792    1.4333    0.0000 C   0  0  0  0  0  0  0  0  0  0  0  0
    0.1625   -0.6292    0.0000 C   0  0  0  0  0  0  0  0  0  0  0  0
   -1.3333    0.3542    0.0000 C   0  0  0  0  0  0  0  0  0  0  0  0
   -1.8208    1.0208    0.0000 C   0  0  0  0  0  0  0  0  0  0  0  0
    3.0208   -0.6292    0.0000 C   0  0  0  0  0  0  0  0  0  0  0  0
    3.7375   -0.2167    0.0000 C   0  0  0  0  0  0  0  0  0  0  0  0
    0.8792   -1.0417    0.0000 C   0  0  0  0  0  0  0  0  0  0  0  0
    1.5917    1.8458    0.0000 N   0  0  0  0  0  0  0  0  0  0  0  0
   -0.5500   -1.0417    0.0000 C   0  0  0  0  0  0  0  0  0  0  0  0
    1.5917   -0.6292    0.0000 O   0  0  0  0  0  0  0  0  0  0  0  0
    2.3083   -1.0417    0.0000 C   0  0  0  0  0  0  0  0  0  0  0  0
   -1.6708   -0.4000    0.0000 C   0  0  0  0  0  0  0  0  0  0  0  0
   -2.6417    0.9375    0.0000 C   0  0  0  0  0  0  0  0  0  0  0  0
    0.8792   -1.8667    0.0000 C   0  0  0  0  0  0  0  0  0  0  0  0
   -0.5500   -1.8667    0.0000 C   0  0  0  0  0  0  0  0  0  0  0  0
   -2.4917   -0.4833    0.0000 C   0  0  0  0  0  0  0  0  0  0  0  0
   -2.9750    0.1833    0.0000 C   0  0  0  0  0  0  0  0  0  0  0  0
    0.1625   -2.2792    0.0000 C   0  0  0  0  0  0  0  0  0  0  0  0
  2  1  1  0  0  0  0
  3  1  1  0  0  0  0
  4  2  1  0  0  0  0
  4  7  2  0  0  0  0
  5  3  1  0  0  0  0
  6  2  2  0  0  0  0
  7  5  1  0  0  0  0
  8  3  1  0  0  0  0
  9  1  1  0  0  0  0
 10  9  2  0  0  0  0
 10  6  1  0  0  0  0
 11 17  1  0  0  0  0
 12 11  3  0  0  0  0
 13  8  2  0  0  0  0
 14  7  1  0  0  0  0
 15  8  1  0  0  0  0
 16 13  1  0  0  0  0
 17 16  1  0  0  0  0
 18  9  1  0  0  0  0
 19 10  1  0  0  0  0
 20 13  1  0  0  0  0
 21 15  2  0  0  0  0
 22 18  2  0  0  0  0
 22 23  1  0  0  0  0
 23 19  2  0  0  0  0
 24 20  2  0  0  0  0
 24 21  1  0  0  0  0
M  END
> <CdId>
2914

> <Mol Weight>
317.3446

> <Formula>
C18H15N5O

> <Click_ID>
CLK038B10 __ __ 

$$$$
