CLK040D03
 OpenBabel03181410512D

 16 16  0  0  0  0  0  0  0  0999 V2000
    0.5333   -1.5958    0.0000 C    0  0  0  0  0  0  0  0  0  0  0  0
   -1.6083    2.9417    0.0000 C    0  0  0  0  0  0  0  0  0  0  0  0
   -1.6083    3.7667    0.0000 C    0  0  0  0  0  0  0  0  0  0  0  0
   -0.8958    0.8792    0.0000 C    0  0  0  0  0  0  0  0  0  0  0  0
    0.5333   -0.7708    0.0000 C    0  0  0  0  0  0  0  0  0  0  0  0
    1.2500   -2.0083    0.0000 C    0  0  0  0  0  0  0  0  0  0  0  0
   -0.1792   -0.3583    0.0000 O    0  0  0  0  0  0  0  0  0  0  0  0
   -1.6083    0.4667    0.0000 O    0  0  0  0  0  0  0  0  0  0  0  0
   -0.1792   -2.0083    0.0000 Cl   0  0  0  0  0  0  0  0  0  0  0  0
   -0.1792    0.4667    0.0000 C    0  0  0  0  0  0  0  0  0  0  0  0
   -0.8958    1.7042    0.0000 N    0  0  0  0  0  0  0  0  0  0  0  0
    1.2500   -2.8333    0.0000 Cl   0  0  0  0  0  0  0  0  0  0  0  0
   -1.6083    2.1167    0.0000 C    0  0  0  0  0  0  0  0  0  0  0  0
    1.9625   -0.7708    0.0000 C    0  0  0  0  0  0  0  0  0  0  0  0
    1.2500   -0.3583    0.0000 C    0  0  0  0  0  0  0  0  0  0  0  0
    1.9625   -1.5958    0.0000 C    0  0  0  0  0  0  0  0  0  0  0  0
  2 13  1  0  0  0  0
  3  2  3  0  0  0  0
  4 10  1  0  0  0  0
  5  1  1  0  0  0  0
  6  1  2  0  0  0  0
  7  5  1  0  0  0  0
  8  4  2  0  0  0  0
  9  1  1  0  0  0  0
 10  7  1  0  0  0  0
 11  4  1  0  0  0  0
 12  6  1  0  0  0  0
 13 11  1  0  0  0  0
 14 16  2  0  0  0  0
 15  5  2  0  0  0  0
 15 14  1  0  0  0  0
 16  6  1  0  0  0  0
M  END
> <CdId>
3020

> <Mol Weight>
258.101

> <Formula>
C11H9Cl2NO2

> <Click_ID>
CLK040D03 __ __ 

$$$$
