CLK018_F11
 OpenBabel03181410512D

 27 29  0  0  0  0  0  0  0  0999 V2000
    1.5650   -0.8158    0.0000 N    0  0  0  0  0  0  0  0  0  0  0  0
    1.8230   -1.6024    0.0000 C    0  0  0  0  0  0  0  0  0  0  0  0
    2.2350   -0.3288    0.0000 C    0  0  0  0  0  0  0  0  0  0  0  0
    2.9010   -0.8158    0.0000 C    0  0  0  0  0  0  0  0  0  0  0  0
    2.6470   -1.6024    0.0000 S    0  0  0  0  0  0  0  0  0  0  0  0
    3.6876   -0.5619    0.0000 C    0  0  0  0  0  0  0  0  0  0  0  0
    0.6118    0.2455    0.0000 C    0  0  0  0  0  0  0  0  0  0  0  0
    0.3913    1.0446    0.0000 C    0  0  0  0  0  0  0  0  0  0  0  0
    4.8488    5.0860    0.0000 C    0  0  0  0  0  0  0  0  0  0  0  0
    1.3360   -2.2642    0.0000 O    0  0  0  0  0  0  0  0  0  0  0  0
    2.2267    0.4952    0.0000 O    0  0  0  0  0  0  0  0  0  0  0  0
    0.7866   -0.5619    0.0000 C    0  0  0  0  0  0  0  0  0  0  0  0
    5.6229    5.3357    0.0000 C    0  0  0  0  0  0  0  0  0  0  0  0
    4.6948    4.2744    0.0000 C    0  0  0  0  0  0  0  0  0  0  0  0
    3.8499    0.2580    0.0000 C    0  0  0  0  0  0  0  0  0  0  0  0
    6.2430    4.7864    0.0000 C    0  0  0  0  0  0  0  0  0  0  0  0
    4.3618    2.6678    0.0000 O    0  0  0  0  0  0  0  0  0  0  0  0
    5.2983    3.7416    0.0000 C    0  0  0  0  0  0  0  0  0  0  0  0
    4.2370    5.6354    0.0000 Cl   0  0  0  0  0  0  0  0  0  0  0  0
    4.1870    1.8562    0.0000 C    0  0  0  0  0  0  0  0  0  0  0  0
    5.7935    6.1473    0.0000 Cl   0  0  0  0  0  0  0  0  0  0  0  0
    5.1318    2.9300    0.0000 C    0  0  0  0  0  0  0  0  0  0  0  0
    6.0807    3.9955    0.0000 C    0  0  0  0  0  0  0  0  0  0  0  0
    4.6323    0.5077    0.0000 C    0  0  0  0  0  0  0  0  0  0  0  0
    3.2381    0.7991    0.0000 C    0  0  0  0  0  0  0  0  0  0  0  0
    3.4004    1.6065    0.0000 C    0  0  0  0  0  0  0  0  0  0  0  0
    4.7988    1.3193    0.0000 C    0  0  0  0  0  0  0  0  0  0  0  0
  2  1  1  0  0  0  0
  3  1  1  0  0  0  0
  4  3  1  0  0  0  0
  4  5  1  0  0  0  0
  5  2  1  0  0  0  0
  6  4  2  0  0  0  0
  7 12  1  0  0  0  0
  8  7  3  0  0  0  0
  9 14  1  0  0  0  0
  9 13  2  0  0  0  0
 10  2  2  0  0  0  0
 11  3  2  0  0  0  0
 12  1  1  0  0  0  0
 13 16  1  0  0  0  0
 14 18  2  0  0  0  0
 15  6  1  0  0  0  0
 16 23  2  0  0  0  0
 17 20  1  0  0  0  0
 18 22  1  0  0  0  0
 19  9  1  0  0  0  0
 20 26  2  0  0  0  0
 20 27  1  0  0  0  0
 21 13  1  0  0  0  0
 22 17  1  0  0  0  0
 23 18  1  0  0  0  0
 24 15  1  0  0  0  0
 25 15  2  0  0  0  0
 26 25  1  0  0  0  0
 27 24  2  0  0  0  0
M  END
> <CdId>
1376

> <Mol Weight>
418.293

> <Formula>
C20H13Cl2NO3S

> <Click_ID>
CLK018_F11 __ __ 

$$$$
