CLK005_A07
 OpenBabel03181410512D

 24 26  0  0  0  0  0  0  0  0999 V2000
    0.2868    0.3178    0.0000 C    0  0  3  0  0  0  0  0  0  0  0  0
    1.0020    0.7255    0.0000 C    0  0  0  0  0  0  0  0  0  0  0  0
    0.2834   -0.5079    0.0000 C    0  0  0  0  0  0  0  0  0  0  0  0
   -0.4284    0.7324    0.0000 C    0  0  0  0  0  0  0  0  0  0  0  0
    1.0020    1.5514    0.0000 C    0  0  0  0  0  0  0  0  0  0  0  0
    1.7863    0.4699    0.0000 C    0  0  0  0  0  0  0  0  0  0  0  0
   -0.4388   -0.9156    0.0000 C    0  0  0  0  0  0  0  0  0  0  0  0
    0.9882   -0.9190    0.0000 C    0  0  0  0  0  0  0  0  0  0  0  0
   -0.4146    1.5583    0.0000 C    0  0  0  0  0  0  0  0  0  0  0  0
   -1.1437    0.3247    0.0000 C    0  0  0  0  0  0  0  0  0  0  0  0
    0.2868    1.9625    0.0000 O    0  0  0  0  0  0  0  0  0  0  0  0
    1.7897    1.8002    0.0000 N    0  0  0  0  0  0  0  0  0  0  0  0
    2.2735    1.1332    0.0000 N    0  0  0  0  0  0  0  0  0  0  0  0
    2.0350   -0.3178    0.0000 C    0  0  0  0  0  0  0  0  0  0  0  0
   -0.4388   -1.7344    0.0000 C    0  0  0  0  0  0  0  0  0  0  0  0
   -1.1402   -0.5079    0.0000 O    0  0  0  0  0  0  0  0  0  0  0  0
    0.9882   -1.7483    0.0000 C    0  0  0  0  0  0  0  0  0  0  0  0
   -1.1298    1.9729    0.0000 N    0  0  0  0  0  0  0  0  0  0  0  0
   -1.8658   -0.0830    0.0000 N    0  0  0  0  0  0  0  0  0  0  0  0
    0.2729   -2.1595    0.0000 C    0  0  0  0  0  0  0  0  0  0  0  0
   -1.8554   -0.9087    0.0000 C    0  0  0  0  0  0  0  0  0  0  0  0
    1.6895   -2.1595    0.0000 Br   0  0  0  0  0  0  0  0  0  0  0  0
   -2.5568   -0.4941    0.0000 C    0  0  0  0  0  0  0  0  0  0  0  0
   -3.2686   -0.0899    0.0000 C    0  0  0  0  0  0  0  0  0  0  0  0
  1  2  1  0  0  0  0
  1  3  1  0  0  0  0
  1  4  1  0  0  0  0
  2  5  2  0  0  0  0
  2  6  1  0  0  0  0
  3  7  2  0  0  0  0
  3  8  1  0  0  0  0
  4  9  2  0  0  0  0
  4 10  1  0  0  0  0
  5 11  1  0  0  0  0
  5 12  1  0  0  0  0
  6 13  2  0  0  0  0
  6 14  1  0  0  0  0
  7 15  1  0  0  0  0
  7 16  1  0  0  0  0
  8 17  2  0  0  0  0
  9 18  1  0  0  0  0
  9 11  1  0  0  0  0
 10 19  3  0  0  0  0
 12 13  1  0  0  0  0
 15 20  2  0  0  0  0
 16 21  1  0  0  0  0
 17 22  1  0  0  0  0
 17 20  1  0  0  0  0
 21 23  1  0  0  0  0
 23 24  3  0  0  0  0
M  END
> <CdId>
326

> <Mol Weight>
385.215

> <Formula>
C17H13BrN4O2

> <Click_ID>
CLK005_A07 __ __ 

$$$$
