CLK020_C07
 OpenBabel03181410512D

 24 26  0  0  0  0  0  0  0  0999 V2000
    1.5650   -0.8158    0.0000 N   0  0  0  0  0  0  0  0  0  0  0  0
    1.8230   -1.6024    0.0000 C   0  0  0  0  0  0  0  0  0  0  0  0
    2.2350   -0.3288    0.0000 C   0  0  0  0  0  0  0  0  0  0  0  0
    2.9010   -0.8158    0.0000 C   0  0  0  0  0  0  0  0  0  0  0  0
    2.6470   -1.6024    0.0000 S   0  0  0  0  0  0  0  0  0  0  0  0
    3.6876   -0.5619    0.0000 C   0  0  0  0  0  0  0  0  0  0  0  0
    0.6118    0.2455    0.0000 C   0  0  0  0  0  0  0  0  0  0  0  0
    0.3913    1.0446    0.0000 C   0  0  0  0  0  0  0  0  0  0  0  0
    1.3360   -2.2642    0.0000 O   0  0  0  0  0  0  0  0  0  0  0  0
    2.2267    0.4952    0.0000 O   0  0  0  0  0  0  0  0  0  0  0  0
    0.7866   -0.5619    0.0000 C   0  0  0  0  0  0  0  0  0  0  0  0
    3.8582    0.2455    0.0000 C   0  0  0  0  0  0  0  0  0  0  0  0
    2.8094    2.1559    0.0000 O   0  0  0  0  0  0  0  0  0  0  0  0
    3.4129    1.6065    0.0000 C   0  0  0  0  0  0  0  0  0  0  0  0
    3.2464    0.7991    0.0000 C   0  0  0  0  0  0  0  0  0  0  0  0
    2.9759    2.9592    0.0000 C   0  0  0  0  0  0  0  0  0  0  0  0
    4.8113    1.3068    0.0000 C   0  0  0  0  0  0  0  0  0  0  0  0
    4.6365    0.4994    0.0000 C   0  0  0  0  0  0  0  0  0  0  0  0
    4.1995    1.8479    0.0000 C   0  0  0  0  0  0  0  0  0  0  0  0
    3.7625    3.2172    0.0000 C   0  0  0  0  0  0  0  0  0  0  0  0
    2.3641    3.5169    0.0000 C   0  0  0  0  0  0  0  0  0  0  0  0
    3.9373    4.0122    0.0000 C   0  0  0  0  0  0  0  0  0  0  0  0
    2.5389    4.3202    0.0000 C   0  0  0  0  0  0  0  0  0  0  0  0
    3.3255    4.5616    0.0000 C   0  0  0  0  0  0  0  0  0  0  0  0
  2  1  1  0  0  0  0
  3  1  1  0  0  0  0
  4  3  1  0  0  0  0
  4  5  1  0  0  0  0
  5  2  1  0  0  0  0
  6  4  2  0  0  0  0
  7 11  1  0  0  0  0
  8  7  3  0  0  0  0
  9  2  2  0  0  0  0
 10  3  2  0  0  0  0
 11  1  1  0  0  0  0
 12  6  1  0  0  0  0
 13 14  1  0  0  0  0
 14 15  1  0  0  0  0
 14 19  2  0  0  0  0
 15 12  2  0  0  0  0
 16 13  1  0  0  0  0
 17 18  2  0  0  0  0
 18 12  1  0  0  0  0
 19 17  1  0  0  0  0
 20 16  2  0  0  0  0
 21 16  1  0  0  0  0
 22 20  1  0  0  0  0
 22 24  2  0  0  0  0
 23 21  2  0  0  0  0
 24 23  1  0  0  0  0
M  END
> <CdId>
1502

> <Mol Weight>
335.376

> <Formula>
C19H13NO3S

> <Click_ID>
CLK020_C07 __ __ 

$$$$
