CLK028_H05
 OpenBabel03181410512D

 31 33  0  0  0  0  0  0  0  0999 V2000
   -2.1449    0.4228    0.0000 C    0  0  0  0  0  0  0  0  0  0  0  0
   -2.8633    0.0068    0.0000 C    0  0  0  0  0  0  0  0  0  0  0  0
    2.1415    1.2409    0.0000 C    0  0  0  0  0  0  0  0  0  0  0  0
    1.4299    1.6499    0.0000 C    0  0  0  0  0  0  0  0  0  0  0  0
    2.1311    0.4228    0.0000 C    0  0  0  0  0  0  0  0  0  0  0  0
    4.2830    1.6362    0.0000 C    0  0  0  0  0  0  0  0  0  0  0  0
    5.0014    2.0383    0.0000 C    0  0  0  0  0  0  0  0  0  0  0  0
   -0.7150    0.4228    0.0000 N    0  0  0  0  0  0  0  0  0  0  0  0
   -1.4299    0.0068    0.0000 N    0  0  0  0  0  0  0  0  0  0  0  0
    0.7150    1.2478    0.0000 C    0  0  0  0  0  0  0  0  0  0  0  0
    1.4162    0.0138    0.0000 C    0  0  0  0  0  0  0  0  0  0  0  0
   -2.1449    1.2478    0.0000 O    0  0  0  0  0  0  0  0  0  0  0  0
    0.7150    0.4228    0.0000 C    0  0  0  0  0  0  0  0  0  0  0  0
   -3.5783    0.4228    0.0000 C    0  0  0  0  0  0  0  0  0  0  0  0
   -2.8633   -0.8181    0.0000 C    0  0  0  0  0  0  0  0  0  0  0  0
    0.0000    0.0068    0.0000 C    0  0  0  0  0  0  0  0  0  0  0  0
    2.8427    0.0068    0.0000 Br   0  0  0  0  0  0  0  0  0  0  0  0
    1.4437    2.4784    0.0000 Br   0  0  0  0  0  0  0  0  0  0  0  0
   -3.0765    0.8112    0.0000 O    0  0  0  0  0  0  0  0  0  0  0  0
    2.8530    1.6431    0.0000 O    0  0  0  0  0  0  0  0  0  0  0  0
    3.5612    1.2375    0.0000 C    0  0  0  0  0  0  0  0  0  0  0  0
   -4.2899    0.0068    0.0000 C    0  0  0  0  0  0  0  0  0  0  0  0
   -3.5852   -1.2306    0.0000 C    0  0  0  0  0  0  0  0  0  0  0  0
   -2.1484   -1.2306    0.0000 C    0  0  0  0  0  0  0  0  0  0  0  0
   -3.5715    1.2478    0.0000 C    0  0  0  0  0  0  0  0  0  0  0  0
   -2.1552   -2.0590    0.0000 C    0  0  0  0  0  0  0  0  0  0  0  0
   -3.5852   -2.0556    0.0000 C    0  0  0  0  0  0  0  0  0  0  0  0
   -5.0014    0.4263    0.0000 C    0  0  0  0  0  0  0  0  0  0  0  0
   -4.2864    1.6637    0.0000 C    0  0  0  0  0  0  0  0  0  0  0  0
   -5.0014    1.2546    0.0000 C    0  0  0  0  0  0  0  0  0  0  0  0
   -2.8702   -2.4749    0.0000 C    0  0  0  0  0  0  0  0  0  0  0  0
  2  1  1  0  0  0  0
  3  5  1  0  0  0  0
  3  4  2  0  0  0  0
  4 10  1  0  0  0  0
  5 11  2  0  0  0  0
  6 21  1  0  0  0  0
  7  6  3  0  0  0  0
  8  9  1  0  0  0  0
  9  1  1  0  0  0  0
 10 13  2  0  0  0  0
 11 13  1  0  0  0  0
 12  1  2  0  0  0  0
 13 16  1  0  0  0  0
 14  2  1  0  0  0  0
 15  2  1  0  0  0  0
 16  8  2  0  0  0  0
 17  5  1  0  0  0  0
 18  4  1  0  0  0  0
 19  2  1  0  0  0  0
 20  3  1  0  0  0  0
 21 20  1  0  0  0  0
 22 14  1  0  0  0  0
 23 15  2  0  0  0  0
 24 15  1  0  0  0  0
 25 14  2  0  0  0  0
 26 24  2  0  0  0  0
 27 23  1  0  0  0  0
 28 22  2  0  0  0  0
 28 30  1  0  0  0  0
 29 25  1  0  0  0  0
 30 29  2  0  0  0  0
 31 26  1  0  0  0  0
 31 27  2  0  0  0  0
M  END
> <CdId>
2159

> <Mol Weight>
542.219

> <Formula>
C24H18Br2N2O3

> <Click_ID>
CLK028_H05 __ __ 

$$$$
