CLK048C07
 OpenBabel03181410512D

 21 22  0  0  0  0  0  0  0  0999 V2000
    0.1000    2.7042    0.0000 C   0  0  0  0  0  0  0  0  0  0  0  0
    0.1000    3.5292    0.0000 C   0  0  0  0  0  0  0  0  0  0  0  0
    0.1000   -2.2458    0.0000 C   0  0  0  0  0  0  0  0  0  0  0  0
    0.1000   -1.4208    0.0000 N   0  0  0  0  0  0  0  0  0  0  0  0
    0.5125    4.2375    0.0000 C   0  0  0  0  0  0  0  0  0  0  0  0
   -0.3125    4.2375    0.0000 C   0  0  0  0  0  0  0  0  0  0  0  0
   -0.6125    2.2917    0.0000 N   0  0  0  0  0  0  0  0  0  0  0  0
    1.5292   -3.8958    0.0000 C   0  0  0  0  0  0  0  0  0  0  0  0
    2.2417   -4.3083    0.0000 C   0  0  0  0  0  0  0  0  0  0  0  0
   -0.6125   -1.0083    0.0000 C   0  0  3  0  0  0  0  0  0  0  0  0
   -0.6125   -0.1833    0.0000 C   0  0  0  0  0  0  0  0  0  0  0  0
    0.8125    2.2917    0.0000 O   0  0  0  0  0  0  0  0  0  0  0  0
   -0.6125   -2.6583    0.0000 O   0  0  0  0  0  0  0  0  0  0  0  0
    0.8125   -2.6583    0.0000 N   0  0  0  0  0  0  0  0  0  0  0  0
   -0.6125    1.4667    0.0000 C   0  0  0  0  0  0  0  0  0  0  0  0
    0.1000    0.2292    0.0000 C   0  0  0  0  0  0  0  0  0  0  0  0
   -1.3292    0.2292    0.0000 C   0  0  0  0  0  0  0  0  0  0  0  0
   -1.3292    1.0542    0.0000 C   0  0  0  0  0  0  0  0  0  0  0  0
    0.1000    1.0542    0.0000 C   0  0  0  0  0  0  0  0  0  0  0  0
    0.8125   -3.4833    0.0000 C   0  0  0  0  0  0  0  0  0  0  0  0
   -1.3292   -1.4208    0.0000 C   0  0  0  0  0  0  0  0  0  0  0  0
  2  1  1  0  0  0  0
  3  4  1  0  0  0  0
  4 10  1  0  0  0  0
  5  2  1  0  0  0  0
  6  2  1  0  0  0  0
  6  5  1  0  0  0  0
  7  1  1  0  0  0  0
  8 20  1  0  0  0  0
  9  8  3  0  0  0  0
 10 11  1  0  0  0  0
 11 17  2  0  0  0  0
 12  1  2  0  0  0  0
 13  3  2  0  0  0  0
 14  3  1  0  0  0  0
 15  7  1  0  0  0  0
 16 19  2  0  0  0  0
 16 11  1  0  0  0  0
 17 18  1  0  0  0  0
 18 15  2  0  0  0  0
 19 15  1  0  0  0  0
 20 14  1  0  0  0  0
 21 10  1  0  0  0  0
M  END
> <CdId>
3691

> <Mol Weight>
285.341

> <Formula>
C16H19N3O2

> <Click_ID>
CLK048C07 __ __ 

$$$$
