CLK039D05
 OpenBabel03181410512D

 16 16  0  0  0  0  0  0  0  0999 V2000
    0.2208    1.0583    0.0000 S    0  0  0  0  0  0  0  0  0  0  0  0
    0.2208    0.2333    0.0000 C    0  0  0  0  0  0  0  0  0  0  0  0
    0.9375    3.1208    0.0000 C    0  0  0  0  0  0  0  0  0  0  0  0
    0.9375    3.9458    0.0000 C    0  0  0  0  0  0  0  0  0  0  0  0
   -0.6042    1.0583    0.0000 O    0  0  0  0  0  0  0  0  0  0  0  0
    1.0458    1.0583    0.0000 O    0  0  0  0  0  0  0  0  0  0  0  0
   -0.4917   -0.1792    0.0000 C    0  0  0  0  0  0  0  0  0  0  0  0
    0.2208    1.8833    0.0000 N    0  0  0  0  0  0  0  0  0  0  0  0
   -0.4917   -1.0042    0.0000 C    0  0  0  0  0  0  0  0  0  0  0  0
   -0.4917   -2.6542    0.0000 C    0  0  0  0  0  0  0  0  0  0  0  0
    0.9375    2.2958    0.0000 C    0  0  0  0  0  0  0  0  0  0  0  0
   -0.4917   -3.4792    0.0000 Cl   0  0  0  0  0  0  0  0  0  0  0  0
    0.2208   -1.4167    0.0000 C    0  0  0  0  0  0  0  0  0  0  0  0
   -1.2083   -1.4167    0.0000 C    0  0  0  0  0  0  0  0  0  0  0  0
    0.2208   -2.2417    0.0000 C    0  0  0  0  0  0  0  0  0  0  0  0
   -1.2083   -2.2417    0.0000 C    0  0  0  0  0  0  0  0  0  0  0  0
  2  1  1  0  0  0  0
  3 11  1  0  0  0  0
  4  3  3  0  0  0  0
  5  1  2  0  0  0  0
  6  1  2  0  0  0  0
  7  2  2  0  0  0  0
  8  1  1  0  0  0  0
  9  7  1  0  0  0  0
 10 16  2  0  0  0  0
 11  8  1  0  0  0  0
 12 10  1  0  0  0  0
 13  9  1  0  0  0  0
 14  9  2  0  0  0  0
 15 13  2  0  0  0  0
 15 10  1  0  0  0  0
 16 14  1  0  0  0  0
M  END
> <CdId>
2956

> <Mol Weight>
255.721

> <Formula>
C11H10ClNO2S

> <Click_ID>
CLK039D05 __ __ 

$$$$
