CLK003_G03
 OpenBabel03181410512D

 15 15  0  0  0  0  0  0  0  0999 V2000
   -0.2790   -0.7422    0.0000 N   0  3  0  0  0  0  0  0  0  0  0  0
    0.5088   -0.5033    0.0000 C   0  0  0  0  0  0  0  0  0  0  0  0
   -0.5271    0.0565    0.0000 C   0  0  0  0  0  0  0  0  0  0  0  0
   -0.0200   -1.5355    0.0000 C   0  0  0  0  0  0  0  0  0  0  0  0
   -1.0668   -1.0067    0.0000 C   0  0  0  0  0  0  0  0  0  0  0  0
    0.6930    0.2936    0.0000 C   0  0  0  0  0  0  0  0  0  0  0  0
   -1.3258    0.2261    0.0000 C   0  0  0  0  0  0  0  0  0  0  0  0
    0.7988   -1.6997    0.0000 C   0  0  0  0  0  0  0  0  0  0  0  0
   -1.2255   -1.8109    0.0000 C   0  0  0  0  0  0  0  0  0  0  0  0
    0.0802    0.8717    0.0000 C   0  0  0  0  0  0  0  0  0  0  0  0
    1.4863    0.5271    0.0000 C   0  0  0  0  0  0  0  0  0  0  0  0
   -2.1191    0.3958    0.0000 C   0  0  0  0  0  0  0  0  0  0  0  0
    0.2699    1.6741    0.0000 C   0  0  0  0  0  0  0  0  0  0  0  0
    1.6668    1.3422    0.0000 C   0  0  0  0  0  0  0  0  0  0  0  0
    1.0595    1.9130    0.0000 C   0  0  0  0  0  0  0  0  0  0  0  0
  1  2  1  0  0  0  0
  1  3  1  0  0  0  0
  1  4  1  0  0  0  0
  1  5  1  0  0  0  0
  2  6  1  0  0  0  0
  3  7  1  0  0  0  0
  4  8  1  0  0  0  0
  5  9  1  0  0  0  0
  6 10  2  0  0  0  0
  6 11  1  0  0  0  0
  7 12  3  0  0  0  0
 10 13  1  0  0  0  0
 11 14  2  0  0  0  0
 13 15  2  0  0  0  0
 14 15  1  0  0  0  0
M  END
> <CdId>
222

> <Mol Weight>
202.3153

> <Formula>
C14H20N

> <Click_ID>
CLK003_G03 __ __ 

$$$$
