CLK018_C05
 OpenBabel03181410512D

 27 28  0  0  0  0  0  0  0  0999 V2000
    5.1354   -2.7883    0.0000 N   0  0  0  0  0  0  0  0  0  0  0  0
    5.3934   -3.5748    0.0000 C   0  0  0  0  0  0  0  0  0  0  0  0
    5.8054   -2.3014    0.0000 C   0  0  0  0  0  0  0  0  0  0  0  0
    6.4713   -2.7883    0.0000 C   0  0  0  0  0  0  0  0  0  0  0  0
    6.2174   -3.5748    0.0000 S   0  0  0  0  0  0  0  0  0  0  0  0
    4.3489   -2.5344    0.0000 C   0  0  3  0  0  0  0  0  0  0  0  0
    7.2661   -2.5344    0.0000 C   0  0  0  0  0  0  0  0  0  0  0  0
    4.1741   -1.7271    0.0000 C   0  0  0  0  0  0  0  0  0  0  0  0
    8.9183    1.7437    0.0000 C   0  0  0  0  0  0  0  0  0  0  0  0
    9.0931    2.5427    0.0000 C   0  0  0  0  0  0  0  0  0  0  0  0
    4.8982   -4.2490    0.0000 O   0  0  0  0  0  0  0  0  0  0  0  0
    6.9956   -0.3663    0.0000 C   0  0  0  0  0  0  0  0  0  0  0  0
    5.7971   -1.4732    0.0000 O   0  0  0  0  0  0  0  0  0  0  0  0
    7.4326   -1.7271    0.0000 C   0  0  0  0  0  0  0  0  0  0  0  0
    6.8208   -1.1778    0.0000 C   0  0  0  0  0  0  0  0  0  0  0  0
    7.7697   -0.1166    0.0000 C   0  0  0  0  0  0  0  0  0  0  0  0
    3.3875   -1.4774    0.0000 O   0  0  0  0  0  0  0  0  0  0  0  0
    8.3814   -0.6659    0.0000 C   0  0  0  0  0  0  0  0  0  0  0  0
    8.2066   -1.4774    0.0000 C   0  0  0  0  0  0  0  0  0  0  0  0
    4.7858   -1.1778    0.0000 O   0  0  0  0  0  0  0  0  0  0  0  0
    6.3922    0.1831    0.0000 O   0  0  0  0  0  0  0  0  0  0  0  0
    7.9528    0.6867    0.0000 O   0  0  0  0  0  0  0  0  0  0  0  0
    8.7310    0.9322    0.0000 C   0  0  0  0  0  0  0  0  0  0  0  0
    3.7371   -3.0879    0.0000 C   0  0  0  0  0  0  0  0  0  0  0  0
    5.6098   -0.0749    0.0000 C   0  0  0  0  0  0  0  0  0  0  0  0
    4.6111   -0.3663    0.0000 C   0  0  0  0  0  0  0  0  0  0  0  0
    4.9981    0.4827    0.0000 C   0  0  0  0  0  0  0  0  0  0  0  0
  2  1  1  0  0  0  0
  3  1  1  0  0  0  0
  4  3  1  0  0  0  0
  4  5  1  0  0  0  0
  5  2  1  0  0  0  0
  6  1  1  0  0  0  0
  7  4  2  0  0  0  0
  8  6  1  0  0  0  0
  9 23  1  0  0  0  0
 10  9  3  0  0  0  0
 11  2  2  0  0  0  0
 12 15  1  0  0  0  0
 13  3  2  0  0  0  0
 14  7  1  0  0  0  0
 15 14  2  0  0  0  0
 16 18  1  0  0  0  0
 16 12  2  0  0  0  0
 17  8  2  0  0  0  0
 18 19  2  0  0  0  0
 19 14  1  0  0  0  0
 20  8  1  0  0  0  0
 21 12  1  0  0  0  0
 22 16  1  0  0  0  0
 23 22  1  0  0  0  0
 24  6  1  0  0  0  0
 25 21  1  0  0  0  0
 26 20  1  0  0  0  0
 27 25  1  0  0  0  0
M  END
> <CdId>
1340

> <Mol Weight>
389.422

> <Formula>
C19H19NO6S

> <Click_ID>
CLK018_C05 __ __ 

$$$$
