CLK042C06
 OpenBabel03181410512D

 23 24  0  0  0  0  0  0  0  0999 V2000
   -0.1875    0.7917    0.0000 S    0  0  0  0  0  0  0  0  0  0  0  0
   -1.6167   -0.8583    0.0000 C    0  0  0  0  0  0  0  0  0  0  0  0
   -1.6167   -1.6833    0.0000 C    0  0  0  0  0  0  0  0  0  0  0  0
   -0.9042    0.3792    0.0000 C    0  0  0  0  0  0  0  0  0  0  0  0
   -0.9042   -0.4458    0.0000 C    0  0  0  0  0  0  0  0  0  0  0  0
    0.5250    1.2042    0.0000 N    0  0  0  0  0  0  0  0  0  0  0  0
    3.3833    1.2042    0.0000 C    0  0  0  0  0  0  0  0  0  0  0  0
   -0.6000    1.5042    0.0000 O    0  0  0  0  0  0  0  0  0  0  0  0
    0.2250    0.0750    0.0000 O    0  0  0  0  0  0  0  0  0  0  0  0
    4.1000    1.6167    0.0000 C    0  0  0  0  0  0  0  0  0  0  0  0
   -2.3333   -0.4458    0.0000 C    0  0  0  0  0  0  0  0  0  0  0  0
    1.2417    0.7917    0.0000 C    0  0  0  0  0  0  0  0  0  0  0  0
   -1.6167    0.7917    0.0000 C    0  0  0  0  0  0  0  0  0  0  0  0
   -0.7917   -1.6833    0.0000 F    0  0  0  0  0  0  0  0  0  0  0  0
   -2.4417   -1.6833    0.0000 F    0  0  0  0  0  0  0  0  0  0  0  0
   -1.6167   -2.5083    0.0000 F    0  0  0  0  0  0  0  0  0  0  0  0
   -2.3333    0.3792    0.0000 C    0  0  0  0  0  0  0  0  0  0  0  0
    2.6708    0.7917    0.0000 C    0  0  0  0  0  0  0  0  0  0  0  0
    1.9542    1.2042    0.0000 C    0  0  0  0  0  0  0  0  0  0  0  0
   -3.0458   -0.8583    0.0000 Cl   0  0  0  0  0  0  0  0  0  0  0  0
    1.9542   -0.4458    0.0000 C    0  0  0  0  0  0  0  0  0  0  0  0
    1.2417   -0.0333    0.0000 C    0  0  0  0  0  0  0  0  0  0  0  0
    2.6708   -0.0333    0.0000 C    0  0  0  0  0  0  0  0  0  0  0  0
  2  5  1  0  0  0  0
  3  2  1  0  0  0  0
  4  1  1  0  0  0  0
  5  4  2  0  0  0  0
  6  1  1  0  0  0  0
  7 18  1  0  0  0  0
  8  1  2  0  0  0  0
  9  1  2  0  0  0  0
 10  7  3  0  0  0  0
 11 17  1  0  0  0  0
 11  2  2  0  0  0  0
 12  6  1  0  0  0  0
 13  4  1  0  0  0  0
 14  3  1  0  0  0  0
 15  3  1  0  0  0  0
 16  3  1  0  0  0  0
 17 13  2  0  0  0  0
 18 19  1  0  0  0  0
 19 12  2  0  0  0  0
 20 11  1  0  0  0  0
 21 22  2  0  0  0  0
 22 12  1  0  0  0  0
 23 18  2  0  0  0  0
 23 21  1  0  0  0  0
M  END
> <CdId>
3203

> <Mol Weight>
359.751

> <Formula>
C15H9ClF3NO2S

> <Click_ID>
CLK042C06 __ __ 

$$$$
