CLK037G04
 OpenBabel03181410512D

 28 29  0  0  0  0  0  0  0  0999 V2000
    0.2292    1.5792    0.0000 S    0  0  0  0  0  0  0  0  0  0  0  0
   -1.2000   -0.0708    0.0000 C    0  0  0  0  0  0  0  0  0  0  0  0
   -1.2000   -0.8958    0.0000 C    0  0  0  0  0  0  0  0  0  0  0  0
    0.9417    1.9917    0.0000 N    0  0  0  0  0  0  0  0  0  0  0  0
   -0.4875    1.1667    0.0000 C    0  0  0  0  0  0  0  0  0  0  0  0
   -0.4875    0.3417    0.0000 C    0  0  0  0  0  0  0  0  0  0  0  0
   -0.4875   -1.3083    0.0000 N    0  0  0  0  0  0  0  0  0  0  0  0
   -0.4875   -2.9583    0.0000 C    0  0  0  0  0  0  0  0  0  0  0  0
   -0.1833    2.2917    0.0000 O    0  0  0  0  0  0  0  0  0  0  0  0
    0.6417    0.8625    0.0000 O    0  0  0  0  0  0  0  0  0  0  0  0
   -0.4875   -3.7833    0.0000 C    0  0  0  0  0  0  0  0  0  0  0  0
   -1.9167    0.3417    0.0000 C    0  0  0  0  0  0  0  0  0  0  0  0
   -0.4875   -2.1333    0.0000 C    0  0  0  0  0  0  0  0  0  0  0  0
   -1.9167   -1.3083    0.0000 O    0  0  0  0  0  0  0  0  0  0  0  0
    1.6583    1.5792    0.0000 C    0  0  0  0  0  0  0  0  0  0  0  0
   -1.2000    1.5792    0.0000 C    0  0  0  0  0  0  0  0  0  0  0  0
   -1.9167    1.1667    0.0000 C    0  0  0  0  0  0  0  0  0  0  0  0
   -2.6292   -0.0708    0.0000 Cl   0  0  0  0  0  0  0  0  0  0  0  0
    0.9417    2.8167    0.0000 C    0  0  0  0  0  0  0  0  0  0  0  0
    0.3375   -2.1333    0.0000 C    0  0  0  0  0  0  0  0  0  0  0  0
   -1.3125   -2.1333    0.0000 C    0  0  0  0  0  0  0  0  0  0  0  0
    1.6583    0.7542    0.0000 C    0  0  0  0  0  0  0  0  0  0  0  0
    2.3708    1.9917    0.0000 C    0  0  0  0  0  0  0  0  0  0  0  0
    0.7500   -2.8500    0.0000 C    0  0  0  0  0  0  0  0  0  0  0  0
   -1.7250   -1.4208    0.0000 C    0  0  0  0  0  0  0  0  0  0  0  0
    3.0875    1.5792    0.0000 C    0  0  0  0  0  0  0  0  0  0  0  0
    2.3708    0.3417    0.0000 C    0  0  0  0  0  0  0  0  0  0  0  0
    3.0875    0.7542    0.0000 C    0  0  0  0  0  0  0  0  0  0  0  0
  2  6  1  0  0  0  0
  3  2  1  0  0  0  0
  4  1  1  0  0  0  0
  5  1  1  0  0  0  0
  6  5  2  0  0  0  0
  7  3  1  0  0  0  0
  8 13  1  0  0  0  0
  9  1  2  0  0  0  0
 10  1  2  0  0  0  0
 11  8  3  0  0  0  0
 12 17  1  0  0  0  0
 12  2  2  0  0  0  0
 13  7  1  0  0  0  0
 14  3  2  0  0  0  0
 15  4  1  0  0  0  0
 16  5  1  0  0  0  0
 17 16  2  0  0  0  0
 18 12  1  0  0  0  0
 19  4  1  0  0  0  0
 20 13  1  0  0  0  0
 21 13  1  0  0  0  0
 22 15  1  0  0  0  0
 23 15  2  0  0  0  0
 24 20  1  0  0  0  0
 25 21  1  0  0  0  0
 26 23  1  0  0  0  0
 27 22  2  0  0  0  0
 28 26  2  0  0  0  0
 28 27  1  0  0  0  0
M  END
> <CdId>
2791

> <Mol Weight>
418.937

> <Formula>
C21H23ClN2O3S

> <Click_ID>
CLK037G04 __ __ 

$$$$
