CLK020_G08
 OpenBabel03181410512D

 28 30  0  0  0  0  0  0  0  0999 V2000
    2.7134    0.0504    0.0000 C   0  0  0  0  0  0  0  0  0  0  0  0
    1.4484   -0.3896    0.0000 N   0  0  0  0  0  0  0  0  0  0  0  0
    2.2459   -0.6325    0.0000 C   0  0  0  0  0  0  0  0  0  0  0  0
    1.4484    0.4354    0.0000 N   0  0  0  0  0  0  0  0  0  0  0  0
    2.2184    0.7012    0.0000 C   0  0  0  0  0  0  0  0  0  0  0  0
    0.7884   -0.8800    0.0000 C   0  0  0  0  0  0  0  0  0  0  0  0
    3.5384    0.0641    0.0000 C   0  0  0  0  0  0  0  0  0  0  0  0
    0.8846   -1.6959    0.0000 C   0  0  0  0  0  0  0  0  0  0  0  0
    5.2571   -4.1984    0.0000 C   0  0  0  0  0  0  0  0  0  0  0  0
    5.6834   -4.8996    0.0000 C   0  0  0  0  0  0  0  0  0  0  0  0
    0.2246   -2.1909    0.0000 C   0  0  0  0  0  0  0  0  0  0  0  0
    2.5071   -1.4071    0.0000 O   0  0  0  0  0  0  0  0  0  0  0  0
    5.2112   -1.3384    0.0000 C   0  0  0  0  0  0  0  0  0  0  0  0
    2.4612    1.4804    0.0000 O   0  0  0  0  0  0  0  0  0  0  0  0
    3.9600   -0.6463    0.0000 C   0  0  0  0  0  0  0  0  0  0  0  0
    4.7850   -0.6325    0.0000 C   0  0  0  0  0  0  0  0  0  0  0  0
    4.8125   -2.0625    0.0000 C   0  0  0  0  0  0  0  0  0  0  0  0
    0.0321   -0.5546    0.0000 C   0  0  0  0  0  0  0  0  0  0  0  0
   -0.5316   -1.8609    0.0000 C   0  0  0  0  0  0  0  0  0  0  0  0
   -0.6279   -1.0496    0.0000 C   0  0  0  0  0  0  0  0  0  0  0  0
    3.9875   -2.0762    0.0000 C   0  0  0  0  0  0  0  0  0  0  0  0
    3.5612   -1.3659    0.0000 C   0  0  0  0  0  0  0  0  0  0  0  0
    6.0362   -1.3246    0.0000 O   0  0  0  0  0  0  0  0  0  0  0  0
    5.2387   -2.7684    0.0000 O   0  0  0  0  0  0  0  0  0  0  0  0
    4.8400   -3.4925    0.0000 C   0  0  0  0  0  0  0  0  0  0  0  0
    0.3209   -3.0159    0.0000 C   0  0  0  0  0  0  0  0  0  0  0  0
   -1.1916   -2.3559    0.0000 C   0  0  0  0  0  0  0  0  0  0  0  0
    6.4625   -2.0259    0.0000 C   0  0  0  0  0  0  0  0  0  0  0  0
  2  3  1  0  0  0  0
  2  4  1  0  0  0  0
  3  1  1  0  0  0  0
  4  5  1  0  0  0  0
  5  1  1  0  0  0  0
  6  2  1  0  0  0  0
  7  1  2  0  0  0  0
  8  6  2  0  0  0  0
  9 25  1  0  0  0  0
 10  9  3  0  0  0  0
 11  8  1  0  0  0  0
 11 19  2  0  0  0  0
 12  3  2  0  0  0  0
 13 16  1  0  0  0  0
 13 17  2  0  0  0  0
 14  5  2  0  0  0  0
 15  7  1  0  0  0  0
 16 15  2  0  0  0  0
 17 21  1  0  0  0  0
 18  6  1  0  0  0  0
 19 20  1  0  0  0  0
 20 18  2  0  0  0  0
 21 22  2  0  0  0  0
 22 15  1  0  0  0  0
 23 13  1  0  0  0  0
 24 17  1  0  0  0  0
 25 24  1  0  0  0  0
 26 11  1  0  0  0  0
 27 19  1  0  0  0  0
 28 23  1  0  0  0  0
M  END
> <CdId>
1543

> <Mol Weight>
376.4052

> <Formula>
C22H20N2O4

> <Click_ID>
CLK020_G08 __ __ 

$$$$
