CLK045G06
 OpenBabel03181410512D

 25 27  0  0  0  0  0  0  0  0999 V2000
   -3.0691   -2.2655    0.0000 N   0  0  0  0  0  0  0  0  0  0  0  0
    1.0202    0.6496    0.0000 C   0  0  0  0  0  0  0  0  0  0  0  0
   -3.0691   -1.4409    0.0000 C   0  0  0  0  0  0  0  0  0  0  0  0
   -3.8521   -2.5194    0.0000 C   0  0  0  0  0  0  0  0  0  0  0  0
   -4.3351   -1.8532    0.0000 S   0  0  0  0  0  0  0  0  0  0  0  0
    1.7740    0.3123    0.0000 N   0  0  0  0  0  0  0  0  0  0  0  0
    2.9359    2.9234    0.0000 C   0  0  0  0  0  0  0  0  0  0  0  0
   -3.8521   -1.1869    0.0000 C   0  0  0  0  0  0  0  0  0  0  0  0
    2.8484    3.7438    0.0000 C   0  0  0  0  0  0  0  0  0  0  0  0
    0.3540    0.1624    0.0000 C   0  0  0  0  0  0  0  0  0  0  0  0
    0.9328    1.4700    0.0000 O   0  0  0  0  0  0  0  0  0  0  0  0
    2.4404    0.7996    0.0000 C   0  0  0  0  0  0  0  0  0  0  0  0
   -1.6491   -1.2910    0.0000 S   0  0  0  0  0  0  0  0  0  0  0  0
   -2.4029   -0.9537    0.0000 C   0  0  0  0  0  0  0  0  0  0  0  0
    0.4415   -0.6579    0.0000 C   0  0  0  0  0  0  0  0  0  0  0  0
   -0.3998    0.4997    0.0000 C   0  0  0  0  0  0  0  0  0  0  0  0
    3.0233    2.1031    0.0000 C   0  0  0  0  0  0  0  0  0  0  0  0
   -0.9787   -0.8038    0.0000 C   0  0  0  0  0  0  0  0  0  0  0  0
    2.3529    1.6158    0.0000 C   0  0  0  0  0  0  0  0  0  0  0  0
   -0.2291   -1.1411    0.0000 C   0  0  0  0  0  0  0  0  0  0  0  0
   -1.0661    0.0125    0.0000 C   0  0  0  0  0  0  0  0  0  0  0  0
   -4.1061   -3.3024    0.0000 C   0  0  0  0  0  0  0  0  0  0  0  0
    3.8604    0.9453    0.0000 C   0  0  0  0  0  0  0  0  0  0  0  0
    3.1941    0.4622    0.0000 C   0  0  0  0  0  0  0  0  0  0  0  0
    3.7771    1.7657    0.0000 C   0  0  0  0  0  0  0  0  0  0  0  0
  2 10  1  0  0  0  0
  3  1  1  0  0  0  0
  4  1  2  0  0  0  0
  5  4  1  0  0  0  0
  5  8  1  0  0  0  0
  6  2  1  0  0  0  0
  7 17  1  0  0  0  0
  8  3  2  0  0  0  0
  9  7  3  0  0  0  0
 10 16  2  0  0  0  0
 10 15  1  0  0  0  0
 11  2  2  0  0  0  0
 12  6  1  0  0  0  0
 13 14  1  0  0  0  0
 14  3  1  0  0  0  0
 15 20  2  0  0  0  0
 16 21  1  0  0  0  0
 17 19  1  0  0  0  0
 18 13  1  0  0  0  0
 19 12  2  0  0  0  0
 20 18  1  0  0  0  0
 21 18  2  0  0  0  0
 22  4  1  0  0  0  0
 23 24  2  0  0  0  0
 24 12  1  0  0  0  0
 25 17  2  0  0  0  0
 25 23  1  0  0  0  0
M  END
> <CdId>
3447

> <Mol Weight>
364.484

> <Formula>
C20H16N2OS2

> <Click_ID>
CLK045G06 __ __ 

$$$$
