CLK010_H09
 OpenBabel03181410512D

 34 37  0  0  0  0  0  0  0  0999 V2000
   -2.2354   -3.4402    0.0000 N   0  0  0  0  0  0  0  0  0  0  0  0
   -0.8062   -3.4402    0.0000 C   0  0  0  0  0  0  0  0  0  0  0  0
   -1.5208   -3.8525    0.0000 C   0  0  0  0  0  0  0  0  0  0  0  0
   -2.2354   -2.6157    0.0000 C   0  0  0  0  0  0  0  0  0  0  0  0
   -1.5208   -2.2034    0.0000 N   0  0  0  0  0  0  0  0  0  0  0  0
   -0.8062   -2.6157    0.0000 C   0  0  0  0  0  0  0  0  0  0  0  0
   -0.0916   -3.8525    0.0000 C   0  0  0  0  0  0  0  0  0  0  0  0
   -2.9500   -3.8525    0.0000 C   0  0  0  0  0  0  0  0  0  0  0  0
    3.4814   -0.9666    0.0000 C   0  0  0  0  0  0  0  0  0  0  0  0
   -2.9500   -2.2034    0.0000 O   0  0  0  0  0  0  0  0  0  0  0  0
    3.4814   -0.1420    0.0000 C   0  0  0  0  0  0  0  0  0  0  0  0
   -1.5208   -4.6770    0.0000 O   0  0  0  0  0  0  0  0  0  0  0  0
   -0.0916   -2.2034    0.0000 O   0  0  0  0  0  0  0  0  0  0  0  0
    0.6230   -3.4402    0.0000 C   0  0  0  0  0  0  0  0  0  0  0  0
   -2.9500   -4.6770    0.0000 C   0  0  0  0  0  0  0  0  0  0  0  0
   -3.6646   -3.4402    0.0000 C   0  0  0  0  0  0  0  0  0  0  0  0
   -5.0938   -5.0893    0.0000 O   0  0  0  0  0  0  0  0  0  0  0  0
   -4.3792   -4.6770    0.0000 C   0  0  0  0  0  0  0  0  0  0  0  0
    2.0522   -2.6157    0.0000 C   0  0  0  0  0  0  0  0  0  0  0  0
   -5.8084   -4.6770    0.0000 C   0  0  0  0  0  0  0  0  0  0  0  0
   -4.3792   -3.8525    0.0000 C   0  0  0  0  0  0  0  0  0  0  0  0
   -3.6646   -5.0893    0.0000 C   0  0  0  0  0  0  0  0  0  0  0  0
    0.6230   -2.6157    0.0000 C   0  0  0  0  0  0  0  0  0  0  0  0
    1.3376   -3.8525    0.0000 C   0  0  0  0  0  0  0  0  0  0  0  0
    1.3376   -2.2034    0.0000 C   0  0  0  0  0  0  0  0  0  0  0  0
    2.0522   -3.4402    0.0000 C   0  0  0  0  0  0  0  0  0  0  0  0
   -6.5230   -5.0893    0.0000 C   0  0  0  0  0  0  0  0  0  0  0  0
    2.7668   -1.3789    0.0000 C   0  0  0  0  0  0  0  0  0  0  0  0
    2.7668   -2.2034    0.0000 O   0  0  0  0  0  0  0  0  0  0  0  0
   -6.5230   -5.9138    0.0000 C   0  0  0  0  0  0  0  0  0  0  0  0
   -7.2285   -4.6770    0.0000 C   0  0  0  0  0  0  0  0  0  0  0  0
   -7.9340   -5.0893    0.0000 C   0  0  0  0  0  0  0  0  0  0  0  0
   -7.2285   -6.3261    0.0000 C   0  0  0  0  0  0  0  0  0  0  0  0
   -7.9340   -5.9138    0.0000 C   0  0  0  0  0  0  0  0  0  0  0  0
  2  3  1  0  0  0  0
  3  1  1  0  0  0  0
  4  1  1  0  0  0  0
  5  4  1  0  0  0  0
  6  5  1  0  0  0  0
  6  2  1  0  0  0  0
  7  2  2  0  0  0  0
  8  1  1  0  0  0  0
  9 28  1  0  0  0  0
 10  4  2  0  0  0  0
 11  9  3  0  0  0  0
 12  3  2  0  0  0  0
 13  6  2  0  0  0  0
 14  7  1  0  0  0  0
 15  8  2  0  0  0  0
 16  8  1  0  0  0  0
 17 18  1  0  0  0  0
 18 21  1  0  0  0  0
 18 22  2  0  0  0  0
 19 26  1  0  0  0  0
 20 17  1  0  0  0  0
 21 16  2  0  0  0  0
 22 15  1  0  0  0  0
 23 14  2  0  0  0  0
 24 14  1  0  0  0  0
 25 23  1  0  0  0  0
 25 19  2  0  0  0  0
 26 24  2  0  0  0  0
 27 20  1  0  0  0  0
 28 29  1  0  0  0  0
 29 19  1  0  0  0  0
 30 27  2  0  0  0  0
 31 27  1  0  0  0  0
 32 31  2  0  0  0  0
 33 30  1  0  0  0  0
 34 32  1  0  0  0  0
 34 33  2  0  0  0  0
M  END
> <CdId>
754

> <Mol Weight>
452.4581

> <Formula>
C27H20N2O5

> <Click_ID>
CLK010_H09 __ __ 

$$$$
