CLK044A05
 OpenBabel03181410512D

 25 26  0  0  0  0  0  0  0  0999 V2000
   -0.6958    1.2333    0.0000 C   0  0  0  0  0  0  0  0  0  0  0  0
   -0.6958    0.4083    0.0000 C   0  0  0  0  0  0  0  0  0  0  0  0
   -1.4833    1.4875    0.0000 N   0  0  0  0  0  0  0  0  0  0  0  0
   -1.9667    0.8208    0.0000 N   0  0  0  0  0  0  0  0  0  0  0  0
    0.0167    1.6458    0.0000 N   0  0  0  0  0  0  0  0  0  0  0  0
    0.0167   -0.0042    0.0000 C   0  0  0  0  0  0  0  0  0  0  0  0
    0.0167   -0.8292    0.0000 C   0  0  0  0  0  0  0  0  0  0  0  0
   -1.4833    0.1500    0.0000 C   0  0  0  0  0  0  0  0  0  0  0  0
    0.7333    1.2333    0.0000 C   0  0  0  0  0  0  0  0  0  0  0  0
    0.7333    0.4083    0.0000 C   0  0  0  0  0  0  0  0  0  0  0  0
    0.7333   -1.2417    0.0000 N   0  0  0  0  0  0  0  0  0  0  0  0
    0.7333   -2.8917    0.0000 C   0  0  0  0  0  0  0  0  0  0  0  0
    0.7333   -3.7167    0.0000 C   0  0  0  0  0  0  0  0  0  0  0  0
    0.7333   -2.0667    0.0000 C   0  0  0  0  0  0  0  0  0  0  0  0
   -0.6958   -1.2417    0.0000 O   0  0  0  0  0  0  0  0  0  0  0  0
   -1.7375    2.2708    0.0000 C   0  0  0  0  0  0  0  0  0  0  0  0
    1.4458    1.6458    0.0000 C   0  0  0  0  0  0  0  0  0  0  0  0
    1.5583   -2.0667    0.0000 C   0  0  0  0  0  0  0  0  0  0  0  0
   -0.0917   -2.0667    0.0000 C   0  0  0  0  0  0  0  0  0  0  0  0
   -1.1833    2.8833    0.0000 C   0  0  0  0  0  0  0  0  0  0  0  0
   -2.5417    2.4417    0.0000 C   0  0  0  0  0  0  0  0  0  0  0  0
    1.4458    2.4708    0.0000 C   0  0  0  0  0  0  0  0  0  0  0  0
    2.1625    1.2333    0.0000 C   0  0  0  0  0  0  0  0  0  0  0  0
    1.9708   -2.7833    0.0000 C   0  0  0  0  0  0  0  0  0  0  0  0
   -0.5042   -1.3542    0.0000 C   0  0  0  0  0  0  0  0  0  0  0  0
  2  1  1  0  0  0  0
  3  1  1  0  0  0  0
  4  3  1  0  0  0  0
  5  1  2  0  0  0  0
  6  2  2  0  0  0  0
  7  6  1  0  0  0  0
  8  2  1  0  0  0  0
  8  4  2  0  0  0  0
  9  5  1  0  0  0  0
  9 10  2  0  0  0  0
 10  6  1  0  0  0  0
 11  7  1  0  0  0  0
 12 14  1  0  0  0  0
 13 12  3  0  0  0  0
 14 11  1  0  0  0  0
 15  7  2  0  0  0  0
 16  3  1  0  0  0  0
 17  9  1  0  0  0  0
 18 14  1  0  0  0  0
 19 14  1  0  0  0  0
 20 16  1  0  0  0  0
 21 16  1  0  0  0  0
 22 17  1  0  0  0  0
 23 17  1  0  0  0  0
 24 18  1  0  0  0  0
 25 19  1  0  0  0  0
M  END
> <CdId>
3353

> <Mol Weight>
340.4625

> <Formula>
C20H28N4O

> <Click_ID>
CLK044A05 __ __ 

$$$$
