CLK011_C09
 OpenBabel03181410512D

 16 16  0  0  0  0  0  0  0  0999 V2000
    1.5129    2.5523    0.0000 C    0  0  0  0  0  0  0  0  0  0  0  0
    2.2296    2.1374    0.0000 C    0  0  0  0  0  0  0  0  0  0  0  0
    0.8089    2.1457    0.0000 C    0  0  0  0  0  0  0  0  0  0  0  0
    2.2422    4.6058    0.0000 C    0  0  0  0  0  0  0  0  0  0  0  0
    2.2547    5.4356    0.0000 C    0  0  0  0  0  0  0  0  0  0  0  0
    2.2296    1.3159    0.0000 C    0  0  0  0  0  0  0  0  0  0  0  0
    0.8047    1.3159    0.0000 C    0  0  0  0  0  0  0  0  0  0  0  0
    1.5255    0.9010    0.0000 C    0  0  0  0  0  0  0  0  0  0  0  0
    0.8089   -0.3395    0.0000 O    0  0  0  0  0  0  0  0  0  0  0  0
    2.9462    2.5480    0.0000 Br   0  0  0  0  0  0  0  0  0  0  0  0
    1.5255    0.0754    0.0000 C    0  0  0  0  0  0  0  0  0  0  0  0
    1.5255    3.3778    0.0000 O    0  0  0  0  0  0  0  0  0  0  0  0
    0.1006    2.5606    0.0000 O    0  0  0  0  0  0  0  0  0  0  0  0
    2.2379    3.7927    0.0000 C    0  0  0  0  0  0  0  0  0  0  0  0
   -0.6118    2.1457    0.0000 C    0  0  0  0  0  0  0  0  0  0  0  0
   -1.3201    2.5523    0.0000 C    0  0  0  0  0  0  0  0  0  0  0  0
  2  1  1  0  0  0  0
  3  1  2  0  0  0  0
  4 14  1  0  0  0  0
  5  4  3  0  0  0  0
  6  2  2  0  0  0  0
  7  3  1  0  0  0  0
  8  7  2  0  0  0  0
  8  6  1  0  0  0  0
  9 11  2  0  0  0  0
 10  2  1  0  0  0  0
 11  8  1  0  0  0  0
 12  1  1  0  0  0  0
 13  3  1  0  0  0  0
 14 12  1  0  0  0  0
 15 13  1  0  0  0  0
 16 15  1  0  0  0  0
M  END
> <CdId>
784

> <Mol Weight>
283.118

> <Formula>
C12H11BrO3

> <Click_ID>
CLK011_C09 __ __ 

$$$$
