CLK043H05
 OpenBabel03181410512D

 20 21  0  0  0  0  0  0  0  0999 V2000
   -0.2167    0.2083    0.0000 C   0  0  0  0  0  0  0  0  0  0  0  0
    0.5000   -0.2042    0.0000 N   0  0  0  0  0  0  0  0  0  0  0  0
   -0.9292   -0.2042    0.0000 C   0  0  0  0  0  0  0  0  0  0  0  0
    1.9250    2.2708    0.0000 C   0  0  0  0  0  0  0  0  0  0  0  0
    1.9250    3.0958    0.0000 C   0  0  0  0  0  0  0  0  0  0  0  0
   -0.9292   -1.0292    0.0000 C   0  0  0  0  0  0  0  0  0  0  0  0
   -1.6458   -1.4417    0.0000 C   0  0  0  0  0  0  0  0  0  0  0  0
   -0.2167    1.0333    0.0000 O   0  0  0  0  0  0  0  0  0  0  0  0
   -2.3583   -1.0292    0.0000 C   0  0  0  0  0  0  0  0  0  0  0  0
    1.2125    0.2083    0.0000 C   0  0  0  0  0  0  0  0  0  0  0  0
   -1.6458    0.2083    0.0000 C   0  0  0  0  0  0  0  0  0  0  0  0
   -2.3583   -0.2042    0.0000 C   0  0  0  0  0  0  0  0  0  0  0  0
    1.9250    1.4458    0.0000 C   0  0  0  0  0  0  0  0  0  0  0  0
    1.2125    1.0333    0.0000 C   0  0  0  0  0  0  0  0  0  0  0  0
   -1.6458   -2.2667    0.0000 O   0  0  0  0  0  0  0  0  0  0  0  0
    2.6417    0.2083    0.0000 C   0  0  0  0  0  0  0  0  0  0  0  0
    1.9250   -0.2042    0.0000 C   0  0  0  0  0  0  0  0  0  0  0  0
   -3.0750   -1.4417    0.0000 C   0  0  0  0  0  0  0  0  0  0  0  0
    2.6417    1.0333    0.0000 C   0  0  0  0  0  0  0  0  0  0  0  0
   -0.9292   -2.6792    0.0000 C   0  0  0  0  0  0  0  0  0  0  0  0
  2  1  1  0  0  0  0
  3  1  1  0  0  0  0
  4 13  1  0  0  0  0
  5  4  3  0  0  0  0
  6  3  2  0  0  0  0
  7  6  1  0  0  0  0
  8  1  2  0  0  0  0
  9 12  1  0  0  0  0
  9  7  2  0  0  0  0
 10  2  1  0  0  0  0
 11  3  1  0  0  0  0
 12 11  2  0  0  0  0
 13 14  1  0  0  0  0
 14 10  2  0  0  0  0
 15  7  1  0  0  0  0
 16 17  2  0  0  0  0
 17 10  1  0  0  0  0
 18  9  1  0  0  0  0
 19 13  2  0  0  0  0
 19 16  1  0  0  0  0
 20 15  1  0  0  0  0
M  END
> <CdId>
3280

> <Mol Weight>
265.3065

> <Formula>
C17H15NO2

> <Click_ID>
CLK043H05 __ __ 

$$$$
