CLK009_A03
 OpenBabel03181410512D

 28 29  0  0  0  0  0  0  0  0999 V2000
   -4.5894    0.3046    0.0000 C   0  0  0  0  0  0  0  0  0  0  0  0
    0.5964   -0.1185    0.0000 C   0  0  0  0  0  0  0  0  0  0  0  0
   -3.1090    0.3046    0.0000 N   0  0  0  0  0  0  0  0  0  0  0  0
   -0.8967   -0.1185    0.0000 N   0  0  0  0  0  0  0  0  0  0  0  0
   -5.3296   -0.1185    0.0000 C   0  0  0  0  0  0  0  0  0  0  0  0
    1.3494    0.3046    0.0000 C   0  0  0  0  0  0  0  0  0  0  0  0
   -3.0793    0.9982    0.0000 C   0  0  0  0  0  0  0  0  0  0  0  0
   -0.8967   -0.8672    0.0000 C   0  0  0  0  0  0  0  0  0  0  0  0
   -2.3687   -0.1185    0.0000 C   0  0  0  0  0  0  0  0  0  0  0  0
   -1.6370    0.3046    0.0000 C   0  0  0  0  0  0  0  0  0  0  0  0
   -3.8534   -0.1185    0.0000 C   0  0  3  0  0  0  0  0  0  0  0  0
   -0.1480    0.3046    0.0000 C   0  0  3  0  0  0  0  0  0  0  0  0
   -3.7688    1.4212    0.0000 C   0  0  0  0  0  0  0  0  0  0  0  0
   -0.1861   -1.2732    0.0000 C   0  0  0  0  0  0  0  0  0  0  0  0
    0.6472    1.3705    0.0000 O   0  0  0  0  0  0  0  0  0  0  0  0
   -4.5132   -1.3494    0.0000 O   0  0  0  0  0  0  0  0  0  0  0  0
   -3.8534   -0.8672    0.0000 C   0  0  0  0  0  0  0  0  0  0  0  0
   -0.1480    1.0490    0.0000 C   0  0  0  0  0  0  0  0  0  0  0  0
   -4.4794    1.0363    0.0000 C   0  0  0  0  0  0  0  0  0  0  0  0
   -0.1861   -2.0981    0.0000 C   0  0  0  0  0  0  0  0  0  0  0  0
   -3.7519    2.2461    0.0000 C   0  0  0  0  0  0  0  0  0  0  0  0
    0.5118   -0.8629    0.0000 C   0  0  0  0  0  0  0  0  0  0  0  0
    1.2478   -1.2732    0.0000 C   0  0  0  0  0  0  0  0  0  0  0  0
    0.5457   -2.5041    0.0000 C   0  0  0  0  0  0  0  0  0  0  0  0
   -5.1901    1.4677    0.0000 C   0  0  0  0  0  0  0  0  0  0  0  0
   -4.4371    2.6732    0.0000 C   0  0  0  0  0  0  0  0  0  0  0  0
   -5.1731    2.2799    0.0000 C   0  0  0  0  0  0  0  0  0  0  0  0
    1.2563   -2.0811    0.0000 C   0  0  0  0  0  0  0  0  0  0  0  0
  2 12  1  0  0  0  0
  3 11  1  0  0  0  0
  4 10  1  0  0  0  0
  5  1  3  0  0  0  0
  6  2  3  0  0  0  0
  7  3  1  0  0  0  0
  8  4  1  0  0  0  0
  9  3  1  0  0  0  0
 10  9  1  0  0  0  0
 11  1  1  0  0  0  0
 12  4  1  0  0  0  0
 13  7  1  0  0  0  0
 14  8  1  0  0  0  0
 15 18  1  0  0  0  0
 16 17  1  0  0  0  0
 17 11  1  0  0  0  0
 18 12  1  0  0  0  0
 19 13  1  0  0  0  0
 20 14  2  0  0  0  0
 21 13  2  0  0  0  0
 22 14  1  0  0  0  0
 23 22  2  0  0  0  0
 24 20  1  0  0  0  0
 25 19  2  0  0  0  0
 25 27  1  0  0  0  0
 26 21  1  0  0  0  0
 27 26  2  0  0  0  0
 28 23  1  0  0  0  0
 28 24  2  0  0  0  0
M  END
> <CdId>
598

> <Mol Weight>
376.4913

> <Formula>
C24H28N2O2

> <Click_ID>
CLK009_A03 __ __ 

$$$$
