CLK003_G04
 OpenBabel03181410512D

 25 27  0  0  0  0  0  0  0  0999 V2000
    1.1717   -0.9920    0.0000 C   0  0  0  0  0  0  0  0  0  0  0  0
    0.3525   -0.8641    0.0000 S   0  0  0  0  0  0  0  0  0  0  0  0
    1.7557   -0.4043    0.0000 C   0  0  0  0  0  0  0  0  0  0  0  0
    1.2961   -1.8075    0.0000 C   0  0  0  0  0  0  0  0  0  0  0  0
   -0.0207   -1.5934    0.0000 C   0  0  0  0  0  0  0  0  0  0  0  0
    1.5449    0.3906    0.0000 C   0  0  0  0  0  0  0  0  0  0  0  0
    0.5565   -2.1843    0.0000 N   0  0  0  0  0  0  0  0  0  0  0  0
    2.0357   -2.1843    0.0000 O   0  0  0  0  0  0  0  0  0  0  0  0
   -0.8502   -1.5934    0.0000 N   0  0  0  0  0  0  0  0  0  0  0  0
    2.1256    0.9712    0.0000 C   0  0  0  0  0  0  0  0  0  0  0  0
    0.7465    0.6117    0.0000 C   0  0  0  0  0  0  0  0  0  0  0  0
   -1.6728   -1.5691    0.0000 C   0  0  0  0  0  0  0  0  0  0  0  0
    1.9182    1.7696    0.0000 C   0  0  0  0  0  0  0  0  0  0  0  0
    0.5426    1.4101    0.0000 C   0  0  0  0  0  0  0  0  0  0  0  0
   -2.1117   -2.2707    0.0000 C   0  0  0  0  0  0  0  0  0  0  0  0
   -2.0599   -0.8433    0.0000 C   0  0  0  0  0  0  0  0  0  0  0  0
    1.1233    1.9804    0.0000 C   0  0  0  0  0  0  0  0  0  0  0  0
   -2.9377   -2.2465    0.0000 C   0  0  0  0  0  0  0  0  0  0  0  0
   -2.8859   -0.8122    0.0000 C   0  0  0  0  0  0  0  0  0  0  0  0
    0.9228    2.7754    0.0000 O   0  0  0  0  0  0  0  0  0  0  0  0
   -3.3248   -1.5138    0.0000 C   0  0  0  0  0  0  0  0  0  0  0  0
    1.5104    3.3491    0.0000 C   0  0  0  0  0  0  0  0  0  0  0  0
   -4.1543   -1.4827    0.0000 F   0  0  0  0  0  0  0  0  0  0  0  0
    1.3099    4.1509    0.0000 C   0  0  0  0  0  0  0  0  0  0  0  0
    1.1059    4.9492    0.0000 C   0  0  0  0  0  0  0  0  0  0  0  0
  1  2  1  0  0  0  0
  1  3  2  0  0  0  0
  1  4  1  0  0  0  0
  2  5  1  0  0  0  0
  3  6  1  0  0  0  0
  4  7  1  0  0  0  0
  4  8  2  0  0  0  0
  5  9  2  0  0  0  0
  5  7  1  0  0  0  0
  6 10  1  0  0  0  0
  6 11  2  0  0  0  0
  9 12  1  0  0  0  0
 10 13  2  0  0  0  0
 11 14  1  0  0  0  0
 12 15  2  0  0  0  0
 12 16  1  0  0  0  0
 13 17  1  0  0  0  0
 14 17  2  0  0  0  0
 15 18  1  0  0  0  0
 16 19  2  0  0  0  0
 17 20  1  0  0  0  0
 18 21  2  0  0  0  0
 19 21  1  0  0  0  0
 20 22  1  0  0  0  0
 21 23  1  0  0  0  0
 22 24  1  0  0  0  0
 24 25  3  0  0  0  0
M  END
> <CdId>
223

> <Mol Weight>
352.382

> <Formula>
C19H13FN2O2S

> <Click_ID>
CLK003_G04 __ __ 

$$$$
