CLK046H11
 OpenBabel03181410512D

 13 13  0  0  0  0  0  0  0  0999 V2000
   -0.5500    0.0667    0.0000 C    0  0  0  0  0  0  0  0  0  0  0  0
   -1.2667    2.1292    0.0000 C    0  0  0  0  0  0  0  0  0  0  0  0
   -1.2667    2.9542    0.0000 C    0  0  0  0  0  0  0  0  0  0  0  0
    0.1625   -0.3458    0.0000 C    0  0  0  0  0  0  0  0  0  0  0  0
    0.1625   -1.1708    0.0000 C    0  0  0  0  0  0  0  0  0  0  0  0
   -1.2667   -0.3458    0.0000 O    0  0  0  0  0  0  0  0  0  0  0  0
   -0.5500    0.8917    0.0000 N    0  0  0  0  0  0  0  0  0  0  0  0
    0.8792   -1.5833    0.0000 C    0  0  0  0  0  0  0  0  0  0  0  0
    0.8792   -2.4083    0.0000 Cl   0  0  0  0  0  0  0  0  0  0  0  0
   -1.2667    1.3042    0.0000 C    0  0  0  0  0  0  0  0  0  0  0  0
    0.8792    0.0667    0.0000 C    0  0  0  0  0  0  0  0  0  0  0  0
    1.5917   -0.3458    0.0000 C    0  0  0  0  0  0  0  0  0  0  0  0
    1.5917   -1.1708    0.0000 C    0  0  0  0  0  0  0  0  0  0  0  0
  2 10  1  0  0  0  0
  3  2  3  0  0  0  0
  4  1  1  0  0  0  0
  5  4  1  0  0  0  0
  6  1  2  0  0  0  0
  7  1  1  0  0  0  0
  8  5  2  0  0  0  0
  9  8  1  0  0  0  0
 10  7  1  0  0  0  0
 11  4  2  0  0  0  0
 12 11  1  0  0  0  0
 12 13  2  0  0  0  0
 13  8  1  0  0  0  0
M  END
> <CdId>
3568

> <Mol Weight>
193.63

> <Formula>
C10H8ClNO

> <Click_ID>
CLK046H11 __ __ 

$$$$
