CLK017_C11
 OpenBabel03181410512D

 23 24  0  0  0  0  0  0  0  0999 V2000
    3.8204    0.0778    0.0000 N   0  0  0  0  0  0  0  0  0  0  0  0
    3.8204   -0.7558    0.0000 C   0  0  0  0  0  0  0  0  0  0  0  0
    3.1058    0.4901    0.0000 C   0  0  0  0  0  0  0  0  0  0  0  0
    2.3958    0.0778    0.0000 C   0  0  0  0  0  0  0  0  0  0  0  0
    2.3958   -0.7467    0.0000 S   0  0  0  0  0  0  0  0  0  0  0  0
    4.5350   -1.1590    0.0000 N   0  0  0  0  0  0  0  0  0  0  0  0
    1.6812    0.4901    0.0000 C   0  0  0  0  0  0  0  0  0  0  0  0
    5.2496   -0.7467    0.0000 C   0  0  0  0  0  0  0  0  0  0  0  0
   -1.8918   -2.3958    0.0000 C   0  0  0  0  0  0  0  0  0  0  0  0
   -1.8918   -3.2203    0.0000 C   0  0  0  0  0  0  0  0  0  0  0  0
   -0.4626    0.0778    0.0000 C   0  0  0  0  0  0  0  0  0  0  0  0
    0.9666    0.0778    0.0000 C   0  0  0  0  0  0  0  0  0  0  0  0
    3.1058    1.3146    0.0000 O   0  0  0  0  0  0  0  0  0  0  0  0
    0.2520    0.4901    0.0000 C   0  0  0  0  0  0  0  0  0  0  0  0
   -0.4626   -0.7467    0.0000 C   0  0  0  0  0  0  0  0  0  0  0  0
    5.2405    0.0778    0.0000 O   0  0  0  0  0  0  0  0  0  0  0  0
    0.2520   -1.1590    0.0000 C   0  0  0  0  0  0  0  0  0  0  0  0
    0.9666   -0.7467    0.0000 C   0  0  0  0  0  0  0  0  0  0  0  0
   -1.1772    0.4901    0.0000 O   0  0  0  0  0  0  0  0  0  0  0  0
   -1.1772   -1.1590    0.0000 O   0  0  0  0  0  0  0  0  0  0  0  0
   -1.1772   -1.9835    0.0000 C   0  0  0  0  0  0  0  0  0  0  0  0
    5.9642   -1.1544    0.0000 C   0  0  0  0  0  0  0  0  0  0  0  0
   -1.1772    1.3146    0.0000 C   0  0  0  0  0  0  0  0  0  0  0  0
  2  1  2  0  0  0  0
  3  1  1  0  0  0  0
  4  3  1  0  0  0  0
  4  5  1  0  0  0  0
  5  2  1  0  0  0  0
  6  2  1  0  0  0  0
  7  4  2  0  0  0  0
  8  6  1  0  0  0  0
  9 21  1  0  0  0  0
 10  9  3  0  0  0  0
 11 14  2  0  0  0  0
 11 15  1  0  0  0  0
 12  7  1  0  0  0  0
 13  3  2  0  0  0  0
 14 12  1  0  0  0  0
 15 17  2  0  0  0  0
 16  8  2  0  0  0  0
 17 18  1  0  0  0  0
 18 12  2  0  0  0  0
 19 11  1  0  0  0  0
 20 15  1  0  0  0  0
 21 20  1  0  0  0  0
 22  8  1  0  0  0  0
 23 19  1  0  0  0  0
M  END
> <CdId>
1266

> <Mol Weight>
330.358

> <Formula>
C16H14N2O4S

> <Click_ID>
CLK017_C11 __ __ 

$$$$
