CLK047F07
 OpenBabel03181410512D

 18 19  0  0  0  0  0  0  0  0999 V2000
   -0.1208   -0.3417    0.0000 C   0  0  0  0  0  0  0  0  0  0  0  0
   -0.1208   -1.1667    0.0000 C   0  0  0  0  0  0  0  0  0  0  0  0
    0.5917    0.0708    0.0000 N   0  0  0  0  0  0  0  0  0  0  0  0
   -0.8375   -2.4042    0.0000 N   0  0  0  0  0  0  0  0  0  0  0  0
   -0.8375    2.5458    0.0000 C   0  0  0  0  0  0  0  0  0  0  0  0
   -1.5500    2.9583    0.0000 C   0  0  0  0  0  0  0  0  0  0  0  0
   -0.8375   -1.5792    0.0000 C   0  0  0  0  0  0  0  0  0  0  0  0
   -0.1208   -2.8167    0.0000 C   0  0  0  0  0  0  0  0  0  0  0  0
   -0.8375    0.0708    0.0000 O   0  0  0  0  0  0  0  0  0  0  0  0
    0.5917    0.8958    0.0000 C   0  0  0  0  0  0  0  0  0  0  0  0
    0.5917   -1.5792    0.0000 C   0  0  0  0  0  0  0  0  0  0  0  0
   -0.1208    2.1333    0.0000 C   0  0  0  0  0  0  0  0  0  0  0  0
   -0.1208    1.3083    0.0000 C   0  0  0  0  0  0  0  0  0  0  0  0
    0.5917   -2.4042    0.0000 C   0  0  0  0  0  0  0  0  0  0  0  0
   -0.1208   -3.6417    0.0000 O   0  0  0  0  0  0  0  0  0  0  0  0
    1.3083    2.1333    0.0000 C   0  0  0  0  0  0  0  0  0  0  0  0
    1.3083    1.3083    0.0000 C   0  0  0  0  0  0  0  0  0  0  0  0
    0.5917    2.5458    0.0000 C   0  0  0  0  0  0  0  0  0  0  0  0
  2  1  1  0  0  0  0
  3  1  1  0  0  0  0
  4  7  1  0  0  0  0
  5 12  1  0  0  0  0
  6  5  3  0  0  0  0
  7  2  2  0  0  0  0
  8  4  2  0  0  0  0
  9  1  2  0  0  0  0
 10  3  1  0  0  0  0
 11  2  1  0  0  0  0
 12 13  1  0  0  0  0
 13 10  2  0  0  0  0
 14 11  2  0  0  0  0
 14  8  1  0  0  0  0
 15  8  1  0  0  0  0
 16 17  2  0  0  0  0
 17 10  1  0  0  0  0
 18 12  2  0  0  0  0
 18 16  1  0  0  0  0
M  END
> <CdId>
3614

> <Mol Weight>
238.2414

> <Formula>
C14H10N2O2

> <Click_ID>
CLK047F07 __ __ 

$$$$
