CLK041D07
 OpenBabel03181410512D

 26 28  0  0  0  0  0  0  0  0999 V2000
   -0.4625   -1.5083    0.0000 N   0  0  0  0  0  0  0  0  0  0  0  0
   -0.4625   -0.6833    0.0000 C   0  0  0  0  0  0  0  0  0  0  0  0
   -1.1750   -1.9208    0.0000 C   0  0  0  0  0  0  0  0  0  0  0  0
   -1.1750   -0.2708    0.0000 N   0  0  0  0  0  0  0  0  0  0  0  0
   -1.8917   -1.5083    0.0000 C   0  0  0  0  0  0  0  0  0  0  0  0
    0.2542   -1.9208    0.0000 C   0  0  0  0  0  0  0  0  0  0  0  0
   -1.8917   -0.6833    0.0000 C   0  0  0  0  0  0  0  0  0  0  0  0
    0.2542   -0.2708    0.0000 S   0  0  0  0  0  0  0  0  0  0  0  0
    0.6667   -2.6375    0.0000 C   0  0  0  0  0  0  0  0  0  0  0  0
    1.0792   -1.9208    0.0000 C   0  0  0  0  0  0  0  0  0  0  0  0
    2.3958    2.6167    0.0000 C   0  0  0  0  0  0  0  0  0  0  0  0
    3.1125    3.0292    0.0000 C   0  0  0  0  0  0  0  0  0  0  0  0
   -1.1750   -2.7458    0.0000 O   0  0  0  0  0  0  0  0  0  0  0  0
    0.9667    0.9667    0.0000 C   0  0  0  0  0  0  0  0  0  0  0  0
    0.9667    1.7917    0.0000 N   0  0  0  0  0  0  0  0  0  0  0  0
    1.6833    2.2042    0.0000 C   0  0  0  0  0  0  0  0  0  0  0  0
    1.6833    0.5542    0.0000 O   0  0  0  0  0  0  0  0  0  0  0  0
    0.2542    0.5542    0.0000 C   0  0  0  0  0  0  0  0  0  0  0  0
   -2.6042   -1.9208    0.0000 C   0  0  0  0  0  0  0  0  0  0  0  0
   -2.6042   -0.2708    0.0000 C   0  0  0  0  0  0  0  0  0  0  0  0
    2.0958    1.4875    0.0000 C   0  0  0  0  0  0  0  0  0  0  0  0
    1.2708    2.9167    0.0000 C   0  0  0  0  0  0  0  0  0  0  0  0
   -3.3208   -1.5083    0.0000 C   0  0  0  0  0  0  0  0  0  0  0  0
    1.6833    3.6333    0.0000 C   0  0  0  0  0  0  0  0  0  0  0  0
    1.6833    0.7750    0.0000 C   0  0  0  0  0  0  0  0  0  0  0  0
   -3.3208   -0.6833    0.0000 C   0  0  0  0  0  0  0  0  0  0  0  0
  2  1  1  0  0  0  0
  3  1  1  0  0  0  0
  4  2  2  0  0  0  0
  5  3  1  0  0  0  0
  5  7  2  0  0  0  0
  6  1  1  0  0  0  0
  7  4  1  0  0  0  0
  8  2  1  0  0  0  0
  9  6  1  0  0  0  0
 10  6  1  0  0  0  0
 10  9  1  0  0  0  0
 11 16  1  0  0  0  0
 12 11  3  0  0  0  0
 13  3  2  0  0  0  0
 14 18  1  0  0  0  0
 15 14  1  0  0  0  0
 16 15  1  0  0  0  0
 17 14  2  0  0  0  0
 18  8  1  0  0  0  0
 19  5  1  0  0  0  0
 20  7  1  0  0  0  0
 21 16  1  0  0  0  0
 22 16  1  0  0  0  0
 23 19  2  0  0  0  0
 23 26  1  0  0  0  0
 24 22  1  0  0  0  0
 25 21  1  0  0  0  0
 26 20  2  0  0  0  0
M  END
> <CdId>
3132

> <Mol Weight>
369.481

> <Formula>
C20H23N3O2S

> <Click_ID>
CLK041D07 __ __ 

$$$$
