CLK047F08
 OpenBabel03181410512D

 18 19  0  0  0  0  0  0  0  0999 V2000
    1.5500   -1.0208    0.0000 N   0  0  0  0  0  0  0  0  0  0  0  0
    0.7625   -0.7667    0.0000 C   0  0  0  0  0  0  0  0  0  0  0  0
    0.7625    0.0583    0.0000 C   0  0  0  0  0  0  0  0  0  0  0  0
    1.8042   -1.8042    0.0000 C   0  0  0  0  0  0  0  0  0  0  0  0
   -1.3792    0.4708    0.0000 C   0  0  0  0  0  0  0  0  0  0  0  0
    2.0333   -0.3542    0.0000 C   0  0  0  0  0  0  0  0  0  0  0  0
   -0.6667    0.0583    0.0000 C   0  0  0  0  0  0  0  0  0  0  0  0
    0.0500    0.4708    0.0000 C   0  0  0  0  0  0  0  0  0  0  0  0
   -2.0917    2.5333    0.0000 C   0  0  0  0  0  0  0  0  0  0  0  0
    0.0500   -1.1792    0.0000 C   0  0  0  0  0  0  0  0  0  0  0  0
   -2.0917    3.3583    0.0000 C   0  0  0  0  0  0  0  0  0  0  0  0
    1.5500    0.3125    0.0000 C   0  0  0  0  0  0  0  0  0  0  0  0
   -0.6667   -0.7667    0.0000 C   0  0  0  0  0  0  0  0  0  0  0  0
    2.6125   -1.9792    0.0000 O   0  0  0  0  0  0  0  0  0  0  0  0
   -2.0917    0.0583    0.0000 O   0  0  0  0  0  0  0  0  0  0  0  0
   -1.3792    1.2958    0.0000 N   0  0  0  0  0  0  0  0  0  0  0  0
   -2.0917    1.7083    0.0000 C   0  0  0  0  0  0  0  0  0  0  0  0
    1.2500   -2.4208    0.0000 C   0  0  0  0  0  0  0  0  0  0  0  0
  2  1  1  0  0  0  0
  3  2  2  0  0  0  0
  3 12  1  0  0  0  0
  4  1  1  0  0  0  0
  5  7  1  0  0  0  0
  6  1  1  0  0  0  0
  7  8  2  0  0  0  0
  8  3  1  0  0  0  0
  9 17  1  0  0  0  0
 10  2  1  0  0  0  0
 11  9  3  0  0  0  0
 12  6  1  0  0  0  0
 13 10  2  0  0  0  0
 13  7  1  0  0  0  0
 14  4  2  0  0  0  0
 15  5  2  0  0  0  0
 16  5  1  0  0  0  0
 17 16  1  0  0  0  0
 18  4  1  0  0  0  0
M  END
> <CdId>
3622

> <Mol Weight>
242.2732

> <Formula>
C14H14N2O2

> <Click_ID>
CLK047F08 __ __ 

$$$$
