CLK005_A04
 OpenBabel03181410512D

 31 34  0  0  0  0  0  0  0  0999 V2000
    0.7291   -0.1174    0.0000 C   0  0  3  0  0  0  0  0  0  0  0  0
    1.3961   -0.5979    0.0000 C   0  0  3  0  0  0  0  0  0  0  0  0
    0.0656   -0.5979    0.0000 C   0  0  3  0  0  0  0  0  0  0  0  0
    0.9711    1.1438    0.0000 O   0  0  0  0  0  0  0  0  0  0  0  0
   -0.0726    0.1036    0.0000 C   0  0  0  0  0  0  0  0  0  0  0  0
    1.9870   -0.0103    0.0000 C   0  0  3  0  0  0  0  0  0  0  0  0
    1.1403   -1.3891    0.0000 C   0  0  0  0  0  0  0  0  0  0  0  0
    0.3145   -1.3891    0.0000 N   0  0  0  0  0  0  0  0  0  0  0  0
   -0.7187   -0.3490    0.0000 C   0  0  0  0  0  0  0  0  0  0  0  0
    1.3097    0.4769    0.0000 C   0  0  3  0  0  0  0  0  0  0  0  0
    0.5080    0.6912    0.0000 C   0  0  0  0  0  0  0  0  0  0  0  0
    2.8093    0.0553    0.0000 C   0  0  0  0  0  0  0  0  0  0  0  0
    1.6311   -2.0596    0.0000 O   0  0  0  0  0  0  0  0  0  0  0  0
   -0.1694   -2.0596    0.0000 C   0  0  0  0  0  0  0  0  0  0  0  0
   -1.3373   -0.8985    0.0000 N   0  0  0  0  0  0  0  0  0  0  0  0
   -0.8950    0.4562    0.0000 O   0  0  0  0  0  0  0  0  0  0  0  0
    2.0215    0.8916    0.0000 C   0  0  0  0  0  0  0  0  0  0  0  0
    3.1584    0.8051    0.0000 N   0  0  0  0  0  0  0  0  0  0  0  0
    3.2759   -0.6185    0.0000 O   0  0  0  0  0  0  0  0  0  0  0  0
    0.1659   -2.8163    0.0000 C   0  0  0  0  0  0  0  0  0  0  0  0
   -2.1217   -0.6497    0.0000 C   0  0  0  0  0  0  0  0  0  0  0  0
    3.9774    0.8778    0.0000 C   0  0  0  0  0  0  0  0  0  0  0  0
   -0.3179   -3.4798    0.0000 C   0  0  0  0  0  0  0  0  0  0  0  0
   -2.2980    0.1659    0.0000 C   0  0  0  0  0  0  0  0  0  0  0  0
   -1.6864    0.7153    0.0000 C   0  0  0  0  0  0  0  0  0  0  0  0
   -3.0789    0.4147    0.0000 C   0  0  0  0  0  0  0  0  0  0  0  0
   -1.8522    1.5170    0.0000 C   0  0  0  0  0  0  0  0  0  0  0  0
   -3.2552    1.2164    0.0000 C   0  0  0  0  0  0  0  0  0  0  0  0
   -2.6366    1.7728    0.0000 C   0  0  0  0  0  0  0  0  0  0  0  0
   -2.8129    2.5814    0.0000 O   0  0  0  0  0  0  0  0  0  0  0  0
   -2.1978    3.1376    0.0000 C   0  0  0  0  0  0  0  0  0  0  0  0
  1  2  1  0  0  0  0
  1  3  1  0  0  0  0
  1  4  1  0  0  0  0
  1  5  1  0  0  0  0
  2  6  1  0  0  0  0
  2  7  1  0  0  0  0
  3  8  1  0  0  0  0
  3  9  1  0  0  0  0
  4 10  1  0  0  0  0
  5 11  2  0  0  0  0
  6 12  1  0  0  0  0
  6 10  1  0  0  0  0
  7 13  2  0  0  0  0
  7  8  1  0  0  0  0
  8 14  1  0  0  0  0
  9 15  1  0  0  0  0
  9 16  2  0  0  0  0
 10 17  1  0  0  0  0
 10 11  1  0  0  0  0
 12 18  1  0  0  0  0
 12 19  2  0  0  0  0
 14 20  1  0  0  0  0
 15 21  1  0  0  0  0
 18 22  1  0  0  0  0
 20 23  3  0  0  0  0
 21 24  1  0  0  0  0
 24 25  2  0  0  0  0
 24 26  1  0  0  0  0
 25 27  1  0  0  0  0
 26 28  2  0  0  0  0
 27 29  2  0  0  0  0
 28 29  1  0  0  0  0
 29 30  1  0  0  0  0
 30 31  1  0  0  0  0
M  END
> <CdId>
323

> <Mol Weight>
423.4617

> <Formula>
C23H25N3O5

> <Click_ID>
CLK005_A04 __ __ 

$$$$
