CLK041E05
 OpenBabel03181410512D

 21 23  0  0  0  0  0  0  0  0999 V2000
   -0.1375    0.7500    0.0000 C   0  0  0  0  0  0  0  0  0  0  0  0
    0.6875    0.7500    0.0000 C   0  0  0  0  0  0  0  0  0  0  0  0
   -0.6208    1.4167    0.0000 N   0  0  0  0  0  0  0  0  0  0  0  0
    1.1000    0.0375    0.0000 C   0  0  0  0  0  0  0  0  0  0  0  0
   -0.6208    0.0833    0.0000 S   0  0  0  0  0  0  0  0  0  0  0  0
    0.6875   -0.6792    0.0000 C   0  0  0  0  0  0  0  0  0  0  0  0
   -1.4042    1.1625    0.0000 C   0  0  0  0  0  0  0  0  0  0  0  0
   -1.4042    0.3375    0.0000 C   0  0  0  0  0  0  0  0  0  0  0  0
    1.1000    1.4667    0.0000 N   0  0  0  0  0  0  0  0  0  0  0  0
    1.9250    0.0375    0.0000 N   0  0  0  0  0  0  0  0  0  0  0  0
    1.1000   -2.8208    0.0000 C   0  0  0  0  0  0  0  0  0  0  0  0
    1.5125   -3.5375    0.0000 C   0  0  0  0  0  0  0  0  0  0  0  0
   -0.1375   -0.6792    0.0000 O   0  0  0  0  0  0  0  0  0  0  0  0
    1.1000   -1.3917    0.0000 N   0  0  0  0  0  0  0  0  0  0  0  0
    0.6875   -2.1083    0.0000 C   0  0  0  0  0  0  0  0  0  0  0  0
    1.9250    1.4667    0.0000 C   0  0  0  0  0  0  0  0  0  0  0  0
    2.3375    0.7500    0.0000 C   0  0  0  0  0  0  0  0  0  0  0  0
   -2.1208    1.5750    0.0000 C   0  0  0  0  0  0  0  0  0  0  0  0
   -2.1208   -0.0750    0.0000 C   0  0  0  0  0  0  0  0  0  0  0  0
   -2.8333    0.3375    0.0000 C   0  0  0  0  0  0  0  0  0  0  0  0
   -2.8333    1.1625    0.0000 C   0  0  0  0  0  0  0  0  0  0  0  0
  2  1  1  0  0  0  0
  3  1  2  0  0  0  0
  4  2  2  0  0  0  0
  5  1  1  0  0  0  0
  6  4  1  0  0  0  0
  7  3  1  0  0  0  0
  8  5  1  0  0  0  0
  8  7  2  0  0  0  0
  9  2  1  0  0  0  0
 10  4  1  0  0  0  0
 11 15  1  0  0  0  0
 12 11  3  0  0  0  0
 13  6  2  0  0  0  0
 14  6  1  0  0  0  0
 15 14  1  0  0  0  0
 16  9  2  0  0  0  0
 16 17  1  0  0  0  0
 17 10  2  0  0  0  0
 18  7  1  0  0  0  0
 19  8  1  0  0  0  0
 20 19  2  0  0  0  0
 20 21  1  0  0  0  0
 21 18  2  0  0  0  0
M  END
> <CdId>
3117

> <Mol Weight>
294.331

> <Formula>
C15H10N4OS

> <Click_ID>
CLK041E05 __ __ 

$$$$
