CLK045B03
 OpenBabel03181410512D

 26 28  0  0  0  0  0  0  0  0999 V2000
    0.6292   -2.5833    0.0000 S   0  0  0  0  0  0  0  0  0  0  0  0
    0.6292    0.7167    0.0000 C   0  0  0  0  0  0  0  0  0  0  0  0
   -0.0833    1.1292    0.0000 N   0  0  0  0  0  0  0  0  0  0  0  0
   -0.0833    1.9542    0.0000 C   0  0  0  0  0  0  0  0  0  0  0  0
    0.6292   -1.7583    0.0000 C   0  0  0  0  0  0  0  0  0  0  0  0
   -0.8000    2.3667    0.0000 C   0  0  0  0  0  0  0  0  0  0  0  0
   -0.0833   -4.6458    0.0000 C   0  0  0  0  0  0  0  0  0  0  0  0
   -0.0833   -5.4708    0.0000 C   0  0  0  0  0  0  0  0  0  0  0  0
    1.4542   -2.5833    0.0000 O   0  0  0  0  0  0  0  0  0  0  0  0
   -0.1958   -2.5833    0.0000 O   0  0  0  0  0  0  0  0  0  0  0  0
    0.6292   -0.1083    0.0000 C   0  0  0  0  0  0  0  0  0  0  0  0
    0.6292   -3.4083    0.0000 N   0  0  0  0  0  0  0  0  0  0  0  0
    1.3458    1.1292    0.0000 O   0  0  0  0  0  0  0  0  0  0  0  0
   -0.8000    3.1917    0.0000 C   0  0  0  0  0  0  0  0  0  0  0  0
   -0.0833   -1.3458    0.0000 C   0  0  0  0  0  0  0  0  0  0  0  0
    1.3458   -1.3458    0.0000 C   0  0  0  0  0  0  0  0  0  0  0  0
   -0.0833   -0.5208    0.0000 C   0  0  0  0  0  0  0  0  0  0  0  0
    1.3458   -0.5208    0.0000 C   0  0  0  0  0  0  0  0  0  0  0  0
   -0.0833   -3.8208    0.0000 C   0  0  0  0  0  0  0  0  0  0  0  0
    0.6292    2.3667    0.0000 C   0  0  0  0  0  0  0  0  0  0  0  0
    0.6292    3.1917    0.0000 C   0  0  0  0  0  0  0  0  0  0  0  0
   -1.5125    1.9542    0.0000 C   0  0  0  0  0  0  0  0  0  0  0  0
   -0.0833    3.6042    0.0000 C   0  0  0  0  0  0  0  0  0  0  0  0
   -1.5125    3.6042    0.0000 C   0  0  0  0  0  0  0  0  0  0  0  0
   -2.2292    2.3667    0.0000 C   0  0  0  0  0  0  0  0  0  0  0  0
   -2.2292    3.1917    0.0000 C   0  0  0  0  0  0  0  0  0  0  0  0
  2 11  1  0  0  0  0
  3  2  1  0  0  0  0
  4  3  1  0  0  0  0
  5  1  1  0  0  0  0
  6  4  2  0  0  0  0
  7 19  1  0  0  0  0
  8  7  3  0  0  0  0
  9  1  2  0  0  0  0
 10  1  2  0  0  0  0
 11 18  2  0  0  0  0
 12  1  1  0  0  0  0
 13  2  2  0  0  0  0
 14  6  1  0  0  0  0
 15  5  1  0  0  0  0
 16  5  2  0  0  0  0
 17 15  2  0  0  0  0
 17 11  1  0  0  0  0
 18 16  1  0  0  0  0
 19 12  1  0  0  0  0
 20  4  1  0  0  0  0
 21 20  2  0  0  0  0
 22  6  1  0  0  0  0
 23 14  2  0  0  0  0
 23 21  1  0  0  0  0
 24 14  1  0  0  0  0
 25 22  1  0  0  0  0
 25 26  1  0  0  0  0
 26 24  1  0  0  0  0
M  END
> <CdId>
3418

> <Mol Weight>
368.449

> <Formula>
C20H20N2O3S

> <Click_ID>
CLK045B03 __ __ 

$$$$
