CLK005_C06
 OpenBabel03181410512D

 31 34  0  0  0  0  0  0  0  0999 V2000
    0.4095   -0.0796    0.0000 C    0  0  3  0  0  0  0  0  0  0  0  0
    1.1300   -0.4815    0.0000 C    0  0  0  0  0  0  0  0  0  0  0  0
    0.4019    0.7432    0.0000 C    0  0  0  0  0  0  0  0  0  0  0  0
   -0.8645   -0.8380    0.0000 C    0  0  0  0  0  0  0  0  0  0  0  0
    1.8314   -0.0569    0.0000 C    0  0  0  0  0  0  0  0  0  0  0  0
    1.1300   -1.2931    0.0000 C    0  0  0  0  0  0  0  0  0  0  0  0
    1.0996    1.1565    0.0000 C    0  0  0  0  0  0  0  0  0  0  0  0
   -0.3186    1.1452    0.0000 C    0  0  0  0  0  0  0  0  0  0  0  0
   -1.5926   -0.4361    0.0000 C    0  0  0  0  0  0  0  0  0  0  0  0
   -0.8569   -1.6646    0.0000 C    0  0  0  0  0  0  0  0  0  0  0  0
    1.8163    0.7584    0.0000 N    0  0  0  0  0  0  0  0  0  0  0  0
    2.5519   -0.4626    0.0000 C    0  0  0  0  0  0  0  0  0  0  0  0
    1.8580   -1.7063    0.0000 C    0  0  0  0  0  0  0  0  0  0  0  0
    0.4134   -1.7291    0.0000 O    0  0  0  0  0  0  0  0  0  0  0  0
    1.0883    1.9907    0.0000 C    0  0  0  0  0  0  0  0  0  0  0  0
   -0.3299    1.9642    0.0000 C    0  0  0  0  0  0  0  0  0  0  0  0
   -1.0352    0.7281    0.0000 O    0  0  0  0  0  0  0  0  0  0  0  0
   -2.2941   -0.8532    0.0000 C    0  0  0  0  0  0  0  0  0  0  0  0
   -1.5963    0.3867    0.0000 O    0  0  0  0  0  0  0  0  0  0  0  0
   -1.5660   -2.0856    0.0000 C    0  0  0  0  0  0  0  0  0  0  0  0
    2.5595   -1.2892    0.0000 C    0  0  0  0  0  0  0  0  0  0  0  0
    0.3716    2.3813    0.0000 C    0  0  0  0  0  0  0  0  0  0  0  0
   -2.2865   -1.6874    0.0000 C    0  0  0  0  0  0  0  0  0  0  0  0
   -2.3206    0.7962    0.0000 C    0  0  0  0  0  0  0  0  0  0  0  0
   -1.5508   -2.9159    0.0000 Cl   0  0  0  0  0  0  0  0  0  0  0  0
    3.2876   -1.6911    0.0000 C    0  0  0  0  0  0  0  0  0  0  0  0
    2.1537   -2.0173    0.0000 C    0  0  0  0  0  0  0  0  0  0  0  0
    0.3602    3.2193    0.0000 C    0  0  0  0  0  0  0  0  0  0  0  0
   -0.4550    2.3661    0.0000 C    0  0  0  0  0  0  0  0  0  0  0  0
   -2.3357    1.6229    0.0000 C    0  0  0  0  0  0  0  0  0  0  0  0
   -3.0562    2.0210    0.0000 C    0  0  0  0  0  0  0  0  0  0  0  0
  1  2  1  0  0  0  0
  1  3  1  0  0  0  0
  1  4  1  0  0  0  0
  2  5  2  0  0  0  0
  2  6  1  0  0  0  0
  3  7  2  0  0  0  0
  3  8  1  0  0  0  0
  4  9  1  0  0  0  0
  4 10  2  0  0  0  0
  5 11  1  0  0  0  0
  5 12  1  0  0  0  0
  6 13  1  0  0  0  0
  6 14  2  0  0  0  0
  7 15  1  0  0  0  0
  7 11  1  0  0  0  0
  8 16  1  0  0  0  0
  8 17  2  0  0  0  0
  9 18  2  0  0  0  0
  9 19  1  0  0  0  0
 10 20  1  0  0  0  0
 12 21  1  0  0  0  0
 13 21  1  0  0  0  0
 15 22  1  0  0  0  0
 16 22  1  0  0  0  0
 18 23  1  0  0  0  0
 19 24  1  0  0  0  0
 20 25  1  0  0  0  0
 20 23  2  0  0  0  0
 21 26  1  0  0  0  0
 21 27  1  0  0  0  0
 22 28  1  0  0  0  0
 22 29  1  0  0  0  0
 24 30  1  0  0  0  0
 30 31  3  0  0  0  0
M  END
> <CdId>
345

> <Mol Weight>
437.958

> <Formula>
C26H28ClNO3

> <Click_ID>
CLK005_C06 __ __ 

$$$$
