CLK024_H06
 OpenBabel03181410512D

 16 17  0  0  0  0  0  0  0  0999 V2000
   -0.5288   -0.4670    0.0000 N   0  0  0  0  0  0  0  0  0  0  0  0
   -0.2781   -1.2533    0.0000 C   0  0  0  0  0  0  0  0  0  0  0  0
    0.1339    0.0171    0.0000 C   0  0  0  0  0  0  0  0  0  0  0  0
    0.8000   -0.4670    0.0000 C   0  0  0  0  0  0  0  0  0  0  0  0
    0.5460   -1.2533    0.0000 S   0  0  0  0  0  0  0  0  0  0  0  0
    1.5864   -0.2163    0.0000 C   0  0  0  0  0  0  0  0  0  0  0  0
    1.7580    0.5906    0.0000 C   0  0  0  0  0  0  0  0  0  0  0  0
   -1.9263   -0.7691    0.0000 C   0  0  0  0  0  0  0  0  0  0  0  0
   -2.5100   -1.3494    0.0000 C   0  0  0  0  0  0  0  0  0  0  0  0
    2.4208    1.7443    0.0000 S   0  0  0  0  0  0  0  0  0  0  0  0
   -0.7623   -1.9160    0.0000 O   0  0  0  0  0  0  0  0  0  0  0  0
    0.1339    0.8412    0.0000 O   0  0  0  0  0  0  0  0  0  0  0  0
   -1.3082   -0.2163    0.0000 C   0  0  0  0  0  0  0  0  0  0  0  0
    2.5066    0.9306    0.0000 C   0  0  0  0  0  0  0  0  0  0  0  0
    1.6173    1.9195    0.0000 C   0  0  0  0  0  0  0  0  0  0  0  0
    1.1984    1.2018    0.0000 C   0  0  0  0  0  0  0  0  0  0  0  0
  2  1  1  0  0  0  0
  3  1  1  0  0  0  0
  4  3  1  0  0  0  0
  5  2  1  0  0  0  0
  5  4  1  0  0  0  0
  6  4  2  0  0  0  0
  7  6  1  0  0  0  0
  8 13  1  0  0  0  0
  9  8  3  0  0  0  0
 10 14  1  0  0  0  0
 11  2  2  0  0  0  0
 12  3  2  0  0  0  0
 13  1  1  0  0  0  0
 14  7  2  0  0  0  0
 15 16  2  0  0  0  0
 15 10  1  0  0  0  0
 16  7  1  0  0  0  0
M  END
> <CdId>
1851

> <Mol Weight>
249.309

> <Formula>
C11H7NO2S2

> <Click_ID>
CLK024_H06 __ __ 

$$$$
