CLK015_F06
 OpenBabel03181410512D

 24 25  0  0  0  0  0  0  0  0999 V2000
    3.0837   -1.0679    0.0000 N    0  0  0  0  0  0  0  0  0  0  0  0
    3.9115   -1.0679    0.0000 C    0  0  0  0  0  0  0  0  0  0  0  0
    2.8312   -1.8502    0.0000 C    0  0  0  0  0  0  0  0  0  0  0  0
    3.4935   -2.3345    0.0000 C    0  0  0  0  0  0  0  0  0  0  0  0
    4.1640   -1.8502    0.0000 S    0  0  0  0  0  0  0  0  0  0  0  0
    3.4935   -3.1582    0.0000 C    0  0  0  0  0  0  0  0  0  0  0  0
    5.6623   -4.4082    0.0000 C    0  0  0  0  0  0  0  0  0  0  0  0
    5.6499   -3.5762    0.0000 C    0  0  0  0  0  0  0  0  0  0  0  0
    4.9297   -4.8221    0.0000 C    0  0  0  0  0  0  0  0  0  0  0  0
    4.2219   -3.5762    0.0000 C    0  0  0  0  0  0  0  0  0  0  0  0
    2.5994   -0.4015    0.0000 C    0  0  0  0  0  0  0  0  0  0  0  0
    4.3958   -0.4015    0.0000 S    0  0  0  0  0  0  0  0  0  0  0  0
    7.8147   -4.8097    0.0000 C    0  0  0  0  0  0  0  0  0  0  0  0
    8.5308   -5.2277    0.0000 C    0  0  0  0  0  0  0  0  0  0  0  0
    2.0489   -2.1027    0.0000 O    0  0  0  0  0  0  0  0  0  0  0  0
    4.9339   -3.1582    0.0000 C    0  0  0  0  0  0  0  0  0  0  0  0
    4.2137   -4.4124    0.0000 C    0  0  0  0  0  0  0  0  0  0  0  0
    4.9339   -5.6499    0.0000 Cl   0  0  0  0  0  0  0  0  0  0  0  0
    6.3701   -3.1664    0.0000 Cl   0  0  0  0  0  0  0  0  0  0  0  0
    6.3743   -4.8221    0.0000 O    0  0  0  0  0  0  0  0  0  0  0  0
    7.0945   -4.4082    0.0000 C    0  0  0  0  0  0  0  0  0  0  0  0
    1.7881   -0.4843    0.0000 C    0  0  0  0  0  0  0  0  0  0  0  0
    1.4528   -1.2293    0.0000 C    0  0  0  0  0  0  0  0  0  0  0  0
    1.3080    0.1821    0.0000 C    0  0  0  0  0  0  0  0  0  0  0  0
  2  1  1  0  0  0  0
  3  1  1  0  0  0  0
  4  3  1  0  0  0  0
  5  2  1  0  0  0  0
  5  4  1  0  0  0  0
  6  4  2  0  0  0  0
  7  9  2  0  0  0  0
  7  8  1  0  0  0  0
  8 16  2  0  0  0  0
  9 17  1  0  0  0  0
 10  6  1  0  0  0  0
 11  1  1  0  0  0  0
 12  2  2  0  0  0  0
 13 21  1  0  0  0  0
 14 13  3  0  0  0  0
 15  3  2  0  0  0  0
 16 10  1  0  0  0  0
 17 10  2  0  0  0  0
 18  9  1  0  0  0  0
 19  8  1  0  0  0  0
 20  7  1  0  0  0  0
 21 20  1  0  0  0  0
 22 11  1  0  0  0  0
 23 22  1  0  0  0  0
 24 22  1  0  0  0  0
M  END
> <CdId>
1131

> <Mol Weight>
400.343

> <Formula>
C17H15Cl2NO2S2

> <Click_ID>
CLK015_F06 __ __ 

$$$$
