CLK022_C06
 OpenBabel03181410512D

 20 21  0  0  0  0  0  0  0  0999 V2000
    4.6037    1.4704    0.0000 C   0  0  0  0  0  0  0  0  0  0  0  0
    8.8913    3.1195    0.0000 C   0  0  0  0  0  0  0  0  0  0  0  0
    9.6059    3.5318    0.0000 C   0  0  0  0  0  0  0  0  0  0  0  0
    3.8891    1.8827    0.0000 N   0  0  0  0  0  0  0  0  0  0  0  0
    5.3183    1.8827    0.0000 C   0  0  0  0  0  0  0  0  0  0  0  0
    4.6037    0.6459    0.0000 O   0  0  0  0  0  0  0  0  0  0  0  0
    6.0329    1.4704    0.0000 C   0  0  0  0  0  0  0  0  0  0  0  0
    5.3183    2.7072    0.0000 C   0  0  0  0  0  0  0  0  0  0  0  0
    3.1791    1.4704    0.0000 C   0  0  0  0  0  0  0  0  0  0  0  0
    6.7475    2.7072    0.0000 C   0  0  0  0  0  0  0  0  0  0  0  0
    6.0329    3.1195    0.0000 C   0  0  0  0  0  0  0  0  0  0  0  0
    6.7475    1.8827    0.0000 C   0  0  0  0  0  0  0  0  0  0  0  0
    2.4645    1.8827    0.0000 C   0  0  0  0  0  0  0  0  0  0  0  0
    8.1767    2.7072    0.0000 C   0  0  0  0  0  0  0  0  0  0  0  0
    7.4621    3.1195    0.0000 O   0  0  0  0  0  0  0  0  0  0  0  0
    2.4645    2.7072    0.0000 C   0  0  0  0  0  0  0  0  0  0  0  0
    1.7499    1.4704    0.0000 C   0  0  0  0  0  0  0  0  0  0  0  0
    1.0353    1.8827    0.0000 C   0  0  0  0  0  0  0  0  0  0  0  0
    1.7499    3.1195    0.0000 C   0  0  0  0  0  0  0  0  0  0  0  0
    1.0353    2.7072    0.0000 C   0  0  0  0  0  0  0  0  0  0  0  0
  2 14  1  0  0  0  0
  3  2  3  0  0  0  0
  4  1  1  0  0  0  0
  5  1  1  0  0  0  0
  6  1  2  0  0  0  0
  7  5  2  0  0  0  0
  8  5  1  0  0  0  0
  9  4  1  0  0  0  0
 10 11  1  0  0  0  0
 10 12  2  0  0  0  0
 11  8  2  0  0  0  0
 12  7  1  0  0  0  0
 13  9  1  0  0  0  0
 14 15  1  0  0  0  0
 15 10  1  0  0  0  0
 16 13  1  0  0  0  0
 17 13  2  0  0  0  0
 18 17  1  0  0  0  0
 19 16  2  0  0  0  0
 19 20  1  0  0  0  0
 20 18  2  0  0  0  0
M  END
> <CdId>
1657

> <Mol Weight>
265.3065

> <Formula>
C17H15NO2

> <Click_ID>
CLK022_C06 __ __ 

$$$$
