CLK004_C09
 OpenBabel03181410512D

 28 31  0  0  0  0  0  0  0  0999 V2000
   -0.6140   -0.4776    0.0000 C    0  0  3  0  0  0  0  0  0  0  0  0
   -1.3265   -0.0644    0.0000 C    0  0  0  0  0  0  0  0  0  0  0  0
   -0.6140   -1.2925    0.0000 C    0  0  0  0  0  0  0  0  0  0  0  0
    0.1023   -0.0568    0.0000 C    0  0  0  0  0  0  0  0  0  0  0  0
   -2.0428   -0.4776    0.0000 C    0  0  0  0  0  0  0  0  0  0  0  0
   -1.3265    0.7542    0.0000 C    0  0  0  0  0  0  0  0  0  0  0  0
   -1.3265   -1.7055    0.0000 C    0  0  0  0  0  0  0  0  0  0  0  0
    0.1023   -1.7055    0.0000 C    0  0  0  0  0  0  0  0  0  0  0  0
    0.8149   -0.4700    0.0000 C    0  0  0  0  0  0  0  0  0  0  0  0
    0.1023    0.7694    0.0000 C    0  0  0  0  0  0  0  0  0  0  0  0
   -2.0428   -1.2925    0.0000 N    0  0  0  0  0  0  0  0  0  0  0  0
   -2.7591   -0.0644    0.0000 C    0  0  0  0  0  0  0  0  0  0  0  0
   -2.0428    1.1711    0.0000 C    0  0  0  0  0  0  0  0  0  0  0  0
   -0.6027    1.1787    0.0000 O    0  0  0  0  0  0  0  0  0  0  0  0
   -1.3265   -2.5393    0.0000 C    0  0  0  0  0  0  0  0  0  0  0  0
    0.1023   -2.5280    0.0000 C    0  0  0  0  0  0  0  0  0  0  0  0
    0.8262   -1.2925    0.0000 O    0  0  0  0  0  0  0  0  0  0  0  0
    1.5312   -0.0568    0.0000 C    0  0  0  0  0  0  0  0  0  0  0  0
    0.8149    1.1787    0.0000 C    0  0  0  0  0  0  0  0  0  0  0  0
   -2.7554    0.7581    0.0000 C    0  0  0  0  0  0  0  0  0  0  0  0
   -0.6140   -2.9412    0.0000 C    0  0  0  0  0  0  0  0  0  0  0  0
    1.5312    0.7694    0.0000 C    0  0  0  0  0  0  0  0  0  0  0  0
    2.2438   -0.4700    0.0000 Cl   0  0  0  0  0  0  0  0  0  0  0  0
    0.8149    2.0049    0.0000 Cl   0  0  0  0  0  0  0  0  0  0  0  0
    2.2438    1.1787    0.0000 O    0  0  0  0  0  0  0  0  0  0  0  0
    2.2438    2.0049    0.0000 C    0  0  0  0  0  0  0  0  0  0  0  0
    2.9601    2.4181    0.0000 C    0  0  0  0  0  0  0  0  0  0  0  0
    2.9601    3.2406    0.0000 C    0  0  0  0  0  0  0  0  0  0  0  0
  1  2  1  0  0  0  0
  1  3  1  0  0  0  0
  1  4  1  0  0  0  0
  2  5  2  0  0  0  0
  2  6  1  0  0  0  0
  3  7  2  0  0  0  0
  3  8  1  0  0  0  0
  4  9  1  0  0  0  0
  4 10  2  0  0  0  0
  5 11  1  0  0  0  0
  5 12  1  0  0  0  0
  6 13  1  0  0  0  0
  6 14  2  0  0  0  0
  7 15  1  0  0  0  0
  7 11  1  0  0  0  0
  8 16  1  0  0  0  0
  8 17  2  0  0  0  0
  9 18  2  0  0  0  0
 10 19  1  0  0  0  0
 12 20  1  0  0  0  0
 13 20  1  0  0  0  0
 15 21  1  0  0  0  0
 16 21  1  0  0  0  0
 18 22  1  0  0  0  0
 18 23  1  0  0  0  0
 19 24  1  0  0  0  0
 19 22  2  0  0  0  0
 22 25  1  0  0  0  0
 25 26  1  0  0  0  0
 26 27  1  0  0  0  0
 27 28  3  0  0  0  0
M  END
> <CdId>
268

> <Mol Weight>
416.297

> <Formula>
C22H19Cl2NO3

> <Click_ID>
CLK004_C09 __ __ 

$$$$
