CLK007_E05
 OpenBabel03181410512D

 35 38  0  0  0  0  0  0  0  0999 V2000
   -0.7974   -0.6454    0.0000 C   0  0  3  0  0  0  0  0  0  0  0  0
   -1.5084   -1.0596    0.0000 C   0  0  0  0  0  0  0  0  0  0  0  0
   -0.7939    0.1795    0.0000 C   0  0  0  0  0  0  0  0  0  0  0  0
   -0.0829   -1.0665    0.0000 C   0  0  0  0  0  0  0  0  0  0  0  0
   -1.5187   -1.8846    0.0000 C   0  0  0  0  0  0  0  0  0  0  0  0
   -2.2229   -0.6454    0.0000 C   0  0  0  0  0  0  0  0  0  0  0  0
   -0.0794    0.5868    0.0000 C   0  0  0  0  0  0  0  0  0  0  0  0
   -1.5049    0.5868    0.0000 C   0  0  0  0  0  0  0  0  0  0  0  0
   -0.0829   -1.8915    0.0000 C   0  0  0  0  0  0  0  0  0  0  0  0
    0.6351   -0.6592    0.0000 C   0  0  0  0  0  0  0  0  0  0  0  0
   -0.8042   -2.2953    0.0000 N   0  0  0  0  0  0  0  0  0  0  0  0
   -2.2229   -2.2953    0.0000 C   0  0  0  0  0  0  0  0  0  0  0  0
   -2.9304   -1.0596    0.0000 C   0  0  0  0  0  0  0  0  0  0  0  0
   -2.2229    0.1795    0.0000 O   0  0  0  0  0  0  0  0  0  0  0  0
   -0.0725    1.4186    0.0000 C   0  0  0  0  0  0  0  0  0  0  0  0
   -1.5049    1.4117    0.0000 C   0  0  0  0  0  0  0  0  0  0  0  0
    0.6213   -2.3091    0.0000 C   0  0  0  0  0  0  0  0  0  0  0  0
    1.3461   -1.0700    0.0000 N   0  0  0  0  0  0  0  0  0  0  0  0
    0.6351    0.1692    0.0000 O   0  0  0  0  0  0  0  0  0  0  0  0
   -2.9304   -1.8846    0.0000 C   0  0  3  0  0  0  0  0  0  0  0  0
   -0.7939    1.8328    0.0000 C   0  0  0  0  0  0  0  0  0  0  0  0
    0.6454    1.8225    0.0000 O   0  0  0  0  0  0  0  0  0  0  0  0
    2.0606   -0.6592    0.0000 C   0  0  0  0  0  0  0  0  0  0  0  0
   -3.6483   -2.2953    0.0000 C   0  0  0  0  0  0  0  0  0  0  0  0
   -0.7939    2.6578    0.0000 O   0  0  0  0  0  0  0  0  0  0  0  0
    1.3599    1.4117    0.0000 C   0  0  0  0  0  0  0  0  0  0  0  0
    2.7751   -1.0596    0.0000 N   0  0  0  0  0  0  0  0  0  0  0  0
    2.0468    0.1692    0.0000 C   0  0  0  0  0  0  0  0  0  0  0  0
   -0.0725    3.0720    0.0000 C   0  0  0  0  0  0  0  0  0  0  0  0
    3.4827   -0.6454    0.0000 C   0  0  0  0  0  0  0  0  0  0  0  0
    2.7579    0.5868    0.0000 C   0  0  0  0  0  0  0  0  0  0  0  0
   -0.0794    3.8969    0.0000 C   0  0  0  0  0  0  0  0  0  0  0  0
    3.4758    0.1795    0.0000 C   0  0  0  0  0  0  0  0  0  0  0  0
    4.2007   -1.0527    0.0000 C   0  0  0  0  0  0  0  0  0  0  0  0
    0.6351    4.3145    0.0000 C   0  0  0  0  0  0  0  0  0  0  0  0
  1  2  1  0  0  0  0
  1  3  1  0  0  0  0
  1  4  1  0  0  0  0
  2  5  2  0  0  0  0
  2  6  1  0  0  0  0
  3  7  2  0  0  0  0
  3  8  1  0  0  0  0
  4  9  2  0  0  0  0
  4 10  1  0  0  0  0
  5 11  1  0  0  0  0
  5 12  1  0  0  0  0
  6 13  1  0  0  0  0
  6 14  2  0  0  0  0
  7 15  1  0  0  0  0
  8 16  2  0  0  0  0
  9 17  1  0  0  0  0
  9 11  1  0  0  0  0
 10 18  1  0  0  0  0
 10 19  2  0  0  0  0
 12 20  1  0  0  0  0
 13 20  1  0  0  0  0
 15 21  2  0  0  0  0
 15 22  1  0  0  0  0
 16 21  1  0  0  0  0
 18 23  1  0  0  0  0
 20 24  1  0  0  0  0
 21 25  1  0  0  0  0
 22 26  1  0  0  0  0
 23 27  2  0  0  0  0
 23 28  1  0  0  0  0
 25 29  1  0  0  0  0
 27 30  1  0  0  0  0
 28 31  2  0  0  0  0
 29 32  1  0  0  0  0
 30 33  2  0  0  0  0
 30 34  1  0  0  0  0
 31 33  1  0  0  0  0
 32 35  3  0  0  0  0
M  END
> <CdId>
524

> <Mol Weight>
471.5476

> <Formula>
C28H29N3O4

> <Click_ID>
CLK007_E05 __ __ 

$$$$
