CLK045B04
 OpenBabel03181410512D

 21 22  0  0  0  0  0  0  0  0999 V2000
   -0.1042   -3.0833    0.0000 S   0  0  0  0  0  0  0  0  0  0  0  0
   -0.1042    0.2167    0.0000 C   0  0  0  0  0  0  0  0  0  0  0  0
    0.6083    0.6292    0.0000 N   0  0  0  0  0  0  0  0  0  0  0  0
   -0.8167    3.1042    0.0000 C   0  0  0  0  0  0  0  0  0  0  0  0
   -0.1042   -2.2583    0.0000 C   0  0  0  0  0  0  0  0  0  0  0  0
   -1.5333    3.5167    0.0000 C   0  0  0  0  0  0  0  0  0  0  0  0
   -0.1042   -0.6083    0.0000 C   0  0  0  0  0  0  0  0  0  0  0  0
   -0.9292   -3.0833    0.0000 O   0  0  0  0  0  0  0  0  0  0  0  0
   -0.1042   -3.9083    0.0000 O   0  0  0  0  0  0  0  0  0  0  0  0
   -0.8167    0.6292    0.0000 O   0  0  0  0  0  0  0  0  0  0  0  0
    0.6083    1.4542    0.0000 C   0  0  0  0  0  0  0  0  0  0  0  0
    0.6083   -1.8458    0.0000 C   0  0  0  0  0  0  0  0  0  0  0  0
   -0.8167   -1.8458    0.0000 C   0  0  0  0  0  0  0  0  0  0  0  0
   -0.8167   -1.0208    0.0000 C   0  0  0  0  0  0  0  0  0  0  0  0
    0.6083   -1.0208    0.0000 C   0  0  0  0  0  0  0  0  0  0  0  0
   -0.1042    2.6917    0.0000 C   0  0  0  0  0  0  0  0  0  0  0  0
   -0.1042    1.8667    0.0000 C   0  0  0  0  0  0  0  0  0  0  0  0
    0.7208   -3.0833    0.0000 C   0  0  0  0  0  0  0  0  0  0  0  0
    1.3250    2.6917    0.0000 C   0  0  0  0  0  0  0  0  0  0  0  0
    1.3250    1.8667    0.0000 C   0  0  0  0  0  0  0  0  0  0  0  0
    0.6083    3.1042    0.0000 C   0  0  0  0  0  0  0  0  0  0  0  0
  2  7  1  0  0  0  0
  3  2  1  0  0  0  0
  4 16  1  0  0  0  0
  5  1  1  0  0  0  0
  6  4  3  0  0  0  0
  7 14  2  0  0  0  0
  7 15  1  0  0  0  0
  8  1  2  0  0  0  0
  9  1  2  0  0  0  0
 10  2  2  0  0  0  0
 11  3  1  0  0  0  0
 12  5  1  0  0  0  0
 13  5  2  0  0  0  0
 14 13  1  0  0  0  0
 15 12  2  0  0  0  0
 16 17  1  0  0  0  0
 17 11  2  0  0  0  0
 18  1  1  0  0  0  0
 19 20  2  0  0  0  0
 20 11  1  0  0  0  0
 21 16  2  0  0  0  0
 21 19  1  0  0  0  0
M  END
> <CdId>
3426

> <Mol Weight>
299.344

> <Formula>
C16H13NO3S

> <Click_ID>
CLK045B04 __ __ 

$$$$
