CLK051F02
 OpenBabel03181410512D

 25 28  0  0  0  0  0  0  0  0999 V2000
    0.0917   -1.0083    0.0000 N    0  0  0  0  0  0  0  0  0  0  0  0
    0.0917   -0.1833    0.0000 C    0  0  3  0  0  0  0  0  0  0  0  0
   -0.6250   -1.4208    0.0000 C    0  0  0  0  0  0  0  0  0  0  0  0
   -0.6250    0.2292    0.0000 N    0  0  0  0  0  0  0  0  0  0  0  0
    0.8042    0.2292    0.0000 C    0  0  0  0  0  0  0  0  0  0  0  0
   -1.3375   -1.0083    0.0000 C    0  0  0  0  0  0  0  0  0  0  0  0
    0.8042   -1.4208    0.0000 C    0  0  0  0  0  0  0  0  0  0  0  0
   -1.3375   -0.1833    0.0000 C    0  0  0  0  0  0  0  0  0  0  0  0
    1.2167   -2.1375    0.0000 C    0  0  0  0  0  0  0  0  0  0  0  0
    1.6292   -1.4208    0.0000 C    0  0  0  0  0  0  0  0  0  0  0  0
   -0.6250    2.7042    0.0000 C    0  0  0  0  0  0  0  0  0  0  0  0
    0.8042    1.0542    0.0000 C    0  0  0  0  0  0  0  0  0  0  0  0
   -1.3375    3.1167    0.0000 C    0  0  0  0  0  0  0  0  0  0  0  0
   -0.6250   -2.2458    0.0000 O    0  0  0  0  0  0  0  0  0  0  0  0
    1.5208   -0.1833    0.0000 C    0  0  0  0  0  0  0  0  0  0  0  0
    1.5208    1.4667    0.0000 C    0  0  0  0  0  0  0  0  0  0  0  0
    2.2333    0.2292    0.0000 C    0  0  0  0  0  0  0  0  0  0  0  0
   -2.0500   -1.4208    0.0000 C    0  0  0  0  0  0  0  0  0  0  0  0
    2.2333    1.0542    0.0000 C    0  0  0  0  0  0  0  0  0  0  0  0
    2.9500   -0.1833    0.0000 Br   0  0  0  0  0  0  0  0  0  0  0  0
    0.0917    1.4667    0.0000 O    0  0  0  0  0  0  0  0  0  0  0  0
    0.0917    2.2917    0.0000 C    0  0  0  0  0  0  0  0  0  0  0  0
   -2.0500    0.2292    0.0000 C    0  0  0  0  0  0  0  0  0  0  0  0
   -2.7667   -1.0083    0.0000 C    0  0  0  0  0  0  0  0  0  0  0  0
   -2.7667   -0.1833    0.0000 C    0  0  0  0  0  0  0  0  0  0  0  0
  2  1  1  0  0  0  0
  3  1  1  0  0  0  0
  4  2  1  0  0  0  0
  5  2  1  0  0  0  0
  6  3  1  0  0  0  0
  6  8  2  0  0  0  0
  7  1  1  0  0  0  0
  8  4  1  0  0  0  0
  9  7  1  0  0  0  0
 10  7  1  0  0  0  0
 10  9  1  0  0  0  0
 11 22  1  0  0  0  0
 12  5  2  0  0  0  0
 13 11  3  0  0  0  0
 14  3  2  0  0  0  0
 15  5  1  0  0  0  0
 16 12  1  0  0  0  0
 16 19  2  0  0  0  0
 17 15  2  0  0  0  0
 18  6  1  0  0  0  0
 19 17  1  0  0  0  0
 20 17  1  0  0  0  0
 21 12  1  0  0  0  0
 22 21  1  0  0  0  0
 23  8  1  0  0  0  0
 24 18  2  0  0  0  0
 24 25  1  0  0  0  0
 25 23  2  0  0  0  0
M  END
> <CdId>
3894

> <Mol Weight>
397.265

> <Formula>
C20H17BrN2O2

> <Click_ID>
CLK051F02 __ __ 

$$$$
