CLK004_G10
 OpenBabel03181410512D

 25 27  0  0  0  0  0  0  0  0999 V2000
    0.8284    0.2831    0.0000 C    0  0  3  0  0  0  0  0  0  0  0  0
    1.2426   -0.4314    0.0000 C    0  0  0  0  0  0  0  0  0  0  0  0
    0.0034    0.2831    0.0000 C    0  0  0  0  0  0  0  0  0  0  0  0
    1.2460    0.9872    0.0000 C    0  0  0  0  0  0  0  0  0  0  0  0
    2.0675   -0.4383    0.0000 C    0  0  0  0  0  0  0  0  0  0  0  0
    0.8284   -1.1459    0.0000 C    0  0  0  0  0  0  0  0  0  0  0  0
   -0.4107   -0.4176    0.0000 C    0  0  0  0  0  0  0  0  0  0  0  0
   -0.4038    1.0079    0.0000 C    0  0  0  0  0  0  0  0  0  0  0  0
    2.0675    0.9838    0.0000 C    0  0  0  0  0  0  0  0  0  0  0  0
    0.8318    1.7086    0.0000 C    0  0  0  0  0  0  0  0  0  0  0  0
    2.4714    0.2693    0.0000 O    0  0  0  0  0  0  0  0  0  0  0  0
    2.4714   -1.1459    0.0000 C    0  0  0  0  0  0  0  0  0  0  0  0
    1.2322   -1.8570    0.0000 C    0  0  0  0  0  0  0  0  0  0  0  0
    0.0034   -1.1459    0.0000 O    0  0  0  0  0  0  0  0  0  0  0  0
   -1.2426   -0.4176    0.0000 C    0  0  0  0  0  0  0  0  0  0  0  0
   -1.2357    1.0113    0.0000 C    0  0  0  0  0  0  0  0  0  0  0  0
    2.4852    1.6947    0.0000 N    0  0  0  0  0  0  0  0  0  0  0  0
    0.4314    2.4195    0.0000 N    0  0  0  0  0  0  0  0  0  0  0  0
    2.0675   -1.8570    0.0000 C    0  0  0  0  0  0  0  0  0  0  0  0
   -1.6602    0.2934    0.0000 C    0  0  0  0  0  0  0  0  0  0  0  0
   -1.6706   -1.1321    0.0000 Cl   0  0  0  0  0  0  0  0  0  0  0  0
   -2.4852    0.2934    0.0000 O    0  0  0  0  0  0  0  0  0  0  0  0
   -2.8994   -0.4176    0.0000 C    0  0  0  0  0  0  0  0  0  0  0  0
   -3.7243   -0.4142    0.0000 C    0  0  0  0  0  0  0  0  0  0  0  0
   -4.5527   -0.4073    0.0000 C    0  0  0  0  0  0  0  0  0  0  0  0
  1  2  1  0  0  0  0
  1  3  1  0  0  0  0
  1  4  1  0  0  0  0
  2  5  2  0  0  0  0
  2  6  1  0  0  0  0
  3  7  1  0  0  0  0
  3  8  2  0  0  0  0
  4  9  2  0  0  0  0
  4 10  1  0  0  0  0
  5 11  1  0  0  0  0
  5 12  1  0  0  0  0
  6 13  1  0  0  0  0
  6 14  2  0  0  0  0
  7 15  2  0  0  0  0
  8 16  1  0  0  0  0
  9 17  1  0  0  0  0
  9 11  1  0  0  0  0
 10 18  3  0  0  0  0
 12 19  1  0  0  0  0
 13 19  1  0  0  0  0
 15 20  1  0  0  0  0
 15 21  1  0  0  0  0
 16 20  2  0  0  0  0
 20 22  1  0  0  0  0
 22 23  1  0  0  0  0
 23 24  1  0  0  0  0
 24 25  3  0  0  0  0
M  END
> <CdId>
309

> <Mol Weight>
354.787

> <Formula>
C19H15ClN2O3

> <Click_ID>
CLK004_G10 __ __ 

$$$$
