CLK033_B08
 OpenBabel03181410512D

 32 35  0  0  0  0  0  0  0  0999 V2000
   -4.5756    2.5457    0.0000 C   0  0  0  0  0  0  0  0  0  0  0  0
   -0.9983    5.4408    0.0000 S   0  0  0  0  0  0  0  0  0  0  0  0
   -3.8643    2.9658    0.0000 N   0  0  0  0  0  0  0  0  0  0  0  0
   -4.6671    1.7304    0.0000 N   0  0  0  0  0  0  0  0  0  0  0  0
   -5.3118    2.8909    0.0000 S   0  0  0  0  0  0  0  0  0  0  0  0
   -5.4740    1.5681    0.0000 C   0  0  0  0  0  0  0  0  0  0  0  0
   -5.8734    2.2919    0.0000 C   0  0  0  0  0  0  0  0  0  0  0  0
   -0.2828    5.8443    0.0000 N   0  0  0  0  0  0  0  0  0  0  0  0
   -3.8643    3.7936    0.0000 C   0  0  0  0  0  0  0  0  0  0  0  0
   -6.6929    2.3044    0.0000 C   0  0  0  0  0  0  0  0  0  0  0  0
   -1.7179    5.0207    0.0000 C   0  0  0  0  0  0  0  0  0  0  0  0
   -4.2386    0.3494    0.0000 C   0  0  0  0  0  0  0  0  0  0  0  0
   -1.4101    6.1563    0.0000 O   0  0  0  0  0  0  0  0  0  0  0  0
   -0.5865    4.7212    0.0000 O   0  0  0  0  0  0  0  0  0  0  0  0
   -4.4133   -0.4534    0.0000 C   0  0  0  0  0  0  0  0  0  0  0  0
   -5.8983    0.8693    0.0000 C   0  0  0  0  0  0  0  0  0  0  0  0
   -3.1530    4.2054    0.0000 C   0  0  0  0  0  0  0  0  0  0  0  0
   -7.1172    1.5973    0.0000 C   0  0  0  0  0  0  0  0  0  0  0  0
   -4.5880    4.2054    0.0000 O   0  0  0  0  0  0  0  0  0  0  0  0
   -6.7054    0.8818    0.0000 C   0  0  0  0  0  0  0  0  0  0  0  0
   -4.0514    1.1605    0.0000 C   0  0  0  0  0  0  0  0  0  0  0  0
   -2.4334    5.4408    0.0000 C   0  0  0  0  0  0  0  0  0  0  0  0
   -1.7221    4.1971    0.0000 C   0  0  0  0  0  0  0  0  0  0  0  0
   -3.1530    5.0207    0.0000 C   0  0  0  0  0  0  0  0  0  0  0  0
   -2.4334    3.8019    0.0000 C   0  0  0  0  0  0  0  0  0  0  0  0
    1.1523    6.6804    0.0000 O   0  0  0  0  0  0  0  0  0  0  0  0
    0.4285    5.4450    0.0000 C   0  0  0  0  0  0  0  0  0  0  0  0
   -0.2828    6.6804    0.0000 C   0  0  0  0  0  0  0  0  0  0  0  0
   -7.0922    3.0282    0.0000 C   0  0  0  0  0  0  0  0  0  0  0  0
    1.1481    5.8568    0.0000 C   0  0  0  0  0  0  0  0  0  0  0  0
    0.4368    7.0922    0.0000 C   0  0  0  0  0  0  0  0  0  0  0  0
   -7.1047    0.1580    0.0000 C   0  0  0  0  0  0  0  0  0  0  0  0
  2 11  1  0  0  0  0
  3  1  2  0  0  0  0
  4  1  1  0  0  0  0
  5  1  1  0  0  0  0
  6  4  1  0  0  0  0
  7  5  1  0  0  0  0
  7  6  2  0  0  0  0
  8  2  1  0  0  0  0
  9  3  1  0  0  0  0
 10  7  1  0  0  0  0
 11 23  2  0  0  0  0
 11 22  1  0  0  0  0
 12 21  1  0  0  0  0
 13  2  2  0  0  0  0
 14  2  2  0  0  0  0
 15 12  3  0  0  0  0
 16  6  1  0  0  0  0
 17  9  1  0  0  0  0
 18 10  2  0  0  0  0
 19  9  2  0  0  0  0
 20 16  2  0  0  0  0
 20 18  1  0  0  0  0
 21  4  1  0  0  0  0
 22 24  2  0  0  0  0
 23 25  1  0  0  0  0
 24 17  1  0  0  0  0
 25 17  2  0  0  0  0
 26 31  1  0  0  0  0
 26 30  1  0  0  0  0
 27  8  1  0  0  0  0
 28  8  1  0  0  0  0
 29 10  1  0  0  0  0
 30 27  1  0  0  0  0
 31 28  1  0  0  0  0
 32 20  1  0  0  0  0
M  END
> <CdId>
2502

> <Mol Weight>
469.576

> <Formula>
C23H23N3O4S2

> <Click_ID>
CLK033_B08 __ __ 

$$$$
