CLK028_G04
 OpenBabel03181410512D

 30 32  0  0  0  0  0  0  0  0999 V2000
    2.1484   -0.0103    0.0000 N   0  0  0  0  0  0  0  0  0  0  0  0
    2.8611    0.4028    0.0000 C   0  0  0  0  0  0  0  0  0  0  0  0
    1.4357    0.4028    0.0000 C   0  0  0  0  0  0  0  0  0  0  0  0
    1.4357    1.2360    0.0000 C   0  0  0  0  0  0  0  0  0  0  0  0
    2.8611    1.2360    0.0000 N   0  0  0  0  0  0  0  0  0  0  0  0
    2.1484    1.6458    0.0000 C   0  0  0  0  0  0  0  0  0  0  0  0
    2.1484   -0.8263    0.0000 C   0  0  0  0  0  0  0  0  0  0  0  0
    0.7127    1.6458    0.0000 C   0  0  0  0  0  0  0  0  0  0  0  0
    3.5876   -0.0138    0.0000 S   0  0  0  0  0  0  0  0  0  0  0  0
   -2.8749   -1.2395    0.0000 C   0  0  0  0  0  0  0  0  0  0  0  0
    0.7127   -0.0138    0.0000 O   0  0  0  0  0  0  0  0  0  0  0  0
   -3.5910   -1.6492    0.0000 C   0  0  0  0  0  0  0  0  0  0  0  0
   -1.4357    1.2360    0.0000 C   0  0  0  0  0  0  0  0  0  0  0  0
    2.1484    2.4755    0.0000 O   0  0  0  0  0  0  0  0  0  0  0  0
    0.0000    1.2257    0.0000 C   0  0  0  0  0  0  0  0  0  0  0  0
    2.8473   -1.2395    0.0000 C   0  0  0  0  0  0  0  0  0  0  0  0
   -0.7230    1.6458    0.0000 C   0  0  0  0  0  0  0  0  0  0  0  0
   -1.4392    0.4097    0.0000 C   0  0  0  0  0  0  0  0  0  0  0  0
   -0.7230   -0.0103    0.0000 C   0  0  0  0  0  0  0  0  0  0  0  0
   -0.0035    0.4097    0.0000 C   0  0  0  0  0  0  0  0  0  0  0  0
    3.5704   -0.8263    0.0000 F   0  0  0  0  0  0  0  0  0  0  0  0
   -2.1519    1.6492    0.0000 O   0  0  0  0  0  0  0  0  0  0  0  0
   -2.1519   -0.0035    0.0000 O   0  0  0  0  0  0  0  0  0  0  0  0
   -2.1622   -0.8263    0.0000 C   0  0  0  0  0  0  0  0  0  0  0  0
    1.4254   -1.2395    0.0000 C   0  0  0  0  0  0  0  0  0  0  0  0
    2.8473   -2.0623    0.0000 C   0  0  0  0  0  0  0  0  0  0  0  0
   -2.8749    1.2395    0.0000 C   0  0  0  0  0  0  0  0  0  0  0  0
    1.4254   -2.0520    0.0000 C   0  0  0  0  0  0  0  0  0  0  0  0
   -3.5842    1.6595    0.0000 C   0  0  0  0  0  0  0  0  0  0  0  0
    2.1381   -2.4721    0.0000 C   0  0  0  0  0  0  0  0  0  0  0  0
  2  1  1  0  0  0  0
  3  1  1  0  0  0  0
  4  3  1  0  0  0  0
  5  2  1  0  0  0  0
  6  4  1  0  0  0  0
  6  5  1  0  0  0  0
  7  1  1  0  0  0  0
  8  4  2  0  0  0  0
  9  2  2  0  0  0  0
 10 24  1  0  0  0  0
 11  3  2  0  0  0  0
 12 10  3  0  0  0  0
 13 17  1  0  0  0  0
 14  6  2  0  0  0  0
 15  8  1  0  0  0  0
 16  7  1  0  0  0  0
 17 15  2  0  0  0  0
 18 19  1  0  0  0  0
 18 13  2  0  0  0  0
 19 20  2  0  0  0  0
 20 15  1  0  0  0  0
 21 16  1  0  0  0  0
 22 13  1  0  0  0  0
 23 18  1  0  0  0  0
 24 23  1  0  0  0  0
 25  7  2  0  0  0  0
 26 16  2  0  0  0  0
 26 30  1  0  0  0  0
 27 22  1  0  0  0  0
 28 25  1  0  0  0  0
 29 27  1  0  0  0  0
 30 28  2  0  0  0  0
M  END
> <CdId>
2148

> <Mol Weight>
424.445

> <Formula>
C22H17FN2O4S

> <Click_ID>
CLK028_G04 __ __ 

$$$$
