CLK045F11
 OpenBabel03181410512D

 29 31  0  0  0  0  0  0  0  0999 V2000
    1.6958   -0.5875    0.0000 C   0  0  0  0  0  0  0  0  0  0  0  0
    1.6958    0.2375    0.0000 C   0  0  0  0  0  0  0  0  0  0  0  0
    0.2667   -0.5875    0.0000 N   0  0  0  0  0  0  0  0  0  0  0  0
    0.2667    0.2375    0.0000 C   0  0  0  0  0  0  0  0  0  0  0  0
    0.9833    0.6500    0.0000 N   0  0  0  0  0  0  0  0  0  0  0  0
    0.9833   -1.0000    0.0000 C   0  0  0  0  0  0  0  0  0  0  0  0
    2.4833    0.4917    0.0000 S   0  0  0  0  0  0  0  0  0  0  0  0
    2.4833   -0.8417    0.0000 C   0  0  0  0  0  0  0  0  0  0  0  0
    2.9667   -0.1750    0.0000 C   0  0  0  0  0  0  0  0  0  0  0  0
   -0.4458    0.6500    0.0000 S   0  0  0  0  0  0  0  0  0  0  0  0
   -0.4458   -1.0000    0.0000 C   0  0  0  0  0  0  0  0  0  0  0  0
   -1.8750    3.9500    0.0000 C   0  0  0  0  0  0  0  0  0  0  0  0
   -1.8750    4.7708    0.0000 C   0  0  0  0  0  0  0  0  0  0  0  0
    0.9833   -1.8250    0.0000 O   0  0  0  0  0  0  0  0  0  0  0  0
   -1.1625    1.8875    0.0000 C   0  0  0  0  0  0  0  0  0  0  0  0
   -1.8750    1.4750    0.0000 O   0  0  0  0  0  0  0  0  0  0  0  0
   -0.4458    1.4750    0.0000 C   0  0  0  0  0  0  0  0  0  0  0  0
   -0.4458   -1.8250    0.0000 C   0  0  0  0  0  0  0  0  0  0  0  0
   -1.1625   -0.5875    0.0000 C   0  0  0  0  0  0  0  0  0  0  0  0
   -1.1625    2.7125    0.0000 N   0  0  0  0  0  0  0  0  0  0  0  0
   -1.8750   -1.8250    0.0000 C   0  0  0  0  0  0  0  0  0  0  0  0
    2.7375   -1.6292    0.0000 C   0  0  0  0  0  0  0  0  0  0  0  0
   -1.8750   -1.0000    0.0000 C   0  0  0  0  0  0  0  0  0  0  0  0
   -1.1625   -2.2375    0.0000 C   0  0  0  0  0  0  0  0  0  0  0  0
    3.7917   -0.1750    0.0000 C   0  0  0  0  0  0  0  0  0  0  0  0
   -1.8750    3.1250    0.0000 C   0  0  0  0  0  0  0  0  0  0  0  0
   -2.5917   -2.2375    0.0000 O   0  0  0  0  0  0  0  0  0  0  0  0
   -3.3042   -1.8250    0.0000 C   0  0  0  0  0  0  0  0  0  0  0  0
    2.1833   -2.2417    0.0000 C   0  0  0  0  0  0  0  0  0  0  0  0
  2  1  2  0  0  0  0
  3  6  1  0  0  0  0
  3  4  1  0  0  0  0
  4  5  2  0  0  0  0
  5  2  1  0  0  0  0
  6  1  1  0  0  0  0
  7  2  1  0  0  0  0
  7  9  1  0  0  0  0
  8  1  1  0  0  0  0
  9  8  2  0  0  0  0
 10  4  1  0  0  0  0
 11  3  1  0  0  0  0
 12 26  1  0  0  0  0
 13 12  3  0  0  0  0
 14  6  2  0  0  0  0
 15 17  1  0  0  0  0
 16 15  2  0  0  0  0
 17 10  1  0  0  0  0
 18 11  2  0  0  0  0
 19 11  1  0  0  0  0
 20 15  1  0  0  0  0
 21 24  2  0  0  0  0
 21 23  1  0  0  0  0
 22  8  1  0  0  0  0
 23 19  2  0  0  0  0
 24 18  1  0  0  0  0
 25  9  1  0  0  0  0
 26 20  1  0  0  0  0
 27 21  1  0  0  0  0
 28 27  1  0  0  0  0
 29 22  1  0  0  0  0
M  END
> <CdId>
3486

> <Mol Weight>
427.54

> <Formula>
C21H21N3O3S2

> <Click_ID>
CLK045F11 __ __ 

$$$$
