CLK043F06
 OpenBabel03181410512D

 26 28  0  0  0  0  0  0  0  0999 V2000
   -0.2208   -0.6333    0.0000 N    0  0  0  0  0  0  0  0  0  0  0  0
    0.4917   -0.2208    0.0000 C    0  0  0  0  0  0  0  0  0  0  0  0
   -0.2208   -1.4583    0.0000 N    0  0  0  0  0  0  0  0  0  0  0  0
    0.4917    0.6042    0.0000 C    0  0  0  0  0  0  0  0  0  0  0  0
    0.4917   -1.8708    0.0000 C    0  0  0  0  0  0  0  0  0  0  0  0
    1.2083   -0.6333    0.0000 C    0  0  0  0  0  0  0  0  0  0  0  0
    1.2083   -1.4583    0.0000 C    0  0  0  0  0  0  0  0  0  0  0  0
    1.2083    1.0167    0.0000 N    0  0  0  0  0  0  0  0  0  0  0  0
   -0.2208    3.4917    0.0000 C    0  0  0  0  0  0  0  0  0  0  0  0
   -0.9375   -1.8708    0.0000 C    0  0  0  0  0  0  0  0  0  0  0  0
   -0.9375    3.9042    0.0000 C    0  0  0  0  0  0  0  0  0  0  0  0
   -0.2208    1.0167    0.0000 O    0  0  0  0  0  0  0  0  0  0  0  0
    1.9208   -0.2208    0.0000 O    0  0  0  0  0  0  0  0  0  0  0  0
    1.2083    1.8417    0.0000 C    0  0  0  0  0  0  0  0  0  0  0  0
   -1.6500   -1.4583    0.0000 C    0  0  0  0  0  0  0  0  0  0  0  0
   -0.9375   -2.6958    0.0000 C    0  0  0  0  0  0  0  0  0  0  0  0
    0.4917    3.0792    0.0000 C    0  0  0  0  0  0  0  0  0  0  0  0
    0.4917    2.2542    0.0000 C    0  0  0  0  0  0  0  0  0  0  0  0
   -2.3667   -2.6958    0.0000 C    0  0  0  0  0  0  0  0  0  0  0  0
   -1.6500   -3.1083    0.0000 C    0  0  0  0  0  0  0  0  0  0  0  0
   -2.3667   -1.8708    0.0000 C    0  0  0  0  0  0  0  0  0  0  0  0
    0.4917   -2.6958    0.0000 C    0  0  0  0  0  0  0  0  0  0  0  0
   -3.0792   -3.1083    0.0000 Cl   0  0  0  0  0  0  0  0  0  0  0  0
    1.9208    3.0792    0.0000 C    0  0  0  0  0  0  0  0  0  0  0  0
    1.9208    2.2542    0.0000 C    0  0  0  0  0  0  0  0  0  0  0  0
    1.2083    3.4917    0.0000 C    0  0  0  0  0  0  0  0  0  0  0  0
  2  1  2  0  0  0  0
  3  1  1  0  0  0  0
  4  2  1  0  0  0  0
  5  3  1  0  0  0  0
  6  2  1  0  0  0  0
  6  7  1  0  0  0  0
  7  5  2  0  0  0  0
  8  4  1  0  0  0  0
  9 17  1  0  0  0  0
 10  3  1  0  0  0  0
 11  9  3  0  0  0  0
 12  4  2  0  0  0  0
 13  6  2  0  0  0  0
 14  8  1  0  0  0  0
 15 10  1  0  0  0  0
 16 10  2  0  0  0  0
 17 18  1  0  0  0  0
 18 14  2  0  0  0  0
 19 20  2  0  0  0  0
 19 21  1  0  0  0  0
 20 16  1  0  0  0  0
 21 15  2  0  0  0  0
 22  5  1  0  0  0  0
 23 19  1  0  0  0  0
 24 25  2  0  0  0  0
 25 14  1  0  0  0  0
 26 17  2  0  0  0  0
 26 24  1  0  0  0  0
M  END
> <CdId>
3286

> <Mol Weight>
363.797

> <Formula>
C20H14ClN3O2

> <Click_ID>
CLK043F06 __ __ 

$$$$
