CLK051A11
 OpenBabel03181410512D

 19 20  0  0  0  0  0  0  0  0999 V2000
   -0.4542   -1.9625    0.0000 C   0  0  0  0  0  0  0  0  0  0  0  0
    0.9750   -3.6125    0.0000 C   0  0  0  0  0  0  0  0  0  0  0  0
    1.6917   -4.0250    0.0000 C   0  0  0  0  0  0  0  0  0  0  0  0
   -0.4542   -1.1375    0.0000 C   0  0  0  0  0  0  0  0  0  0  0  0
   -1.1667   -2.3750    0.0000 O   0  0  0  0  0  0  0  0  0  0  0  0
   -0.4083    3.0583    0.0000 O   0  0  0  0  0  0  0  0  0  0  0  0
    0.2625   -2.3750    0.0000 N   0  0  0  0  0  0  0  0  0  0  0  0
    0.2625   -0.7250    0.0000 C   0  0  0  0  0  0  0  0  0  0  0  0
   -1.1667   -0.7250    0.0000 C   0  0  0  0  0  0  0  0  0  0  0  0
   -0.4542    1.3375    0.0000 O   0  0  0  0  0  0  0  0  0  0  0  0
   -0.4542    0.5125    0.0000 C   0  0  0  0  0  0  0  0  0  0  0  0
   -1.1667    0.1000    0.0000 C   0  0  0  0  0  0  0  0  0  0  0  0
    0.2625    0.1000    0.0000 C   0  0  0  0  0  0  0  0  0  0  0  0
    0.2625    2.5750    0.0000 C   0  0  3  0  0  0  0  0  0  0  0  0
    0.2625    1.7500    0.0000 C   0  0  0  0  0  0  0  0  0  0  0  0
    0.2625   -3.2000    0.0000 C   0  0  0  0  0  0  0  0  0  0  0  0
   -0.1500    3.8458    0.0000 C   0  0  0  0  0  0  0  0  0  0  0  0
    0.9292    3.0583    0.0000 C   0  0  0  0  0  0  0  0  0  0  0  0
    0.6750    3.8458    0.0000 C   0  0  0  0  0  0  0  0  0  0  0  0
  2 16  1  0  0  0  0
  3  2  3  0  0  0  0
  4  1  1  0  0  0  0
  5  1  2  0  0  0  0
  6 14  1  0  0  0  0
  7  1  1  0  0  0  0
  8  4  1  0  0  0  0
  9  4  2  0  0  0  0
 10 11  1  0  0  0  0
 11 12  2  0  0  0  0
 11 13  1  0  0  0  0
 12  9  1  0  0  0  0
 13  8  2  0  0  0  0
 14 15  1  0  0  0  0
 15 10  1  0  0  0  0
 16  7  1  0  0  0  0
 17  6  1  0  0  0  0
 17 19  1  0  0  0  0
 18 14  1  0  0  0  0
 19 18  1  0  0  0  0
M  END
> <CdId>
3961

> <Mol Weight>
259.3004

> <Formula>
C15H17NO3

> <Click_ID>
CLK051A11 __ __ 

$$$$
