CLK040A02
 OpenBabel03181410512D

 24 25  0  0  0  0  0  0  0  0999 V2000
    1.1042   -0.3833    0.0000 C   0  0  0  0  0  0  0  0  0  0  0  0
   -0.1667   -0.7958    0.0000 C   0  0  0  0  0  0  0  0  0  0  0  0
    0.3167   -0.1292    0.0000 S   0  0  0  0  0  0  0  0  0  0  0  0
    0.3167   -1.4667    0.0000 C   0  0  0  0  0  0  0  0  0  0  0  0
    1.7708    0.1000    0.0000 N   0  0  0  0  0  0  0  0  0  0  0  0
    2.5250   -0.2375    0.0000 C   0  0  0  0  0  0  0  0  0  0  0  0
    1.1042   -1.2083    0.0000 C   0  0  0  0  0  0  0  0  0  0  0  0
   -0.9917   -0.7958    0.0000 C   0  0  0  0  0  0  0  0  0  0  0  0
    3.1917    0.2500    0.0000 C   0  0  0  0  0  0  0  0  0  0  0  0
   -4.7042    1.3458    0.0000 C   0  0  0  0  0  0  0  0  0  0  0  0
   -5.5292    1.3458    0.0000 C   0  0  0  0  0  0  0  0  0  0  0  0
    3.1917    1.0750    0.0000 O   0  0  0  0  0  0  0  0  0  0  0  0
   -2.6417    0.6333    0.0000 C   0  0  0  0  0  0  0  0  0  0  0  0
   -1.4042   -0.0833    0.0000 O   0  0  0  0  0  0  0  0  0  0  0  0
    2.6083   -1.0542    0.0000 O   0  0  0  0  0  0  0  0  0  0  0  0
    3.9750   -0.0042    0.0000 C   0  0  0  0  0  0  0  0  0  0  0  0
   -1.4042   -1.5125    0.0000 O   0  0  0  0  0  0  0  0  0  0  0  0
    3.9750    1.3292    0.0000 C   0  0  0  0  0  0  0  0  0  0  0  0
    4.4625    0.6625    0.0000 C   0  0  0  0  0  0  0  0  0  0  0  0
   -2.2292    1.3458    0.0000 O   0  0  0  0  0  0  0  0  0  0  0  0
   -2.2292   -0.0833    0.0000 C   0  0  0  0  0  0  0  0  0  0  0  0
   -3.4667    0.6333    0.0000 N   0  0  0  0  0  0  0  0  0  0  0  0
    0.0625   -2.2500    0.0000 C   0  0  0  0  0  0  0  0  0  0  0  0
   -3.8792    1.3458    0.0000 C   0  0  0  0  0  0  0  0  0  0  0  0
  2  3  1  0  0  0  0
  2  4  2  0  0  0  0
  3  1  1  0  0  0  0
  4  7  1  0  0  0  0
  5  1  1  0  0  0  0
  6  5  1  0  0  0  0
  7  1  2  0  0  0  0
  8  2  1  0  0  0  0
  9  6  1  0  0  0  0
 10 24  1  0  0  0  0
 11 10  3  0  0  0  0
 12  9  1  0  0  0  0
 13 21  1  0  0  0  0
 14  8  1  0  0  0  0
 15  6  2  0  0  0  0
 16  9  2  0  0  0  0
 17  8  2  0  0  0  0
 18 12  1  0  0  0  0
 18 19  2  0  0  0  0
 19 16  1  0  0  0  0
 20 13  2  0  0  0  0
 21 14  1  0  0  0  0
 22 13  1  0  0  0  0
 23  4  1  0  0  0  0
 24 22  1  0  0  0  0
M  END
> <CdId>
3009

> <Mol Weight>
346.358

> <Formula>
C16H14N2O5S

> <Click_ID>
CLK040A02 __ __ 

$$$$
