CLK014_C04
 OpenBabel03181410512D

 29 31  0  0  0  0  0  0  0  0999 V2000
    1.5830   -0.8252    0.0000 N    0  0  0  0  0  0  0  0  0  0  0  0
    1.8440   -1.6209    0.0000 C    0  0  0  0  0  0  0  0  0  0  0  0
    2.2608   -0.3326    0.0000 C    0  0  0  0  0  0  0  0  0  0  0  0
    2.9344   -0.8252    0.0000 C    0  0  0  0  0  0  0  0  0  0  0  0
    2.6776   -1.6209    0.0000 S    0  0  0  0  0  0  0  0  0  0  0  0
    3.7301   -0.5684    0.0000 C    0  0  0  0  0  0  0  0  0  0  0  0
    5.9909    6.0624    0.0000 C    0  0  0  0  0  0  0  0  0  0  0  0
    0.6189    0.2484    0.0000 C    0  0  0  0  0  0  0  0  0  0  0  0
    0.3958    1.0567    0.0000 C    0  0  0  0  0  0  0  0  0  0  0  0
    4.8542    1.2756    0.0000 C    0  0  0  0  0  0  0  0  0  0  0  0
    1.3514   -2.2903    0.0000 O    0  0  0  0  0  0  0  0  0  0  0  0
    2.2524    0.5010    0.0000 O    0  0  0  0  0  0  0  0  0  0  0  0
    4.2732    1.8397    0.0000 C    0  0  0  0  0  0  0  0  0  0  0  0
    5.8015    5.2667    0.0000 C    0  0  0  0  0  0  0  0  0  0  0  0
    3.9027    0.2273    0.0000 C    0  0  0  0  0  0  0  0  0  0  0  0
    0.7957   -0.5684    0.0000 C    0  0  0  0  0  0  0  0  0  0  0  0
    4.6774    0.4757    0.0000 C    0  0  0  0  0  0  0  0  0  0  0  0
    4.4627    2.6354    0.0000 O    0  0  0  0  0  0  0  0  0  0  0  0
    5.3973    6.6350    0.0000 O    0  0  0  0  0  0  0  0  0  0  0  0
    3.4775    1.5914    0.0000 C    0  0  0  0  0  0  0  0  0  0  0  0
    5.0184    5.0310    0.0000 C    0  0  0  0  0  0  0  0  0  0  0  0
    6.4035    4.7026    0.0000 C    0  0  0  0  0  0  0  0  0  0  0  0
    5.6456    1.5114    0.0000 Br   0  0  0  0  0  0  0  0  0  0  0  0
    6.7824    6.3067    0.0000 O    0  0  0  0  0  0  0  0  0  0  0  0
    3.3007    0.7788    0.0000 C    0  0  0  0  0  0  0  0  0  0  0  0
    5.2331    2.8670    0.0000 C    0  0  0  0  0  0  0  0  0  0  0  0
    5.4226    3.6837    0.0000 C    0  0  0  0  0  0  0  0  0  0  0  0
    6.2140    3.9111    0.0000 C    0  0  0  0  0  0  0  0  0  0  0  0
    4.8247    4.2227    0.0000 C    0  0  0  0  0  0  0  0  0  0  0  0
  2  1  1  0  0  0  0
  3  1  1  0  0  0  0
  4  3  1  0  0  0  0
  4  5  1  0  0  0  0
  5  2  1  0  0  0  0
  6  4  2  0  0  0  0
  7 14  1  0  0  0  0
  8 16  1  0  0  0  0
  9  8  3  0  0  0  0
 10 17  2  0  0  0  0
 11  2  2  0  0  0  0
 12  3  2  0  0  0  0
 13 20  2  0  0  0  0
 13 10  1  0  0  0  0
 14 21  1  0  0  0  0
 14 22  2  0  0  0  0
 15  6  1  0  0  0  0
 16  1  1  0  0  0  0
 17 15  1  0  0  0  0
 18 13  1  0  0  0  0
 19  7  2  0  0  0  0
 20 25  1  0  0  0  0
 21 29  2  0  0  0  0
 22 28  1  0  0  0  0
 23 10  1  0  0  0  0
 24  7  1  0  0  0  0
 25 15  2  0  0  0  0
 26 18  1  0  0  0  0
 27 26  1  0  0  0  0
 28 27  2  0  0  0  0
 29 27  1  0  0  0  0
M  END
> <CdId>
1019

> <Mol Weight>
472.309

> <Formula>
C21H14BrNO5S

> <Click_ID>
CLK014_C04 __ __ 

$$$$
