CLK051E09
 OpenBabel03181410512D

 16 16  0  0  0  0  0  0  0  0999 V2000
    2.0837   -0.1375    0.0000 C   0  0  0  0  0  0  0  0  0  0  0  0
    1.3753    0.2793    0.0000 C   0  0  0  0  0  0  0  0  0  0  0  0
   -3.6340   -0.0875    0.0000 C   0  0  0  0  0  0  0  0  0  0  0  0
   -4.3508   -0.4959    0.0000 C   0  0  0  0  0  0  0  0  0  0  0  0
    3.3881   -0.4293    0.0000 S   0  0  0  0  0  0  0  0  0  0  0  0
   -1.4836    0.3043    0.0000 C   0  0  0  0  0  0  0  0  0  0  0  0
    2.8422    0.1917    0.0000 C   0  0  0  0  0  0  0  0  0  0  0  0
    2.1629   -0.9585    0.0000 C   0  0  0  0  0  0  0  0  0  0  0  0
    2.9673   -1.1377    0.0000 C   0  0  0  0  0  0  0  0  0  0  0  0
   -0.7751   -0.1125    0.0000 C   0  0  0  0  0  0  0  0  0  0  0  0
    1.3795    1.1044    0.0000 O   0  0  0  0  0  0  0  0  0  0  0  0
   -1.4795    1.1294    0.0000 O   0  0  0  0  0  0  0  0  0  0  0  0
    0.6543   -0.1250    0.0000 N   0  0  0  0  0  0  0  0  0  0  0  0
   -2.2046   -0.1000    0.0000 N   0  0  0  0  0  0  0  0  0  0  0  0
   -0.0542    0.2918    0.0000 C   0  0  0  0  0  0  0  0  0  0  0  0
   -2.9131    0.3168    0.0000 C   0  0  0  0  0  0  0  0  0  0  0  0
  2  1  1  0  0  0  0
  3 16  1  0  0  0  0
  4  3  3  0  0  0  0
  5  7  1  0  0  0  0
  5  9  1  0  0  0  0
  6 10  1  0  0  0  0
  7  1  2  0  0  0  0
  8  1  1  0  0  0  0
  9  8  2  0  0  0  0
 10 15  1  0  0  0  0
 11  2  2  0  0  0  0
 12  6  2  0  0  0  0
 13  2  1  0  0  0  0
 14  6  1  0  0  0  0
 15 13  1  0  0  0  0
 16 14  1  0  0  0  0
M  END
> <CdId>
3949

> <Mol Weight>
236.29

> <Formula>
C11H12N2O2S

> <Click_ID>
CLK051E09 __ __ 

$$$$
