CLK014_D08
 OpenBabel03181410512D

 26 28  0  0  0  0  0  0  0  0999 V2000
    1.5650   -0.8158    0.0000 N    0  0  0  0  0  0  0  0  0  0  0  0
    1.8230   -1.6024    0.0000 C    0  0  0  0  0  0  0  0  0  0  0  0
    2.9010   -0.8158    0.0000 C    0  0  0  0  0  0  0  0  0  0  0  0
    2.2350   -0.3288    0.0000 C    0  0  0  0  0  0  0  0  0  0  0  0
    2.6470   -1.6024    0.0000 S    0  0  0  0  0  0  0  0  0  0  0  0
    4.1870    2.9967    0.0000 N    0  0  0  0  0  0  0  0  0  0  0  0
    4.9695    2.7427    0.0000 C    0  0  0  0  0  0  0  0  0  0  0  0
    4.5242    1.3942    0.0000 C    0  0  0  0  0  0  0  0  0  0  0  0
    5.1360    1.9436    0.0000 C    0  0  0  0  0  0  0  0  0  0  0  0
    3.6876   -0.5619    0.0000 C    0  0  0  0  0  0  0  0  0  0  0  0
    4.6074    0.5702    0.0000 O    0  0  0  0  0  0  0  0  0  0  0  0
    3.8582    0.2372    0.0000 C    0  0  0  0  0  0  0  0  0  0  0  0
    3.7208    1.5690    0.0000 C    0  0  0  0  0  0  0  0  0  0  0  0
    5.5855    3.2921    0.0000 C    0  0  0  0  0  0  0  0  0  0  0  0
    0.6118    0.2455    0.0000 C    0  0  0  0  0  0  0  0  0  0  0  0
    3.3005    0.8491    0.0000 C    0  0  0  0  0  0  0  0  0  0  0  0
    5.9184    1.6856    0.0000 C    0  0  0  0  0  0  0  0  0  0  0  0
    0.3913    1.0446    0.0000 C    0  0  0  0  0  0  0  0  0  0  0  0
    4.0247    3.8041    0.0000 O    0  0  0  0  0  0  0  0  0  0  0  0
    1.3360   -2.2642    0.0000 O    0  0  0  0  0  0  0  0  0  0  0  0
    3.5752    2.4556    0.0000 O    0  0  0  0  0  0  0  0  0  0  0  0
    2.2267    0.4952    0.0000 O    0  0  0  0  0  0  0  0  0  0  0  0
    0.7866   -0.5619    0.0000 C    0  0  0  0  0  0  0  0  0  0  0  0
    6.3596    3.0299    0.0000 C    0  0  0  0  0  0  0  0  0  0  0  0
    6.5302    2.2225    0.0000 C    0  0  0  0  0  0  0  0  0  0  0  0
    6.9797    3.5793    0.0000 Cl   0  0  0  0  0  0  0  0  0  0  0  0
  2  1  1  0  0  0  0
  3  4  1  0  0  0  0
  3  5  1  0  0  0  0
  4  1  1  0  0  0  0
  5  2  1  0  0  0  0
  6  7  1  0  0  0  0
  7  9  1  0  0  0  0
  8 11  1  0  0  0  0
  8 13  2  0  0  0  0
  9  8  1  0  0  0  0
 10  3  2  0  0  0  0
 11 12  1  0  0  0  0
 12 10  1  0  0  0  0
 13 16  1  0  0  0  0
 14  7  2  0  0  0  0
 14 24  1  0  0  0  0
 15 23  1  0  0  0  0
 16 12  2  0  0  0  0
 17  9  2  0  0  0  0
 18 15  3  0  0  0  0
 19  6  1  0  0  0  0
 20  2  2  0  0  0  0
 21  6  2  0  0  0  0
 22  4  2  0  0  0  0
 23  1  1  0  0  0  0
 24 25  2  0  0  0  0
 25 17  1  0  0  0  0
 26 24  1  0  0  0  0
M  END
> <CdId>
1033

> <Mol Weight>
388.782

> <Formula>
C17H9ClN2O5S

> <Click_ID>
CLK014_D08 __ __ 

$$$$
