CLK012_A04
 OpenBabel03181410512D

 27 29  0  0  0  0  0  0  0  0999 V2000
    5.4472   -0.7490    0.0000 N   0  0  0  0  0  0  0  0  0  0  0  0
    5.3224   -1.5647    0.0000 C   0  0  0  0  0  0  0  0  0  0  0  0
    4.7107   -0.3662    0.0000 C   0  0  0  0  0  0  0  0  0  0  0  0
    4.1239   -0.9530    0.0000 C   0  0  0  0  0  0  0  0  0  0  0  0
    4.4985   -1.6895    0.0000 S   0  0  0  0  0  0  0  0  0  0  0  0
    3.3125   -0.8239    0.0000 C   0  0  0  0  0  0  0  0  0  0  0  0
    6.1838   -0.3787    0.0000 C   0  0  0  0  0  0  0  0  0  0  0  0
    5.8967   -2.1515    0.0000 S   0  0  0  0  0  0  0  0  0  0  0  0
    1.0112   -4.8064    0.0000 C   0  0  0  0  0  0  0  0  0  0  0  0
    0.4911   -5.4431    0.0000 C   0  0  0  0  0  0  0  0  0  0  0  0
    1.4523   -1.9767    0.0000 C   0  0  0  0  0  0  0  0  0  0  0  0
    4.5858    0.4452    0.0000 O   0  0  0  0  0  0  0  0  0  0  0  0
    2.7964   -1.4648    0.0000 C   0  0  0  0  0  0  0  0  0  0  0  0
    1.9767   -1.3358    0.0000 C   0  0  0  0  0  0  0  0  0  0  0  0
    1.7520   -2.7507    0.0000 C   0  0  0  0  0  0  0  0  0  0  0  0
    8.2936   -0.9030    0.0000 N   0  0  0  0  0  0  0  0  0  0  0  0
    6.8787   -0.8281    0.0000 C   0  0  0  0  0  0  0  0  0  0  0  0
    2.5634   -2.8755    0.0000 C   0  0  0  0  0  0  0  0  0  0  0  0
    3.0878   -2.2388    0.0000 C   0  0  0  0  0  0  0  0  0  0  0  0
    0.6409   -1.8476    0.0000 O   0  0  0  0  0  0  0  0  0  0  0  0
    1.2276   -3.3874    0.0000 O   0  0  0  0  0  0  0  0  0  0  0  0
    7.6070   -0.4536    0.0000 C   0  0  0  0  0  0  0  0  0  0  0  0
    1.5273   -4.1614    0.0000 C   0  0  0  0  0  0  0  0  0  0  0  0
    8.2520   -1.7270    0.0000 C   0  0  0  0  0  0  0  0  0  0  0  0
    6.8288   -1.6479    0.0000 C   0  0  0  0  0  0  0  0  0  0  0  0
    0.1166   -2.4885    0.0000 C   0  0  0  0  0  0  0  0  0  0  0  0
    7.5071   -2.1015    0.0000 C   0  0  0  0  0  0  0  0  0  0  0  0
  2  1  1  0  0  0  0
  3  1  1  0  0  0  0
  4  3  1  0  0  0  0
  5  2  1  0  0  0  0
  5  4  1  0  0  0  0
  6  4  2  0  0  0  0
  7  1  1  0  0  0  0
  8  2  2  0  0  0  0
  9 23  1  0  0  0  0
 10  9  3  0  0  0  0
 11 14  1  0  0  0  0
 11 15  2  0  0  0  0
 12  3  2  0  0  0  0
 13  6  1  0  0  0  0
 14 13  2  0  0  0  0
 15 18  1  0  0  0  0
 16 22  2  0  0  0  0
 17  7  1  0  0  0  0
 18 19  2  0  0  0  0
 19 13  1  0  0  0  0
 20 11  1  0  0  0  0
 21 15  1  0  0  0  0
 22 17  1  0  0  0  0
 23 21  1  0  0  0  0
 24 27  2  0  0  0  0
 24 16  1  0  0  0  0
 25 17  2  0  0  0  0
 26 20  1  0  0  0  0
 27 25  1  0  0  0  0
M  END
> <CdId>
839

> <Mol Weight>
396.483

> <Formula>
C20H16N2O3S2

> <Click_ID>
CLK012_A04 __ __ 

$$$$
