CLK002_F06
 OpenBabel03181410512D

 29 32  0  0  0  0  0  0  0  0999 V2000
    0.3035   -0.4360    0.0000 C   0  0  0  0  0  0  0  0  0  0  0  0
    0.3035    0.3890    0.0000 C   0  0  0  0  0  0  0  0  0  0  0  0
    1.0843   -0.6924    0.0000 C   0  0  0  0  0  0  0  0  0  0  0  0
   -0.4213   -0.8398    0.0000 C   0  0  0  0  0  0  0  0  0  0  0  0
    1.0843    0.6453    0.0000 C   0  0  0  0  0  0  0  0  0  0  0  0
   -0.4213    0.7985    0.0000 C   0  0  0  0  0  0  0  0  0  0  0  0
    1.5440   -0.0088    0.0000 N   0  0  0  0  0  0  0  0  0  0  0  0
    1.3407   -1.4791    0.0000 O   0  0  0  0  0  0  0  0  0  0  0  0
   -1.1373   -0.4360    0.0000 C   0  0  0  0  0  0  0  0  0  0  0  0
    1.3584    1.4261    0.0000 O   0  0  0  0  0  0  0  0  0  0  0  0
   -1.1373    0.3890    0.0000 C   0  0  0  0  0  0  0  0  0  0  0  0
    2.3661   -0.0383    0.0000 C   0  0  0  0  0  0  0  0  0  0  0  0
   -1.8504   -0.8633    0.0000 O   0  0  0  0  0  0  0  0  0  0  0  0
    2.7402   -0.7778    0.0000 C   0  0  0  0  0  0  0  0  0  0  0  0
    2.7933    0.6571    0.0000 C   0  0  0  0  0  0  0  0  0  0  0  0
   -2.5722   -0.4537    0.0000 C   0  0  0  0  0  0  0  0  0  0  0  0
    3.5623   -0.8250    0.0000 C   0  0  0  0  0  0  0  0  0  0  0  0
    3.6360    0.6276    0.0000 C   0  0  0  0  0  0  0  0  0  0  0  0
   -2.5575    0.3890    0.0000 C   0  0  0  0  0  0  0  0  0  0  0  0
   -3.2942   -0.8633    0.0000 C   0  0  0  0  0  0  0  0  0  0  0  0
    4.0219   -0.1031    0.0000 C   0  0  0  0  0  0  0  0  0  0  0  0
    3.9365   -1.5763    0.0000 C   0  0  0  0  0  0  0  0  0  0  0  0
   -3.2735    0.7985    0.0000 C   0  0  0  0  0  0  0  0  0  0  0  0
   -3.9866   -0.4537    0.0000 C   0  0  0  0  0  0  0  0  0  0  0  0
    4.3019   -2.3159    0.0000 C   0  0  0  0  0  0  0  0  0  0  0  0
   -3.9866    0.3890    0.0000 C   0  0  0  0  0  0  0  0  0  0  0  0
   -3.2558    1.6147    0.0000 N   0  3  0  0  0  0  0  0  0  0  0  0
   -3.9571    2.0243    0.0000 O   0  0  0  0  0  0  0  0  0  0  0  0
   -2.5340    2.0125    0.0000 O   0  5  0  0  0  0  0  0  0  0  0  0
  1  2  2  0  0  0  0
  1  3  1  0  0  0  0
  1  4  1  0  0  0  0
  2  5  1  0  0  0  0
  2  6  1  0  0  0  0
  3  7  1  0  0  0  0
  3  8  2  0  0  0  0
  4  9  2  0  0  0  0
  5 10  2  0  0  0  0
  5  7  1  0  0  0  0
  6 11  2  0  0  0  0
  7 12  1  0  0  0  0
  9 13  1  0  0  0  0
  9 11  1  0  0  0  0
 12 14  2  0  0  0  0
 12 15  1  0  0  0  0
 13 16  1  0  0  0  0
 14 17  1  0  0  0  0
 15 18  2  0  0  0  0
 16 19  1  0  0  0  0
 16 20  2  0  0  0  0
 17 21  2  0  0  0  0
 17 22  1  0  0  0  0
 18 21  1  0  0  0  0
 19 23  2  0  0  0  0
 20 24  1  0  0  0  0
 22 25  3  0  0  0  0
 23 26  1  0  0  0  0
 23 27  1  0  0  0  0
 24 26  2  0  0  0  0
 27 28  2  0  0  0  0
 27 29  1  0  0  0  0
M  END
> <CdId>
135

> <Mol Weight>
384.3411

> <Formula>
C22H12N2O5

> <Click_ID>
CLK002_F06 __ __ 

$$$$
