CLK029_D08
 OpenBabel03181410512D

 31 34  0  0  0  0  0  0  0  0999 V2000
   -1.1625    2.3833    0.0000 C   0  0  0  0  0  0  0  0  0  0  0  0
   -0.3375    2.3750    0.0000 N   0  0  0  0  0  0  0  0  0  0  0  0
   -1.6458    1.7208    0.0000 N   0  0  0  0  0  0  0  0  0  0  0  0
   -1.6458    3.0500    0.0000 S   0  0  0  0  0  0  0  0  0  0  0  0
    0.9000    3.0875    0.0000 C   0  0  0  0  0  0  0  0  0  0  0  0
    0.0750    3.0875    0.0000 C   0  0  0  0  0  0  0  0  0  0  0  0
   -2.4333    2.7958    0.0000 C   0  0  0  0  0  0  0  0  0  0  0  0
    1.3167    3.8083    0.0000 C   0  0  0  0  0  0  0  0  0  0  0  0
   -2.4333    1.9708    0.0000 C   0  0  0  0  0  0  0  0  0  0  0  0
    1.3125    2.3833    0.0000 O   0  0  0  0  0  0  0  0  0  0  0  0
    2.1417    3.8000    0.0000 C   0  0  0  0  0  0  0  0  0  0  0  0
    2.5542    3.0833    0.0000 C   0  0  0  0  0  0  0  0  0  0  0  0
    2.1292    2.3750    0.0000 C   0  0  0  0  0  0  0  0  0  0  0  0
   -4.5833    3.2125    0.0000 C   0  0  0  0  0  0  0  0  0  0  0  0
   -3.1458    3.2083    0.0000 C   0  0  0  0  0  0  0  0  0  0  0  0
   -3.8583    2.7958    0.0000 C   0  0  0  0  0  0  0  0  0  0  0  0
   -1.9458    0.3208    0.0000 C   0  0  0  0  0  0  0  0  0  0  0  0
   -3.1458    1.5583    0.0000 C   0  0  0  0  0  0  0  0  0  0  0  0
   -2.4958   -0.2917    0.0000 C   0  0  0  0  0  0  0  0  0  0  0  0
   -0.3375    3.8000    0.0000 O   0  0  0  0  0  0  0  0  0  0  0  0
    2.5667    4.5167    0.0000 O   0  0  0  0  0  0  0  0  0  0  0  0
   -3.8583    1.9708    0.0000 C   0  0  0  0  0  0  0  0  0  0  0  0
   -5.2958    2.8000    0.0000 O   0  0  0  0  0  0  0  0  0  0  0  0
   -1.3958    0.9333    0.0000 C   0  0  0  0  0  0  0  0  0  0  0  0
   -4.5708    4.0292    0.0000 O   0  0  0  0  0  0  0  0  0  0  0  0
    3.3875    3.0708    0.0000 C   0  0  0  0  0  0  0  0  0  0  0  0
    2.5500    1.6500    0.0000 C   0  0  0  0  0  0  0  0  0  0  0  0
   -5.2958    4.4542    0.0000 C   0  0  0  0  0  0  0  0  0  0  0  0
    3.7917    2.3625    0.0000 C   0  0  0  0  0  0  0  0  0  0  0  0
    3.3792    1.6458    0.0000 C   0  0  0  0  0  0  0  0  0  0  0  0
   -5.2875    5.2750    0.0000 C   0  0  0  0  0  0  0  0  0  0  0  0
  2  1  2  0  0  0  0
  3  1  1  0  0  0  0
  4  1  1  0  0  0  0
  5  6  1  0  0  0  0
  6  2  1  0  0  0  0
  7  4  1  0  0  0  0
  7  9  2  0  0  0  0
  8  5  2  0  0  0  0
  9  3  1  0  0  0  0
 10  5  1  0  0  0  0
 11  8  1  0  0  0  0
 12 13  2  0  0  0  0
 12 11  1  0  0  0  0
 13 10  1  0  0  0  0
 14 16  1  0  0  0  0
 15  7  1  0  0  0  0
 16 15  2  0  0  0  0
 16 22  1  0  0  0  0
 17 24  1  0  0  0  0
 18  9  1  0  0  0  0
 19 17  3  0  0  0  0
 20  6  2  0  0  0  0
 21 11  2  0  0  0  0
 22 18  2  0  0  0  0
 23 14  2  0  0  0  0
 24  3  1  0  0  0  0
 25 14  1  0  0  0  0
 26 12  1  0  0  0  0
 26 29  2  0  0  0  0
 27 13  1  0  0  0  0
 28 25  1  0  0  0  0
 29 30  1  0  0  0  0
 30 27  2  0  0  0  0
 31 28  1  0  0  0  0
M  END
> <CdId>
2202

> <Mol Weight>
432.449

> <Formula>
C23H16N2O5S

> <Click_ID>
CLK029_D08 __ __ 

$$$$
