CLK010_A04
 OpenBabel03181410512D

 27 29  0  0  0  0  0  0  0  0999 V2000
    1.1374    0.2064    0.0000 N   0  0  0  0  0  0  0  0  0  0  0  0
    1.9457    0.2205    0.0000 C   0  0  0  0  0  0  0  0  0  0  0  0
    2.2152   -0.5704    0.0000 N   0  0  0  0  0  0  0  0  0  0  0  0
    0.8854   -0.5879    0.0000 C   0  0  0  0  0  0  0  0  0  0  0  0
    0.6719    0.8924    0.0000 C   0  0  0  0  0  0  0  0  0  0  0  0
    1.5433   -1.0534    0.0000 C   0  0  0  0  0  0  0  0  0  0  0  0
   -0.1680    0.8084    0.0000 C   0  0  0  0  0  0  0  0  0  0  0  0
    3.6780    1.5502    0.0000 C   0  0  0  0  0  0  0  0  0  0  0  0
    4.1469    2.2362    0.0000 C   0  0  0  0  0  0  0  0  0  0  0  0
   -2.5196   -0.8014    0.0000 C   0  0  0  0  0  0  0  0  0  0  0  0
   -0.5214    0.0700    0.0000 C   0  0  0  0  0  0  0  0  0  0  0  0
    2.3972    0.9098    0.0000 S   0  0  0  0  0  0  0  0  0  0  0  0
   -2.9780   -0.1155    0.0000 C   0  0  0  0  0  0  0  0  0  0  0  0
    1.0219    1.6342    0.0000 O   0  0  0  0  0  0  0  0  0  0  0  0
   -1.6972   -0.7384    0.0000 C   0  0  0  0  0  0  0  0  0  0  0  0
   -1.3438    0.0000    0.0000 C   0  0  0  0  0  0  0  0  0  0  0  0
   -2.6211    0.6264    0.0000 C   0  0  0  0  0  0  0  0  0  0  0  0
   -1.8022    0.6894    0.0000 C   0  0  0  0  0  0  0  0  0  0  0  0
   -2.8730   -1.5433    0.0000 O   0  0  0  0  0  0  0  0  0  0  0  0
    3.2230    0.8573    0.0000 C   0  0  0  0  0  0  0  0  0  0  0  0
   -3.7969   -0.1680    0.0000 O   0  0  0  0  0  0  0  0  0  0  0  0
    0.1155   -0.9239    0.0000 C   0  0  0  0  0  0  0  0  0  0  0  0
    1.4593   -1.8792    0.0000 C   0  0  0  0  0  0  0  0  0  0  0  0
   -3.7024   -1.6098    0.0000 C   0  0  0  0  0  0  0  0  0  0  0  0
   -4.1748   -0.9064    0.0000 C   0  0  0  0  0  0  0  0  0  0  0  0
    0.0315   -1.7253    0.0000 C   0  0  0  0  0  0  0  0  0  0  0  0
    0.7174   -2.2292    0.0000 C   0  0  0  0  0  0  0  0  0  0  0  0
  2  1  1  0  0  0  0
  3  2  2  0  0  0  0
  4  1  1  0  0  0  0
  5  1  1  0  0  0  0
  6  4  1  0  0  0  0
  6  3  1  0  0  0  0
  7  5  1  0  0  0  0
  8 20  1  0  0  0  0
  9  8  3  0  0  0  0
 10 15  2  0  0  0  0
 11  7  2  0  0  0  0
 12  2  1  0  0  0  0
 13 17  2  0  0  0  0
 13 10  1  0  0  0  0
 14  5  2  0  0  0  0
 15 16  1  0  0  0  0
 16 11  1  0  0  0  0
 17 18  1  0  0  0  0
 18 16  2  0  0  0  0
 19 10  1  0  0  0  0
 20 12  1  0  0  0  0
 21 13  1  0  0  0  0
 22  4  2  0  0  0  0
 23  6  2  0  0  0  0
 23 27  1  0  0  0  0
 24 19  1  0  0  0  0
 25 21  1  0  0  0  0
 26 22  1  0  0  0  0
 27 26  2  0  0  0  0
M  END
> <CdId>
679

> <Mol Weight>
378.444

> <Formula>
C21H18N2O3S

> <Click_ID>
CLK010_A04 __ __ 

$$$$
