CLK026_H04
 OpenBabel03181410512D

 26 28  0  0  0  0  0  0  0  0999 V2000
   -3.4059   -0.3811    0.0000 N   0  0  0  0  0  0  0  0  0  0  0  0
   -3.8008   -1.1124    0.0000 C   0  0  0  0  0  0  0  0  0  0  0  0
   -2.5957   -0.5288    0.0000 C   0  0  0  0  0  0  0  0  0  0  0  0
   -2.4824   -1.3596    0.0000 C   0  0  0  0  0  0  0  0  0  0  0  0
   -3.2308   -1.7098    0.0000 S   0  0  0  0  0  0  0  0  0  0  0  0
   -1.7476   -1.7545    0.0000 C   0  0  0  0  0  0  0  0  0  0  0  0
   -3.2961    1.0506    0.0000 C   0  0  0  0  0  0  0  0  0  0  0  0
   -2.8669    1.7579    0.0000 C   0  0  0  0  0  0  0  0  0  0  0  0
   -4.6214   -1.2223    0.0000 O   0  0  0  0  0  0  0  0  0  0  0  0
   -1.9983    0.0447    0.0000 O   0  0  0  0  0  0  0  0  0  0  0  0
   -3.7631    0.3570    0.0000 C   0  0  0  0  0  0  0  0  0  0  0  0
   -1.0541   -1.3253    0.0000 C   0  0  0  0  0  0  0  0  0  0  0  0
    1.0747   -0.0653    0.0000 O   0  0  0  0  0  0  0  0  0  0  0  0
    0.3640   -0.4876    0.0000 C   0  0  0  0  0  0  0  0  0  0  0  0
    2.4995   -0.0447    0.0000 C   0  0  0  0  0  0  0  0  0  0  0  0
    1.7819   -0.4532    0.0000 C   0  0  0  0  0  0  0  0  0  0  0  0
    3.9209    0.7897    0.0000 C   0  0  0  0  0  0  0  0  0  0  0  0
   -0.3364   -1.7201    0.0000 C   0  0  0  0  0  0  0  0  0  0  0  0
   -1.0644   -0.4910    0.0000 C   0  0  0  0  0  0  0  0  0  0  0  0
   -0.3570   -0.0686    0.0000 C   0  0  0  0  0  0  0  0  0  0  0  0
    0.3640   -1.2944    0.0000 C   0  0  0  0  0  0  0  0  0  0  0  0
    3.2102   -0.4498    0.0000 C   0  0  0  0  0  0  0  0  0  0  0  0
    2.4789    0.7691    0.0000 C   0  0  0  0  0  0  0  0  0  0  0  0
    3.9073   -0.0412    0.0000 C   0  0  0  0  0  0  0  0  0  0  0  0
    3.1896    1.1880    0.0000 C   0  0  0  0  0  0  0  0  0  0  0  0
    4.6180    1.1983    0.0000 C   0  0  0  0  0  0  0  0  0  0  0  0
  2  1  1  0  0  0  0
  3  1  1  0  0  0  0
  4  3  1  0  0  0  0
  5  2  1  0  0  0  0
  5  4  1  0  0  0  0
  6  4  2  0  0  0  0
  7 11  1  0  0  0  0
  8  7  3  0  0  0  0
  9  2  2  0  0  0  0
 10  3  2  0  0  0  0
 11  1  1  0  0  0  0
 12  6  1  0  0  0  0
 13 14  1  0  0  0  0
 14 20  2  0  0  0  0
 14 21  1  0  0  0  0
 15 16  1  0  0  0  0
 16 13  1  0  0  0  0
 17 25  1  0  0  0  0
 17 24  2  0  0  0  0
 18 12  1  0  0  0  0
 19 12  2  0  0  0  0
 20 19  1  0  0  0  0
 21 18  2  0  0  0  0
 22 15  2  0  0  0  0
 23 15  1  0  0  0  0
 24 22  1  0  0  0  0
 25 23  2  0  0  0  0
 26 17  1  0  0  0  0
M  END
> <CdId>
2009

> <Mol Weight>
363.43

> <Formula>
C21H17NO3S

> <Click_ID>
CLK026_H04 __ __ 

$$$$
