CLK019_F09
 OpenBabel03181410512D

 21 21  0  0  0  0  0  0  0  0999 V2000
    2.8001   -1.0009    0.0000 S   0  0  0  0  0  0  0  0  0  0  0  0
   -0.8982   -0.3431    0.0000 C   0  0  0  0  0  0  0  0  0  0  0  0
   -2.5673    1.1084    0.0000 C   0  0  0  0  0  0  0  0  0  0  0  0
    1.9830   -1.0132    0.0000 C   0  0  0  0  0  0  0  0  0  0  0  0
   -1.7163   -0.3431    0.0000 N   0  0  0  0  0  0  0  0  0  0  0  0
   -2.9971    1.8218    0.0000 C   0  0  0  0  0  0  0  0  0  0  0  0
    2.8077   -1.8218    0.0000 O   0  0  0  0  0  0  0  0  0  0  0  0
    2.7973   -0.1838    0.0000 O   0  0  0  0  0  0  0  0  0  0  0  0
   -0.4797   -1.0471    0.0000 N   0  0  0  0  0  0  0  0  0  0  0  0
   -0.4967    0.3704    0.0000 S   0  0  0  0  0  0  0  0  0  0  0  0
   -2.1357    0.3779    0.0000 C   0  0  0  0  0  0  0  0  0  0  0  0
    3.6192   -0.9877    0.0000 N   0  0  0  0  0  0  0  0  0  0  0  0
    1.5787   -0.3148    0.0000 C   0  0  0  0  0  0  0  0  0  0  0  0
    1.5872   -1.7370    0.0000 C   0  0  0  0  0  0  0  0  0  0  0  0
    0.3506   -1.0349    0.0000 C   0  0  0  0  0  0  0  0  0  0  0  0
    0.7521   -0.3233    0.0000 C   0  0  0  0  0  0  0  0  0  0  0  0
    0.7672   -1.7502    0.0000 C   0  0  0  0  0  0  0  0  0  0  0  0
   -1.5504    0.7540    0.0000 C   0  0  0  0  0  0  0  0  0  0  0  0
   -2.8784   -0.0603    0.0000 C   0  0  0  0  0  0  0  0  0  0  0  0
   -1.5504    1.5561    0.0000 C   0  0  0  0  0  0  0  0  0  0  0  0
   -3.6192    0.3412    0.0000 C   0  0  0  0  0  0  0  0  0  0  0  0
  2  9  1  0  0  0  0
  3 11  1  0  0  0  0
  4  1  1  0  0  0  0
  5  2  1  0  0  0  0
  6  3  3  0  0  0  0
  7  1  2  0  0  0  0
  8  1  2  0  0  0  0
  9 15  1  0  0  0  0
 10  2  2  0  0  0  0
 11  5  1  0  0  0  0
 12  1  1  0  0  0  0
 13  4  2  0  0  0  0
 14  4  1  0  0  0  0
 15 17  1  0  0  0  0
 16 13  1  0  0  0  0
 16 15  2  0  0  0  0
 17 14  2  0  0  0  0
 18 11  1  0  0  0  0
 19 11  1  0  0  0  0
 20 18  1  0  0  0  0
 21 19  1  0  0  0  0
M  END
> <CdId>
1454

> <Mol Weight>
325.45

> <Formula>
C14H19N3O2S2

> <Click_ID>
CLK019_F09 __ __ 

$$$$
