CLK013_C03
 OpenBabel03181410512D

 22 23  0  0  0  0  0  0  0  0999 V2000
    5.8727   -2.9654    0.0000 N   0  0  0  0  0  0  0  0  0  0  0  0
    5.1013   -3.2640    0.0000 C   0  0  0  0  0  0  0  0  0  0  0  0
    5.8271   -2.1442    0.0000 C   0  0  0  0  0  0  0  0  0  0  0  0
    5.0308   -1.9285    0.0000 C   0  0  0  0  0  0  0  0  0  0  0  0
    4.5829   -2.6171    0.0000 S   0  0  0  0  0  0  0  0  0  0  0  0
    4.7447   -1.1613    0.0000 C   0  0  0  0  0  0  0  0  0  0  0  0
    0.1535   -1.1571    0.0000 C   0  0  0  0  0  0  0  0  0  0  0  0
   -0.6553   -1.0244    0.0000 C   0  0  0  0  0  0  0  0  0  0  0  0
    4.8898   -4.0479    0.0000 O   0  0  0  0  0  0  0  0  0  0  0  0
    2.8244   -0.1286    0.0000 C   0  0  0  0  0  0  0  0  0  0  0  0
    6.4741   -1.6299    0.0000 O   0  0  0  0  0  0  0  0  0  0  0  0
    3.9317   -1.0327    0.0000 C   0  0  0  0  0  0  0  0  0  0  0  0
    3.6373   -0.2613    0.0000 C   0  0  0  0  0  0  0  0  0  0  0  0
    2.3018   -0.7714    0.0000 C   0  0  0  0  0  0  0  0  0  0  0  0
    6.5612   -3.4134    0.0000 C   0  0  0  0  0  0  0  0  0  0  0  0
    2.5922   -1.5346    0.0000 C   0  0  0  0  0  0  0  0  0  0  0  0
    3.4092   -1.6714    0.0000 C   0  0  0  0  0  0  0  0  0  0  0  0
    2.5258    0.6428    0.0000 O   0  0  0  0  0  0  0  0  0  0  0  0
    1.4848   -0.6387    0.0000 O   0  0  0  0  0  0  0  0  0  0  0  0
    0.9705   -1.2816    0.0000 C   0  0  0  0  0  0  0  0  0  0  0  0
    1.7088    0.7672    0.0000 C   0  0  0  0  0  0  0  0  0  0  0  0
    6.5115   -4.2345    0.0000 C   0  0  0  0  0  0  0  0  0  0  0  0
  2  1  1  0  0  0  0
  3  1  1  0  0  0  0
  4  3  1  0  0  0  0
  5  2  1  0  0  0  0
  5  4  1  0  0  0  0
  6  4  2  0  0  0  0
  7 20  1  0  0  0  0
  8  7  3  0  0  0  0
  9  2  2  0  0  0  0
 10 13  1  0  0  0  0
 10 14  2  0  0  0  0
 11  3  2  0  0  0  0
 12  6  1  0  0  0  0
 13 12  2  0  0  0  0
 14 16  1  0  0  0  0
 15  1  1  0  0  0  0
 16 17  2  0  0  0  0
 17 12  1  0  0  0  0
 18 10  1  0  0  0  0
 19 14  1  0  0  0  0
 20 19  1  0  0  0  0
 21 18  1  0  0  0  0
 22 15  1  0  0  0  0
M  END
> <CdId>
938

> <Mol Weight>
317.36

> <Formula>
C16H15NO4S

> <Click_ID>
CLK013_C03 __ __ 

$$$$
