CLK037G05
 OpenBabel03181410512D

 20 20  0  0  0  0  0  0  0  0999 V2000
   -1.4292    2.0250    0.0000 N    0  0  0  0  0  0  0  0  0  0  0  0
   -0.7167    1.6125    0.0000 C    0  0  0  0  0  0  0  0  0  0  0  0
    0.0000   -0.4500    0.0000 C    0  0  0  0  0  0  0  0  0  0  0  0
   -0.7167    0.7875    0.0000 C    0  0  0  0  0  0  0  0  0  0  0  0
    0.0000    0.3750    0.0000 C    0  0  0  0  0  0  0  0  0  0  0  0
    0.7125   -0.8625    0.0000 N    0  0  0  0  0  0  0  0  0  0  0  0
    0.7125   -2.5125    0.0000 C    0  0  0  0  0  0  0  0  0  0  0  0
    0.7125   -3.3375    0.0000 C    0  0  0  0  0  0  0  0  0  0  0  0
    0.0000    2.0250    0.0000 C    0  0  0  0  0  0  0  0  0  0  0  0
   -1.4292    2.8500    0.0000 O    0  0  0  0  0  0  0  0  0  0  0  0
    0.7125   -1.6875    0.0000 C    0  0  0  0  0  0  0  0  0  0  0  0
   -2.1458    1.6125    0.0000 O    0  0  0  0  0  0  0  0  0  0  0  0
   -0.7167   -0.8625    0.0000 O    0  0  0  0  0  0  0  0  0  0  0  0
    0.7125    0.7875    0.0000 C    0  0  0  0  0  0  0  0  0  0  0  0
    0.7125    1.6125    0.0000 C    0  0  0  0  0  0  0  0  0  0  0  0
    0.0000    2.8500    0.0000 Cl   0  0  0  0  0  0  0  0  0  0  0  0
   -0.1125   -1.6875    0.0000 C    0  0  0  0  0  0  0  0  0  0  0  0
    1.5375   -1.6875    0.0000 C    0  0  0  0  0  0  0  0  0  0  0  0
   -0.5250   -0.9750    0.0000 C    0  0  0  0  0  0  0  0  0  0  0  0
    1.9500   -2.4042    0.0000 C    0  0  0  0  0  0  0  0  0  0  0  0
  2  1  1  0  0  0  0
  3  5  1  0  0  0  0
  4  2  1  0  0  0  0
  5  4  2  0  0  0  0
  6  3  1  0  0  0  0
  7 11  1  0  0  0  0
  8  7  3  0  0  0  0
  9  2  2  0  0  0  0
 10  1  1  0  0  0  0
 11  6  1  0  0  0  0
 12  1  2  0  0  0  0
 13  3  2  0  0  0  0
 14  5  1  0  0  0  0
 15  9  1  0  0  0  0
 15 14  2  0  0  0  0
 16  9  1  0  0  0  0
 17 11  1  0  0  0  0
 18 11  1  0  0  0  0
 19 17  1  0  0  0  0
 20 18  1  0  0  0  0
M  END
> <CdId>
2799

> <Mol Weight>
294.734

> <Formula>
C14H15ClN2O3

> <Click_ID>
CLK037G05 __ __ 

$$$$
