CLK041G05
 OpenBabel03181410512D

 15 15  0  0  0  0  0  0  0  0999 V2000
    0.3333    0.7458    0.0000 C   0  0  0  0  0  0  0  0  0  0  0  0
   -0.3833    0.3333    0.0000 N   0  0  0  0  0  0  0  0  0  0  0  0
   -0.3833   -0.4917    0.0000 C   0  0  0  0  0  0  0  0  0  0  0  0
   -1.0958   -0.9042    0.0000 C   0  0  0  0  0  0  0  0  0  0  0  0
    1.0458    2.8083    0.0000 C   0  0  0  0  0  0  0  0  0  0  0  0
    1.0458    3.6333    0.0000 C   0  0  0  0  0  0  0  0  0  0  0  0
   -1.0958   -1.7292    0.0000 C   0  0  0  0  0  0  0  0  0  0  0  0
    1.0458    0.3333    0.0000 O   0  0  0  0  0  0  0  0  0  0  0  0
    0.3333   -0.9042    0.0000 C   0  0  0  0  0  0  0  0  0  0  0  0
    0.3333    1.5708    0.0000 N   0  0  0  0  0  0  0  0  0  0  0  0
   -0.3833   -2.1417    0.0000 C   0  0  0  0  0  0  0  0  0  0  0  0
   -1.8125   -0.4917    0.0000 F   0  0  0  0  0  0  0  0  0  0  0  0
    0.3333   -1.7292    0.0000 C   0  0  0  0  0  0  0  0  0  0  0  0
   -0.3833   -2.9667    0.0000 F   0  0  0  0  0  0  0  0  0  0  0  0
    1.0458    1.9833    0.0000 C   0  0  0  0  0  0  0  0  0  0  0  0
  2  1  1  0  0  0  0
  3  2  1  0  0  0  0
  4  3  2  0  0  0  0
  5 15  1  0  0  0  0
  6  5  3  0  0  0  0
  7  4  1  0  0  0  0
  8  1  2  0  0  0  0
  9  3  1  0  0  0  0
 10  1  1  0  0  0  0
 11  7  2  0  0  0  0
 12  4  1  0  0  0  0
 13  9  2  0  0  0  0
 13 11  1  0  0  0  0
 14 11  1  0  0  0  0
 15 10  1  0  0  0  0
M  END
> <CdId>
3119

> <Mol Weight>
210.1801

> <Formula>
C10H8F2N2O

> <Click_ID>
CLK041G05 __ __ 

$$$$
