CLK001_D08
 OpenBabel03181410512D

 22 24  0  0  0  0  0  0  0  0999 V2000
   -0.8935    0.0933    0.0000 C   0  0  0  0  0  0  0  0  0  0  0  0
   -0.7894   -0.7069    0.0000 C   0  0  0  0  0  0  0  0  0  0  0  0
   -0.1471    0.4450    0.0000 C   0  0  0  0  0  0  0  0  0  0  0  0
   -1.6685    0.4450    0.0000 C   0  0  0  0  0  0  0  0  0  0  0  0
   -0.0035   -0.8756    0.0000 C   0  0  0  0  0  0  0  0  0  0  0  0
   -1.4640   -1.2056    0.0000 C   0  0  0  0  0  0  0  0  0  0  0  0
    0.4091   -0.1650    0.0000 N   0  0  0  0  0  0  0  0  0  0  0  0
    0.0107    1.2523    0.0000 O   0  0  0  0  0  0  0  0  0  0  0  0
   -2.3324   -0.0610    0.0000 C   0  0  0  0  0  0  0  0  0  0  0  0
    0.3732   -1.6219    0.0000 O   0  0  0  0  0  0  0  0  0  0  0  0
   -2.2462   -0.8791    0.0000 C   0  0  0  0  0  0  0  0  0  0  0  0
    1.2452   -0.1650    0.0000 C   0  0  0  0  0  0  0  0  0  0  0  0
   -3.0787    0.2691    0.0000 C   0  0  0  0  0  0  0  0  0  0  0  0
    1.6614    0.5275    0.0000 C   0  0  0  0  0  0  0  0  0  0  0  0
    1.6578   -0.8935    0.0000 C   0  0  0  0  0  0  0  0  0  0  0  0
   -3.1290    1.0693    0.0000 O   0  0  0  0  0  0  0  0  0  0  0  0
   -3.7497   -0.2297    0.0000 O   0  0  0  0  0  0  0  0  0  0  0  0
    2.5082    0.5238    0.0000 C   0  0  0  0  0  0  0  0  0  0  0  0
    2.4795   -0.8756    0.0000 C   0  0  0  0  0  0  0  0  0  0  0  0
    2.9101   -0.1866    0.0000 C   0  0  0  0  0  0  0  0  0  0  0  0
    2.9065    1.2559    0.0000 C   0  0  0  0  0  0  0  0  0  0  0  0
    3.3406    1.9843    0.0000 C   0  0  0  0  0  0  0  0  0  0  0  0
  1  2  2  0  0  0  0
  1  3  1  0  0  0  0
  1  4  1  0  0  0  0
  2  5  1  0  0  0  0
  2  6  1  0  0  0  0
  3  7  1  0  0  0  0
  3  8  2  0  0  0  0
  4  9  2  0  0  0  0
  5 10  2  0  0  0  0
  5  7  1  0  0  0  0
  6 11  2  0  0  0  0
  7 12  1  0  0  0  0
  9 13  1  0  0  0  0
  9 11  1  0  0  0  0
 12 14  1  0  0  0  0
 12 15  2  0  0  0  0
 13 16  1  0  0  0  0
 13 17  2  0  0  0  0
 14 18  2  0  0  0  0
 15 19  1  0  0  0  0
 18 20  1  0  0  0  0
 18 21  1  0  0  0  0
 19 20  2  0  0  0  0
 21 22  3  0  0  0  0
M  END
> <CdId>
37

> <Mol Weight>
291.2577

> <Formula>
C17H9NO4

> <Click_ID>
CLK001_D08 __ __ 

$$$$
