CLK026_G11
 OpenBabel03181410512D

 12 12  0  0  0  0  0  0  0  0999 V2000
   -1.6797   -0.6953    0.0000 C    0  0  0  0  0  0  0  0  0  0  0  0
    1.6935    0.6953    0.0000 C    0  0  0  0  0  0  0  0  0  0  0  0
    0.8502    0.6953    0.0000 C    0  0  0  0  0  0  0  0  0  0  0  0
   -1.2357    0.0000    0.0000 C    0  0  0  0  0  0  0  0  0  0  0  0
   -0.4234    0.0000    0.0000 C    0  0  0  0  0  0  0  0  0  0  0  0
   -1.2908   -1.4285    0.0000 O    0  0  0  0  0  0  0  0  0  0  0  0
    0.0069    0.6953    0.0000 C    0  0  0  0  0  0  0  0  0  0  0  0
    2.5092    0.6953    0.0000 Br   0  0  0  0  0  0  0  0  0  0  0  0
   -2.5127   -0.6850    0.0000 O    0  0  0  0  0  0  0  0  0  0  0  0
   -1.6315    0.7366    0.0000 C    0  0  0  0  0  0  0  0  0  0  0  0
   -1.1978    1.4319    0.0000 C    0  0  0  0  0  0  0  0  0  0  0  0
   -0.4096    1.4319    0.0000 C    0  0  0  0  0  0  0  0  0  0  0  0
  2  3  3  0  0  0  0
  3  7  1  0  0  0  0
  4  1  1  0  0  0  0
  5  4  1  0  0  0  0
  6  1  2  0  0  0  0
  7  5  2  0  0  0  0
  7 12  1  0  0  0  0
  8  2  1  0  0  0  0
  9  1  1  0  0  0  0
 10  4  2  0  0  0  0
 11 10  1  0  0  0  0
 12 11  2  0  0  0  0
M  END
> <CdId>
2006

> <Mol Weight>
225.039

> <Formula>
C9H5BrO2

> <Click_ID>
CLK026_G11 __ __ 

$$$$
