CLK043D11
 OpenBabel03181410512D

 26 28  0  0  0  0  0  0  0  0999 V2000
   -1.0613    1.8646    0.0000 N   0  0  0  0  0  0  0  0  0  0  0  0
   -0.5785    1.1986    0.0000 N   0  0  0  0  0  0  0  0  0  0  0  0
   -0.5785    2.5304    0.0000 C   0  0  0  0  0  0  0  0  0  0  0  0
   -0.8323    0.4162    0.0000 C   0  0  0  0  0  0  0  0  0  0  0  0
    2.4764   -3.2588    0.0000 C   0  0  0  0  0  0  0  0  0  0  0  0
    3.2837   -3.0882    0.0000 C   0  0  0  0  0  0  0  0  0  0  0  0
    0.2081    2.2766    0.0000 C   0  0  0  0  0  0  0  0  0  0  0  0
    0.0167   -1.5940    0.0000 C   0  0  0  0  0  0  0  0  0  0  0  0
    0.2081    1.4525    0.0000 C   0  0  0  0  0  0  0  0  0  0  0  0
   -0.2372   -2.3765    0.0000 N   0  0  0  0  0  0  0  0  0  0  0  0
   -1.6356    0.2455    0.0000 O   0  0  0  0  0  0  0  0  0  0  0  0
   -0.2789   -0.1956    0.0000 C   0  0  0  0  0  0  0  0  0  0  0  0
   -0.8323    3.3170    0.0000 C   0  0  0  0  0  0  0  0  0  0  0  0
    0.3121   -2.9883    0.0000 C   0  0  0  0  0  0  0  0  0  0  0  0
    0.8241   -1.4234    0.0000 O   0  0  0  0  0  0  0  0  0  0  0  0
    1.6689   -3.4294    0.0000 C   0  0  0  0  0  0  0  0  0  0  0  0
   -0.5369   -0.9822    0.0000 C   0  0  0  0  0  0  0  0  0  0  0  0
    1.1195   -2.8176    0.0000 C   0  0  0  0  0  0  0  0  0  0  0  0
    0.6118   -4.3867    0.0000 C   0  0  0  0  0  0  0  0  0  0  0  0
    0.0582   -3.7749    0.0000 C   0  0  0  0  0  0  0  0  0  0  0  0
   -0.2789    3.9288    0.0000 C   0  0  0  0  0  0  0  0  0  0  0  0
   -1.6356    3.4877    0.0000 C   0  0  0  0  0  0  0  0  0  0  0  0
    1.4151   -4.2160    0.0000 C   0  0  0  0  0  0  0  0  0  0  0  0
   -0.5369    4.7071    0.0000 C   0  0  0  0  0  0  0  0  0  0  0  0
   -1.8936    4.2659    0.0000 C   0  0  0  0  0  0  0  0  0  0  0  0
   -1.3402    4.8777    0.0000 C   0  0  0  0  0  0  0  0  0  0  0  0
  2  1  1  0  0  0  0
  3  1  2  0  0  0  0
  4  2  1  0  0  0  0
  5 16  1  0  0  0  0
  6  5  3  0  0  0  0
  7  3  1  0  0  0  0
  7  9  1  0  0  0  0
  8 17  1  0  0  0  0
  9  2  1  0  0  0  0
 10  8  1  0  0  0  0
 11  4  2  0  0  0  0
 12  4  1  0  0  0  0
 13  3  1  0  0  0  0
 14 10  1  0  0  0  0
 15  8  2  0  0  0  0
 16 18  1  0  0  0  0
 17 12  1  0  0  0  0
 18 14  2  0  0  0  0
 19 20  2  0  0  0  0
 20 14  1  0  0  0  0
 21 13  1  0  0  0  0
 22 13  2  0  0  0  0
 23 16  2  0  0  0  0
 23 19  1  0  0  0  0
 24 21  2  0  0  0  0
 25 22  1  0  0  0  0
 26 25  2  0  0  0  0
 26 24  1  0  0  0  0
M  END
> <CdId>
3324

> <Mol Weight>
345.3945

> <Formula>
C21H19N3O2

> <Click_ID>
CLK043D11 __ __ 

$$$$
