CLK052A02
 OpenBabel03181410512D

 19 19  0  0  0  0  0  0  0  0999 V2000
    0.3000    0.2208    0.0000 C   0  0  0  0  0  0  0  0  0  0  0  0
    1.0125    0.6333    0.0000 C   0  0  0  0  0  0  0  0  0  0  0  0
   -0.4167   -1.0167    0.0000 C   0  0  0  0  0  0  0  0  0  0  0  0
   -1.1292    0.2208    0.0000 C   0  0  0  0  0  0  0  0  0  0  0  0
   -1.1292   -0.6042    0.0000 C   0  0  0  0  0  0  0  0  0  0  0  0
    0.3000   -0.6042    0.0000 C   0  0  0  0  0  0  0  0  0  0  0  0
   -0.4167    0.6333    0.0000 C   0  0  0  0  0  0  0  0  0  0  0  0
    3.1583    0.2208    0.0000 C   0  0  0  0  0  0  0  0  0  0  0  0
    3.8708   -0.1917    0.0000 C   0  0  0  0  0  0  0  0  0  0  0  0
    1.0125    1.4583    0.0000 O   0  0  0  0  0  0  0  0  0  0  0  0
    1.7292    0.2208    0.0000 N   0  0  0  0  0  0  0  0  0  0  0  0
   -1.8458    1.4583    0.0000 C   0  0  0  0  0  0  0  0  0  0  0  0
   -2.5583    1.8708    0.0000 C   0  0  0  0  0  0  0  0  0  0  0  0
   -0.4167   -1.8417    0.0000 O   0  0  0  0  0  0  0  0  0  0  0  0
   -1.8458   -1.0167    0.0000 O   0  0  0  0  0  0  0  0  0  0  0  0
   -1.8458    0.6333    0.0000 C   0  0  0  0  0  0  0  0  0  0  0  0
    2.4417    0.6333    0.0000 C   0  0  0  0  0  0  0  0  0  0  0  0
    0.3000   -2.2542    0.0000 C   0  0  0  0  0  0  0  0  0  0  0  0
   -2.5583   -0.6042    0.0000 C   0  0  0  0  0  0  0  0  0  0  0  0
  2  1  1  0  0  0  0
  3  6  1  0  0  0  0
  4  7  2  0  0  0  0
  5  4  1  0  0  0  0
  5  3  2  0  0  0  0
  6  1  2  0  0  0  0
  7  1  1  0  0  0  0
  8 17  1  0  0  0  0
  9  8  3  0  0  0  0
 10  2  2  0  0  0  0
 11  2  1  0  0  0  0
 12 16  1  0  0  0  0
 13 12  2  0  0  0  0
 14  3  1  0  0  0  0
 15  5  1  0  0  0  0
 16  4  1  0  0  0  0
 17 11  1  0  0  0  0
 18 14  1  0  0  0  0
 19 15  1  0  0  0  0
M  END
> <CdId>
3969

> <Mol Weight>
259.3004

> <Formula>
C15H17NO3

> <Click_ID>
CLK052A02 __ __ 

$$$$
