CLK018_H05
 OpenBabel03181410512D

 30 33  0  0  0  0  0  0  0  0999 V2000
    4.7292   -3.0667    0.0000 N    0  0  0  0  0  0  0  0  0  0  0  0
    3.3042   -3.0667    0.0000 C    0  0  0  0  0  0  0  0  0  0  0  0
    4.0167   -2.6542    0.0000 C    0  0  0  0  0  0  0  0  0  0  0  0
    4.7292   -3.8917    0.0000 C    0  0  0  0  0  0  0  0  0  0  0  0
    4.0167   -4.3042    0.0000 N    0  0  0  0  0  0  0  0  0  0  0  0
    3.3042   -3.8917    0.0000 C    0  0  0  0  0  0  0  0  0  0  0  0
    1.8750   -3.0667    0.0000 C    0  0  0  0  0  0  0  0  0  0  0  0
    2.5917   -2.6542    0.0000 C    0  0  0  0  0  0  0  0  0  0  0  0
    5.4417   -2.6542    0.0000 C    0  0  0  0  0  0  0  0  0  0  0  0
    0.9667   -4.0625    0.0000 N    0  0  0  0  0  0  0  0  0  0  0  0
    1.7792   -3.8875    0.0000 C    0  0  0  0  0  0  0  0  0  0  0  0
    6.1542   -3.0750    0.0000 C    0  0  0  0  0  0  0  0  0  0  0  0
    1.1125   -2.7292    0.0000 C    0  0  0  0  0  0  0  0  0  0  0  0
    0.5542   -3.3417    0.0000 C    0  0  0  0  0  0  0  0  0  0  0  0
   -0.1875   -4.9000    0.0000 C    0  0  0  0  0  0  0  0  0  0  0  0
    5.4417   -4.3042    0.0000 O    0  0  0  0  0  0  0  0  0  0  0  0
    4.0167   -1.8292    0.0000 O    0  0  0  0  0  0  0  0  0  0  0  0
   -1.0083   -4.9375    0.0000 C    0  0  0  0  0  0  0  0  0  0  0  0
    2.5917   -4.3042    0.0000 O    0  0  0  0  0  0  0  0  0  0  0  0
    6.8667   -2.6667    0.0000 C    0  0  0  0  0  0  0  0  0  0  0  0
    0.6375   -4.8167    0.0000 C    0  0  0  0  0  0  0  0  0  0  0  0
    6.1500   -3.9000    0.0000 Cl   0  0  0  0  0  0  0  0  0  0  0  0
    5.4417   -1.8375    0.0000 C    0  0  0  0  0  0  0  0  0  0  0  0
    7.5792   -3.0792    0.0000 Cl   0  0  0  0  0  0  0  0  0  0  0  0
   -0.2458   -3.1750    0.0000 C    0  0  0  0  0  0  0  0  0  0  0  0
    0.8667   -1.9417    0.0000 C    0  0  0  0  0  0  0  0  0  0  0  0
    6.1542   -1.4250    0.0000 C    0  0  0  0  0  0  0  0  0  0  0  0
    6.8750   -1.8417    0.0000 C    0  0  0  0  0  0  0  0  0  0  0  0
    0.0542   -1.7792    0.0000 C    0  0  0  0  0  0  0  0  0  0  0  0
   -0.4958   -2.3917    0.0000 C    0  0  0  0  0  0  0  0  0  0  0  0
  2  3  1  0  0  0  0
  3  1  1  0  0  0  0
  4  1  1  0  0  0  0
  5  4  1  0  0  0  0
  6  5  1  0  0  0  0
  6  2  1  0  0  0  0
  7  8  1  0  0  0  0
  8  2  2  0  0  0  0
  9  1  1  0  0  0  0
 10 11  1  0  0  0  0
 10 14  1  0  0  0  0
 11  7  2  0  0  0  0
 12  9  2  0  0  0  0
 13  7  1  0  0  0  0
 14 13  1  0  0  0  0
 15 21  1  0  0  0  0
 16  4  2  0  0  0  0
 17  3  2  0  0  0  0
 18 15  3  0  0  0  0
 19  6  2  0  0  0  0
 20 12  1  0  0  0  0
 21 10  1  0  0  0  0
 22 12  1  0  0  0  0
 23  9  1  0  0  0  0
 24 20  1  0  0  0  0
 25 14  2  0  0  0  0
 25 30  1  0  0  0  0
 26 13  2  0  0  0  0
 27 23  2  0  0  0  0
 28 27  1  0  0  0  0
 28 20  2  0  0  0  0
 29 26  1  0  0  0  0
 30 29  2  0  0  0  0
M  END
> <CdId>
1390

> <Mol Weight>
438.263

> <Formula>
C22H13Cl2N3O3

> <Click_ID>
CLK018_H05 __ __ 

$$$$
