CLK028_H08
 OpenBabel03181410512D

 29 32  0  0  0  0  0  0  0  0999 V2000
    1.3289   -0.4235    0.0000 C   0  0  0  0  0  0  0  0  0  0  0  0
    1.5044   -1.2325    0.0000 C   0  0  0  0  0  0  0  0  0  0  0  0
    2.3238   -1.3117    0.0000 N   0  0  0  0  0  0  0  0  0  0  0  0
    2.0485   -0.0103    0.0000 C   0  0  0  0  0  0  0  0  0  0  0  0
    2.6681   -0.5681    0.0000 C   0  0  0  0  0  0  0  0  0  0  0  0
    0.6162   -0.0103    0.0000 N   0  0  0  0  0  0  0  0  0  0  0  0
   -0.0964    1.2291    0.0000 C   0  0  0  0  0  0  0  0  0  0  0  0
    0.6162    0.8194    0.0000 N   0  0  0  0  0  0  0  0  0  0  0  0
    3.5667   -2.0553    0.0000 C   0  0  0  0  0  0  0  0  0  0  0  0
    4.3895   -2.0588    0.0000 C   0  0  0  0  0  0  0  0  0  0  0  0
    0.9640   -1.8488    0.0000 O   0  0  0  0  0  0  0  0  0  0  0  0
   -2.9607   -0.4200    0.0000 C   0  0  0  0  0  0  0  0  0  0  0  0
    2.7370   -2.0450    0.0000 C   0  0  0  0  0  0  0  0  0  0  0  0
   -0.0964    2.0622    0.0000 O   0  0  0  0  0  0  0  0  0  0  0  0
   -2.2481   -0.0069    0.0000 C   0  0  0  0  0  0  0  0  0  0  0  0
   -0.8125   -0.0069    0.0000 N   0  0  0  0  0  0  0  0  0  0  0  0
   -0.8091    0.8194    0.0000 C   0  0  0  0  0  0  0  0  0  0  0  0
   -2.9607   -1.2429    0.0000 C   0  0  0  0  0  0  0  0  0  0  0  0
   -1.5320   -0.4200    0.0000 C   0  0  0  0  0  0  0  0  0  0  0  0
   -2.2481   -1.6560    0.0000 C   0  0  0  0  0  0  0  0  0  0  0  0
    2.2171    0.7884    0.0000 C   0  0  0  0  0  0  0  0  0  0  0  0
   -1.5320   -1.2429    0.0000 C   0  0  0  0  0  0  0  0  0  0  0  0
    3.4428   -0.3202    0.0000 C   0  0  0  0  0  0  0  0  0  0  0  0
   -3.6734   -0.0069    0.0000 C   0  0  0  0  0  0  0  0  0  0  0  0
   -3.6734   -1.6560    0.0000 C   0  0  0  0  0  0  0  0  0  0  0  0
    3.0055    1.0500    0.0000 C   0  0  0  0  0  0  0  0  0  0  0  0
    3.6252    0.4889    0.0000 C   0  0  0  0  0  0  0  0  0  0  0  0
   -4.3930   -0.4200    0.0000 C   0  0  0  0  0  0  0  0  0  0  0  0
   -4.3930   -1.2429    0.0000 C   0  0  0  0  0  0  0  0  0  0  0  0
  2  1  1  0  0  0  0
  3  2  1  0  0  0  0
  4  1  1  0  0  0  0
  5  4  2  0  0  0  0
  5  3  1  0  0  0  0
  6  1  2  0  0  0  0
  7  8  1  0  0  0  0
  8  6  1  0  0  0  0
  9 13  1  0  0  0  0
 10  9  3  0  0  0  0
 11  2  2  0  0  0  0
 12 15  1  0  0  0  0
 13  3  1  0  0  0  0
 14  7  2  0  0  0  0
 15 19  2  0  0  0  0
 16 17  1  0  0  0  0
 17  7  1  0  0  0  0
 18 20  1  0  0  0  0
 18 12  1  0  0  0  0
 19 16  1  0  0  0  0
 20 22  2  0  0  0  0
 21  4  1  0  0  0  0
 22 19  1  0  0  0  0
 23  5  1  0  0  0  0
 24 12  2  0  0  0  0
 25 18  2  0  0  0  0
 26 21  2  0  0  0  0
 27 26  1  0  0  0  0
 27 23  2  0  0  0  0
 28 24  1  0  0  0  0
 29 25  1  0  0  0  0
 29 28  2  0  0  0  0
M  END
> <CdId>
2162

> <Mol Weight>
382.4146

> <Formula>
C23H18N4O2

> <Click_ID>
CLK028_H08 __ __ 

$$$$
