CLK004_E07
 OpenBabel03181410512D

 32 34  0  0  0  0  0  0  0  0999 V2000
   -0.4433   -0.3534    0.0000 C   0  0  3  0  0  0  0  0  0  0  0  0
    0.0107   -1.0409    0.0000 N   0  0  0  0  0  0  0  0  0  0  0  0
   -1.2700   -0.4027    0.0000 C   0  0  0  0  0  0  0  0  0  0  0  0
   -0.0750    0.3876    0.0000 C   0  0  0  0  0  0  0  0  0  0  0  0
    0.8331   -0.9938    0.0000 C   0  0  0  0  0  0  0  0  0  0  0  0
   -0.3620   -1.7755    0.0000 C   0  0  0  0  0  0  0  0  0  0  0  0
   -1.7241    0.2913    0.0000 C   0  0  0  0  0  0  0  0  0  0  0  0
   -1.6406   -1.1372    0.0000 C   0  0  0  0  0  0  0  0  0  0  0  0
   -0.5290    1.0773    0.0000 N   0  0  0  0  0  0  0  0  0  0  0  0
    0.7496    0.4348    0.0000 O   0  0  0  0  0  0  0  0  0  0  0  0
    1.2036   -0.2527    0.0000 C   0  0  0  0  0  0  0  0  0  0  0  0
    1.2872   -1.6791    0.0000 C   0  0  0  0  0  0  0  0  0  0  0  0
    0.0921   -2.4630    0.0000 C   0  0  0  0  0  0  0  0  0  0  0  0
   -1.1865   -1.8247    0.0000 O   0  0  0  0  0  0  0  0  0  0  0  0
   -2.5486    0.2420    0.0000 C   0  0  0  0  0  0  0  0  0  0  0  0
   -2.4630   -1.1865    0.0000 C   0  0  0  0  0  0  0  0  0  0  0  0
   -0.1585    1.8141    0.0000 C   0  0  0  0  0  0  0  0  0  0  0  0
    2.0261   -0.2099    0.0000 C   0  0  0  0  0  0  0  0  0  0  0  0
    2.1118   -1.6320    0.0000 C   0  0  0  0  0  0  0  0  0  0  0  0
    0.5461   -3.1570    0.0000 C   0  0  0  0  0  0  0  0  0  0  0  0
   -2.9171   -0.4990    0.0000 C   0  0  0  0  0  0  0  0  0  0  0  0
   -3.0027    0.9295    0.0000 O   0  0  0  0  0  0  0  0  0  0  0  0
    0.6554    1.9490    0.0000 C   0  0  0  0  0  0  0  0  0  0  0  0
   -0.5397    2.5465    0.0000 C   0  0  0  0  0  0  0  0  0  0  0  0
    2.4801   -0.8974    0.0000 C   0  0  0  0  0  0  0  0  0  0  0  0
    2.3966    0.5312    0.0000 C   0  0  0  0  0  0  0  0  0  0  0  0
   -3.8251    0.8824    0.0000 C   0  0  0  0  0  0  0  0  0  0  0  0
    0.7796    2.7629    0.0000 C   0  0  0  0  0  0  0  0  0  0  0  0
    0.0429    3.1333    0.0000 C   0  0  0  0  0  0  0  0  0  0  0  0
    2.6344    1.3172    0.0000 F   0  0  0  0  0  0  0  0  0  0  0  0
    1.6320    0.8374    0.0000 F   0  0  0  0  0  0  0  0  0  0  0  0
    3.2062    0.3663    0.0000 F   0  0  0  0  0  0  0  0  0  0  0  0
  1  2  1  0  0  0  0
  1  3  1  0  0  0  0
  1  4  1  0  0  0  0
  2  5  1  0  0  0  0
  2  6  1  0  0  0  0
  3  7  1  0  0  0  0
  3  8  2  0  0  0  0
  4  9  1  0  0  0  0
  4 10  2  0  0  0  0
  5 11  1  0  0  0  0
  5 12  2  0  0  0  0
  6 13  1  0  0  0  0
  6 14  2  0  0  0  0
  7 15  2  0  0  0  0
  8 16  1  0  0  0  0
  9 17  1  0  0  0  0
 11 18  2  0  0  0  0
 12 19  1  0  0  0  0
 13 20  3  0  0  0  0
 15 21  1  0  0  0  0
 15 22  1  0  0  0  0
 16 21  2  0  0  0  0
 17 23  1  0  0  0  0
 17 24  1  0  0  0  0
 18 25  1  0  0  0  0
 18 26  1  0  0  0  0
 19 25  2  0  0  0  0
 22 27  1  0  0  0  0
 23 28  1  0  0  0  0
 24 29  1  0  0  0  0
 26 30  1  0  0  0  0
 26 31  1  0  0  0  0
 26 32  1  0  0  0  0
 28 29  1  0  0  0  0
M  END
> <CdId>
286

> <Mol Weight>
444.4462

> <Formula>
C24H23F3N2O3

> <Click_ID>
CLK004_E07 __ __ 

$$$$
