CLK039A10
 OpenBabel03181410512D

 18 19  0  0  0  0  0  0  0  0999 V2000
    0.0500    0.0667    0.0000 C   0  0  0  0  0  0  0  0  0  0  0  0
   -0.4333   -0.6000    0.0000 C   0  0  0  0  0  0  0  0  0  0  0  0
   -0.4333    0.7375    0.0000 O   0  0  0  0  0  0  0  0  0  0  0  0
   -1.2167   -0.3458    0.0000 C   0  0  0  0  0  0  0  0  0  0  0  0
   -1.2167    0.4792    0.0000 C   0  0  0  0  0  0  0  0  0  0  0  0
    0.8750    0.0667    0.0000 C   0  0  0  0  0  0  0  0  0  0  0  0
    2.5250    1.4958    0.0000 C   0  0  0  0  0  0  0  0  0  0  0  0
    2.9375    2.2125    0.0000 C   0  0  0  0  0  0  0  0  0  0  0  0
    1.2875   -0.6458    0.0000 O   0  0  0  0  0  0  0  0  0  0  0  0
    1.2875    0.7833    0.0000 N   0  0  0  0  0  0  0  0  0  0  0  0
   -0.1792   -1.3833    0.0000 C   0  0  0  0  0  0  0  0  0  0  0  0
    2.1125    0.7833    0.0000 C   0  0  0  0  0  0  0  0  0  0  0  0
   -1.9333   -0.7583    0.0000 C   0  0  0  0  0  0  0  0  0  0  0  0
   -1.9333    0.8917    0.0000 C   0  0  0  0  0  0  0  0  0  0  0  0
    0.6292   -1.5542    0.0000 O   0  0  0  0  0  0  0  0  0  0  0  0
    0.8833   -2.3417    0.0000 C   0  0  0  0  0  0  0  0  0  0  0  0
   -2.6458   -0.3458    0.0000 C   0  0  0  0  0  0  0  0  0  0  0  0
   -2.6458    0.4792    0.0000 C   0  0  0  0  0  0  0  0  0  0  0  0
  2  1  2  0  0  0  0
  3  1  1  0  0  0  0
  4  2  1  0  0  0  0
  4  5  2  0  0  0  0
  5  3  1  0  0  0  0
  6  1  1  0  0  0  0
  7 12  1  0  0  0  0
  8  7  3  0  0  0  0
  9  6  2  0  0  0  0
 10  6  1  0  0  0  0
 11  2  1  0  0  0  0
 12 10  1  0  0  0  0
 13  4  1  0  0  0  0
 14  5  1  0  0  0  0
 15 11  1  0  0  0  0
 16 15  1  0  0  0  0
 17 13  2  0  0  0  0
 17 18  1  0  0  0  0
 18 14  2  0  0  0  0
M  END
> <CdId>
2993

> <Mol Weight>
243.2579

> <Formula>
C14H13NO3

> <Click_ID>
CLK039A10 __ __ 

$$$$
