CLK025_F08
 OpenBabel03181410512D

 31 33  0  0  0  0  0  0  0  0999 V2000
    0.5534    2.6091    0.0000 C   0  0  0  0  0  0  0  0  0  0  0  0
    0.2097    1.8631    0.0000 N   0  0  0  0  0  0  0  0  0  0  0  0
    0.8285    1.3097    0.0000 C   0  0  0  0  0  0  0  0  0  0  0  0
    1.5434    1.7222    0.0000 C   0  0  0  0  0  0  0  0  0  0  0  0
    1.3681    2.5231    0.0000 S   0  0  0  0  0  0  0  0  0  0  0  0
    0.1409    3.3309    0.0000 N   0  0  0  0  0  0  0  0  0  0  0  0
    2.2550    1.3097    0.0000 C   0  0  0  0  0  0  0  0  0  0  0  0
   -3.1591    3.3413    0.0000 C   0  0  0  0  0  0  0  0  0  0  0  0
    1.5434   -3.2313    0.0000 C   0  0  0  0  0  0  0  0  0  0  0  0
    1.5434   -4.0563    0.0000 C   0  0  0  0  0  0  0  0  0  0  0  0
    2.9735   -0.7563    0.0000 C   0  0  0  0  0  0  0  0  0  0  0  0
    0.7460    0.4847    0.0000 O   0  0  0  0  0  0  0  0  0  0  0  0
   -2.3375    3.3413    0.0000 C   0  0  0  0  0  0  0  0  0  0  0  0
    2.2550    0.4847    0.0000 C   0  0  0  0  0  0  0  0  0  0  0  0
    2.9735    0.0757    0.0000 C   0  0  0  0  0  0  0  0  0  0  0  0
    2.2550   -1.1688    0.0000 C   0  0  0  0  0  0  0  0  0  0  0  0
   -3.5716    2.6332    0.0000 O   0  0  0  0  0  0  0  0  0  0  0  0
   -0.6909    3.3413    0.0000 C   0  0  0  0  0  0  0  0  0  0  0  0
   -0.6016    1.7084    0.0000 C   0  0  0  0  0  0  0  0  0  0  0  0
   -1.9250    2.6332    0.0000 C   0  0  0  0  0  0  0  0  0  0  0  0
   -1.9250    4.0563    0.0000 C   0  0  0  0  0  0  0  0  0  0  0  0
    1.5434   -0.7563    0.0000 C   0  0  0  0  0  0  0  0  0  0  0  0
    1.5434    0.0757    0.0000 C   0  0  0  0  0  0  0  0  0  0  0  0
   -3.5716    4.0528    0.0000 O   0  0  0  0  0  0  0  0  0  0  0  0
   -1.1000    4.0563    0.0000 C   0  0  0  0  0  0  0  0  0  0  0  0
   -1.1000    2.6332    0.0000 C   0  0  0  0  0  0  0  0  0  0  0  0
    3.6850   -1.1688    0.0000 O   0  0  0  0  0  0  0  0  0  0  0  0
    2.2550   -1.9938    0.0000 O   0  0  0  0  0  0  0  0  0  0  0  0
    1.5434   -2.4028    0.0000 C   0  0  0  0  0  0  0  0  0  0  0  0
   -4.4000    4.0528    0.0000 C   0  0  0  0  0  0  0  0  0  0  0  0
    4.3966   -0.7563    0.0000 C   0  0  0  0  0  0  0  0  0  0  0  0
  2  1  1  0  0  0  0
  3  2  1  0  0  0  0
  4  5  1  0  0  0  0
  4  3  1  0  0  0  0
  5  1  1  0  0  0  0
  6  1  2  0  0  0  0
  7  4  2  0  0  0  0
  8 13  1  0  0  0  0
  9 29  1  0  0  0  0
 10  9  3  0  0  0  0
 11 15  1  0  0  0  0
 11 16  2  0  0  0  0
 12  3  2  0  0  0  0
 13 20  1  0  0  0  0
 14  7  1  0  0  0  0
 15 14  2  0  0  0  0
 16 22  1  0  0  0  0
 17  8  2  0  0  0  0
 18  6  1  0  0  0  0
 19  2  1  0  0  0  0
 20 26  2  0  0  0  0
 21 25  1  0  0  0  0
 21 13  2  0  0  0  0
 22 23  2  0  0  0  0
 23 14  1  0  0  0  0
 24  8  1  0  0  0  0
 25 18  2  0  0  0  0
 26 18  1  0  0  0  0
 27 11  1  0  0  0  0
 28 16  1  0  0  0  0
 29 28  1  0  0  0  0
 30 24  1  0  0  0  0
 31 27  1  0  0  0  0
M  END
> <CdId>
1913

> <Mol Weight>
436.48

> <Formula>
C23H20N2O5S

> <Click_ID>
CLK025_F08 __ __ 

$$$$
