CLK018_E08
 OpenBabel03181410512D

 31 33  0  0  0  0  0  0  0  0999 V2000
    1.5585   -0.8124    0.0000 N   0  0  0  0  0  0  0  0  0  0  0  0
    1.8155   -1.5958    0.0000 C   0  0  0  0  0  0  0  0  0  0  0  0
    2.2258   -0.3275    0.0000 C   0  0  0  0  0  0  0  0  0  0  0  0
    2.8890   -0.8124    0.0000 C   0  0  0  0  0  0  0  0  0  0  0  0
    2.6362   -1.5958    0.0000 S   0  0  0  0  0  0  0  0  0  0  0  0
    3.6724   -0.5596    0.0000 C   0  0  0  0  0  0  0  0  0  0  0  0
    0.6093    0.2445    0.0000 C   0  0  0  0  0  0  0  0  0  0  0  0
    0.3897    1.0403    0.0000 C   0  0  0  0  0  0  0  0  0  0  0  0
    5.3138    3.7262    0.0000 C   0  0  0  0  0  0  0  0  0  0  0  0
    1.3305   -2.2549    0.0000 O   0  0  0  0  0  0  0  0  0  0  0  0
    3.4071    1.6041    0.0000 C   0  0  0  0  0  0  0  0  0  0  0  0
    2.2176    0.4932    0.0000 O   0  0  0  0  0  0  0  0  0  0  0  0
    4.1905    1.8610    0.0000 C   0  0  0  0  0  0  0  0  0  0  0  0
    3.8423    0.2445    0.0000 C   0  0  0  0  0  0  0  0  0  0  0  0
    6.0930    3.9791    0.0000 N   0  0  0  0  0  0  0  0  0  0  0  0
    0.7834   -0.5596    0.0000 C   0  0  0  0  0  0  0  0  0  0  0  0
    3.2330    0.7958    0.0000 C   0  0  0  0  0  0  0  0  0  0  0  0
    4.3563    2.6693    0.0000 O   0  0  0  0  0  0  0  0  0  0  0  0
    4.7003    4.2693    0.0000 O   0  0  0  0  0  0  0  0  0  0  0  0
    4.7998    1.3139    0.0000 C   0  0  0  0  0  0  0  0  0  0  0  0
    5.1397    2.9180    0.0000 C   0  0  0  0  0  0  0  0  0  0  0  0
    6.2589    4.7791    0.0000 C   0  0  0  0  0  0  0  0  0  0  0  0
    4.6299    0.4974    0.0000 C   0  0  0  0  0  0  0  0  0  0  0  0
    2.8020    2.1470    0.0000 O   0  0  0  0  0  0  0  0  0  0  0  0
    6.6070    6.3956    0.0000 C   0  0  0  0  0  0  0  0  0  0  0  0
    5.6496    5.3263    0.0000 C   0  0  0  0  0  0  0  0  0  0  0  0
    7.0547    5.0361    0.0000 C   0  0  0  0  0  0  0  0  0  0  0  0
    5.8236    6.1345    0.0000 C   0  0  0  0  0  0  0  0  0  0  0  0
    7.2246    5.8443    0.0000 C   0  0  0  0  0  0  0  0  0  0  0  0
    6.7769    7.2039    0.0000 C   0  0  0  0  0  0  0  0  0  0  0  0
    2.0186    1.8983    0.0000 C   0  0  0  0  0  0  0  0  0  0  0  0
  2  1  1  0  0  0  0
  3  1  1  0  0  0  0
  4  3  1  0  0  0  0
  4  5  1  0  0  0  0
  5  2  1  0  0  0  0
  6  4  2  0  0  0  0
  7 16  1  0  0  0  0
  8  7  3  0  0  0  0
  9 21  1  0  0  0  0
 10  2  2  0  0  0  0
 11 17  1  0  0  0  0
 12  3  2  0  0  0  0
 13 20  1  0  0  0  0
 13 11  2  0  0  0  0
 14  6  1  0  0  0  0
 15  9  1  0  0  0  0
 16  1  1  0  0  0  0
 17 14  2  0  0  0  0
 18 13  1  0  0  0  0
 19  9  2  0  0  0  0
 20 23  2  0  0  0  0
 21 18  1  0  0  0  0
 22 15  1  0  0  0  0
 23 14  1  0  0  0  0
 24 11  1  0  0  0  0
 25 29  1  0  0  0  0
 26 22  2  0  0  0  0
 27 22  1  0  0  0  0
 28 26  1  0  0  0  0
 28 25  2  0  0  0  0
 29 27  2  0  0  0  0
 30 25  1  0  0  0  0
 31 24  1  0  0  0  0
M  END
> <CdId>
1363

> <Mol Weight>
436.48

> <Formula>
C23H20N2O5S

> <Click_ID>
CLK018_E08 __ __ 

$$$$
