CLK007_H05
 OpenBabel03181410512D

 22 24  0  0  0  0  0  0  0  0999 V2000
   -0.5482    0.1198    0.0000 C   0  0  0  0  0  0  0  0  0  0  0  0
   -1.0253   -0.5421    0.0000 N   0  0  0  0  0  0  0  0  0  0  0  0
    0.2843    0.0771    0.0000 C   0  0  0  0  0  0  0  0  0  0  0  0
   -1.0253    0.7837    0.0000 N   0  0  0  0  0  0  0  0  0  0  0  0
   -1.8131   -0.2924    0.0000 C   0  0  0  0  0  0  0  0  0  0  0  0
   -0.7776   -1.3298    0.0000 C   0  0  0  0  0  0  0  0  0  0  0  0
    0.7187    0.7674    0.0000 C   0  0  0  0  0  0  0  0  0  0  0  0
    0.6720   -0.6517    0.0000 C   0  0  0  0  0  0  0  0  0  0  0  0
   -1.8131    0.5319    0.0000 C   0  0  0  0  0  0  0  0  0  0  0  0
   -2.5277   -0.7045    0.0000 C   0  0  0  0  0  0  0  0  0  0  0  0
    0.0325   -1.5024    0.0000 C   0  0  0  0  0  0  0  0  0  0  0  0
    1.5552    0.7350    0.0000 C   0  0  0  0  0  0  0  0  0  0  0  0
    1.4963   -0.6883    0.0000 C   0  0  0  0  0  0  0  0  0  0  0  0
   -2.5277    0.9441    0.0000 C   0  0  0  0  0  0  0  0  0  0  0  0
   -3.2363   -0.2924    0.0000 C   0  0  0  0  0  0  0  0  0  0  0  0
    0.8344   -1.6790    0.0000 C   0  0  0  0  0  0  0  0  0  0  0  0
    1.9410    0.0101    0.0000 C   0  0  0  0  0  0  0  0  0  0  0  0
    2.1318    1.3197    0.0000 O   0  0  0  0  0  0  0  0  0  0  0  0
   -3.2363    0.5319    0.0000 C   0  0  0  0  0  0  0  0  0  0  0  0
    2.7653    0.0101    0.0000 O   0  0  0  0  0  0  0  0  0  0  0  0
    2.9318    1.1167    0.0000 C   0  0  0  0  0  0  0  0  0  0  0  0
    3.1693    0.7309    0.0000 C   0  0  0  0  0  0  0  0  0  0  0  0
  1  2  1  0  0  0  0
  1  3  1  0  0  0  0
  1  4  2  0  0  0  0
  2  5  1  0  0  0  0
  2  6  1  0  0  0  0
  3  7  1  0  0  0  0
  3  8  2  0  0  0  0
  4  9  1  0  0  0  0
  5 10  2  0  0  0  0
  5  9  1  0  0  0  0
  6 11  1  0  0  0  0
  7 12  2  0  0  0  0
  8 13  1  0  0  0  0
  9 14  2  0  0  0  0
 10 15  1  0  0  0  0
 11 16  3  0  0  0  0
 12 17  1  0  0  0  0
 12 18  1  0  0  0  0
 13 17  2  0  0  0  0
 14 19  1  0  0  0  0
 15 19  2  0  0  0  0
 17 20  1  0  0  0  0
 18 21  1  0  0  0  0
 20 22  1  0  0  0  0
M  END
> <CdId>
554

> <Mol Weight>
292.3318

> <Formula>
C18H16N2O2

> <Click_ID>
CLK007_H05 __ __ 

$$$$
