CLK044G03
 OpenBabel03181410512D

 18 19  0  0  0  0  0  0  0  0999 V2000
    2.3042   -0.7375    0.0000 N   0  0  0  0  0  0  0  0  0  0  0  0
    2.3042    0.0875    0.0000 C   0  0  0  0  0  0  0  0  0  0  0  0
    1.0333   -0.3250    0.0000 C   0  0  0  0  0  0  0  0  0  0  0  0
    1.5208   -0.9917    0.0000 C   0  0  0  0  0  0  0  0  0  0  0  0
    1.5208    0.3417    0.0000 S   0  0  0  0  0  0  0  0  0  0  0  0
    0.2083   -0.3250    0.0000 C   0  0  0  0  0  0  0  0  0  0  0  0
   -0.2042    0.3917    0.0000 C   0  0  0  0  0  0  0  0  0  0  0  0
   -2.6792   -1.0375    0.0000 C   0  0  0  0  0  0  0  0  0  0  0  0
   -3.0917   -1.7542    0.0000 C   0  0  0  0  0  0  0  0  0  0  0  0
    2.9708    0.5750    0.0000 S   0  0  0  0  0  0  0  0  0  0  0  0
    1.2667   -1.7750    0.0000 O   0  0  0  0  0  0  0  0  0  0  0  0
   -1.0292    0.3917    0.0000 C   0  0  0  0  0  0  0  0  0  0  0  0
   -1.4417   -0.3250    0.0000 O   0  0  0  0  0  0  0  0  0  0  0  0
   -2.2667   -0.3250    0.0000 C   0  0  0  0  0  0  0  0  0  0  0  0
    0.2083    1.1042    0.0000 C   0  0  0  0  0  0  0  0  0  0  0  0
   -1.4417    1.1042    0.0000 C   0  0  0  0  0  0  0  0  0  0  0  0
   -0.2042    1.8208    0.0000 C   0  0  0  0  0  0  0  0  0  0  0  0
   -1.0292    1.8208    0.0000 C   0  0  0  0  0  0  0  0  0  0  0  0
  2  1  1  0  0  0  0
  3  4  1  0  0  0  0
  3  5  1  0  0  0  0
  4  1  1  0  0  0  0
  5  2  1  0  0  0  0
  6  3  2  0  0  0  0
  7  6  1  0  0  0  0
  8 14  1  0  0  0  0
  9  8  3  0  0  0  0
 10  2  2  0  0  0  0
 11  4  2  0  0  0  0
 12  7  2  0  0  0  0
 13 12  1  0  0  0  0
 14 13  1  0  0  0  0
 15  7  1  0  0  0  0
 16 12  1  0  0  0  0
 17 15  2  0  0  0  0
 18 16  2  0  0  0  0
 18 17  1  0  0  0  0
M  END
> <CdId>
3343

> <Mol Weight>
275.346

> <Formula>
C13H9NO2S2

> <Click_ID>
CLK044G03 __ __ 

$$$$
