CLK023_G08
 OpenBabel03181410512D

 25 26  0  0  0  0  0  0  0  0999 V2000
   -1.8178    0.5120    0.0000 N   0  0  0  0  0  0  0  0  0  0  0  0
   -2.0686    1.2989    0.0000 C   0  0  0  0  0  0  0  0  0  0  0  0
   -0.9931    0.5120    0.0000 C   0  0  0  0  0  0  0  0  0  0  0  0
   -0.7319    1.2989    0.0000 C   0  0  0  0  0  0  0  0  0  0  0  0
   -1.4055    1.7800    0.0000 S   0  0  0  0  0  0  0  0  0  0  0  0
    0.0550    1.5498    0.0000 C   0  0  0  0  0  0  0  0  0  0  0  0
   -2.8556    1.5498    0.0000 N   0  0  0  0  0  0  0  0  0  0  0  0
    2.9449   -2.0274    0.0000 C   0  0  0  0  0  0  0  0  0  0  0  0
    3.5222   -2.6116    0.0000 C   0  0  0  0  0  0  0  0  0  0  0  0
    2.0583    0.6907    0.0000 C   0  0  0  0  0  0  0  0  0  0  0  0
   -0.5051   -0.1581    0.0000 O   0  0  0  0  0  0  0  0  0  0  0  0
    0.6598    1.0000    0.0000 C   0  0  0  0  0  0  0  0  0  0  0  0
    1.4467    1.2508    0.0000 C   0  0  0  0  0  0  0  0  0  0  0  0
    1.8831   -0.1099    0.0000 C   0  0  0  0  0  0  0  0  0  0  0  0
   -2.3057   -0.1581    0.0000 C   0  0  0  0  0  0  0  0  0  0  0  0
    1.1099   -0.3643    0.0000 C   0  0  0  0  0  0  0  0  0  0  0  0
    0.4948    0.1856    0.0000 C   0  0  0  0  0  0  0  0  0  0  0  0
    2.8487    0.9519    0.0000 O   0  0  0  0  0  0  0  0  0  0  0  0
    2.4982   -0.6632    0.0000 O   0  0  0  0  0  0  0  0  0  0  0  0
    2.3298   -1.4707    0.0000 C   0  0  0  0  0  0  0  0  0  0  0  0
   -3.0308    2.3539    0.0000 C   0  0  0  0  0  0  0  0  0  0  0  0
    3.0240    1.7560    0.0000 C   0  0  0  0  0  0  0  0  0  0  0  0
   -3.1236   -0.0722    0.0000 C   0  0  0  0  0  0  0  0  0  0  0  0
   -3.8108    2.6150    0.0000 C   0  0  0  0  0  0  0  0  0  0  0  0
    3.8074    2.0068    0.0000 C   0  0  0  0  0  0  0  0  0  0  0  0
  2  1  1  0  0  0  0
  3  1  1  0  0  0  0
  4  3  1  0  0  0  0
  4  5  1  0  0  0  0
  5  2  1  0  0  0  0
  6  4  2  0  0  0  0
  7  2  2  0  0  0  0
  8 20  1  0  0  0  0
  9  8  3  0  0  0  0
 10 13  1  0  0  0  0
 10 14  2  0  0  0  0
 11  3  2  0  0  0  0
 12  6  1  0  0  0  0
 13 12  2  0  0  0  0
 14 16  1  0  0  0  0
 15  1  1  0  0  0  0
 16 17  2  0  0  0  0
 17 12  1  0  0  0  0
 18 10  1  0  0  0  0
 19 14  1  0  0  0  0
 20 19  1  0  0  0  0
 21  7  1  0  0  0  0
 22 18  1  0  0  0  0
 23 15  1  0  0  0  0
 24 21  1  0  0  0  0
 25 22  1  0  0  0  0
M  END
> <CdId>
1763

> <Mol Weight>
358.455

> <Formula>
C19H22N2O3S

> <Click_ID>
CLK023_G08 __ __ 

$$$$
