CLK004_C03
 OpenBabel03181410512D

 18 18  0  0  0  0  0  0  0  0999 V2000
    0.0111    0.8169    0.0000 C   0  0  0  0  0  0  0  0  0  0  0  0
   -0.7049    0.4028    0.0000 N   0  0  0  0  0  0  0  0  0  0  0  0
    0.7198    0.4028    0.0000 N   0  0  0  0  0  0  0  0  0  0  0  0
    0.0111    1.6560    0.0000 O   0  0  0  0  0  0  0  0  0  0  0  0
   -0.7273   -0.4215    0.0000 C   0  0  0  0  0  0  0  0  0  0  0  0
    0.7198   -0.4215    0.0000 C   0  0  0  0  0  0  0  0  0  0  0  0
    0.7198    2.0663    0.0000 C   0  0  0  0  0  0  0  0  0  0  0  0
    0.0111   -0.8318    0.0000 N   0  0  0  0  0  0  0  0  0  0  0  0
   -1.4621   -0.8318    0.0000 O   0  0  0  0  0  0  0  0  0  0  0  0
    1.4360   -0.8318    0.0000 O   0  0  0  0  0  0  0  0  0  0  0  0
    0.7198    2.8906    0.0000 C   0  0  0  0  0  0  0  0  0  0  0  0
   -2.1522   -0.3991    0.0000 C   0  0  0  0  0  0  0  0  0  0  0  0
    1.4360   -1.6710    0.0000 C   0  0  0  0  0  0  0  0  0  0  0  0
    0.7198    3.7224    0.0000 C   0  0  0  0  0  0  0  0  0  0  0  0
   -2.8682   -0.7870    0.0000 C   0  0  0  0  0  0  0  0  0  0  0  0
    2.1522   -2.0850    0.0000 C   0  0  0  0  0  0  0  0  0  0  0  0
   -3.6068   -1.1787    0.0000 C   0  0  0  0  0  0  0  0  0  0  0  0
    2.8646   -2.4953    0.0000 C   0  0  0  0  0  0  0  0  0  0  0  0
  1  2  2  0  0  0  0
  1  3  1  0  0  0  0
  1  4  1  0  0  0  0
  2  5  1  0  0  0  0
  3  6  2  0  0  0  0
  4  7  1  0  0  0  0
  5  8  2  0  0  0  0
  5  9  1  0  0  0  0
  6 10  1  0  0  0  0
  6  8  1  0  0  0  0
  7 11  1  0  0  0  0
  9 12  1  0  0  0  0
 10 13  1  0  0  0  0
 11 14  3  0  0  0  0
 12 15  1  0  0  0  0
 13 16  1  0  0  0  0
 15 17  3  0  0  0  0
 16 18  3  0  0  0  0
M  END
> <CdId>
262

> <Mol Weight>
243.2182

> <Formula>
C12H9N3O3

> <Click_ID>
CLK004_C03 __ __ 

$$$$
