CLK027_H04
 OpenBabel03181410512D

 25 27  0  0  0  0  0  0  0  0999 V2000
   -1.1480   -0.2716    0.0000 C    0  0  3  0  0  0  0  0  0  0  0  0
   -1.7048   -0.8867    0.0000 C    0  0  0  0  0  0  0  0  0  0  0  0
   -1.5673    0.4468    0.0000 C    0  0  0  0  0  0  0  0  0  0  0  0
   -2.4575   -0.5603    0.0000 N    0  0  0  0  0  0  0  0  0  0  0  0
   -2.3784    0.2612    0.0000 C    0  0  0  0  0  0  0  0  0  0  0  0
   -0.4331    0.1375    0.0000 C    0  0  0  0  0  0  0  0  0  0  0  0
    0.2784   -0.2716    0.0000 C    0  0  0  0  0  0  0  0  0  0  0  0
   -3.1620   -1.7941    0.0000 C    0  0  0  0  0  0  0  0  0  0  0  0
   -2.9249    0.8730    0.0000 C    0  0  0  0  0  0  0  0  0  0  0  0
   -3.1690   -2.6190    0.0000 C    0  0  0  0  0  0  0  0  0  0  0  0
   -1.3060    1.2202    0.0000 C    0  0  0  0  0  0  0  0  0  0  0  0
   -1.5432   -1.6945    0.0000 O    0  0  0  0  0  0  0  0  0  0  0  0
    1.0002    0.1375    0.0000 C    0  0  0  0  0  0  0  0  0  0  0  0
   -3.1690   -0.9727    0.0000 C    0  0  0  0  0  0  0  0  0  0  0  0
   -0.7459   -0.9864    0.0000 O    0  0  0  0  0  0  0  0  0  0  0  0
    0.2784   -1.0861    0.0000 O    0  0  0  0  0  0  0  0  0  0  0  0
    1.0105    0.9589    0.0000 C    0  0  0  0  0  0  0  0  0  0  0  0
    1.7116   -0.2956    0.0000 C    0  0  0  0  0  0  0  0  0  0  0  0
   -1.8663    1.8354    0.0000 C    0  0  0  0  0  0  0  0  0  0  0  0
   -2.6774    1.6601    0.0000 C    0  0  0  0  0  0  0  0  0  0  0  0
    2.4472    0.9348    0.0000 C    0  0  0  0  0  0  0  0  0  0  0  0
    2.4334    0.1031    0.0000 C    0  0  0  0  0  0  0  0  0  0  0  0
    1.7323    1.3576    0.0000 C    0  0  0  0  0  0  0  0  0  0  0  0
   -1.6188    2.6225    0.0000 Br   0  0  0  0  0  0  0  0  0  0  0  0
    3.1655    1.3336    0.0000 Br   0  0  0  0  0  0  0  0  0  0  0  0
  2  1  1  0  0  0  0
  3  1  1  0  0  0  0
  4  2  1  0  0  0  0
  4  5  1  0  0  0  0
  5  3  2  0  0  0  0
  6  1  1  0  0  0  0
  7  6  1  0  0  0  0
  8 14  1  0  0  0  0
  9  5  1  0  0  0  0
 10  8  3  0  0  0  0
 11  3  1  0  0  0  0
 12  2  2  0  0  0  0
 13  7  1  0  0  0  0
 14  4  1  0  0  0  0
 15  1  1  0  0  0  0
 16  7  2  0  0  0  0
 17 13  1  0  0  0  0
 18 13  2  0  0  0  0
 19 11  2  0  0  0  0
 20 19  1  0  0  0  0
 20  9  2  0  0  0  0
 21 22  2  0  0  0  0
 21 23  1  0  0  0  0
 22 18  1  0  0  0  0
 23 17  2  0  0  0  0
 24 19  1  0  0  0  0
 25 21  1  0  0  0  0
M  END
> <CdId>
2080

> <Mol Weight>
463.119

> <Formula>
C19H13Br2NO3

> <Click_ID>
CLK027_H04 __ __ 

$$$$
