CLK038E08
 OpenBabel03181410512D

 24 26  0  0  0  0  0  0  0  0999 V2000
    0.4626   -0.7794    0.0000 N   0  0  0  0  0  0  0  0  0  0  0  0
    1.1460    0.3668    0.0000 C   0  0  3  0  0  0  0  0  0  0  0  0
    1.2670   -0.9627    0.0000 C   0  0  0  0  0  0  0  0  0  0  0  0
    0.3876    0.0417    0.0000 C   0  0  0  0  0  0  0  0  0  0  0  0
    1.6921   -0.2543    0.0000 N   0  0  0  0  0  0  0  0  0  0  0  0
    0.5043    0.8835    0.0000 C   0  0  0  0  0  0  0  0  0  0  0  0
   -0.1583   -1.3211    0.0000 C   0  0  0  0  0  0  0  0  0  0  0  0
   -2.9631   -1.8754    0.0000 C   0  0  0  0  0  0  0  0  0  0  0  0
   -3.5841   -2.4172    0.0000 C   0  0  0  0  0  0  0  0  0  0  0  0
   -0.9377   -1.0544    0.0000 C   0  0  0  0  0  0  0  0  0  0  0  0
    1.5920   -1.7212    0.0000 O   0  0  0  0  0  0  0  0  0  0  0  0
   -0.0333   -0.6668    0.0000 O   0  0  0  0  0  0  0  0  0  0  0  0
    0.5043    1.7087    0.0000 C   0  0  0  0  0  0  0  0  0  0  0  0
   -1.1002   -0.2459    0.0000 O   0  0  0  0  0  0  0  0  0  0  0  0
   -1.5628   -1.6003    0.0000 N   0  0  0  0  0  0  0  0  0  0  0  0
    1.9504    0.5501    0.0000 C   0  0  0  0  0  0  0  0  0  0  0  0
   -2.3422   -1.3295    0.0000 C   0  0  0  0  0  0  0  0  0  0  0  0
   -0.2125    0.4709    0.0000 C   0  0  0  0  0  0  0  0  0  0  0  0
    1.1460    2.2213    0.0000 C   0  0  0  0  0  0  0  0  0  0  0  0
   -0.2125    2.1212    0.0000 C   0  0  0  0  0  0  0  0  0  0  0  0
    2.3088    1.2961    0.0000 C   0  0  0  0  0  0  0  0  0  0  0  0
   -0.9252    0.8835    0.0000 C   0  0  0  0  0  0  0  0  0  0  0  0
   -0.9252    1.7087    0.0000 C   0  0  0  0  0  0  0  0  0  0  0  0
    1.9504    2.0379    0.0000 C   0  0  0  0  0  0  0  0  0  0  0  0
  2  4  1  0  0  0  0
  2  5  1  0  0  0  0
  3  1  1  0  0  0  0
  4  1  1  0  0  0  0
  5  3  1  0  0  0  0
  6  2  1  0  0  0  0
  7  1  1  0  0  0  0
  8 17  1  0  0  0  0
  9  8  3  0  0  0  0
 10  7  1  0  0  0  0
 11  3  2  0  0  0  0
 12  4  2  0  0  0  0
 13  6  2  0  0  0  0
 14 10  2  0  0  0  0
 15 10  1  0  0  0  0
 16  2  1  0  0  0  0
 17 15  1  0  0  0  0
 18  6  1  0  0  0  0
 19 13  1  0  0  0  0
 19 24  1  0  0  0  0
 20 13  1  0  0  0  0
 21 16  1  0  0  0  0
 22 18  2  0  0  0  0
 22 23  1  0  0  0  0
 23 20  2  0  0  0  0
 24 21  1  0  0  0  0
M  END
> <CdId>
2901

> <Mol Weight>
325.3618

> <Formula>
C18H19N3O3

> <Click_ID>
CLK038E08 __ __ 

$$$$
