CLK034_D03
 OpenBabel03181410512D

 27 29  0  0  0  0  0  0  0  0999 V2000
   -4.5932    2.5568    0.0000 C   0  0  0  0  0  0  0  0  0  0  0  0
   -3.8603    2.9816    0.0000 N   0  0  0  0  0  0  0  0  0  0  0  0
   -4.6806    1.7323    0.0000 N   0  0  0  0  0  0  0  0  0  0  0  0
   -5.3177    2.8941    0.0000 S   0  0  0  0  0  0  0  0  0  0  0  0
   -5.4844    1.5824    0.0000 C   0  0  0  0  0  0  0  0  0  0  0  0
   -5.8924    2.2987    0.0000 C   0  0  0  0  0  0  0  0  0  0  0  0
   -3.8686    3.7978    0.0000 C   0  0  0  0  0  0  0  0  0  0  0  0
   -3.1565    4.2101    0.0000 C   0  0  0  0  0  0  0  0  0  0  0  0
   -4.2559    0.3581    0.0000 C   0  0  0  0  0  0  0  0  0  0  0  0
   -4.4433   -0.4539    0.0000 C   0  0  0  0  0  0  0  0  0  0  0  0
   -3.1482    5.0388    0.0000 C   0  0  0  0  0  0  0  0  0  0  0  0
   -2.4319    5.4511    0.0000 C   0  0  0  0  0  0  0  0  0  0  0  0
   -5.9174    0.8828    0.0000 C   0  0  0  0  0  0  0  0  0  0  0  0
   -4.5807    4.2143    0.0000 O   0  0  0  0  0  0  0  0  0  0  0  0
   -1.7115    5.0263    0.0000 C   0  0  0  0  0  0  0  0  0  0  0  0
   -4.0685    1.1618    0.0000 C   0  0  0  0  0  0  0  0  0  0  0  0
   -2.4361    3.8061    0.0000 C   0  0  0  0  0  0  0  0  0  0  0  0
   -1.7198    4.2101    0.0000 C   0  0  0  0  0  0  0  0  0  0  0  0
   -2.4319    6.2756    0.0000 O   0  0  0  0  0  0  0  0  0  0  0  0
   -6.7004    2.3195    0.0000 C   0  0  0  0  0  0  0  0  0  0  0  0
   -5.5176    0.1457    0.0000 O   0  0  0  0  0  0  0  0  0  0  0  0
   -0.9952    5.4469    0.0000 O   0  0  0  0  0  0  0  0  0  0  0  0
   -7.1376    1.6199    0.0000 C   0  0  0  0  0  0  0  0  0  0  0  0
   -6.7253    0.8870    0.0000 C   0  0  0  0  0  0  0  0  0  0  0  0
   -3.1440    6.6879    0.0000 C   0  0  0  0  0  0  0  0  0  0  0  0
   -5.9549   -0.5539    0.0000 C   0  0  0  0  0  0  0  0  0  0  0  0
   -0.2831    5.0263    0.0000 C   0  0  0  0  0  0  0  0  0  0  0  0
  2  1  2  0  0  0  0
  3  1  1  0  0  0  0
  4  1  1  0  0  0  0
  5  3  1  0  0  0  0
  6  4  1  0  0  0  0
  6  5  2  0  0  0  0
  7  2  1  0  0  0  0
  8  7  1  0  0  0  0
  9 16  1  0  0  0  0
 10  9  3  0  0  0  0
 11  8  1  0  0  0  0
 12 11  2  0  0  0  0
 12 15  1  0  0  0  0
 13  5  1  0  0  0  0
 14  7  2  0  0  0  0
 15 18  2  0  0  0  0
 16  3  1  0  0  0  0
 17  8  2  0  0  0  0
 18 17  1  0  0  0  0
 19 12  1  0  0  0  0
 20  6  1  0  0  0  0
 21 13  1  0  0  0  0
 22 15  1  0  0  0  0
 23 20  2  0  0  0  0
 24 13  2  0  0  0  0
 24 23  1  0  0  0  0
 25 19  1  0  0  0  0
 26 21  1  0  0  0  0
 27 22  1  0  0  0  0
M  END
> <CdId>
2597

> <Mol Weight>
382.433

> <Formula>
C20H18N2O4S

> <Click_ID>
CLK034_D03 __ __ 

$$$$
