CLK051C02
 OpenBabel03181410512D

 20 22  0  0  0  0  0  0  0  0999 V2000
   -1.2667   -1.1292    0.0000 O   0  0  0  0  0  0  0  0  0  0  0  0
    0.0417   -0.4625    0.0000 C   0  0  0  0  0  0  0  0  0  0  0  0
   -0.7833   -0.4625    0.0000 C   0  0  3  0  0  0  0  0  0  0  0  0
    0.4542    0.2542    0.0000 N   0  0  0  0  0  0  0  0  0  0  0  0
   -2.0500   -0.8750    0.0000 C   0  0  0  0  0  0  0  0  0  0  0  0
    2.9292    1.6792    0.0000 C   0  0  0  0  0  0  0  0  0  0  0  0
   -1.2667    0.2042    0.0000 C   0  0  0  0  0  0  0  0  0  0  0  0
   -2.0500   -0.0500    0.0000 C   0  0  0  0  0  0  0  0  0  0  0  0
    3.3417    2.3958    0.0000 C   0  0  0  0  0  0  0  0  0  0  0  0
    0.4542   -1.1750    0.0000 O   0  0  0  0  0  0  0  0  0  0  0  0
    1.2792    0.2542    0.0000 C   0  0  0  0  0  0  0  0  0  0  0  0
    2.5167    0.9667    0.0000 C   0  0  0  0  0  0  0  0  0  0  0  0
    1.6917    0.9667    0.0000 C   0  0  0  0  0  0  0  0  0  0  0  0
    2.5167   -0.4625    0.0000 C   0  0  0  0  0  0  0  0  0  0  0  0
   -2.7667   -1.2875    0.0000 C   0  0  0  0  0  0  0  0  0  0  0  0
   -2.7667    0.3625    0.0000 C   0  0  0  0  0  0  0  0  0  0  0  0
    1.6917   -0.4625    0.0000 C   0  0  0  0  0  0  0  0  0  0  0  0
    2.9292    0.2542    0.0000 C   0  0  0  0  0  0  0  0  0  0  0  0
   -3.4792   -0.8750    0.0000 C   0  0  0  0  0  0  0  0  0  0  0  0
   -3.4792   -0.0500    0.0000 C   0  0  0  0  0  0  0  0  0  0  0  0
  2  3  1  0  0  0  0
  3  1  1  0  0  0  0
  4  2  1  0  0  0  0
  5  1  1  0  0  0  0
  6 12  1  0  0  0  0
  7  3  1  0  0  0  0
  8  5  2  0  0  0  0
  8  7  1  0  0  0  0
  9  6  3  0  0  0  0
 10  2  2  0  0  0  0
 11  4  1  0  0  0  0
 12 13  1  0  0  0  0
 13 11  2  0  0  0  0
 14 17  2  0  0  0  0
 15  5  1  0  0  0  0
 16  8  1  0  0  0  0
 17 11  1  0  0  0  0
 18 12  2  0  0  0  0
 18 14  1  0  0  0  0
 19 15  2  0  0  0  0
 19 20  1  0  0  0  0
 20 16  2  0  0  0  0
M  END
> <CdId>
3891

> <Mol Weight>
263.2906

> <Formula>
C17H13NO2

> <Click_ID>
CLK051C02 __ __ 

$$$$
