CLK035_C08
 OpenBabel03181410512D

 24 26  0  0  0  0  0  0  0  0999 V2000
   -4.6001    2.5606    0.0000 C   0  0  0  0  0  0  0  0  0  0  0  0
   -4.6919    1.7349    0.0000 N   0  0  0  0  0  0  0  0  0  0  0  0
   -3.8661    2.9861    0.0000 N   0  0  0  0  0  0  0  0  0  0  0  0
   -5.3258    2.9027    0.0000 S   0  0  0  0  0  0  0  0  0  0  0  0
   -5.5010    1.5848    0.0000 C   0  0  0  0  0  0  0  0  0  0  0  0
   -5.9013    2.3105    0.0000 C   0  0  0  0  0  0  0  0  0  0  0  0
   -3.8745    3.8036    0.0000 C   0  0  0  0  0  0  0  0  0  0  0  0
   -4.2747    0.3587    0.0000 C   0  0  0  0  0  0  0  0  0  0  0  0
   -4.4624   -0.4547    0.0000 C   0  0  0  0  0  0  0  0  0  0  0  0
   -5.9305    0.8841    0.0000 C   0  0  0  0  0  0  0  0  0  0  0  0
   -4.0872    1.1636    0.0000 C   0  0  0  0  0  0  0  0  0  0  0  0
   -4.5876    4.2164    0.0000 O   0  0  0  0  0  0  0  0  0  0  0  0
   -3.1612    5.0214    0.0000 O   0  0  0  0  0  0  0  0  0  0  0  0
   -3.1612    4.2164    0.0000 C   0  0  0  0  0  0  0  0  0  0  0  0
   -6.7188    2.3355    0.0000 C   0  0  0  0  0  0  0  0  0  0  0  0
   -2.4356    5.4468    0.0000 C   0  0  0  0  0  0  0  0  0  0  0  0
   -7.1484    1.6265    0.0000 C   0  0  0  0  0  0  0  0  0  0  0  0
   -6.7355    0.8966    0.0000 C   0  0  0  0  0  0  0  0  0  0  0  0
   -5.5385    0.1501    0.0000 C   0  0  0  0  0  0  0  0  0  0  0  0
   -1.7224    5.0339    0.0000 C   0  0  0  0  0  0  0  0  0  0  0  0
   -2.4481    6.2683    0.0000 C   0  0  0  0  0  0  0  0  0  0  0  0
   -1.7266    6.6854    0.0000 C   0  0  0  0  0  0  0  0  0  0  0  0
   -1.0092    5.4468    0.0000 C   0  0  0  0  0  0  0  0  0  0  0  0
   -1.0092    6.2683    0.0000 C   0  0  0  0  0  0  0  0  0  0  0  0
  2  1  1  0  0  0  0
  3  1  2  0  0  0  0
  4  1  1  0  0  0  0
  5  2  1  0  0  0  0
  6  4  1  0  0  0  0
  6  5  2  0  0  0  0
  7  3  1  0  0  0  0
  8 11  1  0  0  0  0
  9  8  3  0  0  0  0
 10  5  1  0  0  0  0
 11  2  1  0  0  0  0
 12  7  2  0  0  0  0
 13 14  1  0  0  0  0
 14  7  1  0  0  0  0
 15  6  1  0  0  0  0
 16 13  1  0  0  0  0
 17 15  2  0  0  0  0
 18 10  2  0  0  0  0
 18 17  1  0  0  0  0
 19 10  1  0  0  0  0
 20 16  2  0  0  0  0
 21 16  1  0  0  0  0
 22 21  2  0  0  0  0
 23 20  1  0  0  0  0
 23 24  2  0  0  0  0
 24 22  1  0  0  0  0
M  END
> <CdId>
2672

> <Mol Weight>
336.408

> <Formula>
C19H16N2O2S

> <Click_ID>
CLK035_C08 __ __ 

$$$$
