CLK018_B08
 OpenBabel03181410512D

 28 30  0  0  0  0  0  0  0  0999 V2000
    1.5691   -0.8179    0.0000 N   0  0  0  0  0  0  0  0  0  0  0  0
    1.8278   -1.6066    0.0000 C   0  0  0  0  0  0  0  0  0  0  0  0
    2.2409   -0.3297    0.0000 C   0  0  0  0  0  0  0  0  0  0  0  0
    2.9086   -0.8179    0.0000 C   0  0  0  0  0  0  0  0  0  0  0  0
    2.6540   -1.6066    0.0000 S   0  0  0  0  0  0  0  0  0  0  0  0
    7.1149    4.9992    0.0000 N   0  3  0  0  0  0  0  0  0  0  0  0
    3.6973   -0.5633    0.0000 C   0  0  0  0  0  0  0  0  0  0  0  0
    6.3137    4.7572    0.0000 C   0  0  0  0  0  0  0  0  0  0  0  0
    0.6134    0.2462    0.0000 C   0  0  0  0  0  0  0  0  0  0  0  0
    0.3923    1.0474    0.0000 C   0  0  0  0  0  0  0  0  0  0  0  0
    7.7158    4.4442    0.0000 O   0  5  0  0  0  0  0  0  0  0  0  0
    1.3395   -2.2701    0.0000 O   0  0  0  0  0  0  0  0  0  0  0  0
    7.2902    5.8004    0.0000 O   0  0  0  0  0  0  0  0  0  0  0  0
    2.2326    0.4965    0.0000 O   0  0  0  0  0  0  0  0  0  0  0  0
    0.7887   -0.5633    0.0000 C   0  0  0  0  0  0  0  0  0  0  0  0
    6.1385    3.9643    0.0000 C   0  0  0  0  0  0  0  0  0  0  0  0
    3.8600    0.2462    0.0000 C   0  0  0  0  0  0  0  0  0  0  0  0
    4.3983    2.6623    0.0000 O   0  0  0  0  0  0  0  0  0  0  0  0
    4.2105    1.8528    0.0000 C   0  0  0  0  0  0  0  0  0  0  0  0
    5.3581    3.7181    0.0000 C   0  0  0  0  0  0  0  0  0  0  0  0
    5.1745    2.9252    0.0000 C   0  0  0  0  0  0  0  0  0  0  0  0
    4.6445    0.5008    0.0000 C   0  0  0  0  0  0  0  0  0  0  0  0
    3.2466    0.8095    0.0000 C   0  0  0  0  0  0  0  0  0  0  0  0
    3.4219    1.6107    0.0000 C   0  0  0  0  0  0  0  0  0  0  0  0
    4.8115    1.3103    0.0000 C   0  0  0  0  0  0  0  0  0  0  0  0
    5.7211    5.3205    0.0000 C   0  0  0  0  0  0  0  0  0  0  0  0
    4.9241    5.0618    0.0000 C   0  0  0  0  0  0  0  0  0  0  0  0
    4.7489    4.2606    0.0000 C   0  0  0  0  0  0  0  0  0  0  0  0
  2  1  1  0  0  0  0
  3  1  1  0  0  0  0
  4  3  1  0  0  0  0
  4  5  1  0  0  0  0
  5  2  1  0  0  0  0
  6  8  1  0  0  0  0
  7  4  2  0  0  0  0
  8 16  1  0  0  0  0
  8 26  2  0  0  0  0
  9 15  1  0  0  0  0
 10  9  3  0  0  0  0
 11  6  1  0  0  0  0
 12  2  2  0  0  0  0
 13  6  2  0  0  0  0
 14  3  2  0  0  0  0
 15  1  1  0  0  0  0
 16 20  2  0  0  0  0
 17  7  1  0  0  0  0
 18 19  1  0  0  0  0
 19 24  2  0  0  0  0
 19 25  1  0  0  0  0
 20 21  1  0  0  0  0
 21 18  1  0  0  0  0
 22 17  1  0  0  0  0
 23 17  2  0  0  0  0
 24 23  1  0  0  0  0
 25 22  2  0  0  0  0
 26 27  1  0  0  0  0
 27 28  2  0  0  0  0
 28 20  1  0  0  0  0
M  END
> <CdId>
1333

> <Mol Weight>
394.401

> <Formula>
C20H14N2O5S

> <Click_ID>
CLK018_B08 __ __ 

$$$$
