CLK014_E04
 OpenBabel03181410512D

 25 27  0  0  0  0  0  0  0  0999 V2000
    1.5667   -0.8167    0.0000 N   0  0  0  0  0  0  0  0  0  0  0  0
    1.8250   -1.6042    0.0000 C   0  0  0  0  0  0  0  0  0  0  0  0
    2.9042   -0.8167    0.0000 C   0  0  0  0  0  0  0  0  0  0  0  0
    2.2375   -0.3292    0.0000 C   0  0  0  0  0  0  0  0  0  0  0  0
    2.6500   -1.6042    0.0000 S   0  0  0  0  0  0  0  0  0  0  0  0
    3.9750   -0.4667    0.0000 C   0  0  0  0  0  0  0  0  0  0  0  0
    4.1500    0.3375    0.0000 C   0  0  0  0  0  0  0  0  0  0  0  0
    4.9292    0.5958    0.0000 C   0  0  0  0  0  0  0  0  0  0  0  0
    0.6125    0.2458    0.0000 C   0  0  0  0  0  0  0  0  0  0  0  0
    2.3167    1.9958    0.0000 C   0  0  0  0  0  0  0  0  0  0  0  0
    2.4875    2.8000    0.0000 C   0  0  0  0  0  0  0  0  0  0  0  0
    0.3917    1.0458    0.0000 C   0  0  0  0  0  0  0  0  0  0  0  0
    1.3375   -2.2667    0.0000 O   0  0  0  0  0  0  0  0  0  0  0  0
    3.5375    0.8875    0.0000 C   0  0  0  0  0  0  0  0  0  0  0  0
    2.2292    0.4958    0.0000 O   0  0  0  0  0  0  0  0  0  0  0  0
    0.7875   -0.5625    0.0000 C   0  0  0  0  0  0  0  0  0  0  0  0
    5.1042    1.3958    0.0000 C   0  0  0  0  0  0  0  0  0  0  0  0
    3.7042    1.6958    0.0000 C   0  0  0  0  0  0  0  0  0  0  0  0
    4.4917    1.9583    0.0000 C   0  0  0  0  0  0  0  0  0  0  0  0
    2.7542    0.6375    0.0000 O   0  0  0  0  0  0  0  0  0  0  0  0
    2.1417    1.1958    0.0000 C   0  0  0  0  0  0  0  0  0  0  0  0
    5.5417    0.0333    0.0000 C   0  0  0  0  0  0  0  0  0  0  0  0
    5.8792    1.6500    0.0000 C   0  0  0  0  0  0  0  0  0  0  0  0
    6.3167    0.3000    0.0000 C   0  0  0  0  0  0  0  0  0  0  0  0
    6.4875    1.1083    0.0000 C   0  0  0  0  0  0  0  0  0  0  0  0
  2  1  1  0  0  0  0
  3  4  1  0  0  0  0
  3  5  1  0  0  0  0
  4  1  1  0  0  0  0
  5  2  1  0  0  0  0
  6  3  2  0  0  0  0
  7  6  1  0  0  0  0
  8  7  1  0  0  0  0
  9 16  1  0  0  0  0
 10 21  1  0  0  0  0
 11 10  3  0  0  0  0
 12  9  3  0  0  0  0
 13  2  2  0  0  0  0
 14  7  2  0  0  0  0
 15  4  2  0  0  0  0
 16  1  1  0  0  0  0
 17  8  1  0  0  0  0
 17 19  1  0  0  0  0
 18 14  1  0  0  0  0
 19 18  2  0  0  0  0
 20 14  1  0  0  0  0
 21 20  1  0  0  0  0
 22  8  2  0  0  0  0
 23 17  2  0  0  0  0
 23 25  1  0  0  0  0
 24 22  1  0  0  0  0
 25 24  2  0  0  0  0
M  END
> <CdId>
1039

> <Mol Weight>
347.387

> <Formula>
C20H13NO3S

> <Click_ID>
CLK014_E04 __ __ 

$$$$
