CLK014_G02
 OpenBabel03181410512D

 21 22  0  0  0  0  0  0  0  0999 V2000
    1.5644   -0.8155    0.0000 N   0  0  0  0  0  0  0  0  0  0  0  0
    1.8224   -1.6019    0.0000 C   0  0  0  0  0  0  0  0  0  0  0  0
    2.2343   -0.3287    0.0000 C   0  0  0  0  0  0  0  0  0  0  0  0
    2.9000   -0.8155    0.0000 C   0  0  0  0  0  0  0  0  0  0  0  0
    2.6462   -1.6019    0.0000 S   0  0  0  0  0  0  0  0  0  0  0  0
    4.3729    2.6670    0.0000 C   0  0  0  0  0  0  0  0  0  0  0  0
    3.6864   -0.5617    0.0000 C   0  0  0  0  0  0  0  0  0  0  0  0
    0.6116    0.2454    0.0000 C   0  0  0  0  0  0  0  0  0  0  0  0
    0.3911    1.0443    0.0000 C   0  0  0  0  0  0  0  0  0  0  0  0
    4.2064    1.8556    0.0000 C   0  0  0  0  0  0  0  0  0  0  0  0
    1.3356   -2.2634    0.0000 O   0  0  0  0  0  0  0  0  0  0  0  0
    2.2260    0.4951    0.0000 O   0  0  0  0  0  0  0  0  0  0  0  0
    0.7864   -0.5617    0.0000 C   0  0  0  0  0  0  0  0  0  0  0  0
    5.1176    2.2925    0.0000 F   0  0  0  0  0  0  0  0  0  0  0  0
    5.1676    2.9166    0.0000 F   0  0  0  0  0  0  0  0  0  0  0  0
    3.7696    3.2162    0.0000 F   0  0  0  0  0  0  0  0  0  0  0  0
    3.8569    0.2454    0.0000 C   0  0  0  0  0  0  0  0  0  0  0  0
    3.4201    1.6060    0.0000 C   0  0  0  0  0  0  0  0  0  0  0  0
    4.8098    1.2981    0.0000 C   0  0  0  0  0  0  0  0  0  0  0  0
    4.6350    0.4951    0.0000 C   0  0  0  0  0  0  0  0  0  0  0  0
    3.2453    0.7947    0.0000 C   0  0  0  0  0  0  0  0  0  0  0  0
  2  1  1  0  0  0  0
  3  1  1  0  0  0  0
  4  3  1  0  0  0  0
  4  5  1  0  0  0  0
  5  2  1  0  0  0  0
  6 10  1  0  0  0  0
  7  4  2  0  0  0  0
  8 13  1  0  0  0  0
  9  8  3  0  0  0  0
 10 18  1  0  0  0  0
 10 19  2  0  0  0  0
 11  2  2  0  0  0  0
 12  3  2  0  0  0  0
 13  1  1  0  0  0  0
 14  6  1  0  0  0  0
 15  6  1  0  0  0  0
 16  6  1  0  0  0  0
 17  7  1  0  0  0  0
 18 21  2  0  0  0  0
 19 20  1  0  0  0  0
 20 17  2  0  0  0  0
 21 17  1  0  0  0  0
M  END
> <CdId>
1057

> <Mol Weight>
311.279

> <Formula>
C14H8F3NO2S

> <Click_ID>
CLK014_G02 __ __ 

$$$$
