CLK048D05
 OpenBabel03181410512D

 18 19  0  0  0  0  0  0  0  0999 V2000
   -0.3208   -0.1792    0.0000 C   0  0  0  0  0  0  0  0  0  0  0  0
    0.3958    1.0583    0.0000 N   0  0  0  0  0  0  0  0  0  0  0  0
   -0.3208    0.6458    0.0000 C   0  0  0  0  0  0  0  0  0  0  0  0
    0.3958   -0.5917    0.0000 C   0  0  0  0  0  0  0  0  0  0  0  0
   -1.0333   -0.5917    0.0000 C   0  0  0  0  0  0  0  0  0  0  0  0
    1.1083   -0.1792    0.0000 C   0  0  0  0  0  0  0  0  0  0  0  0
    1.1083    0.6458    0.0000 C   0  0  0  0  0  0  0  0  0  0  0  0
   -3.1792   -0.1792    0.0000 C   0  0  0  0  0  0  0  0  0  0  0  0
   -3.8917    0.2333    0.0000 C   0  0  0  0  0  0  0  0  0  0  0  0
    1.8250   -0.5917    0.0000 C   0  0  0  0  0  0  0  0  0  0  0  0
   -1.0333   -1.4167    0.0000 O   0  0  0  0  0  0  0  0  0  0  0  0
    1.8250    1.0583    0.0000 C   0  0  0  0  0  0  0  0  0  0  0  0
   -1.7500   -0.1792    0.0000 N   0  0  0  0  0  0  0  0  0  0  0  0
    2.5375   -0.1792    0.0000 C   0  0  0  0  0  0  0  0  0  0  0  0
    2.5375    0.6458    0.0000 C   0  0  0  0  0  0  0  0  0  0  0  0
   -2.4625   -0.5917    0.0000 C   0  0  0  0  0  0  0  0  0  0  0  0
   -1.0333    1.0583    0.0000 C   0  0  0  0  0  0  0  0  0  0  0  0
    3.2542   -0.5917    0.0000 C   0  0  0  0  0  0  0  0  0  0  0  0
  2  3  2  0  0  0  0
  2  7  1  0  0  0  0
  3  1  1  0  0  0  0
  4  1  2  0  0  0  0
  5  1  1  0  0  0  0
  6  4  1  0  0  0  0
  7  6  2  0  0  0  0
  8 16  1  0  0  0  0
  9  8  3  0  0  0  0
 10  6  1  0  0  0  0
 11  5  2  0  0  0  0
 12  7  1  0  0  0  0
 12 15  2  0  0  0  0
 13  5  1  0  0  0  0
 14 10  2  0  0  0  0
 15 14  1  0  0  0  0
 16 13  1  0  0  0  0
 17  3  1  0  0  0  0
 18 14  1  0  0  0  0
M  END
> <CdId>
3676

> <Mol Weight>
238.2845

> <Formula>
C15H14N2O

> <Click_ID>
CLK048D05 __ __ 

$$$$
