CLK025_G06
 OpenBabel03181410512D

 28 30  0  0  0  0  0  0  0  0999 V2000
   -0.6390   -1.0370    0.0000 C    0  0  3  0  0  0  0  0  0  0  0  0
   -0.1711   -1.6690    0.0000 C    0  0  0  0  0  0  0  0  0  0  0  0
   -0.6390   -2.3708    0.0000 N    0  0  0  0  0  0  0  0  0  0  0  0
   -1.4210   -1.2953    0.0000 C    0  0  0  0  0  0  0  0  0  0  0  0
   -1.4210   -2.1228    0.0000 C    0  0  0  0  0  0  0  0  0  0  0  0
    0.2095   -0.2654    0.0000 C    0  0  0  0  0  0  0  0  0  0  0  0
   -0.8904   -3.7814    0.0000 C    0  0  0  0  0  0  0  0  0  0  0  0
   -2.1404   -2.5349    0.0000 C    0  0  0  0  0  0  0  0  0  0  0  0
   -1.4246   -4.4029    0.0000 C    0  0  0  0  0  0  0  0  0  0  0  0
   -2.1404   -0.8729    0.0000 C    0  0  0  0  0  0  0  0  0  0  0  0
    0.6215   -1.7388    0.0000 O    0  0  0  0  0  0  0  0  0  0  0  0
    1.1696   -0.4330    0.0000 C    0  0  0  0  0  0  0  0  0  0  0  0
   -0.3631   -3.1529    0.0000 C    0  0  0  0  0  0  0  0  0  0  0  0
   -1.0265   -0.1571    0.0000 O    0  0  0  0  0  0  0  0  0  0  0  0
    1.3548    0.9811    0.0000 C    0  0  0  0  0  0  0  0  0  0  0  0
    1.8610    1.6305    0.0000 C    0  0  0  0  0  0  0  0  0  0  0  0
    1.6690    0.2164    0.0000 C    0  0  0  0  0  0  0  0  0  0  0  0
    1.6271    2.4232    0.0000 C    0  0  0  0  0  0  0  0  0  0  0  0
    1.4455   -1.0196    0.0000 O    0  0  0  0  0  0  0  0  0  0  0  0
   -2.8491   -1.2953    0.0000 C    0  0  0  0  0  0  0  0  0  0  0  0
   -2.8491   -2.1228    0.0000 C    0  0  0  0  0  0  0  0  0  0  0  0
    2.1997    3.0202    0.0000 C    0  0  0  0  0  0  0  0  0  0  0  0
   -3.5684   -0.8834    0.0000 Br   0  0  0  0  0  0  0  0  0  0  0  0
    2.9993    2.8247    0.0000 C    0  0  0  0  0  0  0  0  0  0  0  0
    1.9588    3.8093    0.0000 C    0  0  0  0  0  0  0  0  0  0  0  0
    2.5314    4.4029    0.0000 C    0  0  0  0  0  0  0  0  0  0  0  0
    3.5649    3.4252    0.0000 C    0  0  0  0  0  0  0  0  0  0  0  0
    3.3310    4.2073    0.0000 C    0  0  0  0  0  0  0  0  0  0  0  0
  2  1  1  0  0  0  0
  3  2  1  0  0  0  0
  4  1  1  0  0  0  0
  5  4  2  0  0  0  0
  5  3  1  0  0  0  0
  6  1  1  0  0  0  0
  7 13  1  0  0  0  0
  8  5  1  0  0  0  0
  9  7  3  0  0  0  0
 10  4  1  0  0  0  0
 11  2  2  0  0  0  0
 12  6  1  0  0  0  0
 13  3  1  0  0  0  0
 14  1  1  0  0  0  0
 15 17  2  0  0  0  0
 16 15  1  0  0  0  0
 17 12  1  0  0  0  0
 18 16  2  0  0  0  0
 19 12  2  0  0  0  0
 20 10  2  0  0  0  0
 21 20  1  0  0  0  0
 21  8  2  0  0  0  0
 22 18  1  0  0  0  0
 23 20  1  0  0  0  0
 24 22  1  0  0  0  0
 25 22  2  0  0  0  0
 26 25  1  0  0  0  0
 27 24  2  0  0  0  0
 27 28  1  0  0  0  0
 28 26  2  0  0  0  0
M  END
> <CdId>
1921

> <Mol Weight>
436.298

> <Formula>
C23H18BrNO3

> <Click_ID>
CLK025_G06 __ __ 

$$$$
