CLK009_B07
 OpenBabel03181410512D

 22 22  0  0  0  0  0  0  0  0999 V2000
   -0.3475    0.3780    0.0000 C    0  0  0  0  0  0  0  0  0  0  0  0
   -0.3475    1.1990    0.0000 C    0  0  0  0  0  0  0  0  0  0  0  0
   -1.0557   -0.0304    0.0000 C    0  0  0  0  0  0  0  0  0  0  0  0
   -1.0557    1.6161    0.0000 C    0  0  0  0  0  0  0  0  0  0  0  0
   -1.7725    0.3780    0.0000 C    0  0  0  0  0  0  0  0  0  0  0  0
   -1.7725    1.1990    0.0000 C    0  0  0  0  0  0  0  0  0  0  0  0
    0.4171   -0.0304    0.0000 C    0  0  0  0  0  0  0  0  0  0  0  0
    0.3954    1.6161    0.0000 C    0  0  0  0  0  0  0  0  0  0  0  0
    2.5198    1.1816    0.0000 C    0  0  0  0  0  0  0  0  0  0  0  0
    1.8420   -0.8862    0.0000 C    0  0  0  0  0  0  0  0  0  0  0  0
    2.5067    0.3475    0.0000 C    0  0  0  0  0  0  0  0  0  0  0  0
    2.5589   -1.3033    0.0000 C    0  0  0  0  0  0  0  0  0  0  0  0
    1.1122    0.3996    0.0000 O    0  0  0  0  0  0  0  0  0  0  0  0
    0.3954    2.4328    0.0000 O    0  0  0  0  0  0  0  0  0  0  0  0
   -1.0774   -0.8646    0.0000 Cl   0  0  0  0  0  0  0  0  0  0  0  0
   -1.0557    2.4328    0.0000 Cl   0  0  0  0  0  0  0  0  0  0  0  0
   -2.4980    1.6161    0.0000 Cl   0  0  0  0  0  0  0  0  0  0  0  0
   -2.4980   -0.0521    0.0000 Cl   0  0  0  0  0  0  0  0  0  0  0  0
    0.4040   -0.8732    0.0000 O    0  0  0  0  0  0  0  0  0  0  0  0
    1.0948    1.1990    0.0000 O    0  0  0  0  0  0  0  0  0  0  0  0
    1.1122   -1.2903    0.0000 C    0  0  0  0  0  0  0  0  0  0  0  0
    1.8116    1.5987    0.0000 C    0  0  0  0  0  0  0  0  0  0  0  0
  2  1  2  0  0  0  0
  3  1  1  0  0  0  0
  4  2  1  0  0  0  0
  4  6  2  0  0  0  0
  5  3  2  0  0  0  0
  6  5  1  0  0  0  0
  7  1  1  0  0  0  0
  8  2  1  0  0  0  0
  9 22  1  0  0  0  0
 10 21  1  0  0  0  0
 11  9  3  0  0  0  0
 12 10  3  0  0  0  0
 13  7  2  0  0  0  0
 14  8  2  0  0  0  0
 15  3  1  0  0  0  0
 16  4  1  0  0  0  0
 17  6  1  0  0  0  0
 18  5  1  0  0  0  0
 19  7  1  0  0  0  0
 20  8  1  0  0  0  0
 21 19  1  0  0  0  0
 22 20  1  0  0  0  0
M  END
> <CdId>
612

> <Mol Weight>
380.007

> <Formula>
C14H6Cl4O4

> <Click_ID>
CLK009_B07 __ __ 

$$$$
