CLK043C05
 OpenBabel03181410512D

 21 22  0  0  0  0  0  0  0  0999 V2000
   -0.1375   -0.0375    0.0000 C   0  0  0  0  0  0  0  0  0  0  0  0
    0.5750   -0.4500    0.0000 C   0  0  0  0  0  0  0  0  0  0  0  0
   -0.1375    0.7875    0.0000 N   0  0  0  0  0  0  0  0  0  0  0  0
   -2.9958    0.7875    0.0000 C   0  0  0  0  0  0  0  0  0  0  0  0
   -3.7125    0.3750    0.0000 C   0  0  0  0  0  0  0  0  0  0  0  0
    1.2917   -0.0375    0.0000 C   0  0  0  0  0  0  0  0  0  0  0  0
    0.5750   -1.2750    0.0000 C   0  0  0  0  0  0  0  0  0  0  0  0
   -0.8542   -0.4500    0.0000 O   0  0  0  0  0  0  0  0  0  0  0  0
    2.0042   -1.2750    0.0000 C   0  0  0  0  0  0  0  0  0  0  0  0
    1.2917   -1.6875    0.0000 C   0  0  0  0  0  0  0  0  0  0  0  0
    2.0042   -0.4500    0.0000 C   0  0  0  0  0  0  0  0  0  0  0  0
   -0.8542    1.2000    0.0000 C   0  0  0  0  0  0  0  0  0  0  0  0
   -2.2833    1.2000    0.0000 C   0  0  0  0  0  0  0  0  0  0  0  0
   -1.5667    0.7875    0.0000 C   0  0  0  0  0  0  0  0  0  0  0  0
    2.7208   -0.0375    0.0000 O   0  0  0  0  0  0  0  0  0  0  0  0
    1.2917   -2.5125    0.0000 O   0  0  0  0  0  0  0  0  0  0  0  0
   -1.5667    2.4375    0.0000 C   0  0  0  0  0  0  0  0  0  0  0  0
   -0.8542    2.0250    0.0000 C   0  0  0  0  0  0  0  0  0  0  0  0
   -2.2833    2.0250    0.0000 C   0  0  0  0  0  0  0  0  0  0  0  0
    2.0042   -2.9250    0.0000 C   0  0  0  0  0  0  0  0  0  0  0  0
    3.4333   -0.4500    0.0000 C   0  0  0  0  0  0  0  0  0  0  0  0
  2  1  1  0  0  0  0
  3  1  1  0  0  0  0
  4 13  1  0  0  0  0
  5  4  3  0  0  0  0
  6  2  2  0  0  0  0
  7  2  1  0  0  0  0
  8  1  2  0  0  0  0
  9 10  1  0  0  0  0
 10  7  2  0  0  0  0
 11  6  1  0  0  0  0
 11  9  2  0  0  0  0
 12  3  1  0  0  0  0
 13 14  1  0  0  0  0
 14 12  2  0  0  0  0
 15 11  1  0  0  0  0
 16 10  1  0  0  0  0
 17 18  2  0  0  0  0
 18 12  1  0  0  0  0
 19 13  2  0  0  0  0
 19 17  1  0  0  0  0
 20 16  1  0  0  0  0
 21 15  1  0  0  0  0
M  END
> <CdId>
3275

> <Mol Weight>
281.3059

> <Formula>
C17H15NO3

> <Click_ID>
CLK043C05 __ __ 

$$$$
