CLK047A06
 OpenBabel03181410512D

 19 20  0  0  0  0  0  0  0  0999 V2000
    0.3000    0.2625    0.0000 C   0  0  0  0  0  0  0  0  0  0  0  0
    1.0125    0.6750    0.0000 C   0  0  0  0  0  0  0  0  0  0  0  0
   -0.4167    0.6750    0.0000 N   0  0  0  0  0  0  0  0  0  0  0  0
   -1.8458   -1.8000    0.0000 C   0  0  0  0  0  0  0  0  0  0  0  0
   -1.8458   -2.6250    0.0000 C   0  0  0  0  0  0  0  0  0  0  0  0
    1.7292    0.2625    0.0000 C   0  0  0  0  0  0  0  0  0  0  0  0
    0.3000   -0.5625    0.0000 O   0  0  0  0  0  0  0  0  0  0  0  0
   -1.1292    0.2625    0.0000 C   0  0  0  0  0  0  0  0  0  0  0  0
   -1.8458   -0.9750    0.0000 C   0  0  0  0  0  0  0  0  0  0  0  0
    1.7292   -0.5625    0.0000 S   0  0  0  0  0  0  0  0  0  0  0  0
   -1.1292   -0.5625    0.0000 C   0  0  0  0  0  0  0  0  0  0  0  0
    1.0125    1.5000    0.0000 C   0  0  0  0  0  0  0  0  0  0  0  0
   -2.5583    0.2625    0.0000 C   0  0  0  0  0  0  0  0  0  0  0  0
   -1.8458    0.6750    0.0000 C   0  0  0  0  0  0  0  0  0  0  0  0
    2.4417    0.6750    0.0000 C   0  0  0  0  0  0  0  0  0  0  0  0
   -2.5583   -0.5625    0.0000 C   0  0  0  0  0  0  0  0  0  0  0  0
    2.4417   -0.9750    0.0000 C   0  0  0  0  0  0  0  0  0  0  0  0
    1.7292    1.9125    0.0000 C   0  0  0  0  0  0  0  0  0  0  0  0
    2.4417    1.5000    0.0000 C   0  0  0  0  0  0  0  0  0  0  0  0
  2  1  1  0  0  0  0
  3  1  1  0  0  0  0
  4  9  1  0  0  0  0
  5  4  3  0  0  0  0
  6  2  2  0  0  0  0
  7  1  2  0  0  0  0
  8  3  1  0  0  0  0
  9 11  1  0  0  0  0
 10  6  1  0  0  0  0
 11  8  2  0  0  0  0
 12  2  1  0  0  0  0
 13 14  2  0  0  0  0
 14  8  1  0  0  0  0
 15  6  1  0  0  0  0
 16  9  2  0  0  0  0
 16 13  1  0  0  0  0
 17 10  1  0  0  0  0
 18 12  2  0  0  0  0
 18 19  1  0  0  0  0
 19 15  2  0  0  0  0
M  END
> <CdId>
3601

> <Mol Weight>
267.346

> <Formula>
C16H13NOS

> <Click_ID>
CLK047A06 __ __ 

$$$$
