CLK029_A11
 OpenBabel03181410512D

 26 28  0  0  0  0  0  0  0  0999 V2000
   -1.1649    2.3882    0.0000 C    0  0  0  0  0  0  0  0  0  0  0  0
   -0.3382    2.3799    0.0000 N    0  0  0  0  0  0  0  0  0  0  0  0
   -1.6492    1.7244    0.0000 N    0  0  0  0  0  0  0  0  0  0  0  0
   -1.6492    3.0563    0.0000 S    0  0  0  0  0  0  0  0  0  0  0  0
    0.0752    3.0939    0.0000 C    0  0  0  0  0  0  0  0  0  0  0  0
   -2.4383    2.8016    0.0000 C    0  0  0  0  0  0  0  0  0  0  0  0
    0.9019    3.0939    0.0000 C    0  0  0  0  0  0  0  0  0  0  0  0
   -2.4383    1.9749    0.0000 C    0  0  0  0  0  0  0  0  0  0  0  0
    1.3152    2.3799    0.0000 C    0  0  0  0  0  0  0  0  0  0  0  0
   -3.1523    3.2149    0.0000 C    0  0  0  0  0  0  0  0  0  0  0  0
   -1.9498    0.3215    0.0000 C    0  0  0  0  0  0  0  0  0  0  0  0
    1.3194    3.8162    0.0000 C    0  0  0  0  0  0  0  0  0  0  0  0
   -2.5010   -0.2923    0.0000 C    0  0  0  0  0  0  0  0  0  0  0  0
    2.1336    2.3757    0.0000 C    0  0  0  0  0  0  0  0  0  0  0  0
   -3.1523    1.5615    0.0000 C    0  0  0  0  0  0  0  0  0  0  0  0
   -0.3382    3.8079    0.0000 O    0  0  0  0  0  0  0  0  0  0  0  0
   -1.3987    0.9352    0.0000 C    0  0  0  0  0  0  0  0  0  0  0  0
   -3.8663    2.8016    0.0000 C    0  0  0  0  0  0  0  0  0  0  0  0
    2.5595    3.0897    0.0000 C    0  0  0  0  0  0  0  0  0  0  0  0
    2.1461    3.8162    0.0000 C    0  0  0  0  0  0  0  0  0  0  0  0
   -3.8663    1.9749    0.0000 C    0  0  0  0  0  0  0  0  0  0  0  0
    0.8810    1.6617    0.0000 O    0  0  0  0  0  0  0  0  0  0  0  0
   -4.5928    3.2192    0.0000 Cl   0  0  0  0  0  0  0  0  0  0  0  0
    3.3945    3.0772    0.0000 O    0  0  0  0  0  0  0  0  0  0  0  0
    0.0626    1.6617    0.0000 C    0  0  0  0  0  0  0  0  0  0  0  0
    3.7996    2.3632    0.0000 C    0  0  0  0  0  0  0  0  0  0  0  0
  2  1  2  0  0  0  0
  3  1  1  0  0  0  0
  4  1  1  0  0  0  0
  5  2  1  0  0  0  0
  6  4  1  0  0  0  0
  6  8  2  0  0  0  0
  7  5  1  0  0  0  0
  8  3  1  0  0  0  0
  9  7  2  0  0  0  0
 10  6  1  0  0  0  0
 11 17  1  0  0  0  0
 12  7  1  0  0  0  0
 13 11  3  0  0  0  0
 14  9  1  0  0  0  0
 14 19  2  0  0  0  0
 15  8  1  0  0  0  0
 16  5  2  0  0  0  0
 17  3  1  0  0  0  0
 18 10  2  0  0  0  0
 18 21  1  0  0  0  0
 19 20  1  0  0  0  0
 20 12  2  0  0  0  0
 21 15  2  0  0  0  0
 22  9  1  0  0  0  0
 23 18  1  0  0  0  0
 24 19  1  0  0  0  0
 25 22  1  0  0  0  0
 26 24  1  0  0  0  0
M  END
> <CdId>
2175

> <Mol Weight>
386.852

> <Formula>
C19H15ClN2O3S

> <Click_ID>
CLK029_A11 __ __ 

$$$$
