CLK045G11
 OpenBabel03181410512D

 30 33  0  0  0  0  0  0  0  0999 V2000
   -0.2750   -0.0208    0.0000 N   0  0  0  0  0  0  0  0  0  0  0  0
   -1.7042   -0.0208    0.0000 C   0  0  0  0  0  0  0  0  0  0  0  0
   -1.7042    0.8042    0.0000 C   0  0  0  0  0  0  0  0  0  0  0  0
   -0.2750    0.8042    0.0000 C   0  0  0  0  0  0  0  0  0  0  0  0
   -0.9875    1.2167    0.0000 N   0  0  0  0  0  0  0  0  0  0  0  0
   -0.9875   -0.4333    0.0000 C   0  0  0  0  0  0  0  0  0  0  0  0
   -2.4875    1.0583    0.0000 S   0  0  0  0  0  0  0  0  0  0  0  0
   -2.4875   -0.2750    0.0000 C   0  0  0  0  0  0  0  0  0  0  0  0
   -2.9708    0.3917    0.0000 C   0  0  0  0  0  0  0  0  0  0  0  0
    0.4417   -0.4333    0.0000 C   0  0  0  0  0  0  0  0  0  0  0  0
    0.4417    1.2167    0.0000 S   0  0  0  0  0  0  0  0  0  0  0  0
    0.4417   -1.2583    0.0000 C   0  0  0  0  0  0  0  0  0  0  0  0
    4.0125    0.8042    0.0000 C   0  0  0  0  0  0  0  0  0  0  0  0
   -0.9875   -1.2583    0.0000 O   0  0  0  0  0  0  0  0  0  0  0  0
    4.7292    0.3917    0.0000 C   0  0  0  0  0  0  0  0  0  0  0  0
    1.1542   -0.0208    0.0000 C   0  0  0  0  0  0  0  0  0  0  0  0
    1.8708    1.2167    0.0000 C   0  0  0  0  0  0  0  0  0  0  0  0
    1.1542   -1.6708    0.0000 C   0  0  0  0  0  0  0  0  0  0  0  0
    1.8708    2.0417    0.0000 O   0  0  0  0  0  0  0  0  0  0  0  0
    1.1542    0.8042    0.0000 C   0  0  0  0  0  0  0  0  0  0  0  0
    2.5833    0.8042    0.0000 N   0  0  0  0  0  0  0  0  0  0  0  0
    1.8708   -0.4333    0.0000 C   0  0  0  0  0  0  0  0  0  0  0  0
    1.8708   -1.2583    0.0000 C   0  0  0  0  0  0  0  0  0  0  0  0
   -2.8250   -1.0292    0.0000 C   0  0  0  0  0  0  0  0  0  0  0  0
   -3.7917    0.3042    0.0000 C   0  0  0  0  0  0  0  0  0  0  0  0
    3.3000    1.2167    0.0000 C   0  0  0  0  0  0  0  0  0  0  0  0
   -0.2750   -1.6708    0.0000 C   0  0  0  0  0  0  0  0  0  0  0  0
    2.5833   -1.6708    0.0000 C   0  0  0  0  0  0  0  0  0  0  0  0
   -3.6417   -1.1167    0.0000 C   0  0  0  0  0  0  0  0  0  0  0  0
   -4.1292   -0.4500    0.0000 C   0  0  0  0  0  0  0  0  0  0  0  0
  2  6  1  0  0  0  0
  3  2  2  0  0  0  0
  3  5  1  0  0  0  0
  4  1  1  0  0  0  0
  5  4  2  0  0  0  0
  6  1  1  0  0  0  0
  7  3  1  0  0  0  0
  8  2  1  0  0  0  0
  9  8  2  0  0  0  0
  9  7  1  0  0  0  0
 10  1  1  0  0  0  0
 11  4  1  0  0  0  0
 12 10  2  0  0  0  0
 13 26  1  0  0  0  0
 14  6  2  0  0  0  0
 15 13  3  0  0  0  0
 16 10  1  0  0  0  0
 17 20  1  0  0  0  0
 18 12  1  0  0  0  0
 19 17  2  0  0  0  0
 20 11  1  0  0  0  0
 21 17  1  0  0  0  0
 22 16  2  0  0  0  0
 22 23  1  0  0  0  0
 23 18  2  0  0  0  0
 24  8  1  0  0  0  0
 25  9  1  0  0  0  0
 26 21  1  0  0  0  0
 27 12  1  0  0  0  0
 28 23  1  0  0  0  0
 29 24  1  0  0  0  0
 29 30  1  0  0  0  0
 30 25  1  0  0  0  0
M  END
> <CdId>
3487

> <Mol Weight>
437.578

> <Formula>
C23H23N3O2S2

> <Click_ID>
CLK045G11 __ __ 

$$$$
