CLK026_B06
 OpenBabel03181410512D

 31 34  0  0  0  0  0  0  0  0999 V2000
   -3.4130   -0.6908    0.0000 N   0  0  0  0  0  0  0  0  0  0  0  0
   -3.8151   -1.4161    0.0000 C   0  0  0  0  0  0  0  0  0  0  0  0
   -2.5984   -0.8524    0.0000 C   0  0  0  0  0  0  0  0  0  0  0  0
   -2.5056   -1.6739    0.0000 C   0  0  0  0  0  0  0  0  0  0  0  0
   -3.2548   -2.0244    0.0000 S   0  0  0  0  0  0  0  0  0  0  0  0
   -1.7873   -2.0794    0.0000 C   0  0  0  0  0  0  0  0  0  0  0  0
   -3.2789    0.7321    0.0000 C   0  0  0  0  0  0  0  0  0  0  0  0
   -2.8424    1.4332    0.0000 C   0  0  0  0  0  0  0  0  0  0  0  0
   -4.6365   -1.5020    0.0000 O   0  0  0  0  0  0  0  0  0  0  0  0
   -0.3780   -0.4124    0.0000 C   0  0  0  0  0  0  0  0  0  0  0  0
   -2.0003   -0.2887    0.0000 O   0  0  0  0  0  0  0  0  0  0  0  0
    0.3471   -0.8146    0.0000 C   0  0  0  0  0  0  0  0  0  0  0  0
   -1.0758   -1.6532    0.0000 C   0  0  0  0  0  0  0  0  0  0  0  0
   -3.7532    0.0481    0.0000 C   0  0  0  0  0  0  0  0  0  0  0  0
   -1.0758   -0.8283    0.0000 C   0  0  0  0  0  0  0  0  0  0  0  0
    1.0724   -0.4056    0.0000 O   0  0  0  0  0  0  0  0  0  0  0  0
    3.2033    0.8317    0.0000 C   0  0  0  0  0  0  0  0  0  0  0  0
    2.4850    0.4228    0.0000 C   0  0  0  0  0  0  0  0  0  0  0  0
    3.9079    0.4193    0.0000 C   0  0  0  0  0  0  0  0  0  0  0  0
    0.3471   -1.6360    0.0000 C   0  0  0  0  0  0  0  0  0  0  0  0
    3.9217   -0.4056    0.0000 C   0  0  0  0  0  0  0  0  0  0  0  0
    2.4953   -0.4056    0.0000 C   0  0  0  0  0  0  0  0  0  0  0  0
    1.7803   -0.8043    0.0000 C   0  0  0  0  0  0  0  0  0  0  0  0
   -0.3644   -2.0519    0.0000 C   0  0  0  0  0  0  0  0  0  0  0  0
    3.2067   -0.8111    0.0000 C   0  0  0  0  0  0  0  0  0  0  0  0
   -0.3677    0.4124    0.0000 O   0  0  0  0  0  0  0  0  0  0  0  0
    3.1964    1.6601    0.0000 C   0  0  0  0  0  0  0  0  0  0  0  0
    4.6331    0.8317    0.0000 C   0  0  0  0  0  0  0  0  0  0  0  0
   -1.0895    0.8214    0.0000 C   0  0  0  0  0  0  0  0  0  0  0  0
    3.9217    2.0828    0.0000 C   0  0  0  0  0  0  0  0  0  0  0  0
    4.6331    1.6498    0.0000 C   0  0  0  0  0  0  0  0  0  0  0  0
  2  1  1  0  0  0  0
  3  1  1  0  0  0  0
  4  3  1  0  0  0  0
  5  2  1  0  0  0  0
  5  4  1  0  0  0  0
  6  4  2  0  0  0  0
  7 14  1  0  0  0  0
  8  7  3  0  0  0  0
  9  2  2  0  0  0  0
 10 15  1  0  0  0  0
 11  3  2  0  0  0  0
 12 20  1  0  0  0  0
 12 10  2  0  0  0  0
 13  6  1  0  0  0  0
 14  1  1  0  0  0  0
 15 13  2  0  0  0  0
 16 12  1  0  0  0  0
 17 18  2  0  0  0  0
 18 22  1  0  0  0  0
 19 21  2  0  0  0  0
 19 17  1  0  0  0  0
 20 24  2  0  0  0  0
 21 25  1  0  0  0  0
 22 23  1  0  0  0  0
 23 16  1  0  0  0  0
 24 13  1  0  0  0  0
 25 22  2  0  0  0  0
 26 10  1  0  0  0  0
 27 17  1  0  0  0  0
 28 19  1  0  0  0  0
 29 26  1  0  0  0  0
 30 27  2  0  0  0  0
 31 28  2  0  0  0  0
 31 30  1  0  0  0  0
M  END
> <CdId>
1951

> <Mol Weight>
429.488

> <Formula>
C25H19NO4S

> <Click_ID>
CLK026_B06 __ __ 

$$$$
