CLK038B05
 OpenBabel03181410512D

 23 24  0  0  0  0  0  0  0  0999 V2000
   -0.8708   -0.2833    0.0000 S   0  0  0  0  0  0  0  0  0  0  0  0
   -1.5875   -0.6958    0.0000 N   0  0  0  0  0  0  0  0  0  0  0  0
   -2.3000   -0.2833    0.0000 C   0  0  0  0  0  0  0  0  0  0  0  0
   -1.5875   -1.5208    0.0000 C   0  0  0  0  0  0  0  0  0  0  0  0
   -0.1583    0.1292    0.0000 C   0  0  0  0  0  0  0  0  0  0  0  0
    1.9875    1.3667    0.0000 C   0  0  0  0  0  0  0  0  0  0  0  0
   -1.2833    0.4292    0.0000 O   0  0  0  0  0  0  0  0  0  0  0  0
   -0.4583   -1.0000    0.0000 O   0  0  0  0  0  0  0  0  0  0  0  0
    4.1292    0.9542    0.0000 C   0  0  0  0  0  0  0  0  0  0  0  0
   -3.0167   -1.5208    0.0000 O   0  0  0  0  0  0  0  0  0  0  0  0
    4.8458    0.5417    0.0000 C   0  0  0  0  0  0  0  0  0  0  0  0
    1.2708    0.9542    0.0000 C   0  0  0  0  0  0  0  0  0  0  0  0
   -3.0167   -0.6958    0.0000 C   0  0  3  0  0  0  0  0  0  0  0  0
   -2.3000   -1.9333    0.0000 C   0  0  3  0  0  0  0  0  0  0  0  0
    1.9875    2.1917    0.0000 O   0  0  0  0  0  0  0  0  0  0  0  0
    0.5583   -0.2833    0.0000 C   0  0  0  0  0  0  0  0  0  0  0  0
   -0.1583    0.9542    0.0000 C   0  0  0  0  0  0  0  0  0  0  0  0
    0.5583    1.3667    0.0000 C   0  0  0  0  0  0  0  0  0  0  0  0
    1.2708    0.1292    0.0000 C   0  0  0  0  0  0  0  0  0  0  0  0
    2.7000    0.9542    0.0000 N   0  0  0  0  0  0  0  0  0  0  0  0
    3.4167    1.3667    0.0000 C   0  0  0  0  0  0  0  0  0  0  0  0
   -2.3000   -2.7583    0.0000 C   0  0  0  0  0  0  0  0  0  0  0  0
   -3.7292   -0.2833    0.0000 C   0  0  0  0  0  0  0  0  0  0  0  0
  2  1  1  0  0  0  0
  3  2  1  0  0  0  0
  4  2  1  0  0  0  0
  5  1  1  0  0  0  0
  6 12  1  0  0  0  0
  7  1  2  0  0  0  0
  8  1  2  0  0  0  0
  9 21  1  0  0  0  0
 10 13  1  0  0  0  0
 10 14  1  0  0  0  0
 11  9  3  0  0  0  0
 12 18  2  0  0  0  0
 12 19  1  0  0  0  0
 13  3  1  0  0  0  0
 14  4  1  0  0  0  0
 15  6  2  0  0  0  0
 16  5  1  0  0  0  0
 17  5  2  0  0  0  0
 18 17  1  0  0  0  0
 19 16  2  0  0  0  0
 20  6  1  0  0  0  0
 21 20  1  0  0  0  0
 22 14  1  0  0  0  0
 23 13  1  0  0  0  0
M  END
> <CdId>
2874

> <Mol Weight>
336.406

> <Formula>
C16H20N2O4S

> <Click_ID>
CLK038B05 __ __ 

$$$$
