CLK048G11
 OpenBabel03181410512D

 20 21  0  0  0  0  0  0  0  0999 V2000
    0.4625   -0.1000    0.0000 C   0  0  0  0  0  0  0  0  0  0  0  0
    0.4625   -0.9250    0.0000 C   0  0  0  0  0  0  0  0  0  0  0  0
   -0.2542    0.3125    0.0000 N   0  0  0  0  0  0  0  0  0  0  0  0
   -1.6792    2.7875    0.0000 C   0  0  0  0  0  0  0  0  0  0  0  0
   -2.3958    3.2000    0.0000 C   0  0  0  0  0  0  0  0  0  0  0  0
    1.1750    0.3125    0.0000 O   0  0  0  0  0  0  0  0  0  0  0  0
   -0.2542    1.1375    0.0000 C   0  0  0  0  0  0  0  0  0  0  0  0
    0.4625   -1.7500    0.0000 C   0  0  0  0  0  0  0  0  0  0  0  0
   -0.9667    2.3750    0.0000 C   0  0  0  0  0  0  0  0  0  0  0  0
   -0.9667    1.5500    0.0000 C   0  0  0  0  0  0  0  0  0  0  0  0
   -0.3625   -0.9250    0.0000 C   0  0  0  0  0  0  0  0  0  0  0  0
    1.2875   -0.9250    0.0000 C   0  0  0  0  0  0  0  0  0  0  0  0
    0.4625    2.3750    0.0000 C   0  0  0  0  0  0  0  0  0  0  0  0
    0.4625    1.5500    0.0000 C   0  0  0  0  0  0  0  0  0  0  0  0
   -0.2542   -2.1625    0.0000 C   0  0  0  0  0  0  0  0  0  0  0  0
    1.1750   -2.1625    0.0000 C   0  0  0  0  0  0  0  0  0  0  0  0
   -0.2542    2.7875    0.0000 C   0  0  0  0  0  0  0  0  0  0  0  0
    1.1750   -2.9875    0.0000 C   0  0  0  0  0  0  0  0  0  0  0  0
   -0.2542   -2.9875    0.0000 C   0  0  0  0  0  0  0  0  0  0  0  0
    0.4625   -3.4000    0.0000 C   0  0  0  0  0  0  0  0  0  0  0  0
  2  1  1  0  0  0  0
  3  1  1  0  0  0  0
  4  9  1  0  0  0  0
  5  4  3  0  0  0  0
  6  1  2  0  0  0  0
  7  3  1  0  0  0  0
  8  2  1  0  0  0  0
  9 10  1  0  0  0  0
 10  7  2  0  0  0  0
 11  2  1  0  0  0  0
 12  2  1  0  0  0  0
 13 14  2  0  0  0  0
 14  7  1  0  0  0  0
 15  8  1  0  0  0  0
 16  8  2  0  0  0  0
 17  9  2  0  0  0  0
 17 13  1  0  0  0  0
 18 16  1  0  0  0  0
 19 15  2  0  0  0  0
 20 18  2  0  0  0  0
 20 19  1  0  0  0  0
M  END
> <CdId>
3727

> <Mol Weight>
263.3337

> <Formula>
C18H17NO

> <Click_ID>
CLK048G11 __ __ 

$$$$
