CLK021_F05
 OpenBabel03181410512D

 29 30  0  0  0  0  0  0  0  0999 V2000
    0.7838    4.6750    0.0000 C   0  0  0  0  0  0  0  0  0  0  0  0
    1.4988    4.2716    0.0000 C   0  0  0  0  0  0  0  0  0  0  0  0
    3.6346    4.6750    0.0000 C   0  0  0  0  0  0  0  0  0  0  0  0
    3.6346    5.5000    0.0000 C   0  0  0  0  0  0  0  0  0  0  0  0
    2.2046    4.6750    0.0000 C   0  0  0  0  0  0  0  0  0  0  0  0
    2.9287    5.9125    0.0000 C   0  0  0  0  0  0  0  0  0  0  0  0
    0.0687    4.2716    0.0000 C   0  0  0  0  0  0  0  0  0  0  0  0
   -0.6463    3.8591    0.0000 N   0  0  0  0  0  0  0  0  0  0  0  0
    0.7838    7.9750    0.0000 C   0  0  0  0  0  0  0  0  0  0  0  0
    5.0646    7.1500    0.0000 C   0  0  0  0  0  0  0  0  0  0  0  0
    5.7796    7.5625    0.0000 C   0  0  0  0  0  0  0  0  0  0  0  0
    0.7838    5.5000    0.0000 C   0  0  0  0  0  0  0  0  0  0  0  0
    2.9287    4.2716    0.0000 C   0  0  0  0  0  0  0  0  0  0  0  0
    2.2046    5.5000    0.0000 C   0  0  0  0  0  0  0  0  0  0  0  0
    0.7838    7.1500    0.0000 C   0  0  0  0  0  0  0  0  0  0  0  0
    1.4988    8.3875    0.0000 O   0  0  0  0  0  0  0  0  0  0  0  0
    0.0687    5.9125    0.0000 C   0  0  0  0  0  0  0  0  0  0  0  0
    1.4988    5.9125    0.0000 C   0  0  0  0  0  0  0  0  0  0  0  0
    0.0687    6.7375    0.0000 C   0  0  0  0  0  0  0  0  0  0  0  0
    1.4988    6.7375    0.0000 C   0  0  0  0  0  0  0  0  0  0  0  0
    2.2046    7.1500    0.0000 C   0  0  0  0  0  0  0  0  0  0  0  0
    2.2046    7.9750    0.0000 C   0  0  0  0  0  0  0  0  0  0  0  0
    0.0687    8.3875    0.0000 O   0  0  0  0  0  0  0  0  0  0  0  0
    4.3496    4.2716    0.0000 O   0  0  0  0  0  0  0  0  0  0  0  0
    4.3496    5.9125    0.0000 O   0  0  0  0  0  0  0  0  0  0  0  0
    2.9287    6.7375    0.0000 C   0  0  0  0  0  0  0  0  0  0  0  0
    4.3496    6.7375    0.0000 C   0  0  0  0  0  0  0  0  0  0  0  0
    4.3496    3.4466    0.0000 C   0  0  0  0  0  0  0  0  0  0  0  0
    5.0646    3.0341    0.0000 C   0  0  0  0  0  0  0  0  0  0  0  0
  2  1  2  0  0  0  0
  3 13  1  0  0  0  0
  3  4  2  0  0  0  0
  4  6  1  0  0  0  0
  5  2  1  0  0  0  0
  6 14  2  0  0  0  0
  7  1  1  0  0  0  0
  8  7  3  0  0  0  0
  9 15  1  0  0  0  0
 10 27  1  0  0  0  0
 11 10  3  0  0  0  0
 12  1  1  0  0  0  0
 13  5  2  0  0  0  0
 14  5  1  0  0  0  0
 15 20  1  0  0  0  0
 15 19  2  0  0  0  0
 16  9  2  0  0  0  0
 17 12  2  0  0  0  0
 18 12  1  0  0  0  0
 19 17  1  0  0  0  0
 20 18  2  0  0  0  0
 21 26  1  0  0  0  0
 22 21  2  0  0  0  0
 23  9  1  0  0  0  0
 24  3  1  0  0  0  0
 25  4  1  0  0  0  0
 26  6  1  0  0  0  0
 27 25  1  0  0  0  0
 28 24  1  0  0  0  0
 29 28  1  0  0  0  0
M  END
> <CdId>
1610

> <Mol Weight>
387.4278

> <Formula>
C24H21NO4

> <Click_ID>
CLK021_F05 __ __ 

$$$$
