CLK034_A09
 OpenBabel03181410512D

 32 36  0  0  0  0  0  0  0  0999 V2000
   -4.5815    2.5490    0.0000 C   0  0  0  0  0  0  0  0  0  0  0  0
   -3.8693    2.9822    0.0000 N   0  0  0  0  0  0  0  0  0  0  0  0
   -5.3479    2.8697    0.0000 S   0  0  0  0  0  0  0  0  0  0  0  0
   -4.6564    1.7368    0.0000 N   0  0  0  0  0  0  0  0  0  0  0  0
   -1.0079    3.7943    0.0000 N   0  0  0  0  0  0  0  0  0  0  0  0
   -5.8810    2.2449    0.0000 C   0  0  0  0  0  0  0  0  0  0  0  0
   -5.4562    1.5452    0.0000 C   0  0  0  0  0  0  0  0  0  0  0  0
   -3.8693    3.7985    0.0000 C   0  0  0  0  0  0  0  0  0  0  0  0
   -1.7202    4.2109    0.0000 C   0  0  0  0  0  0  0  0  0  0  0  0
   -0.9621    2.9697    0.0000 C   0  0  0  0  0  0  0  0  0  0  0  0
   -0.2374    4.0901    0.0000 C   0  0  0  0  0  0  0  0  0  0  0  0
   -6.7016    2.2324    0.0000 C   0  0  0  0  0  0  0  0  0  0  0  0
   -2.4365    3.8068    0.0000 C   0  0  0  0  0  0  0  0  0  0  0  0
   -3.1571    4.2109    0.0000 C   0  0  0  0  0  0  0  0  0  0  0  0
   -5.8435    0.8204    0.0000 C   0  0  0  0  0  0  0  0  0  0  0  0
   -3.2363    1.4619    0.0000 C   0  0  0  0  0  0  0  0  0  0  0  0
   -2.4615    1.7451    0.0000 C   0  0  0  0  0  0  0  0  0  0  0  0
   -4.5815    4.2026    0.0000 O   0  0  0  0  0  0  0  0  0  0  0  0
    0.2916    3.4694    0.0000 C   0  0  0  0  0  0  0  0  0  0  0  0
   -0.1458    2.7697    0.0000 C   0  0  0  0  0  0  0  0  0  0  0  0
   -0.0208    4.8855    0.0000 O   0  0  0  0  0  0  0  0  0  0  0  0
   -1.5952    2.4573    0.0000 O   0  0  0  0  0  0  0  0  0  0  0  0
   -4.0192    1.1953    0.0000 C   0  0  0  0  0  0  0  0  0  0  0  0
   -7.1014    1.5077    0.0000 C   0  0  0  0  0  0  0  0  0  0  0  0
   -6.6641    0.7954    0.0000 C   0  0  0  0  0  0  0  0  0  0  0  0
   -1.7119    5.0272    0.0000 C   0  0  0  0  0  0  0  0  0  0  0  0
   -3.1488    5.0397    0.0000 C   0  0  0  0  0  0  0  0  0  0  0  0
   -7.1389    2.9322    0.0000 C   0  0  0  0  0  0  0  0  0  0  0  0
   -2.4323    5.4521    0.0000 C   0  0  0  0  0  0  0  0  0  0  0  0
   -7.9136    1.4827    0.0000 C   0  0  0  0  0  0  0  0  0  0  0  0
   -7.9636    2.9114    0.0000 C   0  0  0  0  0  0  0  0  0  0  0  0
   -8.3509    2.1866    0.0000 C   0  0  0  0  0  0  0  0  0  0  0  0
  2  1  2  0  0  0  0
  3  1  1  0  0  0  0
  4  1  1  0  0  0  0
  5  9  1  0  0  0  0
  6  3  1  0  0  0  0
  6  7  2  0  0  0  0
  7  4  1  0  0  0  0
  8  2  1  0  0  0  0
  9 13  1  0  0  0  0
  9 26  2  0  0  0  0
 10  5  1  0  0  0  0
 11  5  1  0  0  0  0
 12  6  1  0  0  0  0
 13 14  2  0  0  0  0
 14  8  1  0  0  0  0
 15  7  1  0  0  0  0
 16 23  1  0  0  0  0
 17 16  3  0  0  0  0
 18  8  2  0  0  0  0
 19 11  1  0  0  0  0
 20 10  1  0  0  0  0
 20 19  1  0  0  0  0
 21 11  2  0  0  0  0
 22 10  2  0  0  0  0
 23  4  1  0  0  0  0
 24 12  1  0  0  0  0
 25 15  2  0  0  0  0
 25 24  1  0  0  0  0
 26 29  1  0  0  0  0
 27 14  1  0  0  0  0
 28 12  2  0  0  0  0
 29 27  2  0  0  0  0
 30 24  2  0  0  0  0
 30 32  1  0  0  0  0
 31 28  1  0  0  0  0
 32 31  2  0  0  0  0
M  END
> <CdId>
2573

> <Mol Weight>
439.486

> <Formula>
C25H17N3O3S

> <Click_ID>
CLK034_A09 __ __ 

$$$$
