CLK017_E02
 OpenBabel03181410512D

 35 37  0  0  0  0  0  0  0  0999 V2000
    6.0125   -3.0658    0.0000 C   0  0  0  0  0  0  0  0  0  0  0  0
    5.5130   -2.4059    0.0000 C   0  0  0  0  0  0  0  0  0  0  0  0
    4.7340   -2.6717    0.0000 N   0  0  0  0  0  0  0  0  0  0  0  0
    4.7477   -3.4966    0.0000 N   0  0  0  0  0  0  0  0  0  0  0  0
    5.5405   -3.7441    0.0000 C   0  0  0  0  0  0  0  0  0  0  0  0
    5.7513   -1.6131    0.0000 C   0  0  0  0  0  0  0  0  0  0  0  0
    6.8374   -3.0521    0.0000 C   0  0  0  0  0  0  0  0  0  0  0  0
    4.0878   -4.0007    0.0000 C   0  0  0  0  0  0  0  0  0  0  0  0
    2.1172   -5.4901    0.0000 C   0  0  0  0  0  0  0  0  0  0  0  0
    8.5559   -7.3049    0.0000 C   0  0  0  0  0  0  0  0  0  0  0  0
    8.9821   -8.0151    0.0000 C   0  0  0  0  0  0  0  0  0  0  0  0
    5.8063   -4.5231    0.0000 O   0  0  0  0  0  0  0  0  0  0  0  0
    8.5101   -4.4453    0.0000 C   0  0  0  0  0  0  0  0  0  0  0  0
    7.2590   -3.7578    0.0000 C   0  0  0  0  0  0  0  0  0  0  0  0
    2.7680   -4.9906    0.0000 C   0  0  0  0  0  0  0  0  0  0  0  0
    8.0839   -3.7441    0.0000 C   0  0  0  0  0  0  0  0  0  0  0  0
    8.1114   -5.1739    0.0000 C   0  0  0  0  0  0  0  0  0  0  0  0
    2.2181   -6.3012    0.0000 O   0  0  0  0  0  0  0  0  0  0  0  0
    5.2701   -0.8982    0.0000 F   0  0  0  0  0  0  0  0  0  0  0  0
    5.9804   -0.8982    0.0000 F   0  0  0  0  0  0  0  0  0  0  0  0
    6.5441   -1.2969    0.0000 F   0  0  0  0  0  0  0  0  0  0  0  0
    4.1932   -4.8165    0.0000 C   0  0  0  0  0  0  0  0  0  0  0  0
    3.3317   -3.6754    0.0000 C   0  0  0  0  0  0  0  0  0  0  0  0
    2.6717   -4.1703    0.0000 C   0  0  0  0  0  0  0  0  0  0  0  0
    3.5333   -5.3114    0.0000 C   0  0  0  0  0  0  0  0  0  0  0  0
    7.2865   -5.1876    0.0000 C   0  0  0  0  0  0  0  0  0  0  0  0
    6.8603   -4.4727    0.0000 C   0  0  0  0  0  0  0  0  0  0  0  0
    1.3519   -5.1602    0.0000 O   0  0  0  0  0  0  0  0  0  0  0  0
    9.3350   -4.4315    0.0000 O   0  0  0  0  0  0  0  0  0  0  0  0
    8.5376   -5.8751    0.0000 O   0  0  0  0  0  0  0  0  0  0  0  0
    8.1389   -6.5991    0.0000 C   0  0  0  0  0  0  0  0  0  0  0  0
    1.2557   -4.3490    0.0000 C   0  0  0  0  0  0  0  0  0  0  0  0
    9.7611   -5.1418    0.0000 C   0  0  0  0  0  0  0  0  0  0  0  0
   10.5860   -5.1280    0.0000 C   0  0  0  0  0  0  0  0  0  0  0  0
    0.4949   -4.0191    0.0000 C   0  0  0  0  0  0  0  0  0  0  0  0
  2  1  1  0  0  0  0
  3  2  2  0  0  0  0
  3  4  1  0  0  0  0
  4  5  1  0  0  0  0
  5  1  1  0  0  0  0
  6  2  1  0  0  0  0
  7  1  2  0  0  0  0
  8  4  1  0  0  0  0
  9 15  1  0  0  0  0
 10 31  1  0  0  0  0
 11 10  3  0  0  0  0
 12  5  2  0  0  0  0
 13 16  1  0  0  0  0
 14  7  1  0  0  0  0
 15 24  1  0  0  0  0
 15 25  2  0  0  0  0
 16 14  2  0  0  0  0
 17 26  1  0  0  0  0
 17 13  2  0  0  0  0
 18  9  2  0  0  0  0
 19  6  1  0  0  0  0
 20  6  1  0  0  0  0
 21  6  1  0  0  0  0
 22  8  2  0  0  0  0
 23  8  1  0  0  0  0
 24 23  2  0  0  0  0
 25 22  1  0  0  0  0
 26 27  2  0  0  0  0
 27 14  1  0  0  0  0
 28  9  1  0  0  0  0
 29 13  1  0  0  0  0
 30 17  1  0  0  0  0
 31 30  1  0  0  0  0
 32 28  1  0  0  0  0
 33 29  1  0  0  0  0
 34 33  1  0  0  0  0
 35 32  1  0  0  0  0
M  END
> <CdId>
1277

> <Mol Weight>
486.4398

> <Formula>
C25H21F3N2O5

> <Click_ID>
CLK017_E02 __ __ 

$$$$
