CLK010_E10
 OpenBabel03181410512D

 28 30  0  0  0  0  0  0  0  0999 V2000
   -2.2354   -3.4402    0.0000 N    0  0  0  0  0  0  0  0  0  0  0  0
   -0.8062   -3.4402    0.0000 C    0  0  0  0  0  0  0  0  0  0  0  0
   -1.5208   -3.8525    0.0000 C    0  0  0  0  0  0  0  0  0  0  0  0
   -2.2354   -2.6157    0.0000 C    0  0  0  0  0  0  0  0  0  0  0  0
   -1.5208   -2.2034    0.0000 N    0  0  0  0  0  0  0  0  0  0  0  0
   -0.8062   -2.6157    0.0000 C    0  0  0  0  0  0  0  0  0  0  0  0
   -2.9500   -3.8525    0.0000 C    0  0  0  0  0  0  0  0  0  0  0  0
   -0.0916   -3.8525    0.0000 C    0  0  0  0  0  0  0  0  0  0  0  0
   -2.9500   -4.6770    0.0000 C    0  0  0  0  0  0  0  0  0  0  0  0
    3.4814   -0.9666    0.0000 C    0  0  0  0  0  0  0  0  0  0  0  0
   -2.9500   -2.2034    0.0000 O    0  0  0  0  0  0  0  0  0  0  0  0
    3.4814   -0.1420    0.0000 C    0  0  0  0  0  0  0  0  0  0  0  0
   -1.5208   -4.6770    0.0000 O    0  0  0  0  0  0  0  0  0  0  0  0
    1.3376   -2.2034    0.0000 C    0  0  0  0  0  0  0  0  0  0  0  0
   -0.0916   -2.2034    0.0000 O    0  0  0  0  0  0  0  0  0  0  0  0
    0.6230   -3.4402    0.0000 C    0  0  0  0  0  0  0  0  0  0  0  0
    0.6230   -2.6157    0.0000 C    0  0  0  0  0  0  0  0  0  0  0  0
    2.0522   -2.6157    0.0000 C    0  0  0  0  0  0  0  0  0  0  0  0
    2.0522   -3.4402    0.0000 C    0  0  0  0  0  0  0  0  0  0  0  0
   -3.6646   -5.0893    0.0000 C    0  0  0  0  0  0  0  0  0  0  0  0
    1.3376   -1.3789    0.0000 Br   0  0  0  0  0  0  0  0  0  0  0  0
    1.3376   -3.8525    0.0000 C    0  0  0  0  0  0  0  0  0  0  0  0
   -3.6646   -3.4402    0.0000 C    0  0  0  0  0  0  0  0  0  0  0  0
   -3.6646   -5.9138    0.0000 Cl   0  0  0  0  0  0  0  0  0  0  0  0
    2.7668   -2.2034    0.0000 O    0  0  0  0  0  0  0  0  0  0  0  0
    2.7668   -1.3789    0.0000 C    0  0  0  0  0  0  0  0  0  0  0  0
   -4.3792   -3.8525    0.0000 C    0  0  0  0  0  0  0  0  0  0  0  0
   -4.3792   -4.6770    0.0000 C    0  0  0  0  0  0  0  0  0  0  0  0
  2  3  1  0  0  0  0
  3  1  1  0  0  0  0
  4  1  1  0  0  0  0
  5  4  1  0  0  0  0
  6  5  1  0  0  0  0
  6  2  1  0  0  0  0
  7  1  1  0  0  0  0
  8  2  2  0  0  0  0
  9  7  2  0  0  0  0
 10 26  1  0  0  0  0
 11  4  2  0  0  0  0
 12 10  3  0  0  0  0
 13  3  2  0  0  0  0
 14 17  1  0  0  0  0
 14 18  2  0  0  0  0
 15  6  2  0  0  0  0
 16  8  1  0  0  0  0
 17 16  2  0  0  0  0
 18 19  1  0  0  0  0
 19 22  2  0  0  0  0
 20  9  1  0  0  0  0
 21 14  1  0  0  0  0
 22 16  1  0  0  0  0
 23  7  1  0  0  0  0
 24 20  1  0  0  0  0
 25 18  1  0  0  0  0
 26 25  1  0  0  0  0
 27 23  2  0  0  0  0
 28 27  1  0  0  0  0
 28 20  2  0  0  0  0
M  END
> <CdId>
725

> <Mol Weight>
459.677

> <Formula>
C20H12BrClN2O4

> <Click_ID>
CLK010_E10 __ __ 

$$$$
