CLK020_B03
 OpenBabel03181410512D

 30 32  0  0  0  0  0  0  0  0999 V2000
    0.0459    2.1954    0.0000 C   0  0  0  0  0  0  0  0  0  0  0  0
    0.8709    2.2916    0.0000 N   0  0  0  0  0  0  0  0  0  0  0  0
   -0.3666    1.4804    0.0000 C   0  0  0  0  0  0  0  0  0  0  0  0
   -0.2841    2.9516    0.0000 N   0  0  0  0  0  0  0  0  0  0  0  0
    1.0359    3.0891    0.0000 C   0  0  0  0  0  0  0  0  0  0  0  0
   -1.1916    1.4804    0.0000 C   0  0  0  0  0  0  0  0  0  0  0  0
    0.3209    3.5016    0.0000 C   0  0  0  0  0  0  0  0  0  0  0  0
    0.0459    0.7654    0.0000 C   0  0  0  0  0  0  0  0  0  0  0  0
   -1.6041    3.6254    0.0000 C   0  0  0  0  0  0  0  0  0  0  0  0
   -1.6041    2.1954    0.0000 C   0  0  0  0  0  0  0  0  0  0  0  0
   -2.4291    3.6254    0.0000 C   0  0  0  0  0  0  0  0  0  0  0  0
   -2.8416    2.9104    0.0000 C   0  0  0  0  0  0  0  0  0  0  0  0
    0.4584    0.0550    0.0000 N   0  0  0  0  0  0  0  0  0  0  0  0
   -4.0791    5.0509    0.0000 C   0  0  0  0  0  0  0  0  0  0  0  0
   -4.4916    5.7659    0.0000 C   0  0  0  0  0  0  0  0  0  0  0  0
   -1.1916    2.9104    0.0000 C   0  0  0  0  0  0  0  0  0  0  0  0
   -2.4291    2.1954    0.0000 C   0  0  0  0  0  0  0  0  0  0  0  0
    1.7509    3.5016    0.0000 C   0  0  0  0  0  0  0  0  0  0  0  0
    0.3209    4.3266    0.0000 C   0  0  0  0  0  0  0  0  0  0  0  0
   -4.0791    2.1954    0.0000 C   0  0  0  0  0  0  0  0  0  0  0  0
   -4.9041    2.1954    0.0000 C   0  0  0  0  0  0  0  0  0  0  0  0
    1.7509    4.3266    0.0000 C   0  0  0  0  0  0  0  0  0  0  0  0
   -1.1916    4.3404    0.0000 O   0  0  0  0  0  0  0  0  0  0  0  0
   -2.8416    4.3404    0.0000 O   0  0  0  0  0  0  0  0  0  0  0  0
    1.0359    4.7346    0.0000 C   0  0  0  0  0  0  0  0  0  0  0  0
   -3.6666    2.9104    0.0000 C   0  0  0  0  0  0  0  0  0  0  0  0
   -3.6666    4.3404    0.0000 C   0  0  0  0  0  0  0  0  0  0  0  0
   -0.3666    4.3404    0.0000 C   0  0  0  0  0  0  0  0  0  0  0  0
    2.4659    4.7346    0.0000 C   0  0  0  0  0  0  0  0  0  0  0  0
    0.0459    5.0509    0.0000 C   0  0  0  0  0  0  0  0  0  0  0  0
  2  1  2  0  0  0  0
  3  1  1  0  0  0  0
  4  1  1  0  0  0  0
  5  2  1  0  0  0  0
  5  7  1  0  0  0  0
  6  3  2  0  0  0  0
  7  4  1  0  0  0  0
  8  3  1  0  0  0  0
  9 16  1  0  0  0  0
  9 11  2  0  0  0  0
 10  6  1  0  0  0  0
 11 12  1  0  0  0  0
 12 17  2  0  0  0  0
 13  8  3  0  0  0  0
 14 27  1  0  0  0  0
 15 14  3  0  0  0  0
 16 10  2  0  0  0  0
 17 10  1  0  0  0  0
 18  5  2  0  0  0  0
 19  7  2  0  0  0  0
 20 26  1  0  0  0  0
 21 20  2  0  0  0  0
 22 18  1  0  0  0  0
 22 25  2  0  0  0  0
 23  9  1  0  0  0  0
 24 11  1  0  0  0  0
 25 19  1  0  0  0  0
 26 12  1  0  0  0  0
 27 24  1  0  0  0  0
 28 23  1  0  0  0  0
 29 22  1  0  0  0  0
 30 28  1  0  0  0  0
M  END
> <CdId>
1488

> <Mol Weight>
397.469

> <Formula>
C25H23N3O2

> <Click_ID>
CLK020_B03 __ __ 

$$$$
