CLK035_D10
 OpenBabel03181410512D

 21 23  0  0  0  0  0  0  0  0999 V2000
   -3.5304    2.4438    0.0000 C   0  0  0  0  0  0  0  0  0  0  0  0
   -3.2737    3.2278    0.0000 C   0  0  0  0  0  0  0  0  0  0  0  0
   -4.3557    2.4438    0.0000 N   0  0  0  0  0  0  0  0  0  0  0  0
   -2.9711    1.8386    0.0000 N   0  0  0  0  0  0  0  0  0  0  0  0
   -2.4713    3.4066    0.0000 C   0  0  0  0  0  0  0  0  0  0  0  0
   -4.6033    3.2278    0.0000 N   0  0  0  0  0  0  0  0  0  0  0  0
   -1.9211    2.8014    0.0000 N   0  0  0  0  0  0  0  0  0  0  0  0
   -3.9477    3.7092    0.0000 C   0  0  0  0  0  0  0  0  0  0  0  0
   -4.8647    1.7973    0.0000 C   0  0  0  0  0  0  0  0  0  0  0  0
   -2.1687    2.0082    0.0000 C   0  0  0  0  0  0  0  0  0  0  0  0
   -4.5621    1.0316    0.0000 C   0  0  0  0  0  0  0  0  0  0  0  0
   -0.5456    2.3750    0.0000 C   0  0  0  0  0  0  0  0  0  0  0  0
    0.0046    1.7698    0.0000 C   0  0  0  0  0  0  0  0  0  0  0  0
   -5.6762    1.9211    0.0000 C   0  0  0  0  0  0  0  0  0  0  0  0
   -2.2237    4.2044    0.0000 O   0  0  0  0  0  0  0  0  0  0  0  0
   -5.0710    0.3851    0.0000 C   0  0  0  0  0  0  0  0  0  0  0  0
   -1.1095    2.9802    0.0000 C   0  0  0  0  0  0  0  0  0  0  0  0
   -6.1898    1.2746    0.0000 C   0  0  0  0  0  0  0  0  0  0  0  0
   -5.8872    0.5043    0.0000 C   0  0  0  0  0  0  0  0  0  0  0  0
   -3.7368    0.9170    0.0000 C   0  0  0  0  0  0  0  0  0  0  0  0
   -6.4052   -0.1513    0.0000 C   0  0  0  0  0  0  0  0  0  0  0  0
  2  1  2  0  0  0  0
  3  1  1  0  0  0  0
  4  1  1  0  0  0  0
  5  2  1  0  0  0  0
  6  3  1  0  0  0  0
  6  8  2  0  0  0  0
  7 10  1  0  0  0  0
  7  5  1  0  0  0  0
  8  2  1  0  0  0  0
  9  3  1  0  0  0  0
 10  4  2  0  0  0  0
 11  9  2  0  0  0  0
 12 17  1  0  0  0  0
 13 12  3  0  0  0  0
 14  9  1  0  0  0  0
 15  5  2  0  0  0  0
 16 11  1  0  0  0  0
 16 19  2  0  0  0  0
 17  7  1  0  0  0  0
 18 14  2  0  0  0  0
 19 18  1  0  0  0  0
 20 11  1  0  0  0  0
 21 19  1  0  0  0  0
M  END
> <CdId>
2684

> <Mol Weight>
278.3086

> <Formula>
C16H14N4O

> <Click_ID>
CLK035_D10 __ __ 

$$$$
