CLK020_G05
 OpenBabel03181410512D

 26 29  0  0  0  0  0  0  0  0999 V2000
    2.1622    1.7407    0.0000 C   0  0  3  0  0  0  0  0  0  0  0  0
    2.8218    1.2597    0.0000 C   0  0  0  0  0  0  0  0  0  0  0  0
    3.4952    1.7407    0.0000 N   0  0  0  0  0  0  0  0  0  0  0  0
    2.4095    2.5240    0.0000 C   0  0  0  0  0  0  0  0  0  0  0  0
    3.2341    2.5240    0.0000 C   0  0  0  0  0  0  0  0  0  0  0  0
    1.4063    2.0797    0.0000 C   0  0  0  0  0  0  0  0  0  0  0  0
    0.8292    1.4796    0.0000 C   0  0  0  0  0  0  0  0  0  0  0  0
    0.0321    1.6857    0.0000 C   0  0  0  0  0  0  0  0  0  0  0  0
   -1.3421    1.2872    0.0000 C   0  0  0  0  0  0  0  0  0  0  0  0
    4.7870    2.1392    0.0000 C   0  0  0  0  0  0  0  0  0  0  0  0
   -0.5360    1.0856    0.0000 C   0  0  0  0  0  0  0  0  0  0  0  0
    5.2954    2.7851    0.0000 C   0  0  0  0  0  0  0  0  0  0  0  0
    2.8218    0.4351    0.0000 O   0  0  0  0  0  0  0  0  0  0  0  0
   -1.5666    2.0842    0.0000 C   0  0  0  0  0  0  0  0  0  0  0  0
   -2.0247    0.8245    0.0000 O   0  0  0  0  0  0  0  0  0  0  0  0
   -2.3912    2.1117    0.0000 O   0  0  0  0  0  0  0  0  0  0  0  0
   -2.6751    1.3330    0.0000 C   0  0  0  0  0  0  0  0  0  0  0  0
    4.2785    1.4842    0.0000 C   0  0  0  0  0  0  0  0  0  0  0  0
    1.7499    1.0261    0.0000 O   0  0  0  0  0  0  0  0  0  0  0  0
    0.9941    0.9299    0.0000 O   0  0  0  0  0  0  0  0  0  0  0  0
   -0.1924    2.4736    0.0000 C   0  0  0  0  0  0  0  0  0  0  0  0
   -0.9986    2.6751    0.0000 C   0  0  0  0  0  0  0  0  0  0  0  0
    1.9973    3.2386    0.0000 C   0  0  0  0  0  0  0  0  0  0  0  0
    3.6463    3.2386    0.0000 C   0  0  0  0  0  0  0  0  0  0  0  0
    2.4095    3.9532    0.0000 C   0  0  0  0  0  0  0  0  0  0  0  0
    3.2341    3.9532    0.0000 C   0  0  0  0  0  0  0  0  0  0  0  0
  2  1  1  0  0  0  0
  3  2  1  0  0  0  0
  3  5  1  0  0  0  0
  4  1  1  0  0  0  0
  5  4  2  0  0  0  0
  6  1  1  0  0  0  0
  7  6  1  0  0  0  0
  8  7  1  0  0  0  0
  9 11  2  0  0  0  0
 10 18  1  0  0  0  0
 11  8  1  0  0  0  0
 12 10  3  0  0  0  0
 13  2  2  0  0  0  0
 14 22  2  0  0  0  0
 14  9  1  0  0  0  0
 15  9  1  0  0  0  0
 16 14  1  0  0  0  0
 17 15  1  0  0  0  0
 17 16  1  0  0  0  0
 18  3  1  0  0  0  0
 19  1  1  0  0  0  0
 20  7  2  0  0  0  0
 21  8  2  0  0  0  0
 22 21  1  0  0  0  0
 23  4  1  0  0  0  0
 24  5  1  0  0  0  0
 24 26  2  0  0  0  0
 25 23  2  0  0  0  0
 26 25  1  0  0  0  0
M  END
> <CdId>
1540

> <Mol Weight>
349.3368

> <Formula>
C20H15NO5

> <Click_ID>
CLK020_G05 __ __ 

$$$$
