CLK015_D06
 OpenBabel03181410512D

 25 26  0  0  0  0  0  0  0  0999 V2000
    8.5901   -6.2495    0.0000 C   0  0  0  0  0  0  0  0  0  0  0  0
    9.3136   -5.0004    0.0000 N   0  0  0  0  0  0  0  0  0  0  0  0
   10.0412   -6.2576    0.0000 N   0  0  0  0  0  0  0  0  0  0  0  0
   10.0332   -5.4128    0.0000 C   0  0  0  0  0  0  0  0  0  0  0  0
    9.3177   -6.6740    0.0000 C   0  0  0  0  0  0  0  0  0  0  0  0
    8.5901   -5.4128    0.0000 C   0  0  0  0  0  0  0  0  0  0  0  0
    7.8624   -6.6619    0.0000 C   0  0  0  0  0  0  0  0  0  0  0  0
    3.6988   -5.0368    0.0000 C   0  0  0  0  0  0  0  0  0  0  0  0
   10.7567   -4.9964    0.0000 O   0  0  0  0  0  0  0  0  0  0  0  0
    2.9995   -4.6245    0.0000 C   0  0  0  0  0  0  0  0  0  0  0  0
    9.3136   -7.5108    0.0000 O   0  0  0  0  0  0  0  0  0  0  0  0
    7.8705   -5.0004    0.0000 O   0  0  0  0  0  0  0  0  0  0  0  0
    5.7645   -6.2738    0.0000 C   0  0  0  0  0  0  0  0  0  0  0  0
    7.1712   -6.2617    0.0000 C   0  0  0  0  0  0  0  0  0  0  0  0
    6.4678   -6.6861    0.0000 C   0  0  0  0  0  0  0  0  0  0  0  0
    5.7846   -5.4491    0.0000 C   0  0  0  0  0  0  0  0  0  0  0  0
   10.7608   -6.6740    0.0000 C   0  0  0  0  0  0  0  0  0  0  0  0
    9.3136   -4.1637    0.0000 C   0  0  0  0  0  0  0  0  0  0  0  0
    6.4921   -5.0247    0.0000 C   0  0  0  0  0  0  0  0  0  0  0  0
    7.1955   -5.4370    0.0000 C   0  0  0  0  0  0  0  0  0  0  0  0
    5.0490   -6.6942    0.0000 O   0  0  0  0  0  0  0  0  0  0  0  0
    5.0934   -5.0328    0.0000 O   0  0  0  0  0  0  0  0  0  0  0  0
    4.3820   -5.4451    0.0000 C   0  0  0  0  0  0  0  0  0  0  0  0
    5.0368   -7.5108    0.0000 C   0  0  0  0  0  0  0  0  0  0  0  0
    4.3213   -7.9352    0.0000 C   0  0  0  0  0  0  0  0  0  0  0  0
  2  6  1  0  0  0  0
  3  5  1  0  0  0  0
  4  2  1  0  0  0  0
  4  3  1  0  0  0  0
  5  1  1  0  0  0  0
  6  1  1  0  0  0  0
  7  1  2  0  0  0  0
  8 23  1  0  0  0  0
  9  4  2  0  0  0  0
 10  8  3  0  0  0  0
 11  5  2  0  0  0  0
 12  6  2  0  0  0  0
 13 15  1  0  0  0  0
 14  7  1  0  0  0  0
 15 14  2  0  0  0  0
 16 19  1  0  0  0  0
 16 13  2  0  0  0  0
 17  3  1  0  0  0  0
 18  2  1  0  0  0  0
 19 20  2  0  0  0  0
 20 14  1  0  0  0  0
 21 13  1  0  0  0  0
 22 16  1  0  0  0  0
 23 22  1  0  0  0  0
 24 21  1  0  0  0  0
 25 24  1  0  0  0  0
M  END
> <CdId>
1111

> <Mol Weight>
342.3459

> <Formula>
C18H18N2O5

> <Click_ID>
CLK015_D06 __ __ 

$$$$
