CLK005_F11
 OpenBabel03181410512D

 19 20  0  0  0  0  0  0  0  0999 V2000
    1.3944    0.1968    0.0000 C    0  0  0  0  0  0  0  0  0  0  0  0
    0.6778   -1.0422    0.0000 N    0  0  0  0  0  0  0  0  0  0  0  0
   -0.0413    0.1968    0.0000 C    0  0  0  0  0  0  0  0  0  0  0  0
    1.3944   -0.6292    0.0000 C    0  0  0  0  0  0  0  0  0  0  0  0
    0.6778    0.6097    0.0000 C    0  0  0  0  0  0  0  0  0  0  0  0
   -1.4697    0.1968    0.0000 C    0  0  0  0  0  0  0  0  0  0  0  0
   -0.7555    0.6097    0.0000 N    0  0  0  0  0  0  0  0  0  0  0  0
   -3.6172    0.6097    0.0000 C    0  0  0  0  0  0  0  0  0  0  0  0
   -0.0413   -0.6292    0.0000 C    0  0  0  0  0  0  0  0  0  0  0  0
   -4.3241    1.0251    0.0000 C    0  0  0  0  0  0  0  0  0  0  0  0
    2.1086   -1.0422    0.0000 C    0  0  0  0  0  0  0  0  0  0  0  0
   -1.4697   -0.6292    0.0000 O    0  0  0  0  0  0  0  0  0  0  0  0
   -2.1912    0.6097    0.0000 N    0  0  0  0  0  0  0  0  0  0  0  0
    0.6778    1.4357    0.0000 O    0  0  0  0  0  0  0  0  0  0  0  0
    2.1086   -1.8681    0.0000 Cl   0  0  0  0  0  0  0  0  0  0  0  0
    2.1086    0.6097    0.0000 C    0  0  0  0  0  0  0  0  0  0  0  0
   -2.9054    0.1968    0.0000 C    0  0  0  0  0  0  0  0  0  0  0  0
    2.8228    0.1968    0.0000 C    0  0  0  0  0  0  0  0  0  0  0  0
    2.8228   -0.6292    0.0000 C    0  0  0  0  0  0  0  0  0  0  0  0
  2  4  1  0  0  0  0
  3  5  2  0  0  0  0
  4  1  1  0  0  0  0
  5  1  1  0  0  0  0
  6  7  1  0  0  0  0
  7  3  1  0  0  0  0
  8 17  1  0  0  0  0
  9  3  1  0  0  0  0
  9  2  2  0  0  0  0
 10  8  3  0  0  0  0
 11  4  2  0  0  0  0
 12  6  2  0  0  0  0
 13  6  1  0  0  0  0
 14  5  1  0  0  0  0
 15 11  1  0  0  0  0
 16  1  2  0  0  0  0
 17 13  1  0  0  0  0
 18 16  1  0  0  0  0
 19 18  2  0  0  0  0
 19 11  1  0  0  0  0
M  END
> <CdId>
380

> <Mol Weight>
275.69

> <Formula>
C13H10ClN3O2

> <Click_ID>
CLK005_F11 __ __ 

$$$$
