CLK032_E08
 OpenBabel03181410512D

 25 27  0  0  0  0  0  0  0  0999 V2000
   -1.8964    2.1589    0.0000 C   0  0  0  0  0  0  0  0  0  0  0  0
   -1.0711    2.1589    0.0000 N   0  0  0  0  0  0  0  0  0  0  0  0
   -2.3756    2.8215    0.0000 N   0  0  0  0  0  0  0  0  0  0  0  0
   -2.3756    1.4837    0.0000 S   0  0  0  0  0  0  0  0  0  0  0  0
   -3.1634    2.5590    0.0000 C   0  0  0  0  0  0  0  0  0  0  0  0
    1.8380    0.0208    0.0000 N   0  3  0  0  0  0  0  0  0  0  0  0
   -3.1592    1.7337    0.0000 C   0  0  0  0  0  0  0  0  0  0  0  0
   -0.6585    1.4462    0.0000 C   0  0  0  0  0  0  0  0  0  0  0  0
    1.4046    0.7377    0.0000 C   0  0  0  0  0  0  0  0  0  0  0  0
    0.1667    1.4462    0.0000 C   0  0  0  0  0  0  0  0  0  0  0  0
   -1.3211    3.7718    0.0000 C   0  0  0  0  0  0  0  0  0  0  0  0
    0.5793    0.7335    0.0000 C   0  0  0  0  0  0  0  0  0  0  0  0
   -0.5209    3.9468    0.0000 C   0  0  0  0  0  0  0  0  0  0  0  0
    1.4254   -0.6919    0.0000 O   0  5  0  0  0  0  0  0  0  0  0  0
    2.6549    0.0375    0.0000 O   0  0  0  0  0  0  0  0  0  0  0  0
   -3.8760    2.9841    0.0000 C   0  0  0  0  0  0  0  0  0  0  0  0
   -1.0628    0.7252    0.0000 O   0  0  0  0  0  0  0  0  0  0  0  0
   -2.1256    3.6093    0.0000 C   0  0  0  0  0  0  0  0  0  0  0  0
   -3.8760    3.8010    0.0000 F   0  0  0  0  0  0  0  0  0  0  0  0
   -3.8760    1.3254    0.0000 C   0  0  0  0  0  0  0  0  0  0  0  0
    1.8130    1.4504    0.0000 C   0  0  0  0  0  0  0  0  0  0  0  0
    0.5793    2.1589    0.0000 C   0  0  0  0  0  0  0  0  0  0  0  0
   -4.5846    1.7337    0.0000 C   0  0  0  0  0  0  0  0  0  0  0  0
    1.4046    2.1631    0.0000 C   0  0  0  0  0  0  0  0  0  0  0  0
   -4.5846    2.5590    0.0000 C   0  0  0  0  0  0  0  0  0  0  0  0
  2  1  2  0  0  0  0
  3  1  1  0  0  0  0
  4  1  1  0  0  0  0
  5  3  1  0  0  0  0
  6  9  1  0  0  0  0
  7  4  1  0  0  0  0
  7  5  2  0  0  0  0
  8  2  1  0  0  0  0
  9 12  1  0  0  0  0
  9 21  2  0  0  0  0
 10  8  1  0  0  0  0
 11 18  1  0  0  0  0
 12 10  2  0  0  0  0
 13 11  3  0  0  0  0
 14  6  1  0  0  0  0
 15  6  2  0  0  0  0
 16  5  1  0  0  0  0
 17  8  2  0  0  0  0
 18  3  1  0  0  0  0
 19 16  1  0  0  0  0
 20  7  1  0  0  0  0
 21 24  1  0  0  0  0
 22 10  1  0  0  0  0
 23 20  2  0  0  0  0
 23 25  1  0  0  0  0
 24 22  2  0  0  0  0
 25 16  2  0  0  0  0
M  END
> <CdId>
2452

> <Mol Weight>
355.343

> <Formula>
C17H10FN3O3S

> <Click_ID>
CLK032_E08 __ __ 

$$$$
