CLK023_G07
 OpenBabel03181410512D

 17 18  0  0  0  0  0  0  0  0999 V2000
   -0.8829   -0.8589    0.0000 N    0  0  0  0  0  0  0  0  0  0  0  0
   -0.6355   -1.6456    0.0000 C    0  0  0  0  0  0  0  0  0  0  0  0
    0.4432   -0.8589    0.0000 C    0  0  0  0  0  0  0  0  0  0  0  0
   -0.2233   -0.3813    0.0000 C    0  0  0  0  0  0  0  0  0  0  0  0
    0.1890   -1.6456    0.0000 S    0  0  0  0  0  0  0  0  0  0  0  0
    1.1543   -0.4466    0.0000 C    0  0  0  0  0  0  0  0  0  0  0  0
    1.1475    0.3779    0.0000 C    0  0  0  0  0  0  0  0  0  0  0  0
    1.8036    0.8795    0.0000 S    0  0  0  0  0  0  0  0  0  0  0  0
    1.5357    1.6628    0.0000 C    0  0  0  0  0  0  0  0  0  0  0  0
   -1.8964    0.1271    0.0000 C    0  0  0  0  0  0  0  0  0  0  0  0
    0.7043    1.6422    0.0000 C    0  0  0  0  0  0  0  0  0  0  0  0
    0.4673    0.8520    0.0000 C    0  0  0  0  0  0  0  0  0  0  0  0
   -2.1163    0.9241    0.0000 C    0  0  0  0  0  0  0  0  0  0  0  0
   -1.1990   -2.2468    0.0000 O    0  0  0  0  0  0  0  0  0  0  0  0
   -0.2336    0.4432    0.0000 O    0  0  0  0  0  0  0  0  0  0  0  0
   -1.6799   -0.6734    0.0000 C    0  0  0  0  0  0  0  0  0  0  0  0
    2.1128    2.2503    0.0000 Cl   0  0  0  0  0  0  0  0  0  0  0  0
  2  1  1  0  0  0  0
  3  4  1  0  0  0  0
  3  5  1  0  0  0  0
  4  1  1  0  0  0  0
  5  2  1  0  0  0  0
  6  3  2  0  0  0  0
  7  6  1  0  0  0  0
  8  7  1  0  0  0  0
  9  8  1  0  0  0  0
 10 16  1  0  0  0  0
 11 12  1  0  0  0  0
 11  9  2  0  0  0  0
 12  7  2  0  0  0  0
 13 10  3  0  0  0  0
 14  2  2  0  0  0  0
 15  4  2  0  0  0  0
 16  1  1  0  0  0  0
 17  9  1  0  0  0  0
M  END
> <CdId>
1762

> <Mol Weight>
283.754

> <Formula>
C11H6ClNO2S2

> <Click_ID>
CLK023_G07 __ __ 

$$$$
