CLK015_H07
 OpenBabel03181410512D

 19 20  0  0  0  0  0  0  0  0999 V2000
    2.6312    0.4231    0.0000 N    0  0  0  0  0  0  0  0  0  0  0  0
    2.8909   -0.3687    0.0000 C    0  0  0  0  0  0  0  0  0  0  0  0
    3.9761    0.4231    0.0000 C    0  0  0  0  0  0  0  0  0  0  0  0
    3.3057    0.9050    0.0000 C    0  0  0  0  0  0  0  0  0  0  0  0
    3.7205   -0.3687    0.0000 N    0  0  0  0  0  0  0  0  0  0  0  0
    4.7680    0.6745    0.0000 C    0  0  0  0  0  0  0  0  0  0  0  0
    6.4146    4.9565    0.0000 C    0  0  0  0  0  0  0  0  0  0  0  0
    6.5905    5.7609    0.0000 C    0  0  0  0  0  0  0  0  0  0  0  0
    5.8824    2.5473    0.0000 C    0  0  0  0  0  0  0  0  0  0  0  0
    4.9314    1.4832    0.0000 C    0  0  0  0  0  0  0  0  0  0  0  0
    2.3924   -1.0432    0.0000 O    0  0  0  0  0  0  0  0  0  0  0  0
    3.2974    1.7346    0.0000 O    0  0  0  0  0  0  0  0  0  0  0  0
    5.7107    1.7346    0.0000 C    0  0  0  0  0  0  0  0  0  0  0  0
    5.2707    3.1004    0.0000 C    0  0  0  0  0  0  0  0  0  0  0  0
    4.4915    2.8490    0.0000 C    0  0  0  0  0  0  0  0  0  0  0  0
    6.6659    2.7987    0.0000 Br   0  0  0  0  0  0  0  0  0  0  0  0
    4.3238    2.0320    0.0000 C    0  0  0  0  0  0  0  0  0  0  0  0
    5.4467    3.9048    0.0000 O    0  0  0  0  0  0  0  0  0  0  0  0
    6.2344    4.1479    0.0000 C    0  0  0  0  0  0  0  0  0  0  0  0
  2  1  1  0  0  0  0
  3  4  1  0  0  0  0
  3  5  1  0  0  0  0
  4  1  1  0  0  0  0
  5  2  1  0  0  0  0
  6  3  2  0  0  0  0
  7 19  1  0  0  0  0
  8  7  3  0  0  0  0
  9 13  2  0  0  0  0
 10  6  1  0  0  0  0
 11  2  2  0  0  0  0
 12  4  2  0  0  0  0
 13 10  1  0  0  0  0
 14 15  2  0  0  0  0
 14  9  1  0  0  0  0
 15 17  1  0  0  0  0
 16  9  1  0  0  0  0
 17 10  2  0  0  0  0
 18 14  1  0  0  0  0
 19 18  1  0  0  0  0
M  END
> <CdId>
1152

> <Mol Weight>
321.126

> <Formula>
C13H9BrN2O3

> <Click_ID>
CLK015_H07 __ __ 

$$$$
