CLK014_B05
 OpenBabel03181410512D

 22 23  0  0  0  0  0  0  0  0999 V2000
    1.5619   -0.8142    0.0000 N   0  0  0  0  0  0  0  0  0  0  0  0
    1.8195   -1.5993    0.0000 C   0  0  0  0  0  0  0  0  0  0  0  0
    2.2307   -0.3282    0.0000 C   0  0  0  0  0  0  0  0  0  0  0  0
    2.8954   -0.8142    0.0000 C   0  0  0  0  0  0  0  0  0  0  0  0
    2.6420   -1.5993    0.0000 S   0  0  0  0  0  0  0  0  0  0  0  0
    3.6805   -0.5608    0.0000 C   0  0  0  0  0  0  0  0  0  0  0  0
    0.6106    0.2451    0.0000 C   0  0  0  0  0  0  0  0  0  0  0  0
    0.3905    1.0426    0.0000 C   0  0  0  0  0  0  0  0  0  0  0  0
    1.3334   -2.2598    0.0000 O   0  0  0  0  0  0  0  0  0  0  0  0
    2.2224    0.4943    0.0000 O   0  0  0  0  0  0  0  0  0  0  0  0
    0.7851   -0.5608    0.0000 C   0  0  0  0  0  0  0  0  0  0  0  0
    3.8632    0.2451    0.0000 C   0  0  0  0  0  0  0  0  0  0  0  0
    4.4033    2.6627    0.0000 O   0  0  0  0  0  0  0  0  0  0  0  0
    4.2246    1.8527    0.0000 C   0  0  0  0  0  0  0  0  0  0  0  0
    4.6484    0.4943    0.0000 C   0  0  0  0  0  0  0  0  0  0  0  0
    3.2568    0.8058    0.0000 C   0  0  0  0  0  0  0  0  0  0  0  0
    3.7885    3.2235    0.0000 C   0  0  0  0  0  0  0  0  0  0  0  0
    3.4313    1.6159    0.0000 C   0  0  0  0  0  0  0  0  0  0  0  0
    4.8270    1.2961    0.0000 C   0  0  0  0  0  0  0  0  0  0  0  0
    3.9754    4.0170    0.0000 C   0  0  0  0  0  0  0  0  0  0  0  0
    3.3565    4.5778    0.0000 C   0  0  0  0  0  0  0  0  0  0  0  0
    4.7522    4.2662    0.0000 C   0  0  0  0  0  0  0  0  0  0  0  0
  2  1  1  0  0  0  0
  3  1  1  0  0  0  0
  4  3  1  0  0  0  0
  4  5  1  0  0  0  0
  5  2  1  0  0  0  0
  6  4  2  0  0  0  0
  7 11  1  0  0  0  0
  8  7  3  0  0  0  0
  9  2  2  0  0  0  0
 10  3  2  0  0  0  0
 11  1  1  0  0  0  0
 12  6  1  0  0  0  0
 13 14  1  0  0  0  0
 14 18  2  0  0  0  0
 14 19  1  0  0  0  0
 15 12  1  0  0  0  0
 16 12  2  0  0  0  0
 17 13  1  0  0  0  0
 18 16  1  0  0  0  0
 19 15  2  0  0  0  0
 20 17  1  0  0  0  0
 21 20  1  0  0  0  0
 22 20  1  0  0  0  0
M  END
> <CdId>
1010

> <Mol Weight>
315.387

> <Formula>
C17H17NO3S

> <Click_ID>
CLK014_B05 __ __ 

$$$$
