CLK023_C10
 OpenBabel03181410512D

 20 21  0  0  0  0  0  0  0  0999 V2000
    0.5294    1.5228    0.0000 N    0  0  0  0  0  0  0  0  0  0  0  0
    0.9384    0.8112    0.0000 C    0  0  0  0  0  0  0  0  0  0  0  0
   -0.3816    0.5294    0.0000 C    0  0  0  0  0  0  0  0  0  0  0  0
   -0.2819    1.3509    0.0000 C    0  0  0  0  0  0  0  0  0  0  0  0
    0.3816    0.1925    0.0000 S    0  0  0  0  0  0  0  0  0  0  0  0
   -1.0931    0.1169    0.0000 C    0  0  0  0  0  0  0  0  0  0  0  0
   -1.0931   -0.6978    0.0000 C    0  0  0  0  0  0  0  0  0  0  0  0
   -1.8047   -1.1103    0.0000 C    0  0  0  0  0  0  0  0  0  0  0  0
   -1.8047   -1.9353    0.0000 C    0  0  0  0  0  0  0  0  0  0  0  0
    1.6878    2.3581    0.0000 C    0  0  0  0  0  0  0  0  0  0  0  0
   -1.0931   -2.3547    0.0000 C    0  0  0  0  0  0  0  0  0  0  0  0
    2.5128    2.3512    0.0000 C    0  0  0  0  0  0  0  0  0  0  0  0
    1.7634    0.7116    0.0000 O    0  0  0  0  0  0  0  0  0  0  0  0
   -0.3816   -1.1103    0.0000 C    0  0  0  0  0  0  0  0  0  0  0  0
   -0.8972    1.9078    0.0000 O    0  0  0  0  0  0  0  0  0  0  0  0
   -0.3816   -1.9353    0.0000 C    0  0  0  0  0  0  0  0  0  0  0  0
    0.8697    2.2756    0.0000 C    0  0  0  0  0  0  0  0  0  0  0  0
   -2.5162   -2.3478    0.0000 I    0  0  0  0  0  0  0  0  0  0  0  0
   -2.5162   -0.7116    0.0000 O    0  0  0  0  0  0  0  0  0  0  0  0
    0.3300   -2.3547    0.0000 Br   0  0  0  0  0  0  0  0  0  0  0  0
  2  1  1  0  0  0  0
  3  4  1  0  0  0  0
  4  1  1  0  0  0  0
  5  2  1  0  0  0  0
  5  3  1  0  0  0  0
  6  3  2  0  0  0  0
  7  6  1  0  0  0  0
  8  7  2  0  0  0  0
  9  8  1  0  0  0  0
  9 11  2  0  0  0  0
 10 17  1  0  0  0  0
 11 16  1  0  0  0  0
 12 10  3  0  0  0  0
 13  2  2  0  0  0  0
 14  7  1  0  0  0  0
 15  4  2  0  0  0  0
 16 14  2  0  0  0  0
 17  1  1  0  0  0  0
 18  9  1  0  0  0  0
 19  8  1  0  0  0  0
 20 16  1  0  0  0  0
M  END
> <CdId>
1725

> <Mol Weight>
464.073

> <Formula>
C13H7BrINO3S

> <Click_ID>
CLK023_C10 __ __ 

$$$$
