CLK012_A03
 OpenBabel03181410512D

 18 19  0  0  0  0  0  0  0  0999 V2000
    1.5667   -0.8167    0.0000 N   0  0  0  0  0  0  0  0  0  0  0  0
    1.8250   -1.6042    0.0000 C   0  0  0  0  0  0  0  0  0  0  0  0
    2.9042   -0.8167    0.0000 C   0  0  0  0  0  0  0  0  0  0  0  0
    2.2375   -0.3292    0.0000 C   0  0  0  0  0  0  0  0  0  0  0  0
    2.6500   -1.6042    0.0000 S   0  0  0  0  0  0  0  0  0  0  0  0
    3.6917   -0.5625    0.0000 C   0  0  0  0  0  0  0  0  0  0  0  0
    0.6125    0.2458    0.0000 C   0  0  0  0  0  0  0  0  0  0  0  0
    3.8792    0.2500    0.0000 C   0  0  0  0  0  0  0  0  0  0  0  0
    0.3917    1.0458    0.0000 C   0  0  0  0  0  0  0  0  0  0  0  0
    1.3375   -2.2667    0.0000 O   0  0  0  0  0  0  0  0  0  0  0  0
    2.2292    0.4958    0.0000 O   0  0  0  0  0  0  0  0  0  0  0  0
    0.7875   -0.5625    0.0000 C   0  0  0  0  0  0  0  0  0  0  0  0
    4.6625    0.4583    0.0000 C   0  0  0  0  0  0  0  0  0  0  0  0
    3.2542    0.7625    0.0000 C   0  0  0  0  0  0  0  0  0  0  0  0
    5.2542   -0.1167    0.0000 C   0  0  0  0  0  0  0  0  0  0  0  0
    4.8167    1.1833    0.0000 C   0  0  0  0  0  0  0  0  0  0  0  0
    3.4167    1.4833    0.0000 C   0  0  0  0  0  0  0  0  0  0  0  0
    4.1917    1.6958    0.0000 C   0  0  0  0  0  0  0  0  0  0  0  0
  2  1  1  0  0  0  0
  3  4  1  0  0  0  0
  3  5  1  0  0  0  0
  4  1  1  0  0  0  0
  5  2  1  0  0  0  0
  6  3  2  0  0  0  0
  7 12  1  0  0  0  0
  8  6  1  0  0  0  0
  9  7  3  0  0  0  0
 10  2  2  0  0  0  0
 11  4  2  0  0  0  0
 12  1  1  0  0  0  0
 13  8  1  0  0  0  0
 14  8  2  0  0  0  0
 15 13  1  0  0  0  0
 16 13  2  0  0  0  0
 17 14  1  0  0  0  0
 18 17  2  0  0  0  0
 18 16  1  0  0  0  0
M  END
> <CdId>
838

> <Mol Weight>
257.308

> <Formula>
C14H11NO2S

> <Click_ID>
CLK012_A03 __ __ 

$$$$
