CLK013_G09
 OpenBabel03181410512D

 34 39  0  0  0  0  0  0  0  0999 V2000
   -0.2550   -0.5237    0.0000 N   0  0  0  0  0  0  0  0  0  0  0  0
    0.4782   -0.9472    0.0000 C   0  0  0  0  0  0  0  0  0  0  0  0
    0.4782   -1.7669    0.0000 N   0  0  0  0  0  0  0  0  0  0  0  0
   -0.9654   -1.7669    0.0000 C   0  0  0  0  0  0  0  0  0  0  0  0
   -0.9654   -0.9472    0.0000 C   0  0  0  0  0  0  0  0  0  0  0  0
   -0.2550   -2.1859    0.0000 C   0  0  0  0  0  0  0  0  0  0  0  0
    1.0975   -0.3825    0.0000 N   0  0  0  0  0  0  0  0  0  0  0  0
   -0.0683    0.2732    0.0000 C   0  0  0  0  0  0  0  0  0  0  0  0
   -1.6895   -2.1859    0.0000 C   0  0  0  0  0  0  0  0  0  0  0  0
    0.7514    0.3643    0.0000 N   0  0  0  0  0  0  0  0  0  0  0  0
    1.2022   -2.1859    0.0000 C   0  0  0  0  0  0  0  0  0  0  0  0
   -1.6895   -0.5237    0.0000 C   0  0  0  0  0  0  0  0  0  0  0  0
   -2.4045   -0.9472    0.0000 C   0  0  0  0  0  0  0  0  0  0  0  0
   -2.4045   -1.7669    0.0000 C   0  0  0  0  0  0  0  0  0  0  0  0
   -0.8698    2.3088    0.0000 C   0  0  0  0  0  0  0  0  0  0  0  0
   -0.2550   -3.0238    0.0000 O   0  0  0  0  0  0  0  0  0  0  0  0
   -1.3889    2.9327    0.0000 C   0  0  0  0  0  0  0  0  0  0  0  0
    1.9126   -1.7669    0.0000 C   0  0  0  0  0  0  0  0  0  0  0  0
   -0.6148    0.9107    0.0000 S   0  0  0  0  0  0  0  0  0  0  0  0
   -2.4045   -2.6003    0.0000 C   0  0  0  0  0  0  0  0  0  0  0  0
   -0.9654   -2.6003    0.0000 C   0  0  0  0  0  0  0  0  0  0  0  0
   -0.3415    1.6895    0.0000 C   0  0  0  0  0  0  0  0  0  0  0  0
   -1.6895    0.2960    0.0000 C   0  0  0  0  0  0  0  0  0  0  0  0
    1.2022   -3.0238    0.0000 C   0  0  0  0  0  0  0  0  0  0  0  0
   -3.1285   -0.5237    0.0000 C   0  0  0  0  0  0  0  0  0  0  0  0
    1.9126   -0.9472    0.0000 C   0  0  0  0  0  0  0  0  0  0  0  0
    2.6230   -2.1859    0.0000 C   0  0  0  0  0  0  0  0  0  0  0  0
   -0.9654   -3.4291    0.0000 C   0  0  0  0  0  0  0  0  0  0  0  0
   -2.4045   -3.4291    0.0000 C   0  0  0  0  0  0  0  0  0  0  0  0
   -2.3862    0.7104    0.0000 C   0  0  0  0  0  0  0  0  0  0  0  0
    1.9126   -3.4291    0.0000 C   0  0  0  0  0  0  0  0  0  0  0  0
   -3.1285    0.2960    0.0000 C   0  0  0  0  0  0  0  0  0  0  0  0
    2.6230   -3.0238    0.0000 C   0  0  0  0  0  0  0  0  0  0  0  0
   -1.6758   -3.8435    0.0000 C   0  0  0  0  0  0  0  0  0  0  0  0
  2  1  1  0  0  0  0
  3  2  1  0  0  0  0
  4  5  2  0  0  0  0
  5  1  1  0  0  0  0
  6  4  1  0  0  0  0
  6  3  1  0  0  0  0
  7  2  2  0  0  0  0
  8  1  1  0  0  0  0
  9  4  1  0  0  0  0
 10  8  2  0  0  0  0
 10  7  1  0  0  0  0
 11  3  1  0  0  0  0
 12  5  1  0  0  0  0
 13 12  2  0  0  0  0
 14 13  1  0  0  0  0
 14  9  1  0  0  0  0
 15 22  1  0  0  0  0
 16  6  2  0  0  0  0
 17 15  3  0  0  0  0
 18 11  2  0  0  0  0
 19  8  1  0  0  0  0
 20  9  1  0  0  0  0
 21  9  1  0  0  0  0
 22 19  1  0  0  0  0
 23 12  1  0  0  0  0
 24 11  1  0  0  0  0
 25 13  1  0  0  0  0
 25 32  2  0  0  0  0
 26 18  1  0  0  0  0
 27 18  1  0  0  0  0
 28 21  1  0  0  0  0
 29 20  1  0  0  0  0
 29 34  1  0  0  0  0
 30 23  2  0  0  0  0
 31 24  2  0  0  0  0
 32 30  1  0  0  0  0
 33 31  1  0  0  0  0
 33 27  2  0  0  0  0
 34 28  1  0  0  0  0
M  END
> <CdId>
984

> <Mol Weight>
466.597

> <Formula>
C28H26N4OS

> <Click_ID>
CLK013_G09 __ __ 

$$$$
