CLK008_D03
 OpenBabel03181410512D

 25 27  0  0  0  0  0  0  0  0999 V2000
    0.0724   -2.3539    0.0000 C   0  0  0  0  0  0  0  0  0  0  0  0
    0.0793   -3.1845    0.0000 C   0  0  0  0  0  0  0  0  0  0  0  0
   -0.5652   -1.8473    0.0000 N   0  0  0  0  0  0  0  0  0  0  0  0
    0.7582   -1.9024    0.0000 O   0  0  0  0  0  0  0  0  0  0  0  0
   -0.5894   -3.6773    0.0000 C   0  0  0  0  0  0  0  0  0  0  0  0
    0.7548   -3.6739    0.0000 O   0  0  0  0  0  0  0  0  0  0  0  0
   -0.2689   -1.0753    0.0000 C   0  0  0  0  0  0  0  0  0  0  0  0
    0.5411   -1.1132    0.0000 C   0  0  0  0  0  0  0  0  0  0  0  0
   -0.3274   -4.4631    0.0000 C   0  0  0  0  0  0  0  0  0  0  0  0
    0.4963   -4.4562    0.0000 C   0  0  0  0  0  0  0  0  0  0  0  0
   -0.7272   -0.3757    0.0000 C   0  0  0  0  0  0  0  0  0  0  0  0
    1.0546   -0.4550    0.0000 O   0  0  0  0  0  0  0  0  0  0  0  0
   -0.3446    0.3619    0.0000 C   0  0  0  0  0  0  0  0  0  0  0  0
   -0.8030    1.0615    0.0000 C   0  0  0  0  0  0  0  0  0  0  0  0
    0.4721    0.4136    0.0000 C   0  0  0  0  0  0  0  0  0  0  0  0
   -0.4274    1.7990    0.0000 C   0  0  0  0  0  0  0  0  0  0  0  0
    0.8547    1.1442    0.0000 C   0  0  0  0  0  0  0  0  0  0  0  0
    0.3964    1.8438    0.0000 C   0  0  0  0  0  0  0  0  0  0  0  0
   -0.8788    2.4815    0.0000 O   0  0  0  0  0  0  0  0  0  0  0  0
    0.7720    2.5814    0.0000 O   0  0  0  0  0  0  0  0  0  0  0  0
   -1.7025    2.4401    0.0000 C   0  0  0  0  0  0  0  0  0  0  0  0
    0.3205    3.2706    0.0000 C   0  0  0  0  0  0  0  0  0  0  0  0
   -2.1505    3.1328    0.0000 C   0  0  0  0  0  0  0  0  0  0  0  0
    0.6962    3.9978    0.0000 C   0  0  0  0  0  0  0  0  0  0  0  0
    1.5199    4.0392    0.0000 C   0  0  0  0  0  0  0  0  0  0  0  0
  1  2  1  0  0  0  0
  1  3  2  0  0  0  0
  1  4  1  0  0  0  0
  2  5  2  0  0  0  0
  2  6  1  0  0  0  0
  3  7  1  0  0  0  0
  4  8  1  0  0  0  0
  5  9  1  0  0  0  0
  6 10  1  0  0  0  0
  7 11  2  0  0  0  0
  7  8  1  0  0  0  0
  8 12  2  0  0  0  0
  9 10  2  0  0  0  0
 11 13  1  0  0  0  0
 13 14  1  0  0  0  0
 13 15  2  0  0  0  0
 14 16  2  0  0  0  0
 15 17  1  0  0  0  0
 16 18  1  0  0  0  0
 16 19  1  0  0  0  0
 17 18  2  0  0  0  0
 18 20  1  0  0  0  0
 19 21  1  0  0  0  0
 20 22  1  0  0  0  0
 21 23  1  0  0  0  0
 22 24  1  0  0  0  0
 24 25  3  0  0  0  0
M  END
> <CdId>
577

> <Mol Weight>
337.3261

> <Formula>
C19H15NO5

> <Click_ID>
CLK008_D03 __ __ 

$$$$
