CLK010_D07
 OpenBabel03181410512D

 30 32  0  0  0  0  0  0  0  0999 V2000
    2.4842   -0.6730    0.0000 N    0  0  0  0  0  0  0  0  0  0  0  0
    3.1821   -1.9068    0.0000 C    0  0  0  0  0  0  0  0  0  0  0  0
    2.4800   -1.4955    0.0000 C    0  0  0  0  0  0  0  0  0  0  0  0
    3.1946   -0.2617    0.0000 C    0  0  0  0  0  0  0  0  0  0  0  0
    3.9049   -0.6772    0.0000 N    0  0  0  0  0  0  0  0  0  0  0  0
    3.9008   -1.4997    0.0000 C    0  0  0  0  0  0  0  0  0  0  0  0
    3.1821   -2.7293    0.0000 C    0  0  0  0  0  0  0  0  0  0  0  0
    5.3132   -3.9797    0.0000 C    0  0  0  0  0  0  0  0  0  0  0  0
    4.5987   -4.3785    0.0000 C    0  0  0  0  0  0  0  0  0  0  0  0
    5.3257   -3.1572    0.0000 C    0  0  0  0  0  0  0  0  0  0  0  0
    1.7697   -0.2617    0.0000 C    0  0  0  0  0  0  0  0  0  0  0  0
    3.8925   -3.1447    0.0000 C    0  0  0  0  0  0  0  0  0  0  0  0
    6.7173   -5.6622    0.0000 C    0  0  0  0  0  0  0  0  0  0  0  0
    3.1946    0.5608    0.0000 O    0  0  0  0  0  0  0  0  0  0  0  0
    7.4276   -6.0817    0.0000 C    0  0  0  0  0  0  0  0  0  0  0  0
    1.7614   -1.8985    0.0000 O    0  0  0  0  0  0  0  0  0  0  0  0
    3.8800   -3.9673    0.0000 C    0  0  0  0  0  0  0  0  0  0  0  0
    4.6153   -2.7335    0.0000 C    0  0  0  0  0  0  0  0  0  0  0  0
    4.6111   -1.9109    0.0000 O    0  0  0  0  0  0  0  0  0  0  0  0
    1.0510   -0.6730    0.0000 C    0  0  0  0  0  0  0  0  0  0  0  0
    1.7697    0.5691    0.0000 C    0  0  0  0  0  0  0  0  0  0  0  0
    4.5862   -5.2093    0.0000 Br   0  0  0  0  0  0  0  0  0  0  0  0
    6.0236   -4.4034    0.0000 O    0  0  0  0  0  0  0  0  0  0  0  0
    0.3407    0.5691    0.0000 C    0  0  0  0  0  0  0  0  0  0  0  0
    6.0360   -2.7584    0.0000 O    0  0  0  0  0  0  0  0  0  0  0  0
    1.0510    0.9803    0.0000 C    0  0  0  0  0  0  0  0  0  0  0  0
    0.3407   -0.2617    0.0000 C    0  0  0  0  0  0  0  0  0  0  0  0
   -0.3821    0.9803    0.0000 Cl   0  0  0  0  0  0  0  0  0  0  0  0
    6.0111   -5.2342    0.0000 C    0  0  0  0  0  0  0  0  0  0  0  0
    6.0443   -1.9483    0.0000 C    0  0  0  0  0  0  0  0  0  0  0  0
  2  3  1  0  0  0  0
  2  6  1  0  0  0  0
  3  1  1  0  0  0  0
  4  1  1  0  0  0  0
  5  4  1  0  0  0  0
  6  5  1  0  0  0  0
  7  2  2  0  0  0  0
  8 10  2  0  0  0  0
  9 17  2  0  0  0  0
  9  8  1  0  0  0  0
 10 18  1  0  0  0  0
 11  1  1  0  0  0  0
 12  7  1  0  0  0  0
 13 29  1  0  0  0  0
 14  4  2  0  0  0  0
 15 13  3  0  0  0  0
 16  3  2  0  0  0  0
 17 12  1  0  0  0  0
 18 12  2  0  0  0  0
 19  6  2  0  0  0  0
 20 11  1  0  0  0  0
 21 11  2  0  0  0  0
 22  9  1  0  0  0  0
 23  8  1  0  0  0  0
 24 26  2  0  0  0  0
 24 27  1  0  0  0  0
 25 10  1  0  0  0  0
 26 21  1  0  0  0  0
 27 20  2  0  0  0  0
 28 24  1  0  0  0  0
 29 23  1  0  0  0  0
 30 25  1  0  0  0  0
M  END
> <CdId>
712

> <Mol Weight>
489.703

> <Formula>
C21H14BrClN2O5

> <Click_ID>
CLK010_D07 __ __ 

$$$$
