CLK041C03
 OpenBabel03181410512D

 25 26  0  0  0  0  0  0  0  0999 V2000
   -1.6208    1.7542    0.0000 C   0  0  0  0  0  0  0  0  0  0  0  0
   -1.6208    0.9292    0.0000 N   0  0  0  0  0  0  0  0  0  0  0  0
   -2.4042    2.0125    0.0000 N   0  0  0  0  0  0  0  0  0  0  0  0
   -0.9042    2.1667    0.0000 N   0  0  0  0  0  0  0  0  0  0  0  0
   -0.9042    0.5167    0.0000 C   0  0  0  0  0  0  0  0  0  0  0  0
   -0.1917    0.9292    0.0000 C   0  0  0  0  0  0  0  0  0  0  0  0
   -2.4042    0.6750    0.0000 N   0  0  0  0  0  0  0  0  0  0  0  0
   -2.8875    1.3417    0.0000 C   0  0  0  0  0  0  0  0  0  0  0  0
   -0.1917    1.7542    0.0000 C   0  0  0  0  0  0  0  0  0  0  0  0
    2.6667   -2.3708    0.0000 C   0  0  0  0  0  0  0  0  0  0  0  0
    0.5250    0.5167    0.0000 C   0  0  0  0  0  0  0  0  0  0  0  0
    3.3833   -2.7833    0.0000 C   0  0  0  0  0  0  0  0  0  0  0  0
    1.2375   -0.7208    0.0000 C   0  0  0  0  0  0  0  0  0  0  0  0
    1.2375   -1.5458    0.0000 N   0  0  0  0  0  0  0  0  0  0  0  0
    1.9542   -1.9583    0.0000 C   0  0  0  0  0  0  0  0  0  0  0  0
   -3.7125    1.3417    0.0000 S   0  0  0  0  0  0  0  0  0  0  0  0
    1.9542   -0.3083    0.0000 O   0  0  0  0  0  0  0  0  0  0  0  0
    0.5250   -0.3083    0.0000 C   0  0  0  0  0  0  0  0  0  0  0  0
   -0.9042   -0.3083    0.0000 C   0  0  0  0  0  0  0  0  0  0  0  0
    0.5250    2.1667    0.0000 C   0  0  0  0  0  0  0  0  0  0  0  0
    1.5417   -2.6708    0.0000 C   0  0  0  0  0  0  0  0  0  0  0  0
    2.3667   -1.2417    0.0000 C   0  0  0  0  0  0  0  0  0  0  0  0
   -4.1250    2.0583    0.0000 C   0  0  0  0  0  0  0  0  0  0  0  0
    3.1917   -1.2417    0.0000 C   0  0  0  0  0  0  0  0  0  0  0  0
    0.7167   -2.6708    0.0000 C   0  0  0  0  0  0  0  0  0  0  0  0
  2  1  1  0  0  0  0
  3  1  2  0  0  0  0
  4  1  1  0  0  0  0
  5  2  1  0  0  0  0
  6  5  2  0  0  0  0
  7  2  1  0  0  0  0
  7  8  2  0  0  0  0
  8  3  1  0  0  0  0
  9  4  2  0  0  0  0
  9  6  1  0  0  0  0
 10 15  1  0  0  0  0
 11  6  1  0  0  0  0
 12 10  3  0  0  0  0
 13 18  1  0  0  0  0
 14 13  1  0  0  0  0
 15 14  1  0  0  0  0
 16  8  1  0  0  0  0
 17 13  2  0  0  0  0
 18 11  1  0  0  0  0
 19  5  1  0  0  0  0
 20  9  1  0  0  0  0
 21 15  1  0  0  0  0
 22 15  1  0  0  0  0
 23 16  1  0  0  0  0
 24 22  1  0  0  0  0
 25 21  1  0  0  0  0
M  END
> <CdId>
3099

> <Mol Weight>
359.489

> <Formula>
C18H25N5OS

> <Click_ID>
CLK041C03 __ __ 

$$$$
