CLK028_C04
 OpenBabel03181410512D

 29 32  0  0  0  0  0  0  0  0999 V2000
    1.4365    0.1169    0.0000 N   0  0  0  0  0  0  0  0  0  0  0  0
    0.0206    0.1169    0.0000 C   0  0  0  0  0  0  0  0  0  0  0  0
    1.4365   -0.7045    0.0000 C   0  0  0  0  0  0  0  0  0  0  0  0
    0.7251    0.5293    0.0000 C   0  0  0  0  0  0  0  0  0  0  0  0
    0.7251   -1.1169    0.0000 N   0  0  0  0  0  0  0  0  0  0  0  0
    0.0206   -0.7045    0.0000 C   0  0  0  0  0  0  0  0  0  0  0  0
   -1.4124    0.1169    0.0000 C   0  0  0  0  0  0  0  0  0  0  0  0
   -0.6976    0.5293    0.0000 C   0  0  0  0  0  0  0  0  0  0  0  0
   -2.3128   -0.8763    0.0000 N   0  0  0  0  0  0  0  0  0  0  0  0
   -1.5017   -0.7010    0.0000 C   0  0  0  0  0  0  0  0  0  0  0  0
    2.1582    0.5293    0.0000 C   0  0  0  0  0  0  0  0  0  0  0  0
   -2.1718    0.4571    0.0000 C   0  0  0  0  0  0  0  0  0  0  0  0
   -2.7252   -0.1581    0.0000 C   0  0  0  0  0  0  0  0  0  0  0  0
    2.1582   -1.1169    0.0000 S   0  0  0  0  0  0  0  0  0  0  0  0
    2.8695    0.1066    0.0000 C   0  0  0  0  0  0  0  0  0  0  0  0
   -3.4708   -1.7148    0.0000 C   0  0  0  0  0  0  0  0  0  0  0  0
   -4.2956   -1.7526    0.0000 C   0  0  0  0  0  0  0  0  0  0  0  0
    0.7251    1.3540    0.0000 O   0  0  0  0  0  0  0  0  0  0  0  0
   -0.6976   -1.1169    0.0000 O   0  0  0  0  0  0  0  0  0  0  0  0
   -2.6461   -1.6289    0.0000 C   0  0  0  0  0  0  0  0  0  0  0  0
    3.5843    0.5189    0.0000 C   0  0  0  0  0  0  0  0  0  0  0  0
    2.1582    1.3471    0.0000 C   0  0  0  0  0  0  0  0  0  0  0  0
    4.2922    0.0928    0.0000 F   0  0  0  0  0  0  0  0  0  0  0  0
   -3.5259    0.0103    0.0000 C   0  0  0  0  0  0  0  0  0  0  0  0
   -2.4227    1.2440    0.0000 C   0  0  0  0  0  0  0  0  0  0  0  0
    2.8729    1.7526    0.0000 C   0  0  0  0  0  0  0  0  0  0  0  0
    3.5843    1.3437    0.0000 C   0  0  0  0  0  0  0  0  0  0  0  0
   -3.2269    1.4056    0.0000 C   0  0  0  0  0  0  0  0  0  0  0  0
   -3.7836    0.7938    0.0000 C   0  0  0  0  0  0  0  0  0  0  0  0
  2  4  1  0  0  0  0
  3  1  1  0  0  0  0
  4  1  1  0  0  0  0
  5  3  1  0  0  0  0
  5  6  1  0  0  0  0
  6  2  1  0  0  0  0
  7  8  1  0  0  0  0
  8  2  2  0  0  0  0
  9 10  1  0  0  0  0
  9 13  1  0  0  0  0
 10  7  2  0  0  0  0
 11  1  1  0  0  0  0
 12  7  1  0  0  0  0
 13 12  1  0  0  0  0
 14  3  2  0  0  0  0
 15 11  2  0  0  0  0
 16 20  1  0  0  0  0
 17 16  3  0  0  0  0
 18  4  2  0  0  0  0
 19  6  2  0  0  0  0
 20  9  1  0  0  0  0
 21 15  1  0  0  0  0
 22 11  1  0  0  0  0
 23 21  1  0  0  0  0
 24 13  2  0  0  0  0
 24 29  1  0  0  0  0
 25 12  2  0  0  0  0
 26 22  2  0  0  0  0
 27 26  1  0  0  0  0
 27 21  2  0  0  0  0
 28 25  1  0  0  0  0
 29 28  2  0  0  0  0
M  END
> <CdId>
2108

> <Mol Weight>
403.429

> <Formula>
C22H14FN3O2S

> <Click_ID>
CLK028_C04 __ __ 

$$$$
