CLK047E04
 OpenBabel03181410512D

 22 24  0  0  0  0  0  0  0  0999 V2000
    0.5417   -2.8708    0.0000 C   0  0  0  0  0  0  0  0  0  0  0  0
    0.5417   -2.0458    0.0000 N   0  0  0  0  0  0  0  0  0  0  0  0
    0.5417    0.4292    0.0000 C   0  0  0  0  0  0  0  0  0  0  0  0
   -0.1750   -3.2833    0.0000 C   0  0  0  0  0  0  0  0  0  0  0  0
   -0.1750    0.8417    0.0000 N   0  0  0  0  0  0  0  0  0  0  0  0
   -1.0000   -3.2833    0.0000 C   0  0  0  0  0  0  0  0  0  0  0  0
   -0.5875   -4.0000    0.0000 C   0  0  0  0  0  0  0  0  0  0  0  0
   -1.6000    3.3167    0.0000 C   0  0  0  0  0  0  0  0  0  0  0  0
   -2.3167    3.7292    0.0000 C   0  0  0  0  0  0  0  0  0  0  0  0
    0.5417   -0.3958    0.0000 C   0  0  0  0  0  0  0  0  0  0  0  0
   -0.1750   -1.6333    0.0000 C   0  0  0  0  0  0  0  0  0  0  0  0
    1.2542   -1.6333    0.0000 C   0  0  0  0  0  0  0  0  0  0  0  0
    1.2542   -3.2833    0.0000 O   0  0  0  0  0  0  0  0  0  0  0  0
    1.2542    0.8417    0.0000 O   0  0  0  0  0  0  0  0  0  0  0  0
   -0.1750    1.6667    0.0000 C   0  0  0  0  0  0  0  0  0  0  0  0
    1.2542   -0.8083    0.0000 C   0  0  0  0  0  0  0  0  0  0  0  0
   -0.1750   -0.8083    0.0000 C   0  0  0  0  0  0  0  0  0  0  0  0
   -0.8875    2.9042    0.0000 C   0  0  0  0  0  0  0  0  0  0  0  0
   -0.8875    2.0792    0.0000 C   0  0  0  0  0  0  0  0  0  0  0  0
    0.5417    2.9042    0.0000 C   0  0  0  0  0  0  0  0  0  0  0  0
    0.5417    2.0792    0.0000 C   0  0  0  0  0  0  0  0  0  0  0  0
   -0.1750    3.3167    0.0000 C   0  0  0  0  0  0  0  0  0  0  0  0
  2  1  1  0  0  0  0
  3 10  1  0  0  0  0
  4  1  1  0  0  0  0
  5  3  1  0  0  0  0
  6  4  1  0  0  0  0
  7  4  1  0  0  0  0
  7  6  1  0  0  0  0
  8 18  1  0  0  0  0
  9  8  3  0  0  0  0
 10 16  1  0  0  0  0
 11  2  1  0  0  0  0
 12  2  1  0  0  0  0
 13  1  2  0  0  0  0
 14  3  2  0  0  0  0
 15  5  1  0  0  0  0
 16 12  1  0  0  0  0
 17 11  1  0  0  0  0
 17 10  1  0  0  0  0
 18 19  1  0  0  0  0
 19 15  2  0  0  0  0
 20 21  2  0  0  0  0
 21 15  1  0  0  0  0
 22 18  2  0  0  0  0
 22 20  1  0  0  0  0
M  END
> <CdId>
3589

> <Mol Weight>
296.3636

> <Formula>
C18H20N2O2

> <Click_ID>
CLK047E04 __ __ 

$$$$
