CLK038D03
 OpenBabel03181410512D

 26 28  0  0  0  0  0  0  0  0999 V2000
   -0.5536    0.9073    0.0000 N   0  0  0  0  0  0  0  0  0  0  0  0
   -0.5536    1.7314    0.0000 C   0  0  0  0  0  0  0  0  0  0  0  0
   -1.3360    0.6535    0.0000 C   0  0  0  0  0  0  0  0  0  0  0  0
   -1.3360    1.9853    0.0000 O   0  0  0  0  0  0  0  0  0  0  0  0
   -1.8230    1.3193    0.0000 C   0  0  0  0  0  0  0  0  0  0  0  0
   -1.5899   -0.1291    0.0000 C   0  0  0  0  0  0  0  0  0  0  0  0
    0.9115   -3.9748    0.0000 C   0  0  0  0  0  0  0  0  0  0  0  0
    1.4609   -4.5907    0.0000 C   0  0  0  0  0  0  0  0  0  0  0  0
    0.3163   -1.1820    0.0000 C   0  0  0  0  0  0  0  0  0  0  0  0
   -1.0405   -0.7409    0.0000 C   0  0  0  0  0  0  0  0  0  0  0  0
    0.1124    2.2183    0.0000 C   0  0  0  0  0  0  0  0  0  0  0  0
   -2.6470    1.3193    0.0000 O   0  0  0  0  0  0  0  0  0  0  0  0
   -0.2330   -0.5702    0.0000 C   0  0  0  0  0  0  0  0  0  0  0  0
    0.0624   -1.9686    0.0000 C   0  0  0  0  0  0  0  0  0  0  0  0
   -0.7450   -2.1393    0.0000 C   0  0  0  0  0  0  0  0  0  0  0  0
   -1.2944   -1.5275    0.0000 C   0  0  0  0  0  0  0  0  0  0  0  0
    1.1237   -1.0114    0.0000 O   0  0  0  0  0  0  0  0  0  0  0  0
    0.6160   -2.5804    0.0000 O   0  0  0  0  0  0  0  0  0  0  0  0
    0.3579   -3.3629    0.0000 C   0  0  0  0  0  0  0  0  0  0  0  0
    0.0292    3.0341    0.0000 C   0  0  0  0  0  0  0  0  0  0  0  0
    0.8657    1.8812    0.0000 C   0  0  0  0  0  0  0  0  0  0  0  0
    1.3777   -0.2289    0.0000 C   0  0  0  0  0  0  0  0  0  0  0  0
    2.1851   -0.0582    0.0000 C   0  0  0  0  0  0  0  0  0  0  0  0
    1.5316    2.3641    0.0000 C   0  0  0  0  0  0  0  0  0  0  0  0
    0.6950    3.5211    0.0000 C   0  0  0  0  0  0  0  0  0  0  0  0
    1.4484    3.1839    0.0000 C   0  0  0  0  0  0  0  0  0  0  0  0
  2  1  2  0  0  0  0
  3  1  1  0  0  0  0
  4  2  1  0  0  0  0
  5  3  1  0  0  0  0
  5  4  1  0  0  0  0
  6  3  2  0  0  0  0
  7 19  1  0  0  0  0
  8  7  3  0  0  0  0
  9 13  1  0  0  0  0
 10  6  1  0  0  0  0
 11  2  1  0  0  0  0
 12  5  2  0  0  0  0
 13 10  2  0  0  0  0
 14 15  1  0  0  0  0
 14  9  2  0  0  0  0
 15 16  2  0  0  0  0
 16 10  1  0  0  0  0
 17  9  1  0  0  0  0
 18 14  1  0  0  0  0
 19 18  1  0  0  0  0
 20 11  2  0  0  0  0
 21 11  1  0  0  0  0
 22 17  1  0  0  0  0
 23 22  1  0  0  0  0
 24 21  2  0  0  0  0
 25 20  1  0  0  0  0
 26 25  2  0  0  0  0
 26 24  1  0  0  0  0
M  END
> <CdId>
2860

> <Mol Weight>
347.364

> <Formula>
C21H17NO4

> <Click_ID>
CLK038D03 __ __ 

$$$$
