CLK011_E11
 OpenBabel03181410512D

 33 36  0  0  0  0  0  0  0  0999 V2000
    7.0353   -1.7588    0.0000 C    0  0  0  0  0  0  0  0  0  0  0  0
    7.7497   -1.3453    0.0000 C    0  0  0  0  0  0  0  0  0  0  0  0
    6.3209   -0.5139    0.0000 C    0  0  0  0  0  0  0  0  0  0  0  0
    6.3209   -1.3410    0.0000 C    0  0  3  0  0  0  0  0  0  0  0  0
    7.7580   -0.5264    0.0000 N    0  0  0  0  0  0  0  0  0  0  0  0
    7.2065   -2.5610    0.0000 C    0  0  0  0  0  0  0  0  0  0  0  0
    7.0436   -0.1045    0.0000 C    0  0  0  0  0  0  0  0  0  0  0  0
    8.3596   -1.8967    0.0000 C    0  0  0  0  0  0  0  0  0  0  0  0
    8.0212   -2.6487    0.0000 C    0  0  0  0  0  0  0  0  0  0  0  0
    5.6023   -1.7463    0.0000 C    0  0  0  0  0  0  0  0  0  0  0  0
    5.6065   -0.0919    0.0000 C    0  0  0  0  0  0  0  0  0  0  0  0
    4.1652   -2.5693    0.0000 C    0  0  0  0  0  0  0  0  0  0  0  0
    4.1652   -1.7463    0.0000 C    0  0  0  0  0  0  0  0  0  0  0  0
    4.8754   -2.9871    0.0000 C    0  0  0  0  0  0  0  0  0  0  0  0
    4.8879   -1.3327    0.0000 C    0  0  0  0  0  0  0  0  0  0  0  0
    5.5940   -2.5818    0.0000 C    0  0  0  0  0  0  0  0  0  0  0  0
    2.0095   -2.9578    0.0000 C    0  0  0  0  0  0  0  0  0  0  0  0
    1.2826   -3.3631    0.0000 C    0  0  0  0  0  0  0  0  0  0  0  0
    6.6551   -3.1751    0.0000 O    0  0  0  0  0  0  0  0  0  0  0  0
    4.8879   -0.5055    0.0000 O    0  0  0  0  0  0  0  0  0  0  0  0
    3.4633   -1.3202    0.0000 Cl   0  0  0  0  0  0  0  0  0  0  0  0
    3.4383   -2.9746    0.0000 O    0  0  0  0  0  0  0  0  0  0  0  0
    5.6065    0.7269    0.0000 O    0  0  0  0  0  0  0  0  0  0  0  0
    7.0478    0.7227    0.0000 C    0  0  0  0  0  0  0  0  0  0  0  0
    4.8670   -3.8017    0.0000 O    0  0  0  0  0  0  0  0  0  0  0  0
    9.1784   -1.8173    0.0000 C    0  0  0  0  0  0  0  0  0  0  0  0
    8.4974   -3.3213    0.0000 C    0  0  0  0  0  0  0  0  0  0  0  0
    2.7239   -2.5484    0.0000 C    0  0  0  0  0  0  0  0  0  0  0  0
    4.8921    1.1488    0.0000 C    0  0  0  0  0  0  0  0  0  0  0  0
    5.5772   -4.2236    0.0000 C    0  0  0  0  0  0  0  0  0  0  0  0
    9.6547   -2.4858    0.0000 C    0  0  0  0  0  0  0  0  0  0  0  0
    9.3163   -3.2377    0.0000 C    0  0  0  0  0  0  0  0  0  0  0  0
    4.9004    1.9760    0.0000 C    0  0  0  0  0  0  0  0  0  0  0  0
  2  1  2  0  0  0  0
  3  4  1  0  0  0  0
  4  1  1  0  0  0  0
  5  2  1  0  0  0  0
  5  7  1  0  0  0  0
  6  1  1  0  0  0  0
  7  3  2  0  0  0  0
  8  2  1  0  0  0  0
  8  9  2  0  0  0  0
  9  6  1  0  0  0  0
 10  4  1  0  0  0  0
 11  3  1  0  0  0  0
 12 14  2  0  0  0  0
 13 15  2  0  0  0  0
 13 12  1  0  0  0  0
 14 16  1  0  0  0  0
 15 10  1  0  0  0  0
 16 10  2  0  0  0  0
 17 28  1  0  0  0  0
 18 17  3  0  0  0  0
 19  6  2  0  0  0  0
 20 11  2  0  0  0  0
 21 13  1  0  0  0  0
 22 12  1  0  0  0  0
 23 11  1  0  0  0  0
 24  7  1  0  0  0  0
 25 14  1  0  0  0  0
 26  8  1  0  0  0  0
 27  9  1  0  0  0  0
 28 22  1  0  0  0  0
 29 23  1  0  0  0  0
 30 25  1  0  0  0  0
 31 26  2  0  0  0  0
 32 27  2  0  0  0  0
 32 31  1  0  0  0  0
 33 29  1  0  0  0  0
M  END
> <CdId>
806

> <Mol Weight>
463.91

> <Formula>
C26H22ClNO5

> <Click_ID>
CLK011_E11 __ __ 

$$$$
