CLK048E10
 OpenBabel03181410512D

 29 31  0  0  0  0  0  0  0  0999 V2000
    1.2000    1.9542    0.0000 C   0  0  0  0  0  0  0  0  0  0  0  0
   -1.0500   -2.6833    0.0000 S   0  0  0  0  0  0  0  0  0  0  0  0
    1.6833    2.6208    0.0000 C   0  0  0  0  0  0  0  0  0  0  0  0
    1.2000    3.2875    0.0000 O   0  0  0  0  0  0  0  0  0  0  0  0
    1.4542    1.1667    0.0000 C   0  0  0  0  0  0  0  0  0  0  0  0
    0.4125    2.2083    0.0000 C   0  0  0  0  0  0  0  0  0  0  0  0
    1.1583   -0.2292    0.0000 C   0  0  0  0  0  0  0  0  0  0  0  0
    0.9000    0.5542    0.0000 N   0  0  0  0  0  0  0  0  0  0  0  0
    0.4125    3.0333    0.0000 C   0  0  0  0  0  0  0  0  0  0  0  0
   -0.5000   -2.0708    0.0000 C   0  0  0  0  0  0  0  0  0  0  0  0
   -2.9625   -3.7375    0.0000 C   0  0  0  0  0  0  0  0  0  0  0  0
   -3.5167   -4.3500    0.0000 C   0  0  0  0  0  0  0  0  0  0  0  0
   -0.4375   -3.2333    0.0000 O   0  0  0  0  0  0  0  0  0  0  0  0
   -1.6667   -2.1292    0.0000 O   0  0  0  0  0  0  0  0  0  0  0  0
    0.6042   -0.8417    0.0000 C   0  0  0  0  0  0  0  0  0  0  0  0
   -1.6042   -3.2958    0.0000 N   0  0  0  0  0  0  0  0  0  0  0  0
    1.9625   -0.4000    0.0000 O   0  0  0  0  0  0  0  0  0  0  0  0
   -0.7542   -1.2833    0.0000 C   0  0  0  0  0  0  0  0  0  0  0  0
    0.3083   -2.2417    0.0000 C   0  0  0  0  0  0  0  0  0  0  0  0
   -0.2042   -0.6708    0.0000 C   0  0  0  0  0  0  0  0  0  0  0  0
    0.8583   -1.6292    0.0000 C   0  0  0  0  0  0  0  0  0  0  0  0
    2.5083    2.6208    0.0000 C   0  0  0  0  0  0  0  0  0  0  0  0
   -2.4125   -3.1250    0.0000 C   0  0  0  0  0  0  0  0  0  0  0  0
    0.0958    0.7250    0.0000 C   0  0  0  0  0  0  0  0  0  0  0  0
   -0.3000    1.7958    0.0000 C   0  0  0  0  0  0  0  0  0  0  0  0
   -0.3000    3.4458    0.0000 C   0  0  0  0  0  0  0  0  0  0  0  0
    2.9208    3.3333    0.0000 C   0  0  0  0  0  0  0  0  0  0  0  0
   -1.0167    2.2083    0.0000 C   0  0  0  0  0  0  0  0  0  0  0  0
   -1.0167    3.0333    0.0000 C   0  0  0  0  0  0  0  0  0  0  0  0
  2 10  1  0  0  0  0
  3  1  2  0  0  0  0
  4  3  1  0  0  0  0
  5  1  1  0  0  0  0
  6  1  1  0  0  0  0
  7  8  1  0  0  0  0
  8  5  1  0  0  0  0
  9  6  2  0  0  0  0
  9  4  1  0  0  0  0
 10 19  2  0  0  0  0
 10 18  1  0  0  0  0
 11 23  1  0  0  0  0
 12 11  3  0  0  0  0
 13  2  2  0  0  0  0
 14  2  2  0  0  0  0
 15  7  1  0  0  0  0
 16  2  1  0  0  0  0
 17  7  2  0  0  0  0
 18 20  2  0  0  0  0
 19 21  1  0  0  0  0
 20 15  1  0  0  0  0
 21 15  2  0  0  0  0
 22  3  1  0  0  0  0
 23 16  1  0  0  0  0
 24  8  1  0  0  0  0
 25  6  1  0  0  0  0
 26  9  1  0  0  0  0
 27 22  1  0  0  0  0
 28 25  2  0  0  0  0
 28 29  1  0  0  0  0
 29 26  2  0  0  0  0
M  END
> <CdId>
3717

> <Mol Weight>
410.486

> <Formula>
C22H22N2O4S

> <Click_ID>
CLK048E10 __ __ 

$$$$
