CLK003_D05
 OpenBabel03181410512D

 16 17  0  0  0  0  0  0  0  0999 V2000
   -0.2138   -0.3621    0.0000 C   0  0  0  0  0  0  0  0  0  0  0  0
   -0.2138    0.4621    0.0000 C   0  0  0  0  0  0  0  0  0  0  0  0
   -0.9344   -0.7827    0.0000 C   0  0  0  0  0  0  0  0  0  0  0  0
    0.5724   -0.6240    0.0000 S   0  0  0  0  0  0  0  0  0  0  0  0
    0.5517    0.7240    0.0000 N   0  0  0  0  0  0  0  0  0  0  0  0
   -0.9344    0.8758    0.0000 C   0  0  0  0  0  0  0  0  0  0  0  0
   -1.6482   -0.3724    0.0000 C   0  0  0  0  0  0  0  0  0  0  0  0
    1.0516    0.0483    0.0000 C   0  0  0  0  0  0  0  0  0  0  0  0
   -1.6482    0.4552    0.0000 C   0  0  0  0  0  0  0  0  0  0  0  0
   -2.3619   -0.7827    0.0000 N   0  3  0  0  0  0  0  0  0  0  0  0
    1.8757    0.0483    0.0000 S   0  0  0  0  0  0  0  0  0  0  0  0
   -2.3619   -1.6102    0.0000 O   0  0  0  0  0  0  0  0  0  0  0  0
   -3.0756   -0.3724    0.0000 O   0  5  0  0  0  0  0  0  0  0  0  0
    2.2895    0.7620    0.0000 C   0  0  0  0  0  0  0  0  0  0  0  0
    3.1135    0.7654    0.0000 C   0  0  0  0  0  0  0  0  0  0  0  0
    3.9376    0.7654    0.0000 C   0  0  0  0  0  0  0  0  0  0  0  0
  1  2  1  0  0  0  0
  1  3  2  0  0  0  0
  1  4  1  0  0  0  0
  2  5  1  0  0  0  0
  2  6  2  0  0  0  0
  3  7  1  0  0  0  0
  4  8  1  0  0  0  0
  5  8  2  0  0  0  0
  6  9  1  0  0  0  0
  7 10  1  0  0  0  0
  7  9  2  0  0  0  0
  8 11  1  0  0  0  0
 10 12  2  0  0  0  0
 10 13  1  0  0  0  0
 11 14  1  0  0  0  0
 14 15  1  0  0  0  0
 15 16  3  0  0  0  0
M  END
> <CdId>
194

> <Mol Weight>
250.297

> <Formula>
C10H6N2O2S2

> <Click_ID>
CLK003_D05 __ __ 

$$$$
