CLK004_C04
 OpenBabel03181410512D

 23 25  0  0  0  0  0  0  0  0999 V2000
    0.2795   -0.3840    0.0000 C   0  0  0  0  0  0  0  0  0  0  0  0
    0.7862    0.2613    0.0000 C   0  0  0  0  0  0  0  0  0  0  0  0
   -0.4976   -0.0954    0.0000 N   0  0  0  0  0  0  0  0  0  0  0  0
    0.5817   -1.1452    0.0000 N   0  0  0  0  0  0  0  0  0  0  0  0
    1.6042    0.1409    0.0000 C   0  0  0  0  0  0  0  0  0  0  0  0
    0.3340    0.9475    0.0000 N   0  0  0  0  0  0  0  0  0  0  0  0
   -1.1793   -0.5521    0.0000 C   0  0  0  0  0  0  0  0  0  0  0  0
   -0.4635    0.7294    0.0000 N   0  0  0  0  0  0  0  0  0  0  0  0
    1.3974   -1.2679    0.0000 C   0  0  0  0  0  0  0  0  0  0  0  0
    1.9064   -0.6249    0.0000 N   0  0  0  0  0  0  0  0  0  0  0  0
    2.1177    0.7885    0.0000 N   0  0  0  0  0  0  0  0  0  0  0  0
   -1.9200   -0.1863    0.0000 C   0  0  0  0  0  0  0  0  0  0  0  0
    1.7019   -2.0314    0.0000 C   0  0  0  0  0  0  0  0  0  0  0  0
    2.9312    0.6657    0.0000 C   0  0  0  0  0  0  0  0  0  0  0  0
   -1.9746    0.6317    0.0000 C   0  0  0  0  0  0  0  0  0  0  0  0
   -2.6062   -0.6453    0.0000 C   0  0  0  0  0  0  0  0  0  0  0  0
    1.1906   -2.6812    0.0000 C   0  0  0  0  0  0  0  0  0  0  0  0
    3.4469    1.3133    0.0000 C   0  0  0  0  0  0  0  0  0  0  0  0
   -2.7107    1.0020    0.0000 C   0  0  0  0  0  0  0  0  0  0  0  0
   -3.3447   -0.2772    0.0000 C   0  0  0  0  0  0  0  0  0  0  0  0
    3.9536    1.9586    0.0000 C   0  0  0  0  0  0  0  0  0  0  0  0
   -3.3970    0.5476    0.0000 C   0  0  0  0  0  0  0  0  0  0  0  0
   -4.1354    0.9066    0.0000 F   0  0  0  0  0  0  0  0  0  0  0  0
  1  2  1  0  0  0  0
  1  3  1  0  0  0  0
  1  4  2  0  0  0  0
  2  5  2  0  0  0  0
  2  6  1  0  0  0  0
  3  7  1  0  0  0  0
  3  8  1  0  0  0  0
  4  9  1  0  0  0  0
  5 10  1  0  0  0  0
  5 11  1  0  0  0  0
  6  8  2  0  0  0  0
  7 12  1  0  0  0  0
  9 13  1  0  0  0  0
  9 10  2  0  0  0  0
 11 14  1  0  0  0  0
 12 15  1  0  0  0  0
 12 16  2  0  0  0  0
 13 17  1  0  0  0  0
 14 18  1  0  0  0  0
 15 19  2  0  0  0  0
 16 20  1  0  0  0  0
 18 21  3  0  0  0  0
 19 22  1  0  0  0  0
 20 22  2  0  0  0  0
 22 23  1  0  0  0  0
M  END
> <CdId>
263

> <Mol Weight>
310.3289

> <Formula>
C16H15FN6

> <Click_ID>
CLK004_C04 __ __ 

$$$$
