CLK047A08
 OpenBabel03181410512D

 19 20  0  0  0  0  0  0  0  0999 V2000
    0.2418   -1.5670    0.0000 N   0  0  0  0  0  0  0  0  0  0  0  0
   -0.2459   -2.2380    0.0000 N   0  0  0  0  0  0  0  0  0  0  0  0
    1.0252   -1.8254    0.0000 C   0  0  0  0  0  0  0  0  0  0  0  0
    1.0252   -2.6506    0.0000 C   0  0  0  0  0  0  0  0  0  0  0  0
    0.2418   -2.9048    0.0000 C   0  0  0  0  0  0  0  0  0  0  0  0
   -0.7794    1.5711    0.0000 C   0  0  0  0  0  0  0  0  0  0  0  0
   -0.0167   -0.7835    0.0000 C   0  0  0  0  0  0  0  0  0  0  0  0
    0.0708    3.5800    0.0000 C   0  0  0  0  0  0  0  0  0  0  0  0
    0.6209    4.1926    0.0000 C   0  0  0  0  0  0  0  0  0  0  0  0
   -0.5251    0.7877    0.0000 C   0  0  0  0  0  0  0  0  0  0  0  0
   -1.5878    1.7421    0.0000 O   0  0  0  0  0  0  0  0  0  0  0  0
    0.5376   -0.1708    0.0000 C   0  0  0  0  0  0  0  0  0  0  0  0
   -0.8210   -0.6126    0.0000 C   0  0  0  0  0  0  0  0  0  0  0  0
   -1.0752    0.1708    0.0000 C   0  0  0  0  0  0  0  0  0  0  0  0
    0.2834    0.6126    0.0000 C   0  0  0  0  0  0  0  0  0  0  0  0
   -0.2292    2.1838    0.0000 N   0  0  0  0  0  0  0  0  0  0  0  0
    1.6921   -1.3378    0.0000 C   0  0  0  0  0  0  0  0  0  0  0  0
   -0.4834    2.9673    0.0000 C   0  0  0  0  0  0  0  0  0  0  0  0
   -0.0167   -3.6883    0.0000 C   0  0  0  0  0  0  0  0  0  0  0  0
  2  1  1  0  0  0  0
  3  1  1  0  0  0  0
  4  3  2  0  0  0  0
  4  5  1  0  0  0  0
  5  2  2  0  0  0  0
  6 10  1  0  0  0  0
  7  1  1  0  0  0  0
  8 18  1  0  0  0  0
  9  8  3  0  0  0  0
 10 14  2  0  0  0  0
 10 15  1  0  0  0  0
 11  6  2  0  0  0  0
 12  7  1  0  0  0  0
 13  7  2  0  0  0  0
 14 13  1  0  0  0  0
 15 12  2  0  0  0  0
 16  6  1  0  0  0  0
 17  3  1  0  0  0  0
 18 16  1  0  0  0  0
 19  5  1  0  0  0  0
M  END
> <CdId>
3617

> <Mol Weight>
253.2991

> <Formula>
C15H15N3O

> <Click_ID>
CLK047A08 __ __ 

$$$$
