CLK017_F05
 OpenBabel03181410512D

 25 27  0  0  0  0  0  0  0  0999 V2000
    1.7489   -5.7577    0.0000 C   0  0  0  0  0  0  0  0  0  0  0  0
    3.0533   -5.4835    0.0000 N   0  0  0  0  0  0  0  0  0  0  0  0
    2.4967   -6.0859    0.0000 C   0  0  0  0  0  0  0  0  0  0  0  0
    1.8444   -4.9227    0.0000 C   0  0  0  0  0  0  0  0  0  0  0  0
    2.6462   -4.7607    0.0000 O   0  0  0  0  0  0  0  0  0  0  0  0
    1.0386   -6.1689    0.0000 C   0  0  0  0  0  0  0  0  0  0  0  0
   -3.2236   -4.4907    0.0000 C   0  0  0  0  0  0  0  0  0  0  0  0
   -3.9340   -4.0794    0.0000 C   0  0  0  0  0  0  0  0  0  0  0  0
   -1.0925   -5.7494    0.0000 C   0  0  0  0  0  0  0  0  0  0  0  0
    0.3282   -5.7494    0.0000 C   0  0  0  0  0  0  0  0  0  0  0  0
    2.6587   -6.8959    0.0000 C   0  0  0  0  0  0  0  0  0  0  0  0
   -0.3821   -6.1607    0.0000 C   0  0  0  0  0  0  0  0  0  0  0  0
   -1.0925   -4.9227    0.0000 C   0  0  0  0  0  0  0  0  0  0  0  0
    1.2338   -4.3661    0.0000 O   0  0  0  0  0  0  0  0  0  0  0  0
   -0.3739   -4.5156    0.0000 C   0  0  0  0  0  0  0  0  0  0  0  0
    0.3365   -4.9351    0.0000 C   0  0  0  0  0  0  0  0  0  0  0  0
   -1.8071   -6.1565    0.0000 O   0  0  0  0  0  0  0  0  0  0  0  0
   -1.7946   -4.5031    0.0000 O   0  0  0  0  0  0  0  0  0  0  0  0
   -2.5132   -4.9144    0.0000 C   0  0  0  0  0  0  0  0  0  0  0  0
    2.0438   -7.4443    0.0000 C   0  0  0  0  0  0  0  0  0  0  0  0
    3.4438   -7.1535    0.0000 C   0  0  0  0  0  0  0  0  0  0  0  0
   -1.8153   -6.9707    0.0000 C   0  0  0  0  0  0  0  0  0  0  0  0
    3.6141   -7.9553    0.0000 C   0  0  0  0  0  0  0  0  0  0  0  0
    2.2100   -8.2502    0.0000 C   0  0  0  0  0  0  0  0  0  0  0  0
    2.9952   -8.5119    0.0000 C   0  0  0  0  0  0  0  0  0  0  0  0
  2  3  2  0  0  0  0
  3  1  1  0  0  0  0
  4  1  1  0  0  0  0
  5  4  1  0  0  0  0
  5  2  1  0  0  0  0
  6  1  2  0  0  0  0
  7 19  1  0  0  0  0
  8  7  3  0  0  0  0
  9 12  1  0  0  0  0
  9 13  2  0  0  0  0
 10  6  1  0  0  0  0
 11  3  1  0  0  0  0
 12 10  2  0  0  0  0
 13 15  1  0  0  0  0
 14  4  2  0  0  0  0
 15 16  2  0  0  0  0
 16 10  1  0  0  0  0
 17  9  1  0  0  0  0
 18 13  1  0  0  0  0
 19 18  1  0  0  0  0
 20 11  2  0  0  0  0
 21 11  1  0  0  0  0
 22 17  1  0  0  0  0
 23 21  2  0  0  0  0
 24 20  1  0  0  0  0
 25 23  1  0  0  0  0
 25 24  2  0  0  0  0
M  END
> <CdId>
1290

> <Mol Weight>
333.3374

> <Formula>
C20H15NO4

> <Click_ID>
CLK017_F05 __ __ 

$$$$
