CLK021_F11
 OpenBabel03181410512D

 19 19  0  0  0  0  0  0  0  0999 V2000
    3.6326    2.4140    0.0000 C   0  0  0  0  0  0  0  0  0  0  0  0
    4.3472    2.0018    0.0000 N   0  0  0  0  0  0  0  0  0  0  0  0
    1.6216    1.8277    0.0000 C   0  0  0  0  0  0  0  0  0  0  0  0
    2.9180    2.0018    0.0000 N   0  0  0  0  0  0  0  0  0  0  0  0
    1.0353    1.2459    0.0000 C   0  0  0  0  0  0  0  0  0  0  0  0
    5.0618    2.4140    0.0000 C   0  0  0  0  0  0  0  0  0  0  0  0
    2.2034    2.4140    0.0000 C   0  0  0  0  0  0  0  0  0  0  0  0
    3.6326    3.2386    0.0000 O   0  0  0  0  0  0  0  0  0  0  0  0
    5.7764    2.0018    0.0000 C   0  0  0  0  0  0  0  0  0  0  0  0
    5.0618    3.2386    0.0000 C   0  0  0  0  0  0  0  0  0  0  0  0
    2.6706    3.0874    0.0000 C   0  0  0  0  0  0  0  0  0  0  0  0
    1.5712    2.9409    0.0000 C   0  0  0  0  0  0  0  0  0  0  0  0
    5.7764    1.1772    0.0000 C   0  0  0  0  0  0  0  0  0  0  0  0
    6.4910    2.4140    0.0000 C   0  0  0  0  0  0  0  0  0  0  0  0
    2.3271    3.8341    0.0000 C   0  0  0  0  0  0  0  0  0  0  0  0
    6.4910    0.7650    0.0000 C   0  0  0  0  0  0  0  0  0  0  0  0
    1.7178    3.7608    0.0000 C   0  0  0  0  0  0  0  0  0  0  0  0
    5.7764    3.6509    0.0000 C   0  0  0  0  0  0  0  0  0  0  0  0
    6.4910    3.2386    0.0000 C   0  0  0  0  0  0  0  0  0  0  0  0
  2  1  1  0  0  0  0
  3  7  1  0  0  0  0
  4  1  1  0  0  0  0
  5  3  3  0  0  0  0
  6  2  1  0  0  0  0
  7  4  1  0  0  0  0
  8  1  2  0  0  0  0
  9  6  1  0  0  0  0
 10  6  2  0  0  0  0
 11  7  1  0  0  0  0
 12  7  1  0  0  0  0
 13  9  1  0  0  0  0
 14  9  2  0  0  0  0
 15 11  1  0  0  0  0
 16 13  1  0  0  0  0
 17 12  1  0  0  0  0
 18 10  1  0  0  0  0
 19 18  2  0  0  0  0
 19 14  1  0  0  0  0
M  END
> <CdId>
1616

> <Mol Weight>
258.3587

> <Formula>
C16H22N2O

> <Click_ID>
CLK021_F11 __ __ 

$$$$
