CLK014_D11
 OpenBabel03181410512D

 24 25  0  0  0  0  0  0  0  0999 V2000
    1.5713   -0.8191    0.0000 N   0  0  0  0  0  0  0  0  0  0  0  0
    1.8303   -1.6089    0.0000 C   0  0  0  0  0  0  0  0  0  0  0  0
    2.9127   -0.8191    0.0000 C   0  0  0  0  0  0  0  0  0  0  0  0
    2.2441   -0.3302    0.0000 C   0  0  0  0  0  0  0  0  0  0  0  0
    2.6578   -1.6089    0.0000 S   0  0  0  0  0  0  0  0  0  0  0  0
    5.2571   -0.1170    0.0000 N   0  3  0  0  0  0  0  0  0  0  0  0
    4.6511    0.4596    0.0000 C   0  0  0  0  0  0  0  0  0  0  0  0
    3.8738    0.2465    0.0000 C   0  0  0  0  0  0  0  0  0  0  0  0
    3.7025   -0.5641    0.0000 C   0  0  0  0  0  0  0  0  0  0  0  0
    4.8057    1.1742    0.0000 C   0  0  0  0  0  0  0  0  0  0  0  0
    4.1872    1.6882    0.0000 C   0  0  0  0  0  0  0  0  0  0  0  0
    3.2512    0.7605    0.0000 C   0  0  0  0  0  0  0  0  0  0  0  0
    0.6143    0.2465    0.0000 C   0  0  0  0  0  0  0  0  0  0  0  0
    3.4100    1.4751    0.0000 C   0  0  0  0  0  0  0  0  0  0  0  0
    0.3928    1.0489    0.0000 C   0  0  0  0  0  0  0  0  0  0  0  0
    5.0648   -0.9194    0.0000 O   0  5  0  0  0  0  0  0  0  0  0  0
    1.3414   -2.2733    0.0000 O   0  0  0  0  0  0  0  0  0  0  0  0
    6.0469    0.1212    0.0000 O   0  0  0  0  0  0  0  0  0  0  0  0
    2.2357    0.4973    0.0000 O   0  0  0  0  0  0  0  0  0  0  0  0
    0.7898   -0.5641    0.0000 C   0  0  0  0  0  0  0  0  0  0  0  0
    4.3627    2.5031    0.0000 O   0  0  0  0  0  0  0  0  0  0  0  0
    2.8124    2.0435    0.0000 O   0  0  0  0  0  0  0  0  0  0  0  0
    3.0005    2.8541    0.0000 C   0  0  0  0  0  0  0  0  0  0  0  0
    5.1442    2.7455    0.0000 C   0  0  0  0  0  0  0  0  0  0  0  0
  2  1  1  0  0  0  0
  3  4  1  0  0  0  0
  4  1  1  0  0  0  0
  5  2  1  0  0  0  0
  5  3  1  0  0  0  0
  6  7  1  0  0  0  0
  7  8  1  0  0  0  0
  8  9  1  0  0  0  0
  9  3  2  0  0  0  0
 10  7  2  0  0  0  0
 11 14  2  0  0  0  0
 11 10  1  0  0  0  0
 12  8  2  0  0  0  0
 13 20  1  0  0  0  0
 14 12  1  0  0  0  0
 15 13  3  0  0  0  0
 16  6  1  0  0  0  0
 17  2  2  0  0  0  0
 18  6  2  0  0  0  0
 19  4  2  0  0  0  0
 20  1  1  0  0  0  0
 21 11  1  0  0  0  0
 22 14  1  0  0  0  0
 23 22  1  0  0  0  0
 24 21  1  0  0  0  0
M  END
> <CdId>
1036

> <Mol Weight>
348.331

> <Formula>
C15H12N2O6S

> <Click_ID>
CLK014_D11 __ __ 

$$$$
