CLK034_C05
 OpenBabel03181410512D

 36 38  0  0  0  0  0  0  0  0999 V2000
   -4.5670    2.5409    0.0000 C   0  0  0  0  0  0  0  0  0  0  0  0
   -1.0047    5.4472    0.0000 S   0  0  0  0  0  0  0  0  0  0  0  0
   -3.8570    2.9602    0.0000 N   0  0  0  0  0  0  0  0  0  0  0  0
   -4.6666    1.7271    0.0000 N   0  0  0  0  0  0  0  0  0  0  0  0
   -5.3019    2.8855    0.0000 S   0  0  0  0  0  0  0  0  0  0  0  0
   -5.4680    1.5694    0.0000 C   0  0  0  0  0  0  0  0  0  0  0  0
   -5.8748    2.2876    0.0000 C   0  0  0  0  0  0  0  0  0  0  0  0
   -3.8570    3.7865    0.0000 C   0  0  0  0  0  0  0  0  0  0  0  0
   -1.7189    5.0238    0.0000 C   0  0  0  0  0  0  0  0  0  0  0  0
   -0.2947    5.8583    0.0000 N   0  0  0  0  0  0  0  0  0  0  0  0
   -1.0214    8.7355    0.0000 N   0  0  0  0  0  0  0  0  0  0  0  0
    2.5700    5.0569    0.0000 N   0  0  0  0  0  0  0  0  0  0  0  0
   -4.2349    0.3488    0.0000 C   0  0  0  0  0  0  0  0  0  0  0  0
   -0.5854    4.7248    0.0000 O   0  0  0  0  0  0  0  0  0  0  0  0
   -1.4282    6.1572    0.0000 O   0  0  0  0  0  0  0  0  0  0  0  0
   -4.4175   -0.4609    0.0000 C   0  0  0  0  0  0  0  0  0  0  0  0
   -1.0296    7.9134    0.0000 C   0  0  0  0  0  0  0  0  0  0  0  0
    1.8476    5.4597    0.0000 C   0  0  0  0  0  0  0  0  0  0  0  0
   -3.1471    4.1975    0.0000 C   0  0  0  0  0  0  0  0  0  0  0  0
   -5.8915    0.8677    0.0000 C   0  0  0  0  0  0  0  0  0  0  0  0
   -4.5794    4.1892    0.0000 O   0  0  0  0  0  0  0  0  0  0  0  0
   -4.0480    1.1542    0.0000 C   0  0  0  0  0  0  0  0  0  0  0  0
   -1.7147    4.1975    0.0000 C   0  0  0  0  0  0  0  0  0  0  0  0
   -2.4371    5.4223    0.0000 C   0  0  0  0  0  0  0  0  0  0  0  0
   -3.1388    5.0113    0.0000 C   0  0  0  0  0  0  0  0  0  0  0  0
   -2.4164    3.7865    0.0000 C   0  0  0  0  0  0  0  0  0  0  0  0
    1.1252    5.8707    0.0000 C   0  0  0  0  0  0  0  0  0  0  0  0
   -1.0172    7.0789    0.0000 C   0  0  0  0  0  0  0  0  0  0  0  0
   -6.6803    2.3043    0.0000 C   0  0  0  0  0  0  0  0  0  0  0  0
   -5.5012    0.1370    0.0000 O   0  0  0  0  0  0  0  0  0  0  0  0
    0.4152    5.4472    0.0000 C   0  0  0  0  0  0  0  0  0  0  0  0
   -0.2989    6.6803    0.0000 C   0  0  0  0  0  0  0  0  0  0  0  0
   -7.1163    1.6026    0.0000 C   0  0  0  0  0  0  0  0  0  0  0  0
   -6.7053    0.8802    0.0000 C   0  0  0  0  0  0  0  0  0  0  0  0
   -5.9246   -0.5647    0.0000 C   0  0  0  0  0  0  0  0  0  0  0  0
   -5.5427   -1.2746    0.0000 C   0  0  0  0  0  0  0  0  0  0  0  0
  2  9  1  0  0  0  0
  3  1  2  0  0  0  0
  4  1  1  0  0  0  0
  5  1  1  0  0  0  0
  6  4  1  0  0  0  0
  7  5  1  0  0  0  0
  7  6  2  0  0  0  0
  8  3  1  0  0  0  0
  9 23  2  0  0  0  0
  9 24  1  0  0  0  0
 10  2  1  0  0  0  0
 11 17  3  0  0  0  0
 12 18  3  0  0  0  0
 13 22  1  0  0  0  0
 14  2  2  0  0  0  0
 15  2  2  0  0  0  0
 16 13  3  0  0  0  0
 17 28  1  0  0  0  0
 18 27  1  0  0  0  0
 19  8  1  0  0  0  0
 20  6  1  0  0  0  0
 21  8  2  0  0  0  0
 22  4  1  0  0  0  0
 23 26  1  0  0  0  0
 24 25  2  0  0  0  0
 25 19  1  0  0  0  0
 26 19  2  0  0  0  0
 27 31  1  0  0  0  0
 28 32  1  0  0  0  0
 29  7  1  0  0  0  0
 30 20  1  0  0  0  0
 31 10  1  0  0  0  0
 32 10  1  0  0  0  0
 33 29  2  0  0  0  0
 34 20  2  0  0  0  0
 34 33  1  0  0  0  0
 35 30  1  0  0  0  0
 36 35  1  0  0  0  0
M  END
> <CdId>
2589

> <Mol Weight>
521.611

> <Formula>
C25H23N5O4S2

> <Click_ID>
CLK034_C05 __ __ 

$$$$
