CLK010_D03
 OpenBabel03181410512D

 17 18  0  0  0  0  0  0  0  0999 V2000
   -0.6097   -0.8287    0.0000 N   0  0  0  0  0  0  0  0  0  0  0  0
    0.0996    0.4007    0.0000 C   0  0  0  0  0  0  0  0  0  0  0  0
    0.0996   -0.4281    0.0000 C   0  0  0  0  0  0  0  0  0  0  0  0
    0.8063    0.8262    0.0000 C   0  0  0  0  0  0  0  0  0  0  0  0
   -1.3215   -0.4281    0.0000 C   0  0  0  0  0  0  0  0  0  0  0  0
    1.5331    1.2518    0.0000 N   0  0  0  0  0  0  0  0  0  0  0  0
   -0.6097    0.8063    0.0000 C   0  0  0  0  0  0  0  0  0  0  0  0
    2.2573   -0.8387    0.0000 C   0  0  0  0  0  0  0  0  0  0  0  0
   -1.3215    0.4007    0.0000 C   0  0  0  0  0  0  0  0  0  0  0  0
    2.9665   -1.2468    0.0000 C   0  0  0  0  0  0  0  0  0  0  0  0
    0.8238   -0.8387    0.0000 S   0  0  0  0  0  0  0  0  0  0  0  0
    1.5455   -0.4281    0.0000 C   0  0  0  0  0  0  0  0  0  0  0  0
   -1.9785   -0.9582    0.0000 C   0  0  0  0  0  0  0  0  0  0  0  0
   -1.9785    0.9034    0.0000 C   0  0  0  0  0  0  0  0  0  0  0  0
   -2.8047    0.7068    0.0000 C   0  0  0  0  0  0  0  0  0  0  0  0
   -2.7749   -0.7765    0.0000 C   0  0  0  0  0  0  0  0  0  0  0  0
   -3.1482   -0.0324    0.0000 C   0  0  0  0  0  0  0  0  0  0  0  0
  2  3  2  0  0  0  0
  2  7  1  0  0  0  0
  3  1  1  0  0  0  0
  4  2  1  0  0  0  0
  5  1  2  0  0  0  0
  6  4  3  0  0  0  0
  7  9  2  0  0  0  0
  8 12  1  0  0  0  0
  9  5  1  0  0  0  0
 10  8  3  0  0  0  0
 11  3  1  0  0  0  0
 12 11  1  0  0  0  0
 13  5  1  0  0  0  0
 14  9  1  0  0  0  0
 15 14  1  0  0  0  0
 16 13  1  0  0  0  0
 17 16  1  0  0  0  0
 17 15  1  0  0  0  0
M  END
> <CdId>
708

> <Mol Weight>
242.339

> <Formula>
C14H14N2S

> <Click_ID>
CLK010_D03 __ __ 

$$$$
