CLK032_D10
 OpenBabel03181410512D

 20 21  0  0  0  0  0  0  0  0999 V2000
   -1.8958    2.1583    0.0000 C   0  0  0  0  0  0  0  0  0  0  0  0
   -2.3750    2.8208    0.0000 N   0  0  0  0  0  0  0  0  0  0  0  0
   -1.0708    2.1583    0.0000 N   0  0  0  0  0  0  0  0  0  0  0  0
   -2.3750    1.4833    0.0000 S   0  0  0  0  0  0  0  0  0  0  0  0
   -3.1625    2.5583    0.0000 C   0  0  0  0  0  0  0  0  0  0  0  0
   -3.1583    1.7333    0.0000 C   0  0  0  0  0  0  0  0  0  0  0  0
   -0.6583    1.4458    0.0000 C   0  0  0  0  0  0  0  0  0  0  0  0
   -1.3208    3.7708    0.0000 C   0  0  0  0  0  0  0  0  0  0  0  0
   -0.5208    3.9458    0.0000 C   0  0  0  0  0  0  0  0  0  0  0  0
   -3.8750    2.9833    0.0000 C   0  0  0  0  0  0  0  0  0  0  0  0
   -2.1250    3.6083    0.0000 C   0  0  0  0  0  0  0  0  0  0  0  0
   -1.0625    0.7250    0.0000 O   0  0  0  0  0  0  0  0  0  0  0  0
   -3.8750    3.8000    0.0000 F   0  0  0  0  0  0  0  0  0  0  0  0
   -3.8750    1.3250    0.0000 C   0  0  0  0  0  0  0  0  0  0  0  0
   -4.5833    1.7333    0.0000 C   0  0  0  0  0  0  0  0  0  0  0  0
    0.1667    1.4458    0.0000 C   0  0  0  0  0  0  0  0  0  0  0  0
   -4.5833    2.5583    0.0000 C   0  0  0  0  0  0  0  0  0  0  0  0
    0.5750    2.1583    0.0000 C   0  0  0  0  0  0  0  0  0  0  0  0
    1.4000    2.1583    0.0000 C   0  0  0  0  0  0  0  0  0  0  0  0
    1.8042    2.8708    0.0000 C   0  0  0  0  0  0  0  0  0  0  0  0
  2  1  1  0  0  0  0
  3  1  2  0  0  0  0
  4  1  1  0  0  0  0
  5  2  1  0  0  0  0
  6  4  1  0  0  0  0
  6  5  2  0  0  0  0
  7  3  1  0  0  0  0
  8 11  1  0  0  0  0
  9  8  3  0  0  0  0
 10  5  1  0  0  0  0
 11  2  1  0  0  0  0
 12  7  2  0  0  0  0
 13 10  1  0  0  0  0
 14  6  1  0  0  0  0
 15 14  2  0  0  0  0
 15 17  1  0  0  0  0
 16  7  1  0  0  0  0
 17 10  2  0  0  0  0
 18 16  1  0  0  0  0
 19 18  1  0  0  0  0
 20 19  1  0  0  0  0
M  END
> <CdId>
2444

> <Mol Weight>
290.356

> <Formula>
C15H15FN2OS

> <Click_ID>
CLK032_D10 __ __ 

$$$$
