CLK048D06
 OpenBabel03181410512D

 18 19  0  0  0  0  0  0  0  0999 V2000
   -0.4417   -1.2917    0.0000 C   0  0  0  0  0  0  0  0  0  0  0  0
    0.2708   -0.0542    0.0000 C   0  0  3  0  0  0  0  0  0  0  0  0
    0.2708   -0.8792    0.0000 O   0  0  0  0  0  0  0  0  0  0  0  0
    1.0750    0.1292    0.0000 C   0  0  0  0  0  0  0  0  0  0  0  0
   -1.1583   -0.8792    0.0000 C   0  0  0  0  0  0  0  0  0  0  0  0
   -1.1583   -0.0542    0.0000 C   0  0  0  0  0  0  0  0  0  0  0  0
   -0.4417    0.3583    0.0000 C   0  0  0  0  0  0  0  0  0  0  0  0
    2.3667    1.8917    0.0000 C   0  0  0  0  0  0  0  0  0  0  0  0
    2.6125    2.6792    0.0000 C   0  0  0  0  0  0  0  0  0  0  0  0
   -0.4417   -2.1167    0.0000 O   0  0  0  0  0  0  0  0  0  0  0  0
    1.6375   -0.4750    0.0000 O   0  0  0  0  0  0  0  0  0  0  0  0
    1.3208    0.9208    0.0000 N   0  0  0  0  0  0  0  0  0  0  0  0
    0.8333    0.5542    0.0000 C   0  0  0  0  0  0  0  0  0  0  0  0
    2.1250    1.1000    0.0000 C   0  0  0  0  0  0  0  0  0  0  0  0
   -1.8708    0.3583    0.0000 C   0  0  0  0  0  0  0  0  0  0  0  0
   -1.8708   -1.2917    0.0000 C   0  0  0  0  0  0  0  0  0  0  0  0
   -2.5875   -0.0542    0.0000 C   0  0  0  0  0  0  0  0  0  0  0  0
   -2.5875   -0.8792    0.0000 C   0  0  0  0  0  0  0  0  0  0  0  0
  2  3  1  0  0  0  0
  3  1  1  0  0  0  0
  4  2  1  0  0  0  0
  5  1  1  0  0  0  0
  6  5  2  0  0  0  0
  6  7  1  0  0  0  0
  7  2  1  0  0  0  0
  8 14  1  0  0  0  0
  9  8  3  0  0  0  0
 10  1  2  0  0  0  0
 11  4  2  0  0  0  0
 12  4  1  0  0  0  0
 13  2  1  0  0  0  0
 14 12  1  0  0  0  0
 15  6  1  0  0  0  0
 16  5  1  0  0  0  0
 17 15  2  0  0  0  0
 18 16  2  0  0  0  0
 18 17  1  0  0  0  0
M  END
> <CdId>
3684

> <Mol Weight>
243.2579

> <Formula>
C14H13NO3

> <Click_ID>
CLK048D06 __ __ 

$$$$
