CLK007_H10
 OpenBabel03181410512D

 32 35  0  0  0  0  0  0  0  0999 V2000
    0.2691   -1.2420    0.0000 C   0  0  0  0  0  0  0  0  0  0  0  0
    0.9798   -0.8280    0.0000 C   0  0  3  0  0  0  0  0  0  0  0  0
    0.2691   -2.0596    0.0000 C   0  0  0  0  0  0  0  0  0  0  0  0
   -0.4450   -0.8211    0.0000 C   0  0  0  0  0  0  0  0  0  0  0  0
    0.9798   -0.0034    0.0000 C   0  0  0  0  0  0  0  0  0  0  0  0
    1.6939   -1.2316    0.0000 C   0  0  0  0  0  0  0  0  0  0  0  0
   -0.4450   -2.4702    0.0000 N   0  0  0  0  0  0  0  0  0  0  0  0
    0.9798   -2.4702    0.0000 N   0  0  0  0  0  0  0  0  0  0  0  0
   -1.1488   -1.2420    0.0000 N   0  0  0  0  0  0  0  0  0  0  0  0
   -0.4450    0.0069    0.0000 O   0  0  0  0  0  0  0  0  0  0  0  0
    1.6939    0.4105    0.0000 C   0  0  0  0  0  0  0  0  0  0  0  0
    0.2691    0.4105    0.0000 C   0  0  0  0  0  0  0  0  0  0  0  0
    1.6939   -2.0596    0.0000 C   0  0  0  0  0  0  0  0  0  0  0  0
   -1.1488   -2.0665    0.0000 C   0  0  0  0  0  0  0  0  0  0  0  0
    1.6939    1.2420    0.0000 C   0  0  0  0  0  0  0  0  0  0  0  0
    0.2691    1.2420    0.0000 C   0  0  0  0  0  0  0  0  0  0  0  0
    2.4080   -2.4702    0.0000 O   0  0  0  0  0  0  0  0  0  0  0  0
   -1.8699   -2.4805    0.0000 S   0  0  0  0  0  0  0  0  0  0  0  0
    0.9798    1.6560    0.0000 C   0  0  0  0  0  0  0  0  0  0  0  0
    2.4080    1.6560    0.0000 O   0  0  0  0  0  0  0  0  0  0  0  0
   -2.5840   -2.0665    0.0000 C   0  0  0  0  0  0  0  0  0  0  0  0
    0.9764    2.4805    0.0000 O   0  0  0  0  0  0  0  0  0  0  0  0
    3.1291    1.2489    0.0000 C   0  0  0  0  0  0  0  0  0  0  0  0
   -2.5840   -1.2420    0.0000 C   0  0  0  0  0  0  0  0  0  0  0  0
    0.2656    2.8876    0.0000 C   0  0  0  0  0  0  0  0  0  0  0  0
   -3.2947   -0.8280    0.0000 C   0  0  0  0  0  0  0  0  0  0  0  0
   -0.4485    2.4702    0.0000 C   0  0  0  0  0  0  0  0  0  0  0  0
   -0.4485    1.6422    0.0000 C   0  0  0  0  0  0  0  0  0  0  0  0
   -1.1696    2.8807    0.0000 C   0  0  0  0  0  0  0  0  0  0  0  0
   -1.1696    1.2316    0.0000 C   0  0  0  0  0  0  0  0  0  0  0  0
   -1.8837    2.4702    0.0000 C   0  0  0  0  0  0  0  0  0  0  0  0
   -1.8837    1.6422    0.0000 C   0  0  0  0  0  0  0  0  0  0  0  0
  1  2  1  0  0  0  0
  1  3  2  0  0  0  0
  1  4  1  0  0  0  0
  2  5  1  0  0  0  0
  2  6  1  0  0  0  0
  3  7  1  0  0  0  0
  3  8  1  0  0  0  0
  4  9  1  0  0  0  0
  4 10  2  0  0  0  0
  5 11  2  0  0  0  0
  5 12  1  0  0  0  0
  6 13  1  0  0  0  0
  7 14  2  0  0  0  0
  8 13  1  0  0  0  0
  9 14  1  0  0  0  0
 11 15  1  0  0  0  0
 12 16  2  0  0  0  0
 13 17  2  0  0  0  0
 14 18  1  0  0  0  0
 15 19  2  0  0  0  0
 15 20  1  0  0  0  0
 16 19  1  0  0  0  0
 18 21  1  0  0  0  0
 19 22  1  0  0  0  0
 20 23  1  0  0  0  0
 21 24  1  0  0  0  0
 22 25  1  0  0  0  0
 24 26  3  0  0  0  0
 25 27  1  0  0  0  0
 27 28  1  0  0  0  0
 27 29  2  0  0  0  0
 28 30  2  0  0  0  0
 29 31  1  0  0  0  0
 30 32  1  0  0  0  0
 31 32  2  0  0  0  0
M  END
> <CdId>
559

> <Mol Weight>
447.506

> <Formula>
C24H21N3O4S

> <Click_ID>
CLK007_H10 __ __ 

$$$$
