CLK050B11
 OpenBabel03181410512D

 18 18  0  0  0  0  0  0  0  0999 V2000
    0.6333    1.9250    0.0000 C   0  0  0  0  0  0  0  0  0  0  0  0
    2.0625    3.5792    0.0000 C   0  0  0  0  0  0  0  0  0  0  0  0
    2.7750    3.9875    0.0000 C   0  0  0  0  0  0  0  0  0  0  0  0
   -1.5083   -1.7875    0.0000 C   0  0  0  0  0  0  0  0  0  0  0  0
   -0.7958   -1.3750    0.0000 C   0  0  0  0  0  0  0  0  0  0  0  0
   -0.0833    2.3375    0.0000 O   0  0  0  0  0  0  0  0  0  0  0  0
   -1.5083   -2.6125    0.0000 C   0  0  0  0  0  0  0  0  0  0  0  0
    1.3458    2.3375    0.0000 N   0  0  0  0  0  0  0  0  0  0  0  0
    0.6333    1.1000    0.0000 N   0  0  0  0  0  0  0  0  0  0  0  0
   -0.0833   -1.7875    0.0000 C   0  0  0  0  0  0  0  0  0  0  0  0
   -0.7958   -3.0250    0.0000 C   0  0  0  0  0  0  0  0  0  0  0  0
   -0.0833   -2.6125    0.0000 C   0  0  0  0  0  0  0  0  0  0  0  0
    1.3458    3.1667    0.0000 C   0  0  0  0  0  0  0  0  0  0  0  0
   -0.7958   -0.5500    0.0000 O   0  0  0  0  0  0  0  0  0  0  0  0
   -2.2250   -1.3750    0.0000 C   0  0  0  0  0  0  0  0  0  0  0  0
   -0.0833    0.6875    0.0000 C   0  0  0  0  0  0  0  0  0  0  0  0
   -0.0833   -0.1375    0.0000 C   0  0  0  0  0  0  0  0  0  0  0  0
   -0.7958   -3.8500    0.0000 C   0  0  0  0  0  0  0  0  0  0  0  0
  2 13  1  0  0  0  0
  3  2  3  0  0  0  0
  4  5  2  0  0  0  0
  5 14  1  0  0  0  0
  6  1  2  0  0  0  0
  7  4  1  0  0  0  0
  8  1  1  0  0  0  0
  9  1  1  0  0  0  0
 10  5  1  0  0  0  0
 11  7  2  0  0  0  0
 12 10  2  0  0  0  0
 12 11  1  0  0  0  0
 13  8  1  0  0  0  0
 14 17  1  0  0  0  0
 15  4  1  0  0  0  0
 16  9  1  0  0  0  0
 17 16  1  0  0  0  0
 18 11  1  0  0  0  0
M  END
> <CdId>
3882

> <Mol Weight>
246.3049

> <Formula>
C14H18N2O2

> <Click_ID>
CLK050B11 __ __ 

$$$$
