CLK020_C04
 OpenBabel03181410512D

 27 29  0  0  0  0  0  0  0  0999 V2000
    4.0036    3.2478    0.0000 C    0  0  0  0  0  0  0  0  0  0  0  0
    4.4159    3.9624    0.0000 C    0  0  0  0  0  0  0  0  0  0  0  0
    3.1791    1.8140    0.0000 N    0  0  0  0  0  0  0  0  0  0  0  0
    4.4159    2.5286    0.0000 C    0  0  0  0  0  0  0  0  0  0  0  0
    2.7668    2.5286    0.0000 C    0  0  0  0  0  0  0  0  0  0  0  0
    3.1791    3.2478    0.0000 C    0  0  0  0  0  0  0  0  0  0  0  0
    4.0036    1.8140    0.0000 C    0  0  0  0  0  0  0  0  0  0  0  0
    4.0036    4.6633    0.0000 N    0  0  0  0  0  0  0  0  0  0  0  0
    3.8341    5.9596    0.0000 C    0  0  0  0  0  0  0  0  0  0  0  0
    3.2478    6.5460    0.0000 C    0  0  0  0  0  0  0  0  0  0  0  0
    4.4159    5.3779    0.0000 C    0  0  0  0  0  0  0  0  0  0  0  0
    1.9423    2.5286    0.0000 C    0  0  0  0  0  0  0  0  0  0  0  0
    5.2405    2.5286    0.0000 C    0  0  0  0  0  0  0  0  0  0  0  0
    5.2405    3.9624    0.0000 O    0  0  0  0  0  0  0  0  0  0  0  0
    1.5300    3.2478    0.0000 N    0  0  0  0  0  0  0  0  0  0  0  0
    4.4159    1.0994    0.0000 C    0  0  0  0  0  0  0  0  0  0  0  0
    5.6527    1.8140    0.0000 C    0  0  0  0  0  0  0  0  0  0  0  0
    5.2405    1.0994    0.0000 C    0  0  0  0  0  0  0  0  0  0  0  0
    6.4773    1.8140    0.0000 Cl   0  0  0  0  0  0  0  0  0  0  0  0
    0.7055    3.2478    0.0000 C    0  0  0  0  0  0  0  0  0  0  0  0
    5.0893    4.9106    0.0000 C    0  0  0  0  0  0  0  0  0  0  0  0
    4.9473    6.0100    0.0000 C    0  0  0  0  0  0  0  0  0  0  0  0
    1.5300    1.8140    0.0000 C    0  0  0  0  0  0  0  0  0  0  0  0
    4.6633    6.7887    0.0000 C    0  0  0  0  0  0  0  0  0  0  0  0
    5.8405    5.2542    0.0000 C    0  0  0  0  0  0  0  0  0  0  0  0
    0.2932    2.5286    0.0000 C    0  0  0  0  0  0  0  0  0  0  0  0
    0.7055    1.8140    0.0000 C    0  0  0  0  0  0  0  0  0  0  0  0
  2  1  1  0  0  0  0
  3  5  1  0  0  0  0
  4  1  2  0  0  0  0
  5  6  2  0  0  0  0
  6  1  1  0  0  0  0
  7  4  1  0  0  0  0
  7  3  2  0  0  0  0
  8  2  1  0  0  0  0
  9 11  1  0  0  0  0
 10  9  3  0  0  0  0
 11  8  1  0  0  0  0
 12  5  1  0  0  0  0
 13  4  1  0  0  0  0
 14  2  2  0  0  0  0
 15 12  1  0  0  0  0
 16  7  1  0  0  0  0
 16 18  2  0  0  0  0
 17 13  2  0  0  0  0
 18 17  1  0  0  0  0
 19 17  1  0  0  0  0
 20 15  2  0  0  0  0
 21 11  1  0  0  0  0
 22 11  1  0  0  0  0
 23 12  2  0  0  0  0
 24 22  1  0  0  0  0
 25 21  1  0  0  0  0
 26 27  2  0  0  0  0
 26 20  1  0  0  0  0
 27 23  1  0  0  0  0
M  END
> <CdId>
1499

> <Mol Weight>
377.867

> <Formula>
C22H20ClN3O

> <Click_ID>
CLK020_C04 __ __ 

$$$$
