CLK043C02
 OpenBabel03181410512D

 20 22  0  0  0  0  0  0  0  0999 V2000
    0.2129    0.0418    0.0000 C   0  0  0  0  0  0  0  0  0  0  0  0
    0.2129   -1.6116    0.0000 N   0  0  0  0  0  0  0  0  0  0  0  0
   -0.5052   -0.3716    0.0000 C   0  0  0  0  0  0  0  0  0  0  0  0
   -0.5052   -1.1983    0.0000 C   0  0  0  0  0  0  0  0  0  0  0  0
    0.2129    0.8685    0.0000 C   0  0  0  0  0  0  0  0  0  0  0  0
    0.9269   -0.3716    0.0000 C   0  0  0  0  0  0  0  0  0  0  0  0
    0.9269   -1.1983    0.0000 C   0  0  0  0  0  0  0  0  0  0  0  0
   -1.2192    2.5219    0.0000 C   0  0  0  0  0  0  0  0  0  0  0  0
   -1.9332    2.9353    0.0000 C   0  0  0  0  0  0  0  0  0  0  0  0
    0.9269    1.2819    0.0000 O   0  0  0  0  0  0  0  0  0  0  0  0
   -0.5052    1.2819    0.0000 N   0  0  0  0  0  0  0  0  0  0  0  0
   -0.5052    2.1086    0.0000 C   0  0  0  0  0  0  0  0  0  0  0  0
   -1.2192    0.0418    0.0000 C   0  0  0  0  0  0  0  0  0  0  0  0
   -1.2192   -1.6116    0.0000 C   0  0  0  0  0  0  0  0  0  0  0  0
    1.6451    0.0418    0.0000 C   0  0  0  0  0  0  0  0  0  0  0  0
    1.6451   -1.6116    0.0000 C   0  0  0  0  0  0  0  0  0  0  0  0
   -1.9332   -0.3716    0.0000 C   0  0  0  0  0  0  0  0  0  0  0  0
   -1.9332   -1.1983    0.0000 C   0  0  0  0  0  0  0  0  0  0  0  0
    2.3591   -0.3716    0.0000 C   0  0  0  0  0  0  0  0  0  0  0  0
    2.3591   -1.1983    0.0000 C   0  0  0  0  0  0  0  0  0  0  0  0
  2  7  2  0  0  0  0
  2  4  1  0  0  0  0
  3  1  1  0  0  0  0
  4  3  2  0  0  0  0
  5  1  1  0  0  0  0
  6  1  2  0  0  0  0
  7  6  1  0  0  0  0
  8 12  1  0  0  0  0
  9  8  3  0  0  0  0
 10  5  2  0  0  0  0
 11  5  1  0  0  0  0
 12 11  1  0  0  0  0
 13  3  1  0  0  0  0
 14  4  1  0  0  0  0
 15  6  1  0  0  0  0
 16  7  1  0  0  0  0
 17 13  1  0  0  0  0
 18 14  1  0  0  0  0
 18 17  1  0  0  0  0
 19 15  2  0  0  0  0
 19 20  1  0  0  0  0
 20 16  2  0  0  0  0
M  END
> <CdId>
3251

> <Mol Weight>
264.3217

> <Formula>
C17H16N2O

> <Click_ID>
CLK043C02 __ __ 

$$$$
