CLK019_H04
 OpenBabel03181410512D

 31 33  0  0  0  0  0  0  0  0999 V2000
    5.3022   -9.4513    0.0000 C    0  0  0  0  0  0  0  0  0  0  0  0
    6.0114   -9.8614    0.0000 C    0  0  3  0  0  0  0  0  0  0  0  0
    4.5930   -9.8614    0.0000 C    0  0  0  0  0  0  0  0  0  0  0  0
    6.7303   -9.4417    0.0000 C    0  0  0  0  0  0  0  0  0  0  0  0
    5.3022  -11.0917    0.0000 C    0  0  0  0  0  0  0  0  0  0  0  0
    4.6026  -10.6864    0.0000 N    0  0  0  0  0  0  0  0  0  0  0  0
    6.0114  -10.6864    0.0000 N    0  0  0  0  0  0  0  0  0  0  0  0
    5.3022   -8.6312    0.0000 C    0  0  0  0  0  0  0  0  0  0  0  0
    7.4443   -9.8614    0.0000 C    0  0  0  0  0  0  0  0  0  0  0  0
    6.7303   -8.6167    0.0000 C    0  0  0  0  0  0  0  0  0  0  0  0
    8.1632   -9.4513    0.0000 C    0  0  0  0  0  0  0  0  0  0  0  0
    7.4443   -8.2114    0.0000 C    0  0  0  0  0  0  0  0  0  0  0  0
    8.1535   -8.6167    0.0000 C    0  0  0  0  0  0  0  0  0  0  0  0
    9.5961   -6.9667    0.0000 C    0  0  0  0  0  0  0  0  0  0  0  0
    4.5930   -8.2259    0.0000 N    0  0  0  0  0  0  0  0  0  0  0  0
   10.3101   -6.5566    0.0000 C    0  0  0  0  0  0  0  0  0  0  0  0
    5.3167  -11.9167    0.0000 O    0  0  0  0  0  0  0  0  0  0  0  0
    6.0114   -8.2259    0.0000 O    0  0  0  0  0  0  0  0  0  0  0  0
    7.4539  -10.6961    0.0000 Br   0  0  0  0  0  0  0  0  0  0  0  0
    4.5882   -7.4105    0.0000 C    0  0  0  0  0  0  0  0  0  0  0  0
    3.8789   -9.4562    0.0000 C    0  0  0  0  0  0  0  0  0  0  0  0
    8.8772   -8.2114    0.0000 O    0  0  0  0  0  0  0  0  0  0  0  0
    7.4539   -7.3720    0.0000 O    0  0  0  0  0  0  0  0  0  0  0  0
    3.8789   -6.9957    0.0000 C    0  0  0  0  0  0  0  0  0  0  0  0
    8.8772   -7.3864    0.0000 C    0  0  0  0  0  0  0  0  0  0  0  0
    8.1776   -6.9618    0.0000 C    0  0  0  0  0  0  0  0  0  0  0  0
    3.8693   -6.1707    0.0000 C    0  0  0  0  0  0  0  0  0  0  0  0
    3.1601   -7.4105    0.0000 C    0  0  0  0  0  0  0  0  0  0  0  0
    2.4461   -7.0101    0.0000 C    0  0  0  0  0  0  0  0  0  0  0  0
    3.1601   -5.7509    0.0000 C    0  0  0  0  0  0  0  0  0  0  0  0
    2.4461   -6.1707    0.0000 C    0  0  0  0  0  0  0  0  0  0  0  0
  2  1  1  0  0  0  0
  3  1  2  0  0  0  0
  4  2  1  0  0  0  0
  5  6  1  0  0  0  0
  6  3  1  0  0  0  0
  7  2  1  0  0  0  0
  7  5  1  0  0  0  0
  8  1  1  0  0  0  0
  9  4  1  0  0  0  0
 10  4  2  0  0  0  0
 11  9  2  0  0  0  0
 11 13  1  0  0  0  0
 12 10  1  0  0  0  0
 13 12  2  0  0  0  0
 14 25  1  0  0  0  0
 15  8  1  0  0  0  0
 16 14  3  0  0  0  0
 17  5  2  0  0  0  0
 18  8  2  0  0  0  0
 19  9  1  0  0  0  0
 20 15  1  0  0  0  0
 21  3  1  0  0  0  0
 22 13  1  0  0  0  0
 23 12  1  0  0  0  0
 24 20  1  0  0  0  0
 25 22  1  0  0  0  0
 26 23  1  0  0  0  0
 27 24  2  0  0  0  0
 28 24  1  0  0  0  0
 29 28  2  0  0  0  0
 30 27  1  0  0  0  0
 30 31  2  0  0  0  0
 31 29  1  0  0  0  0
M  END
> <CdId>
1469

> <Mol Weight>
484.342

> <Formula>
C23H22BrN3O4

> <Click_ID>
CLK019_H04 __ __ 

$$$$
