CLK024_F04
 OpenBabel03181410512D

 27 29  0  0  0  0  0  0  0  0999 V2000
   -1.6253    1.2955    0.0000 N    0  0  0  0  0  0  0  0  0  0  0  0
   -1.3676    0.5120    0.0000 C    0  0  0  0  0  0  0  0  0  0  0  0
   -0.9587    1.7800    0.0000 C    0  0  0  0  0  0  0  0  0  0  0  0
   -0.2852    1.2955    0.0000 C    0  0  0  0  0  0  0  0  0  0  0  0
   -0.5464    0.5120    0.0000 S    0  0  0  0  0  0  0  0  0  0  0  0
    0.5017    1.5463    0.0000 C    0  0  0  0  0  0  0  0  0  0  0  0
    2.3298   -0.1099    0.0000 C    0  0  0  0  0  0  0  0  0  0  0  0
    1.5532   -0.3677    0.0000 C    0  0  0  0  0  0  0  0  0  0  0  0
    2.5051    0.6907    0.0000 C    0  0  0  0  0  0  0  0  0  0  0  0
    1.1065    0.9965    0.0000 C    0  0  0  0  0  0  0  0  0  0  0  0
    3.3882   -2.0240    0.0000 C    0  0  0  0  0  0  0  0  0  0  0  0
   -2.4088    1.5463    0.0000 C    0  0  0  0  0  0  0  0  0  0  0  0
    3.9724   -2.6081    0.0000 C    0  0  0  0  0  0  0  0  0  0  0  0
   -1.8521   -0.1615    0.0000 O    0  0  0  0  0  0  0  0  0  0  0  0
    0.9381    0.1890    0.0000 C    0  0  0  0  0  0  0  0  0  0  0  0
    1.8934    1.2439    0.0000 C    0  0  0  0  0  0  0  0  0  0  0  0
   -0.9587    2.6013    0.0000 O    0  0  0  0  0  0  0  0  0  0  0  0
    1.3814   -1.1684    0.0000 Cl   0  0  0  0  0  0  0  0  0  0  0  0
    2.9483   -0.6666    0.0000 O    0  0  0  0  0  0  0  0  0  0  0  0
    3.2885    0.9484    0.0000 O    0  0  0  0  0  0  0  0  0  0  0  0
    2.7731   -1.4742    0.0000 C    0  0  0  0  0  0  0  0  0  0  0  0
   -3.0170    0.9965    0.0000 C    0  0  0  0  0  0  0  0  0  0  0  0
   -2.5738    2.3573    0.0000 C    0  0  0  0  0  0  0  0  0  0  0  0
    3.4603    1.7560    0.0000 C    0  0  0  0  0  0  0  0  0  0  0  0
   -3.3572    2.6116    0.0000 C    0  0  0  0  0  0  0  0  0  0  0  0
   -3.8040    1.2577    0.0000 C    0  0  0  0  0  0  0  0  0  0  0  0
   -3.9758    2.0652    0.0000 C    0  0  0  0  0  0  0  0  0  0  0  0
  2  1  1  0  0  0  0
  3  1  1  0  0  0  0
  4  3  1  0  0  0  0
  4  5  1  0  0  0  0
  5  2  1  0  0  0  0
  6  4  2  0  0  0  0
  7  9  2  0  0  0  0
  7  8  1  0  0  0  0
  8 15  2  0  0  0  0
  9 16  1  0  0  0  0
 10  6  1  0  0  0  0
 11 21  1  0  0  0  0
 12  1  1  0  0  0  0
 13 11  3  0  0  0  0
 14  2  2  0  0  0  0
 15 10  1  0  0  0  0
 16 10  2  0  0  0  0
 17  3  2  0  0  0  0
 18  8  1  0  0  0  0
 19  7  1  0  0  0  0
 20  9  1  0  0  0  0
 21 19  1  0  0  0  0
 22 12  1  0  0  0  0
 23 12  2  0  0  0  0
 24 20  1  0  0  0  0
 25 23  1  0  0  0  0
 26 22  2  0  0  0  0
 27 25  2  0  0  0  0
 27 26  1  0  0  0  0
M  END
> <CdId>
1829

> <Mol Weight>
399.847

> <Formula>
C20H14ClNO4S

> <Click_ID>
CLK024_F04 __ __ 

$$$$
