CLK014_F07
 OpenBabel03181410512D

 23 25  0  0  0  0  0  0  0  0999 V2000
    1.5642   -0.8154    0.0000 N   0  0  0  0  0  0  0  0  0  0  0  0
    1.8221   -1.6016    0.0000 C   0  0  0  0  0  0  0  0  0  0  0  0
    2.8995   -0.8154    0.0000 C   0  0  0  0  0  0  0  0  0  0  0  0
    2.2339   -0.3287    0.0000 C   0  0  0  0  0  0  0  0  0  0  0  0
    2.6457   -1.6016    0.0000 S   0  0  0  0  0  0  0  0  0  0  0  0
    3.6858   -0.5616    0.0000 C   0  0  0  0  0  0  0  0  0  0  0  0
    4.5177    1.4060    0.0000 C   0  0  0  0  0  0  0  0  0  0  0  0
    3.8480    0.2454    0.0000 C   0  0  0  0  0  0  0  0  0  0  0  0
    4.6051    0.5948    0.0000 O   0  0  0  0  0  0  0  0  0  0  0  0
    3.7065    1.5808    0.0000 C   0  0  0  0  0  0  0  0  0  0  0  0
    0.6115    0.2454    0.0000 C   0  0  0  0  0  0  0  0  0  0  0  0
    3.2989    0.8611    0.0000 C   0  0  0  0  0  0  0  0  0  0  0  0
    0.3911    1.0441    0.0000 C   0  0  0  0  0  0  0  0  0  0  0  0
    5.1210    1.9593    0.0000 S   0  0  0  0  0  0  0  0  0  0  0  0
    1.3353   -2.2631    0.0000 O   0  0  0  0  0  0  0  0  0  0  0  0
    2.2256    0.4950    0.0000 O   0  0  0  0  0  0  0  0  0  0  0  0
    0.7862   -0.5616    0.0000 C   0  0  0  0  0  0  0  0  0  0  0  0
    4.9462    2.7705    0.0000 C   0  0  0  0  0  0  0  0  0  0  0  0
    5.5660    3.3279    0.0000 C   0  0  0  0  0  0  0  0  0  0  0  0
    4.1683    3.0159    0.0000 C   0  0  0  0  0  0  0  0  0  0  0  0
    5.3955    4.1226    0.0000 C   0  0  0  0  0  0  0  0  0  0  0  0
    3.9978    3.8271    0.0000 C   0  0  0  0  0  0  0  0  0  0  0  0
    4.6093    4.3722    0.0000 C   0  0  0  0  0  0  0  0  0  0  0  0
  2  1  1  0  0  0  0
  3  4  1  0  0  0  0
  3  5  1  0  0  0  0
  4  1  1  0  0  0  0
  5  2  1  0  0  0  0
  6  3  2  0  0  0  0
  7  9  1  0  0  0  0
  7 10  2  0  0  0  0
  8  6  1  0  0  0  0
  9  8  1  0  0  0  0
 10 12  1  0  0  0  0
 11 17  1  0  0  0  0
 12  8  2  0  0  0  0
 13 11  3  0  0  0  0
 14  7  1  0  0  0  0
 15  2  2  0  0  0  0
 16  4  2  0  0  0  0
 17  1  1  0  0  0  0
 18 14  1  0  0  0  0
 19 18  2  0  0  0  0
 20 18  1  0  0  0  0
 21 19  1  0  0  0  0
 21 23  2  0  0  0  0
 22 20  2  0  0  0  0
 23 22  1  0  0  0  0
M  END
> <CdId>
1052

> <Mol Weight>
341.404

> <Formula>
C17H11NO3S2

> <Click_ID>
CLK014_F07 __ __ 

$$$$
