CLK023_H09
 OpenBabel03181410512D

 29 31  0  0  0  0  0  0  0  0999 V2000
    2.6744    1.5263    0.0000 N    0  0  0  0  0  0  0  0  0  0  0  0
    3.0800    0.8182    0.0000 C    0  0  0  0  0  0  0  0  0  0  0  0
    1.7703    0.5328    0.0000 C    0  0  0  0  0  0  0  0  0  0  0  0
    1.8666    1.3578    0.0000 C    0  0  0  0  0  0  0  0  0  0  0  0
    2.5266    0.1959    0.0000 S    0  0  0  0  0  0  0  0  0  0  0  0
   -3.9359   -1.1138    0.0000 N    0  0  0  0  0  0  0  0  0  0  0  0
    1.0553    0.1237    0.0000 C    0  0  0  0  0  0  0  0  0  0  0  0
    1.0553   -0.7012    0.0000 C    0  0  0  0  0  0  0  0  0  0  0  0
   -3.2243   -0.7012    0.0000 C    0  0  0  0  0  0  0  0  0  0  0  0
    3.8259    2.3616    0.0000 C    0  0  0  0  0  0  0  0  0  0  0  0
    4.6509    2.3547    0.0000 C    0  0  0  0  0  0  0  0  0  0  0  0
   -4.6544   -0.7012    0.0000 O    0  0  0  0  0  0  0  0  0  0  0  0
    3.9016    0.7184    0.0000 O    0  0  0  0  0  0  0  0  0  0  0  0
    0.3368   -1.1138    0.0000 C    0  0  0  0  0  0  0  0  0  0  0  0
   -3.9428   -1.9353    0.0000 O    0  0  0  0  0  0  0  0  0  0  0  0
    1.2443    1.9147    0.0000 O    0  0  0  0  0  0  0  0  0  0  0  0
    3.0112    2.2791    0.0000 C    0  0  0  0  0  0  0  0  0  0  0  0
    1.7669   -1.1138    0.0000 C    0  0  0  0  0  0  0  0  0  0  0  0
   -0.3747   -0.7047    0.0000 O    0  0  0  0  0  0  0  0  0  0  0  0
   -2.5094   -1.1138    0.0000 C    0  0  0  0  0  0  0  0  0  0  0  0
    0.3368   -1.9388    0.0000 C    0  0  0  0  0  0  0  0  0  0  0  0
    1.7669   -1.9388    0.0000 C    0  0  0  0  0  0  0  0  0  0  0  0
   -1.8012   -0.7047    0.0000 C    0  0  0  0  0  0  0  0  0  0  0  0
   -1.0897   -1.1172    0.0000 C    0  0  0  0  0  0  0  0  0  0  0  0
    1.0553   -2.3616    0.0000 C    0  0  0  0  0  0  0  0  0  0  0  0
    2.4750   -2.3616    0.0000 Br   0  0  0  0  0  0  0  0  0  0  0  0
   -3.2210    0.1237    0.0000 C    0  0  0  0  0  0  0  0  0  0  0  0
   -2.5094    0.5328    0.0000 C    0  0  0  0  0  0  0  0  0  0  0  0
   -1.7978    0.1237    0.0000 C    0  0  0  0  0  0  0  0  0  0  0  0
  2  1  1  0  0  0  0
  3  4  1  0  0  0  0
  4  1  1  0  0  0  0
  5  2  1  0  0  0  0
  5  3  1  0  0  0  0
  6  9  1  0  0  0  0
  7  3  2  0  0  0  0
  8  7  1  0  0  0  0
  9 20  2  0  0  0  0
 10 17  1  0  0  0  0
 11 10  3  0  0  0  0
 12  6  1  0  0  0  0
 13  2  2  0  0  0  0
 14  8  2  0  0  0  0
 15  6  2  0  0  0  0
 16  4  2  0  0  0  0
 17  1  1  0  0  0  0
 18  8  1  0  0  0  0
 19 14  1  0  0  0  0
 20 23  1  0  0  0  0
 21 14  1  0  0  0  0
 22 18  2  0  0  0  0
 23 24  1  0  0  0  0
 24 19  1  0  0  0  0
 25 22  1  0  0  0  0
 25 21  2  0  0  0  0
 26 22  1  0  0  0  0
 27 28  2  0  0  0  0
 27  9  1  0  0  0  0
 28 29  1  0  0  0  0
 29 23  2  0  0  0  0
M  END
> <CdId>
1774

> <Mol Weight>
473.297

> <Formula>
C20H13BrN2O5S

> <Click_ID>
CLK023_H09 __ __ 

$$$$
