CLK047D07
 OpenBabel03181410512D

 19 20  0  0  0  0  0  0  0  0999 V2000
   -1.1667    1.1083    0.0000 N   0  0  0  0  0  0  0  0  0  0  0  0
   -1.8833    1.5208    0.0000 C   0  0  0  0  0  0  0  0  0  0  0  0
   -0.4542   -0.1292    0.0000 C   0  0  0  0  0  0  0  0  0  0  0  0
    2.4042   -0.9542    0.0000 C   0  0  0  0  0  0  0  0  0  0  0  0
   -1.1667    0.2833    0.0000 C   0  0  0  0  0  0  0  0  0  0  0  0
    3.1208   -0.5417    0.0000 C   0  0  0  0  0  0  0  0  0  0  0  0
   -0.4542   -0.9542    0.0000 N   0  0  0  0  0  0  0  0  0  0  0  0
   -0.4542    1.5208    0.0000 C   0  0  0  0  0  0  0  0  0  0  0  0
   -1.8833    2.3458    0.0000 C   0  0  0  0  0  0  0  0  0  0  0  0
   -2.5958    1.1083    0.0000 O   0  0  0  0  0  0  0  0  0  0  0  0
    0.2625    0.2833    0.0000 O   0  0  0  0  0  0  0  0  0  0  0  0
   -0.4542    2.3458    0.0000 C   0  0  0  0  0  0  0  0  0  0  0  0
    0.2625   -1.3667    0.0000 C   0  0  0  0  0  0  0  0  0  0  0  0
   -1.1667    2.7583    0.0000 C   0  0  0  0  0  0  0  0  0  0  0  0
    1.6917   -1.3667    0.0000 C   0  0  0  0  0  0  0  0  0  0  0  0
    0.9750   -0.9542    0.0000 C   0  0  0  0  0  0  0  0  0  0  0  0
    0.9750   -2.6042    0.0000 C   0  0  0  0  0  0  0  0  0  0  0  0
    0.2625   -2.1917    0.0000 C   0  0  0  0  0  0  0  0  0  0  0  0
    1.6917   -2.1917    0.0000 C   0  0  0  0  0  0  0  0  0  0  0  0
  2  1  1  0  0  0  0
  3  5  1  0  0  0  0
  4 15  1  0  0  0  0
  5  1  1  0  0  0  0
  6  4  3  0  0  0  0
  7  3  1  0  0  0  0
  8  1  1  0  0  0  0
  9  2  1  0  0  0  0
 10  2  2  0  0  0  0
 11  3  2  0  0  0  0
 12  8  2  0  0  0  0
 13  7  1  0  0  0  0
 14  9  2  0  0  0  0
 14 12  1  0  0  0  0
 15 16  1  0  0  0  0
 16 13  2  0  0  0  0
 17 18  2  0  0  0  0
 18 13  1  0  0  0  0
 19 15  2  0  0  0  0
 19 17  1  0  0  0  0
M  END
> <CdId>
3612

> <Mol Weight>
252.268

> <Formula>
C15H12N2O2

> <Click_ID>
CLK047D07 __ __ 

$$$$
