CLK021_D04
 OpenBabel03181410512D

 26 28  0  0  0  0  0  0  0  0999 V2000
    3.8250    2.4736    0.0000 C    0  0  3  0  0  0  0  0  0  0  0  0
    3.4906    3.2295    0.0000 C    0  0  0  0  0  0  0  0  0  0  0  0
    3.2157    1.9239    0.0000 C    0  0  0  0  0  0  0  0  0  0  0  0
    2.6706    3.1424    0.0000 N    0  0  0  0  0  0  0  0  0  0  0  0
    2.5011    2.3362    0.0000 C    0  0  0  0  0  0  0  0  0  0  0  0
    4.3060    1.8094    0.0000 C    0  0  0  0  0  0  0  0  0  0  0  0
    5.1030    2.0339    0.0000 C    0  0  0  0  0  0  0  0  0  0  0  0
    5.6940    1.4658    0.0000 C    0  0  0  0  0  0  0  0  0  0  0  0
    1.3514    3.4447    0.0000 C    0  0  0  0  0  0  0  0  0  0  0  0
    1.7865    1.9239    0.0000 C    0  0  0  0  0  0  0  0  0  0  0  0
    0.5909    3.1424    0.0000 C    0  0  0  0  0  0  0  0  0  0  0  0
    3.2157    1.0994    0.0000 C    0  0  0  0  0  0  0  0  0  0  0  0
    3.9028    3.9441    0.0000 O    0  0  0  0  0  0  0  0  0  0  0  0
    6.4910    1.6903    0.0000 C    0  0  0  0  0  0  0  0  0  0  0  0
    5.2405    2.5973    0.0000 O    0  0  0  0  0  0  0  0  0  0  0  0
    2.1209    3.7608    0.0000 C    0  0  0  0  0  0  0  0  0  0  0  0
    4.5396    2.8859    0.0000 O    0  0  0  0  0  0  0  0  0  0  0  0
    2.5011    0.6871    0.0000 C    0  0  0  0  0  0  0  0  0  0  0  0
    1.7865    1.0994    0.0000 C    0  0  0  0  0  0  0  0  0  0  0  0
    2.5011   -0.1374    0.0000 Br   0  0  0  0  0  0  0  0  0  0  0  0
    6.6834    2.4965    0.0000 O    0  0  0  0  0  0  0  0  0  0  0  0
    5.4969    0.6688    0.0000 C    0  0  0  0  0  0  0  0  0  0  0  0
    7.0819    1.1223    0.0000 C    0  0  0  0  0  0  0  0  0  0  0  0
    7.4805    2.7164    0.0000 C    0  0  0  0  0  0  0  0  0  0  0  0
    6.0925    0.0916    0.0000 C    0  0  0  0  0  0  0  0  0  0  0  0
    6.8849    0.3161    0.0000 C    0  0  0  0  0  0  0  0  0  0  0  0
  2  1  1  0  0  0  0
  3  1  1  0  0  0  0
  4  2  1  0  0  0  0
  4  5  1  0  0  0  0
  5  3  2  0  0  0  0
  6  1  1  0  0  0  0
  7  6  1  0  0  0  0
  8  7  1  0  0  0  0
  9 16  1  0  0  0  0
 10  5  1  0  0  0  0
 10 19  2  0  0  0  0
 11  9  3  0  0  0  0
 12  3  1  0  0  0  0
 13  2  2  0  0  0  0
 14  8  1  0  0  0  0
 15  7  2  0  0  0  0
 16  4  1  0  0  0  0
 17  1  1  0  0  0  0
 18 12  2  0  0  0  0
 19 18  1  0  0  0  0
 20 18  1  0  0  0  0
 21 14  1  0  0  0  0
 22  8  2  0  0  0  0
 23 14  2  0  0  0  0
 24 21  1  0  0  0  0
 25 22  1  0  0  0  0
 26 25  2  0  0  0  0
 26 23  1  0  0  0  0
M  END
> <CdId>
1589

> <Mol Weight>
414.249

> <Formula>
C20H16BrNO4

> <Click_ID>
CLK021_D04 __ __ 

$$$$
