CLK024_H05
 OpenBabel03181410512D

 27 28  0  0  0  0  0  0  0  0999 V2000
    0.3817   -2.2627    0.0000 N   0  0  0  0  0  0  0  0  0  0  0  0
   -0.0172   -2.9813    0.0000 C   0  0  0  0  0  0  0  0  0  0  0  0
   -0.1788   -1.6505    0.0000 C   0  0  0  0  0  0  0  0  0  0  0  0
   -0.9284   -2.0013    0.0000 C   0  0  0  0  0  0  0  0  0  0  0  0
   -0.8287   -2.8231    0.0000 S   0  0  0  0  0  0  0  0  0  0  0  0
    1.2035   -2.1835    0.0000 C   0  0  3  0  0  0  0  0  0  0  0  0
   -1.6024   -1.5268    0.0000 C   0  0  0  0  0  0  0  0  0  0  0  0
    1.5405   -1.4271    0.0000 C   0  0  0  0  0  0  0  0  0  0  0  0
   -0.4436    2.9126    0.0000 C   0  0  0  0  0  0  0  0  0  0  0  0
   -0.3542    3.7344    0.0000 C   0  0  0  0  0  0  0  0  0  0  0  0
    0.3301   -3.7344    0.0000 O   0  0  0  0  0  0  0  0  0  0  0  0
   -2.1044    0.5949    0.0000 C   0  0  0  0  0  0  0  0  0  0  0  0
   -0.0172   -0.8424    0.0000 O   0  0  0  0  0  0  0  0  0  0  0  0
   -1.5268   -0.7049    0.0000 C   0  0  0  0  0  0  0  0  0  0  0  0
   -2.1904   -0.2166    0.0000 C   0  0  0  0  0  0  0  0  0  0  0  0
   -1.3549    0.9284    0.0000 C   0  0  0  0  0  0  0  0  0  0  0  0
    1.0625   -0.7531    0.0000 O   0  0  0  0  0  0  0  0  0  0  0  0
   -0.6912    0.4436    0.0000 C   0  0  0  0  0  0  0  0  0  0  0  0
   -0.7772   -0.3748    0.0000 C   0  0  0  0  0  0  0  0  0  0  0  0
    2.3623   -1.3411    0.0000 O   0  0  0  0  0  0  0  0  0  0  0  0
   -2.7715    1.0900    0.0000 O   0  0  0  0  0  0  0  0  0  0  0  0
   -1.2757    1.7502    0.0000 O   0  0  0  0  0  0  0  0  0  0  0  0
   -0.5226    2.0907    0.0000 C   0  0  0  0  0  0  0  0  0  0  0  0
    1.6850   -2.8472    0.0000 C   0  0  0  0  0  0  0  0  0  0  0  0
    2.7062   -0.5915    0.0000 C   0  0  0  0  0  0  0  0  0  0  0  0
   -3.5315    0.7531    0.0000 C   0  0  0  0  0  0  0  0  0  0  0  0
    3.5280   -0.5055    0.0000 C   0  0  0  0  0  0  0  0  0  0  0  0
  2  1  1  0  0  0  0
  3  1  1  0  0  0  0
  4  3  1  0  0  0  0
  4  5  1  0  0  0  0
  5  2  1  0  0  0  0
  6  1  1  0  0  0  0
  7  4  2  0  0  0  0
  8  6  1  0  0  0  0
  9 23  1  0  0  0  0
 10  9  3  0  0  0  0
 11  2  2  0  0  0  0
 12 15  2  0  0  0  0
 12 16  1  0  0  0  0
 13  3  2  0  0  0  0
 14  7  1  0  0  0  0
 15 14  1  0  0  0  0
 16 18  2  0  0  0  0
 17  8  2  0  0  0  0
 18 19  1  0  0  0  0
 19 14  2  0  0  0  0
 20  8  1  0  0  0  0
 21 12  1  0  0  0  0
 22 16  1  0  0  0  0
 23 22  1  0  0  0  0
 24  6  1  0  0  0  0
 25 20  1  0  0  0  0
 26 21  1  0  0  0  0
 27 25  1  0  0  0  0
M  END
> <CdId>
1850

> <Mol Weight>
389.422

> <Formula>
C19H19NO6S

> <Click_ID>
CLK024_H05 __ __ 

$$$$
