CLK047E09
 OpenBabel03181410512D

 19 20  0  0  0  0  0  0  0  0999 V2000
    0.7542    0.1667    0.0000 N   0  0  0  0  0  0  0  0  0  0  0  0
    1.5583    0.3500    0.0000 C   0  0  0  0  0  0  0  0  0  0  0  0
    0.1083    0.6833    0.0000 C   0  0  0  0  0  0  0  0  0  0  0  0
    0.5708   -0.6375    0.0000 C   0  0  0  0  0  0  0  0  0  0  0  0
   -1.3750   -2.7292    0.0000 C   0  0  0  0  0  0  0  0  0  0  0  0
   -1.5583   -3.5375    0.0000 C   0  0  0  0  0  0  0  0  0  0  0  0
   -0.2208   -0.8792    0.0000 C   0  0  0  0  0  0  0  0  0  0  0  0
    0.1083    1.5083    0.0000 C   0  0  0  0  0  0  0  0  0  0  0  0
    1.9167    1.0958    0.0000 C   0  0  0  0  0  0  0  0  0  0  0  0
    0.7542    2.0208    0.0000 O   0  0  0  0  0  0  0  0  0  0  0  0
    2.0708   -0.2917    0.0000 O   0  0  0  0  0  0  0  0  0  0  0  0
   -0.8250   -0.3167    0.0000 O   0  0  0  0  0  0  0  0  0  0  0  0
   -0.4042   -1.6833    0.0000 N   0  0  0  0  0  0  0  0  0  0  0  0
    1.5583    1.8375    0.0000 C   0  0  0  0  0  0  0  0  0  0  0  0
   -1.1917   -1.9250    0.0000 C   0  0  0  0  0  0  0  0  0  0  0  0
   -0.6083    0.2708    0.0000 C   0  0  0  0  0  0  0  0  0  0  0  0
   -0.6083    1.9208    0.0000 C   0  0  0  0  0  0  0  0  0  0  0  0
   -1.3208    0.6833    0.0000 C   0  0  0  0  0  0  0  0  0  0  0  0
   -1.3208    1.5083    0.0000 C   0  0  0  0  0  0  0  0  0  0  0  0
  2  1  1  0  0  0  0
  3  1  1  0  0  0  0
  4  1  1  0  0  0  0
  5 15  1  0  0  0  0
  6  5  3  0  0  0  0
  7  4  1  0  0  0  0
  8  3  2  0  0  0  0
  9  2  1  0  0  0  0
 10  8  1  0  0  0  0
 10 14  1  0  0  0  0
 11  2  2  0  0  0  0
 12  7  2  0  0  0  0
 13  7  1  0  0  0  0
 14  9  1  0  0  0  0
 15 13  1  0  0  0  0
 16  3  1  0  0  0  0
 17  8  1  0  0  0  0
 18 16  2  0  0  0  0
 18 19  1  0  0  0  0
 19 17  2  0  0  0  0
M  END
> <CdId>
3629

> <Mol Weight>
258.2726

> <Formula>
C14H14N2O3

> <Click_ID>
CLK047E09 __ __ 

$$$$
