CLK035_F08
 OpenBabel03181410512D

 25 27  0  0  0  0  0  0  0  0999 V2000
   -3.1354    0.1732    0.0000 N   0  0  0  0  0  0  0  0  0  0  0  0
   -2.5579   -0.8289    0.0000 N   0  0  0  0  0  0  0  0  0  0  0  0
   -1.9770   -0.4926    0.0000 C   0  0  0  0  0  0  0  0  0  0  0  0
   -3.1354   -0.4994    0.0000 C   0  0  0  0  0  0  0  0  0  0  0  0
   -2.5579    0.5163    0.0000 C   0  0  0  0  0  0  0  0  0  0  0  0
   -1.9770    0.1732    0.0000 C   0  0  0  0  0  0  0  0  0  0  0  0
   -1.3962   -0.8289    0.0000 N   0  0  0  0  0  0  0  0  0  0  0  0
   -0.8153   -0.4926    0.0000 C   0  0  0  0  0  0  0  0  0  0  0  0
   -1.4029    0.5095    0.0000 C   0  0  0  0  0  0  0  0  0  0  0  0
   -0.8220    0.1800    0.0000 N   0  0  0  0  0  0  0  0  0  0  0  0
   -0.1019   -0.9070    0.0000 C   0  0  0  0  0  0  0  0  0  0  0  0
   -0.0204    2.8297    0.0000 C   0  0  0  0  0  0  0  0  0  0  0  0
   -3.7197   -0.8357    0.0000 O   0  0  0  0  0  0  0  0  0  0  0  0
    0.7066    2.4356    0.0000 C   0  0  0  0  0  0  0  0  0  0  0  0
   -2.5579    1.1889    0.0000 O   0  0  0  0  0  0  0  0  0  0  0  0
   -1.4539    2.7923    0.0000 S   0  0  0  0  0  0  0  0  0  0  0  0
   -0.1019   -1.7427    0.0000 C   0  0  0  0  0  0  0  0  0  0  0  0
   -3.7197    0.5095    0.0000 C   0  0  0  0  0  0  0  0  0  0  0  0
   -2.5545   -1.5015    0.0000 C   0  0  0  0  0  0  0  0  0  0  0  0
   -0.7507    3.2271    0.0000 C   0  0  0  0  0  0  0  0  0  0  0  0
    0.6149   -0.4926    0.0000 C   0  0  0  0  0  0  0  0  0  0  0  0
   -0.8119   -2.1605    0.0000 C   0  0  0  0  0  0  0  0  0  0  0  0
    0.6149   -2.1435    0.0000 C   0  0  0  0  0  0  0  0  0  0  0  0
    1.3350   -0.9070    0.0000 C   0  0  0  0  0  0  0  0  0  0  0  0
    1.3350   -1.7325    0.0000 C   0  0  0  0  0  0  0  0  0  0  0  0
  2  4  1  0  0  0  0
  3  6  2  0  0  0  0
  3  2  1  0  0  0  0
  4  1  1  0  0  0  0
  5  1  1  0  0  0  0
  6  5  1  0  0  0  0
  7  3  1  0  0  0  0
  7  8  2  0  0  0  0
  8 10  1  0  0  0  0
  9  6  1  0  0  0  0
 10  9  2  0  0  0  0
 11  8  1  0  0  0  0
 12 20  1  0  0  0  0
 13  4  2  0  0  0  0
 14 12  3  0  0  0  0
 15  5  2  0  0  0  0
 16  9  1  0  0  0  0
 17 11  2  0  0  0  0
 18  1  1  0  0  0  0
 19  2  1  0  0  0  0
 20 16  1  0  0  0  0
 21 11  1  0  0  0  0
 22 17  1  0  0  0  0
 23 17  1  0  0  0  0
 24 21  2  0  0  0  0
 25 24  1  0  0  0  0
 25 23  2  0  0  0  0
M  END
> <CdId>
2702

> <Mol Weight>
352.41

> <Formula>
C18H16N4O2S

> <Click_ID>
CLK035_F08 __ __ 

$$$$
