CLK042C05
 OpenBabel03181410512D

 28 30  0  0  0  0  0  0  0  0999 V2000
   -0.7417   -1.2500    0.0000 S    0  0  0  0  0  0  0  0  0  0  0  0
    0.6875    1.2250    0.0000 C    0  0  0  0  0  0  0  0  0  0  0  0
   -1.4583   -1.6625    0.0000 N    0  0  0  0  0  0  0  0  0  0  0  0
   -0.0292   -0.8375    0.0000 C    0  0  0  0  0  0  0  0  0  0  0  0
    1.4000    1.6375    0.0000 N    0  0  0  0  0  0  0  0  0  0  0  0
   -0.0292    4.1083    0.0000 C    0  0  0  0  0  0  0  0  0  0  0  0
    0.6875    0.4000    0.0000 C    0  0  0  0  0  0  0  0  0  0  0  0
   -0.3292   -1.9667    0.0000 O    0  0  0  0  0  0  0  0  0  0  0  0
   -1.1542   -0.5375    0.0000 O    0  0  0  0  0  0  0  0  0  0  0  0
   -0.0292   -0.0125    0.0000 C    0  0  0  0  0  0  0  0  0  0  0  0
   -0.7417    4.5208    0.0000 C    0  0  0  0  0  0  0  0  0  0  0  0
   -0.0292    1.6375    0.0000 O    0  0  0  0  0  0  0  0  0  0  0  0
    1.4000    2.4625    0.0000 C    0  0  0  0  0  0  0  0  0  0  0  0
   -1.4583   -2.4875    0.0000 C    0  0  0  0  0  0  0  0  0  0  0  0
    0.6875    3.7000    0.0000 C    0  0  0  0  0  0  0  0  0  0  0  0
    0.6875    2.8750    0.0000 C    0  0  0  0  0  0  0  0  0  0  0  0
   -1.4583   -4.1375    0.0000 C    0  0  0  0  0  0  0  0  0  0  0  0
   -1.4583   -4.9625    0.0000 Cl   0  0  0  0  0  0  0  0  0  0  0  0
   -0.7417   -2.9000    0.0000 C    0  0  0  0  0  0  0  0  0  0  0  0
   -2.1708   -2.9000    0.0000 C    0  0  0  0  0  0  0  0  0  0  0  0
   -0.7417   -3.7250    0.0000 C    0  0  0  0  0  0  0  0  0  0  0  0
   -2.1708   -3.7250    0.0000 C    0  0  0  0  0  0  0  0  0  0  0  0
    0.6875   -1.2500    0.0000 C    0  0  0  0  0  0  0  0  0  0  0  0
    1.4000   -0.0125    0.0000 C    0  0  0  0  0  0  0  0  0  0  0  0
    1.4000   -0.8375    0.0000 C    0  0  0  0  0  0  0  0  0  0  0  0
    2.1167    3.7000    0.0000 C    0  0  0  0  0  0  0  0  0  0  0  0
    2.1167    2.8750    0.0000 C    0  0  0  0  0  0  0  0  0  0  0  0
    1.4000    4.1083    0.0000 C    0  0  0  0  0  0  0  0  0  0  0  0
  2  7  1  0  0  0  0
  3  1  1  0  0  0  0
  4  1  1  0  0  0  0
  5  2  1  0  0  0  0
  6 15  1  0  0  0  0
  7 10  1  0  0  0  0
  8  1  2  0  0  0  0
  9  1  2  0  0  0  0
 10  4  2  0  0  0  0
 11  6  3  0  0  0  0
 12  2  2  0  0  0  0
 13  5  1  0  0  0  0
 14  3  1  0  0  0  0
 15 16  1  0  0  0  0
 16 13  2  0  0  0  0
 17 22  2  0  0  0  0
 18 17  1  0  0  0  0
 19 14  1  0  0  0  0
 20 14  2  0  0  0  0
 21 19  2  0  0  0  0
 21 17  1  0  0  0  0
 22 20  1  0  0  0  0
 23  4  1  0  0  0  0
 24  7  2  0  0  0  0
 24 25  1  0  0  0  0
 25 23  2  0  0  0  0
 26 27  2  0  0  0  0
 27 13  1  0  0  0  0
 28 15  2  0  0  0  0
 28 26  1  0  0  0  0
M  END
> <CdId>
3195

> <Mol Weight>
410.873

> <Formula>
C21H15ClN2O3S

> <Click_ID>
CLK042C05 __ __ 

$$$$
