CLK040B02
 OpenBabel03181410512D

 19 20  0  0  0  0  0  0  0  0999 V2000
   -0.3500   -0.6667    0.0000 C   0  0  0  0  0  0  0  0  0  0  0  0
   -0.3500   -1.4917    0.0000 N   0  3  0  0  0  0  0  0  0  0  0  0
   -1.0667   -0.2542    0.0000 C   0  0  0  0  0  0  0  0  0  0  0  0
    0.3625   -0.2542    0.0000 C   0  0  0  0  0  0  0  0  0  0  0  0
    1.0792    0.9833    0.0000 C   0  0  0  0  0  0  0  0  0  0  0  0
    0.3625    0.5708    0.0000 C   0  0  0  0  0  0  0  0  0  0  0  0
   -1.7792   -0.6667    0.0000 N   0  0  0  0  0  0  0  0  0  0  0  0
    3.2208    0.5708    0.0000 C   0  0  0  0  0  0  0  0  0  0  0  0
   -2.4958   -0.2542    0.0000 C   0  0  0  0  0  0  0  0  0  0  0  0
    3.9375    0.1583    0.0000 C   0  0  0  0  0  0  0  0  0  0  0  0
   -1.0667   -1.9042    0.0000 O   0  5  0  0  0  0  0  0  0  0  0  0
    0.3625   -1.9042    0.0000 O   0  0  0  0  0  0  0  0  0  0  0  0
   -3.3208   -0.2542    0.0000 C   0  0  0  0  0  0  0  0  0  0  0  0
   -2.9083    0.4625    0.0000 C   0  0  0  0  0  0  0  0  0  0  0  0
   -1.0667    0.5708    0.0000 C   0  0  0  0  0  0  0  0  0  0  0  0
    1.0792    1.8083    0.0000 O   0  0  0  0  0  0  0  0  0  0  0  0
   -0.3500    0.9833    0.0000 C   0  0  0  0  0  0  0  0  0  0  0  0
    1.7917    0.5708    0.0000 N   0  0  0  0  0  0  0  0  0  0  0  0
    2.5083    0.9833    0.0000 C   0  0  0  0  0  0  0  0  0  0  0  0
  2  1  1  0  0  0  0
  3  1  2  0  0  0  0
  4  1  1  0  0  0  0
  5  6  1  0  0  0  0
  6  4  2  0  0  0  0
  7  3  1  0  0  0  0
  8 19  1  0  0  0  0
  9  7  1  0  0  0  0
 10  8  3  0  0  0  0
 11  2  1  0  0  0  0
 12  2  2  0  0  0  0
 13  9  1  0  0  0  0
 13 14  1  0  0  0  0
 14  9  1  0  0  0  0
 15  3  1  0  0  0  0
 16  5  2  0  0  0  0
 17 15  2  0  0  0  0
 17  6  1  0  0  0  0
 18  5  1  0  0  0  0
 19 18  1  0  0  0  0
M  END
> <CdId>
3010

> <Mol Weight>
259.2606

> <Formula>
C13H13N3O3

> <Click_ID>
CLK040B02 __ __ 

$$$$
