CLK037E03
 OpenBabel03181410512D

 18 19  0  0  0  0  0  0  0  0999 V2000
   -0.7792    0.3333    0.0000 N   0  0  0  0  0  0  0  0  0  0  0  0
   -0.8625   -0.4875    0.0000 C   0  0  0  0  0  0  0  0  0  0  0  0
   -1.6708   -0.6583    0.0000 N   0  0  0  0  0  0  0  0  0  0  0  0
   -1.5333    0.6667    0.0000 N   0  0  0  0  0  0  0  0  0  0  0  0
   -2.0833    0.0542    0.0000 N   0  0  0  0  0  0  0  0  0  0  0  0
   -0.0625    0.7458    0.0000 C   0  0  0  0  0  0  0  0  0  0  0  0
    0.1917   -2.4000    0.0000 C   0  0  0  0  0  0  0  0  0  0  0  0
    0.8042   -2.9500    0.0000 C   0  0  0  0  0  0  0  0  0  0  0  0
    0.6500    0.3333    0.0000 C   0  0  0  0  0  0  0  0  0  0  0  0
   -0.0625    1.5708    0.0000 C   0  0  0  0  0  0  0  0  0  0  0  0
   -0.2500   -1.0375    0.0000 S   0  0  0  0  0  0  0  0  0  0  0  0
    1.3667    0.7458    0.0000 C   0  0  0  0  0  0  0  0  0  0  0  0
    0.6500    1.9833    0.0000 C   0  0  0  0  0  0  0  0  0  0  0  0
    1.3667    1.5708    0.0000 C   0  0  0  0  0  0  0  0  0  0  0  0
   -0.4208   -1.8458    0.0000 C   0  0  0  0  0  0  0  0  0  0  0  0
    0.6500   -0.4917    0.0000 O   0  0  0  0  0  0  0  0  0  0  0  0
    0.6500    2.8083    0.0000 C   0  0  0  0  0  0  0  0  0  0  0  0
    1.3667   -0.9042    0.0000 C   0  0  0  0  0  0  0  0  0  0  0  0
  2  1  1  0  0  0  0
  3  2  2  0  0  0  0
  3  5  1  0  0  0  0
  4  1  1  0  0  0  0
  5  4  2  0  0  0  0
  6  1  1  0  0  0  0
  7 15  1  0  0  0  0
  8  7  3  0  0  0  0
  9  6  2  0  0  0  0
 10  6  1  0  0  0  0
 11  2  1  0  0  0  0
 12  9  1  0  0  0  0
 13 10  2  0  0  0  0
 13 14  1  0  0  0  0
 14 12  2  0  0  0  0
 15 11  1  0  0  0  0
 16  9  1  0  0  0  0
 17 13  1  0  0  0  0
 18 16  1  0  0  0  0
M  END
> <CdId>
2781

> <Mol Weight>
260.315

> <Formula>
C12H12N4OS

> <Click_ID>
CLK037E03 __ __ 

$$$$
