CLK006_B06
 OpenBabel03181410512D

 25 27  0  0  0  0  0  0  0  0999 V2000
    4.4895   -6.2022    0.0000 C   0  0  0  0  0  0  0  0  0  0  0  0
    3.7454   -5.8655    0.0000 N   0  0  0  0  0  0  0  0  0  0  0  0
    4.4064   -7.0169    0.0000 N   0  0  0  0  0  0  0  0  0  0  0  0
    3.5999   -7.1915    0.0000 C   0  0  0  0  0  0  0  0  0  0  0  0
    3.1883   -6.4806    0.0000 C   0  0  0  0  0  0  0  0  0  0  0  0
    4.8594   -8.3637    0.0000 C   0  0  0  0  0  0  0  0  0  0  0  0
    4.6973   -9.1702    0.0000 C   0  0  0  0  0  0  0  0  0  0  0  0
    6.6345   -4.9592    0.0000 C   0  0  0  0  0  0  0  0  0  0  0  0
    5.2086   -5.7865    0.0000 C   0  0  0  0  0  0  0  0  0  0  0  0
    5.9194   -4.5477    0.0000 C   0  0  0  0  0  0  0  0  0  0  0  0
    5.2086   -4.9592    0.0000 O   0  0  0  0  0  0  0  0  0  0  0  0
    7.3495   -4.5477    0.0000 C   0  0  0  0  0  0  0  0  0  0  0  0
    5.0215   -7.5615    0.0000 C   0  0  0  0  0  0  0  0  0  0  0  0
    5.9194   -3.7205    0.0000 C   0  0  0  0  0  0  0  0  0  0  0  0
    8.0769   -2.4734    0.0000 C   0  0  0  0  0  0  0  0  0  0  0  0
    8.7836   -2.0619    0.0000 C   0  0  0  0  0  0  0  0  0  0  0  0
    7.3495   -3.7205    0.0000 C   0  0  0  0  0  0  0  0  0  0  0  0
    6.6303   -3.3090    0.0000 C   0  0  0  0  0  0  0  0  0  0  0  0
    6.6345   -5.7823    0.0000 O   0  0  0  0  0  0  0  0  0  0  0  0
    3.1883   -7.9065    0.0000 C   0  0  0  0  0  0  0  0  0  0  0  0
    2.3612   -6.4806    0.0000 C   0  0  0  0  0  0  0  0  0  0  0  0
    8.0728   -3.3048    0.0000 C   0  0  0  0  0  0  0  0  0  0  0  0
    7.3453   -6.1938    0.0000 C   0  0  0  0  0  0  0  0  0  0  0  0
    2.3612   -7.9065    0.0000 C   0  0  0  0  0  0  0  0  0  0  0  0
    1.9496   -7.1915    0.0000 C   0  0  0  0  0  0  0  0  0  0  0  0
  2  1  2  0  0  0  0
  3  1  1  0  0  0  0
  4  3  1  0  0  0  0
  5  2  1  0  0  0  0
  5  4  1  0  0  0  0
  6 13  1  0  0  0  0
  7  6  3  0  0  0  0
  8 10  2  0  0  0  0
  9  1  1  0  0  0  0
 10 11  1  0  0  0  0
 11  9  1  0  0  0  0
 12  8  1  0  0  0  0
 13  3  1  0  0  0  0
 14 10  1  0  0  0  0
 15 22  1  0  0  0  0
 16 15  2  0  0  0  0
 17 18  1  0  0  0  0
 17 12  2  0  0  0  0
 18 14  2  0  0  0  0
 19  8  1  0  0  0  0
 20  4  2  0  0  0  0
 21  5  2  0  0  0  0
 22 17  1  0  0  0  0
 23 19  1  0  0  0  0
 24 20  1  0  0  0  0
 25 21  1  0  0  0  0
 25 24  2  0  0  0  0
M  END
> <CdId>
415

> <Mol Weight>
332.3957

> <Formula>
C21H20N2O2

> <Click_ID>
CLK006_B06 __ __ 

$$$$
