CLK027_B03
 OpenBabel03181410512D

 26 27  0  0  0  0  0  0  0  0999 V2000
   -1.9765   -0.4469    0.0000 N    0  0  0  0  0  0  0  0  0  0  0  0
   -2.3925   -1.1653    0.0000 C    0  0  0  0  0  0  0  0  0  0  0  0
   -1.1688   -0.6222    0.0000 C    0  0  0  0  0  0  0  0  0  0  0  0
   -1.0897   -1.4403    0.0000 C    0  0  0  0  0  0  0  0  0  0  0  0
   -1.8391   -1.7772    0.0000 S    0  0  0  0  0  0  0  0  0  0  0  0
    1.7737   -0.6084    0.0000 C    0  0  0  0  0  0  0  0  0  0  0  0
   -0.3712   -1.8562    0.0000 C    0  0  0  0  0  0  0  0  0  0  0  0
    1.7737   -1.4437    0.0000 C    0  0  0  0  0  0  0  0  0  0  0  0
    1.0656   -0.1994    0.0000 C    0  0  0  0  0  0  0  0  0  0  0  0
    0.3300   -1.4334    0.0000 C    0  0  0  0  0  0  0  0  0  0  0  0
   -1.8253    0.9659    0.0000 C    0  0  0  0  0  0  0  0  0  0  0  0
   -1.3784    1.6638    0.0000 C    0  0  0  0  0  0  0  0  0  0  0  0
    2.4853   -0.1994    0.0000 O    0  0  0  0  0  0  0  0  0  0  0  0
   -3.2106   -1.2443    0.0000 O    0  0  0  0  0  0  0  0  0  0  0  0
    1.0622   -1.8562    0.0000 C    0  0  0  0  0  0  0  0  0  0  0  0
    0.3403   -0.6084    0.0000 C    0  0  0  0  0  0  0  0  0  0  0  0
   -0.5672   -0.0619    0.0000 O    0  0  0  0  0  0  0  0  0  0  0  0
   -2.3100    0.2991    0.0000 C    0  0  0  0  0  0  0  0  0  0  0  0
    2.4853   -1.8562    0.0000 Cl   0  0  0  0  0  0  0  0  0  0  0  0
    1.0656    0.6153    0.0000 O    0  0  0  0  0  0  0  0  0  0  0  0
    2.4853    0.6256    0.0000 C    0  0  3  0  0  0  0  0  0  0  0  0
    0.3506    1.0347    0.0000 C    0  0  0  0  0  0  0  0  0  0  0  0
    3.2072    1.0347    0.0000 C    0  0  0  0  0  0  0  0  0  0  0  0
    1.7772    1.0347    0.0000 C    0  0  0  0  0  0  0  0  0  0  0  0
    0.3541    1.8597    0.0000 C    0  0  0  0  0  0  0  0  0  0  0  0
    3.2072    1.8597    0.0000 C    0  0  0  0  0  0  0  0  0  0  0  0
  2  1  1  0  0  0  0
  3  1  1  0  0  0  0
  4  3  1  0  0  0  0
  5  2  1  0  0  0  0
  5  4  1  0  0  0  0
  6  9  2  0  0  0  0
  7  4  2  0  0  0  0
  8 15  2  0  0  0  0
  8  6  1  0  0  0  0
  9 16  1  0  0  0  0
 10  7  1  0  0  0  0
 11 18  1  0  0  0  0
 12 11  3  0  0  0  0
 13  6  1  0  0  0  0
 14  2  2  0  0  0  0
 15 10  1  0  0  0  0
 16 10  2  0  0  0  0
 17  3  2  0  0  0  0
 18  1  1  0  0  0  0
 19  8  1  0  0  0  0
 20  9  1  0  0  0  0
 21 13  1  0  0  0  0
 22 20  1  0  0  0  0
 23 21  1  0  0  0  0
 24 21  1  0  0  0  0
 25 22  1  0  0  0  0
 26 23  1  0  0  0  0
M  END
> <CdId>
2027

> <Mol Weight>
393.884

> <Formula>
C19H20ClNO4S

> <Click_ID>
CLK027_B03 __ __ 

$$$$
