CLK042H07
 OpenBabel03181410512D

 23 24  0  0  0  0  0  0  0  0999 V2000
   -0.2208    2.2792    0.0000 S   0  0  0  0  0  0  0  0  0  0  0  0
   -0.2208    1.4542    0.0000 C   0  0  0  0  0  0  0  0  0  0  0  0
    0.4958    4.3375    0.0000 C   0  0  0  0  0  0  0  0  0  0  0  0
    0.4958    5.1625    0.0000 C   0  0  0  0  0  0  0  0  0  0  0  0
   -1.0458    2.2792    0.0000 O   0  0  0  0  0  0  0  0  0  0  0  0
    0.6042    2.2792    0.0000 O   0  0  0  0  0  0  0  0  0  0  0  0
    0.4958   -3.9083    0.0000 C   0  0  0  0  0  0  0  0  0  0  0  0
   -0.2208    3.1042    0.0000 N   0  0  0  0  0  0  0  0  0  0  0  0
   -0.2208   -3.4958    0.0000 N   0  0  0  0  0  0  0  0  0  0  0  0
   -0.2208   -0.1958    0.0000 C   0  0  0  0  0  0  0  0  0  0  0  0
   -0.2208   -1.0208    0.0000 C   0  0  0  0  0  0  0  0  0  0  0  0
    0.4958   -4.7333    0.0000 O   0  0  0  0  0  0  0  0  0  0  0  0
    0.4958    1.0417    0.0000 C   0  0  0  0  0  0  0  0  0  0  0  0
   -0.9333    1.0417    0.0000 C   0  0  0  0  0  0  0  0  0  0  0  0
    0.4958    0.2167    0.0000 C   0  0  0  0  0  0  0  0  0  0  0  0
   -0.9333    0.2167    0.0000 C   0  0  0  0  0  0  0  0  0  0  0  0
    0.4958   -1.4333    0.0000 C   0  0  0  0  0  0  0  0  0  0  0  0
   -0.9333   -1.4333    0.0000 C   0  0  0  0  0  0  0  0  0  0  0  0
   -0.2208   -2.6708    0.0000 C   0  0  0  0  0  0  0  0  0  0  0  0
    0.4958   -2.2583    0.0000 C   0  0  0  0  0  0  0  0  0  0  0  0
   -0.9333   -2.2583    0.0000 C   0  0  0  0  0  0  0  0  0  0  0  0
    0.4958    3.5167    0.0000 C   0  0  0  0  0  0  0  0  0  0  0  0
    1.2083   -3.4958    0.0000 C   0  0  0  0  0  0  0  0  0  0  0  0
  2  1  1  0  0  0  0
  3 22  1  0  0  0  0
  4  3  3  0  0  0  0
  5  1  2  0  0  0  0
  6  1  2  0  0  0  0
  7  9  1  0  0  0  0
  8  1  1  0  0  0  0
  9 19  1  0  0  0  0
 10 16  2  0  0  0  0
 11 10  1  0  0  0  0
 12  7  2  0  0  0  0
 13  2  1  0  0  0  0
 14  2  2  0  0  0  0
 15 13  2  0  0  0  0
 15 10  1  0  0  0  0
 16 14  1  0  0  0  0
 17 11  1  0  0  0  0
 18 11  2  0  0  0  0
 19 21  2  0  0  0  0
 20 17  2  0  0  0  0
 20 19  1  0  0  0  0
 21 18  1  0  0  0  0
 22  8  1  0  0  0  0
 23  7  1  0  0  0  0
M  END
> <CdId>
3216

> <Mol Weight>
328.386

> <Formula>
C17H16N2O3S

> <Click_ID>
CLK042H07 __ __ 

$$$$
