CLK012_F11
 OpenBabel03181410512D

 20 22  0  0  0  0  0  0  0  0999 V2000
    1.6140   -0.8414    0.0000 N   0  0  0  0  0  0  0  0  0  0  0  0
    1.8801   -1.6526    0.0000 C   0  0  0  0  0  0  0  0  0  0  0  0
    2.3051   -0.3391    0.0000 C   0  0  0  0  0  0  0  0  0  0  0  0
    2.9919   -0.8414    0.0000 C   0  0  0  0  0  0  0  0  0  0  0  0
    2.7300   -1.6526    0.0000 S   0  0  0  0  0  0  0  0  0  0  0  0
    3.8032   -0.5795    0.0000 C   0  0  0  0  0  0  0  0  0  0  0  0
    4.9192    1.1933    0.0000 C   0  0  0  0  0  0  0  0  0  0  0  0
    0.6310    0.2532    0.0000 C   0  0  0  0  0  0  0  0  0  0  0  0
    0.4035    1.0774    0.0000 C   0  0  0  0  0  0  0  0  0  0  0  0
    1.3779   -2.3352    0.0000 O   0  0  0  0  0  0  0  0  0  0  0  0
    4.2882    1.6998    0.0000 C   0  0  0  0  0  0  0  0  0  0  0  0
    5.6060    1.6354    0.0000 O   0  0  0  0  0  0  0  0  0  0  0  0
    2.2965    0.5108    0.0000 O   0  0  0  0  0  0  0  0  0  0  0  0
    3.9791    0.2447    0.0000 C   0  0  0  0  0  0  0  0  0  0  0  0
    4.5887    2.4682    0.0000 O   0  0  0  0  0  0  0  0  0  0  0  0
    0.8113   -0.5795    0.0000 C   0  0  0  0  0  0  0  0  0  0  0  0
    5.4000    2.4295    0.0000 C   0  0  0  0  0  0  0  0  0  0  0  0
    4.7690    0.4593    0.0000 C   0  0  0  0  0  0  0  0  0  0  0  0
    3.5070    1.5023    0.0000 C   0  0  0  0  0  0  0  0  0  0  0  0
    3.3481    0.7683    0.0000 C   0  0  0  0  0  0  0  0  0  0  0  0
  2  1  1  0  0  0  0
  3  1  1  0  0  0  0
  4  3  1  0  0  0  0
  4  5  1  0  0  0  0
  5  2  1  0  0  0  0
  6  4  2  0  0  0  0
  7 18  2  0  0  0  0
  7 11  1  0  0  0  0
  8 16  1  0  0  0  0
  9  8  3  0  0  0  0
 10  2  2  0  0  0  0
 11 19  2  0  0  0  0
 12  7  1  0  0  0  0
 13  3  2  0  0  0  0
 14  6  1  0  0  0  0
 15 11  1  0  0  0  0
 15 17  1  0  0  0  0
 16  1  1  0  0  0  0
 17 12  1  0  0  0  0
 18 14  1  0  0  0  0
 19 20  1  0  0  0  0
 20 14  2  0  0  0  0
M  END
> <CdId>
896

> <Mol Weight>
287.291

> <Formula>
C14H9NO4S

> <Click_ID>
CLK012_F11 __ __ 

$$$$
