CLK036_C03
 OpenBabel03181410512D

 16 17  0  0  0  0  0  0  0  0999 V2000
   -3.2661    7.3109    0.0000 N   0  0  0  0  0  0  0  0  0  0  0  0
   -2.5515    6.8987    0.0000 C   0  0  0  0  0  0  0  0  0  0  0  0
   -3.9807    6.8987    0.0000 C   0  0  0  0  0  0  0  0  0  0  0  0
   -2.5515    6.0741    0.0000 N   0  0  0  0  0  0  0  0  0  0  0  0
   -3.9807    6.0741    0.0000 N   0  0  0  0  0  0  0  0  0  0  0  0
   -3.2661    5.6619    0.0000 C   0  0  0  0  0  0  0  0  0  0  0  0
   -1.8369    7.3109    0.0000 C   0  0  0  0  0  0  0  0  0  0  0  0
   -3.2661    8.1355    0.0000 C   0  0  0  0  0  0  0  0  0  0  0  0
   -2.5515    3.6005    0.0000 C   0  0  0  0  0  0  0  0  0  0  0  0
   -2.5515    2.7760    0.0000 C   0  0  0  0  0  0  0  0  0  0  0  0
   -4.6953    7.3156    0.0000 O   0  0  0  0  0  0  0  0  0  0  0  0
   -2.5515    8.5478    0.0000 C   0  0  0  0  0  0  0  0  0  0  0  0
   -1.8369    8.1355    0.0000 C   0  0  0  0  0  0  0  0  0  0  0  0
   -3.2661    4.8373    0.0000 S   0  0  0  0  0  0  0  0  0  0  0  0
   -2.5515    4.4297    0.0000 C   0  0  0  0  0  0  0  0  0  0  0  0
   -1.1223    6.8895    0.0000 C   0  0  0  0  0  0  0  0  0  0  0  0
  2  1  1  0  0  0  0
  3  1  1  0  0  0  0
  4  2  2  0  0  0  0
  4  6  1  0  0  0  0
  5  3  1  0  0  0  0
  6  5  2  0  0  0  0
  7  2  1  0  0  0  0
  8  1  1  0  0  0  0
  9 15  1  0  0  0  0
 10  9  3  0  0  0  0
 11  3  2  0  0  0  0
 12  8  2  0  0  0  0
 13 12  1  0  0  0  0
 13  7  2  0  0  0  0
 14  6  1  0  0  0  0
 15 14  1  0  0  0  0
 16  7  1  0  0  0  0
M  END
> <CdId>
2739

> <Mol Weight>
231.274

> <Formula>
C11H9N3OS

> <Click_ID>
CLK036_C03 __ __ 

$$$$
