CLK043H10
 OpenBabel03181410512D

 29 32  0  0  0  0  0  0  0  0999 V2000
   -0.6289    0.3081    0.0000 N    0  0  0  0  0  0  0  0  0  0  0  0
   -0.6289   -0.5164    0.0000 N    0  0  0  0  0  0  0  0  0  0  0  0
   -1.4116    0.5664    0.0000 C    0  0  3  0  0  0  0  0  0  0  0  0
   -1.4116   -0.7704    0.0000 C    0  0  0  0  0  0  0  0  0  0  0  0
   -1.8989   -0.1041    0.0000 C    0  0  0  0  0  0  0  0  0  0  0  0
    0.0375    0.7953    0.0000 C    0  0  0  0  0  0  0  0  0  0  0  0
   -1.6657    1.3492    0.0000 C    0  0  0  0  0  0  0  0  0  0  0  0
    4.3015    1.2409    0.0000 C    0  0  0  0  0  0  0  0  0  0  0  0
    4.9678    1.7282    0.0000 C    0  0  0  0  0  0  0  0  0  0  0  0
   -1.6657   -1.5533    0.0000 C    0  0  0  0  0  0  0  0  0  0  0  0
   -2.4527    1.6032    0.0000 O    0  0  0  0  0  0  0  0  0  0  0  0
    0.7912    0.4580    0.0000 C    0  0  0  0  0  0  0  0  0  0  0  0
   -0.0458    1.6157    0.0000 O    0  0  0  0  0  0  0  0  0  0  0  0
   -1.1826    2.0155    0.0000 C    0  0  0  0  0  0  0  0  0  0  0  0
    1.4574    0.9452    0.0000 N    0  0  0  0  0  0  0  0  0  0  0  0
   -2.4527    2.4277    0.0000 C    0  0  0  0  0  0  0  0  0  0  0  0
   -1.6657    2.6816    0.0000 C    0  0  0  0  0  0  0  0  0  0  0  0
   -1.1160   -2.1654    0.0000 C    0  0  0  0  0  0  0  0  0  0  0  0
   -2.4734   -1.7240    0.0000 C    0  0  0  0  0  0  0  0  0  0  0  0
    3.6311    0.7579    0.0000 C    0  0  0  0  0  0  0  0  0  0  0  0
    2.2112    0.6080    0.0000 C    0  0  0  0  0  0  0  0  0  0  0  0
   -2.1779   -3.1231    0.0000 C    0  0  0  0  0  0  0  0  0  0  0  0
    2.8774    1.0951    0.0000 C    0  0  0  0  0  0  0  0  0  0  0  0
   -2.7275   -2.5109    0.0000 C    0  0  0  0  0  0  0  0  0  0  0  0
   -1.3700   -2.9482    0.0000 C    0  0  0  0  0  0  0  0  0  0  0  0
   -2.4318   -3.9059    0.0000 Cl   0  0  0  0  0  0  0  0  0  0  0  0
    3.0523   -0.5455    0.0000 C    0  0  0  0  0  0  0  0  0  0  0  0
    3.7186   -0.0625    0.0000 C    0  0  0  0  0  0  0  0  0  0  0  0
    2.2986   -0.2124    0.0000 C    0  0  0  0  0  0  0  0  0  0  0  0
  2  1  1  0  0  0  0
  3  1  1  0  0  0  0
  4  2  2  0  0  0  0
  5  3  1  0  0  0  0
  5  4  1  0  0  0  0
  6  1  1  0  0  0  0
  7  3  1  0  0  0  0
  8 20  1  0  0  0  0
  9  8  3  0  0  0  0
 10  4  1  0  0  0  0
 11  7  1  0  0  0  0
 12  6  1  0  0  0  0
 13  6  2  0  0  0  0
 14  7  2  0  0  0  0
 15 12  1  0  0  0  0
 16 11  1  0  0  0  0
 16 17  2  0  0  0  0
 17 14  1  0  0  0  0
 18 10  1  0  0  0  0
 19 10  2  0  0  0  0
 20 23  1  0  0  0  0
 21 15  1  0  0  0  0
 22 24  2  0  0  0  0
 23 21  2  0  0  0  0
 24 19  1  0  0  0  0
 25 18  2  0  0  0  0
 25 22  1  0  0  0  0
 26 22  1  0  0  0  0
 27 29  2  0  0  0  0
 28 20  2  0  0  0  0
 28 27  1  0  0  0  0
 29 21  1  0  0  0  0
M  END
> <CdId>
3320

> <Mol Weight>
403.861

> <Formula>
C23H18ClN3O2

> <Click_ID>
CLK043H10 __ __ 

$$$$
