CLK005_G08
 OpenBabel03181410512D

 16 18  0  0  0  0  0  0  0  0999 V2000
   -0.8528    0.8485    0.0000 C   0  0  0  0  0  0  0  0  0  0  0  0
    0.5841    0.8485    0.0000 C   0  0  0  0  0  0  0  0  0  0  0  0
   -0.8528    0.0341    0.0000 C   0  0  0  0  0  0  0  0  0  0  0  0
   -1.5691    1.2578    0.0000 C   0  0  0  0  0  0  0  0  0  0  0  0
    0.5841    0.0341    0.0000 C   0  0  0  0  0  0  0  0  0  0  0  0
    1.2919    1.2578    0.0000 C   0  0  0  0  0  0  0  0  0  0  0  0
   -0.1322   -0.3710    0.0000 N   0  0  0  0  0  0  0  0  0  0  0  0
   -1.5691   -0.3710    0.0000 C   0  0  0  0  0  0  0  0  0  0  0  0
   -2.2940    0.8485    0.0000 C   0  0  0  0  0  0  0  0  0  0  0  0
    1.2919   -0.3710    0.0000 C   0  0  0  0  0  0  0  0  0  0  0  0
    2.0168    0.8485    0.0000 C   0  0  0  0  0  0  0  0  0  0  0  0
   -0.1322   -1.2238    0.0000 C   0  0  0  0  0  0  0  0  0  0  0  0
   -2.2940    0.0341    0.0000 C   0  0  0  0  0  0  0  0  0  0  0  0
    2.0168    0.0341    0.0000 C   0  0  0  0  0  0  0  0  0  0  0  0
    0.5927   -1.6501    0.0000 C   0  0  0  0  0  0  0  0  0  0  0  0
    1.3260   -2.0680    0.0000 C   0  0  0  0  0  0  0  0  0  0  0  0
  1  2  1  0  0  0  0
  1  3  2  0  0  0  0
  1  4  1  0  0  0  0
  2  5  2  0  0  0  0
  2  6  1  0  0  0  0
  3  7  1  0  0  0  0
  3  8  1  0  0  0  0
  4  9  2  0  0  0  0
  5 10  1  0  0  0  0
  5  7  1  0  0  0  0
  6 11  2  0  0  0  0
  7 12  1  0  0  0  0
  8 13  2  0  0  0  0
  9 13  1  0  0  0  0
 10 14  2  0  0  0  0
 11 14  1  0  0  0  0
 12 15  1  0  0  0  0
 15 16  3  0  0  0  0
M  END
> <CdId>
387

> <Mol Weight>
205.2545

> <Formula>
C15H11N

> <Click_ID>
CLK005_G08 __ __ 

$$$$
