CLK014_D09
 OpenBabel03181410512D

 20 21  0  0  0  0  0  0  0  0999 V2000
    2.6224    0.4217    0.0000 N   0  0  0  0  0  0  0  0  0  0  0  0
    2.8813   -0.3675    0.0000 C   0  0  0  0  0  0  0  0  0  0  0  0
    3.9629    0.4217    0.0000 C   0  0  0  0  0  0  0  0  0  0  0  0
    3.2947    0.9020    0.0000 C   0  0  0  0  0  0  0  0  0  0  0  0
    3.7081   -0.3675    0.0000 N   0  0  0  0  0  0  0  0  0  0  0  0
    4.7521    0.6723    0.0000 C   0  0  0  0  0  0  0  0  0  0  0  0
    6.3932    4.9400    0.0000 C   0  0  0  0  0  0  0  0  0  0  0  0
    6.5685    5.7417    0.0000 C   0  0  0  0  0  0  0  0  0  0  0  0
    4.4765    2.8395    0.0000 C   0  0  0  0  0  0  0  0  0  0  0  0
    4.9149    1.4782    0.0000 C   0  0  0  0  0  0  0  0  0  0  0  0
    2.3844   -1.0398    0.0000 O   0  0  0  0  0  0  0  0  0  0  0  0
    3.2864    1.7288    0.0000 O   0  0  0  0  0  0  0  0  0  0  0  0
    4.3011    2.0294    0.0000 C   0  0  0  0  0  0  0  0  0  0  0  0
    5.2532    3.0900    0.0000 C   0  0  0  0  0  0  0  0  0  0  0  0
    5.8670    2.5388    0.0000 C   0  0  0  0  0  0  0  0  0  0  0  0
    5.6916    1.7288    0.0000 C   0  0  0  0  0  0  0  0  0  0  0  0
    3.8752    3.3824    0.0000 O   0  0  0  0  0  0  0  0  0  0  0  0
    5.4369    3.8918    0.0000 O   0  0  0  0  0  0  0  0  0  0  0  0
    6.2136    4.1340    0.0000 C   0  0  0  0  0  0  0  0  0  0  0  0
    3.0985    3.1402    0.0000 C   0  0  0  0  0  0  0  0  0  0  0  0
  2  1  1  0  0  0  0
  3  4  1  0  0  0  0
  4  1  1  0  0  0  0
  5  2  1  0  0  0  0
  5  3  1  0  0  0  0
  6  3  2  0  0  0  0
  7 19  1  0  0  0  0
  8  7  3  0  0  0  0
  9 13  1  0  0  0  0
  9 14  2  0  0  0  0
 10  6  1  0  0  0  0
 11  2  2  0  0  0  0
 12  4  2  0  0  0  0
 13 10  2  0  0  0  0
 14 15  1  0  0  0  0
 15 16  2  0  0  0  0
 16 10  1  0  0  0  0
 17  9  1  0  0  0  0
 18 14  1  0  0  0  0
 19 18  1  0  0  0  0
 20 17  1  0  0  0  0
M  END
> <CdId>
1034

> <Mol Weight>
272.2561

> <Formula>
C14H12N2O4

> <Click_ID>
CLK014_D09 __ __ 

$$$$
