CLK026_B05
 OpenBabel03181410512D

 26 28  0  0  0  0  0  0  0  0999 V2000
   -2.7395   -0.8469    0.0000 N   0  0  0  0  0  0  0  0  0  0  0  0
   -2.3211   -1.5566    0.0000 C   0  0  0  0  0  0  0  0  0  0  0  0
   -1.4365   -0.5725    0.0000 C   0  0  0  0  0  0  0  0  0  0  0  0
   -2.1806   -0.2366    0.0000 C   0  0  0  0  0  0  0  0  0  0  0  0
   -1.5223   -1.3851    0.0000 S   0  0  0  0  0  0  0  0  0  0  0  0
   -0.7200   -0.1611    0.0000 C   0  0  0  0  0  0  0  0  0  0  0  0
   -3.8845   -0.0035    0.0000 C   0  0  0  0  0  0  0  0  0  0  0  0
   -0.7132    0.6651    0.0000 C   0  0  0  0  0  0  0  0  0  0  0  0
   -4.2617    0.7303    0.0000 C   0  0  0  0  0  0  0  0  0  0  0  0
   -2.6572   -2.3040    0.0000 O   0  0  0  0  0  0  0  0  0  0  0  0
   -2.3589    0.5657    0.0000 O   0  0  0  0  0  0  0  0  0  0  0  0
   -3.5486   -0.7577    0.0000 C   0  0  0  0  0  0  0  0  0  0  0  0
   -0.0068    1.0697    0.0000 C   0  0  0  0  0  0  0  0  0  0  0  0
    0.7029    0.6548    0.0000 O   0  0  0  0  0  0  0  0  0  0  0  0
    1.4229    1.0629    0.0000 C   0  0  0  0  0  0  0  0  0  0  0  0
    3.5486   -0.2023    0.0000 C   0  0  0  0  0  0  0  0  0  0  0  0
    2.1326    0.6412    0.0000 C   0  0  0  0  0  0  0  0  0  0  0  0
    4.2583   -0.6274    0.0000 F   0  0  0  0  0  0  0  0  0  0  0  0
    2.8286   -0.6000    0.0000 C   0  0  0  0  0  0  0  0  0  0  0  0
    3.5589    0.6171    0.0000 C   0  0  0  0  0  0  0  0  0  0  0  0
    2.8491    1.0423    0.0000 C   0  0  0  0  0  0  0  0  0  0  0  0
    2.1189   -0.1920    0.0000 C   0  0  0  0  0  0  0  0  0  0  0  0
   -1.4263    1.0800    0.0000 C   0  0  0  0  0  0  0  0  0  0  0  0
    0.0035    1.8960    0.0000 C   0  0  0  0  0  0  0  0  0  0  0  0
   -1.4229    1.9029    0.0000 C   0  0  0  0  0  0  0  0  0  0  0  0
   -0.7029    2.3075    0.0000 C   0  0  0  0  0  0  0  0  0  0  0  0
  2  1  1  0  0  0  0
  3  4  1  0  0  0  0
  4  1  1  0  0  0  0
  5  2  1  0  0  0  0
  5  3  1  0  0  0  0
  6  3  2  0  0  0  0
  7 12  1  0  0  0  0
  8  6  1  0  0  0  0
  9  7  3  0  0  0  0
 10  2  2  0  0  0  0
 11  4  2  0  0  0  0
 12  1  1  0  0  0  0
 13  8  1  0  0  0  0
 14 13  1  0  0  0  0
 15 14  1  0  0  0  0
 16 19  2  0  0  0  0
 16 20  1  0  0  0  0
 17 15  1  0  0  0  0
 18 16  1  0  0  0  0
 19 22  1  0  0  0  0
 20 21  2  0  0  0  0
 21 17  1  0  0  0  0
 22 17  2  0  0  0  0
 23  8  2  0  0  0  0
 24 13  2  0  0  0  0
 25 23  1  0  0  0  0
 26 25  2  0  0  0  0
 26 24  1  0  0  0  0
M  END
> <CdId>
1950

> <Mol Weight>
367.393

> <Formula>
C20H14FNO3S

> <Click_ID>
CLK026_B05 __ __ 

$$$$
