CLK019_G04
 OpenBabel03181410512D

 18 19  0  0  0  0  0  0  0  0999 V2000
    1.7293   -0.7258    0.0000 C   0  0  0  0  0  0  0  0  0  0  0  0
    1.0749   -1.2018    0.0000 O   0  0  0  0  0  0  0  0  0  0  0  0
    3.1571    0.1031    0.0000 N   0  3  0  0  0  0  0  0  0  0  0  0
    2.3956   -1.2137    0.0000 N   0  0  0  0  0  0  0  0  0  0  0  0
    1.7293    0.1031    0.0000 C   0  0  0  0  0  0  0  0  0  0  0  0
    2.1576   -1.9990    0.0000 N   0  0  0  0  0  0  0  0  0  0  0  0
    1.3326   -2.0030    0.0000 C   0  0  0  0  0  0  0  0  0  0  0  0
    2.4432    0.5076    0.0000 C   0  0  0  0  0  0  0  0  0  0  0  0
    0.6941   -4.0852    0.0000 C   0  0  0  0  0  0  0  0  0  0  0  0
   -0.1269   -3.9900    0.0000 C   0  0  0  0  0  0  0  0  0  0  0  0
    3.1571   -0.7258    0.0000 O   0  5  0  0  0  0  0  0  0  0  0  0
    3.8710    0.5116    0.0000 O   0  0  0  0  0  0  0  0  0  0  0  0
    0.8488   -2.6693    0.0000 S   0  0  0  0  0  0  0  0  0  0  0  0
    1.0154    0.5076    0.0000 C   0  0  0  0  0  0  0  0  0  0  0  0
    1.1820   -3.4189    0.0000 C   0  0  0  0  0  0  0  0  0  0  0  0
    2.4432    1.3405    0.0000 C   0  0  0  0  0  0  0  0  0  0  0  0
    1.0154    1.3326    0.0000 C   0  0  0  0  0  0  0  0  0  0  0  0
    1.7293    1.7451    0.0000 C   0  0  0  0  0  0  0  0  0  0  0  0
  2  1  1  0  0  0  0
  3  8  1  0  0  0  0
  4  1  2  0  0  0  0
  5  1  1  0  0  0  0
  6  4  1  0  0  0  0
  6  7  2  0  0  0  0
  7  2  1  0  0  0  0
  8  5  2  0  0  0  0
  9 15  1  0  0  0  0
 10  9  3  0  0  0  0
 11  3  1  0  0  0  0
 12  3  2  0  0  0  0
 13  7  1  0  0  0  0
 14  5  1  0  0  0  0
 15 13  1  0  0  0  0
 16  8  1  0  0  0  0
 16 18  2  0  0  0  0
 17 14  2  0  0  0  0
 18 17  1  0  0  0  0
M  END
> <CdId>
1459

> <Mol Weight>
261.257

> <Formula>
C11H7N3O3S

> <Click_ID>
CLK019_G04 __ __ 

$$$$
