CLK006_H07
 OpenBabel03181410512D

 23 26  0  0  0  0  0  0  0  0999 V2000
   -0.5954    0.1136    0.0000 C   0  0  0  0  0  0  0  0  0  0  0  0
    0.1205   -0.2960    0.0000 N   0  0  0  0  0  0  0  0  0  0  0  0
   -1.3077   -0.2960    0.0000 C   0  0  0  0  0  0  0  0  0  0  0  0
   -0.4199    0.9189    0.0000 N   0  0  0  0  0  0  0  0  0  0  0  0
    0.1205   -1.1219    0.0000 C   0  0  0  0  0  0  0  0  0  0  0  0
    0.7330    0.2547    0.0000 N   0  0  0  0  0  0  0  0  0  0  0  0
   -1.3077   -1.1219    0.0000 C   0  0  0  0  0  0  0  0  0  0  0  0
   -2.0167    0.1136    0.0000 C   0  0  0  0  0  0  0  0  0  0  0  0
    0.3958    1.0014    0.0000 C   0  0  0  0  0  0  0  0  0  0  0  0
   -0.5954   -1.5315    0.0000 N   0  0  0  0  0  0  0  0  0  0  0  0
    0.8397   -1.5452    0.0000 S   0  0  0  0  0  0  0  0  0  0  0  0
   -2.0167   -1.5315    0.0000 C   0  0  0  0  0  0  0  0  0  0  0  0
   -2.7360   -0.2960    0.0000 C   0  0  0  0  0  0  0  0  0  0  0  0
    0.7675    1.7380    0.0000 C   0  0  0  0  0  0  0  0  0  0  0  0
    0.8328   -2.3677    0.0000 C   0  0  0  0  0  0  0  0  0  0  0  0
   -2.7360   -1.1219    0.0000 C   0  0  0  0  0  0  0  0  0  0  0  0
    1.5934    1.7793    0.0000 C   0  0  0  0  0  0  0  0  0  0  0  0
    0.3201    2.4228    0.0000 C   0  0  0  0  0  0  0  0  0  0  0  0
    1.5417   -2.7807    0.0000 C   0  0  0  0  0  0  0  0  0  0  0  0
    1.9754    2.5088    0.0000 C   0  0  0  0  0  0  0  0  0  0  0  0
    0.7020    3.1592    0.0000 C   0  0  0  0  0  0  0  0  0  0  0  0
    2.2645   -3.2006    0.0000 C   0  0  0  0  0  0  0  0  0  0  0  0
    1.5246    3.2006    0.0000 C   0  0  0  0  0  0  0  0  0  0  0  0
  1  2  1  0  0  0  0
  1  3  1  0  0  0  0
  1  4  2  0  0  0  0
  2  5  1  0  0  0  0
  2  6  1  0  0  0  0
  3  7  1  0  0  0  0
  3  8  2  0  0  0  0
  4  9  1  0  0  0  0
  5 10  2  0  0  0  0
  5 11  1  0  0  0  0
  6  9  2  0  0  0  0
  7 12  2  0  0  0  0
  7 10  1  0  0  0  0
  8 13  1  0  0  0  0
  9 14  1  0  0  0  0
 11 15  1  0  0  0  0
 12 16  1  0  0  0  0
 13 16  2  0  0  0  0
 14 17  2  0  0  0  0
 14 18  1  0  0  0  0
 15 19  1  0  0  0  0
 17 20  1  0  0  0  0
 18 21  2  0  0  0  0
 19 22  3  0  0  0  0
 20 23  2  0  0  0  0
 21 23  1  0  0  0  0
M  END
> <CdId>
476

> <Mol Weight>
316.38

> <Formula>
C18H12N4S

> <Click_ID>
CLK006_H07 __ __ 

$$$$
