CLK002_A04
 OpenBabel03181410512D

 29 32  0  0  0  0  0  0  0  0999 V2000
    1.1172    1.1634    0.0000 N   0  0  0  0  0  0  0  0  0  0  0  0
    1.9442    1.0955    0.0000 C   0  0  0  0  0  0  0  0  0  0  0  0
    0.6542    0.5184    0.0000 C   0  0  0  0  0  0  0  0  0  0  0  0
    0.6542    1.8455    0.0000 C   0  0  0  0  0  0  0  0  0  0  0  0
    2.2806    0.3580    0.0000 C   0  0  0  0  0  0  0  0  0  0  0  0
    2.4102    1.7560    0.0000 C   0  0  0  0  0  0  0  0  0  0  0  0
   -0.1358    0.7715    0.0000 C   0  0  0  0  0  0  0  0  0  0  0  0
    0.9042   -0.2685    0.0000 O   0  0  0  0  0  0  0  0  0  0  0  0
   -0.1358    1.5986    0.0000 C   0  0  0  0  0  0  0  0  0  0  0  0
    0.9042    2.6324    0.0000 O   0  0  0  0  0  0  0  0  0  0  0  0
    3.0861    0.2685    0.0000 C   0  0  0  0  0  0  0  0  0  0  0  0
    3.2156    1.6819    0.0000 C   0  0  0  0  0  0  0  0  0  0  0  0
   -0.8517    0.3580    0.0000 C   0  0  0  0  0  0  0  0  0  0  0  0
   -0.8517    2.0059    0.0000 C   0  0  0  0  0  0  0  0  0  0  0  0
    3.5736    0.9505    0.0000 C   0  0  0  0  0  0  0  0  0  0  0  0
    3.4286   -0.4999    0.0000 C   0  0  0  0  0  0  0  0  0  0  0  0
   -1.5677    0.7715    0.0000 C   0  0  0  0  0  0  0  0  0  0  0  0
   -1.5677    1.5986    0.0000 C   0  0  0  0  0  0  0  0  0  0  0  0
    3.7680   -1.2529    0.0000 C   0  0  0  0  0  0  0  0  0  0  0  0
   -2.2836    0.3395    0.0000 O   0  0  0  0  0  0  0  0  0  0  0  0
   -2.2836   -0.4999    0.0000 C   0  0  0  0  0  0  0  0  0  0  0  0
   -1.5832   -0.9135    0.0000 C   0  0  0  0  0  0  0  0  0  0  0  0
   -2.9996   -0.9135    0.0000 C   0  0  0  0  0  0  0  0  0  0  0  0
   -1.5832   -1.7343    0.0000 C   0  0  0  0  0  0  0  0  0  0  0  0
   -3.0151   -1.7343    0.0000 C   0  0  0  0  0  0  0  0  0  0  0  0
   -2.2836   -2.1479    0.0000 C   0  0  0  0  0  0  0  0  0  0  0  0
   -2.2621   -2.9719    0.0000 N   0  3  0  0  0  0  0  0  0  0  0  0
   -1.5461   -3.3638    0.0000 O   0  0  0  0  0  0  0  0  0  0  0  0
   -2.9780   -3.3792    0.0000 O   0  5  0  0  0  0  0  0  0  0  0  0
  1  2  1  0  0  0  0
  1  3  1  0  0  0  0
  1  4  1  0  0  0  0
  2  5  2  0  0  0  0
  2  6  1  0  0  0  0
  3  7  1  0  0  0  0
  3  8  2  0  0  0  0
  4  9  1  0  0  0  0
  4 10  2  0  0  0  0
  5 11  1  0  0  0  0
  6 12  2  0  0  0  0
  7 13  1  0  0  0  0
  7  9  2  0  0  0  0
  9 14  1  0  0  0  0
 11 15  2  0  0  0  0
 11 16  1  0  0  0  0
 12 15  1  0  0  0  0
 13 17  2  0  0  0  0
 14 18  2  0  0  0  0
 16 19  3  0  0  0  0
 17 20  1  0  0  0  0
 17 18  1  0  0  0  0
 20 21  1  0  0  0  0
 21 22  1  0  0  0  0
 21 23  2  0  0  0  0
 22 24  2  0  0  0  0
 23 25  1  0  0  0  0
 24 26  1  0  0  0  0
 25 26  2  0  0  0  0
 26 27  1  0  0  0  0
 27 28  2  0  0  0  0
 27 29  1  0  0  0  0
M  END
> <CdId>
83

> <Mol Weight>
384.3411

> <Formula>
C22H12N2O5

> <Click_ID>
CLK002_A04 __ __ 

$$$$
