CLK015_C10
 OpenBabel03181410512D

 17 18  0  0  0  0  0  0  0  0999 V2000
    1.5596   -0.8130    0.0000 N   0  0  0  0  0  0  0  0  0  0  0  0
    1.8167   -1.5969    0.0000 C   0  0  0  0  0  0  0  0  0  0  0  0
    2.2273   -0.3277    0.0000 C   0  0  0  0  0  0  0  0  0  0  0  0
    2.8910   -0.8130    0.0000 C   0  0  0  0  0  0  0  0  0  0  0  0
    2.6379   -1.5969    0.0000 S   0  0  0  0  0  0  0  0  0  0  0  0
    3.6749   -0.5599    0.0000 C   0  0  0  0  0  0  0  0  0  0  0  0
    0.6097    0.2447    0.0000 C   0  0  0  0  0  0  0  0  0  0  0  0
    0.3899    1.0410    0.0000 C   0  0  0  0  0  0  0  0  0  0  0  0
    1.3314   -2.2564    0.0000 O   0  0  0  0  0  0  0  0  0  0  0  0
    2.2190    0.4935    0.0000 O   0  0  0  0  0  0  0  0  0  0  0  0
    0.7839   -0.5599    0.0000 C   0  0  0  0  0  0  0  0  0  0  0  0
    3.8573    0.2820    0.0000 C   0  0  0  0  0  0  0  0  0  0  0  0
    4.6579    0.4977    0.0000 C   0  0  0  0  0  0  0  0  0  0  0  0
    3.2145    0.8171    0.0000 C   0  0  0  0  0  0  0  0  0  0  0  0
    3.3762    1.5636    0.0000 C   0  0  0  0  0  0  0  0  0  0  0  0
    4.8279    1.2401    0.0000 C   0  0  0  0  0  0  0  0  0  0  0  0
    4.1808    1.7669    0.0000 C   0  0  0  0  0  0  0  0  0  0  0  0
  2  1  1  0  0  0  0
  3  1  1  0  0  0  0
  4  3  1  0  0  0  0
  4  5  1  0  0  0  0
  5  2  1  0  0  0  0
  6  4  2  0  0  0  0
  7 11  1  0  0  0  0
  8  7  3  0  0  0  0
  9  2  2  0  0  0  0
 10  3  2  0  0  0  0
 11  1  1  0  0  0  0
 12  6  1  0  0  0  0
 13 12  1  0  0  0  0
 14 12  2  0  0  0  0
 15 14  1  0  0  0  0
 16 13  2  0  0  0  0
 16 17  1  0  0  0  0
 17 15  2  0  0  0  0
M  END
> <CdId>
1105

> <Mol Weight>
243.281

> <Formula>
C13H9NO2S

> <Click_ID>
CLK015_C10 __ __ 

$$$$
