CLK014_D10
 OpenBabel03181410512D

 18 19  0  0  0  0  0  0  0  0999 V2000
    1.3477   -0.7026    0.0000 N   0  0  0  0  0  0  0  0  0  0  0  0
    1.5699   -1.3800    0.0000 C   0  0  0  0  0  0  0  0  0  0  0  0
    1.9248   -0.2832    0.0000 C   0  0  0  0  0  0  0  0  0  0  0  0
    2.4983   -0.7026    0.0000 C   0  0  0  0  0  0  0  0  0  0  0  0
    2.2796   -1.3800    0.0000 S   0  0  0  0  0  0  0  0  0  0  0  0
    3.1758   -0.4839    0.0000 C   0  0  0  0  0  0  0  0  0  0  0  0
    0.5269    0.2114    0.0000 C   0  0  0  0  0  0  0  0  0  0  0  0
    0.3370    0.8996    0.0000 C   0  0  0  0  0  0  0  0  0  0  0  0
    1.1506   -1.9499    0.0000 O   0  0  0  0  0  0  0  0  0  0  0  0
    1.9176    0.4265    0.0000 O   0  0  0  0  0  0  0  0  0  0  0  0
    0.6774   -0.4839    0.0000 C   0  0  0  0  0  0  0  0  0  0  0  0
    3.2080    0.3405    0.0000 C   0  0  0  0  0  0  0  0  0  0  0  0
    3.2797    2.0072    0.0000 C   0  0  0  0  0  0  0  0  0  0  0  0
    3.9500    0.7205    0.0000 C   0  0  0  0  0  0  0  0  0  0  0  0
    2.5055    0.7814    0.0000 C   0  0  0  0  0  0  0  0  0  0  0  0
    2.5413    1.6093    0.0000 C   0  0  0  0  0  0  0  0  0  0  0  0
    3.9822    1.5484    0.0000 C   0  0  0  0  0  0  0  0  0  0  0  0
    3.3155    2.8352    0.0000 O   0  0  0  0  0  0  0  0  0  0  0  0
  2  1  1  0  0  0  0
  3  1  1  0  0  0  0
  4  3  1  0  0  0  0
  4  5  1  0  0  0  0
  5  2  1  0  0  0  0
  6  4  2  0  0  0  0
  7 11  1  0  0  0  0
  8  7  3  0  0  0  0
  9  2  2  0  0  0  0
 10  3  2  0  0  0  0
 11  1  1  0  0  0  0
 12  6  1  0  0  0  0
 13 16  2  0  0  0  0
 13 17  1  0  0  0  0
 14 12  1  0  0  0  0
 15 12  2  0  0  0  0
 16 15  1  0  0  0  0
 17 14  2  0  0  0  0
 18 13  1  0  0  0  0
M  END
> <CdId>
1035

> <Mol Weight>
259.28

> <Formula>
C13H9NO3S

> <Click_ID>
CLK014_D10 __ __ 

$$$$
