CLK038A10
 OpenBabel03181410512D

 25 27  0  0  0  0  0  0  0  0999 V2000
   -1.5500   -1.0542    0.0000 C   0  0  0  0  0  0  0  0  0  0  0  0
    2.1625    1.0875    0.0000 S   0  0  0  0  0  0  0  0  0  0  0  0
   -2.0333   -0.3875    0.0000 N   0  0  0  0  0  0  0  0  0  0  0  0
   -0.7250   -1.0542    0.0000 N   0  0  0  0  0  0  0  0  0  0  0  0
   -2.0333   -1.7208    0.0000 N   0  0  0  0  0  0  0  0  0  0  0  0
   -0.3125   -0.3417    0.0000 C   0  0  0  0  0  0  0  0  0  0  0  0
    1.7500    0.3750    0.0000 C   0  0  0  0  0  0  0  0  0  0  0  0
   -2.8208   -0.6417    0.0000 C   0  0  0  0  0  0  0  0  0  0  0  0
   -2.8208   -1.4667    0.0000 C   0  0  0  0  0  0  0  0  0  0  0  0
    0.5125   -0.3417    0.0000 C   0  0  0  0  0  0  0  0  0  0  0  0
    3.8125    2.5167    0.0000 C   0  0  0  0  0  0  0  0  0  0  0  0
    0.9250    0.3750    0.0000 C   0  0  0  0  0  0  0  0  0  0  0  0
    4.2250    3.2333    0.0000 C   0  0  0  0  0  0  0  0  0  0  0  0
    1.4500    1.5000    0.0000 O   0  0  0  0  0  0  0  0  0  0  0  0
    2.8792    0.6750    0.0000 O   0  0  0  0  0  0  0  0  0  0  0  0
    2.5750    1.8042    0.0000 N   0  0  0  0  0  0  0  0  0  0  0  0
   -0.7250    0.3750    0.0000 O   0  0  0  0  0  0  0  0  0  0  0  0
    3.4000    1.8042    0.0000 C   0  0  0  0  0  0  0  0  0  0  0  0
    2.1625   -0.3417    0.0000 C   0  0  0  0  0  0  0  0  0  0  0  0
    0.9250   -1.0542    0.0000 C   0  0  0  0  0  0  0  0  0  0  0  0
    1.7500   -1.0542    0.0000 C   0  0  0  0  0  0  0  0  0  0  0  0
   -3.5333   -0.2292    0.0000 C   0  0  0  0  0  0  0  0  0  0  0  0
   -3.5333   -1.8792    0.0000 C   0  0  0  0  0  0  0  0  0  0  0  0
   -4.2500   -0.6417    0.0000 C   0  0  0  0  0  0  0  0  0  0  0  0
   -4.2500   -1.4667    0.0000 C   0  0  0  0  0  0  0  0  0  0  0  0
  2  7  1  0  0  0  0
  3  1  2  0  0  0  0
  4  1  1  0  0  0  0
  5  1  1  0  0  0  0
  6  4  1  0  0  0  0
  7 12  1  0  0  0  0
  8  3  1  0  0  0  0
  9  5  1  0  0  0  0
  9  8  2  0  0  0  0
 10  6  1  0  0  0  0
 11 18  1  0  0  0  0
 12 10  2  0  0  0  0
 13 11  3  0  0  0  0
 14  2  2  0  0  0  0
 15  2  2  0  0  0  0
 16  2  1  0  0  0  0
 17  6  2  0  0  0  0
 18 16  1  0  0  0  0
 19  7  2  0  0  0  0
 19 21  1  0  0  0  0
 20 10  1  0  0  0  0
 21 20  2  0  0  0  0
 22  8  1  0  0  0  0
 23  9  1  0  0  0  0
 24 22  2  0  0  0  0
 25 23  2  0  0  0  0
 25 24  1  0  0  0  0
M  END
> <CdId>
2913

> <Mol Weight>
354.383

> <Formula>
C17H14N4O3S

> <Click_ID>
CLK038A10 __ __ 

$$$$
