CLK012_E09
 OpenBabel03181410512D

 24 25  0  0  0  0  0  0  0  0999 V2000
    1.5650   -0.8158    0.0000 N   0  0  0  0  0  0  0  0  0  0  0  0
    1.8230   -1.6024    0.0000 C   0  0  0  0  0  0  0  0  0  0  0  0
    2.2350   -0.3288    0.0000 C   0  0  0  0  0  0  0  0  0  0  0  0
    2.9010   -0.8158    0.0000 C   0  0  0  0  0  0  0  0  0  0  0  0
    2.6470   -1.6024    0.0000 S   0  0  0  0  0  0  0  0  0  0  0  0
    3.6876   -0.5619    0.0000 C   0  0  0  0  0  0  0  0  0  0  0  0
    0.6118    0.2455    0.0000 C   0  0  0  0  0  0  0  0  0  0  0  0
    0.3913    1.0446    0.0000 C   0  0  0  0  0  0  0  0  0  0  0  0
    1.3360   -2.2642    0.0000 O   0  0  0  0  0  0  0  0  0  0  0  0
    2.2267    0.4952    0.0000 O   0  0  0  0  0  0  0  0  0  0  0  0
    5.3565    3.7042    0.0000 C   0  0  0  0  0  0  0  0  0  0  0  0
    0.7866   -0.5619    0.0000 C   0  0  0  0  0  0  0  0  0  0  0  0
    4.7489    4.2577    0.0000 O   0  0  0  0  0  0  0  0  0  0  0  0
    3.8582    0.2455    0.0000 C   0  0  0  0  0  0  0  0  0  0  0  0
    4.3868    2.6553    0.0000 O   0  0  0  0  0  0  0  0  0  0  0  0
    5.1734    2.8968    0.0000 C   0  0  0  0  0  0  0  0  0  0  0  0
    4.2078    1.8479    0.0000 C   0  0  0  0  0  0  0  0  0  0  0  0
    6.1431    3.9539    0.0000 O   0  0  0  0  0  0  0  0  0  0  0  0
    3.2506    0.7991    0.0000 C   0  0  0  0  0  0  0  0  0  0  0  0
    4.6365    0.4952    0.0000 C   0  0  0  0  0  0  0  0  0  0  0  0
    4.8113    1.2986    0.0000 C   0  0  0  0  0  0  0  0  0  0  0  0
    3.4254    1.6065    0.0000 C   0  0  0  0  0  0  0  0  0  0  0  0
    6.3179    4.7447    0.0000 C   0  0  0  0  0  0  0  0  0  0  0  0
    7.1046    4.9861    0.0000 C   0  0  0  0  0  0  0  0  0  0  0  0
  2  1  1  0  0  0  0
  3  1  1  0  0  0  0
  4  3  1  0  0  0  0
  5  2  1  0  0  0  0
  5  4  1  0  0  0  0
  6  4  2  0  0  0  0
  7 12  1  0  0  0  0
  8  7  3  0  0  0  0
  9  2  2  0  0  0  0
 10  3  2  0  0  0  0
 11 16  1  0  0  0  0
 12  1  1  0  0  0  0
 13 11  2  0  0  0  0
 14  6  1  0  0  0  0
 15 17  1  0  0  0  0
 16 15  1  0  0  0  0
 17 21  1  0  0  0  0
 18 11  1  0  0  0  0
 19 14  2  0  0  0  0
 20 14  1  0  0  0  0
 21 20  2  0  0  0  0
 22 19  1  0  0  0  0
 22 17  2  0  0  0  0
 23 18  1  0  0  0  0
 24 23  1  0  0  0  0
M  END
> <CdId>
884

> <Mol Weight>
345.37

> <Formula>
C17H15NO5S

> <Click_ID>
CLK012_E09 __ __ 

$$$$
