CLK040A03
 OpenBabel03181410512D

 21 22  0  0  0  0  0  0  0  0999 V2000
   -0.2750    1.8958    0.0000 S   0  0  0  0  0  0  0  0  0  0  0  0
    0.4417   -1.8167    0.0000 N   0  0  0  0  0  0  0  0  0  0  0  0
    0.4417   -2.6417    0.0000 C   0  0  0  0  0  0  0  0  0  0  0  0
   -0.2750   -1.4042    0.0000 C   0  0  0  0  0  0  0  0  0  0  0  0
   -0.2292   -3.1250    0.0000 N   0  0  0  0  0  0  0  0  0  0  0  0
   -0.2750    1.0708    0.0000 C   0  0  0  0  0  0  0  0  0  0  0  0
    1.1083   -3.1250    0.0000 S   0  0  0  0  0  0  0  0  0  0  0  0
    0.4417    3.9583    0.0000 C   0  0  0  0  0  0  0  0  0  0  0  0
    0.4417    4.7792    0.0000 C   0  0  0  0  0  0  0  0  0  0  0  0
   -1.1000    1.8958    0.0000 O   0  0  0  0  0  0  0  0  0  0  0  0
    0.5500    1.8958    0.0000 O   0  0  0  0  0  0  0  0  0  0  0  0
   -0.2750   -0.5792    0.0000 C   0  0  0  0  0  0  0  0  0  0  0  0
   -0.2750    2.7208    0.0000 N   0  0  0  0  0  0  0  0  0  0  0  0
    0.0292   -3.9083    0.0000 C   0  0  0  0  0  0  0  0  0  0  0  0
   -0.9875   -1.8167    0.0000 O   0  0  0  0  0  0  0  0  0  0  0  0
    0.8542   -3.9083    0.0000 C   0  0  0  0  0  0  0  0  0  0  0  0
    0.4417    0.6583    0.0000 C   0  0  0  0  0  0  0  0  0  0  0  0
   -0.9875    0.6583    0.0000 C   0  0  0  0  0  0  0  0  0  0  0  0
    0.4417   -0.1667    0.0000 C   0  0  0  0  0  0  0  0  0  0  0  0
   -0.9875   -0.1667    0.0000 C   0  0  0  0  0  0  0  0  0  0  0  0
    0.4417    3.1333    0.0000 C   0  0  0  0  0  0  0  0  0  0  0  0
  2  4  1  0  0  0  0
  3  2  1  0  0  0  0
  4 12  1  0  0  0  0
  5  3  2  0  0  0  0
  6  1  1  0  0  0  0
  7  3  1  0  0  0  0
  8 21  1  0  0  0  0
  9  8  3  0  0  0  0
 10  1  2  0  0  0  0
 11  1  2  0  0  0  0
 12 20  2  0  0  0  0
 13  1  1  0  0  0  0
 14  5  1  0  0  0  0
 15  4  2  0  0  0  0
 16  7  1  0  0  0  0
 16 14  2  0  0  0  0
 17  6  1  0  0  0  0
 18  6  2  0  0  0  0
 19 17  2  0  0  0  0
 19 12  1  0  0  0  0
 20 18  1  0  0  0  0
 21 13  1  0  0  0  0
M  END
> <CdId>
3017

> <Mol Weight>
321.375

> <Formula>
C13H11N3O3S2

> <Click_ID>
CLK040A03 __ __ 

$$$$
