CLK045D08
 OpenBabel03181410512D

 22 24  0  0  0  0  0  0  0  0999 V2000
   -2.6667    1.2750    0.0000 N   0  0  0  0  0  0  0  0  0  0  0  0
    0.1917   -0.3750    0.0000 C   0  0  0  0  0  0  0  0  0  0  0  0
   -1.9500    0.0375    0.0000 C   0  0  0  0  0  0  0  0  0  0  0  0
   -1.9500    0.8625    0.0000 C   0  0  0  0  0  0  0  0  0  0  0  0
   -3.3792    0.8625    0.0000 C   0  0  0  0  0  0  0  0  0  0  0  0
   -2.6667   -0.3750    0.0000 O   0  0  0  0  0  0  0  0  0  0  0  0
    0.9083    0.0375    0.0000 N   0  0  0  0  0  0  0  0  0  0  0  0
   -0.5208    0.0375    0.0000 C   0  0  0  0  0  0  0  0  0  0  0  0
    3.7667    0.0375    0.0000 C   0  0  0  0  0  0  0  0  0  0  0  0
   -1.2375   -0.3750    0.0000 C   0  0  0  0  0  0  0  0  0  0  0  0
    4.4792    0.4500    0.0000 C   0  0  0  0  0  0  0  0  0  0  0  0
    0.1917   -1.2000    0.0000 O   0  0  0  0  0  0  0  0  0  0  0  0
    1.6208   -0.3750    0.0000 C   0  0  0  0  0  0  0  0  0  0  0  0
   -1.2375    1.2750    0.0000 C   0  0  0  0  0  0  0  0  0  0  0  0
   -4.0958    1.2750    0.0000 O   0  0  0  0  0  0  0  0  0  0  0  0
   -0.5208    0.8625    0.0000 C   0  0  0  0  0  0  0  0  0  0  0  0
   -3.3792    0.0375    0.0000 C   0  0  0  0  0  0  0  0  0  0  0  0
    3.0500   -0.3750    0.0000 C   0  0  0  0  0  0  0  0  0  0  0  0
    2.3375    0.0375    0.0000 C   0  0  0  0  0  0  0  0  0  0  0  0
    2.3375   -1.6125    0.0000 C   0  0  0  0  0  0  0  0  0  0  0  0
    1.6208   -1.2000    0.0000 C   0  0  0  0  0  0  0  0  0  0  0  0
    3.0500   -1.2000    0.0000 C   0  0  0  0  0  0  0  0  0  0  0  0
  2  8  1  0  0  0  0
  3  4  2  0  0  0  0
  3  6  1  0  0  0  0
  4  1  1  0  0  0  0
  5  1  1  0  0  0  0
  6 17  1  0  0  0  0
  7  2  1  0  0  0  0
  8 10  2  0  0  0  0
  9 18  1  0  0  0  0
 10  3  1  0  0  0  0
 11  9  3  0  0  0  0
 12  2  2  0  0  0  0
 13  7  1  0  0  0  0
 14  4  1  0  0  0  0
 15  5  2  0  0  0  0
 16 14  2  0  0  0  0
 16  8  1  0  0  0  0
 17  5  1  0  0  0  0
 18 19  1  0  0  0  0
 19 13  2  0  0  0  0
 20 21  2  0  0  0  0
 21 13  1  0  0  0  0
 22 18  2  0  0  0  0
 22 20  1  0  0  0  0
M  END
> <CdId>
3460

> <Mol Weight>
292.2888

> <Formula>
C17H12N2O3

> <Click_ID>
CLK045D08 __ __ 

$$$$
