CLK025_G07
 OpenBabel03181410512D

 27 30  0  0  0  0  0  0  0  0999 V2000
   -0.8575    0.1429    0.0000 C    0  0  3  0  0  0  0  0  0  0  0  0
   -0.3904   -0.4880    0.0000 C    0  0  0  0  0  0  0  0  0  0  0  0
   -1.6383   -0.1185    0.0000 C    0  0  0  0  0  0  0  0  0  0  0  0
   -0.8575   -1.1956    0.0000 N    0  0  0  0  0  0  0  0  0  0  0  0
   -1.6383   -0.9412    0.0000 C    0  0  0  0  0  0  0  0  0  0  0  0
   -0.0105    0.9133    0.0000 C    0  0  0  0  0  0  0  0  0  0  0  0
    0.9516    0.7390    0.0000 C    0  0  0  0  0  0  0  0  0  0  0  0
    1.4500    1.3943    0.0000 C    0  0  0  0  0  0  0  0  0  0  0  0
    2.7677    1.9311    0.0000 C    0  0  0  0  0  0  0  0  0  0  0  0
   -1.1085   -2.6004    0.0000 C    0  0  0  0  0  0  0  0  0  0  0  0
   -2.3564   -1.3525    0.0000 C    0  0  0  0  0  0  0  0  0  0  0  0
    2.2692    1.2827    0.0000 C    0  0  0  0  0  0  0  0  0  0  0  0
   -1.6453   -3.2278    0.0000 C    0  0  0  0  0  0  0  0  0  0  0  0
   -2.3564    0.2997    0.0000 C    0  0  0  0  0  0  0  0  0  0  0  0
    0.4009   -0.5578    0.0000 O    0  0  0  0  0  0  0  0  0  0  0  0
    2.4610    2.6980    0.0000 C    0  0  0  0  0  0  0  0  0  0  0  0
    3.5904    1.9973    0.0000 O    0  0  0  0  0  0  0  0  0  0  0  0
    3.0814    3.2313    0.0000 O    0  0  0  0  0  0  0  0  0  0  0  0
    3.7820    2.7990    0.0000 C    0  0  0  0  0  0  0  0  0  0  0  0
   -0.5821   -1.9695    0.0000 C    0  0  0  0  0  0  0  0  0  0  0  0
   -1.2444    1.0144    0.0000 O    0  0  0  0  0  0  0  0  0  0  0  0
    1.2235    0.1569    0.0000 O    0  0  0  0  0  0  0  0  0  0  0  0
    1.1329    2.1507    0.0000 C    0  0  0  0  0  0  0  0  0  0  0  0
    1.6418    2.8061    0.0000 C    0  0  0  0  0  0  0  0  0  0  0  0
   -3.0675   -0.1185    0.0000 C    0  0  0  0  0  0  0  0  0  0  0  0
   -3.0675   -0.9412    0.0000 C    0  0  0  0  0  0  0  0  0  0  0  0
   -3.7855    0.2963    0.0000 Br   0  0  0  0  0  0  0  0  0  0  0  0
  2  1  1  0  0  0  0
  3  1  1  0  0  0  0
  4  2  1  0  0  0  0
  5  3  2  0  0  0  0
  5  4  1  0  0  0  0
  6  1  1  0  0  0  0
  7  6  1  0  0  0  0
  8  7  1  0  0  0  0
  9 12  2  0  0  0  0
  9 16  1  0  0  0  0
 10 20  1  0  0  0  0
 11  5  1  0  0  0  0
 12  8  1  0  0  0  0
 13 10  3  0  0  0  0
 14  3  1  0  0  0  0
 15  2  2  0  0  0  0
 16 24  2  0  0  0  0
 17  9  1  0  0  0  0
 18 16  1  0  0  0  0
 19 17  1  0  0  0  0
 19 18  1  0  0  0  0
 20  4  1  0  0  0  0
 21  1  1  0  0  0  0
 22  7  2  0  0  0  0
 23  8  2  0  0  0  0
 24 23  1  0  0  0  0
 25 14  2  0  0  0  0
 26 25  1  0  0  0  0
 26 11  2  0  0  0  0
 27 25  1  0  0  0  0
M  END
> <CdId>
1922

> <Mol Weight>
428.233

> <Formula>
C20H14BrNO5

> <Click_ID>
CLK025_G07 __ __ 

$$$$
