CLK013_C09
 OpenBabel03181410512D

 30 32  0  0  0  0  0  0  0  0999 V2000
    2.6622   -2.2944    0.0000 N    0  0  0  0  0  0  0  0  0  0  0  0
    2.4114   -1.5045    0.0000 C    0  0  0  0  0  0  0  0  0  0  0  0
    3.4896   -2.2944    0.0000 C    0  0  0  0  0  0  0  0  0  0  0  0
    3.7487   -1.5045    0.0000 C    0  0  0  0  0  0  0  0  0  0  0  0
    3.0759   -1.0197    0.0000 S    0  0  0  0  0  0  0  0  0  0  0  0
    4.5386   -1.2454    0.0000 C    0  0  0  0  0  0  0  0  0  0  0  0
    2.1732   -2.9631    0.0000 C    0  0  0  0  0  0  0  0  0  0  0  0
    2.5117   -3.7153    0.0000 C    0  0  0  0  0  0  0  0  0  0  0  0
    2.0227   -4.3881    0.0000 N    0  0  0  0  0  0  0  0  0  0  0  0
    6.1852    3.0299    0.0000 C    0  0  0  0  0  0  0  0  0  0  0  0
    6.3607    3.8323    0.0000 C    0  0  0  0  0  0  0  0  0  0  0  0
    1.2036   -4.3004    0.0000 C    0  0  0  0  0  0  0  0  0  0  0  0
    5.6461    0.6143    0.0000 C    0  0  0  0  0  0  0  0  0  0  0  0
    1.6215   -1.2454    0.0000 O    0  0  0  0  0  0  0  0  0  0  0  0
    3.9786   -2.9631    0.0000 O    0  0  0  0  0  0  0  0  0  0  0  0
    4.7058   -0.4430    0.0000 C    0  0  0  0  0  0  0  0  0  0  0  0
    5.4789   -0.1923    0.0000 C    0  0  0  0  0  0  0  0  0  0  0  0
    5.0401    1.1660    0.0000 C    0  0  0  0  0  0  0  0  0  0  0  0
    3.3350   -3.8031    0.0000 O    0  0  0  0  0  0  0  0  0  0  0  0
    0.7188   -4.9691    0.0000 C    0  0  0  0  0  0  0  0  0  0  0  0
    4.2627    0.9152    0.0000 C    0  0  0  0  0  0  0  0  0  0  0  0
    6.4317    0.8651    0.0000 Br   0  0  0  0  0  0  0  0  0  0  0  0
    4.0914    0.1086    0.0000 C    0  0  0  0  0  0  0  0  0  0  0  0
    1.0531   -5.7213    0.0000 F    0  0  0  0  0  0  0  0  0  0  0  0
    5.2198    1.9767    0.0000 O    0  0  0  0  0  0  0  0  0  0  0  0
    6.0054    2.2191    0.0000 C    0  0  0  0  0  0  0  0  0  0  0  0
    0.8693   -3.5398    0.0000 C    0  0  0  0  0  0  0  0  0  0  0  0
   -0.1086   -4.8771    0.0000 C    0  0  0  0  0  0  0  0  0  0  0  0
    0.0501   -3.4520    0.0000 C    0  0  0  0  0  0  0  0  0  0  0  0
   -0.4388   -4.1165    0.0000 C    0  0  0  0  0  0  0  0  0  0  0  0
  2  1  1  0  0  0  0
  3  1  1  0  0  0  0
  4  3  1  0  0  0  0
  5  2  1  0  0  0  0
  5  4  1  0  0  0  0
  6  4  2  0  0  0  0
  7  1  1  0  0  0  0
  8  7  1  0  0  0  0
  9  8  1  0  0  0  0
 10 26  1  0  0  0  0
 11 10  3  0  0  0  0
 12  9  1  0  0  0  0
 13 17  2  0  0  0  0
 14  2  2  0  0  0  0
 15  3  2  0  0  0  0
 16  6  1  0  0  0  0
 17 16  1  0  0  0  0
 18 21  2  0  0  0  0
 18 13  1  0  0  0  0
 19  8  2  0  0  0  0
 20 12  1  0  0  0  0
 21 23  1  0  0  0  0
 22 13  1  0  0  0  0
 23 16  2  0  0  0  0
 24 20  1  0  0  0  0
 25 18  1  0  0  0  0
 26 25  1  0  0  0  0
 27 12  2  0  0  0  0
 28 20  2  0  0  0  0
 29 27  1  0  0  0  0
 30 29  2  0  0  0  0
 30 28  1  0  0  0  0
M  END
> <CdId>
944

> <Mol Weight>
489.314

> <Formula>
C21H14BrFN2O4S

> <Click_ID>
CLK013_C09 __ __ 

$$$$
