CLK032_B02
 OpenBabel03181410512D

 26 28  0  0  0  0  0  0  0  0999 V2000
   -1.1625    2.3833    0.0000 C    0  0  0  0  0  0  0  0  0  0  0  0
   -0.3375    2.3750    0.0000 N    0  0  0  0  0  0  0  0  0  0  0  0
   -1.6458    1.7208    0.0000 N    0  0  0  0  0  0  0  0  0  0  0  0
   -1.6458    3.0500    0.0000 S    0  0  0  0  0  0  0  0  0  0  0  0
   -2.4333    2.7958    0.0000 C    0  0  0  0  0  0  0  0  0  0  0  0
   -2.4333    1.9708    0.0000 C    0  0  0  0  0  0  0  0  0  0  0  0
    0.0750    3.0875    0.0000 C    0  0  0  0  0  0  0  0  0  0  0  0
   -3.1458    3.2083    0.0000 C    0  0  0  0  0  0  0  0  0  0  0  0
   -1.9458    0.3208    0.0000 C    0  0  0  0  0  0  0  0  0  0  0  0
   -2.4958   -0.2917    0.0000 C    0  0  0  0  0  0  0  0  0  0  0  0
   -3.1458    1.5583    0.0000 C    0  0  0  0  0  0  0  0  0  0  0  0
    0.9000    3.0875    0.0000 C    0  0  0  0  0  0  0  0  0  0  0  0
   -5.2875    2.8000    0.0000 C    0  0  0  0  0  0  0  0  0  0  0  0
   -4.5833    3.2125    0.0000 N    0  0  0  0  0  0  0  0  0  0  0  0
   -3.8583    2.7958    0.0000 C    0  0  0  0  0  0  0  0  0  0  0  0
   -0.3375    3.8000    0.0000 O    0  0  0  0  0  0  0  0  0  0  0  0
   -1.3958    0.9333    0.0000 C    0  0  0  0  0  0  0  0  0  0  0  0
   -6.0000    3.2125    0.0000 O    0  0  0  0  0  0  0  0  0  0  0  0
    1.3167    2.3708    0.0000 C    0  0  0  0  0  0  0  0  0  0  0  0
    1.3167    3.8000    0.0000 C    0  0  0  0  0  0  0  0  0  0  0  0
   -3.8583    1.9708    0.0000 C    0  0  0  0  0  0  0  0  0  0  0  0
    2.5542    3.0875    0.0000 C    0  0  0  0  0  0  0  0  0  0  0  0
    2.1417    3.8000    0.0000 C    0  0  0  0  0  0  0  0  0  0  0  0
    2.1417    2.3708    0.0000 C    0  0  0  0  0  0  0  0  0  0  0  0
    3.3875    3.0875    0.0000 Cl   0  0  0  0  0  0  0  0  0  0  0  0
   -5.2958    1.9750    0.0000 C    0  0  0  0  0  0  0  0  0  0  0  0
  2  1  2  0  0  0  0
  3  1  1  0  0  0  0
  4  1  1  0  0  0  0
  5  4  1  0  0  0  0
  5  6  2  0  0  0  0
  6  3  1  0  0  0  0
  7  2  1  0  0  0  0
  8  5  1  0  0  0  0
  9 17  1  0  0  0  0
 10  9  3  0  0  0  0
 11  6  1  0  0  0  0
 12  7  1  0  0  0  0
 13 14  1  0  0  0  0
 14 15  1  0  0  0  0
 15  8  2  0  0  0  0
 15 21  1  0  0  0  0
 16  7  2  0  0  0  0
 17  3  1  0  0  0  0
 18 13  2  0  0  0  0
 19 12  2  0  0  0  0
 20 12  1  0  0  0  0
 21 11  2  0  0  0  0
 22 23  1  0  0  0  0
 22 24  2  0  0  0  0
 23 20  2  0  0  0  0
 24 19  1  0  0  0  0
 25 22  1  0  0  0  0
 26 13  1  0  0  0  0
M  END
> <CdId>
2416

> <Mol Weight>
383.851

> <Formula>
C19H14ClN3O2S

> <Click_ID>
CLK032_B02 __ __ 

$$$$
