CLK038C07
 OpenBabel03181410512D

 20 22  0  0  0  0  0  0  0  0999 V2000
    0.2708   -0.0667    0.0000 C   0  0  0  0  0  0  0  0  0  0  0  0
   -0.2125    0.6000    0.0000 N   0  0  0  0  0  0  0  0  0  0  0  0
    0.2708    1.2708    0.0000 N   0  0  0  0  0  0  0  0  0  0  0  0
    1.0542    0.1875    0.0000 C   0  0  0  0  0  0  0  0  0  0  0  0
    1.0542    1.0125    0.0000 C   0  0  0  0  0  0  0  0  0  0  0  0
    0.0167   -0.8500    0.0000 C   0  0  0  0  0  0  0  0  0  0  0  0
    1.7208    1.5000    0.0000 C   0  0  0  0  0  0  0  0  0  0  0  0
    2.5417    1.5875    0.0000 C   0  0  0  0  0  0  0  0  0  0  0  0
    2.0583    2.2542    0.0000 C   0  0  0  0  0  0  0  0  0  0  0  0
    0.8667   -2.8625    0.0000 C   0  0  0  0  0  0  0  0  0  0  0  0
    1.4167   -3.4750    0.0000 C   0  0  0  0  0  0  0  0  0  0  0  0
   -1.0375    0.6000    0.0000 C   0  0  0  0  0  0  0  0  0  0  0  0
   -0.7917   -1.0208    0.0000 O   0  0  0  0  0  0  0  0  0  0  0  0
    0.5667   -1.4625    0.0000 N   0  0  0  0  0  0  0  0  0  0  0  0
    0.3125   -2.2458    0.0000 C   0  0  0  0  0  0  0  0  0  0  0  0
   -1.4500   -0.1125    0.0000 C   0  0  0  0  0  0  0  0  0  0  0  0
   -1.4500    1.3167    0.0000 C   0  0  0  0  0  0  0  0  0  0  0  0
   -2.2750    1.3167    0.0000 C   0  0  0  0  0  0  0  0  0  0  0  0
   -2.2750   -0.1125    0.0000 C   0  0  0  0  0  0  0  0  0  0  0  0
   -2.6875    0.6000    0.0000 C   0  0  0  0  0  0  0  0  0  0  0  0
  2  1  1  0  0  0  0
  3  2  1  0  0  0  0
  3  5  2  0  0  0  0
  4  1  2  0  0  0  0
  5  4  1  0  0  0  0
  6  1  1  0  0  0  0
  7  5  1  0  0  0  0
  8  7  1  0  0  0  0
  9  7  1  0  0  0  0
  9  8  1  0  0  0  0
 10 15  1  0  0  0  0
 11 10  3  0  0  0  0
 12  2  1  0  0  0  0
 13  6  2  0  0  0  0
 14  6  1  0  0  0  0
 15 14  1  0  0  0  0
 16 12  2  0  0  0  0
 17 12  1  0  0  0  0
 18 17  2  0  0  0  0
 19 16  1  0  0  0  0
 20 19  2  0  0  0  0
 20 18  1  0  0  0  0
M  END
> <CdId>
2891

> <Mol Weight>
265.3098

> <Formula>
C16H15N3O

> <Click_ID>
CLK038C07 __ __ 

$$$$
