CLK005_F08
 OpenBabel03181410512D

 19 21  0  0  0  0  0  0  0  0999 V2000
    0.1481    0.7816    0.0000 C   0  0  0  0  0  0  0  0  0  0  0  0
   -0.3340    0.1067    0.0000 N   0  0  0  0  0  0  0  0  0  0  0  0
   -0.3478    1.4530    0.0000 N   0  0  0  0  0  0  0  0  0  0  0  0
    0.9709    0.7885    0.0000 C   0  0  0  0  0  0  0  0  0  0  0  0
   -1.1293    0.3547    0.0000 C   0  0  0  0  0  0  0  0  0  0  0  0
    0.0723   -0.6060    0.0000 C   0  0  0  0  0  0  0  0  0  0  0  0
   -1.1328    1.1879    0.0000 C   0  0  0  0  0  0  0  0  0  0  0  0
    1.3876    0.0758    0.0000 C   0  0  0  0  0  0  0  0  0  0  0  0
   -1.8489   -0.0516    0.0000 C   0  0  0  0  0  0  0  0  0  0  0  0
   -0.3305   -1.3187    0.0000 C   0  0  0  0  0  0  0  0  0  0  0  0
   -1.8489    1.5975    0.0000 C   0  0  0  0  0  0  0  0  0  0  0  0
    0.9813   -0.6438    0.0000 C   0  0  0  0  0  0  0  0  0  0  0  0
    2.2069    0.0792    0.0000 C   0  0  0  0  0  0  0  0  0  0  0  0
   -2.5616    0.3580    0.0000 C   0  0  0  0  0  0  0  0  0  0  0  0
    0.0827   -2.0279    0.0000 C   0  0  0  0  0  0  0  0  0  0  0  0
   -2.5616    1.1879    0.0000 C   0  0  0  0  0  0  0  0  0  0  0  0
    1.3945   -1.3496    0.0000 C   0  0  0  0  0  0  0  0  0  0  0  0
    2.6270   -0.6231    0.0000 C   0  0  0  0  0  0  0  0  0  0  0  0
    2.2207   -1.3462    0.0000 C   0  0  0  0  0  0  0  0  0  0  0  0
  1  2  1  0  0  0  0
  1  3  2  0  0  0  0
  1  4  1  0  0  0  0
  2  5  1  0  0  0  0
  2  6  1  0  0  0  0
  3  7  1  0  0  0  0
  4  8  1  0  0  0  0
  5  9  2  0  0  0  0
  5  7  1  0  0  0  0
  6 10  1  0  0  0  0
  7 11  2  0  0  0  0
  8 12  2  0  0  0  0
  8 13  1  0  0  0  0
  9 14  1  0  0  0  0
 10 15  3  0  0  0  0
 11 16  1  0  0  0  0
 12 17  1  0  0  0  0
 13 18  2  0  0  0  0
 14 16  2  0  0  0  0
 17 19  2  0  0  0  0
 18 19  1  0  0  0  0
M  END
> <CdId>
377

> <Mol Weight>
246.3065

> <Formula>
C17H14N2

> <Click_ID>
CLK005_F08 __ __ 

$$$$
