CLK006_B08
 OpenBabel03181410512D

 20 22  0  0  0  0  0  0  0  0999 V2000
    0.0207    0.8861    0.0000 C    0  0  0  0  0  0  0  0  0  0  0  0
   -0.4586    0.2103    0.0000 N    0  0  0  0  0  0  0  0  0  0  0  0
   -0.4690    1.5551    0.0000 N    0  0  0  0  0  0  0  0  0  0  0  0
    0.8413    0.8861    0.0000 C    0  0  0  0  0  0  0  0  0  0  0  0
   -1.2551    0.4621    0.0000 C    0  0  0  0  0  0  0  0  0  0  0  0
   -0.0448   -0.5034    0.0000 C    0  0  0  0  0  0  0  0  0  0  0  0
   -1.2585    1.2896    0.0000 C    0  0  0  0  0  0  0  0  0  0  0  0
    1.2585    0.1724    0.0000 C    0  0  0  0  0  0  0  0  0  0  0  0
   -1.9757    0.0483    0.0000 C    0  0  0  0  0  0  0  0  0  0  0  0
   -0.4586   -1.2137    0.0000 C    0  0  0  0  0  0  0  0  0  0  0  0
   -1.9757    1.7033    0.0000 C    0  0  0  0  0  0  0  0  0  0  0  0
    2.0791    0.1828    0.0000 C    0  0  0  0  0  0  0  0  0  0  0  0
    0.7792   -0.4966    0.0000 C    0  0  0  0  0  0  0  0  0  0  0  0
   -2.6860    0.4621    0.0000 C    0  0  0  0  0  0  0  0  0  0  0  0
   -0.0448   -1.9274    0.0000 C    0  0  0  0  0  0  0  0  0  0  0  0
   -2.6860    1.2896    0.0000 C    0  0  0  0  0  0  0  0  0  0  0  0
    2.4929   -0.5310    0.0000 C    0  0  0  0  0  0  0  0  0  0  0  0
    1.2585   -1.2516    0.0000 C    0  0  0  0  0  0  0  0  0  0  0  0
    2.0826   -1.2516    0.0000 C    0  0  0  0  0  0  0  0  0  0  0  0
    2.4998   -1.9653    0.0000 Cl   0  0  0  0  0  0  0  0  0  0  0  0
  1  2  1  0  0  0  0
  1  3  2  0  0  0  0
  1  4  1  0  0  0  0
  2  5  1  0  0  0  0
  2  6  1  0  0  0  0
  3  7  1  0  0  0  0
  4  8  1  0  0  0  0
  5  9  2  0  0  0  0
  5  7  1  0  0  0  0
  6 10  1  0  0  0  0
  7 11  2  0  0  0  0
  8 12  1  0  0  0  0
  8 13  2  0  0  0  0
  9 14  1  0  0  0  0
 10 15  3  0  0  0  0
 11 16  1  0  0  0  0
 12 17  2  0  0  0  0
 13 18  1  0  0  0  0
 14 16  2  0  0  0  0
 17 19  1  0  0  0  0
 18 19  2  0  0  0  0
 19 20  1  0  0  0  0
M  END
> <CdId>
417

> <Mol Weight>
280.752

> <Formula>
C17H13ClN2

> <Click_ID>
CLK006_B08 __ __ 

$$$$
