CLK026_H07
 OpenBabel03181410512D

 23 24  0  0  0  0  0  0  0  0999 V2000
   -2.4000   -0.8446    0.0000 N   0  0  0  0  0  0  0  0  0  0  0  0
   -1.9880   -1.5588    0.0000 C   0  0  0  0  0  0  0  0  0  0  0  0
   -1.0953   -0.5768    0.0000 C   0  0  0  0  0  0  0  0  0  0  0  0
   -1.8403   -0.2369    0.0000 C   0  0  0  0  0  0  0  0  0  0  0  0
   -1.1811   -1.3940    0.0000 S   0  0  0  0  0  0  0  0  0  0  0  0
   -0.3776   -0.1648    0.0000 C   0  0  0  0  0  0  0  0  0  0  0  0
   -3.5433   -0.0035    0.0000 C   0  0  0  0  0  0  0  0  0  0  0  0
   -0.3776    0.6592    0.0000 C   0  0  0  0  0  0  0  0  0  0  0  0
   -3.9176    0.7348    0.0000 C   0  0  0  0  0  0  0  0  0  0  0  0
   -2.3279   -2.3038    0.0000 O   0  0  0  0  0  0  0  0  0  0  0  0
   -2.0189    0.5665    0.0000 O   0  0  0  0  0  0  0  0  0  0  0  0
    2.4755    0.6352    0.0000 C   0  0  0  0  0  0  0  0  0  0  0  0
   -3.2068   -0.7519    0.0000 C   0  0  0  0  0  0  0  0  0  0  0  0
    0.3434    1.0644    0.0000 C   0  0  0  0  0  0  0  0  0  0  0  0
    1.0541    0.6558    0.0000 O   0  0  0  0  0  0  0  0  0  0  0  0
    2.4721   -0.1922    0.0000 O   0  0  0  0  0  0  0  0  0  0  0  0
    1.7648    1.0541    0.0000 C   0  0  0  0  0  0  0  0  0  0  0  0
    3.2034    1.0403    0.0000 O   0  0  0  0  0  0  0  0  0  0  0  0
   -1.0953    1.0781    0.0000 C   0  0  0  0  0  0  0  0  0  0  0  0
    0.3502    1.8987    0.0000 C   0  0  0  0  0  0  0  0  0  0  0  0
    3.9141    0.6283    0.0000 C   0  0  0  0  0  0  0  0  0  0  0  0
   -1.0850    1.9021    0.0000 C   0  0  0  0  0  0  0  0  0  0  0  0
   -0.3605    2.3073    0.0000 C   0  0  0  0  0  0  0  0  0  0  0  0
  2  1  1  0  0  0  0
  3  4  1  0  0  0  0
  4  1  1  0  0  0  0
  5  2  1  0  0  0  0
  5  3  1  0  0  0  0
  6  3  2  0  0  0  0
  7 13  1  0  0  0  0
  8  6  1  0  0  0  0
  9  7  3  0  0  0  0
 10  2  2  0  0  0  0
 11  4  2  0  0  0  0
 12 17  1  0  0  0  0
 13  1  1  0  0  0  0
 14  8  1  0  0  0  0
 15 14  1  0  0  0  0
 16 12  2  0  0  0  0
 17 15  1  0  0  0  0
 18 12  1  0  0  0  0
 19  8  2  0  0  0  0
 20 14  2  0  0  0  0
 21 18  1  0  0  0  0
 22 19  1  0  0  0  0
 23 22  2  0  0  0  0
 23 20  1  0  0  0  0
M  END
> <CdId>
2012

> <Mol Weight>
331.343

> <Formula>
C16H13NO5S

> <Click_ID>
CLK026_H07 __ __ 

$$$$
