CLK021_G07
 OpenBabel03181410512D

 16 16  0  0  0  0  0  0  0  0999 V2000
    3.3734    1.9525    0.0000 C   0  0  0  0  0  0  0  0  0  0  0  0
    5.4084    2.4566    0.0000 C   0  0  0  0  0  0  0  0  0  0  0  0
    6.2059    2.2412    0.0000 C   0  0  0  0  0  0  0  0  0  0  0  0
    2.9609    1.2375    0.0000 N   0  0  0  0  0  0  0  0  0  0  0  0
    4.1984    1.9525    0.0000 O   0  0  0  0  0  0  0  0  0  0  0  0
    4.6109    2.6675    0.0000 C   0  0  0  0  0  0  0  0  0  0  0  0
    2.9609    2.6675    0.0000 O   0  0  0  0  0  0  0  0  0  0  0  0
    2.1359    1.2375    0.0000 C   0  0  0  0  0  0  0  0  0  0  0  0
    0.4859    1.2375    0.0000 C   0  0  0  0  0  0  0  0  0  0  0  0
   -0.3391    1.2375    0.0000 F   0  0  0  0  0  0  0  0  0  0  0  0
    1.7234    0.5316    0.0000 C   0  0  0  0  0  0  0  0  0  0  0  0
    1.7234    1.9525    0.0000 C   0  0  0  0  0  0  0  0  0  0  0  0
    0.8984    1.9525    0.0000 C   0  0  0  0  0  0  0  0  0  0  0  0
    0.8984    0.5316    0.0000 C   0  0  0  0  0  0  0  0  0  0  0  0
    4.8950    3.4466    0.0000 C   0  0  0  0  0  0  0  0  0  0  0  0
    3.8684    3.0204    0.0000 C   0  0  0  0  0  0  0  0  0  0  0  0
  2  6  1  0  0  0  0
  3  2  3  0  0  0  0
  4  1  1  0  0  0  0
  5  1  1  0  0  0  0
  6  5  1  0  0  0  0
  7  1  2  0  0  0  0
  8  4  1  0  0  0  0
  9 13  2  0  0  0  0
 10  9  1  0  0  0  0
 11  8  1  0  0  0  0
 12  8  2  0  0  0  0
 13 12  1  0  0  0  0
 14 11  2  0  0  0  0
 14  9  1  0  0  0  0
 15  6  1  0  0  0  0
 16  6  1  0  0  0  0
M  END
> <CdId>
1622

> <Mol Weight>
221.2276

> <Formula>
C12H12FNO2

> <Click_ID>
CLK021_G07 __ __ 

$$$$
