CLK003_A09
 OpenBabel03181410512D

 28 30  0  0  0  0  0  0  0  0999 V2000
    0.7732   -0.1795    0.0000 C   0  0  0  0  0  0  0  0  0  0  0  0
    0.1035    0.3072    0.0000 S   0  0  0  0  0  0  0  0  0  0  0  0
    0.7663   -1.0045    0.0000 N   0  0  0  0  0  0  0  0  0  0  0  0
    1.4429    0.3003    0.0000 N   0  0  0  0  0  0  0  0  0  0  0  0
    0.3590    1.0978    0.0000 C   0  0  0  0  0  0  0  0  0  0  0  0
    1.4809   -1.4291    0.0000 C   0  0  0  0  0  0  0  0  0  0  0  0
    1.1841    1.0873    0.0000 C   0  0  0  0  0  0  0  0  0  0  0  0
    2.2230    0.0448    0.0000 C   0  0  0  0  0  0  0  0  0  0  0  0
   -0.1173    1.7605    0.0000 C   0  0  0  0  0  0  0  0  0  0  0  0
    1.4740   -2.2541    0.0000 C   0  0  0  0  0  0  0  0  0  0  0  0
    2.1954   -1.0149    0.0000 C   0  0  0  0  0  0  0  0  0  0  0  0
    1.6811    1.7501    0.0000 O   0  0  0  0  0  0  0  0  0  0  0  0
   -0.9424    1.6846    0.0000 C   0  0  0  0  0  0  0  0  0  0  0  0
    2.1816   -2.6718    0.0000 C   0  0  0  0  0  0  0  0  0  0  0  0
    2.9065   -1.4325    0.0000 C   0  0  0  0  0  0  0  0  0  0  0  0
   -1.2842    0.9320    0.0000 C   0  0  0  0  0  0  0  0  0  0  0  0
   -1.4187    2.3473    0.0000 C   0  0  0  0  0  0  0  0  0  0  0  0
    2.8997   -2.2576    0.0000 C   0  0  0  0  0  0  0  0  0  0  0  0
    2.1747   -3.4968    0.0000 C   0  0  0  0  0  0  0  0  0  0  0  0
   -2.1056    0.8492    0.0000 C   0  0  0  0  0  0  0  0  0  0  0  0
   -2.2369    2.2714    0.0000 C   0  0  0  0  0  0  0  0  0  0  0  0
    1.4567   -3.8972    0.0000 O   0  0  0  0  0  0  0  0  0  0  0  0
    2.8858   -3.9075    0.0000 O   0  0  0  0  0  0  0  0  0  0  0  0
   -2.5820    1.5223    0.0000 C   0  0  0  0  0  0  0  0  0  0  0  0
   -3.4002    1.4463    0.0000 O   0  0  0  0  0  0  0  0  0  0  0  0
   -3.8834    2.1229    0.0000 C   0  0  0  0  0  0  0  0  0  0  0  0
   -4.6981    2.0470    0.0000 C   0  0  0  0  0  0  0  0  0  0  0  0
   -5.5230    1.9711    0.0000 C   0  0  0  0  0  0  0  0  0  0  0  0
  1  2  1  0  0  0  0
  1  3  2  0  0  0  0
  1  4  1  0  0  0  0
  2  5  1  0  0  0  0
  3  6  1  0  0  0  0
  4  7  1  0  0  0  0
  4  8  1  0  0  0  0
  5  9  2  0  0  0  0
  5  7  1  0  0  0  0
  6 10  2  0  0  0  0
  6 11  1  0  0  0  0
  7 12  2  0  0  0  0
  9 13  1  0  0  0  0
 10 14  1  0  0  0  0
 11 15  2  0  0  0  0
 13 16  2  0  0  0  0
 13 17  1  0  0  0  0
 14 18  2  0  0  0  0
 14 19  1  0  0  0  0
 15 18  1  0  0  0  0
 16 20  1  0  0  0  0
 17 21  2  0  0  0  0
 19 22  1  0  0  0  0
 19 23  2  0  0  0  0
 20 24  2  0  0  0  0
 21 24  1  0  0  0  0
 24 25  1  0  0  0  0
 25 26  1  0  0  0  0
 26 27  1  0  0  0  0
 27 28  3  0  0  0  0
M  END
> <CdId>
168

> <Mol Weight>
392.428

> <Formula>
C21H16N2O4S

> <Click_ID>
CLK003_A09 __ __ 

$$$$
