CLK045B07
 OpenBabel03181410512D

 20 21  0  0  0  0  0  0  0  0999 V2000
   -0.0750   -0.6167    0.0000 S   0  0  0  0  0  0  0  0  0  0  0  0
    0.6417   -1.0292    0.0000 C   0  0  0  0  0  0  0  0  0  0  0  0
   -0.7875   -0.2042    0.0000 N   0  0  0  0  0  0  0  0  0  0  0  0
   -2.2167    2.2708    0.0000 C   0  0  0  0  0  0  0  0  0  0  0  0
   -0.4875   -1.3292    0.0000 O   0  0  0  0  0  0  0  0  0  0  0  0
    0.3375    0.0958    0.0000 O   0  0  0  0  0  0  0  0  0  0  0  0
   -2.9333    2.6833    0.0000 C   0  0  0  0  0  0  0  0  0  0  0  0
    1.3542   -0.6167    0.0000 C   0  0  0  0  0  0  0  0  0  0  0  0
    0.6417   -1.8542    0.0000 C   0  0  0  0  0  0  0  0  0  0  0  0
   -0.7875    0.6208    0.0000 C   0  0  0  0  0  0  0  0  0  0  0  0
    2.0708   -1.0292    0.0000 C   0  0  0  0  0  0  0  0  0  0  0  0
   -1.5042    1.8583    0.0000 C   0  0  0  0  0  0  0  0  0  0  0  0
   -1.5042    1.0333    0.0000 C   0  0  0  0  0  0  0  0  0  0  0  0
    1.3542   -2.2667    0.0000 C   0  0  0  0  0  0  0  0  0  0  0  0
    2.0708   -1.8542    0.0000 C   0  0  0  0  0  0  0  0  0  0  0  0
   -0.0750    1.8583    0.0000 C   0  0  0  0  0  0  0  0  0  0  0  0
   -0.0750    1.0333    0.0000 C   0  0  0  0  0  0  0  0  0  0  0  0
    1.3542    0.2083    0.0000 C   0  0  0  0  0  0  0  0  0  0  0  0
   -0.7875    2.2708    0.0000 C   0  0  0  0  0  0  0  0  0  0  0  0
    1.3542   -3.0917    0.0000 C   0  0  0  0  0  0  0  0  0  0  0  0
  2  1  1  0  0  0  0
  3  1  1  0  0  0  0
  4 12  1  0  0  0  0
  5  1  2  0  0  0  0
  6  1  2  0  0  0  0
  7  4  3  0  0  0  0
  8  2  2  0  0  0  0
  9  2  1  0  0  0  0
 10  3  1  0  0  0  0
 11  8  1  0  0  0  0
 11 15  2  0  0  0  0
 12 13  1  0  0  0  0
 13 10  2  0  0  0  0
 14  9  2  0  0  0  0
 15 14  1  0  0  0  0
 16 17  2  0  0  0  0
 17 10  1  0  0  0  0
 18  8  1  0  0  0  0
 19 12  2  0  0  0  0
 19 16  1  0  0  0  0
 20 14  1  0  0  0  0
M  END
> <CdId>
3450

> <Mol Weight>
285.361

> <Formula>
C16H15NO2S

> <Click_ID>
CLK045B07 __ __ 

$$$$
