CLK012_B04
 OpenBabel03181410512D

 24 26  0  0  0  0  0  0  0  0999 V2000
    1.5650   -0.8158    0.0000 N    0  0  0  0  0  0  0  0  0  0  0  0
    1.8230   -1.6024    0.0000 C    0  0  0  0  0  0  0  0  0  0  0  0
    2.9010   -0.8158    0.0000 C    0  0  0  0  0  0  0  0  0  0  0  0
    2.2350   -0.3288    0.0000 C    0  0  0  0  0  0  0  0  0  0  0  0
    2.6470   -1.6024    0.0000 S    0  0  0  0  0  0  0  0  0  0  0  0
    3.6876   -0.5619    0.0000 C    0  0  0  0  0  0  0  0  0  0  0  0
    5.4856   -1.6773    0.0000 C    0  0  0  0  0  0  0  0  0  0  0  0
    5.0943   -0.9614    0.0000 O    0  0  0  0  0  0  0  0  0  0  0  0
    4.2869   -1.1155    0.0000 C    0  0  0  0  0  0  0  0  0  0  0  0
    4.9362   -2.2767    0.0000 C    0  0  0  0  0  0  0  0  0  0  0  0
    6.2972   -1.7772    0.0000 C    0  0  0  0  0  0  0  0  0  0  0  0
    0.6118    0.2455    0.0000 C    0  0  0  0  0  0  0  0  0  0  0  0
    4.1995   -1.9520    0.0000 C    0  0  0  0  0  0  0  0  0  0  0  0
    7.6207   -1.2153    0.0000 C    0  0  0  0  0  0  0  0  0  0  0  0
    0.3913    1.0446    0.0000 C    0  0  0  0  0  0  0  0  0  0  0  0
    6.7966   -1.1279    0.0000 C    0  0  0  0  0  0  0  0  0  0  0  0
    1.3360   -2.2642    0.0000 O    0  0  0  0  0  0  0  0  0  0  0  0
    2.2267    0.4952    0.0000 O    0  0  0  0  0  0  0  0  0  0  0  0
    0.7866   -0.5619    0.0000 C    0  0  0  0  0  0  0  0  0  0  0  0
    7.9328   -1.9770    0.0000 C    0  0  0  0  0  0  0  0  0  0  0  0
    6.6218   -2.5389    0.0000 C    0  0  0  0  0  0  0  0  0  0  0  0
    7.4334   -2.6388    0.0000 C    0  0  0  0  0  0  0  0  0  0  0  0
    8.1077   -0.5661    0.0000 Cl   0  0  0  0  0  0  0  0  0  0  0  0
    8.7569   -2.0852    0.0000 Cl   0  0  0  0  0  0  0  0  0  0  0  0
  2  1  1  0  0  0  0
  3  4  1  0  0  0  0
  4  1  1  0  0  0  0
  5  2  1  0  0  0  0
  5  3  1  0  0  0  0
  6  3  2  0  0  0  0
  7  8  1  0  0  0  0
  8  9  1  0  0  0  0
  9  6  1  0  0  0  0
 10 13  1  0  0  0  0
 10  7  2  0  0  0  0
 11  7  1  0  0  0  0
 12 19  1  0  0  0  0
 13  9  2  0  0  0  0
 14 16  2  0  0  0  0
 15 12  3  0  0  0  0
 16 11  1  0  0  0  0
 17  2  2  0  0  0  0
 18  4  2  0  0  0  0
 19  1  1  0  0  0  0
 20 22  2  0  0  0  0
 20 14  1  0  0  0  0
 21 11  2  0  0  0  0
 22 21  1  0  0  0  0
 23 14  1  0  0  0  0
 24 20  1  0  0  0  0
M  END
> <CdId>
849

> <Mol Weight>
378.229

> <Formula>
C17H9Cl2NO3S

> <Click_ID>
CLK012_B04 __ __ 

$$$$
