CLK019_D06
 OpenBabel03181410512D

 24 24  0  0  0  0  0  0  0  0999 V2000
    5.0286    1.1276    0.0000 Cl   0  0  0  0  0  0  0  0  0  0  0  0
    4.3197    0.7171    0.0000 H    0  0  0  0  0  0  0  0  0  0  0  0
    7.7978   -3.4823    0.0000 C    0  0  0  0  0  0  0  0  0  0  0  0
    8.4943   -3.8969    0.0000 C    0  0  0  0  0  0  0  0  0  0  0  0
    5.6711   -2.2303    0.0000 C    0  0  0  0  0  0  0  0  0  0  0  0
    3.5362   -0.9742    0.0000 N    0  0  0  0  0  0  0  0  0  0  0  0
    5.6587   -3.0470    0.0000 C    0  0  0  0  0  0  0  0  0  0  0  0
    4.9622   -1.8075    0.0000 C    0  0  0  0  0  0  0  0  0  0  0  0
    2.8273   -0.5514    0.0000 C    0  0  3  0  0  0  0  0  0  0  0  0
    4.9415   -3.4491    0.0000 C    0  0  0  0  0  0  0  0  0  0  0  0
    2.1060   -0.9701    0.0000 C    0  0  0  0  0  0  0  0  0  0  0  0
    4.2451   -2.2179    0.0000 C    0  0  0  0  0  0  0  0  0  0  0  0
    3.5362   -1.7951    0.0000 C    0  0  0  0  0  0  0  0  0  0  0  0
    4.2327   -3.0263    0.0000 C    0  0  0  0  0  0  0  0  0  0  0  0
    6.4049   -1.8282    0.0000 O    0  0  0  0  0  0  0  0  0  0  0  0
    6.3676   -3.4616    0.0000 O    0  0  0  0  0  0  0  0  0  0  0  0
    7.0807   -3.0594    0.0000 C    0  0  0  0  0  0  0  0  0  0  0  0
    2.1060   -1.7951    0.0000 C    0  0  0  0  0  0  0  0  0  0  0  0
    1.3971   -0.5514    0.0000 C    0  0  0  0  0  0  0  0  0  0  0  0
    2.8273    0.2570    0.0000 C    0  0  0  0  0  0  0  0  0  0  0  0
    7.1138   -2.2510    0.0000 C    0  0  0  0  0  0  0  0  0  0  0  0
    0.6882   -0.9452    0.0000 C    0  0  0  0  0  0  0  0  0  0  0  0
    1.3929   -2.2013    0.0000 C    0  0  0  0  0  0  0  0  0  0  0  0
    0.6758   -1.7826    0.0000 C    0  0  0  0  0  0  0  0  0  0  0  0
  2  1  1  0  0  0  0
  4  3  3  0  0  0  0
  5  7  2  0  0  0  0
  6 13  1  0  0  0  0
  7 16  1  0  0  0  0
  8  5  1  0  0  0  0
  9  6  1  0  0  0  0
 10  7  1  0  0  0  0
 11  9  1  0  0  0  0
 12 14  1  0  0  0  0
 12  8  2  0  0  0  0
 13 12  1  0  0  0  0
 14 10  2  0  0  0  0
 15  5  1  0  0  0  0
 16 17  1  0  0  0  0
 17  3  1  0  0  0  0
 18 11  1  0  0  0  0
 19 11  2  0  0  0  0
 20  9  1  0  0  0  0
 21 15  1  0  0  0  0
 22 19  1  0  0  0  0
 22 24  2  0  0  0  0
 23 18  2  0  0  0  0
 24 23  1  0  0  0  0
M  END
> <CdId>
1431

> <Mol Weight>
331.836

> <Formula>
C19H22ClNO2

> <Click_ID>
CLK019_D06 __ __ 

$$$$
