CLK026_F05
 OpenBabel03181410512D

 25 27  0  0  0  0  0  0  0  0999 V2000
   -3.0328    0.1995    0.0000 N    0  0  0  0  0  0  0  0  0  0  0  0
   -2.7749   -0.5880    0.0000 C    0  0  0  0  0  0  0  0  0  0  0  0
   -1.6953    0.1995    0.0000 C    0  0  0  0  0  0  0  0  0  0  0  0
   -2.3623    0.6877    0.0000 C    0  0  0  0  0  0  0  0  0  0  0  0
    0.9284   -0.6361    0.0000 N    0  0  0  0  0  0  0  0  0  0  0  0
   -0.2957   -0.0963    0.0000 C    0  0  0  0  0  0  0  0  0  0  0  0
   -1.9497   -0.5880    0.0000 S    0  0  0  0  0  0  0  0  0  0  0  0
    0.3679   -1.2517    0.0000 C    0  0  0  0  0  0  0  0  0  0  0  0
    0.5158    0.0757    0.0000 C    0  0  0  0  0  0  0  0  0  0  0  0
   -0.9078    0.4539    0.0000 C    0  0  0  0  0  0  0  0  0  0  0  0
   -0.3748   -0.9113    0.0000 C    0  0  0  0  0  0  0  0  0  0  0  0
    1.7502   -0.7324    0.0000 C    0  0  0  0  0  0  0  0  0  0  0  0
   -3.9854    1.2620    0.0000 C    0  0  0  0  0  0  0  0  0  0  0  0
   -4.2054    2.0597    0.0000 C    0  0  0  0  0  0  0  0  0  0  0  0
   -3.2598   -1.2517    0.0000 O    0  0  0  0  0  0  0  0  0  0  0  0
   -2.3692    1.5130    0.0000 O    0  0  0  0  0  0  0  0  0  0  0  0
   -3.8100    0.4539    0.0000 C    0  0  0  0  0  0  0  0  0  0  0  0
    2.2420   -0.0757    0.0000 C    0  0  0  0  0  0  0  0  0  0  0  0
    2.0735   -1.4993    0.0000 C    0  0  0  0  0  0  0  0  0  0  0  0
    3.3870   -0.9387    0.0000 C    0  0  0  0  0  0  0  0  0  0  0  0
    0.5364   -2.0563    0.0000 C    0  0  0  0  0  0  0  0  0  0  0  0
    0.8527    0.8287    0.0000 C    0  0  0  0  0  0  0  0  0  0  0  0
    2.8919   -1.5955    0.0000 C    0  0  0  0  0  0  0  0  0  0  0  0
    3.0603   -0.1719    0.0000 C    0  0  0  0  0  0  0  0  0  0  0  0
    4.2020   -1.0247    0.0000 Cl   0  0  0  0  0  0  0  0  0  0  0  0
  2  1  1  0  0  0  0
  3  4  1  0  0  0  0
  4  1  1  0  0  0  0
  5  9  1  0  0  0  0
  6 10  1  0  0  0  0
  7  2  1  0  0  0  0
  7  3  1  0  0  0  0
  8 11  2  0  0  0  0
  8  5  1  0  0  0  0
  9  6  2  0  0  0  0
 10  3  2  0  0  0  0
 11  6  1  0  0  0  0
 12  5  1  0  0  0  0
 13 17  1  0  0  0  0
 14 13  3  0  0  0  0
 15  2  2  0  0  0  0
 16  4  2  0  0  0  0
 17  1  1  0  0  0  0
 18 12  1  0  0  0  0
 19 12  2  0  0  0  0
 20 23  2  0  0  0  0
 20 24  1  0  0  0  0
 21  8  1  0  0  0  0
 22  9  1  0  0  0  0
 23 19  1  0  0  0  0
 24 18  2  0  0  0  0
 25 20  1  0  0  0  0
M  END
> <CdId>
1990

> <Mol Weight>
370.853

> <Formula>
C19H15ClN2O2S

> <Click_ID>
CLK026_F05 __ __ 

$$$$
