CLK046E02
 OpenBabel03181410512D

 22 22  0  0  0  0  0  0  0  0999 V2000
    0.5167    0.0000    0.0000 C   0  0  0  0  0  0  0  0  0  0  0  0
    0.5167    0.8250    0.0000 N   0  0  0  0  0  0  0  0  0  0  0  0
    1.2333   -0.4125    0.0000 C   0  0  0  0  0  0  0  0  0  0  0  0
    1.2333    1.2375    0.0000 C   0  0  0  0  0  0  0  0  0  0  0  0
    1.9458    0.8250    0.0000 N   0  0  0  0  0  0  0  0  0  0  0  0
    1.9458    0.0000    0.0000 C   0  0  0  0  0  0  0  0  0  0  0  0
    1.2333   -1.2375    0.0000 C   0  0  0  0  0  0  0  0  0  0  0  0
   -0.1958   -0.4125    0.0000 S   0  0  0  0  0  0  0  0  0  0  0  0
   -3.7708    0.0000    0.0000 C   0  0  0  0  0  0  0  0  0  0  0  0
   -4.4833    0.4125    0.0000 C   0  0  0  0  0  0  0  0  0  0  0  0
   -1.6250   -0.4125    0.0000 C   0  0  0  0  0  0  0  0  0  0  0  0
    1.9458   -1.6500    0.0000 O   0  0  0  0  0  0  0  0  0  0  0  0
   -1.6250   -1.2375    0.0000 O   0  0  0  0  0  0  0  0  0  0  0  0
    1.2333    2.0625    0.0000 C   0  0  0  0  0  0  0  0  0  0  0  0
   -0.9125    0.0000    0.0000 C   0  0  0  0  0  0  0  0  0  0  0  0
   -2.3417    0.0000    0.0000 N   0  0  0  0  0  0  0  0  0  0  0  0
    0.5167   -1.6500    0.0000 O   0  0  0  0  0  0  0  0  0  0  0  0
   -3.0542   -0.4125    0.0000 C   0  0  0  0  0  0  0  0  0  0  0  0
    2.6625   -0.4125    0.0000 C   0  0  0  0  0  0  0  0  0  0  0  0
    0.5167    2.4750    0.0000 C   0  0  0  0  0  0  0  0  0  0  0  0
    1.9458    2.4750    0.0000 C   0  0  0  0  0  0  0  0  0  0  0  0
    0.5167   -2.4750    0.0000 C   0  0  0  0  0  0  0  0  0  0  0  0
  2  1  1  0  0  0  0
  3  1  2  0  0  0  0
  4  2  2  0  0  0  0
  4  5  1  0  0  0  0
  5  6  2  0  0  0  0
  6  3  1  0  0  0  0
  7  3  1  0  0  0  0
  8  1  1  0  0  0  0
  9 18  1  0  0  0  0
 10  9  3  0  0  0  0
 11 15  1  0  0  0  0
 12  7  2  0  0  0  0
 13 11  2  0  0  0  0
 14  4  1  0  0  0  0
 15  8  1  0  0  0  0
 16 11  1  0  0  0  0
 17  7  1  0  0  0  0
 18 16  1  0  0  0  0
 19  6  1  0  0  0  0
 20 14  1  0  0  0  0
 21 14  1  0  0  0  0
 22 17  1  0  0  0  0
M  END
> <CdId>
3493

> <Mol Weight>
321.395

> <Formula>
C15H19N3O3S

> <Click_ID>
CLK046E02 __ __ 

$$$$
