CLK037C04
 OpenBabel03181410512D

 26 28  0  0  0  0  0  0  0  0999 V2000
   -0.2500   -0.3958    0.0000 N   0  0  0  0  0  0  0  0  0  0  0  0
   -0.2500    0.4292    0.0000 C   0  0  0  0  0  0  0  0  0  0  0  0
   -0.9625    0.8417    0.0000 C   0  0  0  0  0  0  0  0  0  0  0  0
   -0.9625   -0.8083    0.0000 C   0  0  0  0  0  0  0  0  0  0  0  0
   -1.6792    0.4292    0.0000 C   0  0  0  0  0  0  0  0  0  0  0  0
   -1.6792   -0.3958    0.0000 C   0  0  0  0  0  0  0  0  0  0  0  0
    0.4667   -0.8083    0.0000 C   0  0  0  0  0  0  0  0  0  0  0  0
   -0.9625    1.6667    0.0000 C   0  0  0  0  0  0  0  0  0  0  0  0
    0.4667    3.3167    0.0000 C   0  0  0  0  0  0  0  0  0  0  0  0
    1.1792    3.7292    0.0000 C   0  0  0  0  0  0  0  0  0  0  0  0
    0.4667    0.8417    0.0000 O   0  0  0  0  0  0  0  0  0  0  0  0
   -0.9625   -1.6333    0.0000 O   0  0  0  0  0  0  0  0  0  0  0  0
    0.4667   -1.6333    0.0000 C   0  0  0  0  0  0  0  0  0  0  0  0
    1.1792   -0.3958    0.0000 C   0  0  0  0  0  0  0  0  0  0  0  0
   -0.2500    2.0792    0.0000 N   0  0  0  0  0  0  0  0  0  0  0  0
    1.8958   -1.6333    0.0000 C   0  0  0  0  0  0  0  0  0  0  0  0
    1.8958   -0.8083    0.0000 C   0  0  0  0  0  0  0  0  0  0  0  0
    1.1792   -2.0458    0.0000 C   0  0  0  0  0  0  0  0  0  0  0  0
   -0.2500    2.9042    0.0000 C   0  0  0  0  0  0  0  0  0  0  0  0
   -2.3917    0.8417    0.0000 C   0  0  0  0  0  0  0  0  0  0  0  0
   -2.3917   -0.8083    0.0000 C   0  0  0  0  0  0  0  0  0  0  0  0
    2.6083   -2.0458    0.0000 O   0  0  0  0  0  0  0  0  0  0  0  0
    3.3250   -1.6333    0.0000 C   0  0  0  0  0  0  0  0  0  0  0  0
   -3.1083    0.4292    0.0000 C   0  0  0  0  0  0  0  0  0  0  0  0
   -3.1083   -0.3958    0.0000 C   0  0  0  0  0  0  0  0  0  0  0  0
    4.0375   -2.0458    0.0000 C   0  0  0  0  0  0  0  0  0  0  0  0
  2  1  1  0  0  0  0
  3  2  1  0  0  0  0
  4  1  1  0  0  0  0
  5  6  2  0  0  0  0
  5  3  1  0  0  0  0
  6  4  1  0  0  0  0
  7  1  1  0  0  0  0
  8  3  2  0  0  0  0
  9 19  1  0  0  0  0
 10  9  3  0  0  0  0
 11  2  2  0  0  0  0
 12  4  2  0  0  0  0
 13  7  2  0  0  0  0
 14  7  1  0  0  0  0
 15  8  1  0  0  0  0
 16 18  2  0  0  0  0
 17 14  2  0  0  0  0
 17 16  1  0  0  0  0
 18 13  1  0  0  0  0
 19 15  1  0  0  0  0
 20  5  1  0  0  0  0
 21  6  1  0  0  0  0
 22 16  1  0  0  0  0
 23 22  1  0  0  0  0
 24 20  2  0  0  0  0
 25 21  2  0  0  0  0
 25 24  1  0  0  0  0
 26 23  1  0  0  0  0
M  END
> <CdId>
2787

> <Mol Weight>
346.3792

> <Formula>
C21H18N2O3

> <Click_ID>
CLK037C04 __ __ 

$$$$
