CLK004_E10
 OpenBabel03181410512D

 24 26  0  0  0  0  0  0  0  0999 V2000
    0.6524    0.2934    0.0000 C   0  0  3  0  0  0  0  0  0  0  0  0
    1.0564   -0.4177    0.0000 C   0  0  0  0  0  0  0  0  0  0  0  0
   -0.1726    0.2934    0.0000 C   0  0  0  0  0  0  0  0  0  0  0  0
    1.0633    0.9977    0.0000 C   0  0  0  0  0  0  0  0  0  0  0  0
    1.8814   -0.4177    0.0000 C   0  0  0  0  0  0  0  0  0  0  0  0
    0.6421   -1.1322    0.0000 C   0  0  0  0  0  0  0  0  0  0  0  0
   -0.5868   -0.4073    0.0000 C   0  0  0  0  0  0  0  0  0  0  0  0
   -0.5834    1.0183    0.0000 C   0  0  0  0  0  0  0  0  0  0  0  0
    1.8814    0.9942    0.0000 C   0  0  0  0  0  0  0  0  0  0  0  0
    0.6559    1.7191    0.0000 C   0  0  0  0  0  0  0  0  0  0  0  0
    2.2956    0.2831    0.0000 O   0  0  0  0  0  0  0  0  0  0  0  0
    2.2956   -1.1322    0.0000 C   0  0  0  0  0  0  0  0  0  0  0  0
    1.0564   -1.8537    0.0000 C   0  0  0  0  0  0  0  0  0  0  0  0
   -1.4084   -0.4073    0.0000 C   0  0  0  0  0  0  0  0  0  0  0  0
   -1.4015    1.0183    0.0000 C   0  0  0  0  0  0  0  0  0  0  0  0
    2.3025    1.7088    0.0000 N   0  0  0  0  0  0  0  0  0  0  0  0
    0.2555    2.4337    0.0000 N   0  0  0  0  0  0  0  0  0  0  0  0
    1.8918   -1.8468    0.0000 C   0  0  0  0  0  0  0  0  0  0  0  0
   -1.8261    0.3072    0.0000 C   0  0  0  0  0  0  0  0  0  0  0  0
    2.3094   -2.5683    0.0000 O   0  0  0  0  0  0  0  0  0  0  0  0
   -2.6477    0.3072    0.0000 O   0  0  0  0  0  0  0  0  0  0  0  0
   -3.0516   -0.3935    0.0000 C   0  0  0  0  0  0  0  0  0  0  0  0
   -3.8732   -0.4038    0.0000 C   0  0  0  0  0  0  0  0  0  0  0  0
   -4.6913   -0.3935    0.0000 C   0  0  0  0  0  0  0  0  0  0  0  0
  1  2  1  0  0  0  0
  1  3  1  0  0  0  0
  1  4  1  0  0  0  0
  2  5  2  0  0  0  0
  2  6  1  0  0  0  0
  3  7  1  0  0  0  0
  3  8  2  0  0  0  0
  4  9  2  0  0  0  0
  4 10  1  0  0  0  0
  5 11  1  0  0  0  0
  5 12  1  0  0  0  0
  6 13  2  0  0  0  0
  7 14  2  0  0  0  0
  8 15  1  0  0  0  0
  9 16  1  0  0  0  0
  9 11  1  0  0  0  0
 10 17  3  0  0  0  0
 12 18  2  0  0  0  0
 13 18  1  0  0  0  0
 14 19  1  0  0  0  0
 15 19  2  0  0  0  0
 18 20  1  0  0  0  0
 19 21  1  0  0  0  0
 21 22  1  0  0  0  0
 22 23  1  0  0  0  0
 23 24  3  0  0  0  0
M  END
> <CdId>
289

> <Mol Weight>
318.3261

> <Formula>
C19H14N2O3

> <Click_ID>
CLK004_E10 __ __ 

$$$$
