CLK002_F11
 OpenBabel03181410512D

 29 32  0  0  0  0  0  0  0  0999 V2000
   -1.6231   -0.2242    0.0000 N   0  0  0  0  0  0  0  0  0  0  0  0
   -2.4100    0.0304    0.0000 C   0  0  0  0  0  0  0  0  0  0  0  0
   -1.1404    0.4409    0.0000 C   0  0  0  0  0  0  0  0  0  0  0  0
   -1.1404   -0.8933    0.0000 C   0  0  0  0  0  0  0  0  0  0  0  0
   -2.4100    0.8553    0.0000 C   0  0  0  0  0  0  0  0  0  0  0  0
   -3.1247   -0.3840    0.0000 C   0  0  0  0  0  0  0  0  0  0  0  0
   -1.6231    1.1024    0.0000 N   0  0  0  0  0  0  0  0  0  0  0  0
   -0.3459    0.1900    0.0000 S   0  0  0  0  0  0  0  0  0  0  0  0
   -0.3459   -0.6386    0.0000 C   0  0  0  0  0  0  0  0  0  0  0  0
   -1.3913   -1.6688    0.0000 O   0  0  0  0  0  0  0  0  0  0  0  0
   -3.1247    1.2659    0.0000 C   0  0  0  0  0  0  0  0  0  0  0  0
   -3.8279    0.0304    0.0000 C   0  0  0  0  0  0  0  0  0  0  0  0
    0.3194   -1.1176    0.0000 C   0  0  0  0  0  0  0  0  0  0  0  0
   -3.8279    0.8553    0.0000 C   0  0  0  0  0  0  0  0  0  0  0  0
   -4.5463   -0.3840    0.0000 C   0  0  0  0  0  0  0  0  0  0  0  0
    1.0719   -0.7830    0.0000 C   0  0  0  0  0  0  0  0  0  0  0  0
   -4.5463    1.2659    0.0000 C   0  0  0  0  0  0  0  0  0  0  0  0
    1.1594    0.0418    0.0000 C   0  0  0  0  0  0  0  0  0  0  0  0
    1.7372   -1.2659    0.0000 C   0  0  0  0  0  0  0  0  0  0  0  0
    1.9158    0.3840    0.0000 C   0  0  0  0  0  0  0  0  0  0  0  0
    2.4974   -0.9275    0.0000 C   0  0  0  0  0  0  0  0  0  0  0  0
    2.5887   -0.1102    0.0000 C   0  0  0  0  0  0  0  0  0  0  0  0
    1.9995    1.2013    0.0000 O   0  0  0  0  0  0  0  0  0  0  0  0
    3.1664   -1.4103    0.0000 I   0  0  0  0  0  0  0  0  0  0  0  0
    3.3375    0.2318    0.0000 O   0  0  0  0  0  0  0  0  0  0  0  0
    1.3381    1.6840    0.0000 C   0  0  0  0  0  0  0  0  0  0  0  0
    4.0066   -0.2585    0.0000 C   0  0  0  0  0  0  0  0  0  0  0  0
    4.7668    0.0798    0.0000 C   0  0  0  0  0  0  0  0  0  0  0  0
    5.5232    0.4105    0.0000 C   0  0  0  0  0  0  0  0  0  0  0  0
  1  2  1  0  0  0  0
  1  3  1  0  0  0  0
  1  4  1  0  0  0  0
  2  5  2  0  0  0  0
  2  6  1  0  0  0  0
  3  7  2  0  0  0  0
  3  8  1  0  0  0  0
  4  9  1  0  0  0  0
  4 10  2  0  0  0  0
  5 11  1  0  0  0  0
  5  7  1  0  0  0  0
  6 12  2  0  0  0  0
  8  9  1  0  0  0  0
  9 13  2  0  0  0  0
 11 14  2  0  0  0  0
 12 15  1  0  0  0  0
 12 14  1  0  0  0  0
 13 16  1  0  0  0  0
 14 17  1  0  0  0  0
 16 18  1  0  0  0  0
 16 19  2  0  0  0  0
 18 20  2  0  0  0  0
 19 21  1  0  0  0  0
 20 22  1  0  0  0  0
 20 23  1  0  0  0  0
 21 24  1  0  0  0  0
 21 22  2  0  0  0  0
 22 25  1  0  0  0  0
 23 26  1  0  0  0  0
 25 27  1  0  0  0  0
 27 28  1  0  0  0  0
 28 29  3  0  0  0  0
M  END
> <CdId>
140

> <Mol Weight>
516.351

> <Formula>
C22H17IN2O3S

> <Click_ID>
CLK002_F11 __ __ 

$$$$
