CLK051C08
 OpenBabel03181410512D

 21 22  0  0  0  0  0  0  0  0999 V2000
    0.0083   -2.0458    0.0000 C   0  0  0  0  0  0  0  0  0  0  0  0
   -0.7083   -0.8083    0.0000 N   0  0  0  0  0  0  0  0  0  0  0  0
    0.0083   -2.8708    0.0000 N   0  0  0  0  0  0  0  0  0  0  0  0
   -0.7083   -1.6333    0.0000 C   0  0  3  0  0  0  0  0  0  0  0  0
   -0.7083    0.8417    0.0000 N   0  0  0  0  0  0  0  0  0  0  0  0
    0.7208   -3.2833    0.0000 C   0  0  0  0  0  0  0  0  0  0  0  0
    0.7208    4.1375    0.0000 C   0  0  0  0  0  0  0  0  0  0  0  0
    0.7208    4.9625    0.0000 C   0  0  0  0  0  0  0  0  0  0  0  0
    0.0083    2.0792    0.0000 C   0  0  0  0  0  0  0  0  0  0  0  0
    1.1333   -4.0000    0.0000 C   0  0  0  0  0  0  0  0  0  0  0  0
    1.5458   -3.2833    0.0000 C   0  0  0  0  0  0  0  0  0  0  0  0
    0.7208   -1.6333    0.0000 O   0  0  0  0  0  0  0  0  0  0  0  0
    0.0083   -0.3958    0.0000 C   0  0  0  0  0  0  0  0  0  0  0  0
   -1.4208   -0.3958    0.0000 C   0  0  0  0  0  0  0  0  0  0  0  0
   -0.7083    1.6667    0.0000 C   0  0  0  0  0  0  0  0  0  0  0  0
    0.7208    1.6667    0.0000 O   0  0  0  0  0  0  0  0  0  0  0  0
   -1.4208    0.4292    0.0000 C   0  0  0  0  0  0  0  0  0  0  0  0
    0.0083    0.4292    0.0000 C   0  0  0  0  0  0  0  0  0  0  0  0
    0.0083    2.9042    0.0000 N   0  0  0  0  0  0  0  0  0  0  0  0
    0.7208    3.3167    0.0000 C   0  0  0  0  0  0  0  0  0  0  0  0
   -1.4208   -2.0458    0.0000 C   0  0  0  0  0  0  0  0  0  0  0  0
  2  4  1  0  0  0  0
  3  1  1  0  0  0  0
  4  1  1  0  0  0  0
  5 17  1  0  0  0  0
  5 18  1  0  0  0  0
  6  3  1  0  0  0  0
  7 20  1  0  0  0  0
  8  7  3  0  0  0  0
  9 15  1  0  0  0  0
 10  6  1  0  0  0  0
 11  6  1  0  0  0  0
 11 10  1  0  0  0  0
 12  1  2  0  0  0  0
 13  2  1  0  0  0  0
 14  2  1  0  0  0  0
 15  5  1  0  0  0  0
 16  9  2  0  0  0  0
 17 14  1  0  0  0  0
 18 13  1  0  0  0  0
 19  9  1  0  0  0  0
 20 19  1  0  0  0  0
 21  4  1  0  0  0  0
M  END
> <CdId>
3939

> <Mol Weight>
292.3767

> <Formula>
C15H24N4O2

> <Click_ID>
CLK051C08 __ __ 

$$$$
