CLK003_F09
 OpenBabel03181410512D

 14 15  0  0  0  0  0  0  0  0999 V2000
   -0.5092    0.0620    0.0000 C   0  0  0  0  0  0  0  0  0  0  0  0
   -0.5092    0.8856    0.0000 C   0  0  0  0  0  0  0  0  0  0  0  0
    0.2081   -0.3454    0.0000 C   0  0  0  0  0  0  0  0  0  0  0  0
   -1.2309   -0.3454    0.0000 N   0  0  0  0  0  0  0  0  0  0  0  0
    0.2081    1.2972    0.0000 C   0  0  0  0  0  0  0  0  0  0  0  0
   -1.2309    1.2972    0.0000 C   0  0  0  0  0  0  0  0  0  0  0  0
    0.9298    0.0620    0.0000 C   0  0  0  0  0  0  0  0  0  0  0  0
    0.2081   -1.1688    0.0000 S   0  0  0  0  0  0  0  0  0  0  0  0
   -1.9481    0.0620    0.0000 C   0  0  0  0  0  0  0  0  0  0  0  0
    0.9298    0.8856    0.0000 C   0  0  0  0  0  0  0  0  0  0  0  0
   -1.9481    0.8856    0.0000 C   0  0  0  0  0  0  0  0  0  0  0  0
    0.9298   -1.5806    0.0000 C   0  0  0  0  0  0  0  0  0  0  0  0
    1.6338   -1.1954    0.0000 C   0  0  0  0  0  0  0  0  0  0  0  0
    2.3290   -0.8102    0.0000 C   0  0  0  0  0  0  0  0  0  0  0  0
  1  2  1  0  0  0  0
  1  3  2  0  0  0  0
  1  4  1  0  0  0  0
  2  5  2  0  0  0  0
  2  6  1  0  0  0  0
  3  7  1  0  0  0  0
  3  8  1  0  0  0  0
  4  9  2  0  0  0  0
  5 10  1  0  0  0  0
  6 11  2  0  0  0  0
  7 10  2  0  0  0  0
  8 12  1  0  0  0  0
  9 11  1  0  0  0  0
 12 13  1  0  0  0  0
 13 14  3  0  0  0  0
M  END
> <CdId>
218

> <Mol Weight>
199.272

> <Formula>
C12H9NS

> <Click_ID>
CLK003_F09 __ __ 

$$$$
