CLK048G07
 OpenBabel03181410512D

 22 24  0  0  0  0  0  0  0  0999 V2000
   -1.4250   -0.8083    0.0000 C   0  0  0  0  0  0  0  0  0  0  0  0
   -1.9083   -0.1417    0.0000 N   0  0  0  0  0  0  0  0  0  0  0  0
   -1.9083   -1.4792    0.0000 S   0  0  0  0  0  0  0  0  0  0  0  0
   -2.6917   -0.3958    0.0000 C   0  0  0  0  0  0  0  0  0  0  0  0
   -2.6917   -1.2208    0.0000 C   0  0  0  0  0  0  0  0  0  0  0  0
    3.5250    2.0500    0.0000 C   0  0  0  0  0  0  0  0  0  0  0  0
    3.9375    2.7625    0.0000 C   0  0  0  0  0  0  0  0  0  0  0  0
    0.6375   -0.0958    0.0000 C   0  0  0  0  0  0  0  0  0  0  0  0
   -0.6000   -0.8083    0.0000 S   0  0  0  0  0  0  0  0  0  0  0  0
    1.0500    0.6208    0.0000 N   0  0  0  0  0  0  0  0  0  0  0  0
    1.8750    0.6208    0.0000 C   0  0  0  0  0  0  0  0  0  0  0  0
    1.0500   -0.8083    0.0000 O   0  0  0  0  0  0  0  0  0  0  0  0
    3.1125    1.3333    0.0000 C   0  0  0  0  0  0  0  0  0  0  0  0
   -0.1875   -0.0958    0.0000 C   0  0  0  0  0  0  0  0  0  0  0  0
    2.2875    1.3333    0.0000 C   0  0  0  0  0  0  0  0  0  0  0  0
   -3.4083    0.0167    0.0000 C   0  0  0  0  0  0  0  0  0  0  0  0
    3.1125   -0.0958    0.0000 C   0  0  0  0  0  0  0  0  0  0  0  0
   -3.4083   -1.6333    0.0000 C   0  0  0  0  0  0  0  0  0  0  0  0
    2.2875   -0.0958    0.0000 C   0  0  0  0  0  0  0  0  0  0  0  0
    3.5250    0.6208    0.0000 C   0  0  0  0  0  0  0  0  0  0  0  0
   -4.1208   -0.3958    0.0000 C   0  0  0  0  0  0  0  0  0  0  0  0
   -4.1208   -1.2208    0.0000 C   0  0  0  0  0  0  0  0  0  0  0  0
  2  1  2  0  0  0  0
  3  1  1  0  0  0  0
  4  2  1  0  0  0  0
  5  3  1  0  0  0  0
  5  4  2  0  0  0  0
  6 13  1  0  0  0  0
  7  6  3  0  0  0  0
  8 14  1  0  0  0  0
  9  1  1  0  0  0  0
 10  8  1  0  0  0  0
 11 10  1  0  0  0  0
 12  8  2  0  0  0  0
 13 15  1  0  0  0  0
 14  9  1  0  0  0  0
 15 11  2  0  0  0  0
 16  4  1  0  0  0  0
 17 19  2  0  0  0  0
 18  5  1  0  0  0  0
 19 11  1  0  0  0  0
 20 13  2  0  0  0  0
 20 17  1  0  0  0  0
 21 16  2  0  0  0  0
 22 18  2  0  0  0  0
 22 21  1  0  0  0  0
M  END
> <CdId>
3695

> <Mol Weight>
324.42

> <Formula>
C17H12N2OS2

> <Click_ID>
CLK048G07 __ __ 

$$$$
