CLK023_H02
 OpenBabel03181410512D

 29 31  0  0  0  0  0  0  0  0999 V2000
   -2.0041    0.5053    0.0000 N    0  0  0  0  0  0  0  0  0  0  0  0
   -1.1859    0.5088    0.0000 C    0  0  0  0  0  0  0  0  0  0  0  0
   -2.2653   -0.2750    0.0000 C    0  0  0  0  0  0  0  0  0  0  0  0
   -1.6053   -0.7596    0.0000 C    0  0  0  0  0  0  0  0  0  0  0  0
   -0.9316   -0.2784    0.0000 N    0  0  0  0  0  0  0  0  0  0  0  0
   -1.6981   -1.5813    0.0000 C    0  0  0  0  0  0  0  0  0  0  0  0
    0.2991   -3.0421    0.0000 C    0  0  0  0  0  0  0  0  0  0  0  0
   -0.4469   -3.3790    0.0000 C    0  0  0  0  0  0  0  0  0  0  0  0
    0.3850   -2.2275    0.0000 C    0  0  0  0  0  0  0  0  0  0  0  0
   -1.0312   -2.0693    0.0000 C    0  0  0  0  0  0  0  0  0  0  0  0
   -2.4818    1.1825    0.0000 C    0  0  0  0  0  0  0  0  0  0  0  0
    2.3856   -3.6884    0.0000 C    0  0  0  0  0  0  0  0  0  0  0  0
    3.0490   -4.1730    0.0000 C    0  0  0  0  0  0  0  0  0  0  0  0
   -0.7116    1.1894    0.0000 O    0  0  0  0  0  0  0  0  0  0  0  0
   -3.0525   -0.5225    0.0000 O    0  0  0  0  0  0  0  0  0  0  0  0
   -1.1206   -2.8909    0.0000 C    0  0  0  0  0  0  0  0  0  0  0  0
   -0.2853   -1.7428    0.0000 C    0  0  0  0  0  0  0  0  0  0  0  0
   -0.5362   -4.2006    0.0000 Br   0  0  0  0  0  0  0  0  0  0  0  0
   -2.1415    1.9353    0.0000 C    0  0  0  0  0  0  0  0  0  0  0  0
    0.9659   -3.5337    0.0000 O    0  0  0  0  0  0  0  0  0  0  0  0
    1.1447   -1.8975    0.0000 O    0  0  0  0  0  0  0  0  0  0  0  0
   -1.4575    3.4306    0.0000 C    0  0  0  0  0  0  0  0  0  0  0  0
   -1.1103    4.2006    0.0000 Br   0  0  0  0  0  0  0  0  0  0  0  0
   -1.3200    2.0109    0.0000 C    0  0  0  0  0  0  0  0  0  0  0  0
   -2.6125    2.6022    0.0000 C    0  0  0  0  0  0  0  0  0  0  0  0
   -2.2790    3.3515    0.0000 C    0  0  0  0  0  0  0  0  0  0  0  0
   -0.9694    2.7569    0.0000 C    0  0  0  0  0  0  0  0  0  0  0  0
    1.7187   -3.2037    0.0000 C    0  0  0  0  0  0  0  0  0  0  0  0
    1.8047   -2.3822    0.0000 C    0  0  0  0  0  0  0  0  0  0  0  0
  2  1  1  0  0  0  0
  3  1  1  0  0  0  0
  4  3  1  0  0  0  0
  5  2  1  0  0  0  0
  5  4  1  0  0  0  0
  6  4  2  0  0  0  0
  7  9  1  0  0  0  0
  7  8  2  0  0  0  0
  8 16  1  0  0  0  0
  9 17  2  0  0  0  0
 10  6  1  0  0  0  0
 11  1  1  0  0  0  0
 12 28  1  0  0  0  0
 13 12  3  0  0  0  0
 14  2  2  0  0  0  0
 15  3  2  0  0  0  0
 16 10  2  0  0  0  0
 17 10  1  0  0  0  0
 18  8  1  0  0  0  0
 19 11  1  0  0  0  0
 20  7  1  0  0  0  0
 21  9  1  0  0  0  0
 22 26  1  0  0  0  0
 22 27  2  0  0  0  0
 23 22  1  0  0  0  0
 24 19  2  0  0  0  0
 25 19  1  0  0  0  0
 26 25  2  0  0  0  0
 27 24  1  0  0  0  0
 28 20  1  0  0  0  0
 29 21  1  0  0  0  0
M  END
> <CdId>
1767

> <Mol Weight>
520.171

> <Formula>
C21H16Br2N2O4

> <Click_ID>
CLK023_H02 __ __ 

$$$$
