CLK007_C10
 OpenBabel03181410512D

 25 27  0  0  0  0  0  0  0  0999 V2000
    0.7152   -0.2176    0.0000 C   0  0  3  0  0  0  0  0  0  0  0  0
    0.0000   -0.6288    0.0000 C   0  0  0  0  0  0  0  0  0  0  0  0
    0.7152    0.6115    0.0000 C   0  0  0  0  0  0  0  0  0  0  0  0
    1.4269   -0.6219    0.0000 C   0  0  0  0  0  0  0  0  0  0  0  0
    0.0000   -1.4477    0.0000 C   0  0  0  0  0  0  0  0  0  0  0  0
   -0.7117   -0.2073    0.0000 C   0  0  0  0  0  0  0  0  0  0  0  0
    1.4269    1.0227    0.0000 C   0  0  0  0  0  0  0  0  0  0  0  0
    0.0000    1.0192    0.0000 C   0  0  0  0  0  0  0  0  0  0  0  0
    1.4269   -1.4477    0.0000 C   0  0  0  0  0  0  0  0  0  0  0  0
   -0.7117   -1.8623    0.0000 N   0  0  0  0  0  0  0  0  0  0  0  0
    0.7152   -1.8623    0.0000 N   0  0  0  0  0  0  0  0  0  0  0  0
   -1.4200   -0.6288    0.0000 N   0  0  0  0  0  0  0  0  0  0  0  0
   -0.7117    0.6184    0.0000 O   0  0  0  0  0  0  0  0  0  0  0  0
    1.4235    1.8485    0.0000 C   0  0  0  0  0  0  0  0  0  0  0  0
   -0.0103    1.8381    0.0000 C   0  0  0  0  0  0  0  0  0  0  0  0
    2.1421   -1.8623    0.0000 O   0  0  0  0  0  0  0  0  0  0  0  0
   -1.4200   -1.4581    0.0000 C   0  0  0  0  0  0  0  0  0  0  0  0
    0.7117    2.2597    0.0000 C   0  0  0  0  0  0  0  0  0  0  0  0
    2.1421    2.2631    0.0000 O   0  0  0  0  0  0  0  0  0  0  0  0
   -2.1421   -1.8692    0.0000 S   0  0  0  0  0  0  0  0  0  0  0  0
    0.7014    3.0854    0.0000 O   0  0  0  0  0  0  0  0  0  0  0  0
    2.8573    1.8485    0.0000 C   0  0  0  0  0  0  0  0  0  0  0  0
   -2.8539   -1.4581    0.0000 C   0  0  0  0  0  0  0  0  0  0  0  0
   -2.8539   -0.6288    0.0000 C   0  0  0  0  0  0  0  0  0  0  0  0
   -3.5692   -0.2176    0.0000 C   0  0  0  0  0  0  0  0  0  0  0  0
  1  2  1  0  0  0  0
  1  3  1  0  0  0  0
  1  4  1  0  0  0  0
  2  5  2  0  0  0  0
  2  6  1  0  0  0  0
  3  7  2  0  0  0  0
  3  8  1  0  0  0  0
  4  9  1  0  0  0  0
  5 10  1  0  0  0  0
  5 11  1  0  0  0  0
  6 12  1  0  0  0  0
  6 13  2  0  0  0  0
  7 14  1  0  0  0  0
  8 15  2  0  0  0  0
  9 16  2  0  0  0  0
  9 11  1  0  0  0  0
 10 17  2  0  0  0  0
 12 17  1  0  0  0  0
 14 18  2  0  0  0  0
 14 19  1  0  0  0  0
 15 18  1  0  0  0  0
 17 20  1  0  0  0  0
 18 21  1  0  0  0  0
 19 22  1  0  0  0  0
 20 23  1  0  0  0  0
 23 24  1  0  0  0  0
 24 25  3  0  0  0  0
M  END
> <CdId>
509

> <Mol Weight>
357.384

> <Formula>
C17H15N3O4S

> <Click_ID>
CLK007_C10 __ __ 

$$$$
