CLK041D11
 OpenBabel03181410512D

 23 24  0  0  0  0  0  0  0  0999 V2000
   -0.4424    1.4982    0.0000 N   0  0  0  0  0  0  0  0  0  0  0  0
    0.0459    2.1660    0.0000 C   0  0  0  0  0  0  0  0  0  0  0  0
    0.8305    1.9113    0.0000 N   0  0  0  0  0  0  0  0  0  0  0  0
    0.0459    0.8305    0.0000 C   0  0  0  0  0  0  0  0  0  0  0  0
    0.8305    1.0850    0.0000 N   0  0  0  0  0  0  0  0  0  0  0  0
   -0.2129    2.9506    0.0000 C   0  0  0  0  0  0  0  0  0  0  0  0
    0.1294   -3.5432    0.0000 C   0  0  0  0  0  0  0  0  0  0  0  0
   -0.2129    0.0418    0.0000 S   0  0  0  0  0  0  0  0  0  0  0  0
   -0.1252   -4.3278    0.0000 C   0  0  0  0  0  0  0  0  0  0  0  0
    0.0876   -1.3564    0.0000 C   0  0  0  0  0  0  0  0  0  0  0  0
   -0.9974    3.2093    0.0000 O   0  0  0  0  0  0  0  0  0  0  0  0
    0.6385   -1.9698    0.0000 N   0  0  0  0  0  0  0  0  0  0  0  0
    0.3839   -2.7586    0.0000 C   0  0  0  0  0  0  0  0  0  0  0  0
    0.2755    3.6183    0.0000 C   0  0  0  0  0  0  0  0  0  0  0  0
   -0.9974    4.0315    0.0000 C   0  0  0  0  0  0  0  0  0  0  0  0
   -0.2129    4.2861    0.0000 C   0  0  0  0  0  0  0  0  0  0  0  0
   -0.7219   -1.5275    0.0000 O   0  0  0  0  0  0  0  0  0  0  0  0
    0.3423   -0.5718    0.0000 C   0  0  0  0  0  0  0  0  0  0  0  0
   -1.2687    1.4982    0.0000 C   0  0  0  0  0  0  0  0  0  0  0  0
    1.1686   -3.0132    0.0000 C   0  0  0  0  0  0  0  0  0  0  0  0
   -0.4007   -2.4998    0.0000 C   0  0  0  0  0  0  0  0  0  0  0  0
    1.3397   -3.8186    0.0000 C   0  0  0  0  0  0  0  0  0  0  0  0
   -0.5718   -1.6945    0.0000 C   0  0  0  0  0  0  0  0  0  0  0  0
  2  1  1  0  0  0  0
  3  2  2  0  0  0  0
  3  5  1  0  0  0  0
  4  1  1  0  0  0  0
  5  4  2  0  0  0  0
  6  2  1  0  0  0  0
  7 13  1  0  0  0  0
  8  4  1  0  0  0  0
  9  7  3  0  0  0  0
 10 18  1  0  0  0  0
 11  6  1  0  0  0  0
 12 10  1  0  0  0  0
 13 12  1  0  0  0  0
 14  6  2  0  0  0  0
 15 11  1  0  0  0  0
 15 16  2  0  0  0  0
 16 14  1  0  0  0  0
 17 10  2  0  0  0  0
 18  8  1  0  0  0  0
 19  1  1  0  0  0  0
 20 13  1  0  0  0  0
 21 13  1  0  0  0  0
 22 20  1  0  0  0  0
 23 21  1  0  0  0  0
M  END
> <CdId>
3164

> <Mol Weight>
332.421

> <Formula>
C16H20N4O2S

> <Click_ID>
CLK041D11 __ __ 

$$$$
