CLK037F04
 OpenBabel03181410512D

 22 24  0  0  0  0  0  0  0  0999 V2000
    0.3500   -0.4958    0.0000 C    0  0  0  0  0  0  0  0  0  0  0  0
    0.3500   -1.3208    0.0000 C    0  0  0  0  0  0  0  0  0  0  0  0
    1.1333   -0.2417    0.0000 N    0  0  0  0  0  0  0  0  0  0  0  0
    1.6208   -0.9083    0.0000 N    0  0  0  0  0  0  0  0  0  0  0  0
   -0.4333   -0.2417    0.0000 S    0  0  0  0  0  0  0  0  0  0  0  0
   -0.4333   -1.5792    0.0000 C    0  0  0  0  0  0  0  0  0  0  0  0
   -0.9208   -0.9083    0.0000 C    0  0  0  0  0  0  0  0  0  0  0  0
    1.1333   -1.5792    0.0000 C    0  0  0  0  0  0  0  0  0  0  0  0
   -1.7458   -0.9083    0.0000 C    0  0  0  0  0  0  0  0  0  0  0  0
    1.3875    0.5417    0.0000 C    0  0  0  0  0  0  0  0  0  0  0  0
   -3.3958    0.5208    0.0000 C    0  0  0  0  0  0  0  0  0  0  0  0
   -3.8083    1.2333    0.0000 C    0  0  0  0  0  0  0  0  0  0  0  0
   -2.1583   -1.6250    0.0000 O    0  0  0  0  0  0  0  0  0  0  0  0
   -2.1583   -0.1958    0.0000 N    0  0  0  0  0  0  0  0  0  0  0  0
    2.1958    0.7125    0.0000 C    0  0  0  0  0  0  0  0  0  0  0  0
    0.8375    1.1542    0.0000 C    0  0  0  0  0  0  0  0  0  0  0  0
    1.9000    2.1125    0.0000 C    0  0  0  0  0  0  0  0  0  0  0  0
    1.0917    1.9417    0.0000 C    0  0  0  0  0  0  0  0  0  0  0  0
    2.4500    1.5000    0.0000 C    0  0  0  0  0  0  0  0  0  0  0  0
    2.1542    2.8958    0.0000 Cl   0  0  0  0  0  0  0  0  0  0  0  0
   -2.9833   -0.1958    0.0000 C    0  0  0  0  0  0  0  0  0  0  0  0
    1.3875   -2.3625    0.0000 C    0  0  0  0  0  0  0  0  0  0  0  0
  2  1  2  0  0  0  0
  3  1  1  0  0  0  0
  4  3  1  0  0  0  0
  4  8  2  0  0  0  0
  5  1  1  0  0  0  0
  6  2  1  0  0  0  0
  6  7  2  0  0  0  0
  7  5  1  0  0  0  0
  8  2  1  0  0  0  0
  9  7  1  0  0  0  0
 10  3  1  0  0  0  0
 11 21  1  0  0  0  0
 12 11  3  0  0  0  0
 13  9  2  0  0  0  0
 14  9  1  0  0  0  0
 15 10  1  0  0  0  0
 16 10  2  0  0  0  0
 17 18  2  0  0  0  0
 17 19  1  0  0  0  0
 18 16  1  0  0  0  0
 19 15  2  0  0  0  0
 20 17  1  0  0  0  0
 21 14  1  0  0  0  0
 22  8  1  0  0  0  0
M  END
> <CdId>
2790

> <Mol Weight>
329.804

> <Formula>
C16H12ClN3OS

> <Click_ID>
CLK037F04 __ __ 

$$$$
