CLK002_E08
 OpenBabel03181410512D

 27 28  0  0  0  0  0  0  0  0999 V2000
    0.0076    0.2042    0.0000 N   0  0  0  0  0  0  0  0  0  0  0  0
   -0.7071    0.6240    0.0000 C   0  0  0  0  0  0  0  0  0  0  0  0
    0.0076   -0.6164    0.0000 S   0  0  0  0  0  0  0  0  0  0  0  0
    0.7185    0.6240    0.0000 C   0  0  0  0  0  0  0  0  0  0  0  0
   -1.4180    0.2117    0.0000 C   0  0  0  0  0  0  0  0  0  0  0  0
   -0.7071    1.4520    0.0000 C   0  0  0  0  0  0  0  0  0  0  0  0
   -0.7222   -1.0209    0.0000 C   0  0  0  0  0  0  0  0  0  0  0  0
    0.2609   -1.4558    0.0000 O   0  0  0  0  0  0  0  0  0  0  0  0
    0.9378   -0.6164    0.0000 O   0  0  0  0  0  0  0  0  0  0  0  0
    1.4444    0.2042    0.0000 C   0  0  0  0  0  0  0  0  0  0  0  0
   -2.1326    0.6240    0.0000 C   0  0  0  0  0  0  0  0  0  0  0  0
   -1.4180    1.8718    0.0000 C   0  0  0  0  0  0  0  0  0  0  0  0
   -0.7222   -1.8415    0.0000 C   0  0  0  0  0  0  0  0  0  0  0  0
   -1.4331   -0.6088    0.0000 C   0  0  0  0  0  0  0  0  0  0  0  0
    2.1592    0.6240    0.0000 N   0  0  0  0  0  0  0  0  0  0  0  0
    1.4331   -0.6164    0.0000 O   0  0  0  0  0  0  0  0  0  0  0  0
   -2.1326    1.4520    0.0000 C   0  0  0  0  0  0  0  0  0  0  0  0
   -1.4331   -2.2537    0.0000 C   0  0  0  0  0  0  0  0  0  0  0  0
   -2.1478   -1.0209    0.0000 C   0  0  0  0  0  0  0  0  0  0  0  0
    2.8700    0.2042    0.0000 C   0  0  0  0  0  0  0  0  0  0  0  0
   -2.8435    1.8566    0.0000 O   0  0  0  0  0  0  0  0  0  0  0  0
   -2.1478   -1.8415    0.0000 C   0  0  0  0  0  0  0  0  0  0  0  0
    3.5847    0.6125    0.0000 C   0  0  0  0  0  0  0  0  0  0  0  0
    2.5146   -0.5937    0.0000 C   0  0  0  0  0  0  0  0  0  0  0  0
    3.2784   -0.5407    0.0000 C   0  0  0  0  0  0  0  0  0  0  0  0
   -3.5431    1.4483    0.0000 C   0  0  0  0  0  0  0  0  0  0  0  0
    4.2955    1.0133    0.0000 C   0  0  0  0  0  0  0  0  0  0  0  0
  1  2  1  0  0  0  0
  1  3  1  0  0  0  0
  1  4  1  0  0  0  0
  2  5  1  0  0  0  0
  2  6  2  0  0  0  0
  3  7  1  0  0  0  0
  3  8  2  0  0  0  0
  3  9  2  0  0  0  0
  4 10  1  0  0  0  0
  5 11  2  0  0  0  0
  6 12  1  0  0  0  0
  7 13  1  0  0  0  0
  7 14  2  0  0  0  0
 10 15  1  0  0  0  0
 10 16  2  0  0  0  0
 11 17  1  0  0  0  0
 12 17  2  0  0  0  0
 13 18  2  0  0  0  0
 14 19  1  0  0  0  0
 15 20  1  0  0  0  0
 17 21  1  0  0  0  0
 18 22  1  0  0  0  0
 19 22  2  0  0  0  0
 20 23  1  0  0  0  0
 20 24  1  0  0  0  0
 20 25  1  0  0  0  0
 21 26  1  0  0  0  0
 23 27  3  0  0  0  0
M  END
> <CdId>
127

> <Mol Weight>
386.465

> <Formula>
C20H22N2O4S

> <Click_ID>
CLK002_E08 __ __ 

$$$$
