CLK009_D08
 OpenBabel03181410512D

 16 16  0  0  0  0  0  0  0  0999 V2000
   -2.8721    1.9736    0.0000 N    0  0  0  0  0  0  0  0  0  0  0  0
   -2.1619   -0.0864    0.0000 C    0  0  0  0  0  0  0  0  0  0  0  0
   -2.1619    0.7376    0.0000 C    0  0  0  0  0  0  0  0  0  0  0  0
   -2.8721    1.1496    0.0000 C    0  0  0  0  0  0  0  0  0  0  0  0
   -1.4243   -0.5219    0.0000 C    0  0  0  0  0  0  0  0  0  0  0  0
   -0.7063   -2.5935    0.0000 C    0  0  0  0  0  0  0  0  0  0  0  0
   -0.7023   -3.4371    0.0000 C    0  0  0  0  0  0  0  0  0  0  0  0
   -2.8721   -0.5061    0.0000 C    0  0  0  0  0  0  0  0  0  0  0  0
   -2.1658    2.3738    0.0000 O    0  0  0  0  0  0  0  0  0  0  0  0
   -3.5783    2.3542    0.0000 O    0  0  0  0  0  0  0  0  0  0  0  0
   -0.7063   -0.1099    0.0000 O    0  0  0  0  0  0  0  0  0  0  0  0
   -3.5901    0.7376    0.0000 C    0  0  0  0  0  0  0  0  0  0  0  0
   -3.5901   -0.0864    0.0000 C    0  0  0  0  0  0  0  0  0  0  0  0
   -1.4243   -1.3537    0.0000 O    0  0  0  0  0  0  0  0  0  0  0  0
   -2.8721   -1.3223    0.0000 Cl   0  0  0  0  0  0  0  0  0  0  0  0
   -0.7063   -1.7696    0.0000 C    0  0  0  0  0  0  0  0  0  0  0  0
  2  3  2  0  0  0  0
  3  4  1  0  0  0  0
  4  1  1  0  0  0  0
  5  2  1  0  0  0  0
  6 16  1  0  0  0  0
  7  6  3  0  0  0  0
  8 13  2  0  0  0  0
  8  2  1  0  0  0  0
  9  1  1  0  0  0  0
 10  1  2  0  0  0  0
 11  5  2  0  0  0  0
 12  4  2  0  0  0  0
 13 12  1  0  0  0  0
 14  5  1  0  0  0  0
 15  8  1  0  0  0  0
 16 14  1  0  0  0  0
M  END
> <CdId>
633

> <Mol Weight>
239.612

> <Formula>
C10H6ClNO4

> <Click_ID>
CLK009_D08 __ __ 

$$$$
