CLK015_D02
 OpenBabel03181410512D

 29 30  0  0  0  0  0  0  0  0999 V2000
    3.7070   -0.6490    0.0000 N   0  0  0  0  0  0  0  0  0  0  0  0
    3.9566   -1.4354    0.0000 C   0  0  0  0  0  0  0  0  0  0  0  0
    4.3685   -0.1665    0.0000 C   0  0  0  0  0  0  0  0  0  0  0  0
    5.0342   -0.6490    0.0000 C   0  0  0  0  0  0  0  0  0  0  0  0
    4.7804   -1.4354    0.0000 S   0  0  0  0  0  0  0  0  0  0  0  0
    5.8205   -0.3911    0.0000 C   0  0  0  0  0  0  0  0  0  0  0  0
    2.9248   -0.3911    0.0000 C   0  0  0  0  0  0  0  0  0  0  0  0
    5.9953    0.4119    0.0000 C   0  0  0  0  0  0  0  0  0  0  0  0
    5.5584    1.7806    0.0000 C   0  0  0  0  0  0  0  0  0  0  0  0
    6.3447    2.0303    0.0000 C   0  0  0  0  0  0  0  0  0  0  0  0
    6.9563    1.4686    0.0000 C   0  0  0  0  0  0  0  0  0  0  0  0
    7.5055    3.8900    0.0000 C   0  0  0  0  0  0  0  0  0  0  0  0
    7.6802    4.6847    0.0000 C   0  0  0  0  0  0  0  0  0  0  0  0
    2.3091   -0.9486    0.0000 C   0  0  0  0  0  0  0  0  0  0  0  0
    3.4740   -2.1011    0.0000 O   0  0  0  0  0  0  0  0  0  0  0  0
    4.3685    0.6573    0.0000 O   0  0  0  0  0  0  0  0  0  0  0  0
    5.3837    0.9694    0.0000 C   0  0  0  0  0  0  0  0  0  0  0  0
    6.7816    0.6615    0.0000 C   0  0  0  0  0  0  0  0  0  0  0  0
    2.4838   -1.7516    0.0000 O   0  0  0  0  0  0  0  0  0  0  0  0
    8.3542    1.1815    0.0000 C   0  0  0  0  0  0  0  0  0  0  0  0
    9.1364    1.4312    0.0000 C   0  0  0  0  0  0  0  0  0  0  0  0
    4.9593    2.3340    0.0000 O   0  0  0  0  0  0  0  0  0  0  0  0
    6.5320    2.8291    0.0000 O   0  0  0  0  0  0  0  0  0  0  0  0
    1.5269   -0.6907    0.0000 O   0  0  0  0  0  0  0  0  0  0  0  0
    7.7385    1.7307    0.0000 C   0  0  0  0  0  0  0  0  0  0  0  0
    7.3183    3.0787    0.0000 C   0  0  0  0  0  0  0  0  0  0  0  0
    4.1813    2.0844    0.0000 C   0  0  0  0  0  0  0  0  0  0  0  0
    1.3522    0.1081    0.0000 C   0  0  0  0  0  0  0  0  0  0  0  0
    3.5739    2.6419    0.0000 C   0  0  0  0  0  0  0  0  0  0  0  0
  2  1  1  0  0  0  0
  3  1  1  0  0  0  0
  4  3  1  0  0  0  0
  5  2  1  0  0  0  0
  5  4  1  0  0  0  0
  6  4  2  0  0  0  0
  7  1  1  0  0  0  0
  8  6  1  0  0  0  0
  9 17  1  0  0  0  0
  9 10  2  0  0  0  0
 10 11  1  0  0  0  0
 11 18  2  0  0  0  0
 12 26  1  0  0  0  0
 13 12  3  0  0  0  0
 14  7  1  0  0  0  0
 15  2  2  0  0  0  0
 16  3  2  0  0  0  0
 17  8  2  0  0  0  0
 18  8  1  0  0  0  0
 19 14  2  0  0  0  0
 20 25  1  0  0  0  0
 21 20  2  0  0  0  0
 22  9  1  0  0  0  0
 23 10  1  0  0  0  0
 24 14  1  0  0  0  0
 25 11  1  0  0  0  0
 26 23  1  0  0  0  0
 27 22  1  0  0  0  0
 28 24  1  0  0  0  0
 29 27  1  0  0  0  0
M  END
> <CdId>
1107

> <Mol Weight>
415.46

> <Formula>
C21H21NO6S

> <Click_ID>
CLK015_D02 __ __ 

$$$$
