CLK028_F05
 OpenBabel03181410512D

 29 32  0  0  0  0  0  0  0  0999 V2000
    1.7908    0.1066    0.0000 N    0  0  0  0  0  0  0  0  0  0  0  0
    0.3747    0.1066    0.0000 C    0  0  0  0  0  0  0  0  0  0  0  0
    1.7908   -0.7150    0.0000 C    0  0  0  0  0  0  0  0  0  0  0  0
    1.0793    0.5259    0.0000 C    0  0  0  0  0  0  0  0  0  0  0  0
    1.0793   -1.1240    0.0000 N    0  0  0  0  0  0  0  0  0  0  0  0
    0.3747   -0.7150    0.0000 C    0  0  0  0  0  0  0  0  0  0  0  0
   -1.0587    0.1066    0.0000 C    0  0  0  0  0  0  0  0  0  0  0  0
   -0.3438    0.5191    0.0000 C    0  0  0  0  0  0  0  0  0  0  0  0
   -1.9593   -0.8800    0.0000 N    0  0  0  0  0  0  0  0  0  0  0  0
   -1.1481   -0.7047    0.0000 C    0  0  0  0  0  0  0  0  0  0  0  0
    2.5093    0.5191    0.0000 C    0  0  0  0  0  0  0  0  0  0  0  0
   -1.8184    0.4434    0.0000 C    0  0  0  0  0  0  0  0  0  0  0  0
   -2.3718   -0.1685    0.0000 C    0  0  0  0  0  0  0  0  0  0  0  0
    2.5093   -1.1275    0.0000 S    0  0  0  0  0  0  0  0  0  0  0  0
   -3.1177   -1.7153    0.0000 C    0  0  0  0  0  0  0  0  0  0  0  0
    1.0793    1.3474    0.0000 O    0  0  0  0  0  0  0  0  0  0  0  0
   -3.9427   -1.7530    0.0000 C    0  0  0  0  0  0  0  0  0  0  0  0
   -0.3438   -1.1275    0.0000 O    0  0  0  0  0  0  0  0  0  0  0  0
    3.2139    0.1066    0.0000 C    0  0  0  0  0  0  0  0  0  0  0  0
   -2.2927   -1.6396    0.0000 C    0  0  0  0  0  0  0  0  0  0  0  0
    3.2105   -0.7253    0.0000 Cl   0  0  0  0  0  0  0  0  0  0  0  0
   -3.1726    0.0068    0.0000 C    0  0  0  0  0  0  0  0  0  0  0  0
   -2.0693    1.2306    0.0000 C    0  0  0  0  0  0  0  0  0  0  0  0
    2.5024    1.3440    0.0000 C    0  0  0  0  0  0  0  0  0  0  0  0
    3.9357    0.5121    0.0000 C    0  0  0  0  0  0  0  0  0  0  0  0
   -2.8736    1.3990    0.0000 C    0  0  0  0  0  0  0  0  0  0  0  0
   -3.4304    0.7837    0.0000 C    0  0  0  0  0  0  0  0  0  0  0  0
    3.2139    1.7565    0.0000 C    0  0  0  0  0  0  0  0  0  0  0  0
    3.9392    1.3371    0.0000 C    0  0  0  0  0  0  0  0  0  0  0  0
  2  4  1  0  0  0  0
  3  1  1  0  0  0  0
  4  1  1  0  0  0  0
  5  3  1  0  0  0  0
  6  2  1  0  0  0  0
  6  5  1  0  0  0  0
  7  8  1  0  0  0  0
  8  2  2  0  0  0  0
  9 10  1  0  0  0  0
 10  7  2  0  0  0  0
 11  1  1  0  0  0  0
 12  7  1  0  0  0  0
 13 12  1  0  0  0  0
 13  9  1  0  0  0  0
 14  3  2  0  0  0  0
 15 20  1  0  0  0  0
 16  4  2  0  0  0  0
 17 15  3  0  0  0  0
 18  6  2  0  0  0  0
 19 11  2  0  0  0  0
 20  9  1  0  0  0  0
 21 19  1  0  0  0  0
 22 13  2  0  0  0  0
 23 12  2  0  0  0  0
 24 11  1  0  0  0  0
 25 19  1  0  0  0  0
 25 29  2  0  0  0  0
 26 23  1  0  0  0  0
 27 26  2  0  0  0  0
 27 22  1  0  0  0  0
 28 24  2  0  0  0  0
 29 28  1  0  0  0  0
M  END
> <CdId>
2139

> <Mol Weight>
419.883

> <Formula>
C22H14ClN3O2S

> <Click_ID>
CLK028_F05 __ __ 

$$$$
