CLK020_C06
 OpenBabel03181410512D

 30 33  0  0  0  0  0  0  0  0999 V2000
    2.2309    1.9880    0.0000 C    0  0  3  0  0  0  0  0  0  0  0  0
    2.8996    1.4979    0.0000 C    0  0  0  0  0  0  0  0  0  0  0  0
    2.4828    2.7713    0.0000 C    0  0  0  0  0  0  0  0  0  0  0  0
    3.5639    1.9880    0.0000 N    0  0  0  0  0  0  0  0  0  0  0  0
    3.3119    2.7713    0.0000 C    0  0  0  0  0  0  0  0  0  0  0  0
    1.4751    2.3225    0.0000 C    0  0  0  0  0  0  0  0  0  0  0  0
    0.9070    1.7269    0.0000 C    0  0  0  0  0  0  0  0  0  0  0  0
    4.8557    2.3866    0.0000 C    0  0  0  0  0  0  0  0  0  0  0  0
    3.7242    3.4859    0.0000 C    0  0  0  0  0  0  0  0  0  0  0  0
    5.3641    3.0324    0.0000 C    0  0  0  0  0  0  0  0  0  0  0  0
    2.0751    3.4859    0.0000 C    0  0  0  0  0  0  0  0  0  0  0  0
    2.8996    0.6734    0.0000 O    0  0  0  0  0  0  0  0  0  0  0  0
    0.1099    1.9331    0.0000 C    0  0  0  0  0  0  0  0  0  0  0  0
   -1.4933    2.3316    0.0000 C    0  0  0  0  0  0  0  0  0  0  0  0
    4.3472    1.7315    0.0000 C    0  0  0  0  0  0  0  0  0  0  0  0
    1.8186    1.2734    0.0000 O    0  0  0  0  0  0  0  0  0  0  0  0
    1.0628    1.1772    0.0000 O    0  0  0  0  0  0  0  0  0  0  0  0
   -0.1191    2.7210    0.0000 C    0  0  0  0  0  0  0  0  0  0  0  0
   -0.4626    1.3330    0.0000 C    0  0  0  0  0  0  0  0  0  0  0  0
   -1.2643    1.5345    0.0000 C    0  0  0  0  0  0  0  0  0  0  0  0
   -0.9207    2.9225    0.0000 C    0  0  0  0  0  0  0  0  0  0  0  0
   -2.2904    2.5240    0.0000 C    0  0  0  0  0  0  0  0  0  0  0  0
    2.4828    4.2005    0.0000 C    0  0  0  0  0  0  0  0  0  0  0  0
    3.3119    4.2005    0.0000 C    0  0  0  0  0  0  0  0  0  0  0  0
    2.0751    4.9060    0.0000 Br   0  0  0  0  0  0  0  0  0  0  0  0
   -2.8675    1.9331    0.0000 C    0  0  0  0  0  0  0  0  0  0  0  0
   -2.5240    3.3210    0.0000 C    0  0  0  0  0  0  0  0  0  0  0  0
   -3.3210    3.5227    0.0000 C    0  0  0  0  0  0  0  0  0  0  0  0
   -3.6646    2.1301    0.0000 C    0  0  0  0  0  0  0  0  0  0  0  0
   -3.8982    2.9225    0.0000 C    0  0  0  0  0  0  0  0  0  0  0  0
  2  1  1  0  0  0  0
  3  1  1  0  0  0  0
  4  2  1  0  0  0  0
  5  3  2  0  0  0  0
  5  4  1  0  0  0  0
  6  1  1  0  0  0  0
  7  6  1  0  0  0  0
  8 15  1  0  0  0  0
  9  5  1  0  0  0  0
 10  8  3  0  0  0  0
 11  3  1  0  0  0  0
 12  2  2  0  0  0  0
 13  7  1  0  0  0  0
 14 20  2  0  0  0  0
 15  4  1  0  0  0  0
 16  1  1  0  0  0  0
 17  7  2  0  0  0  0
 18 13  1  0  0  0  0
 19 13  2  0  0  0  0
 20 19  1  0  0  0  0
 21 18  2  0  0  0  0
 21 14  1  0  0  0  0
 22 14  1  0  0  0  0
 23 11  2  0  0  0  0
 24 23  1  0  0  0  0
 24  9  2  0  0  0  0
 25 23  1  0  0  0  0
 26 22  1  0  0  0  0
 27 22  2  0  0  0  0
 28 27  1  0  0  0  0
 29 26  2  0  0  0  0
 29 30  1  0  0  0  0
 30 28  2  0  0  0  0
M  END
> <CdId>
1501

> <Mol Weight>
460.319

> <Formula>
C25H18BrNO3

> <Click_ID>
CLK020_C06 __ __ 

$$$$
