CLK049B08
 OpenBabel03181410512D

 18 19  0  0  0  0  0  0  0  0999 V2000
   -0.0375    2.5803    0.0000 S   0  0  0  0  0  0  0  0  0  0  0  0
   -0.2914    0.4620    0.0000 C   0  0  0  0  0  0  0  0  0  0  0  0
   -0.0375    1.2486    0.0000 C   0  0  3  0  0  0  0  0  0  0  0  0
   -0.5202    1.9145    0.0000 C   0  0  0  0  0  0  0  0  0  0  0  0
    0.2580   -0.1498    0.0000 N   0  0  0  0  0  0  0  0  0  0  0  0
    0.8532   -2.9424    0.0000 C   0  0  0  0  0  0  0  0  0  0  0  0
    1.4026   -3.5542    0.0000 C   0  0  0  0  0  0  0  0  0  0  0  0
   -0.0499    3.4044    0.0000 O   0  0  0  0  0  0  0  0  0  0  0  0
   -0.5119    3.2546    0.0000 O   0  0  0  0  0  0  0  0  0  0  0  0
    0.7449    2.3265    0.0000 C   0  0  0  0  0  0  0  0  0  0  0  0
   -1.0987    0.2914    0.0000 O   0  0  0  0  0  0  0  0  0  0  0  0
    0.7449    1.5025    0.0000 C   0  0  0  0  0  0  0  0  0  0  0  0
    0.0042   -0.9322    0.0000 C   0  0  0  0  0  0  0  0  0  0  0  0
    0.2997   -2.3306    0.0000 C   0  0  0  0  0  0  0  0  0  0  0  0
    0.5577   -1.5440    0.0000 C   0  0  0  0  0  0  0  0  0  0  0  0
   -1.0571   -1.8895    0.0000 C   0  0  0  0  0  0  0  0  0  0  0  0
   -0.8033   -1.1029    0.0000 C   0  0  0  0  0  0  0  0  0  0  0  0
   -0.5036   -2.5013    0.0000 C   0  0  0  0  0  0  0  0  0  0  0  0
  2  3  1  0  0  0  0
  3  4  1  0  0  0  0
  4  1  1  0  0  0  0
  5  2  1  0  0  0  0
  6 14  1  0  0  0  0
  7  6  3  0  0  0  0
  8  1  2  0  0  0  0
  9  1  2  0  0  0  0
 10  1  1  0  0  0  0
 11  2  2  0  0  0  0
 12 10  1  0  0  0  0
 12  3  1  0  0  0  0
 13  5  1  0  0  0  0
 14 15  1  0  0  0  0
 15 13  2  0  0  0  0
 16 17  2  0  0  0  0
 17 13  1  0  0  0  0
 18 14  2  0  0  0  0
 18 16  1  0  0  0  0
M  END
> <CdId>
3778

> <Mol Weight>
263.312

> <Formula>
C13H13NO3S

> <Click_ID>
CLK049B08 __ __ 

$$$$
