CLK014_A03
 OpenBabel03181410512D

 22 24  0  0  0  0  0  0  0  0999 V2000
    1.5689   -0.8179    0.0000 N   0  0  0  0  0  0  0  0  0  0  0  0
    1.8276   -1.6065    0.0000 C   0  0  0  0  0  0  0  0  0  0  0  0
    2.2407   -0.3297    0.0000 C   0  0  0  0  0  0  0  0  0  0  0  0
    2.9083   -0.8179    0.0000 C   0  0  0  0  0  0  0  0  0  0  0  0
    2.6537   -1.6065    0.0000 S   0  0  0  0  0  0  0  0  0  0  0  0
    3.6969   -0.5633    0.0000 C   0  0  0  0  0  0  0  0  0  0  0  0
    4.3604    2.6663    0.0000 N   0  0  0  0  0  0  0  0  0  0  0  0
    0.6134    0.2461    0.0000 C   0  0  0  0  0  0  0  0  0  0  0  0
    0.3923    1.0473    0.0000 C   0  0  0  0  0  0  0  0  0  0  0  0
    1.3394   -2.2699    0.0000 O   0  0  0  0  0  0  0  0  0  0  0  0
    4.1976    1.8609    0.0000 C   0  0  0  0  0  0  0  0  0  0  0  0
    2.2324    0.4965    0.0000 O   0  0  0  0  0  0  0  0  0  0  0  0
    0.7886   -0.5633    0.0000 C   0  0  0  0  0  0  0  0  0  0  0  0
    3.8596    0.2461    0.0000 C   0  0  0  0  0  0  0  0  0  0  0  0
    4.8110    1.3101    0.0000 C   0  0  0  0  0  0  0  0  0  0  0  0
    3.4173    1.5981    0.0000 C   0  0  0  0  0  0  0  0  0  0  0  0
    4.6483    0.5007    0.0000 C   0  0  0  0  0  0  0  0  0  0  0  0
    3.2463    0.7969    0.0000 C   0  0  0  0  0  0  0  0  0  0  0  0
    5.1114    3.0000    0.0000 C   0  0  0  0  0  0  0  0  0  0  0  0
    3.8096    3.2754    0.0000 C   0  0  0  0  0  0  0  0  0  0  0  0
    4.2185    3.9889    0.0000 C   0  0  0  0  0  0  0  0  0  0  0  0
    5.0238    3.8179    0.0000 C   0  0  0  0  0  0  0  0  0  0  0  0
  2  1  1  0  0  0  0
  3  1  1  0  0  0  0
  4  3  1  0  0  0  0
  5  2  1  0  0  0  0
  5  4  1  0  0  0  0
  6  4  2  0  0  0  0
  7 11  1  0  0  0  0
  8 13  1  0  0  0  0
  9  8  3  0  0  0  0
 10  2  2  0  0  0  0
 11 16  1  0  0  0  0
 12  3  2  0  0  0  0
 13  1  1  0  0  0  0
 14  6  1  0  0  0  0
 15 17  1  0  0  0  0
 15 11  2  0  0  0  0
 16 18  2  0  0  0  0
 17 14  2  0  0  0  0
 18 14  1  0  0  0  0
 19  7  1  0  0  0  0
 20  7  1  0  0  0  0
 21 20  1  0  0  0  0
 21 22  1  0  0  0  0
 22 19  1  0  0  0  0
M  END
> <CdId>
998

> <Mol Weight>
312.386

> <Formula>
C17H16N2O2S

> <Click_ID>
CLK014_A03 __ __ 

$$$$
