CLK014_B06
 OpenBabel03181410512D

 25 26  0  0  0  0  0  0  0  0999 V2000
    1.5692   -0.8180    0.0000 N    0  0  0  0  0  0  0  0  0  0  0  0
    1.8280   -1.6068    0.0000 C    0  0  0  0  0  0  0  0  0  0  0  0
    2.2411   -0.3297    0.0000 C    0  0  0  0  0  0  0  0  0  0  0  0
    2.9089   -0.8180    0.0000 C    0  0  0  0  0  0  0  0  0  0  0  0
    2.6543   -1.6068    0.0000 S    0  0  0  0  0  0  0  0  0  0  0  0
    4.2068    1.8488    0.0000 C    0  0  0  0  0  0  0  0  0  0  0  0
    3.6977   -0.5634    0.0000 C    0  0  0  0  0  0  0  0  0  0  0  0
    4.7995    1.3104    0.0000 C    0  0  0  0  0  0  0  0  0  0  0  0
    3.4223    1.5901    0.0000 C    0  0  0  0  0  0  0  0  0  0  0  0
    3.8605    0.2337    0.0000 C    0  0  0  0  0  0  0  0  0  0  0  0
    4.3863    2.6501    0.0000 O    0  0  0  0  0  0  0  0  0  0  0  0
    0.6135    0.2462    0.0000 C    0  0  0  0  0  0  0  0  0  0  0  0
    0.3923    1.0475    0.0000 C    0  0  0  0  0  0  0  0  0  0  0  0
    1.3397   -2.2704    0.0000 O    0  0  0  0  0  0  0  0  0  0  0  0
    4.6367    0.4966    0.0000 C    0  0  0  0  0  0  0  0  0  0  0  0
    2.2328    0.4966    0.0000 O    0  0  0  0  0  0  0  0  0  0  0  0
    3.2553    0.7888    0.0000 C    0  0  0  0  0  0  0  0  0  0  0  0
    5.3379    3.7018    0.0000 C    0  0  0  0  0  0  0  0  0  0  0  0
    0.7888   -0.5634    0.0000 C    0  0  0  0  0  0  0  0  0  0  0  0
    4.7327    4.2486    0.0000 O    0  0  0  0  0  0  0  0  0  0  0  0
    5.1584    2.9005    0.0000 C    0  0  0  0  0  0  0  0  0  0  0  0
    5.5883    1.5608    0.0000 Br   0  0  0  0  0  0  0  0  0  0  0  0
    2.8296    2.1493    0.0000 O    0  0  0  0  0  0  0  0  0  0  0  0
    6.1224    3.9522    0.0000 O    0  0  0  0  0  0  0  0  0  0  0  0
    2.0408    1.8989    0.0000 C    0  0  0  0  0  0  0  0  0  0  0  0
  2  1  1  0  0  0  0
  3  1  1  0  0  0  0
  4  3  1  0  0  0  0
  4  5  1  0  0  0  0
  5  2  1  0  0  0  0
  6  9  2  0  0  0  0
  6  8  1  0  0  0  0
  7  4  2  0  0  0  0
  8 15  2  0  0  0  0
  9 17  1  0  0  0  0
 10  7  1  0  0  0  0
 11  6  1  0  0  0  0
 12 19  1  0  0  0  0
 13 12  3  0  0  0  0
 14  2  2  0  0  0  0
 15 10  1  0  0  0  0
 16  3  2  0  0  0  0
 17 10  2  0  0  0  0
 18 21  1  0  0  0  0
 19  1  1  0  0  0  0
 20 18  2  0  0  0  0
 21 11  1  0  0  0  0
 22  8  1  0  0  0  0
 23  9  1  0  0  0  0
 24 18  1  0  0  0  0
 25 23  1  0  0  0  0
M  END
> <CdId>
1011

> <Mol Weight>
426.239

> <Formula>
C16H12BrNO6S

> <Click_ID>
CLK014_B06 __ __ 

$$$$
