CLK021_F06
 OpenBabel03181410512D

 24 25  0  0  0  0  0  0  0  0999 V2000
    4.3976    2.8813    0.0000 C   0  0  0  0  0  0  0  0  0  0  0  0
    3.5730    2.8813    0.0000 C   0  0  0  0  0  0  0  0  0  0  0  0
    4.8098    2.1667    0.0000 C   0  0  0  0  0  0  0  0  0  0  0  0
    3.1607    3.5959    0.0000 C   0  0  0  0  0  0  0  0  0  0  0  0
    2.7485    4.3105    0.0000 N   0  0  0  0  0  0  0  0  0  0  0  0
    0.2748    1.4521    0.0000 N   0  0  0  0  0  0  0  0  0  0  0  0
    7.3156    3.3485    0.0000 C   0  0  0  0  0  0  0  0  0  0  0  0
    3.1607    2.1667    0.0000 C   0  0  0  0  0  0  0  0  0  0  0  0
    7.7828    4.0128    0.0000 C   0  0  0  0  0  0  0  0  0  0  0  0
    1.0994    1.4521    0.0000 C   0  0  0  0  0  0  0  0  0  0  0  0
    5.6344    2.1667    0.0000 C   0  0  0  0  0  0  0  0  0  0  0  0
    4.3976    1.4521    0.0000 C   0  0  0  0  0  0  0  0  0  0  0  0
    2.3362    2.1667    0.0000 C   0  0  0  0  0  0  0  0  0  0  0  0
    6.0466    1.4521    0.0000 C   0  0  0  0  0  0  0  0  0  0  0  0
    1.9239    1.4521    0.0000 C   0  0  0  0  0  0  0  0  0  0  0  0
    4.8098    0.7375    0.0000 C   0  0  0  0  0  0  0  0  0  0  0  0
    5.6344    0.7375    0.0000 C   0  0  0  0  0  0  0  0  0  0  0  0
    6.0466    2.8813    0.0000 O   0  0  0  0  0  0  0  0  0  0  0  0
    6.8437    2.6614    0.0000 C   0  0  0  0  0  0  0  0  0  0  0  0
    4.3976    0.0229    0.0000 O   0  0  0  0  0  0  0  0  0  0  0  0
    3.5730    1.4521    0.0000 C   0  0  0  0  0  0  0  0  0  0  0  0
    3.1607    0.7375    0.0000 C   0  0  0  0  0  0  0  0  0  0  0  0
    2.3362    0.7375    0.0000 C   0  0  0  0  0  0  0  0  0  0  0  0
    4.8098   -0.6917    0.0000 C   0  0  0  0  0  0  0  0  0  0  0  0
  2  1  2  0  0  0  0
  3  1  1  0  0  0  0
  4  2  1  0  0  0  0
  5  4  3  0  0  0  0
  6 10  3  0  0  0  0
  7 19  1  0  0  0  0
  8  2  1  0  0  0  0
  9  7  3  0  0  0  0
 10 15  1  0  0  0  0
 11  3  2  0  0  0  0
 12  3  1  0  0  0  0
 13  8  2  0  0  0  0
 14 11  1  0  0  0  0
 14 17  2  0  0  0  0
 15 13  1  0  0  0  0
 16 12  2  0  0  0  0
 17 16  1  0  0  0  0
 18 11  1  0  0  0  0
 19 18  1  0  0  0  0
 20 16  1  0  0  0  0
 21  8  1  0  0  0  0
 22 21  2  0  0  0  0
 23 22  1  0  0  0  0
 23 15  2  0  0  0  0
 24 20  1  0  0  0  0
M  END
> <CdId>
1611

> <Mol Weight>
314.3374

> <Formula>
C20H14N2O2

> <Click_ID>
CLK021_F06 __ __ 

$$$$
