CLK044G04
 OpenBabel03181410512D

 23 24  0  0  0  0  0  0  0  0999 V2000
   -0.5625   -0.5000    0.0000 C   0  0  0  0  0  0  0  0  0  0  0  0
    0.1542   -2.5625    0.0000 S   0  0  0  0  0  0  0  0  0  0  0  0
   -1.2750   -0.0875    0.0000 N   0  3  0  0  0  0  0  0  0  0  0  0
    0.1542   -0.0875    0.0000 C   0  0  0  0  0  0  0  0  0  0  0  0
   -0.5625   -1.3250    0.0000 C   0  0  0  0  0  0  0  0  0  0  0  0
    0.1542    0.7375    0.0000 N   0  0  0  0  0  0  0  0  0  0  0  0
    0.1542   -1.7375    0.0000 C   0  0  0  0  0  0  0  0  0  0  0  0
    0.8667    3.6250    0.0000 C   0  0  0  0  0  0  0  0  0  0  0  0
    0.1542    2.3875    0.0000 N   0  0  0  0  0  0  0  0  0  0  0  0
    0.8667   -0.5000    0.0000 C   0  0  0  0  0  0  0  0  0  0  0  0
    1.5833    4.0333    0.0000 C   0  0  0  0  0  0  0  0  0  0  0  0
    0.9792   -2.5625    0.0000 O   0  0  0  0  0  0  0  0  0  0  0  0
   -0.6708   -2.5625    0.0000 O   0  0  0  0  0  0  0  0  0  0  0  0
   -1.2750    0.7375    0.0000 O   0  5  0  0  0  0  0  0  0  0  0  0
   -1.9917   -0.5000    0.0000 O   0  0  0  0  0  0  0  0  0  0  0  0
    0.1542   -3.3875    0.0000 N   0  0  0  0  0  0  0  0  0  0  0  0
    0.8667   -1.3250    0.0000 C   0  0  0  0  0  0  0  0  0  0  0  0
   -0.5625    1.1500    0.0000 C   0  0  0  0  0  0  0  0  0  0  0  0
    0.8667    1.1500    0.0000 C   0  0  0  0  0  0  0  0  0  0  0  0
    0.8667    1.9750    0.0000 C   0  0  0  0  0  0  0  0  0  0  0  0
   -0.5625    1.9750    0.0000 C   0  0  0  0  0  0  0  0  0  0  0  0
    0.1542    3.2125    0.0000 C   0  0  0  0  0  0  0  0  0  0  0  0
   -0.5625   -3.8000    0.0000 C   0  0  0  0  0  0  0  0  0  0  0  0
  2  7  1  0  0  0  0
  3  1  1  0  0  0  0
  4  1  2  0  0  0  0
  5  1  1  0  0  0  0
  6  4  1  0  0  0  0
  7  5  2  0  0  0  0
  8 22  1  0  0  0  0
  9 21  1  0  0  0  0
  9 20  1  0  0  0  0
 10  4  1  0  0  0  0
 10 17  2  0  0  0  0
 11  8  3  0  0  0  0
 12  2  2  0  0  0  0
 13  2  2  0  0  0  0
 14  3  1  0  0  0  0
 15  3  2  0  0  0  0
 16  2  1  0  0  0  0
 17  7  1  0  0  0  0
 18  6  1  0  0  0  0
 19  6  1  0  0  0  0
 20 19  1  0  0  0  0
 21 18  1  0  0  0  0
 22  9  1  0  0  0  0
 23 16  1  0  0  0  0
M  END
> <CdId>
3351

> <Mol Weight>
338.382

> <Formula>
C14H18N4O4S

> <Click_ID>
CLK044G04 __ __ 

$$$$
