CLK041H02
 OpenBabel03181410512D

 23 24  0  0  0  0  0  0  0  0999 V2000
   -1.8667    1.2917    0.0000 S   0  0  0  0  0  0  0  0  0  0  0  0
    0.9917   -0.3583    0.0000 C   0  0  0  0  0  0  0  0  0  0  0  0
    0.9917   -1.1833    0.0000 N   0  0  0  0  0  0  0  0  0  0  0  0
    1.7083   -1.5958    0.0000 C   0  0  0  0  0  0  0  0  0  0  0  0
    1.7083   -2.4208    0.0000 N   0  0  0  0  0  0  0  0  0  0  0  0
   -1.1500    0.8792    0.0000 C   0  0  0  0  0  0  0  0  0  0  0  0
   -3.2958    2.9417    0.0000 C   0  0  0  0  0  0  0  0  0  0  0  0
   -4.0083    3.3542    0.0000 C   0  0  0  0  0  0  0  0  0  0  0  0
   -1.4542    2.0083    0.0000 O   0  0  0  0  0  0  0  0  0  0  0  0
   -2.2792    0.5792    0.0000 O   0  0  0  0  0  0  0  0  0  0  0  0
    0.2792    0.0542    0.0000 C   0  0  0  0  0  0  0  0  0  0  0  0
   -2.5792    1.7042    0.0000 N   0  0  0  0  0  0  0  0  0  0  0  0
    1.7083    0.0542    0.0000 O   0  0  0  0  0  0  0  0  0  0  0  0
   -1.1500    0.0542    0.0000 C   0  0  0  0  0  0  0  0  0  0  0  0
   -0.4375    1.2917    0.0000 C   0  0  0  0  0  0  0  0  0  0  0  0
   -0.4375   -0.3583    0.0000 C   0  0  0  0  0  0  0  0  0  0  0  0
    0.2792    0.8792    0.0000 C   0  0  0  0  0  0  0  0  0  0  0  0
    2.4208   -2.8333    0.0000 C   0  0  0  0  0  0  0  0  0  0  0  0
   -2.5792    2.5292    0.0000 C   0  0  0  0  0  0  0  0  0  0  0  0
    2.4208   -1.1833    0.0000 C   0  0  0  0  0  0  0  0  0  0  0  0
    3.1375   -1.5958    0.0000 C   0  0  0  0  0  0  0  0  0  0  0  0
    3.1375   -2.4208    0.0000 C   0  0  0  0  0  0  0  0  0  0  0  0
    2.4208   -3.6583    0.0000 C   0  0  0  0  0  0  0  0  0  0  0  0
  2 11  1  0  0  0  0
  3  2  1  0  0  0  0
  4  3  1  0  0  0  0
  5  4  1  0  0  0  0
  6  1  1  0  0  0  0
  7 19  1  0  0  0  0
  8  7  3  0  0  0  0
  9  1  2  0  0  0  0
 10  1  2  0  0  0  0
 11 16  2  0  0  0  0
 12  1  1  0  0  0  0
 13  2  2  0  0  0  0
 14  6  2  0  0  0  0
 15  6  1  0  0  0  0
 16 14  1  0  0  0  0
 17 15  2  0  0  0  0
 17 11  1  0  0  0  0
 18  5  2  0  0  0  0
 19 12  1  0  0  0  0
 20  4  2  0  0  0  0
 21 20  1  0  0  0  0
 21 22  2  0  0  0  0
 22 18  1  0  0  0  0
 23 18  1  0  0  0  0
M  END
> <CdId>
3096

> <Mol Weight>
329.374

> <Formula>
C16H15N3O3S

> <Click_ID>
CLK041H02 __ __ 

$$$$
