CLK037B04
 OpenBabel03181410512D

 15 15  0  0  0  0  0  0  0  0999 V2000
    0.3333    0.8542    0.0000 C    0  0  0  0  0  0  0  0  0  0  0  0
    1.0458    2.9167    0.0000 C    0  0  0  0  0  0  0  0  0  0  0  0
   -1.0958   -1.6208    0.0000 C    0  0  0  0  0  0  0  0  0  0  0  0
    1.0458    3.7417    0.0000 C    0  0  0  0  0  0  0  0  0  0  0  0
   -1.0958   -0.7958    0.0000 C    0  0  0  0  0  0  0  0  0  0  0  0
   -0.3833    0.4417    0.0000 N    0  0  0  0  0  0  0  0  0  0  0  0
   -0.3833   -0.3833    0.0000 C    0  0  0  0  0  0  0  0  0  0  0  0
   -0.3833   -2.0333    0.0000 C    0  0  0  0  0  0  0  0  0  0  0  0
    1.0458    0.4417    0.0000 O    0  0  0  0  0  0  0  0  0  0  0  0
    0.3333    1.6792    0.0000 N    0  0  0  0  0  0  0  0  0  0  0  0
    0.3333   -1.6208    0.0000 C    0  0  0  0  0  0  0  0  0  0  0  0
   -1.8125   -2.0333    0.0000 Cl   0  0  0  0  0  0  0  0  0  0  0  0
    0.3333   -0.7958    0.0000 C    0  0  0  0  0  0  0  0  0  0  0  0
   -0.3833   -2.8583    0.0000 Cl   0  0  0  0  0  0  0  0  0  0  0  0
    1.0458    2.0917    0.0000 C    0  0  0  0  0  0  0  0  0  0  0  0
  2 15  1  0  0  0  0
  3  5  1  0  0  0  0
  4  2  3  0  0  0  0
  5  7  2  0  0  0  0
  6  1  1  0  0  0  0
  7  6  1  0  0  0  0
  8  3  2  0  0  0  0
  9  1  2  0  0  0  0
 10  1  1  0  0  0  0
 11 13  2  0  0  0  0
 11  8  1  0  0  0  0
 12  3  1  0  0  0  0
 13  7  1  0  0  0  0
 14  8  1  0  0  0  0
 15 10  1  0  0  0  0
M  END
> <CdId>
2786

> <Mol Weight>
243.089

> <Formula>
C10H8Cl2N2O

> <Click_ID>
CLK037B04 __ __ 

$$$$
