CLK023_F05
 OpenBabel03181410512D

 30 32  0  0  0  0  0  0  0  0999 V2000
    2.1382   -0.4125    0.0000 N    0  0  0  0  0  0  0  0  0  0  0  0
    0.7116   -0.4125    0.0000 C    0  0  0  0  0  0  0  0  0  0  0  0
    1.4266    0.0035    0.0000 C    0  0  0  0  0  0  0  0  0  0  0  0
    2.1382   -1.2375    0.0000 C    0  0  0  0  0  0  0  0  0  0  0  0
    1.4266   -1.6465    0.0000 N    0  0  0  0  0  0  0  0  0  0  0  0
    0.7116   -1.2375    0.0000 C    0  0  0  0  0  0  0  0  0  0  0  0
    2.8497    0.0000    0.0000 C    0  0  0  0  0  0  0  0  0  0  0  0
    0.0000    0.0000    0.0000 C    0  0  0  0  0  0  0  0  0  0  0  0
    2.8497    0.8250    0.0000 C    0  0  0  0  0  0  0  0  0  0  0  0
   -4.2865   -1.6465    0.0000 C    0  0  0  0  0  0  0  0  0  0  0  0
    2.8497   -1.6500    0.0000 O    0  0  0  0  0  0  0  0  0  0  0  0
   -5.0016   -2.0522    0.0000 C    0  0  0  0  0  0  0  0  0  0  0  0
    1.4266    0.8285    0.0000 O    0  0  0  0  0  0  0  0  0  0  0  0
    3.5750    1.2272    0.0000 C    0  0  0  0  0  0  0  0  0  0  0  0
   -2.1485   -0.4125    0.0000 C    0  0  0  0  0  0  0  0  0  0  0  0
    0.0000   -1.6500    0.0000 O    0  0  0  0  0  0  0  0  0  0  0  0
   -0.7116   -0.4125    0.0000 C    0  0  0  0  0  0  0  0  0  0  0  0
    3.5647   -0.4228    0.0000 C    0  0  0  0  0  0  0  0  0  0  0  0
    4.2900    0.8112    0.0000 C    0  0  0  0  0  0  0  0  0  0  0  0
   -1.4369    0.0000    0.0000 C    0  0  0  0  0  0  0  0  0  0  0  0
   -2.1485   -1.2375    0.0000 C    0  0  0  0  0  0  0  0  0  0  0  0
    4.2832   -0.0138    0.0000 C    0  0  0  0  0  0  0  0  0  0  0  0
   -1.4369   -1.6500    0.0000 C    0  0  0  0  0  0  0  0  0  0  0  0
   -0.7150   -1.2375    0.0000 C    0  0  0  0  0  0  0  0  0  0  0  0
    5.0016    1.2237    0.0000 Br   0  0  0  0  0  0  0  0  0  0  0  0
   -2.8634    0.0000    0.0000 O    0  0  0  0  0  0  0  0  0  0  0  0
   -2.8634   -1.6500    0.0000 O    0  0  0  0  0  0  0  0  0  0  0  0
   -3.5750   -1.2340    0.0000 C    0  0  0  0  0  0  0  0  0  0  0  0
    3.5750    2.0557    0.0000 C    0  0  0  0  0  0  0  0  0  0  0  0
   -3.5750   -0.4125    0.0000 C    0  0  0  0  0  0  0  0  0  0  0  0
  2  3  1  0  0  0  0
  2  6  1  0  0  0  0
  3  1  1  0  0  0  0
  4  1  1  0  0  0  0
  5  4  1  0  0  0  0
  6  5  1  0  0  0  0
  7  1  1  0  0  0  0
  8  2  2  0  0  0  0
  9  7  1  0  0  0  0
 10 28  1  0  0  0  0
 11  4  2  0  0  0  0
 12 10  3  0  0  0  0
 13  3  2  0  0  0  0
 14  9  2  0  0  0  0
 15 20  1  0  0  0  0
 15 21  2  0  0  0  0
 16  6  2  0  0  0  0
 17  8  1  0  0  0  0
 18  7  2  0  0  0  0
 19 22  2  0  0  0  0
 19 14  1  0  0  0  0
 20 17  2  0  0  0  0
 21 23  1  0  0  0  0
 22 18  1  0  0  0  0
 23 24  2  0  0  0  0
 24 17  1  0  0  0  0
 25 19  1  0  0  0  0
 26 15  1  0  0  0  0
 27 21  1  0  0  0  0
 28 27  1  0  0  0  0
 29 14  1  0  0  0  0
 30 26  1  0  0  0  0
M  END
> <CdId>
1750

> <Mol Weight>
469.285

> <Formula>
C22H17BrN2O5

> <Click_ID>
CLK023_F05 __ __ 

$$$$
