CLK001_E03
 OpenBabel03181410512D

 29 31  0  0  0  0  0  0  0  0999 V2000
   -1.2753    0.5124    0.0000 N   0  0  0  0  0  0  0  0  0  0  0  0
   -2.0270    0.8426    0.0000 C   0  0  0  0  0  0  0  0  0  0  0  0
   -1.1045   -0.2998    0.0000 C   0  0  0  0  0  0  0  0  0  0  0  0
   -0.5617    0.9147    0.0000 N   0  0  0  0  0  0  0  0  0  0  0  0
   -2.7026    0.3606    0.0000 C   0  0  0  0  0  0  0  0  0  0  0  0
   -2.1104    1.6663    0.0000 C   0  0  0  0  0  0  0  0  0  0  0  0
   -0.2847   -0.3910    0.0000 C   0  0  0  0  0  0  0  0  0  0  0  0
   -1.6549   -0.9147    0.0000 O   0  0  0  0  0  0  0  0  0  0  0  0
    0.0493    0.3644    0.0000 C   0  0  0  0  0  0  0  0  0  0  0  0
   -3.4504    0.6946    0.0000 C   0  0  0  0  0  0  0  0  0  0  0  0
   -2.8657    2.0042    0.0000 C   0  0  0  0  0  0  0  0  0  0  0  0
    0.1290   -1.1084    0.0000 C   0  0  0  0  0  0  0  0  0  0  0  0
    0.8617    0.5390    0.0000 C   0  0  0  0  0  0  0  0  0  0  0  0
   -3.5414    1.5145    0.0000 C   0  0  0  0  0  0  0  0  0  0  0  0
    0.9527   -1.1084    0.0000 C   0  0  0  0  0  0  0  0  0  0  0  0
   -4.2893    1.8600    0.0000 C   0  0  0  0  0  0  0  0  0  0  0  0
    1.3665   -0.3910    0.0000 C   0  0  0  0  0  0  0  0  0  0  0  0
    1.3665   -1.8220    0.0000 C   0  0  0  0  0  0  0  0  0  0  0  0
   -4.3727    2.6760    0.0000 O   0  0  0  0  0  0  0  0  0  0  0  0
   -4.9572    1.3778    0.0000 O   0  0  0  0  0  0  0  0  0  0  0  0
    2.1902   -0.3947    0.0000 C   0  0  0  0  0  0  0  0  0  0  0  0
    2.1902   -1.8257    0.0000 C   0  0  0  0  0  0  0  0  0  0  0  0
    2.6039   -1.1121    0.0000 C   0  0  0  0  0  0  0  0  0  0  0  0
    2.6077    0.3189    0.0000 O   0  0  0  0  0  0  0  0  0  0  0  0
    3.4313   -1.1121    0.0000 O   0  0  0  0  0  0  0  0  0  0  0  0
    3.4352    0.3189    0.0000 C   0  0  0  0  0  0  0  0  0  0  0  0
    3.8414   -1.8257    0.0000 C   0  0  0  0  0  0  0  0  0  0  0  0
    4.6688   -1.8257    0.0000 C   0  0  0  0  0  0  0  0  0  0  0  0
    5.4925   -1.8257    0.0000 C   0  0  0  0  0  0  0  0  0  0  0  0
  1  2  1  0  0  0  0
  1  3  1  0  0  0  0
  1  4  1  0  0  0  0
  2  5  2  0  0  0  0
  2  6  1  0  0  0  0
  3  7  1  0  0  0  0
  3  8  2  0  0  0  0
  4  9  2  0  0  0  0
  5 10  1  0  0  0  0
  6 11  2  0  0  0  0
  7 12  2  0  0  0  0
  7  9  1  0  0  0  0
  9 13  1  0  0  0  0
 10 14  2  0  0  0  0
 11 14  1  0  0  0  0
 12 15  1  0  0  0  0
 14 16  1  0  0  0  0
 15 17  2  0  0  0  0
 15 18  1  0  0  0  0
 16 19  1  0  0  0  0
 16 20  2  0  0  0  0
 17 21  1  0  0  0  0
 18 22  2  0  0  0  0
 21 23  2  0  0  0  0
 21 24  1  0  0  0  0
 22 23  1  0  0  0  0
 23 25  1  0  0  0  0
 24 26  1  0  0  0  0
 25 27  1  0  0  0  0
 27 28  1  0  0  0  0
 28 29  3  0  0  0  0
M  END
> <CdId>
42

> <Mol Weight>
390.3887

> <Formula>
C22H18N2O5

> <Click_ID>
CLK001_E03 __ __ 

$$$$
