CLK034_F11
 OpenBabel03181410512D

 22 24  0  0  0  0  0  0  0  0999 V2000
   -4.5928    2.5553    0.0000 C   0  0  0  0  0  0  0  0  0  0  0  0
   -3.8788    2.9895    0.0000 N   0  0  0  0  0  0  0  0  0  0  0  0
   -5.3611    2.8767    0.0000 S   0  0  0  0  0  0  0  0  0  0  0  0
   -4.6680    1.7411    0.0000 N   0  0  0  0  0  0  0  0  0  0  0  0
   -5.8955    2.2505    0.0000 C   0  0  0  0  0  0  0  0  0  0  0  0
   -5.4696    1.5490    0.0000 C   0  0  0  0  0  0  0  0  0  0  0  0
   -3.8788    3.8079    0.0000 C   0  0  0  0  0  0  0  0  0  0  0  0
   -6.7181    2.2379    0.0000 C   0  0  0  0  0  0  0  0  0  0  0  0
   -5.8579    0.8225    0.0000 C   0  0  0  0  0  0  0  0  0  0  0  0
   -3.2442    1.4655    0.0000 C   0  0  0  0  0  0  0  0  0  0  0  0
   -2.4676    1.7494    0.0000 C   0  0  0  0  0  0  0  0  0  0  0  0
   -4.5928    4.2129    0.0000 O   0  0  0  0  0  0  0  0  0  0  0  0
   -4.0291    1.1983    0.0000 C   0  0  0  0  0  0  0  0  0  0  0  0
   -7.1189    1.5114    0.0000 C   0  0  0  0  0  0  0  0  0  0  0  0
   -6.6805    0.7974    0.0000 C   0  0  0  0  0  0  0  0  0  0  0  0
   -3.1648    4.2212    0.0000 C   0  0  0  0  0  0  0  0  0  0  0  0
   -7.1565    2.9394    0.0000 C   0  0  0  0  0  0  0  0  0  0  0  0
   -7.9331    1.4864    0.0000 C   0  0  0  0  0  0  0  0  0  0  0  0
   -3.1691    5.0396    0.0000 C   0  0  0  0  0  0  0  0  0  0  0  0
   -2.4509    3.8037    0.0000 C   0  0  0  0  0  0  0  0  0  0  0  0
   -7.9832    2.9185    0.0000 C   0  0  0  0  0  0  0  0  0  0  0  0
   -8.3715    2.1920    0.0000 C   0  0  0  0  0  0  0  0  0  0  0  0
  2  1  2  0  0  0  0
  3  1  1  0  0  0  0
  4  1  1  0  0  0  0
  5  3  1  0  0  0  0
  5  6  2  0  0  0  0
  6  4  1  0  0  0  0
  7  2  1  0  0  0  0
  8  5  1  0  0  0  0
  9  6  1  0  0  0  0
 10 13  1  0  0  0  0
 11 10  3  0  0  0  0
 12  7  2  0  0  0  0
 13  4  1  0  0  0  0
 14  8  1  0  0  0  0
 15  9  2  0  0  0  0
 15 14  1  0  0  0  0
 16  7  1  0  0  0  0
 17  8  2  0  0  0  0
 18 14  2  0  0  0  0
 18 22  1  0  0  0  0
 19 16  1  0  0  0  0
 20 16  1  0  0  0  0
 21 17  1  0  0  0  0
 22 21  2  0  0  0  0
M  END
> <CdId>
2625

> <Mol Weight>
308.397

> <Formula>
C18H16N2OS

> <Click_ID>
CLK034_F11 __ __ 

$$$$
