CLK036_H02
 OpenBabel03181410512D

 15 16  0  0  0  0  0  0  0  0999 V2000
   -3.2816    7.3150    0.0000 N   0  0  0  0  0  0  0  0  0  0  0  0
   -3.9966    6.9025    0.0000 C   0  0  0  0  0  0  0  0  0  0  0  0
   -3.9966    6.0775    0.0000 N   0  0  0  0  0  0  0  0  0  0  0  0
   -2.5712    6.0775    0.0000 N   0  0  0  0  0  0  0  0  0  0  0  0
   -2.5712    6.9025    0.0000 C   0  0  0  0  0  0  0  0  0  0  0  0
   -3.2816    5.6650    0.0000 C   0  0  0  0  0  0  0  0  0  0  0  0
   -3.2816    8.1400    0.0000 C   0  0  0  0  0  0  0  0  0  0  0  0
   -2.5712    3.6025    0.0000 C   0  0  0  0  0  0  0  0  0  0  0  0
   -2.5712    2.7775    0.0000 C   0  0  0  0  0  0  0  0  0  0  0  0
   -4.7162    7.3196    0.0000 O   0  0  0  0  0  0  0  0  0  0  0  0
   -1.8563    7.3150    0.0000 C   0  0  0  0  0  0  0  0  0  0  0  0
   -3.2816    4.8400    0.0000 S   0  0  0  0  0  0  0  0  0  0  0  0
   -2.5712    8.5525    0.0000 C   0  0  0  0  0  0  0  0  0  0  0  0
   -1.8563    8.1400    0.0000 C   0  0  0  0  0  0  0  0  0  0  0  0
   -2.5666    4.4321    0.0000 C   0  0  0  0  0  0  0  0  0  0  0  0
  2  1  1  0  0  0  0
  3  2  1  0  0  0  0
  3  6  2  0  0  0  0
  4  5  2  0  0  0  0
  5  1  1  0  0  0  0
  6  4  1  0  0  0  0
  7  1  1  0  0  0  0
  8 15  1  0  0  0  0
  9  8  3  0  0  0  0
 10  2  2  0  0  0  0
 11  5  1  0  0  0  0
 12  6  1  0  0  0  0
 13  7  2  0  0  0  0
 14 13  1  0  0  0  0
 14 11  2  0  0  0  0
 15 12  1  0  0  0  0
M  END
> <CdId>
2764

> <Mol Weight>
217.247

> <Formula>
C10H7N3OS

> <Click_ID>
CLK036_H02 __ __ 

$$$$
