CLK003_C04
 OpenBabel03181410512D

 27 30  0  0  0  0  0  0  0  0999 V2000
   -0.5080   -0.2174    0.0000 C   0  0  0  0  0  0  0  0  0  0  0  0
   -1.2152   -0.5690    0.0000 C   0  0  0  0  0  0  0  0  0  0  0  0
   -0.5080    0.6645    0.0000 C   0  0  0  0  0  0  0  0  0  0  0  0
    0.2580   -0.5690    0.0000 C   0  0  0  0  0  0  0  0  0  0  0  0
   -1.9223   -0.2174    0.0000 C   0  0  0  0  0  0  0  0  0  0  0  0
   -0.5080   -1.0424    0.0000 C   0  0  0  0  0  0  0  0  0  0  0  0
   -1.9223   -1.0424    0.0000 C   0  0  0  0  0  0  0  0  0  0  0  0
   -1.2152    1.0790    0.0000 C   0  0  0  0  0  0  0  0  0  0  0  0
    0.2580    1.0790    0.0000 N   0  0  0  0  0  0  0  0  0  0  0  0
    0.9652   -0.2174    0.0000 N   0  0  0  0  0  0  0  0  0  0  0  0
    0.2580   -1.4549    0.0000 O   0  0  0  0  0  0  0  0  0  0  0  0
   -1.9223    0.6645    0.0000 C   0  0  0  0  0  0  0  0  0  0  0  0
   -0.5080   -1.8674    0.0000 C   0  0  0  0  0  0  0  0  0  0  0  0
   -1.9223   -1.8674    0.0000 C   0  0  0  0  0  0  0  0  0  0  0  0
   -1.2152    1.9040    0.0000 C   0  0  0  0  0  0  0  0  0  0  0  0
    0.9652    0.6645    0.0000 C   0  0  0  0  0  0  0  0  0  0  0  0
    1.6723   -0.5690    0.0000 C   0  0  0  0  0  0  0  0  0  0  0  0
   -2.6295    1.0790    0.0000 C   0  0  0  0  0  0  0  0  0  0  0  0
   -1.9223    2.3145    0.0000 C   0  0  0  0  0  0  0  0  0  0  0  0
    1.6723    1.0790    0.0000 S   0  0  0  0  0  0  0  0  0  0  0  0
    1.6723   -1.4549    0.0000 C   0  0  0  0  0  0  0  0  0  0  0  0
   -2.6295    1.9040    0.0000 C   0  0  0  0  0  0  0  0  0  0  0  0
    2.4384    0.6645    0.0000 C   0  0  0  0  0  0  0  0  0  0  0  0
    0.9652   -1.8674    0.0000 C   0  0  0  0  0  0  0  0  0  0  0  0
    2.4384   -1.8674    0.0000 C   0  0  0  0  0  0  0  0  0  0  0  0
    3.1455    1.0790    0.0000 C   0  0  0  0  0  0  0  0  0  0  0  0
    3.8527    0.6645    0.0000 C   0  0  0  0  0  0  0  0  0  0  0  0
  1  2  1  0  0  0  0
  1  3  2  0  0  0  0
  1  4  1  0  0  0  0
  2  5  1  0  0  0  0
  2  6  1  0  0  0  0
  2  7  1  0  0  0  0
  3  8  1  0  0  0  0
  3  9  1  0  0  0  0
  4 10  1  0  0  0  0
  4 11  2  0  0  0  0
  5 12  1  0  0  0  0
  6 13  1  0  0  0  0
  7 14  1  0  0  0  0
  8 15  1  0  0  0  0
  8 12  2  0  0  0  0
  9 16  2  0  0  0  0
 10 17  1  0  0  0  0
 10 16  1  0  0  0  0
 12 18  1  0  0  0  0
 13 14  1  0  0  0  0
 15 19  2  0  0  0  0
 16 20  1  0  0  0  0
 17 21  1  0  0  0  0
 18 22  2  0  0  0  0
 19 22  1  0  0  0  0
 20 23  1  0  0  0  0
 21 24  1  0  0  0  0
 21 25  2  0  0  0  0
 23 26  1  0  0  0  0
 26 27  3  0  0  0  0
M  END
> <CdId>
183

> <Mol Weight>
376.514

> <Formula>
C23H24N2OS

> <Click_ID>
CLK003_C04 __ __ 

$$$$
