CLK003_F02
 OpenBabel03181410512D

 25 27  0  0  0  0  0  0  0  0999 V2000
   -1.5628   -0.0681    0.0000 C   0  0  0  0  0  0  0  0  0  0  0  0
   -1.6763   -0.8855    0.0000 C   0  0  0  0  0  0  0  0  0  0  0  0
   -0.7530    0.0681    0.0000 C   0  0  3  0  0  0  0  0  0  0  0  0
   -2.2061    0.4389    0.0000 C   0  0  0  0  0  0  0  0  0  0  0  0
   -0.9460   -1.2487    0.0000 N   0  0  0  0  0  0  0  0  0  0  0  0
   -2.4407   -1.1920    0.0000 C   0  0  0  0  0  0  0  0  0  0  0  0
   -0.3708   -0.6584    0.0000 C   0  0  0  0  0  0  0  0  0  0  0  0
    0.1740    0.7000    0.0000 C   0  0  0  0  0  0  0  0  0  0  0  0
   -1.0141    1.0065    0.0000 O   0  0  0  0  0  0  0  0  0  0  0  0
   -2.9742    0.1362    0.0000 C   0  0  0  0  0  0  0  0  0  0  0  0
   -0.7984   -2.0586    0.0000 C   0  0  0  0  0  0  0  0  0  0  0  0
   -3.0915   -0.6849    0.0000 C   0  0  0  0  0  0  0  0  0  0  0  0
    0.4503   -0.7682    0.0000 O   0  0  0  0  0  0  0  0  0  0  0  0
    0.9612    0.2876    0.0000 C   0  0  0  0  0  0  0  0  0  0  0  0
   -1.4303   -2.5883    0.0000 C   0  0  0  0  0  0  0  0  0  0  0  0
    1.6612    0.7266    0.0000 C   0  0  0  0  0  0  0  0  0  0  0  0
    0.9989   -0.3974    0.0000 O   0  0  0  0  0  0  0  0  0  0  0  0
   -2.0623   -3.1142    0.0000 C   0  0  0  0  0  0  0  0  0  0  0  0
    1.6196    1.5515    0.0000 C   0  0  0  0  0  0  0  0  0  0  0  0
    2.3878    0.3481    0.0000 C   0  0  0  0  0  0  0  0  0  0  0  0
    2.3158    1.9941    0.0000 C   0  0  0  0  0  0  0  0  0  0  0  0
    0.8930    1.9337    0.0000 C   0  0  0  0  0  0  0  0  0  0  0  0
    3.0840    0.7946    0.0000 C   0  0  0  0  0  0  0  0  0  0  0  0
    3.0462    1.6196    0.0000 C   0  0  0  0  0  0  0  0  0  0  0  0
    3.7424    2.0586    0.0000 C   0  0  0  0  0  0  0  0  0  0  0  0
  1  2  2  0  0  0  0
  1  3  1  0  0  0  0
  1  4  1  0  0  0  0
  2  5  1  0  0  0  0
  2  6  1  0  0  0  0
  3  7  1  0  0  0  0
  3  8  1  0  0  0  0
  3  9  1  0  0  0  0
  4 10  2  0  0  0  0
  5 11  1  0  0  0  0
  5  7  1  0  0  0  0
  6 12  2  0  0  0  0
  7 13  2  0  0  0  0
  8 14  1  0  0  0  0
 10 12  1  0  0  0  0
 11 15  1  0  0  0  0
 14 16  1  0  0  0  0
 14 17  2  0  0  0  0
 15 18  3  0  0  0  0
 16 19  2  0  0  0  0
 16 20  1  0  0  0  0
 19 21  1  0  0  0  0
 19 22  1  0  0  0  0
 20 23  2  0  0  0  0
 21 24  2  0  0  0  0
 23 24  1  0  0  0  0
 24 25  1  0  0  0  0
M  END
> <CdId>
211

> <Mol Weight>
333.3805

> <Formula>
C21H19NO3

> <Click_ID>
CLK003_F02 __ __ 

$$$$
