CLK025_A08
 OpenBabel03181410512D

 24 26  0  0  0  0  0  0  0  0999 V2000
   -0.6858    0.5878    0.0000 C   0  0  3  0  0  0  0  0  0  0  0  0
   -0.3009   -0.1400    0.0000 C   0  0  0  0  0  0  0  0  0  0  0  0
   -0.8782   -0.7313    0.0000 N   0  0  0  0  0  0  0  0  0  0  0  0
    1.7320    1.2456    0.0000 C   0  0  0  0  0  0  0  0  0  0  0  0
   -1.4976    0.4444    0.0000 C   0  0  0  0  0  0  0  0  0  0  0  0
    1.0322    0.8048    0.0000 C   0  0  0  0  0  0  0  0  0  0  0  0
    0.2450    1.2141    0.0000 C   0  0  0  0  0  0  0  0  0  0  0  0
   -1.6130   -0.3639    0.0000 C   0  0  0  0  0  0  0  0  0  0  0  0
    3.0232    1.5851    0.0000 N   0  0  0  0  0  0  0  0  0  0  0  0
    2.5823    2.2884    0.0000 N   0  0  0  0  0  0  0  0  0  0  0  0
    1.7810    2.0715    0.0000 C   0  0  0  0  0  0  0  0  0  0  0  0
    2.5018    0.9447    0.0000 C   0  0  0  0  0  0  0  0  0  0  0  0
   -1.3646   -2.0679    0.0000 C   0  0  0  0  0  0  0  0  0  0  0  0
   -1.9945   -2.5998    0.0000 C   0  0  0  0  0  0  0  0  0  0  0  0
    0.5179   -0.2555    0.0000 O   0  0  0  0  0  0  0  0  0  0  0  0
    1.0672    0.1155    0.0000 O   0  0  0  0  0  0  0  0  0  0  0  0
   -0.7313   -1.5431    0.0000 C   0  0  0  0  0  0  0  0  0  0  0  0
   -0.9483    1.5326    0.0000 O   0  0  0  0  0  0  0  0  0  0  0  0
   -2.1414    0.9588    0.0000 C   0  0  0  0  0  0  0  0  0  0  0  0
   -2.3759   -0.6753    0.0000 C   0  0  0  0  0  0  0  0  0  0  0  0
    1.1512    2.6033    0.0000 C   0  0  0  0  0  0  0  0  0  0  0  0
    2.7083    0.1470    0.0000 C   0  0  0  0  0  0  0  0  0  0  0  0
   -2.9112    0.6508    0.0000 C   0  0  0  0  0  0  0  0  0  0  0  0
   -3.0267   -0.1680    0.0000 C   0  0  0  0  0  0  0  0  0  0  0  0
  2  1  1  0  0  0  0
  3  2  1  0  0  0  0
  3  8  1  0  0  0  0
  4  6  1  0  0  0  0
  5  1  1  0  0  0  0
  6  7  1  0  0  0  0
  7  1  1  0  0  0  0
  8  5  2  0  0  0  0
  9 12  2  0  0  0  0
  9 10  1  0  0  0  0
 10 11  1  0  0  0  0
 11  4  2  0  0  0  0
 12  4  1  0  0  0  0
 13 17  1  0  0  0  0
 14 13  3  0  0  0  0
 15  2  2  0  0  0  0
 16  6  2  0  0  0  0
 17  3  1  0  0  0  0
 18  1  1  0  0  0  0
 19  5  1  0  0  0  0
 20  8  1  0  0  0  0
 20 24  2  0  0  0  0
 21 11  1  0  0  0  0
 22 12  1  0  0  0  0
 23 19  2  0  0  0  0
 24 23  1  0  0  0  0
M  END
> <CdId>
1863

> <Mol Weight>
323.3459

> <Formula>
C18H17N3O3

> <Click_ID>
CLK025_A08 __ __ 

$$$$
