CLK036_B07
 OpenBabel03181410512D

 21 22  0  0  0  0  0  0  0  0999 V2000
   -4.0929    1.7416    0.0000 N   0  0  0  0  0  0  0  0  0  0  0  0
   -3.3779    0.5041    0.0000 N   0  0  0  0  0  0  0  0  0  0  0  0
   -4.0929    0.9166    0.0000 C   0  0  0  0  0  0  0  0  0  0  0  0
   -2.6675    0.9166    0.0000 C   0  0  0  0  0  0  0  0  0  0  0  0
   -2.6675    1.7416    0.0000 C   0  0  0  0  0  0  0  0  0  0  0  0
   -3.3779    2.1541    0.0000 C   0  0  0  0  0  0  0  0  0  0  0  0
   -1.9616    0.5041    0.0000 N   0  0  0  0  0  0  0  0  0  0  0  0
   -1.9616    2.1541    0.0000 C   0  0  0  0  0  0  0  0  0  0  0  0
   -1.2466    1.7416    0.0000 C   0  0  0  0  0  0  0  0  0  0  0  0
   -1.2466    4.2166    0.0000 C   0  0  0  0  0  0  0  0  0  0  0  0
   -4.8125    0.5041    0.0000 O   0  0  0  0  0  0  0  0  0  0  0  0
   -1.2466    5.0462    0.0000 C   0  0  0  0  0  0  0  0  0  0  0  0
   -3.3779    2.9791    0.0000 O   0  0  0  0  0  0  0  0  0  0  0  0
   -1.2466    0.9166    0.0000 C   0  0  0  0  0  0  0  0  0  0  0  0
   -4.8125    2.1587    0.0000 C   0  0  0  0  0  0  0  0  0  0  0  0
   -3.3779   -0.3209    0.0000 C   0  0  0  0  0  0  0  0  0  0  0  0
   -1.9616    2.9791    0.0000 S   0  0  0  0  0  0  0  0  0  0  0  0
   -1.2466    3.3916    0.0000 C   0  0  0  0  0  0  0  0  0  0  0  0
   -0.5225    2.1587    0.0000 C   0  0  0  0  0  0  0  0  0  0  0  0
   -0.5225    2.9837    0.0000 C   0  0  0  0  0  0  0  0  0  0  0  0
    0.1834    3.3962    0.0000 C   0  0  0  0  0  0  0  0  0  0  0  0
  2  3  1  0  0  0  0
  2  4  1  0  0  0  0
  3  1  1  0  0  0  0
  4  5  2  0  0  0  0
  5  6  1  0  0  0  0
  6  1  1  0  0  0  0
  7  4  1  0  0  0  0
  7 14  2  0  0  0  0
  8  5  1  0  0  0  0
  9  8  2  0  0  0  0
 10 18  1  0  0  0  0
 11  3  2  0  0  0  0
 12 10  3  0  0  0  0
 13  6  2  0  0  0  0
 14  9  1  0  0  0  0
 15  1  1  0  0  0  0
 16  2  1  0  0  0  0
 17  8  1  0  0  0  0
 18 17  1  0  0  0  0
 19  9  1  0  0  0  0
 20 19  1  0  0  0  0
 21 20  1  0  0  0  0
M  END
> <CdId>
2737

> <Mol Weight>
303.379

> <Formula>
C15H17N3O2S

> <Click_ID>
CLK036_B07 __ __ 

$$$$
