CLK013_C07
 OpenBabel03181410512D

 24 26  0  0  0  0  0  0  0  0999 V2000
    1.5624   -0.8145    0.0000 N   0  0  0  0  0  0  0  0  0  0  0  0
    1.8200   -1.5998    0.0000 C   0  0  0  0  0  0  0  0  0  0  0  0
    2.8963   -0.8145    0.0000 C   0  0  0  0  0  0  0  0  0  0  0  0
    2.2314   -0.3283    0.0000 C   0  0  0  0  0  0  0  0  0  0  0  0
    2.6428   -1.5998    0.0000 S   0  0  0  0  0  0  0  0  0  0  0  0
    3.6816   -0.5610    0.0000 C   0  0  0  0  0  0  0  0  0  0  0  0
    3.8437    0.2451    0.0000 C   0  0  0  0  0  0  0  0  0  0  0  0
    4.5999    0.5859    0.0000 N   0  0  0  0  0  0  0  0  0  0  0  0
    0.6108    0.2451    0.0000 C   0  0  0  0  0  0  0  0  0  0  0  0
    5.3147    0.1828    0.0000 C   0  0  0  0  0  0  0  0  0  0  0  0
    0.3906    1.0429    0.0000 C   0  0  0  0  0  0  0  0  0  0  0  0
    4.5127    1.4045    0.0000 C   0  0  0  0  0  0  0  0  0  0  0  0
    1.3339   -2.2605    0.0000 O   0  0  0  0  0  0  0  0  0  0  0  0
    3.2910    0.8601    0.0000 C   0  0  0  0  0  0  0  0  0  0  0  0
    2.2231    0.4944    0.0000 O   0  0  0  0  0  0  0  0  0  0  0  0
    3.7024    1.5790    0.0000 C   0  0  0  0  0  0  0  0  0  0  0  0
    0.7854   -0.5610    0.0000 C   0  0  0  0  0  0  0  0  0  0  0  0
    6.0252    0.5942    0.0000 C   0  0  0  0  0  0  0  0  0  0  0  0
    5.3147   -0.6482    0.0000 C   0  0  0  0  0  0  0  0  0  0  0  0
    6.7483   -0.6400    0.0000 C   0  0  0  0  0  0  0  0  0  0  0  0
    6.7358    0.1828    0.0000 C   0  0  0  0  0  0  0  0  0  0  0  0
    6.0252   -1.0513    0.0000 C   0  0  0  0  0  0  0  0  0  0  0  0
    7.4588   -1.0596    0.0000 O   0  0  0  0  0  0  0  0  0  0  0  0
    8.1776   -0.6482    0.0000 C   0  0  0  0  0  0  0  0  0  0  0  0
  2  1  1  0  0  0  0
  3  4  1  0  0  0  0
  4  1  1  0  0  0  0
  5  2  1  0  0  0  0
  5  3  1  0  0  0  0
  6  3  2  0  0  0  0
  7  6  1  0  0  0  0
  8  7  1  0  0  0  0
  9 17  1  0  0  0  0
 10  8  1  0  0  0  0
 11  9  3  0  0  0  0
 12  8  1  0  0  0  0
 13  2  2  0  0  0  0
 14  7  2  0  0  0  0
 15  4  2  0  0  0  0
 16 14  1  0  0  0  0
 16 12  2  0  0  0  0
 17  1  1  0  0  0  0
 18 10  1  0  0  0  0
 19 10  2  0  0  0  0
 20 22  2  0  0  0  0
 20 21  1  0  0  0  0
 21 18  2  0  0  0  0
 22 19  1  0  0  0  0
 23 20  1  0  0  0  0
 24 23  1  0  0  0  0
M  END
> <CdId>
942

> <Mol Weight>
338.38

> <Formula>
C18H14N2O3S

> <Click_ID>
CLK013_C07 __ __ 

$$$$
