CLK003_C11
 OpenBabel03181410512D

 30 33  0  0  0  0  0  0  0  0999 V2000
    0.7643    0.1820    0.0000 C   0  0  3  0  0  0  0  0  0  0  0  0
    0.3233    0.8756    0.0000 N   0  0  0  0  0  0  0  0  0  0  0  0
    1.5886    0.2163    0.0000 C   0  0  0  0  0  0  0  0  0  0  0  0
    0.3854   -0.5524    0.0000 C   0  0  0  0  0  0  0  0  0  0  0  0
   -0.4988    0.8414    0.0000 C   0  0  0  0  0  0  0  0  0  0  0  0
    0.7022    1.6100    0.0000 C   0  0  0  0  0  0  0  0  0  0  0  0
    2.0340   -0.4775    0.0000 C   0  0  0  0  0  0  0  0  0  0  0  0
    1.9719    0.9506    0.0000 C   0  0  0  0  0  0  0  0  0  0  0  0
    0.8264   -1.2461    0.0000 N   0  0  0  0  0  0  0  0  0  0  0  0
   -0.4367   -0.5866    0.0000 O   0  0  0  0  0  0  0  0  0  0  0  0
   -0.8842    0.1113    0.0000 C   0  0  0  0  0  0  0  0  0  0  0  0
   -0.9463    1.5351    0.0000 C   0  0  0  0  0  0  0  0  0  0  0  0
    0.2612    2.3058    0.0000 C   0  0  0  0  0  0  0  0  0  0  0  0
    1.5287    1.6464    0.0000 O   0  0  0  0  0  0  0  0  0  0  0  0
    2.8540   -0.4432    0.0000 C   0  0  0  0  0  0  0  0  0  0  0  0
    2.7919    0.9870    0.0000 C   0  0  0  0  0  0  0  0  0  0  0  0
    0.4475   -1.9719    0.0000 C   0  0  0  0  0  0  0  0  0  0  0  0
   -1.7042    0.0728    0.0000 C   0  0  0  0  0  0  0  0  0  0  0  0
   -1.7642    1.5008    0.0000 C   0  0  0  0  0  0  0  0  0  0  0  0
   -0.1820    2.9995    0.0000 C   0  0  0  0  0  0  0  0  0  0  0  0
    3.2372    0.2912    0.0000 C   0  0  0  0  0  0  0  0  0  0  0  0
    0.8135   -2.7084    0.0000 C   0  0  0  0  0  0  0  0  0  0  0  0
   -0.3682   -2.0939    0.0000 C   0  0  0  0  0  0  0  0  0  0  0  0
   -2.1474    0.7665    0.0000 C   0  0  0  0  0  0  0  0  0  0  0  0
   -2.0853   -0.6552    0.0000 O   0  0  0  0  0  0  0  0  0  0  0  0
    0.2269   -3.2886    0.0000 C   0  0  0  0  0  0  0  0  0  0  0  0
   -0.5053   -2.9075    0.0000 C   0  0  0  0  0  0  0  0  0  0  0  0
   -2.9717    0.7322    0.0000 O   0  0  0  0  0  0  0  0  0  0  0  0
   -2.9096   -0.6958    0.0000 C   0  0  0  0  0  0  0  0  0  0  0  0
   -3.3528    0.0043    0.0000 C   0  0  0  0  0  0  0  0  0  0  0  0
  1  2  1  0  0  0  0
  1  3  1  0  0  0  0
  1  4  1  0  0  0  0
  2  5  1  0  0  0  0
  2  6  1  0  0  0  0
  3  7  2  0  0  0  0
  3  8  1  0  0  0  0
  4  9  1  0  0  0  0
  4 10  2  0  0  0  0
  5 11  1  0  0  0  0
  5 12  2  0  0  0  0
  6 13  1  0  0  0  0
  6 14  2  0  0  0  0
  7 15  1  0  0  0  0
  8 16  2  0  0  0  0
  9 17  1  0  0  0  0
 11 18  2  0  0  0  0
 12 19  1  0  0  0  0
 13 20  3  0  0  0  0
 15 21  2  0  0  0  0
 16 21  1  0  0  0  0
 17 22  1  0  0  0  0
 17 23  1  0  0  0  0
 18 24  1  0  0  0  0
 18 25  1  0  0  0  0
 19 24  2  0  0  0  0
 22 26  1  0  0  0  0
 23 27  1  0  0  0  0
 24 28  1  0  0  0  0
 25 29  1  0  0  0  0
 26 27  1  0  0  0  0
 28 30  1  0  0  0  0
 29 30  1  0  0  0  0
M  END
> <CdId>
190

> <Mol Weight>
404.4584

> <Formula>
C24H24N2O4

> <Click_ID>
CLK003_C11 __ __ 

$$$$
