CLK025_A07
 OpenBabel03181410512D

 24 26  0  0  0  0  0  0  0  0999 V2000
   -0.6327    0.4369    0.0000 C    0  0  3  0  0  0  0  0  0  0  0  0
   -0.1748   -0.1957    0.0000 C    0  0  0  0  0  0  0  0  0  0  0  0
   -1.4227    0.1748    0.0000 C    0  0  0  0  0  0  0  0  0  0  0  0
   -0.6327   -0.9054    0.0000 N    0  0  0  0  0  0  0  0  0  0  0  0
   -1.4227   -0.6467    0.0000 C    0  0  0  0  0  0  0  0  0  0  0  0
    0.2097    1.2060    0.0000 C    0  0  0  0  0  0  0  0  0  0  0  0
    1.6744    1.6849    0.0000 C    0  0  0  0  0  0  0  0  0  0  0  0
    2.4994    1.6569    0.0000 S    0  0  0  0  0  0  0  0  0  0  0  0
    1.1710    1.0313    0.0000 C    0  0  0  0  0  0  0  0  0  0  0  0
    2.7755    2.4399    0.0000 C    0  0  0  0  0  0  0  0  0  0  0  0
    1.4437    2.4749    0.0000 C    0  0  0  0  0  0  0  0  0  0  0  0
    2.1184    2.9399    0.0000 C    0  0  0  0  0  0  0  0  0  0  0  0
   -0.8879   -2.3107    0.0000 C    0  0  0  0  0  0  0  0  0  0  0  0
   -2.1358   -1.0592    0.0000 C    0  0  0  0  0  0  0  0  0  0  0  0
   -1.4227   -2.9364    0.0000 C    0  0  0  0  0  0  0  0  0  0  0  0
   -2.1358    0.5908    0.0000 C    0  0  0  0  0  0  0  0  0  0  0  0
    0.6223   -0.2622    0.0000 O    0  0  0  0  0  0  0  0  0  0  0  0
   -0.3566   -1.6779    0.0000 C    0  0  0  0  0  0  0  0  0  0  0  0
   -1.0242    1.3074    0.0000 O    0  0  0  0  0  0  0  0  0  0  0  0
    1.4472    0.4509    0.0000 O    0  0  0  0  0  0  0  0  0  0  0  0
    3.5621    2.6742    0.0000 Br   0  0  0  0  0  0  0  0  0  0  0  0
   -2.8489    0.1748    0.0000 C    0  0  0  0  0  0  0  0  0  0  0  0
   -2.8489   -0.6467    0.0000 C    0  0  0  0  0  0  0  0  0  0  0  0
   -3.5656    0.5873    0.0000 Br   0  0  0  0  0  0  0  0  0  0  0  0
  2  1  1  0  0  0  0
  3  1  1  0  0  0  0
  4  2  1  0  0  0  0
  5  3  2  0  0  0  0
  5  4  1  0  0  0  0
  6  1  1  0  0  0  0
  7  9  1  0  0  0  0
  8  7  1  0  0  0  0
  9  6  1  0  0  0  0
 10  8  1  0  0  0  0
 10 12  2  0  0  0  0
 11  7  2  0  0  0  0
 12 11  1  0  0  0  0
 13 18  1  0  0  0  0
 14  5  1  0  0  0  0
 15 13  3  0  0  0  0
 16  3  1  0  0  0  0
 17  2  2  0  0  0  0
 18  4  1  0  0  0  0
 19  1  1  0  0  0  0
 20  9  2  0  0  0  0
 21 10  1  0  0  0  0
 22 16  2  0  0  0  0
 23 22  1  0  0  0  0
 23 14  2  0  0  0  0
 24 22  1  0  0  0  0
M  END
> <CdId>
1862

> <Mol Weight>
469.147

> <Formula>
C17H11Br2NO3S

> <Click_ID>
CLK025_A07 __ __ 

$$$$
