CLK029_G02
 OpenBabel03181410512D

 21 22  0  0  0  0  0  0  0  0999 V2000
   -1.1735    0.6390    0.0000 C   0  0  0  0  0  0  0  0  0  0  0  0
   -1.6621   -0.0293    0.0000 N   0  0  0  0  0  0  0  0  0  0  0  0
   -0.3466    0.6390    0.0000 N   0  0  0  0  0  0  0  0  0  0  0  0
   -1.6621    1.3113    0.0000 S   0  0  0  0  0  0  0  0  0  0  0  0
   -2.4514    0.2255    0.0000 C   0  0  0  0  0  0  0  0  0  0  0  0
   -2.4514    1.0524    0.0000 C   0  0  0  0  0  0  0  0  0  0  0  0
   -0.1336    1.4408    0.0000 C   0  0  0  0  0  0  0  0  0  0  0  0
   -0.6014   -0.9814    0.0000 C   0  0  0  0  0  0  0  0  0  0  0  0
   -0.0501   -0.3675    0.0000 C   0  0  0  0  0  0  0  0  0  0  0  0
    0.2798    3.0527    0.0000 C   0  0  0  0  0  0  0  0  0  0  0  0
    0.8687    2.4639    0.0000 S   0  0  0  0  0  0  0  0  0  0  0  0
   -1.4032   -0.8060    0.0000 C   0  0  0  0  0  0  0  0  0  0  0  0
   -0.7224    2.0254    0.0000 O   0  0  0  0  0  0  0  0  0  0  0  0
   -0.5137    2.8272    0.0000 O   0  0  0  0  0  0  0  0  0  0  0  0
    0.6557    1.6621    0.0000 C   0  0  0  0  0  0  0  0  0  0  0  0
   -3.1655   -0.1796    0.0000 C   0  0  0  0  0  0  0  0  0  0  0  0
   -3.1655    1.4742    0.0000 C   0  0  0  0  0  0  0  0  0  0  0  0
    0.4928    3.8420    0.0000 C   0  0  0  0  0  0  0  0  0  0  0  0
   -3.8713    0.2255    0.0000 C   0  0  0  0  0  0  0  0  0  0  0  0
   -3.8713    1.0524    0.0000 C   0  0  0  0  0  0  0  0  0  0  0  0
   -4.5937    1.4616    0.0000 H   0  0  0  0  0  0  0  0  0  0  0  0
  2  1  1  0  0  0  0
  3  1  2  0  0  0  0
  4  1  1  0  0  0  0
  5  2  1  0  0  0  0
  6  4  1  0  0  0  0
  6  5  2  0  0  0  0
  7  3  1  0  0  0  0
  8 12  1  0  0  0  0
  9  8  3  0  0  0  0
 10 11  1  0  0  0  0
 11 15  1  0  0  0  0
 12  2  1  0  0  0  0
 13  7  2  0  0  0  0
 14 10  2  0  0  0  0
 15  7  1  0  0  0  0
 16  5  1  0  0  0  0
 17  6  1  0  0  0  0
 18 10  1  0  0  0  0
 19 16  2  0  0  0  0
 20 17  2  0  0  0  0
 20 19  1  0  0  0  0
 21 20  1  0  0  0  0
M  END
> <CdId>
2226

> <Mol Weight>
304.387

> <Formula>
C14H12N2O2S2

> <Click_ID>
CLK029_G02 __ __ 

$$$$
