CLK047H02
 OpenBabel03181410512D

 13 13  0  0  0  0  0  0  0  0999 V2000
   -0.3333    0.5750    0.0000 C    0  0  0  0  0  0  0  0  0  0  0  0
    1.0958    2.2250    0.0000 C    0  0  0  0  0  0  0  0  0  0  0  0
    1.8125    2.6375    0.0000 C    0  0  0  0  0  0  0  0  0  0  0  0
   -0.3333   -0.2500    0.0000 C    0  0  0  0  0  0  0  0  0  0  0  0
   -1.0458    0.9875    0.0000 O    0  0  0  0  0  0  0  0  0  0  0  0
    0.3833    0.9875    0.0000 N    0  0  0  0  0  0  0  0  0  0  0  0
   -1.0458   -0.6625    0.0000 C    0  0  0  0  0  0  0  0  0  0  0  0
    0.3833   -0.6625    0.0000 C    0  0  0  0  0  0  0  0  0  0  0  0
   -0.3333   -1.9000    0.0000 C    0  0  0  0  0  0  0  0  0  0  0  0
   -1.0458   -1.4875    0.0000 C    0  0  0  0  0  0  0  0  0  0  0  0
    0.3833   -1.4875    0.0000 C    0  0  0  0  0  0  0  0  0  0  0  0
   -0.3333   -2.7250    0.0000 Br   0  0  0  0  0  0  0  0  0  0  0  0
    0.3833    1.8125    0.0000 C    0  0  0  0  0  0  0  0  0  0  0  0
  2 13  1  0  0  0  0
  3  2  3  0  0  0  0
  4  1  1  0  0  0  0
  5  1  2  0  0  0  0
  6  1  1  0  0  0  0
  7  4  2  0  0  0  0
  8  4  1  0  0  0  0
  9 10  2  0  0  0  0
 10  7  1  0  0  0  0
 11  8  2  0  0  0  0
 11  9  1  0  0  0  0
 12  9  1  0  0  0  0
 13  6  1  0  0  0  0
M  END
> <CdId>
3576

> <Mol Weight>
238.081

> <Formula>
C10H8BrNO

> <Click_ID>
CLK047H02 __ __ 

$$$$
