CLK016_H05
 OpenBabel03181410512D

 30 32  0  0  0  0  0  0  0  0999 V2000
    5.8476   -2.8367    0.0000 N    0  0  0  0  0  0  0  0  0  0  0  0
    4.6194   -2.1172    0.0000 C    0  0  0  0  0  0  0  0  0  0  0  0
    5.4351   -2.1218    0.0000 C    0  0  0  0  0  0  0  0  0  0  0  0
    5.4214   -3.5516    0.0000 C    0  0  0  0  0  0  0  0  0  0  0  0
    4.5965   -3.5379    0.0000 N    0  0  0  0  0  0  0  0  0  0  0  0
    4.1978   -2.8230    0.0000 C    0  0  0  0  0  0  0  0  0  0  0  0
    9.1471   -2.8780    0.0000 N    0  0  0  0  0  0  0  0  0  0  0  0
    4.2115   -1.3932    0.0000 C    0  0  0  0  0  0  0  0  0  0  0  0
    6.6724   -2.8505    0.0000 C    0  0  0  0  0  0  0  0  0  0  0  0
    8.3222   -2.8734    0.0000 C    0  0  0  0  0  0  0  0  0  0  0  0
   -0.3300   -2.0393    0.0000 C    0  0  0  0  0  0  0  0  0  0  0  0
    5.8292   -4.2757    0.0000 O    0  0  0  0  0  0  0  0  0  0  0  0
   -0.7515   -2.7496    0.0000 C    0  0  0  0  0  0  0  0  0  0  0  0
    5.8613   -1.4161    0.0000 O    0  0  0  0  0  0  0  0  0  0  0  0
    2.1447   -2.0806    0.0000 C    0  0  0  0  0  0  0  0  0  0  0  0
    9.5458   -3.6020    0.0000 O    0  0  0  0  0  0  0  0  0  0  0  0
    9.5687   -2.1722    0.0000 O    0  0  0  0  0  0  0  0  0  0  0  0
    3.3729   -2.8092    0.0000 O    0  0  0  0  0  0  0  0  0  0  0  0
    3.3866   -1.3794    0.0000 C    0  0  0  0  0  0  0  0  0  0  0  0
    2.9696   -2.0943    0.0000 C    0  0  0  0  0  0  0  0  0  0  0  0
    1.7460   -1.3611    0.0000 C    0  0  0  0  0  0  0  0  0  0  0  0
    7.0711   -3.5654    0.0000 C    0  0  0  0  0  0  0  0  0  0  0  0
    7.0940   -2.1447    0.0000 C    0  0  0  0  0  0  0  0  0  0  0  0
    7.8960   -3.5791    0.0000 C    0  0  0  0  0  0  0  0  0  0  0  0
    7.9189   -2.1493    0.0000 C    0  0  0  0  0  0  0  0  0  0  0  0
    2.1631   -0.6508    0.0000 C    0  0  0  0  0  0  0  0  0  0  0  0
    1.7231   -2.7909    0.0000 Cl   0  0  0  0  0  0  0  0  0  0  0  0
    2.9880   -0.6645    0.0000 C    0  0  0  0  0  0  0  0  0  0  0  0
    0.9211   -1.3473    0.0000 O    0  0  0  0  0  0  0  0  0  0  0  0
    0.4949   -2.0531    0.0000 C    0  0  0  0  0  0  0  0  0  0  0  0
  2  3  1  0  0  0  0
  3  1  1  0  0  0  0
  4  1  1  0  0  0  0
  5  4  1  0  0  0  0
  6  5  1  0  0  0  0
  6  2  1  0  0  0  0
  7 10  1  0  0  0  0
  8  2  2  0  0  0  0
  9  1  1  0  0  0  0
 10 25  2  0  0  0  0
 10 24  1  0  0  0  0
 11 30  1  0  0  0  0
 12  4  2  0  0  0  0
 13 11  3  0  0  0  0
 14  3  2  0  0  0  0
 15 20  1  0  0  0  0
 16  7  1  0  0  0  0
 17  7  2  0  0  0  0
 18  6  2  0  0  0  0
 19  8  1  0  0  0  0
 20 19  2  0  0  0  0
 21 26  1  0  0  0  0
 21 15  2  0  0  0  0
 22  9  1  0  0  0  0
 23  9  2  0  0  0  0
 24 22  2  0  0  0  0
 25 23  1  0  0  0  0
 26 28  2  0  0  0  0
 27 15  1  0  0  0  0
 28 19  1  0  0  0  0
 29 21  1  0  0  0  0
 30 29  1  0  0  0  0
M  END
> <CdId>
1230

> <Mol Weight>
425.779

> <Formula>
C20H12ClN3O6

> <Click_ID>
CLK016_H05 __ __ 

$$$$
