CLK023_H05
 OpenBabel03181410512D

 28 31  0  0  0  0  0  0  0  0999 V2000
   -1.7460    1.8354    0.0000 N   0  0  0  0  0  0  0  0  0  0  0  0
   -2.5571    1.6635    0.0000 C   0  0  0  0  0  0  0  0  0  0  0  0
   -1.8904    0.5052    0.0000 C   0  0  0  0  0  0  0  0  0  0  0  0
    0.3953   -0.5740    0.0000 N   0  0  0  0  0  0  0  0  0  0  0  0
   -1.3336    1.1101    0.0000 C   0  0  0  0  0  0  0  0  0  0  0  0
   -0.9452   -0.5636    0.0000 C   0  0  0  0  0  0  0  0  0  0  0  0
   -2.6534    0.8490    0.0000 S   0  0  0  0  0  0  0  0  0  0  0  0
   -0.2716   -0.0893    0.0000 C   0  0  0  0  0  0  0  0  0  0  0  0
   -1.7288   -0.2990    0.0000 C   0  0  0  0  0  0  0  0  0  0  0  0
    0.1203   -1.3611    0.0000 C   0  0  0  0  0  0  0  0  0  0  0  0
   -0.6943   -1.3576    0.0000 C   0  0  0  0  0  0  0  0  0  0  0  0
    1.1789   -0.3368    0.0000 C   0  0  0  0  0  0  0  0  0  0  0  0
    1.7803   -0.9005    0.0000 C   0  0  0  0  0  0  0  0  0  0  0  0
   -0.5843    2.6637    0.0000 C   0  0  0  0  0  0  0  0  0  0  0  0
    0.2303    2.7978    0.0000 C   0  0  0  0  0  0  0  0  0  0  0  0
   -3.1655    2.2237    0.0000 O   0  0  0  0  0  0  0  0  0  0  0  0
   -0.5190    1.0276    0.0000 O   0  0  0  0  0  0  0  0  0  0  0  0
   -1.4058    2.5846    0.0000 C   0  0  0  0  0  0  0  0  0  0  0  0
    2.5675   -0.6461    0.0000 C   0  0  0  0  0  0  0  0  0  0  0  0
    2.7531    0.1512    0.0000 F   0  0  0  0  0  0  0  0  0  0  0  0
    0.5190   -2.0863    0.0000 C   0  0  0  0  0  0  0  0  0  0  0  0
   -1.1308   -2.0622    0.0000 C   0  0  0  0  0  0  0  0  0  0  0  0
    1.6051   -1.7082    0.0000 C   0  0  0  0  0  0  0  0  0  0  0  0
    3.1620   -1.2132    0.0000 C   0  0  0  0  0  0  0  0  0  0  0  0
    0.1066   -2.7943    0.0000 C   0  0  0  0  0  0  0  0  0  0  0  0
   -0.7183   -2.7805    0.0000 C   0  0  0  0  0  0  0  0  0  0  0  0
    2.2031   -2.2616    0.0000 C   0  0  0  0  0  0  0  0  0  0  0  0
    2.9902   -2.0244    0.0000 C   0  0  0  0  0  0  0  0  0  0  0  0
  2  1  1  0  0  0  0
  3  5  1  0  0  0  0
  4  8  1  0  0  0  0
  5  1  1  0  0  0  0
  6  9  1  0  0  0  0
  7  2  1  0  0  0  0
  7  3  1  0  0  0  0
  8  6  2  0  0  0  0
  9  3  2  0  0  0  0
 10 11  1  0  0  0  0
 10  4  1  0  0  0  0
 11  6  1  0  0  0  0
 12  4  1  0  0  0  0
 13 12  1  0  0  0  0
 14 18  1  0  0  0  0
 15 14  3  0  0  0  0
 16  2  2  0  0  0  0
 17  5  2  0  0  0  0
 18  1  1  0  0  0  0
 19 13  1  0  0  0  0
 20 19  1  0  0  0  0
 21 10  2  0  0  0  0
 22 11  2  0  0  0  0
 23 13  2  0  0  0  0
 24 19  2  0  0  0  0
 25 26  2  0  0  0  0
 25 21  1  0  0  0  0
 26 22  1  0  0  0  0
 27 23  1  0  0  0  0
 28 27  2  0  0  0  0
 28 24  1  0  0  0  0
M  END
> <CdId>
1770

> <Mol Weight>
390.43

> <Formula>
C22H15FN2O2S

> <Click_ID>
CLK023_H05 __ __ 

$$$$
