CLK047G10
 OpenBabel03181410512D

 16 16  0  0  0  0  0  0  0  0999 V2000
    0.7125   -1.9042    0.0000 S   0  0  0  0  0  0  0  0  0  0  0  0
    0.7125   -1.0792    0.0000 C   0  0  0  0  0  0  0  0  0  0  0  0
   -0.7167    0.5708    0.0000 C   0  0  0  0  0  0  0  0  0  0  0  0
   -1.4292    2.6333    0.0000 C   0  0  0  0  0  0  0  0  0  0  0  0
    0.0000    0.1583    0.0000 C   0  0  0  0  0  0  0  0  0  0  0  0
    0.0000   -0.6667    0.0000 C   0  0  0  0  0  0  0  0  0  0  0  0
   -1.4292    3.4583    0.0000 C   0  0  0  0  0  0  0  0  0  0  0  0
   -0.1125   -1.9042    0.0000 O   0  0  0  0  0  0  0  0  0  0  0  0
    0.7125   -2.7292    0.0000 O   0  0  0  0  0  0  0  0  0  0  0  0
   -1.4292    0.1583    0.0000 O   0  0  0  0  0  0  0  0  0  0  0  0
   -0.7167    1.3958    0.0000 N   0  0  0  0  0  0  0  0  0  0  0  0
    1.5375   -1.9042    0.0000 C   0  0  0  0  0  0  0  0  0  0  0  0
   -1.4292    1.8083    0.0000 C   0  0  0  0  0  0  0  0  0  0  0  0
    1.4250   -0.6667    0.0000 C   0  0  0  0  0  0  0  0  0  0  0  0
    0.7125    0.5708    0.0000 C   0  0  0  0  0  0  0  0  0  0  0  0
    1.4250    0.1583    0.0000 C   0  0  0  0  0  0  0  0  0  0  0  0
  2  1  1  0  0  0  0
  3  5  1  0  0  0  0
  4 13  1  0  0  0  0
  5  6  1  0  0  0  0
  6  2  2  0  0  0  0
  7  4  3  0  0  0  0
  8  1  2  0  0  0  0
  9  1  2  0  0  0  0
 10  3  2  0  0  0  0
 11  3  1  0  0  0  0
 12  1  1  0  0  0  0
 13 11  1  0  0  0  0
 14  2  1  0  0  0  0
 15  5  2  0  0  0  0
 15 16  1  0  0  0  0
 16 14  2  0  0  0  0
M  END
> <CdId>
3639

> <Mol Weight>
237.275

> <Formula>
C11H11NO3S

> <Click_ID>
CLK047G10 __ __ 

$$$$
