CLK017_A11
 OpenBabel03181410512D

 26 27  0  0  0  0  0  0  0  0999 V2000
    4.1917   -3.5750    0.0000 N   0  0  0  0  0  0  0  0  0  0  0  0
    3.4792   -3.9875    0.0000 C   0  0  0  0  0  0  0  0  0  0  0  0
    4.0167   -2.7667    0.0000 C   0  0  0  0  0  0  0  0  0  0  0  0
    3.2000   -2.6792    0.0000 C   0  0  0  0  0  0  0  0  0  0  0  0
    2.8625   -3.4292    0.0000 S   0  0  0  0  0  0  0  0  0  0  0  0
    2.7792   -1.9667    0.0000 C   0  0  0  0  0  0  0  0  0  0  0  0
    0.3000   -1.9667    0.0000 C   0  0  0  0  0  0  0  0  0  0  0  0
    0.7167   -2.6792    0.0000 C   0  0  0  0  0  0  0  0  0  0  0  0
    0.7125   -1.2500    0.0000 C   0  0  0  0  0  0  0  0  0  0  0  0
    1.9542   -1.9667    0.0000 C   0  0  0  0  0  0  0  0  0  0  0  0
   -1.7625   -2.6875    0.0000 C   0  0  0  0  0  0  0  0  0  0  0  0
   -2.5833   -2.6792    0.0000 C   0  0  0  0  0  0  0  0  0  0  0  0
    3.3917   -4.8042    0.0000 O   0  0  0  0  0  0  0  0  0  0  0  0
    1.5417   -2.6792    0.0000 C   0  0  0  0  0  0  0  0  0  0  0  0
    4.5667   -2.1542    0.0000 O   0  0  0  0  0  0  0  0  0  0  0  0
    1.5417   -1.2500    0.0000 C   0  0  0  0  0  0  0  0  0  0  0  0
    4.9417   -3.9042    0.0000 C   0  0  0  0  0  0  0  0  0  0  0  0
    0.3042   -3.3917    0.0000 I   0  0  0  0  0  0  0  0  0  0  0  0
   -0.5333   -1.9667    0.0000 O   0  0  0  0  0  0  0  0  0  0  0  0
    0.2917   -0.5375    0.0000 O   0  0  0  0  0  0  0  0  0  0  0  0
   -0.9375   -2.6875    0.0000 C   0  0  0  0  0  0  0  0  0  0  0  0
   -0.5333   -0.5375    0.0000 C   0  0  0  0  0  0  0  0  0  0  0  0
    5.0292   -4.7292    0.0000 C   0  0  0  0  0  0  0  0  0  0  0  0
    5.7875   -5.0625    0.0000 C   0  0  0  0  0  0  0  0  0  0  0  0
   -0.9458    0.1750    0.0000 C   0  0  0  0  0  0  0  0  0  0  0  0
    5.8667   -5.8792    0.0000 C   0  0  0  0  0  0  0  0  0  0  0  0
  2  1  1  0  0  0  0
  3  1  1  0  0  0  0
  4  3  1  0  0  0  0
  4  5  1  0  0  0  0
  5  2  1  0  0  0  0
  6  4  2  0  0  0  0
  7  9  2  0  0  0  0
  8 14  2  0  0  0  0
  8  7  1  0  0  0  0
  9 16  1  0  0  0  0
 10  6  1  0  0  0  0
 11 21  1  0  0  0  0
 12 11  3  0  0  0  0
 13  2  2  0  0  0  0
 14 10  1  0  0  0  0
 15  3  2  0  0  0  0
 16 10  2  0  0  0  0
 17  1  1  0  0  0  0
 18  8  1  0  0  0  0
 19  7  1  0  0  0  0
 20  9  1  0  0  0  0
 21 19  1  0  0  0  0
 22 20  1  0  0  0  0
 23 17  1  0  0  0  0
 24 23  1  0  0  0  0
 25 22  1  0  0  0  0
 26 24  1  0  0  0  0
M  END
> <CdId>
1246

> <Mol Weight>
485.336

> <Formula>
C19H20INO4S

> <Click_ID>
CLK017_A11 __ __ 

$$$$
