CLK032_F04
 OpenBabel03181410512D

 28 30  0  0  0  0  0  0  0  0999 V2000
   -1.1649    2.3882    0.0000 C   0  0  0  0  0  0  0  0  0  0  0  0
   -1.6492    1.7244    0.0000 N   0  0  0  0  0  0  0  0  0  0  0  0
   -0.3382    2.3799    0.0000 N   0  0  0  0  0  0  0  0  0  0  0  0
   -1.6492    3.0563    0.0000 S   0  0  0  0  0  0  0  0  0  0  0  0
   -2.4383    2.8016    0.0000 C   0  0  0  0  0  0  0  0  0  0  0  0
   -2.4383    1.9749    0.0000 C   0  0  0  0  0  0  0  0  0  0  0  0
    0.0752    3.0939    0.0000 C   0  0  0  0  0  0  0  0  0  0  0  0
   -3.1523    3.2149    0.0000 C   0  0  0  0  0  0  0  0  0  0  0  0
   -1.9498    0.3215    0.0000 C   0  0  0  0  0  0  0  0  0  0  0  0
   -2.5010   -0.2923    0.0000 C   0  0  0  0  0  0  0  0  0  0  0  0
   -3.1523    1.5615    0.0000 C   0  0  0  0  0  0  0  0  0  0  0  0
   -5.2985    2.8058    0.0000 C   0  0  0  0  0  0  0  0  0  0  0  0
   -4.5928    3.2192    0.0000 N   0  0  0  0  0  0  0  0  0  0  0  0
   -3.8663    2.8016    0.0000 C   0  0  0  0  0  0  0  0  0  0  0  0
    0.9019    3.0939    0.0000 C   0  0  0  0  0  0  0  0  0  0  0  0
   -1.3987    0.9352    0.0000 C   0  0  0  0  0  0  0  0  0  0  0  0
   -0.3382    3.8079    0.0000 O   0  0  0  0  0  0  0  0  0  0  0  0
   -6.0124    3.2192    0.0000 O   0  0  0  0  0  0  0  0  0  0  0  0
   -3.8663    1.9749    0.0000 C   0  0  0  0  0  0  0  0  0  0  0  0
    1.3277    3.8287    0.0000 C   0  0  0  0  0  0  0  0  0  0  0  0
    0.9061    4.5261    0.0000 O   0  0  0  0  0  0  0  0  0  0  0  0
    1.3194    5.2400    0.0000 C   0  0  0  0  0  0  0  0  0  0  0  0
   -5.3068    1.9791    0.0000 C   0  0  0  0  0  0  0  0  0  0  0  0
    0.9061    5.9540    0.0000 C   0  0  0  0  0  0  0  0  0  0  0  0
    2.1461    5.2526    0.0000 C   0  0  0  0  0  0  0  0  0  0  0  0
    1.3069    6.6680    0.0000 C   0  0  0  0  0  0  0  0  0  0  0  0
    2.5595    5.9665    0.0000 C   0  0  0  0  0  0  0  0  0  0  0  0
    2.1336    6.6805    0.0000 C   0  0  0  0  0  0  0  0  0  0  0  0
  2  1  1  0  0  0  0
  3  1  2  0  0  0  0
  4  1  1  0  0  0  0
  5  4  1  0  0  0  0
  5  6  2  0  0  0  0
  6  2  1  0  0  0  0
  7  3  1  0  0  0  0
  8  5  1  0  0  0  0
  9 16  1  0  0  0  0
 10  9  3  0  0  0  0
 11  6  1  0  0  0  0
 12 13  1  0  0  0  0
 13 14  1  0  0  0  0
 14  8  2  0  0  0  0
 14 19  1  0  0  0  0
 15  7  1  0  0  0  0
 16  2  1  0  0  0  0
 17  7  2  0  0  0  0
 18 12  2  0  0  0  0
 19 11  2  0  0  0  0
 20 15  1  0  0  0  0
 21 20  1  0  0  0  0
 22 21  1  0  0  0  0
 23 12  1  0  0  0  0
 24 22  1  0  0  0  0
 25 22  2  0  0  0  0
 26 24  2  0  0  0  0
 26 28  1  0  0  0  0
 27 25  1  0  0  0  0
 28 27  2  0  0  0  0
M  END
> <CdId>
2458

> <Mol Weight>
393.459

> <Formula>
C21H19N3O3S

> <Click_ID>
CLK032_F04 __ __ 

$$$$
