CLK048F06
 OpenBabel03181410512D

 23 24  0  0  0  0  0  0  0  0999 V2000
   -3.3292   -0.1417    0.0000 C   0  0  0  0  0  0  0  0  0  0  0  0
   -4.1167    0.1125    0.0000 N   0  0  0  0  0  0  0  0  0  0  0  0
   -3.3292   -0.9667    0.0000 C   0  0  0  0  0  0  0  0  0  0  0  0
   -2.6625    0.3458    0.0000 N   0  0  0  0  0  0  0  0  0  0  0  0
   -4.6000   -0.5542    0.0000 O   0  0  0  0  0  0  0  0  0  0  0  0
   -4.1167   -1.2208    0.0000 C   0  0  0  0  0  0  0  0  0  0  0  0
    4.4417    1.0917    0.0000 C   0  0  0  0  0  0  0  0  0  0  0  0
    5.1125    1.5750    0.0000 C   0  0  0  0  0  0  0  0  0  0  0  0
   -1.9083    0.0083    0.0000 C   0  0  0  0  0  0  0  0  0  0  0  0
    0.9333    0.3083    0.0000 C   0  0  0  0  0  0  0  0  0  0  0  0
    1.6000    0.7917    0.0000 N   0  0  0  0  0  0  0  0  0  0  0  0
    2.3542    0.4583    0.0000 C   0  0  0  0  0  0  0  0  0  0  0  0
   -1.8208   -0.8125    0.0000 O   0  0  0  0  0  0  0  0  0  0  0  0
    1.0208   -0.5125    0.0000 O   0  0  0  0  0  0  0  0  0  0  0  0
   -0.4875    0.1583    0.0000 S   0  0  0  0  0  0  0  0  0  0  0  0
    3.7750    0.6083    0.0000 C   0  0  0  0  0  0  0  0  0  0  0  0
    3.0208    0.9417    0.0000 C   0  0  0  0  0  0  0  0  0  0  0  0
   -1.2417    0.4917    0.0000 C   0  0  0  0  0  0  0  0  0  0  0  0
    0.1792    0.6417    0.0000 C   0  0  0  0  0  0  0  0  0  0  0  0
    3.1958   -0.7000    0.0000 C   0  0  0  0  0  0  0  0  0  0  0  0
   -4.3708   -2.0042    0.0000 C   0  0  0  0  0  0  0  0  0  0  0  0
    2.4417   -0.3625    0.0000 C   0  0  0  0  0  0  0  0  0  0  0  0
    3.8625   -0.2125    0.0000 C   0  0  0  0  0  0  0  0  0  0  0  0
  2  1  2  0  0  0  0
  3  1  1  0  0  0  0
  4  1  1  0  0  0  0
  5  2  1  0  0  0  0
  5  6  1  0  0  0  0
  6  3  2  0  0  0  0
  7 16  1  0  0  0  0
  8  7  3  0  0  0  0
  9  4  1  0  0  0  0
 10 19  1  0  0  0  0
 11 10  1  0  0  0  0
 12 11  1  0  0  0  0
 13  9  2  0  0  0  0
 14 10  2  0  0  0  0
 15 18  1  0  0  0  0
 16 17  1  0  0  0  0
 17 12  2  0  0  0  0
 18  9  1  0  0  0  0
 19 15  1  0  0  0  0
 20 22  2  0  0  0  0
 21  6  1  0  0  0  0
 22 12  1  0  0  0  0
 23 16  2  0  0  0  0
 23 20  1  0  0  0  0
M  END
> <CdId>
3686

> <Mol Weight>
329.374

> <Formula>
C16H15N3O3S

> <Click_ID>
CLK048F06 __ __ 

$$$$
