CLK018_G11
 OpenBabel03181410512D

 26 28  0  0  0  0  0  0  0  0999 V2000
    1.5629   -0.8147    0.0000 N    0  0  0  0  0  0  0  0  0  0  0  0
    1.8205   -1.6003    0.0000 C    0  0  0  0  0  0  0  0  0  0  0  0
    2.8971   -0.8147    0.0000 C    0  0  0  0  0  0  0  0  0  0  0  0
    2.2320   -0.3284    0.0000 C    0  0  0  0  0  0  0  0  0  0  0  0
    2.6435   -1.6003    0.0000 S    0  0  0  0  0  0  0  0  0  0  0  0
    3.6827   -0.5611    0.0000 C    0  0  0  0  0  0  0  0  0  0  0  0
    0.6110    0.2452    0.0000 C    0  0  0  0  0  0  0  0  0  0  0  0
    3.8572    0.2369    0.0000 C    0  0  0  0  0  0  0  0  0  0  0  0
    0.3907    1.0432    0.0000 C    0  0  0  0  0  0  0  0  0  0  0  0
    1.3342   -2.2611    0.0000 O    0  0  0  0  0  0  0  0  0  0  0  0
    2.2237    0.4946    0.0000 O    0  0  0  0  0  0  0  0  0  0  0  0
    0.7856   -0.5611    0.0000 C    0  0  0  0  0  0  0  0  0  0  0  0
    4.6428    0.4821    0.0000 C    0  0  0  0  0  0  0  0  0  0  0  0
    5.2413   -0.0748    0.0000 O    0  0  0  0  0  0  0  0  0  0  0  0
    6.0352    0.1704    0.0000 C    0  0  0  0  0  0  0  0  0  0  0  0
    7.8474   -1.5088    0.0000 C    0  0  0  0  0  0  0  0  0  0  0  0
    6.6379   -0.3866    0.0000 C    0  0  0  0  0  0  0  0  0  0  0  0
    8.4459   -2.0741    0.0000 Cl   0  0  0  0  0  0  0  0  0  0  0  0
    7.0618   -1.7499    0.0000 C    0  0  0  0  0  0  0  0  0  0  0  0
    8.0303   -0.7025    0.0000 C    0  0  0  0  0  0  0  0  0  0  0  0
    7.4317   -0.1414    0.0000 C    0  0  0  0  0  0  0  0  0  0  0  0
    6.4508   -1.1888    0.0000 C    0  0  0  0  0  0  0  0  0  0  0  0
    3.2462    0.7938    0.0000 C    0  0  0  0  0  0  0  0  0  0  0  0
    4.8174    1.2926    0.0000 C    0  0  0  0  0  0  0  0  0  0  0  0
    3.4291    1.6044    0.0000 C    0  0  0  0  0  0  0  0  0  0  0  0
    4.2188    1.8537    0.0000 C    0  0  0  0  0  0  0  0  0  0  0  0
  2  1  1  0  0  0  0
  3  4  1  0  0  0  0
  3  5  1  0  0  0  0
  4  1  1  0  0  0  0
  5  2  1  0  0  0  0
  6  3  2  0  0  0  0
  7 12  1  0  0  0  0
  8  6  1  0  0  0  0
  9  7  3  0  0  0  0
 10  2  2  0  0  0  0
 11  4  2  0  0  0  0
 12  1  1  0  0  0  0
 13  8  1  0  0  0  0
 14 13  1  0  0  0  0
 15 14  1  0  0  0  0
 16 19  2  0  0  0  0
 17 15  1  0  0  0  0
 18 16  1  0  0  0  0
 19 22  1  0  0  0  0
 20 21  2  0  0  0  0
 20 16  1  0  0  0  0
 21 17  1  0  0  0  0
 22 17  2  0  0  0  0
 23  8  2  0  0  0  0
 24 13  2  0  0  0  0
 24 26  1  0  0  0  0
 25 23  1  0  0  0  0
 26 25  2  0  0  0  0
M  END
> <CdId>
1386

> <Mol Weight>
383.848

> <Formula>
C20H14ClNO3S

> <Click_ID>
CLK018_G11 __ __ 

$$$$
