CLK038G02
 OpenBabel03181410512D

 25 27  0  0  0  0  0  0  0  0999 V2000
   -1.5292   -0.3667    0.0000 C   0  0  0  0  0  0  0  0  0  0  0  0
   -1.5292    0.4583    0.0000 C   0  0  0  0  0  0  0  0  0  0  0  0
   -0.8125   -0.7792    0.0000 C   0  0  0  0  0  0  0  0  0  0  0  0
   -0.1000   -0.3667    0.0000 N   0  0  0  0  0  0  0  0  0  0  0  0
   -2.3125   -0.6208    0.0000 O   0  0  0  0  0  0  0  0  0  0  0  0
   -0.8125    0.8708    0.0000 N   0  0  0  0  0  0  0  0  0  0  0  0
   -2.3125    0.7125    0.0000 C   0  0  0  0  0  0  0  0  0  0  0  0
   -0.1000    0.4583    0.0000 C   0  0  0  0  0  0  0  0  0  0  0  0
   -2.8000    0.0458    0.0000 C   0  0  0  0  0  0  0  0  0  0  0  0
    1.3292   -0.3667    0.0000 C   0  0  0  0  0  0  0  0  0  0  0  0
    0.6167   -0.7792    0.0000 C   0  0  0  0  0  0  0  0  0  0  0  0
    3.4708    0.0458    0.0000 C   0  0  0  0  0  0  0  0  0  0  0  0
    4.1875    0.4583    0.0000 C   0  0  0  0  0  0  0  0  0  0  0  0
    2.0417   -0.7792    0.0000 N   0  0  0  0  0  0  0  0  0  0  0  0
   -0.8125   -1.6042    0.0000 O   0  0  0  0  0  0  0  0  0  0  0  0
    2.7583   -0.3667    0.0000 C   0  0  0  0  0  0  0  0  0  0  0  0
    1.3292    0.4583    0.0000 O   0  0  0  0  0  0  0  0  0  0  0  0
   -2.6500    1.4667    0.0000 C   0  0  0  0  0  0  0  0  0  0  0  0
   -3.6208    0.1333    0.0000 C   0  0  0  0  0  0  0  0  0  0  0  0
    2.3458    0.3458    0.0000 C   0  0  0  0  0  0  0  0  0  0  0  0
    3.1708   -1.0792    0.0000 C   0  0  0  0  0  0  0  0  0  0  0  0
   -3.4708    1.5542    0.0000 C   0  0  0  0  0  0  0  0  0  0  0  0
    2.7583   -1.7958    0.0000 C   0  0  0  0  0  0  0  0  0  0  0  0
    2.7583    1.0625    0.0000 C   0  0  0  0  0  0  0  0  0  0  0  0
   -3.9542    0.8875    0.0000 C   0  0  0  0  0  0  0  0  0  0  0  0
  2  1  2  0  0  0  0
  3  1  1  0  0  0  0
  4  3  1  0  0  0  0
  5  1  1  0  0  0  0
  6  2  1  0  0  0  0
  6  8  2  0  0  0  0
  7  2  1  0  0  0  0
  8  4  1  0  0  0  0
  9  5  1  0  0  0  0
  9  7  2  0  0  0  0
 10 11  1  0  0  0  0
 11  4  1  0  0  0  0
 12 16  1  0  0  0  0
 13 12  3  0  0  0  0
 14 10  1  0  0  0  0
 15  3  2  0  0  0  0
 16 14  1  0  0  0  0
 17 10  2  0  0  0  0
 18  7  1  0  0  0  0
 19  9  1  0  0  0  0
 20 16  1  0  0  0  0
 21 16  1  0  0  0  0
 22 18  2  0  0  0  0
 23 21  1  0  0  0  0
 24 20  1  0  0  0  0
 25 19  2  0  0  0  0
 25 22  1  0  0  0  0
M  END
> <CdId>
2855

> <Mol Weight>
337.3725

> <Formula>
C19H19N3O3

> <Click_ID>
CLK038G02 __ __ 

$$$$
