CLK016_B09
 OpenBabel03181410512D

 25 27  0  0  0  0  0  0  0  0999 V2000
    1.5654   -0.8160    0.0000 N   0  0  0  0  0  0  0  0  0  0  0  0
    4.5254    1.3946    0.0000 N   0  0  0  0  0  0  0  0  0  0  0  0
    1.8235   -1.6029    0.0000 C   0  0  0  0  0  0  0  0  0  0  0  0
    2.9018   -0.8160    0.0000 C   0  0  0  0  0  0  0  0  0  0  0  0
    2.2356   -0.3289    0.0000 C   0  0  0  0  0  0  0  0  0  0  0  0
    3.8593    0.2456    0.0000 C   0  0  0  0  0  0  0  0  0  0  0  0
    2.6478   -1.6029    0.0000 S   0  0  0  0  0  0  0  0  0  0  0  0
    3.7261    1.5695    0.0000 C   0  0  0  0  0  0  0  0  0  0  0  0
    4.6129    0.5745    0.0000 C   0  0  0  0  0  0  0  0  0  0  0  0
    5.1457    1.9442    0.0000 C   0  0  0  0  0  0  0  0  0  0  0  0
    3.6886   -0.5620    0.0000 C   0  0  0  0  0  0  0  0  0  0  0  0
    3.3097    0.8576    0.0000 C   0  0  0  0  0  0  0  0  0  0  0  0
    4.9751    2.7477    0.0000 N   0  0  0  0  0  0  0  0  0  0  0  0
    0.6120    0.2456    0.0000 C   0  0  0  0  0  0  0  0  0  0  0  0
    0.3914    1.0449    0.0000 C   0  0  0  0  0  0  0  0  0  0  0  0
    1.3364   -2.2648    0.0000 O   0  0  0  0  0  0  0  0  0  0  0  0
    5.9243    1.6861    0.0000 C   0  0  0  0  0  0  0  0  0  0  0  0
    2.2273    0.4954    0.0000 O   0  0  0  0  0  0  0  0  0  0  0  0
    0.7868   -0.5620    0.0000 C   0  0  0  0  0  0  0  0  0  0  0  0
    3.3972    2.3314    0.0000 C   0  0  0  0  0  0  0  0  0  0  0  0
    6.5363    2.2356    0.0000 C   0  0  0  0  0  0  0  0  0  0  0  0
    5.5871    3.2973    0.0000 C   0  0  0  0  0  0  0  0  0  0  0  0
    5.3248    0.1582    0.0000 C   0  0  0  0  0  0  0  0  0  0  0  0
    6.3739    3.0433    0.0000 C   0  0  0  0  0  0  0  0  0  0  0  0
    7.3231    1.9734    0.0000 C   0  0  0  0  0  0  0  0  0  0  0  0
  2  9  1  0  0  0  0
  3  1  1  0  0  0  0
  4  5  1  0  0  0  0
  4  7  1  0  0  0  0
  5  1  1  0  0  0  0
  6 11  1  0  0  0  0
  7  3  1  0  0  0  0
  8 12  2  0  0  0  0
  8  2  1  0  0  0  0
  9  6  2  0  0  0  0
 10  2  1  0  0  0  0
 11  4  2  0  0  0  0
 12  6  1  0  0  0  0
 13 10  1  0  0  0  0
 14 19  1  0  0  0  0
 15 14  3  0  0  0  0
 16  3  2  0  0  0  0
 17 10  2  0  0  0  0
 18  5  2  0  0  0  0
 19  1  1  0  0  0  0
 20  8  1  0  0  0  0
 21 17  1  0  0  0  0
 22 13  2  0  0  0  0
 23  9  1  0  0  0  0
 24 21  2  0  0  0  0
 24 22  1  0  0  0  0
 25 21  1  0  0  0  0
M  END
> <CdId>
1174

> <Mol Weight>
351.422

> <Formula>
C19H17N3O2S

> <Click_ID>
CLK016_B09 __ __ 

$$$$
