CLK012_F02
 OpenBabel03181410512D

 21 23  0  0  0  0  0  0  0  0999 V2000
    1.5606   -0.8135    0.0000 N    0  0  0  0  0  0  0  0  0  0  0  0
    1.8179   -1.5980    0.0000 C    0  0  0  0  0  0  0  0  0  0  0  0
    2.8929   -0.8135    0.0000 C    0  0  0  0  0  0  0  0  0  0  0  0
    2.2288   -0.3279    0.0000 C    0  0  0  0  0  0  0  0  0  0  0  0
    2.6397   -1.5980    0.0000 S    0  0  0  0  0  0  0  0  0  0  0  0
    3.8475    0.2366    0.0000 C    0  0  0  0  0  0  0  0  0  0  0  0
    3.6774   -0.5603    0.0000 C    0  0  0  0  0  0  0  0  0  0  0  0
    4.5946    0.5686    0.0000 C    0  0  0  0  0  0  0  0  0  0  0  0
    3.7023    1.5647    0.0000 N    0  0  0  0  0  0  0  0  0  0  0  0
    3.2996    0.8550    0.0000 C    0  0  0  0  0  0  0  0  0  0  0  0
    4.5116    1.3904    0.0000 C    0  0  0  0  0  0  0  0  0  0  0  0
    0.6101    0.2448    0.0000 C    0  0  0  0  0  0  0  0  0  0  0  0
    0.3902    1.0417    0.0000 C    0  0  0  0  0  0  0  0  0  0  0  0
    1.3323   -2.2579    0.0000 O    0  0  0  0  0  0  0  0  0  0  0  0
    2.2206    0.4939    0.0000 O    0  0  0  0  0  0  0  0  0  0  0  0
    0.7844   -0.5603    0.0000 C    0  0  0  0  0  0  0  0  0  0  0  0
    5.3334    0.2324    0.0000 C    0  0  0  0  0  0  0  0  0  0  0  0
    5.1798    1.8760    0.0000 C    0  0  0  0  0  0  0  0  0  0  0  0
    6.0141    0.7097    0.0000 C    0  0  0  0  0  0  0  0  0  0  0  0
    5.9311    1.5315    0.0000 C    0  0  0  0  0  0  0  0  0  0  0  0
    6.7612    0.3611    0.0000 Br   0  0  0  0  0  0  0  0  0  0  0  0
  2  1  1  0  0  0  0
  3  4  1  0  0  0  0
  3  5  1  0  0  0  0
  4  1  1  0  0  0  0
  5  2  1  0  0  0  0
  6  7  1  0  0  0  0
  7  3  2  0  0  0  0
  8  6  1  0  0  0  0
  9 10  1  0  0  0  0
 10  6  2  0  0  0  0
 11  8  2  0  0  0  0
 11  9  1  0  0  0  0
 12 16  1  0  0  0  0
 13 12  3  0  0  0  0
 14  2  2  0  0  0  0
 15  4  2  0  0  0  0
 16  1  1  0  0  0  0
 17  8  1  0  0  0  0
 18 11  1  0  0  0  0
 19 17  2  0  0  0  0
 20 19  1  0  0  0  0
 20 18  2  0  0  0  0
 21 19  1  0  0  0  0
M  END
> <CdId>
887

> <Mol Weight>
361.213

> <Formula>
C15H9BrN2O2S

> <Click_ID>
CLK012_F02 __ __ 

$$$$
