CLK045G04
 OpenBabel03181410512D

 16 16  0  0  0  0  0  0  0  0999 V2000
   -0.1375   -0.0750    0.0000 C   0  0  0  0  0  0  0  0  0  0  0  0
   -0.8500   -0.4875    0.0000 C   0  0  0  0  0  0  0  0  0  0  0  0
   -0.1375    0.7500    0.0000 C   0  0  0  0  0  0  0  0  0  0  0  0
    1.2917    2.4000    0.0000 C   0  0  0  0  0  0  0  0  0  0  0  0
    0.5792   -0.4875    0.0000 C   0  0  0  0  0  0  0  0  0  0  0  0
    2.0083    2.8125    0.0000 C   0  0  0  0  0  0  0  0  0  0  0  0
   -0.8500   -1.3125    0.0000 C   0  0  0  0  0  0  0  0  0  0  0  0
   -0.8500    1.1625    0.0000 O   0  0  0  0  0  0  0  0  0  0  0  0
    0.5792    1.1625    0.0000 N   0  0  0  0  0  0  0  0  0  0  0  0
   -0.1375   -1.7250    0.0000 C   0  0  0  0  0  0  0  0  0  0  0  0
    0.5792   -1.3125    0.0000 C   0  0  0  0  0  0  0  0  0  0  0  0
   -1.5667   -0.0750    0.0000 O   0  0  0  0  0  0  0  0  0  0  0  0
    0.5792    1.9875    0.0000 C   0  0  0  0  0  0  0  0  0  0  0  0
   -0.1375   -2.5500    0.0000 O   0  0  0  0  0  0  0  0  0  0  0  0
   -1.5667    0.7500    0.0000 C   0  0  0  0  0  0  0  0  0  0  0  0
    0.5792   -2.9625    0.0000 C   0  0  0  0  0  0  0  0  0  0  0  0
  2  1  2  0  0  0  0
  3  1  1  0  0  0  0
  4 13  1  0  0  0  0
  5  1  1  0  0  0  0
  6  4  3  0  0  0  0
  7  2  1  0  0  0  0
  8  3  2  0  0  0  0
  9  3  1  0  0  0  0
 10  7  2  0  0  0  0
 11  5  2  0  0  0  0
 11 10  1  0  0  0  0
 12  2  1  0  0  0  0
 13  9  1  0  0  0  0
 14 10  1  0  0  0  0
 15 12  1  0  0  0  0
 16 14  1  0  0  0  0
M  END
> <CdId>
3431

> <Mol Weight>
219.2365

> <Formula>
C12H13NO3

> <Click_ID>
CLK045G04 __ __ 

$$$$
