CLK038H09
 OpenBabel03181410512D

 26 28  0  0  0  0  0  0  0  0999 V2000
    2.6083   -0.0458    0.0000 S   0  0  0  0  0  0  0  0  0  0  0  0
   -0.2500   -0.0458    0.0000 C   0  0  0  0  0  0  0  0  0  0  0  0
   -0.9625   -0.4583    0.0000 N   0  0  0  0  0  0  0  0  0  0  0  0
   -2.3917   -0.4583    0.0000 N   0  0  0  0  0  0  0  0  0  0  0  0
   -1.6792   -0.0458    0.0000 C   0  0  0  0  0  0  0  0  0  0  0  0
    1.8958   -0.4583    0.0000 C   0  0  0  0  0  0  0  0  0  0  0  0
    0.4667   -0.4583    0.0000 C   0  0  0  0  0  0  0  0  0  0  0  0
    4.7500    0.3667    0.0000 C   0  0  0  0  0  0  0  0  0  0  0  0
    1.1792   -0.0458    0.0000 C   0  0  0  0  0  0  0  0  0  0  0  0
    5.4667    0.7792    0.0000 C   0  0  0  0  0  0  0  0  0  0  0  0
    2.1958    0.6708    0.0000 O   0  0  0  0  0  0  0  0  0  0  0  0
    3.0208   -0.7583    0.0000 O   0  0  0  0  0  0  0  0  0  0  0  0
   -3.1083   -0.0458    0.0000 C   0  0  0  0  0  0  0  0  0  0  0  0
    3.3250    0.3667    0.0000 N   0  0  0  0  0  0  0  0  0  0  0  0
   -0.2500    0.7792    0.0000 O   0  0  0  0  0  0  0  0  0  0  0  0
   -3.1083    0.7792    0.0000 C   0  0  0  0  0  0  0  0  0  0  0  0
   -2.3917    1.1917    0.0000 C   0  0  0  0  0  0  0  0  0  0  0  0
   -1.6792    0.7792    0.0000 C   0  0  0  0  0  0  0  0  0  0  0  0
    4.0375   -0.0458    0.0000 C   0  0  0  0  0  0  0  0  0  0  0  0
    1.8958   -1.2833    0.0000 C   0  0  0  0  0  0  0  0  0  0  0  0
    0.4667   -1.2833    0.0000 C   0  0  0  0  0  0  0  0  0  0  0  0
    1.1792   -1.6958    0.0000 C   0  0  0  0  0  0  0  0  0  0  0  0
   -3.8208   -0.4583    0.0000 C   0  0  0  0  0  0  0  0  0  0  0  0
   -3.8208    1.1917    0.0000 C   0  0  0  0  0  0  0  0  0  0  0  0
   -4.5375   -0.0458    0.0000 C   0  0  0  0  0  0  0  0  0  0  0  0
   -4.5375    0.7792    0.0000 C   0  0  0  0  0  0  0  0  0  0  0  0
  2  7  1  0  0  0  0
  3  2  1  0  0  0  0
  4  5  2  0  0  0  0
  5  3  1  0  0  0  0
  6  1  1  0  0  0  0
  7  9  2  0  0  0  0
  8 19  1  0  0  0  0
  9  6  1  0  0  0  0
 10  8  3  0  0  0  0
 11  1  2  0  0  0  0
 12  1  2  0  0  0  0
 13  4  1  0  0  0  0
 14  1  1  0  0  0  0
 15  2  2  0  0  0  0
 16 13  2  0  0  0  0
 16 17  1  0  0  0  0
 17 18  2  0  0  0  0
 18  5  1  0  0  0  0
 19 14  1  0  0  0  0
 20  6  2  0  0  0  0
 21  7  1  0  0  0  0
 22 20  1  0  0  0  0
 22 21  2  0  0  0  0
 23 13  1  0  0  0  0
 24 16  1  0  0  0  0
 25 23  2  0  0  0  0
 25 26  1  0  0  0  0
 26 24  2  0  0  0  0
M  END
> <CdId>
2912

> <Mol Weight>
365.406

> <Formula>
C19H15N3O3S

> <Click_ID>
CLK038H09 __ __ 

$$$$
