CLK007_D03
 OpenBabel03181410512D

 34 38  0  0  0  0  0  0  0  0999 V2000
    6.2875  -19.6750    0.0000 C   0  0  3  0  0  0  0  0  0  0  0  0
    5.8750  -20.3875    0.0000 C   0  0  0  0  0  0  0  0  0  0  0  0
    5.8708  -18.9625    0.0000 C   0  0  0  0  0  0  0  0  0  0  0  0
    5.0500  -20.3917    0.0000 C   0  0  0  0  0  0  0  0  0  0  0  0
    6.9750  -19.2250    0.0000 C   0  0  0  0  0  0  0  0  0  0  0  0
    5.0458  -18.9583    0.0000 C   0  0  0  0  0  0  0  0  0  0  0  0
    4.6375  -19.6708    0.0000 N   0  0  0  0  0  0  0  0  0  0  0  0
    7.6250  -19.7375    0.0000 N   0  0  0  0  0  0  0  0  0  0  0  0
    6.5000  -20.4667    0.0000 C   0  0  0  0  0  0  0  0  0  0  0  0
    6.2833  -18.2542    0.0000 C   0  0  0  0  0  0  0  0  0  0  0  0
    7.3250  -20.5125    0.0000 C   0  0  0  0  0  0  0  0  0  0  0  0
    5.6375  -21.1792    0.0000 C   0  0  0  0  0  0  0  0  0  0  0  0
    5.4125  -21.9708    0.0000 N   0  0  0  0  0  0  0  0  0  0  0  0
    4.6333  -18.2542    0.0000 C   0  0  0  0  0  0  0  0  0  0  0  0
    9.1042  -19.9625    0.0000 C   0  0  0  0  0  0  0  0  0  0  0  0
    5.0417  -17.5417    0.0000 C   0  0  0  0  0  0  0  0  0  0  0  0
    5.8708  -17.5417    0.0000 C   0  0  0  0  0  0  0  0  0  0  0  0
    9.8000  -20.3958    0.0000 C   0  0  0  0  0  0  0  0  0  0  0  0
    7.1833  -18.4250    0.0000 O   0  0  0  0  0  0  0  0  0  0  0  0
    3.8125  -19.6625    0.0000 C   0  0  0  0  0  0  0  0  0  0  0  0
    4.4583  -20.9625    0.0000 N   0  0  0  0  0  0  0  0  0  0  0  0
    6.9500  -17.7542    0.0000 O   0  0  0  0  0  0  0  0  0  0  0  0
    8.4167  -19.5167    0.0000 C   0  0  0  0  0  0  0  0  0  0  0  0
    2.5750  -20.3708    0.0000 N   0  0  0  0  0  0  0  0  0  0  0  0
    6.0583  -21.1583    0.0000 C   0  0  0  0  0  0  0  0  0  0  0  0
    7.7125  -21.2375    0.0000 C   0  0  0  0  0  0  0  0  0  0  0  0
    3.4000  -20.3792    0.0000 C   0  0  0  0  0  0  0  0  0  0  0  0
    5.4542  -16.8250    0.0000 C   0  0  0  0  0  0  0  0  0  0  0  0
    4.2208  -17.5500    0.0000 C   0  0  0  0  0  0  0  0  0  0  0  0
    2.1583  -19.6542    0.0000 C   0  0  0  0  0  0  0  0  0  0  0  0
    3.4083  -18.9417    0.0000 C   0  0  0  0  0  0  0  0  0  0  0  0
    6.4375  -21.9000    0.0000 C   0  0  0  0  0  0  0  0  0  0  0  0
    7.2583  -21.9375    0.0000 C   0  0  0  0  0  0  0  0  0  0  0  0
    2.5833  -18.9417    0.0000 C   0  0  0  0  0  0  0  0  0  0  0  0
  2  1  1  0  0  0  0
  3  1  1  0  0  0  0
  4  2  2  0  0  0  0
  5  1  1  0  0  0  0
  6  3  2  0  0  0  0
  7  6  1  0  0  0  0
  7  4  1  0  0  0  0
  8  5  1  0  0  0  0
  8 11  1  0  0  0  0
  9  1  1  0  0  0  0
 10  3  1  0  0  0  0
 11  9  2  0  0  0  0
 12  2  1  0  0  0  0
 13 12  3  0  0  0  0
 14  6  1  0  0  0  0
 15 23  1  0  0  0  0
 16 17  1  0  0  0  0
 16 14  1  0  0  0  0
 17 10  1  0  0  0  0
 18 15  3  0  0  0  0
 19  5  2  0  0  0  0
 20  7  1  0  0  0  0
 21  4  1  0  0  0  0
 22 10  2  0  0  0  0
 23  8  1  0  0  0  0
 24 27  2  0  0  0  0
 25  9  1  0  0  0  0
 26 11  1  0  0  0  0
 27 20  1  0  0  0  0
 28 16  1  0  0  0  0
 29 16  1  0  0  0  0
 30 34  2  0  0  0  0
 30 24  1  0  0  0  0
 31 20  2  0  0  0  0
 32 25  2  0  0  0  0
 33 32  1  0  0  0  0
 33 26  2  0  0  0  0
 34 31  1  0  0  0  0
M  END
> <CdId>
512

> <Mol Weight>
449.5038

> <Formula>
C27H23N5O2

> <Click_ID>
CLK007_D03 __ __ 

$$$$
