CLK003_D11
 OpenBabel03181410512D

 32 35  0  0  0  0  0  0  0  0999 V2000
    1.0147   -0.2827    0.0000 C   0  0  3  0  0  0  0  0  0  0  0  0
    0.4430   -0.8734    0.0000 N   0  0  0  0  0  0  0  0  0  0  0  0
    1.8184   -0.4767    0.0000 C   0  0  0  0  0  0  0  0  0  0  0  0
    0.7868    0.5126    0.0000 C   0  0  0  0  0  0  0  0  0  0  0  0
   -0.3544   -0.6772    0.0000 C   0  0  0  0  0  0  0  0  0  0  0  0
    0.6772   -1.6623    0.0000 C   0  0  0  0  0  0  0  0  0  0  0  0
    2.0441   -1.2636    0.0000 C   0  0  0  0  0  0  0  0  0  0  0  0
    2.3880    0.1161    0.0000 C   0  0  0  0  0  0  0  0  0  0  0  0
    1.3585    1.1075    0.0000 N   0  0  0  0  0  0  0  0  0  0  0  0
   -0.0127    0.7088    0.0000 O   0  0  0  0  0  0  0  0  0  0  0  0
   -0.5844    0.1139    0.0000 C   0  0  0  0  0  0  0  0  0  0  0  0
   -0.9282   -1.2700    0.0000 C   0  0  0  0  0  0  0  0  0  0  0  0
    0.1034   -2.2593    0.0000 C   0  0  0  0  0  0  0  0  0  0  0  0
    1.4745   -1.8606    0.0000 O   0  0  0  0  0  0  0  0  0  0  0  0
    2.8500   -1.4619    0.0000 C   0  0  0  0  0  0  0  0  0  0  0  0
    3.1917   -0.0823    0.0000 C   0  0  0  0  0  0  0  0  0  0  0  0
    1.1307    1.9028    0.0000 C   0  0  0  0  0  0  0  0  0  0  0  0
   -1.3859    0.3143    0.0000 C   0  0  0  0  0  0  0  0  0  0  0  0
   -1.7298   -1.0695    0.0000 C   0  0  0  0  0  0  0  0  0  0  0  0
   -0.4662   -2.8563    0.0000 C   0  0  0  0  0  0  0  0  0  0  0  0
    3.4196   -0.8734    0.0000 C   0  0  0  0  0  0  0  0  0  0  0  0
    0.3544    2.1792    0.0000 C   0  0  0  0  0  0  0  0  0  0  0  0
    1.6328    2.5504    0.0000 C   0  0  0  0  0  0  0  0  0  0  0  0
   -1.9556   -0.2827    0.0000 C   0  0  0  0  0  0  0  0  0  0  0  0
   -1.6138    1.1054    0.0000 C   0  0  0  0  0  0  0  0  0  0  0  0
    0.3797    3.0039    0.0000 C   0  0  0  0  0  0  0  0  0  0  0  0
    1.1729    3.2318    0.0000 C   0  0  0  0  0  0  0  0  0  0  0  0
   -2.7614   -0.0886    0.0000 N   0  0  0  0  0  0  0  0  0  0  0  0
   -3.3921   -0.6181    0.0000 C   0  0  0  0  0  0  0  0  0  0  0  0
   -3.0693    0.6792    0.0000 N   0  0  0  0  0  0  0  0  0  0  0  0
   -4.0904   -0.1856    0.0000 N   0  0  0  0  0  0  0  0  0  0  0  0
   -3.8942    0.6181    0.0000 N   0  0  0  0  0  0  0  0  0  0  0  0
  1  2  1  0  0  0  0
  1  3  1  0  0  0  0
  1  4  1  0  0  0  0
  2  5  1  0  0  0  0
  2  6  1  0  0  0  0
  3  7  2  0  0  0  0
  3  8  1  0  0  0  0
  4  9  1  0  0  0  0
  4 10  2  0  0  0  0
  5 11  1  0  0  0  0
  5 12  2  0  0  0  0
  6 13  1  0  0  0  0
  6 14  2  0  0  0  0
  7 15  1  0  0  0  0
  8 16  2  0  0  0  0
  9 17  1  0  0  0  0
 11 18  2  0  0  0  0
 12 19  1  0  0  0  0
 13 20  3  0  0  0  0
 15 21  2  0  0  0  0
 16 21  1  0  0  0  0
 17 22  1  0  0  0  0
 17 23  1  0  0  0  0
 18 24  1  0  0  0  0
 18 25  1  0  0  0  0
 19 24  2  0  0  0  0
 22 26  1  0  0  0  0
 23 27  1  0  0  0  0
 24 28  1  0  0  0  0
 26 27  1  0  0  0  0
 28 29  1  0  0  0  0
 28 30  1  0  0  0  0
 29 31  2  0  0  0  0
 30 32  2  0  0  0  0
 31 32  1  0  0  0  0
M  END
> <CdId>
200

> <Mol Weight>
428.4864

> <Formula>
C24H24N6O2

> <Click_ID>
CLK003_D11 __ __ 

$$$$
