CLK014_H11
 OpenBabel03181410512D

 26 28  0  0  0  0  0  0  0  0999 V2000
    1.5650   -0.8158    0.0000 N   0  0  0  0  0  0  0  0  0  0  0  0
    1.8230   -1.6024    0.0000 C   0  0  0  0  0  0  0  0  0  0  0  0
    2.2350   -0.3288    0.0000 C   0  0  0  0  0  0  0  0  0  0  0  0
    2.9010   -0.8158    0.0000 C   0  0  0  0  0  0  0  0  0  0  0  0
    2.6470   -1.6024    0.0000 S   0  0  0  0  0  0  0  0  0  0  0  0
    3.6876   -0.5619    0.0000 C   0  0  0  0  0  0  0  0  0  0  0  0
    0.6118    0.2455    0.0000 C   0  0  0  0  0  0  0  0  0  0  0  0
    0.3913    1.0446    0.0000 C   0  0  0  0  0  0  0  0  0  0  0  0
    1.3360   -2.2642    0.0000 O   0  0  0  0  0  0  0  0  0  0  0  0
    2.2267    0.4952    0.0000 O   0  0  0  0  0  0  0  0  0  0  0  0
    0.7866   -0.5619    0.0000 C   0  0  0  0  0  0  0  0  0  0  0  0
    3.8582    0.2455    0.0000 C   0  0  0  0  0  0  0  0  0  0  0  0
    4.3701    2.6678    0.0000 O   0  0  0  0  0  0  0  0  0  0  0  0
    4.1995    1.8687    0.0000 C   0  0  0  0  0  0  0  0  0  0  0  0
    4.7197    4.2702    0.0000 C   0  0  0  0  0  0  0  0  0  0  0  0
    4.8945    5.0735    0.0000 C   0  0  0  0  0  0  0  0  0  0  0  0
    5.1485    2.9175    0.0000 C   0  0  0  0  0  0  0  0  0  0  0  0
    5.3233    3.7291    0.0000 C   0  0  0  0  0  0  0  0  0  0  0  0
    4.2744    5.6312    0.0000 F   0  0  0  0  0  0  0  0  0  0  0  0
    3.2506    0.7949    0.0000 C   0  0  0  0  0  0  0  0  0  0  0  0
    4.6365    0.4952    0.0000 C   0  0  0  0  0  0  0  0  0  0  0  0
    3.4129    1.6065    0.0000 C   0  0  0  0  0  0  0  0  0  0  0  0
    4.8113    1.2986    0.0000 C   0  0  0  0  0  0  0  0  0  0  0  0
    6.2805    4.7739    0.0000 C   0  0  0  0  0  0  0  0  0  0  0  0
    5.6729    5.3233    0.0000 C   0  0  0  0  0  0  0  0  0  0  0  0
    6.1099    3.9789    0.0000 C   0  0  0  0  0  0  0  0  0  0  0  0
  2  1  1  0  0  0  0
  3  1  1  0  0  0  0
  4  3  1  0  0  0  0
  4  5  1  0  0  0  0
  5  2  1  0  0  0  0
  6  4  2  0  0  0  0
  7 11  1  0  0  0  0
  8  7  3  0  0  0  0
  9  2  2  0  0  0  0
 10  3  2  0  0  0  0
 11  1  1  0  0  0  0
 12  6  1  0  0  0  0
 13 14  1  0  0  0  0
 14 23  2  0  0  0  0
 14 22  1  0  0  0  0
 15 18  1  0  0  0  0
 16 15  2  0  0  0  0
 17 13  1  0  0  0  0
 18 17  1  0  0  0  0
 19 16  1  0  0  0  0
 20 12  1  0  0  0  0
 21 12  2  0  0  0  0
 22 20  2  0  0  0  0
 23 21  1  0  0  0  0
 24 26  1  0  0  0  0
 25 24  2  0  0  0  0
 25 16  1  0  0  0  0
 26 18  2  0  0  0  0
M  END
> <CdId>
1076

> <Mol Weight>
367.393

> <Formula>
C20H14FNO3S

> <Click_ID>
CLK014_H11 __ __ 

$$$$
