CLK043G08
 OpenBabel03181410512D

 30 32  0  0  0  0  0  0  0  0999 V2000
    2.7125   -2.2000    0.0000 S   0  0  0  0  0  0  0  0  0  0  0  0
   -0.1458   -0.5500    0.0000 C   0  0  0  0  0  0  0  0  0  0  0  0
    2.0000   -1.7875    0.0000 C   0  0  0  0  0  0  0  0  0  0  0  0
   -0.1458    0.2750    0.0000 N   0  0  0  0  0  0  0  0  0  0  0  0
    4.1417   -3.8500    0.0000 C   0  0  0  0  0  0  0  0  0  0  0  0
   -3.0042    1.9250    0.0000 N   0  0  0  0  0  0  0  0  0  0  0  0
    4.8583   -4.2583    0.0000 C   0  0  0  0  0  0  0  0  0  0  0  0
    3.1250   -1.4833    0.0000 O   0  0  0  0  0  0  0  0  0  0  0  0
    2.3000   -2.9125    0.0000 O   0  0  0  0  0  0  0  0  0  0  0  0
   -1.5750    1.9250    0.0000 C   0  0  0  0  0  0  0  0  0  0  0  0
   -2.2875    1.5125    0.0000 C   0  0  0  0  0  0  0  0  0  0  0  0
    0.5708   -0.9625    0.0000 C   0  0  0  0  0  0  0  0  0  0  0  0
    3.4292   -2.6125    0.0000 N   0  0  0  0  0  0  0  0  0  0  0  0
   -0.8583    1.5125    0.0000 C   0  0  0  0  0  0  0  0  0  0  0  0
   -0.8583    0.6875    0.0000 C   0  0  0  0  0  0  0  0  0  0  0  0
   -0.8583   -0.9625    0.0000 O   0  0  0  0  0  0  0  0  0  0  0  0
    1.2833   -2.2000    0.0000 C   0  0  0  0  0  0  0  0  0  0  0  0
    2.0000   -0.9625    0.0000 C   0  0  0  0  0  0  0  0  0  0  0  0
    0.5708   -1.7875    0.0000 C   0  0  0  0  0  0  0  0  0  0  0  0
    1.2833   -0.5500    0.0000 C   0  0  0  0  0  0  0  0  0  0  0  0
   -4.4333    2.7500    0.0000 O   0  0  0  0  0  0  0  0  0  0  0  0
    3.4292   -3.4375    0.0000 C   0  0  0  0  0  0  0  0  0  0  0  0
   -3.7167    1.5125    0.0000 C   0  0  0  0  0  0  0  0  0  0  0  0
   -3.0042    2.7500    0.0000 C   0  0  0  0  0  0  0  0  0  0  0  0
   -1.5750    2.7500    0.0000 C   0  0  0  0  0  0  0  0  0  0  0  0
   -3.7167    3.1667    0.0000 C   0  0  0  0  0  0  0  0  0  0  0  0
   -4.4333    1.9250    0.0000 C   0  0  0  0  0  0  0  0  0  0  0  0
   -0.1458    1.9250    0.0000 C   0  0  0  0  0  0  0  0  0  0  0  0
   -0.8583    3.1667    0.0000 C   0  0  0  0  0  0  0  0  0  0  0  0
   -0.1458    2.7500    0.0000 C   0  0  0  0  0  0  0  0  0  0  0  0
  2 12  1  0  0  0  0
  3  1  1  0  0  0  0
  4  2  1  0  0  0  0
  5 22  1  0  0  0  0
  6 11  1  0  0  0  0
  7  5  3  0  0  0  0
  8  1  2  0  0  0  0
  9  1  2  0  0  0  0
 10 14  2  0  0  0  0
 11 10  1  0  0  0  0
 12 20  2  0  0  0  0
 13  1  1  0  0  0  0
 14 15  1  0  0  0  0
 15  4  1  0  0  0  0
 16  2  2  0  0  0  0
 17  3  1  0  0  0  0
 18  3  2  0  0  0  0
 19 17  2  0  0  0  0
 19 12  1  0  0  0  0
 20 18  1  0  0  0  0
 21 27  1  0  0  0  0
 21 26  1  0  0  0  0
 22 13  1  0  0  0  0
 23  6  1  0  0  0  0
 24  6  1  0  0  0  0
 25 10  1  0  0  0  0
 26 24  1  0  0  0  0
 27 23  1  0  0  0  0
 28 14  1  0  0  0  0
 29 25  2  0  0  0  0
 29 30  1  0  0  0  0
 30 28  2  0  0  0  0
M  END
> <CdId>
3303

> <Mol Weight>
427.517

> <Formula>
C22H25N3O4S

> <Click_ID>
CLK043G08 __ __ 

$$$$
