CLK050H10
 OpenBabel03181410512D

 17 17  0  0  0  0  0  0  0  0999 V2000
    0.6292    1.5792    0.0000 C   0  0  0  0  0  0  0  0  0  0  0  0
    1.3417    3.6417    0.0000 C   0  0  0  0  0  0  0  0  0  0  0  0
    1.3417    4.4625    0.0000 C   0  0  0  0  0  0  0  0  0  0  0  0
    1.3417    1.1667    0.0000 O   0  0  0  0  0  0  0  0  0  0  0  0
   -0.0875    1.1667    0.0000 N   0  0  0  0  0  0  0  0  0  0  0  0
    0.6292    2.4042    0.0000 N   0  0  0  0  0  0  0  0  0  0  0  0
   -0.8000   -2.5458    0.0000 C   0  0  0  0  0  0  0  0  0  0  0  0
   -0.8000   -0.8958    0.0000 C   0  0  0  0  0  0  0  0  0  0  0  0
    1.3417    2.8167    0.0000 C   0  0  0  0  0  0  0  0  0  0  0  0
   -0.0875   -2.1333    0.0000 C   0  0  0  0  0  0  0  0  0  0  0  0
   -1.5167   -2.1333    0.0000 C   0  0  0  0  0  0  0  0  0  0  0  0
   -1.5167   -1.3083    0.0000 C   0  0  0  0  0  0  0  0  0  0  0  0
   -0.0875   -1.3083    0.0000 C   0  0  0  0  0  0  0  0  0  0  0  0
   -0.0875    0.3417    0.0000 C   0  0  0  0  0  0  0  0  0  0  0  0
   -0.8000   -3.3708    0.0000 O   0  0  0  0  0  0  0  0  0  0  0  0
   -0.8000   -0.0708    0.0000 C   0  0  0  0  0  0  0  0  0  0  0  0
   -0.0875   -3.7833    0.0000 C   0  0  0  0  0  0  0  0  0  0  0  0
  2  9  1  0  0  0  0
  3  2  3  0  0  0  0
  4  1  2  0  0  0  0
  5  1  1  0  0  0  0
  6  1  1  0  0  0  0
  7 11  2  0  0  0  0
  8 16  1  0  0  0  0
  9  6  1  0  0  0  0
 10 13  2  0  0  0  0
 10  7  1  0  0  0  0
 11 12  1  0  0  0  0
 12  8  2  0  0  0  0
 13  8  1  0  0  0  0
 14  5  1  0  0  0  0
 15  7  1  0  0  0  0
 16 14  1  0  0  0  0
 17 15  1  0  0  0  0
M  END
> <CdId>
3880

> <Mol Weight>
232.2783

> <Formula>
C13H16N2O2

> <Click_ID>
CLK050H10 __ __ 

$$$$
