CLK049C03
 OpenBabel03181410512D

 18 19  0  0  0  0  0  0  0  0999 V2000
    0.3917    1.7292    0.0000 N   0  0  0  0  0  0  0  0  0  0  0  0
   -0.0917    2.3958    0.0000 C   0  0  0  0  0  0  0  0  0  0  0  0
   -0.6250   -1.4125    0.0000 C   0  0  0  0  0  0  0  0  0  0  0  0
    0.2208   -3.4208    0.0000 C   0  0  0  0  0  0  0  0  0  0  0  0
    0.7750   -4.0333    0.0000 C   0  0  0  0  0  0  0  0  0  0  0  0
    0.1375    0.9417    0.0000 C   0  0  0  0  0  0  0  0  0  0  0  0
   -0.3708   -0.6250    0.0000 C   0  0  0  0  0  0  0  0  0  0  0  0
   -0.9167    2.3958    0.0000 O   0  0  0  0  0  0  0  0  0  0  0  0
   -1.4333   -1.5833    0.0000 O   0  0  0  0  0  0  0  0  0  0  0  0
   -0.6708    0.7708    0.0000 C   0  0  0  0  0  0  0  0  0  0  0  0
    0.6917    0.3292    0.0000 C   0  0  0  0  0  0  0  0  0  0  0  0
   -0.9250   -0.0125    0.0000 C   0  0  0  0  0  0  0  0  0  0  0  0
    0.4333   -0.4542    0.0000 C   0  0  0  0  0  0  0  0  0  0  0  0
   -0.0750   -2.0250    0.0000 N   0  0  0  0  0  0  0  0  0  0  0  0
    1.1792    1.9833    0.0000 C   0  0  0  0  0  0  0  0  0  0  0  0
   -0.3292   -2.8083    0.0000 C   0  0  0  0  0  0  0  0  0  0  0  0
    0.3917    3.0625    0.0000 C   0  0  0  0  0  0  0  0  0  0  0  0
    1.1792    2.8083    0.0000 C   0  0  0  0  0  0  0  0  0  0  0  0
  2  1  1  0  0  0  0
  3  7  1  0  0  0  0
  4 16  1  0  0  0  0
  5  4  3  0  0  0  0
  6  1  1  0  0  0  0
  7 12  2  0  0  0  0
  8  2  2  0  0  0  0
  9  3  2  0  0  0  0
 10  6  2  0  0  0  0
 11  6  1  0  0  0  0
 12 10  1  0  0  0  0
 13 11  2  0  0  0  0
 13  7  1  0  0  0  0
 14  3  1  0  0  0  0
 15  1  1  0  0  0  0
 16 14  1  0  0  0  0
 17  2  1  0  0  0  0
 17 18  1  0  0  0  0
 18 15  1  0  0  0  0
M  END
> <CdId>
3739

> <Mol Weight>
242.2732

> <Formula>
C14H14N2O2

> <Click_ID>
CLK049C03 __ __ 

$$$$
