CLK044F11
 OpenBabel03181410512D

 24 26  0  0  0  0  0  0  0  0999 V2000
   -0.3288   -2.5346    0.0000 S   0  0  0  0  0  0  0  0  0  0  0  0
   -0.0916    2.6636    0.0000 S   0  0  0  0  0  0  0  0  0  0  0  0
    0.3953    1.9977    0.0000 C   0  0  0  0  0  0  0  0  0  0  0  0
    0.3953    3.3294    0.0000 C   0  0  0  0  0  0  0  0  0  0  0  0
    1.1779    3.0756    0.0000 N   0  0  0  0  0  0  0  0  0  0  0  0
    0.1373    1.2111    0.0000 N   0  0  0  0  0  0  0  0  0  0  0  0
    1.1779    2.2515    0.0000 N   0  0  0  0  0  0  0  0  0  0  0  0
    0.6909    0.5993    0.0000 C   0  0  0  0  0  0  0  0  0  0  0  0
    0.1373    4.1078    0.0000 C   0  0  0  0  0  0  0  0  0  0  0  0
   -0.4744    4.6613    0.0000 C   0  0  0  0  0  0  0  0  0  0  0  0
    0.3121    4.9151    0.0000 C   0  0  0  0  0  0  0  0  0  0  0  0
   -0.0749   -1.7522    0.0000 C   0  0  0  0  0  0  0  0  0  0  0  0
   -1.6439   -4.2743    0.0000 C   0  0  0  0  0  0  0  0  0  0  0  0
   -1.8978   -5.0566    0.0000 C   0  0  0  0  0  0  0  0  0  0  0  0
    0.4577   -2.7885    0.0000 O   0  0  0  0  0  0  0  0  0  0  0  0
   -1.1112   -2.2806    0.0000 O   0  0  0  0  0  0  0  0  0  0  0  0
    0.4370   -0.1831    0.0000 C   0  0  0  0  0  0  0  0  0  0  0  0
   -0.5826   -3.3169    0.0000 N   0  0  0  0  0  0  0  0  0  0  0  0
    1.4983    0.7699    0.0000 O   0  0  0  0  0  0  0  0  0  0  0  0
   -0.6242   -1.1404    0.0000 C   0  0  0  0  0  0  0  0  0  0  0  0
    0.7324   -1.5815    0.0000 C   0  0  0  0  0  0  0  0  0  0  0  0
   -0.3703   -0.3538    0.0000 C   0  0  0  0  0  0  0  0  0  0  0  0
    0.9864   -0.7949    0.0000 C   0  0  0  0  0  0  0  0  0  0  0  0
   -1.3901   -3.4917    0.0000 C   0  0  0  0  0  0  0  0  0  0  0  0
  2  3  1  0  0  0  0
  3  6  1  0  0  0  0
  4  2  1  0  0  0  0
  4  5  2  0  0  0  0
  5  7  1  0  0  0  0
  6  8  1  0  0  0  0
  7  3  2  0  0  0  0
  8 17  1  0  0  0  0
  9  4  1  0  0  0  0
 10  9  1  0  0  0  0
 10 11  1  0  0  0  0
 11  9  1  0  0  0  0
 12  1  1  0  0  0  0
 13 24  1  0  0  0  0
 14 13  3  0  0  0  0
 15  1  2  0  0  0  0
 16  1  2  0  0  0  0
 17 23  2  0  0  0  0
 18  1  1  0  0  0  0
 19  8  2  0  0  0  0
 20 12  1  0  0  0  0
 21 12  2  0  0  0  0
 22 20  2  0  0  0  0
 22 17  1  0  0  0  0
 23 21  1  0  0  0  0
 24 18  1  0  0  0  0
M  END
> <CdId>
3406

> <Mol Weight>
362.427

> <Formula>
C15H14N4O3S2

> <Click_ID>
CLK044F11 __ __ 

$$$$
