CLK001_E08
 OpenBabel03181410512D

 22 24  0  0  0  0  0  0  0  0999 V2000
    0.1345    0.2207    0.0000 N   0  0  0  0  0  0  0  0  0  0  0  0
    0.1345    1.0585    0.0000 C   0  0  0  0  0  0  0  0  0  0  0  0
   -0.5930   -0.1931    0.0000 C   0  0  0  0  0  0  0  0  0  0  0  0
    0.8447   -0.1931    0.0000 C   0  0  0  0  0  0  0  0  0  0  0  0
   -0.5828    1.4758    0.0000 N   0  0  0  0  0  0  0  0  0  0  0  0
    0.8551    1.4620    0.0000 S   0  0  0  0  0  0  0  0  0  0  0  0
   -1.3033    0.2207    0.0000 C   0  0  0  0  0  0  0  0  0  0  0  0
   -0.5930   -1.0171    0.0000 O   0  0  0  0  0  0  0  0  0  0  0  0
    0.8447   -1.0171    0.0000 C   0  0  0  0  0  0  0  0  0  0  0  0
   -1.3033    1.0585    0.0000 C   0  0  0  0  0  0  0  0  0  0  0  0
    1.5654    1.0482    0.0000 C   0  0  0  0  0  0  0  0  0  0  0  0
   -2.0170   -0.1897    0.0000 C   0  0  0  0  0  0  0  0  0  0  0  0
    0.1276   -1.4309    0.0000 C   0  0  0  0  0  0  0  0  0  0  0  0
    1.5585   -1.4309    0.0000 C   0  0  0  0  0  0  0  0  0  0  0  0
   -2.0170    1.4689    0.0000 C   0  0  0  0  0  0  0  0  0  0  0  0
    2.2791    1.4689    0.0000 C   0  0  0  0  0  0  0  0  0  0  0  0
   -2.7274    0.2241    0.0000 C   0  0  0  0  0  0  0  0  0  0  0  0
    0.1276   -2.2515    0.0000 C   0  0  0  0  0  0  0  0  0  0  0  0
    1.5585   -2.2515    0.0000 C   0  0  0  0  0  0  0  0  0  0  0  0
   -2.7274    1.0482    0.0000 C   0  0  0  0  0  0  0  0  0  0  0  0
    2.9928    1.8826    0.0000 C   0  0  0  0  0  0  0  0  0  0  0  0
    0.8413   -2.6688    0.0000 C   0  0  0  0  0  0  0  0  0  0  0  0
  1  2  1  0  0  0  0
  1  3  1  0  0  0  0
  1  4  1  0  0  0  0
  2  5  2  0  0  0  0
  2  6  1  0  0  0  0
  3  7  1  0  0  0  0
  3  8  2  0  0  0  0
  4  9  1  0  0  0  0
  5 10  1  0  0  0  0
  6 11  1  0  0  0  0
  7 12  2  0  0  0  0
  7 10  1  0  0  0  0
  9 13  2  0  0  0  0
  9 14  1  0  0  0  0
 10 15  2  0  0  0  0
 11 16  1  0  0  0  0
 12 17  1  0  0  0  0
 13 18  1  0  0  0  0
 14 19  2  0  0  0  0
 15 20  1  0  0  0  0
 16 21  3  0  0  0  0
 17 20  2  0  0  0  0
 18 22  2  0  0  0  0
 19 22  1  0  0  0  0
M  END
> <CdId>
47

> <Mol Weight>
306.382

> <Formula>
C18H14N2OS

> <Click_ID>
CLK001_E08 __ __ 

$$$$
