CLK038F03
 OpenBabel03181410512D

 29 31  0  0  0  0  0  0  0  0999 V2000
   -1.8250    0.4875    0.0000 N   0  0  0  0  0  0  0  0  0  0  0  0
   -1.8250   -0.3375    0.0000 C   0  0  0  0  0  0  0  0  0  0  0  0
   -1.1125    0.9000    0.0000 C   0  0  0  0  0  0  0  0  0  0  0  0
   -0.3958    0.4875    0.0000 C   0  0  0  0  0  0  0  0  0  0  0  0
   -1.1125   -0.7500    0.0000 N   0  0  0  0  0  0  0  0  0  0  0  0
   -0.3958   -0.3375    0.0000 C   0  0  0  0  0  0  0  0  0  0  0  0
   -2.5417    0.9000    0.0000 C   0  0  0  0  0  0  0  0  0  0  0  0
    1.7458   -0.7500    0.0000 C   0  0  0  0  0  0  0  0  0  0  0  0
    2.4625   -0.3375    0.0000 N   0  0  0  0  0  0  0  0  0  0  0  0
    1.0333   -0.3375    0.0000 C   0  0  0  0  0  0  0  0  0  0  0  0
    0.3167   -0.7500    0.0000 C   0  0  0  0  0  0  0  0  0  0  0  0
    3.8917   -1.1625    0.0000 C   0  0  0  0  0  0  0  0  0  0  0  0
    0.3167    0.9000    0.0000 C   0  0  0  0  0  0  0  0  0  0  0  0
   -2.5417   -0.7500    0.0000 S   0  0  0  0  0  0  0  0  0  0  0  0
    4.6042   -1.5750    0.0000 C   0  0  0  0  0  0  0  0  0  0  0  0
   -1.1125    1.7250    0.0000 O   0  0  0  0  0  0  0  0  0  0  0  0
    3.1750   -0.7500    0.0000 C   0  0  0  0  0  0  0  0  0  0  0  0
   -3.2542    0.4875    0.0000 C   0  0  0  0  0  0  0  0  0  0  0  0
    1.7458   -1.5750    0.0000 O   0  0  0  0  0  0  0  0  0  0  0  0
    1.0333    0.4875    0.0000 C   0  0  0  0  0  0  0  0  0  0  0  0
   -3.2542   -0.3375    0.0000 F   0  0  0  0  0  0  0  0  0  0  0  0
   -2.5417    1.7250    0.0000 C   0  0  0  0  0  0  0  0  0  0  0  0
    2.7625   -1.4667    0.0000 C   0  0  0  0  0  0  0  0  0  0  0  0
    3.5875   -0.0375    0.0000 C   0  0  0  0  0  0  0  0  0  0  0  0
   -3.9667    0.9000    0.0000 C   0  0  0  0  0  0  0  0  0  0  0  0
    4.4125   -0.0375    0.0000 C   0  0  0  0  0  0  0  0  0  0  0  0
    1.9375   -1.4667    0.0000 C   0  0  0  0  0  0  0  0  0  0  0  0
   -3.2542    2.1375    0.0000 C   0  0  0  0  0  0  0  0  0  0  0  0
   -3.9667    1.7250    0.0000 C   0  0  0  0  0  0  0  0  0  0  0  0
  2  1  1  0  0  0  0
  3  1  1  0  0  0  0
  4  3  1  0  0  0  0
  5  2  1  0  0  0  0
  6  5  1  0  0  0  0
  6  4  2  0  0  0  0
  7  1  1  0  0  0  0
  8 10  1  0  0  0  0
  9  8  1  0  0  0  0
 10 11  2  0  0  0  0
 11  6  1  0  0  0  0
 12 17  1  0  0  0  0
 13  4  1  0  0  0  0
 14  2  2  0  0  0  0
 15 12  3  0  0  0  0
 16  3  2  0  0  0  0
 17  9  1  0  0  0  0
 18  7  2  0  0  0  0
 19  8  2  0  0  0  0
 20 13  2  0  0  0  0
 20 10  1  0  0  0  0
 21 18  1  0  0  0  0
 22  7  1  0  0  0  0
 23 17  1  0  0  0  0
 24 17  1  0  0  0  0
 25 18  1  0  0  0  0
 26 24  1  0  0  0  0
 27 23  1  0  0  0  0
 28 22  2  0  0  0  0
 29 25  2  0  0  0  0
 29 28  1  0  0  0  0
M  END
> <CdId>
2862

> <Mol Weight>
409.477

> <Formula>
C22H20FN3O2S

> <Click_ID>
CLK038F03 __ __ 

$$$$
