CLK014_C03
 OpenBabel03181410512D

 29 31  0  0  0  0  0  0  0  0999 V2000
    1.5644   -0.8155    0.0000 N    0  0  0  0  0  0  0  0  0  0  0  0
    1.8223   -1.6018    0.0000 C    0  0  0  0  0  0  0  0  0  0  0  0
    2.2342   -0.3287    0.0000 C    0  0  0  0  0  0  0  0  0  0  0  0
    2.8999   -0.8155    0.0000 C    0  0  0  0  0  0  0  0  0  0  0  0
    2.6461   -1.6018    0.0000 S    0  0  0  0  0  0  0  0  0  0  0  0
    4.2062    1.8597    0.0000 C    0  0  0  0  0  0  0  0  0  0  0  0
    3.6862   -0.5617    0.0000 C    0  0  0  0  0  0  0  0  0  0  0  0
    4.8095    1.3064    0.0000 C    0  0  0  0  0  0  0  0  0  0  0  0
    3.4199    1.6184    0.0000 C    0  0  0  0  0  0  0  0  0  0  0  0
    3.8567    0.2496    0.0000 C    0  0  0  0  0  0  0  0  0  0  0  0
    4.3934    2.6668    0.0000 O    0  0  0  0  0  0  0  0  0  0  0  0
    0.6116    0.2454    0.0000 C    0  0  0  0  0  0  0  0  0  0  0  0
    0.3911    1.0442    0.0000 C    0  0  0  0  0  0  0  0  0  0  0  0
    1.3355   -2.2633    0.0000 O    0  0  0  0  0  0  0  0  0  0  0  0
    4.6348    0.4951    0.0000 C    0  0  0  0  0  0  0  0  0  0  0  0
    2.2259    0.4951    0.0000 O    0  0  0  0  0  0  0  0  0  0  0  0
    3.2452    0.8071    0.0000 C    0  0  0  0  0  0  0  0  0  0  0  0
    0.7863   -0.5617    0.0000 C    0  0  0  0  0  0  0  0  0  0  0  0
    5.5959    1.5560    0.0000 Br   0  0  0  0  0  0  0  0  0  0  0  0
    5.1715    2.9165    0.0000 C    0  0  0  0  0  0  0  0  0  0  0  0
    2.8208    2.1676    0.0000 O    0  0  0  0  0  0  0  0  0  0  0  0
    5.7207    5.3213    0.0000 C    0  0  0  0  0  0  0  0  0  0  0  0
    5.3587    3.7277    0.0000 C    0  0  0  0  0  0  0  0  0  0  0  0
    5.9079    6.1284    0.0000 F    0  0  0  0  0  0  0  0  0  0  0  0
    6.3281    4.7596    0.0000 C    0  0  0  0  0  0  0  0  0  0  0  0
    4.9343    5.0716    0.0000 C    0  0  0  0  0  0  0  0  0  0  0  0
    4.7471    4.2728    0.0000 C    0  0  0  0  0  0  0  0  0  0  0  0
    6.1450    3.9649    0.0000 C    0  0  0  0  0  0  0  0  0  0  0  0
    2.0387    1.9179    0.0000 C    0  0  0  0  0  0  0  0  0  0  0  0
  2  1  1  0  0  0  0
  3  1  1  0  0  0  0
  4  3  1  0  0  0  0
  4  5  1  0  0  0  0
  5  2  1  0  0  0  0
  6  9  2  0  0  0  0
  6  8  1  0  0  0  0
  7  4  2  0  0  0  0
  8 15  2  0  0  0  0
  9 17  1  0  0  0  0
 10  7  1  0  0  0  0
 11  6  1  0  0  0  0
 12 18  1  0  0  0  0
 13 12  3  0  0  0  0
 14  2  2  0  0  0  0
 15 10  1  0  0  0  0
 16  3  2  0  0  0  0
 17 10  2  0  0  0  0
 18  1  1  0  0  0  0
 19  8  1  0  0  0  0
 20 11  1  0  0  0  0
 21  9  1  0  0  0  0
 22 25  2  0  0  0  0
 23 20  1  0  0  0  0
 24 22  1  0  0  0  0
 25 28  1  0  0  0  0
 26 27  2  0  0  0  0
 26 22  1  0  0  0  0
 27 23  1  0  0  0  0
 28 23  2  0  0  0  0
 29 21  1  0  0  0  0
M  END
> <CdId>
1018

> <Mol Weight>
476.316

> <Formula>
C21H15BrFNO4S

> <Click_ID>
CLK014_C03 __ __ 

$$$$
