CLK048E08
 OpenBabel03181410512D

 24 26  0  0  0  0  0  0  0  0999 V2000
    0.3667   -0.4333    0.0000 C   0  0  0  0  0  0  0  0  0  0  0  0
    1.6375   -0.0208    0.0000 N   0  0  0  0  0  0  0  0  0  0  0  0
    1.6375   -0.8458    0.0000 N   0  0  0  0  0  0  0  0  0  0  0  0
    0.8542    0.2333    0.0000 C   0  0  0  0  0  0  0  0  0  0  0  0
   -0.4583   -0.4333    0.0000 C   0  0  0  0  0  0  0  0  0  0  0  0
    0.8542   -1.1000    0.0000 C   0  0  0  0  0  0  0  0  0  0  0  0
   -0.8708    0.2833    0.0000 N   0  0  0  0  0  0  0  0  0  0  0  0
   -3.3458   -1.1458    0.0000 C   0  0  0  0  0  0  0  0  0  0  0  0
   -3.7583   -1.8625    0.0000 C   0  0  0  0  0  0  0  0  0  0  0  0
    2.3042    0.4625    0.0000 C   0  0  0  0  0  0  0  0  0  0  0  0
   -0.8708   -1.1458    0.0000 O   0  0  0  0  0  0  0  0  0  0  0  0
   -1.6958    0.2833    0.0000 C   0  0  0  0  0  0  0  0  0  0  0  0
   -2.9333   -0.4333    0.0000 C   0  0  0  0  0  0  0  0  0  0  0  0
    0.5958    1.0208    0.0000 C   0  0  0  0  0  0  0  0  0  0  0  0
   -2.1083   -0.4333    0.0000 C   0  0  0  0  0  0  0  0  0  0  0  0
    0.5958   -1.8833    0.0000 C   0  0  0  0  0  0  0  0  0  0  0  0
   -2.9333    0.9958    0.0000 C   0  0  0  0  0  0  0  0  0  0  0  0
   -2.1083    0.9958    0.0000 C   0  0  0  0  0  0  0  0  0  0  0  0
    3.0583    0.1292    0.0000 C   0  0  0  0  0  0  0  0  0  0  0  0
    2.2167    1.2833    0.0000 C   0  0  0  0  0  0  0  0  0  0  0  0
   -3.3458    0.2833    0.0000 C   0  0  0  0  0  0  0  0  0  0  0  0
    2.8875    1.7708    0.0000 C   0  0  0  0  0  0  0  0  0  0  0  0
    3.7250    0.6125    0.0000 C   0  0  0  0  0  0  0  0  0  0  0  0
    3.6375    1.4333    0.0000 C   0  0  0  0  0  0  0  0  0  0  0  0
  2  4  1  0  0  0  0
  2  3  1  0  0  0  0
  3  6  2  0  0  0  0
  4  1  2  0  0  0  0
  5  1  1  0  0  0  0
  6  1  1  0  0  0  0
  7  5  1  0  0  0  0
  8 13  1  0  0  0  0
  9  8  3  0  0  0  0
 10  2  1  0  0  0  0
 11  5  2  0  0  0  0
 12  7  1  0  0  0  0
 13 15  1  0  0  0  0
 14  4  1  0  0  0  0
 15 12  2  0  0  0  0
 16  6  1  0  0  0  0
 17 18  2  0  0  0  0
 18 12  1  0  0  0  0
 19 10  1  0  0  0  0
 20 10  2  0  0  0  0
 21 13  2  0  0  0  0
 21 17  1  0  0  0  0
 22 20  1  0  0  0  0
 23 19  2  0  0  0  0
 24 22  2  0  0  0  0
 24 23  1  0  0  0  0
M  END
> <CdId>
3701

> <Mol Weight>
315.3685

> <Formula>
C20H17N3O

> <Click_ID>
CLK048E08 __ __ 

$$$$
