CLK026B08
ChemmineR-0314142021XD

 27 29  0  0  0  0            999 V2000
    2.4858    0.4120    0.0000 N   0  0  0  0  0  0  0  0  0  0  0  0
    3.2033    0.8205    0.0000 C   0  0  0  0  0  0  0  0  0  0  0  0
    1.7751    1.6515    0.0000 C   0  0  0  0  0  0  0  0  0  0  0  0
    1.7751    0.8205    0.0000 C   0  0  0  0  0  0  0  0  0  0  0  0
    3.2033    1.6515    0.0000 N   0  0  0  0  0  0  0  0  0  0  0  0
    2.4858    2.0704    0.0000 C   0  0  0  0  0  0  0  0  0  0  0  0
    1.0540    2.0635    0.0000 C   0  0  0  0  0  0  0  0  0  0  0  0
    2.4858   -0.4155    0.0000 C   0  0  0  0  0  0  0  0  0  0  0  0
    3.9208    0.4086    0.0000 S   0  0  0  0  0  0  0  0  0  0  0  0
   -3.2102    0.4567    0.0000 C   0  0  0  0  0  0  0  0  0  0  0  0
   -3.9243    0.0550    0.0000 C   0  0  0  0  0  0  0  0  0  0  0  0
    1.0540    0.4086    0.0000 O   0  0  0  0  0  0  0  0  0  0  0  0
    2.4858    2.8978    0.0000 O   0  0  0  0  0  0  0  0  0  0  0  0
    0.3434    1.6549    0.0000 C   0  0  0  0  0  0  0  0  0  0  0  0
    1.7613   -0.8240    0.0000 C   0  0  0  0  0  0  0  0  0  0  0  0
    3.2033   -0.8240    0.0000 C   0  0  0  0  0  0  0  0  0  0  0  0
    2.4788   -2.0669    0.0000 C   0  0  0  0  0  0  0  0  0  0  0  0
   -1.0746    0.8377    0.0000 C   0  0  0  0  0  0  0  0  0  0  0  0
    3.1930   -1.6515    0.0000 C   0  0  0  0  0  0  0  0  0  0  0  0
    1.7613   -1.6515    0.0000 C   0  0  0  0  0  0  0  0  0  0  0  0
    2.4651   -2.8943    0.0000 F   0  0  0  0  0  0  0  0  0  0  0  0
   -0.3605    2.0635    0.0000 C   0  0  0  0  0  0  0  0  0  0  0  0
    0.3399    0.8343    0.0000 C   0  0  0  0  0  0  0  0  0  0  0  0
   -0.3708    0.4326    0.0000 C   0  0  0  0  0  0  0  0  0  0  0  0
   -1.0780    1.6618    0.0000 C   0  0  0  0  0  0  0  0  0  0  0  0
   -2.4994    0.8514    0.0000 C   0  0  0  0  0  0  0  0  0  0  0  0
   -1.7922    0.4464    0.0000 O   0  0  0  0  0  0  0  0  0  0  0  0
  2  1  1  0  0  0  0
  3  4  1  0  0  0  0
  4  1  1  0  0  0  0
  5  2  1  0  0  0  0
  6  3  1  0  0  0  0
  7  3  2  0  0  0  0
  8  1  1  0  0  0  0
  9  2  2  0  0  0  0
 10 26  1  0  0  0  0
 11 10  3  0  0  0  0
 12  4  2  0  0  0  0
 13  6  2  0  0  0  0
 14  7  1  0  0  0  0
 15  8  2  0  0  0  0
 16  8  1  0  0  0  0
 17 19  1  0  0  0  0
 18 24  2  0  0  0  0
 19 16  2  0  0  0  0
 20 15  1  0  0  0  0
 21 17  1  0  0  0  0
 22 14  1  0  0  0  0
 23 14  2  0  0  0  0
 24 23  1  0  0  0  0
 25 22  2  0  0  0  0
 26 27  1  0  0  0  0
 27 18  1  0  0  0  0
 20 17  2  0  0  0  0
  5  6  1  0  0  0  0
 25 18  1  0  0  0  0
M  END
> <Mol Weight>
380.392

> <Click ID>
CLK026_B08

> <Plant Activity>
0

> <Yeast Activity>
1

> <Yeast Comment>
second antifungal hit with this five membered di-amide-tricarbonyl structure. See CLK023_B05 __  __ 

$$$$
