CLK028G06
ChemmineR-0314142021XD

 14 14  0  0  0  0            999 V2000
   -0.0035   -0.8250    0.0000 C    0  0  0  0  0  0  0  0  0  0  0  0
   -0.7116    0.4193    0.0000 C    0  0  0  0  0  0  0  0  0  0  0  0
   -0.0035    0.0000    0.0000 C    0  0  0  0  0  0  0  0  0  0  0  0
   -1.4266    0.0000    0.0000 C    0  0  0  0  0  0  0  0  0  0  0  0
    1.4300    1.6535    0.0000 C    0  0  0  0  0  0  0  0  0  0  0  0
    2.1382    2.0693    0.0000 C    0  0  0  0  0  0  0  0  0  0  0  0
   -0.7116   -1.2340    0.0000 C    0  0  0  0  0  0  0  0  0  0  0  0
   -1.4266   -0.8250    0.0000 C    0  0  0  0  0  0  0  0  0  0  0  0
    0.7150   -1.2340    0.0000 C    0  0  0  0  0  0  0  0  0  0  0  0
    0.7150   -2.0660    0.0000 O    0  0  0  0  0  0  0  0  0  0  0  0
   -0.7116    1.2410    0.0000 Br   0  0  0  0  0  0  0  0  0  0  0  0
    0.7150    0.4193    0.0000 O    0  0  0  0  0  0  0  0  0  0  0  0
   -2.1415   -1.2340    0.0000 Br   0  0  0  0  0  0  0  0  0  0  0  0
    0.7150    1.2410    0.0000 C    0  0  0  0  0  0  0  0  0  0  0  0
  2  3  2  0  0  0  0
  3  1  1  0  0  0  0
  4  8  2  0  0  0  0
  5 14  1  0  0  0  0
  6  5  3  0  0  0  0
  7  1  2  0  0  0  0
  8  7  1  0  0  0  0
  9  1  1  0  0  0  0
 10  9  2  0  0  0  0
 11  2  1  0  0  0  0
 12  3  1  0  0  0  0
 13  8  1  0  0  0  0
 14 12  1  0  0  0  0
  2  4  1  0  0  0  0
M  END
> <Mol Weight>
317.961

> <Click ID>
CLK028_G06

> <Plant Activity>
0

> <Yeast Activity>
1 __  __ 

$$$$
