CLK016A05
 OpenBabel03181404282D

 18 19  0  0  0  0  0  0  0  0999 V2000
    1.5649   -0.8157    0.0000 N   0  0  0  0  0  0  0  0  0  0  0  0
    1.8229   -1.6023    0.0000 C   0  0  0  0  0  0  0  0  0  0  0  0
    2.2348   -0.3288    0.0000 C   0  0  0  0  0  0  0  0  0  0  0  0
    2.9008   -0.8157    0.0000 C   0  0  0  0  0  0  0  0  0  0  0  0
    2.6468   -1.6023    0.0000 S   0  0  0  0  0  0  0  0  0  0  0  0
    3.6873   -0.5619    0.0000 C   0  0  0  0  0  0  0  0  0  0  0  0
    0.6118    0.2455    0.0000 C   0  0  0  0  0  0  0  0  0  0  0  0
    0.3913    1.0445    0.0000 C   0  0  0  0  0  0  0  0  0  0  0  0
    1.3359   -2.2640    0.0000 O   0  0  0  0  0  0  0  0  0  0  0  0
    2.2265    0.4952    0.0000 O   0  0  0  0  0  0  0  0  0  0  0  0
    0.7865   -0.5619    0.0000 C   0  0  0  0  0  0  0  0  0  0  0  0
    3.8621    0.2455    0.0000 C   0  0  0  0  0  0  0  0  0  0  0  0
    3.2504    0.7948    0.0000 C   0  0  0  0  0  0  0  0  0  0  0  0
    3.4251    1.6064    0.0000 C   0  0  0  0  0  0  0  0  0  0  0  0
    2.8134    2.1557    0.0000 F   0  0  0  0  0  0  0  0  0  0  0  0
    4.8109    1.2985    0.0000 C   0  0  0  0  0  0  0  0  0  0  0  0
    4.6362    0.4952    0.0000 C   0  0  0  0  0  0  0  0  0  0  0  0
    4.2075    1.8478    0.0000 C   0  0  0  0  0  0  0  0  0  0  0  0
  2  1  1  0  0  0  0
  3  1  1  0  0  0  0
  4  3  1  0  0  0  0
  4  5  1  0  0  0  0
  5  2  1  0  0  0  0
  6  4  2  0  0  0  0
  7 11  1  0  0  0  0
  8  7  3  0  0  0  0
  9  2  2  0  0  0  0
 10  3  2  0  0  0  0
 11  1  1  0  0  0  0
 12  6  1  0  0  0  0
 13 12  2  0  0  0  0
 14 13  1  0  0  0  0
 14 18  2  0  0  0  0
 15 14  1  0  0  0  0
 16 17  2  0  0  0  0
 17 12  1  0  0  0  0
 18 16  1  0  0  0  0
M  END
> <Mol Weight>
261.272

> <Click ID>
CLK016_A05

> <Plant Activity>
0

> <Yeast Activity>
1 __ __ 

$$$$
