CLK012B06
 OpenBabel03181404282D

 21 22  0  0  0  0  0  0  0  0999 V2000
    1.5642   -0.8154    0.0000 N    0  0  0  0  0  0  0  0  0  0  0  0
    1.8221   -1.6016    0.0000 C    0  0  0  0  0  0  0  0  0  0  0  0
    2.8996   -0.8154    0.0000 C    0  0  0  0  0  0  0  0  0  0  0  0
    2.2340   -0.3287    0.0000 C    0  0  0  0  0  0  0  0  0  0  0  0
    2.6458   -1.6016    0.0000 S    0  0  0  0  0  0  0  0  0  0  0  0
    2.8330    2.1716    0.0000 N    0  0  0  0  0  0  0  0  0  0  0  0
    3.6858   -0.5616    0.0000 C    0  0  0  0  0  0  0  0  0  0  0  0
    3.8688    0.2454    0.0000 C    0  0  0  0  0  0  0  0  0  0  0  0
    3.4362    1.6057    0.0000 C    0  0  0  0  0  0  0  0  0  0  0  0
    3.2614    0.8070    0.0000 C    0  0  0  0  0  0  0  0  0  0  0  0
    0.6115    0.2454    0.0000 C    0  0  0  0  0  0  0  0  0  0  0  0
    0.3911    1.0441    0.0000 C    0  0  0  0  0  0  0  0  0  0  0  0
    3.0119    2.9786    0.0000 O    0  0  0  0  0  0  0  0  0  0  0  0
    1.3354   -2.2631    0.0000 O    0  0  0  0  0  0  0  0  0  0  0  0
    2.0467    1.9302    0.0000 O    0  0  0  0  0  0  0  0  0  0  0  0
    2.2257    0.4950    0.0000 O    0  0  0  0  0  0  0  0  0  0  0  0
    4.6551    0.4950    0.0000 C    0  0  0  0  0  0  0  0  0  0  0  0
    0.7862   -0.5616    0.0000 C    0  0  0  0  0  0  0  0  0  0  0  0
    4.2182    1.8470    0.0000 C    0  0  0  0  0  0  0  0  0  0  0  0
    4.8298    1.2980    0.0000 C    0  0  0  0  0  0  0  0  0  0  0  0
    5.2665   -0.0749    0.0000 Cl   0  0  0  0  0  0  0  0  0  0  0  0
  2  1  1  0  0  0  0
  3  4  1  0  0  0  0
  4  1  1  0  0  0  0
  5  2  1  0  0  0  0
  5  3  1  0  0  0  0
  6  9  1  0  0  0  0
  7  3  2  0  0  0  0
  8  7  1  0  0  0  0
  9 10  1  0  0  0  0
 10  8  2  0  0  0  0
 11 18  1  0  0  0  0
 12 11  3  0  0  0  0
 13  6  1  0  0  0  0
 14  2  2  0  0  0  0
 15  6  2  0  0  0  0
 16  4  2  0  0  0  0
 17  8  1  0  0  0  0
 18  1  1  0  0  0  0
 19 20  1  0  0  0  0
 19  9  2  0  0  0  0
 20 17  2  0  0  0  0
 21 17  1  0  0  0  0
M  END
> <Mol Weight>
322.724

> <Click ID>
CLK012_B06

> <Plant Activity>
0

> <Yeast Activity>
1 __ __ 

$$$$
