CLK028D08
 OpenBabel03181404282D

 27 29  0  0  0  0  0  0  0  0999 V2000
    0.3740   -1.9553    0.0000 C   0  0  0  0  0  0  0  0  0  0  0  0
    0.9091   -0.7341    0.0000 N   0  0  0  0  0  0  0  0  0  0  0  0
    0.1990   -1.1491    0.0000 C   0  0  0  0  0  0  0  0  0  0  0  0
    1.5231   -1.2932    0.0000 N   0  0  0  0  0  0  0  0  0  0  0  0
    1.1938   -2.0342    0.0000 C   0  0  0  0  0  0  0  0  0  0  0  0
   -0.1750   -2.5728    0.0000 C   0  0  0  0  0  0  0  0  0  0  0  0
    1.1217    0.0515    0.0000 C   0  0  0  0  0  0  0  0  0  0  0  0
    1.7941    2.4253    0.0000 C   0  0  0  0  0  0  0  0  0  0  0  0
   -2.0136    0.7169    0.0000 C   0  0  0  0  0  0  0  0  0  0  0  0
   -2.2675    1.5060    0.0000 C   0  0  0  0  0  0  0  0  0  0  0  0
   -0.5694   -0.8095    0.0000 O   0  0  0  0  0  0  0  0  0  0  0  0
    1.5574    1.6295    0.0000 C   0  0  0  0  0  0  0  0  0  0  0  0
   -0.9879   -2.4047    0.0000 C   0  0  0  0  0  0  0  0  0  0  0  0
    1.2315    3.0255    0.0000 O   0  0  0  0  0  0  0  0  0  0  0  0
    1.9107    0.2641    0.0000 C   0  0  0  0  0  0  0  0  0  0  0  0
    0.5455    0.6312    0.0000 C   0  0  0  0  0  0  0  0  0  0  0  0
    0.7547    1.4167    0.0000 C   0  0  0  0  0  0  0  0  0  0  0  0
    2.1234    1.0634    0.0000 C   0  0  0  0  0  0  0  0  0  0  0  0
   -1.2521   -1.6226    0.0000 C   0  0  0  0  0  0  0  0  0  0  0  0
    2.5968    2.6174    0.0000 O   0  0  0  0  0  0  0  0  0  0  0  0
   -2.0514   -1.4614    0.0000 C   0  0  0  0  0  0  0  0  0  0  0  0
    1.6089   -2.7546    0.0000 C   0  0  0  0  0  0  0  0  0  0  0  0
   -1.7632   -0.0618    0.0000 C   0  0  0  0  0  0  0  0  0  0  0  0
   -2.3120   -0.6723    0.0000 O   0  0  0  0  0  0  0  0  0  0  0  0
   -2.3395   -2.8609    0.0000 C   0  0  0  0  0  0  0  0  0  0  0  0
   -1.5299   -3.0221    0.0000 C   0  0  0  0  0  0  0  0  0  0  0  0
   -2.6002   -2.0822    0.0000 C   0  0  0  0  0  0  0  0  0  0  0  0
  2  3  1  0  0  0  0
  2  4  1  0  0  0  0
  3  1  1  0  0  0  0
  4  5  2  0  0  0  0
  5  1  1  0  0  0  0
  6  1  2  0  0  0  0
  7  2  1  0  0  0  0
  8 12  1  0  0  0  0
  9 23  1  0  0  0  0
 10  9  3  0  0  0  0
 11  3  2  0  0  0  0
 12 17  2  0  0  0  0
 13  6  1  0  0  0  0
 14  8  2  0  0  0  0
 15  7  1  0  0  0  0
 16  7  2  0  0  0  0
 17 16  1  0  0  0  0
 18 15  2  0  0  0  0
 18 12  1  0  0  0  0
 19 13  1  0  0  0  0
 20  8  1  0  0  0  0
 21 19  2  0  0  0  0
 21 27  1  0  0  0  0
 22  5  1  0  0  0  0
 23 24  1  0  0  0  0
 24 21  1  0  0  0  0
 25 26  1  0  0  0  0
 26 13  2  0  0  0  0
 27 25  2  0  0  0  0
M  END
> <Mol Weight>
360.3627

> <Click ID>
CLK028_D08

> <Plant Activity>
0

> <Yeast Activity>
1 __ __ 

$$$$
