CLK003A05
 OpenBabel03181404282D

 23 24  0  0  0  0  0  0  0  0999 V2000
    1.3259    1.1212    0.0000 N   0  0  0  0  0  0  0  0  0  0  0  0
    2.1299    1.2810    0.0000 C   0  0  0  0  0  0  0  0  0  0  0  0
    1.0487    0.3446    0.0000 C   0  0  0  0  0  0  0  0  0  0  0  0
    0.9189    1.8453    0.0000 C   0  0  0  0  0  0  0  0  0  0  0  0
    2.2223    2.1124    0.0000 N   0  0  0  0  0  0  0  0  0  0  0  0
    2.7442    0.7141    0.0000 S   0  0  0  0  0  0  0  0  0  0  0  0
    0.2472    0.1848    0.0000 C   0  0  0  0  0  0  0  0  0  0  0  0
    1.6005   -0.2697    0.0000 O   0  0  0  0  0  0  0  0  0  0  0  0
    1.4832    2.4520    0.0000 N   0  0  0  0  0  0  0  0  0  0  0  0
    2.5644   -0.1049    0.0000 C   0  0  0  0  0  0  0  0  0  0  0  0
   -0.0125   -0.6017    0.0000 C   0  0  0  0  0  0  0  0  0  0  0  0
    3.1787   -0.6542    0.0000 C   0  0  0  0  0  0  0  0  0  0  0  0
   -0.8240   -0.7616    0.0000 C   0  0  0  0  0  0  0  0  0  0  0  0
    3.7804   -1.2186    0.0000 C   0  0  0  0  0  0  0  0  0  0  0  0
   -1.3833   -0.1623    0.0000 C   0  0  0  0  0  0  0  0  0  0  0  0
   -1.0936   -1.5581    0.0000 C   0  0  0  0  0  0  0  0  0  0  0  0
   -2.1848   -0.3221    0.0000 C   0  0  0  0  0  0  0  0  0  0  0  0
   -1.9052   -1.7179    0.0000 C   0  0  0  0  0  0  0  0  0  0  0  0
   -2.4470   -1.1036    0.0000 C   0  0  0  0  0  0  0  0  0  0  0  0
   -2.7517    0.3021    0.0000 O   0  0  0  0  0  0  0  0  0  0  0  0
   -3.2511   -1.2984    0.0000 O   0  0  0  0  0  0  0  0  0  0  0  0
   -3.5632    0.1124    0.0000 C   0  0  0  0  0  0  0  0  0  0  0  0
   -3.8229   -0.6991    0.0000 C   0  0  0  0  0  0  0  0  0  0  0  0
  1  2  1  0  0  0  0
  1  3  1  0  0  0  0
  1  4  1  0  0  0  0
  2  5  2  0  0  0  0
  2  6  1  0  0  0  0
  3  7  1  0  0  0  0
  3  8  2  0  0  0  0
  4  9  2  0  0  0  0
  5  9  1  0  0  0  0
  6 10  1  0  0  0  0
  7 11  2  0  0  0  0
 10 12  1  0  0  0  0
 11 13  1  0  0  0  0
 12 14  3  0  0  0  0
 13 15  1  0  0  0  0
 13 16  2  0  0  0  0
 15 17  2  0  0  0  0
 16 18  1  0  0  0  0
 17 19  1  0  0  0  0
 17 20  1  0  0  0  0
 18 19  2  0  0  0  0
 19 21  1  0  0  0  0
 20 22  1  0  0  0  0
 21 23  1  0  0  0  0
M  END
> <Mol Weight>
329.374

> <Click ID>
CLK003_A05

> <Plant Activity>
0

> <Yeast Activity>
1 __ __ 

$$$$
