CLK020H03
 OpenBabel03181404282D

 18 18  0  0  0  0  0  0  0  0999 V2000
    6.9949    2.5652    0.0000 N    0  0  0  0  0  0  0  0  0  0  0  0
    3.2844    1.8415    0.0000 C    0  0  0  0  0  0  0  0  0  0  0  0
    3.6967    1.1269    0.0000 C    0  0  0  0  0  0  0  0  0  0  0  0
    3.6967    2.5652    0.0000 C    0  0  0  0  0  0  0  0  0  0  0  0
    6.1703    2.5652    0.0000 C    0  0  0  0  0  0  0  0  0  0  0  0
    1.2231    2.5652    0.0000 C    0  0  0  0  0  0  0  0  0  0  0  0
    0.3985    2.5652    0.0000 C    0  0  0  0  0  0  0  0  0  0  0  0
    5.7581    1.8415    0.0000 C    0  0  0  0  0  0  0  0  0  0  0  0
    7.4071    3.2798    0.0000 O    0  0  0  0  0  0  0  0  0  0  0  0
    4.9335    1.8415    0.0000 C    0  0  0  0  0  0  0  0  0  0  0  0
    7.4071    1.8415    0.0000 O    0  0  0  0  0  0  0  0  0  0  0  0
    4.5212    1.1269    0.0000 C    0  0  0  0  0  0  0  0  0  0  0  0
    4.5212    2.5652    0.0000 C    0  0  0  0  0  0  0  0  0  0  0  0
    3.2844    0.4123    0.0000 Br   0  0  0  0  0  0  0  0  0  0  0  0
    2.4599    1.8415    0.0000 O    0  0  0  0  0  0  0  0  0  0  0  0
    3.2844    3.2798    0.0000 O    0  0  0  0  0  0  0  0  0  0  0  0
    2.0476    2.5652    0.0000 C    0  0  0  0  0  0  0  0  0  0  0  0
    3.6967    3.9853    0.0000 C    0  0  0  0  0  0  0  0  0  0  0  0
  2  4  1  0  0  0  0
  3 12  1  0  0  0  0
  3  2  2  0  0  0  0
  4 13  2  0  0  0  0
  5  1  1  0  0  0  0
  6 17  1  0  0  0  0
  7  6  3  0  0  0  0
  8  5  2  0  0  0  0
  9  1  1  0  0  0  0
 10  8  1  0  0  0  0
 11  1  2  0  0  0  0
 12 10  2  0  0  0  0
 13 10  1  0  0  0  0
 14  3  1  0  0  0  0
 15  2  1  0  0  0  0
 16  4  1  0  0  0  0
 17 15  1  0  0  0  0
 18 16  1  0  0  0  0
M  END
> <Mol Weight>
312.116

> <Click ID>
CLK020_H03

> <Plant Activity>
0

> <Yeast Activity>
1 __ __ 

$$$$
