DB08794
 OpenBabel03181404282D

 30 33  0  0  0  0  0  0  0  0999 V2000
    5.9369    2.4540    0.0000 O   0  0  0  0  0  0  0  0  0  0  0  0
    3.7934   -1.2585    0.0000 O   0  0  0  0  0  0  0  0  0  0  0  0
    3.0789    0.8040    0.0000 O   0  0  0  0  0  0  0  0  0  0  0  0
    4.5079    2.4540    0.0000 O   0  0  0  0  0  0  0  0  0  0  0  0
    3.0789   -0.0210    0.0000 O   0  0  0  0  0  0  0  0  0  0  0  0
    6.4672    0.1721    0.0000 O   0  0  0  0  0  0  0  0  0  0  0  0
    6.0348   -0.5767    0.0000 O   0  0  0  0  0  0  0  0  0  0  0  0
    3.7934    2.0415    0.0000 O   0  0  0  0  0  0  0  0  0  0  0  0
    4.5079    0.8040    0.0000 C   0  0  0  0  0  0  0  0  0  0  0  0
    4.5079   -0.0210    0.0000 C   0  0  0  0  0  0  0  0  0  0  0  0
    5.2223    1.2165    0.0000 C   0  0  0  0  0  0  0  0  0  0  0  0
    5.2223   -0.4335    0.0000 C   0  0  0  0  0  0  0  0  0  0  0  0
    5.9369    0.8040    0.0000 C   0  0  0  0  0  0  0  0  0  0  0  0
    3.7934    1.2165    0.0000 C   0  0  0  0  0  0  0  0  0  0  0  0
    6.6513    1.2165    0.0000 C   0  0  0  0  0  0  0  0  0  0  0  0
    5.2223   -1.2585    0.0000 C   0  0  0  0  0  0  0  0  0  0  0  0
    5.2223    2.0415    0.0000 C   0  0  0  0  0  0  0  0  0  0  0  0
    3.7934   -0.4335    0.0000 C   0  0  0  0  0  0  0  0  0  0  0  0
    6.6513    2.0415    0.0000 C   0  0  0  0  0  0  0  0  0  0  0  0
    4.5079   -1.6710    0.0000 C   0  0  0  0  0  0  0  0  0  0  0  0
    7.3888    0.7755    0.0000 C   0  0  0  0  0  0  0  0  0  0  0  0
    5.9731   -1.6766    0.0000 C   0  0  0  0  0  0  0  0  0  0  0  0
    7.3888    2.4827    0.0000 C   0  0  0  0  0  0  0  0  0  0  0  0
    4.4946   -2.5302    0.0000 C   0  0  0  0  0  0  0  0  0  0  0  0
    5.9798   -2.5359    0.0000 C   0  0  0  0  0  0  0  0  0  0  0  0
    8.1363    1.1994    0.0000 C   0  0  0  0  0  0  0  0  0  0  0  0
    8.1363    2.0587    0.0000 C   0  0  0  0  0  0  0  0  0  0  0  0
    5.2355   -2.9655    0.0000 C   0  0  0  0  0  0  0  0  0  0  0  0
    2.3645    1.2165    0.0000 C   0  0  0  0  0  0  0  0  0  0  0  0
    1.6500    0.8040    0.0000 C   0  0  0  0  0  0  0  0  0  0  0  0
  1 17  1  0  0  0  0
  1 19  1  0  0  0  0
  2 18  1  0  0  0  0
  2 20  1  0  0  0  0
  3 14  1  0  0  0  0
  3 29  1  0  0  0  0
  4 17  1  0  0  0  0
  5 18  1  0  0  0  0
  6 13  2  0  0  0  0
  7 12  2  0  0  0  0
  8 14  2  0  0  0  0
  9 10  1  0  0  0  0
  9 11  1  0  0  0  0
  9 14  1  0  0  0  0
 10 12  1  0  0  0  0
 10 18  2  0  0  0  0
 11 13  1  0  0  0  0
 11 17  2  0  0  0  0
 12 16  1  0  0  0  0
 13 15  1  0  0  0  0
 15 19  1  0  0  0  0
 15 21  2  0  0  0  0
 16 20  1  0  0  0  0
 16 22  2  0  0  0  0
 19 23  2  0  0  0  0
 20 24  2  0  0  0  0
 21 26  1  0  0  0  0
 22 25  1  0  0  0  0
 23 27  1  0  0  0  0
 24 28  1  0  0  0  0
 25 28  2  0  0  0  0
 26 27  2  0  0  0  0
 29 30  1  0  0  0  0
M  END
> <DRUGBANK_ID>
DB08794

> <DRUG_GROUPS>


> <GENERIC_NAME>
Ethyl biscoumacetate

> <SYNONYMS>
Pelentan; Tromexan

> <CHEMICAL_FORMULA>
C22H16O8

> <MOLECULAR_WEIGHT>
408.3576

> <EXACT_MASS>
408.084517488

> <IUPAC_NAME>
ethyl 2,2-bis(2-hydroxy-4-oxo-4H-chromen-3-yl)acetate

> <INCHI_IDENTIFIER>
InChI=1S/C22H16O8/c1-2-28-20(25)15(16-18(23)11-7-3-5-9-13(11)29-21(16)26)17-19(24)12-8-4-6-10-14(12)30-22(17)27/h3-10,15,26-27H,2H2,1H3

> <INCHI_KEY>
InChIKey=SEGSDVUVOWIWFX-UHFFFAOYSA-N

> <SMILES>
CCOC(=O)C(C1=C(O)OC2=CC=CC=C2C1=O)C1=C(O)OC2=CC=CC=C2C1=O

> <JCHEM_ACCEPTOR_COUNT>
7

> <JCHEM_DONOR_COUNT>
2

> <JCHEM_ACIDIC_PKA>
7.13

> <JCHEM_BASIC_PKA>
-5.2

> <JCHEM_PHYSIOLOGICAL_CHARGE>
0

> <ALOGPS_LOGP>
2.18

> <JCHEM_LOGP>
3.22

> <ALOGPS_LOGS>
-3.7

> <JCHEM_POLARIZABILITY>
39.96

> <JCHEM_POLAR_SURFACE_AREA>
119.36

> <JCHEM_REFRACTIVITY>
123.2

> <JCHEM_ROTATABLE_BOND_COUNT>
5

> <ALOGPS_SOLUBILITY>
8.61e-02 g/l __ __ 

$$$$
