CLK051H09
 OpenBabel03181419432D

 25 27  0  0  0  0  0  0  0  0999 V2000
    1.1167    1.7708    0.0000 C   0  0  0  0  0  0  0  0  0  0  0  0
   -0.3125   -0.7042    0.0000 C   0  0  0  0  0  0  0  0  0  0  0  0
    2.4250    2.0500    0.0000 N   0  0  0  0  0  0  0  0  0  0  0  0
    2.0125    2.7625    0.0000 O   0  0  0  0  0  0  0  0  0  0  0  0
   -0.3125    0.1208    0.0000 C   0  0  0  0  0  0  0  0  0  0  0  0
    1.2042    2.5917    0.0000 C   0  0  0  0  0  0  0  0  0  0  0  0
   -1.0250   -1.1167    0.0000 C   0  0  0  0  0  0  0  0  0  0  0  0
    1.8708    1.4333    0.0000 C   0  0  0  0  0  0  0  0  0  0  0  0
    0.4042   -1.1167    0.0000 C   0  0  0  0  0  0  0  0  0  0  0  0
    0.4042    1.3583    0.0000 C   0  0  0  0  0  0  0  0  0  0  0  0
    1.1167   -3.1792    0.0000 C   0  0  0  0  0  0  0  0  0  0  0  0
   -1.0250    0.5333    0.0000 C   0  0  0  0  0  0  0  0  0  0  0  0
    1.1167   -4.0042    0.0000 C   0  0  0  0  0  0  0  0  0  0  0  0
    0.4042    0.5333    0.0000 O   0  0  0  0  0  0  0  0  0  0  0  0
   -1.7417   -0.7042    0.0000 C   0  0  0  0  0  0  0  0  0  0  0  0
   -1.7417    0.1208    0.0000 C   0  0  0  0  0  0  0  0  0  0  0  0
    1.1167   -0.7042    0.0000 O   0  0  0  0  0  0  0  0  0  0  0  0
    0.4042   -1.9417    0.0000 N   0  0  0  0  0  0  0  0  0  0  0  0
    1.1167   -2.3542    0.0000 C   0  0  0  0  0  0  0  0  0  0  0  0
    0.5917    3.1417    0.0000 C   0  0  0  0  0  0  0  0  0  0  0  0
    2.0417    0.6292    0.0000 C   0  0  0  0  0  0  0  0  0  0  0  0
   -2.4542   -1.1167    0.0000 C   0  0  0  0  0  0  0  0  0  0  0  0
   -2.4542    0.5333    0.0000 C   0  0  0  0  0  0  0  0  0  0  0  0
   -3.1708    0.1208    0.0000 C   0  0  0  0  0  0  0  0  0  0  0  0
   -3.1708   -0.7042    0.0000 C   0  0  0  0  0  0  0  0  0  0  0  0
  2  5  2  0  0  0  0
  3  8  2  0  0  0  0
  4  6  1  0  0  0  0
  4  3  1  0  0  0  0
  5 14  1  0  0  0  0
  6  1  2  0  0  0  0
  7  2  1  0  0  0  0
  8  1  1  0  0  0  0
  9  2  1  0  0  0  0
 10  1  1  0  0  0  0
 11 19  1  0  0  0  0
 12  5  1  0  0  0  0
 13 11  3  0  0  0  0
 14 10  1  0  0  0  0
 15  7  2  0  0  0  0
 15 16  1  0  0  0  0
 16 12  2  0  0  0  0
 17  9  2  0  0  0  0
 18  9  1  0  0  0  0
 19 18  1  0  0  0  0
 20  6  1  0  0  0  0
 21  8  1  0  0  0  0
 22 15  1  0  0  0  0
 23 16  1  0  0  0  0
 24 23  2  0  0  0  0
 25 22  2  0  0  0  0
 25 24  1  0  0  0  0
M  END
> <CdId>
3952

> <Mol Weight>
334.3685

> <Formula>
C20H18N2O3

> <Click_ID>
CLK051H09 __ __ 

$$$$
