CLK035_D05
 OpenBabel03181419432D

 25 27  0  0  0  0  0  0  0  0999 V2000
   -4.5932    2.5568    0.0000 C   0  0  0  0  0  0  0  0  0  0  0  0
   -3.1565    5.0388    0.0000 N   0  0  0  0  0  0  0  0  0  0  0  0
   -4.6806    1.7323    0.0000 N   0  0  0  0  0  0  0  0  0  0  0  0
   -3.8603    2.9816    0.0000 N   0  0  0  0  0  0  0  0  0  0  0  0
   -5.3177    2.8941    0.0000 S   0  0  0  0  0  0  0  0  0  0  0  0
   -5.4844    1.5824    0.0000 C   0  0  0  0  0  0  0  0  0  0  0  0
   -5.8924    2.2987    0.0000 C   0  0  0  0  0  0  0  0  0  0  0  0
   -2.4819    5.5135    0.0000 C   0  0  0  0  0  0  0  0  0  0  0  0
   -3.8186    5.5135    0.0000 C   0  0  0  0  0  0  0  0  0  0  0  0
   -3.8686    3.7978    0.0000 C   0  0  0  0  0  0  0  0  0  0  0  0
   -3.1565    4.2101    0.0000 C   0  0  0  0  0  0  0  0  0  0  0  0
   -4.2559    0.3581    0.0000 C   0  0  0  0  0  0  0  0  0  0  0  0
   -4.4433   -0.4539    0.0000 C   0  0  0  0  0  0  0  0  0  0  0  0
   -5.9174    0.8828    0.0000 C   0  0  0  0  0  0  0  0  0  0  0  0
   -3.5688    6.3006    0.0000 C   0  0  0  0  0  0  0  0  0  0  0  0
   -2.7442    6.3089    0.0000 C   0  0  0  0  0  0  0  0  0  0  0  0
   -4.6057    5.2720    0.0000 O   0  0  0  0  0  0  0  0  0  0  0  0
   -1.6948    5.2595    0.0000 O   0  0  0  0  0  0  0  0  0  0  0  0
   -4.5807    4.2143    0.0000 O   0  0  0  0  0  0  0  0  0  0  0  0
   -4.0685    1.1618    0.0000 C   0  0  0  0  0  0  0  0  0  0  0  0
   -6.7004    2.3195    0.0000 C   0  0  0  0  0  0  0  0  0  0  0  0
   -5.5176    0.1457    0.0000 O   0  0  0  0  0  0  0  0  0  0  0  0
   -7.1376    1.6199    0.0000 C   0  0  0  0  0  0  0  0  0  0  0  0
   -6.7253    0.8870    0.0000 C   0  0  0  0  0  0  0  0  0  0  0  0
   -5.9549   -0.5539    0.0000 C   0  0  0  0  0  0  0  0  0  0  0  0
  2 11  1  0  0  0  0
  3  1  1  0  0  0  0
  4  1  2  0  0  0  0
  5  1  1  0  0  0  0
  6  3  1  0  0  0  0
  7  5  1  0  0  0  0
  7  6  2  0  0  0  0
  8  2  1  0  0  0  0
  9  2  1  0  0  0  0
 10  4  1  0  0  0  0
 11 10  1  0  0  0  0
 12 20  1  0  0  0  0
 13 12  3  0  0  0  0
 14  6  1  0  0  0  0
 15  9  1  0  0  0  0
 15 16  1  0  0  0  0
 16  8  1  0  0  0  0
 17  9  2  0  0  0  0
 18  8  2  0  0  0  0
 19 10  2  0  0  0  0
 20  3  1  0  0  0  0
 21  7  1  0  0  0  0
 22 14  1  0  0  0  0
 23 21  2  0  0  0  0
 24 14  2  0  0  0  0
 24 23  1  0  0  0  0
 25 22  1  0  0  0  0
M  END
> <CdId>
2679

> <Mol Weight>
357.384

> <Formula>
C17H15N3O4S

> <Click_ID>
CLK035_D05 __ __ 

$$$$
