CLK010_F11
 OpenBabel03181419432D

 32 34  0  0  0  0  0  0  0  0999 V2000
    2.4875   -0.6750    0.0000 N    0  0  0  0  0  0  0  0  0  0  0  0
    3.1917   -1.9042    0.0000 C    0  0  0  0  0  0  0  0  0  0  0  0
    2.4875   -1.5000    0.0000 C    0  0  0  0  0  0  0  0  0  0  0  0
    3.1917   -0.2542    0.0000 C    0  0  0  0  0  0  0  0  0  0  0  0
    3.9042   -0.6750    0.0000 N    0  0  0  0  0  0  0  0  0  0  0  0
    3.9042   -1.5000    0.0000 C    0  0  0  0  0  0  0  0  0  0  0  0
    1.7667   -0.2625    0.0000 C    0  0  0  0  0  0  0  0  0  0  0  0
    3.1917   -2.7292    0.0000 C    0  0  0  0  0  0  0  0  0  0  0  0
    3.9125   -3.1417    0.0000 C    0  0  0  0  0  0  0  0  0  0  0  0
    5.3417   -3.1417    0.0000 C    0  0  0  0  0  0  0  0  0  0  0  0
    5.3375   -3.9667    0.0000 C    0  0  0  0  0  0  0  0  0  0  0  0
    4.6167   -4.3750    0.0000 C    0  0  0  0  0  0  0  0  0  0  0  0
    1.0542   -0.6750    0.0000 C    0  0  0  0  0  0  0  0  0  0  0  0
    6.7500   -5.6292    0.0000 C    0  0  0  0  0  0  0  0  0  0  0  0
    3.1917    0.5708    0.0000 O    0  0  0  0  0  0  0  0  0  0  0  0
    7.4667   -6.0417    0.0000 C    0  0  0  0  0  0  0  0  0  0  0  0
    1.7667   -1.9125    0.0000 O    0  0  0  0  0  0  0  0  0  0  0  0
    4.6250   -2.7292    0.0000 C    0  0  0  0  0  0  0  0  0  0  0  0
    3.9042   -3.9667    0.0000 C    0  0  0  0  0  0  0  0  0  0  0  0
    4.6250   -1.9125    0.0000 O    0  0  0  0  0  0  0  0  0  0  0  0
    3.9250   -5.6125    0.0000 C    0  0  0  0  0  0  0  0  0  0  0  0
    3.9250   -6.4375    0.0000 C    0  0  0  0  0  0  0  0  0  0  0  0
    0.3417   -0.2625    0.0000 C    0  0  0  0  0  0  0  0  0  0  0  0
    6.0500   -2.7417    0.0000 O    0  0  0  0  0  0  0  0  0  0  0  0
    6.0417   -4.3792    0.0000 O    0  0  0  0  0  0  0  0  0  0  0  0
    1.7667    0.5708    0.0000 C    0  0  0  0  0  0  0  0  0  0  0  0
    4.6292   -5.2000    0.0000 C    0  0  0  0  0  0  0  0  0  0  0  0
   -0.3708   -0.6750    0.0000 Br   0  0  0  0  0  0  0  0  0  0  0  0
    6.0417   -5.2042    0.0000 C    0  0  0  0  0  0  0  0  0  0  0  0
    1.0542    0.9750    0.0000 C    0  0  0  0  0  0  0  0  0  0  0  0
    0.3417    0.5708    0.0000 C    0  0  0  0  0  0  0  0  0  0  0  0
    6.0542   -1.9250    0.0000 C    0  0  0  0  0  0  0  0  0  0  0  0
  2  3  1  0  0  0  0
  2  6  1  0  0  0  0
  3  1  1  0  0  0  0
  4  1  1  0  0  0  0
  5  4  1  0  0  0  0
  6  5  1  0  0  0  0
  7  1  1  0  0  0  0
  8  2  2  0  0  0  0
  9  8  1  0  0  0  0
 10 18  1  0  0  0  0
 10 11  2  0  0  0  0
 11 12  1  0  0  0  0
 12 19  2  0  0  0  0
 13  7  1  0  0  0  0
 14 29  1  0  0  0  0
 15  4  2  0  0  0  0
 16 14  3  0  0  0  0
 17  3  2  0  0  0  0
 18  9  2  0  0  0  0
 19  9  1  0  0  0  0
 20  6  2  0  0  0  0
 21 27  1  0  0  0  0
 22 21  2  0  0  0  0
 23 13  2  0  0  0  0
 23 31  1  0  0  0  0
 24 10  1  0  0  0  0
 25 11  1  0  0  0  0
 26  7  2  0  0  0  0
 27 12  1  0  0  0  0
 28 23  1  0  0  0  0
 29 25  1  0  0  0  0
 30 26  1  0  0  0  0
 31 30  2  0  0  0  0
 32 24  1  0  0  0  0
M  END
> <CdId>
736

> <Mol Weight>
495.322

> <Formula>
C24H19BrN2O5

> <Click_ID>
CLK010_F11 __ __ 

$$$$
