CLK025_H08
 OpenBabel03181419432D

 31 32  0  0  0  0  0  0  0  0999 V2000
   -0.7047    2.8943    0.0000 N   0  0  0  0  0  0  0  0  0  0  0  0
   -0.7047    3.7160    0.0000 C   0  0  0  0  0  0  0  0  0  0  0  0
    0.0068    1.6500    0.0000 C   0  0  0  0  0  0  0  0  0  0  0  0
    0.0068    2.4818    0.0000 C   0  0  3  0  0  0  0  0  0  0  0  0
    0.7184   -4.5478    0.0000 C   0  0  0  0  0  0  0  0  0  0  0  0
    0.7184   -5.3728    0.0000 C   0  0  0  0  0  0  0  0  0  0  0  0
    0.7184    0.4090    0.0000 N   0  0  0  0  0  0  0  0  0  0  0  0
    2.1450   -2.0660    0.0000 C   0  0  0  0  0  0  0  0  0  0  0  0
   -1.4231    4.1285    0.0000 C   0  0  0  0  0  0  0  0  0  0  0  0
    0.7184    1.2375    0.0000 N   0  0  0  0  0  0  0  0  0  0  0  0
    0.0068    4.1285    0.0000 O   0  0  0  0  0  0  0  0  0  0  0  0
   -0.7081    1.2443    0.0000 O   0  0  0  0  0  0  0  0  0  0  0  0
    1.4300   -2.4785    0.0000 C   0  0  0  0  0  0  0  0  0  0  0  0
    2.1450   -1.2410    0.0000 C   0  0  0  0  0  0  0  0  0  0  0  0
   -1.4231    4.9568    0.0000 C   0  0  0  0  0  0  0  0  0  0  0  0
   -2.1347    3.7160    0.0000 C   0  0  0  0  0  0  0  0  0  0  0  0
    0.7184   -2.0660    0.0000 C   0  0  0  0  0  0  0  0  0  0  0  0
    1.4300   -0.0035    0.0000 C   0  0  0  0  0  0  0  0  0  0  0  0
    1.4300   -0.8285    0.0000 C   0  0  0  0  0  0  0  0  0  0  0  0
    0.7184    2.8943    0.0000 C   0  0  0  0  0  0  0  0  0  0  0  0
    0.7184   -1.2410    0.0000 C   0  0  0  0  0  0  0  0  0  0  0  0
    2.8566   -2.4785    0.0000 O   0  0  0  0  0  0  0  0  0  0  0  0
   -2.8531    4.1285    0.0000 C   0  0  0  0  0  0  0  0  0  0  0  0
   -2.1347    5.3590    0.0000 C   0  0  0  0  0  0  0  0  0  0  0  0
   -2.8531    4.9568    0.0000 C   0  0  0  0  0  0  0  0  0  0  0  0
    1.4300   -3.3035    0.0000 O   0  0  0  0  0  0  0  0  0  0  0  0
    0.7184   -3.7160    0.0000 C   0  0  0  0  0  0  0  0  0  0  0  0
    1.4300    2.4818    0.0000 C   0  0  0  0  0  0  0  0  0  0  0  0
    0.7184    3.7160    0.0000 C   0  0  0  0  0  0  0  0  0  0  0  0
   -3.5716    5.3728    0.0000 C   0  0  0  0  0  0  0  0  0  0  0  0
    3.5681   -2.0660    0.0000 C   0  0  0  0  0  0  0  0  0  0  0  0
  2  1  1  0  0  0  0
  3  4  1  0  0  0  0
  4  1  1  0  0  0  0
  5 27  1  0  0  0  0
  6  5  3  0  0  0  0
  7 10  1  0  0  0  0
  8 14  1  0  0  0  0
  8 13  2  0  0  0  0
  9  2  1  0  0  0  0
 10  3  1  0  0  0  0
 11  2  2  0  0  0  0
 12  3  2  0  0  0  0
 13 17  1  0  0  0  0
 14 19  2  0  0  0  0
 15  9  2  0  0  0  0
 16  9  1  0  0  0  0
 17 21  2  0  0  0  0
 18  7  2  0  0  0  0
 19 18  1  0  0  0  0
 20  4  1  0  0  0  0
 21 19  1  0  0  0  0
 22  8  1  0  0  0  0
 23 16  2  0  0  0  0
 24 15  1  0  0  0  0
 24 25  2  0  0  0  0
 25 23  1  0  0  0  0
 26 13  1  0  0  0  0
 27 26  1  0  0  0  0
 28 20  1  0  0  0  0
 29 20  1  0  0  0  0
 30 25  1  0  0  0  0
 31 22  1  0  0  0  0
M  END
> <CdId>
1933

> <Mol Weight>
421.4889

> <Formula>
C24H27N3O4

> <Click_ID>
CLK025_H08 __ __ 

$$$$
