CLK002_C06
 OpenBabel03181419432D

 27 29  0  0  0  0  0  0  0  0999 V2000
   -1.4820   -0.3070    0.0000 N   0  0  0  0  0  0  0  0  0  0  0  0
   -2.1945   -0.7163    0.0000 C   0  0  0  0  0  0  0  0  0  0  0  0
   -0.7657   -0.7163    0.0000 C   0  0  0  0  0  0  0  0  0  0  0  0
   -1.4820    0.5192    0.0000 C   0  0  0  0  0  0  0  0  0  0  0  0
   -2.1945   -1.5425    0.0000 C   0  0  0  0  0  0  0  0  0  0  0  0
   -2.9108   -0.3070    0.0000 C   0  0  0  0  0  0  0  0  0  0  0  0
   -0.0531   -0.3070    0.0000 C   0  0  0  0  0  0  0  0  0  0  0  0
   -0.7657   -1.5425    0.0000 O   0  0  0  0  0  0  0  0  0  0  0  0
   -0.7657    0.9324    0.0000 N   0  0  0  0  0  0  0  0  0  0  0  0
   -2.1945    0.9324    0.0000 O   0  0  0  0  0  0  0  0  0  0  0  0
   -2.9108   -1.9557    0.0000 C   0  0  0  0  0  0  0  0  0  0  0  0
   -3.6234   -0.7163    0.0000 C   0  0  0  0  0  0  0  0  0  0  0  0
    0.6632   -0.7163    0.0000 C   0  0  0  0  0  0  0  0  0  0  0  0
   -0.0531    0.5192    0.0000 C   0  0  0  0  0  0  0  0  0  0  0  0
   -3.6234   -1.5425    0.0000 C   0  0  0  0  0  0  0  0  0  0  0  0
    1.3758   -0.3070    0.0000 C   0  0  0  0  0  0  0  0  0  0  0  0
    0.6632    0.9324    0.0000 O   0  0  0  0  0  0  0  0  0  0  0  0
   -4.3397   -1.9557    0.0000 O   0  0  0  0  0  0  0  0  0  0  0  0
    1.3758    0.5192    0.0000 C   0  0  0  0  0  0  0  0  0  0  0  0
    2.0921   -0.7163    0.0000 C   0  0  0  0  0  0  0  0  0  0  0  0
    2.0921    0.9324    0.0000 C   0  0  0  0  0  0  0  0  0  0  0  0
    2.8046   -0.3070    0.0000 C   0  0  0  0  0  0  0  0  0  0  0  0
    2.8046    0.5192    0.0000 C   0  0  0  0  0  0  0  0  0  0  0  0
    3.5209    0.9324    0.0000 O   0  0  0  0  0  0  0  0  0  0  0  0
    3.5209    1.7549    0.0000 C   0  0  0  0  0  0  0  0  0  0  0  0
    4.2335    2.1679    0.0000 C   0  0  0  0  0  0  0  0  0  0  0  0
    4.2335    2.9904    0.0000 C   0  0  0  0  0  0  0  0  0  0  0  0
  1  2  1  0  0  0  0
  1  3  1  0  0  0  0
  1  4  1  0  0  0  0
  2  5  2  0  0  0  0
  2  6  1  0  0  0  0
  3  7  1  0  0  0  0
  3  8  2  0  0  0  0
  4  9  1  0  0  0  0
  4 10  2  0  0  0  0
  5 11  1  0  0  0  0
  6 12  2  0  0  0  0
  7 13  2  0  0  0  0
  7 14  1  0  0  0  0
  9 14  1  0  0  0  0
 11 15  2  0  0  0  0
 12 15  1  0  0  0  0
 13 16  1  0  0  0  0
 14 17  2  0  0  0  0
 15 18  1  0  0  0  0
 16 19  2  0  0  0  0
 16 20  1  0  0  0  0
 19 21  1  0  0  0  0
 20 22  2  0  0  0  0
 21 23  2  0  0  0  0
 22 23  1  0  0  0  0
 23 24  1  0  0  0  0
 24 25  1  0  0  0  0
 25 26  1  0  0  0  0
 26 27  3  0  0  0  0
M  END
> <CdId>
105

> <Mol Weight>
362.3356

> <Formula>
C20H14N2O5

> <Click_ID>
CLK002_C06 __ __ 

$$$$
