CLK044C10
 OpenBabel03181419432D

 27 29  0  0  0  0  0  0  0  0999 V2000
   -1.5500   -0.3958    0.0000 C   0  0  0  0  0  0  0  0  0  0  0  0
   -2.0333    0.2750    0.0000 N   0  0  0  0  0  0  0  0  0  0  0  0
   -2.0333   -1.0625    0.0000 N   0  0  0  0  0  0  0  0  0  0  0  0
   -0.7250   -0.3958    0.0000 C   0  0  0  0  0  0  0  0  0  0  0  0
   -2.8167   -0.8083    0.0000 C   0  0  0  0  0  0  0  0  0  0  0  0
   -2.8167    0.0167    0.0000 C   0  0  0  0  0  0  0  0  0  0  0  0
   -0.3125    0.3208    0.0000 C   0  0  0  0  0  0  0  0  0  0  0  0
   -0.3125   -1.1083    0.0000 C   0  0  0  0  0  0  0  0  0  0  0  0
    0.1000   -1.8250    0.0000 N   0  0  0  0  0  0  0  0  0  0  0  0
    4.2250   -0.3958    0.0000 C   0  0  0  0  0  0  0  0  0  0  0  0
    5.0500   -0.3958    0.0000 C   0  0  0  0  0  0  0  0  0  0  0  0
    1.7500    1.0333    0.0000 C   0  0  0  0  0  0  0  0  0  0  0  0
    0.5125    0.3208    0.0000 C   0  0  0  0  0  0  0  0  0  0  0  0
    0.9250    1.0333    0.0000 C   0  0  0  0  0  0  0  0  0  0  0  0
    2.1625    0.3208    0.0000 C   0  0  0  0  0  0  0  0  0  0  0  0
    1.7500   -0.3958    0.0000 C   0  0  0  0  0  0  0  0  0  0  0  0
   -1.7792   -1.8458    0.0000 C   0  0  0  0  0  0  0  0  0  0  0  0
    0.9250   -0.3958    0.0000 C   0  0  0  0  0  0  0  0  0  0  0  0
    2.1625    1.7500    0.0000 O   0  0  0  0  0  0  0  0  0  0  0  0
    2.9875    0.3208    0.0000 O   0  0  0  0  0  0  0  0  0  0  0  0
    3.4000   -0.3958    0.0000 C   0  0  0  0  0  0  0  0  0  0  0  0
   -3.5333   -1.2208    0.0000 C   0  0  0  0  0  0  0  0  0  0  0  0
   -3.5333    0.4292    0.0000 C   0  0  0  0  0  0  0  0  0  0  0  0
    1.7500    2.4625    0.0000 C   0  0  0  0  0  0  0  0  0  0  0  0
   -4.2458   -0.8083    0.0000 C   0  0  0  0  0  0  0  0  0  0  0  0
   -4.2458    0.0167    0.0000 C   0  0  0  0  0  0  0  0  0  0  0  0
    2.1625    3.1792    0.0000 C   0  0  0  0  0  0  0  0  0  0  0  0
  2  1  2  0  0  0  0
  3  1  1  0  0  0  0
  4  1  1  0  0  0  0
  5  3  1  0  0  0  0
  5  6  2  0  0  0  0
  6  2  1  0  0  0  0
  7  4  2  0  0  0  0
  8  4  1  0  0  0  0
  9  8  3  0  0  0  0
 10 21  1  0  0  0  0
 11 10  3  0  0  0  0
 12 14  1  0  0  0  0
 13  7  1  0  0  0  0
 14 13  2  0  0  0  0
 15 16  1  0  0  0  0
 15 12  2  0  0  0  0
 16 18  2  0  0  0  0
 17  3  1  0  0  0  0
 18 13  1  0  0  0  0
 19 12  1  0  0  0  0
 20 15  1  0  0  0  0
 21 20  1  0  0  0  0
 22  5  1  0  0  0  0
 23  6  1  0  0  0  0
 24 19  1  0  0  0  0
 25 22  2  0  0  0  0
 25 26  1  0  0  0  0
 26 23  2  0  0  0  0
 27 24  1  0  0  0  0
M  END
> <CdId>
3395

> <Mol Weight>
357.4052

> <Formula>
C22H19N3O2

> <Click_ID>
CLK044C10 __ __ 

$$$$
