CLK009_E10
 OpenBabel03181419432D

 20 21  0  0  0  0  0  0  0  0999 V2000
    4.4046   -1.2611    0.0000 N   0  0  0  0  0  0  0  0  0  0  0  0
    4.4823   -2.0835    0.0000 C   0  0  0  0  0  0  0  0  0  0  0  0
    5.7068   -1.5672    0.0000 C   0  0  0  0  0  0  0  0  0  0  0  0
    5.1722   -0.9367    0.0000 C   0  0  0  0  0  0  0  0  0  0  0  0
    5.2819   -2.2663    0.0000 S   0  0  0  0  0  0  0  0  0  0  0  0
    6.5246   -1.4987    0.0000 C   0  0  0  0  0  0  0  0  0  0  0  0
    6.9953   -2.1703    0.0000 C   0  0  0  0  0  0  0  0  0  0  0  0
    8.2838   -2.7826    0.0000 C   0  0  0  0  0  0  0  0  0  0  0  0
    7.8177   -2.1018    0.0000 C   0  0  0  0  0  0  0  0  0  0  0  0
    7.9365   -3.5274    0.0000 C   0  0  0  0  0  0  0  0  0  0  0  0
    9.4489   -1.9738    0.0000 C   0  0  0  0  0  0  0  0  0  0  0  0
    9.9240   -2.6364    0.0000 C   0  0  0  0  0  0  0  0  0  0  0  0
    3.8563   -2.6090    0.0000 N   0  0  0  0  0  0  0  0  0  0  0  0
    6.6389   -2.9105    0.0000 C   0  0  0  0  0  0  0  0  0  0  0  0
    7.1140   -3.5959    0.0000 C   0  0  0  0  0  0  0  0  0  0  0  0
    5.3595   -0.1417    0.0000 O   0  0  0  0  0  0  0  0  0  0  0  0
    9.1062   -2.7049    0.0000 I   0  0  0  0  0  0  0  0  0  0  0  0
    8.1695   -1.3570    0.0000 O   0  0  0  0  0  0  0  0  0  0  0  0
    6.7486   -4.3361    0.0000 I   0  0  0  0  0  0  0  0  0  0  0  0
    8.9782   -1.2931    0.0000 C   0  0  0  0  0  0  0  0  0  0  0  0
  2  1  1  0  0  0  0
  3  4  1  0  0  0  0
  3  5  1  0  0  0  0
  4  1  1  0  0  0  0
  5  2  1  0  0  0  0
  6  3  2  0  0  0  0
  7  6  1  0  0  0  0
  8  9  2  0  0  0  0
  8 10  1  0  0  0  0
  9  7  1  0  0  0  0
 10 15  2  0  0  0  0
 11 20  1  0  0  0  0
 12 11  3  0  0  0  0
 13  2  2  0  0  0  0
 14  7  2  0  0  0  0
 15 14  1  0  0  0  0
 16  4  2  0  0  0  0
 17  8  1  0  0  0  0
 18  9  1  0  0  0  0
 19 15  1  0  0  0  0
 20 18  1  0  0  0  0
M  END
> <CdId>
645

> <Mol Weight>
510.089

> <Formula>
C13H8I2N2O2S

> <Click_ID>
CLK009_E10 __ __ 

$$$$
