CLK042B06
 OpenBabel03181419432D

 33 35  0  0  0  0  0  0  0  0999 V2000
   -1.7958    0.0250    0.0000 C   0  0  0  0  0  0  0  0  0  0  0  0
   -1.7958   -0.8000    0.0000 C   0  0  0  0  0  0  0  0  0  0  0  0
   -2.5125    0.4375    0.0000 N   0  0  0  0  0  0  0  0  0  0  0  0
   -1.0125    0.2792    0.0000 N   0  0  0  0  0  0  0  0  0  0  0  0
   -3.2250    0.0250    0.0000 C   0  0  0  0  0  0  0  0  0  0  0  0
   -3.2250   -0.8000    0.0000 N   0  0  0  0  0  0  0  0  0  0  0  0
   -2.5125   -1.2125    0.0000 C   0  0  0  0  0  0  0  0  0  0  0  0
   -1.0125   -1.0542    0.0000 N   0  0  0  0  0  0  0  0  0  0  0  0
   -0.5292   -0.3875    0.0000 C   0  0  0  0  0  0  0  0  0  0  0  0
    4.4208    2.4708    0.0000 C   0  0  0  0  0  0  0  0  0  0  0  0
    4.8333    3.1833    0.0000 C   0  0  0  0  0  0  0  0  0  0  0  0
    1.5333    0.3250    0.0000 C   0  0  0  0  0  0  0  0  0  0  0  0
   -3.9417    0.4375    0.0000 O   0  0  0  0  0  0  0  0  0  0  0  0
   -2.5125   -2.0375    0.0000 O   0  0  0  0  0  0  0  0  0  0  0  0
    1.9458    1.0417    0.0000 N   0  0  0  0  0  0  0  0  0  0  0  0
    0.2958   -0.3875    0.0000 C   0  0  0  0  0  0  0  0  0  0  0  0
    2.7708    1.0417    0.0000 C   0  0  0  0  0  0  0  0  0  0  0  0
    1.9458   -0.3875    0.0000 O   0  0  0  0  0  0  0  0  0  0  0  0
   -2.5125    1.2625    0.0000 C   0  0  0  0  0  0  0  0  0  0  0  0
    4.0083    1.7542    0.0000 C   0  0  0  0  0  0  0  0  0  0  0  0
    0.7083    0.3250    0.0000 C   0  0  0  0  0  0  0  0  0  0  0  0
   -0.7583   -1.8417    0.0000 C   0  0  0  0  0  0  0  0  0  0  0  0
    3.1833    1.7542    0.0000 C   0  0  0  0  0  0  0  0  0  0  0  0
    4.0083    0.3250    0.0000 C   0  0  0  0  0  0  0  0  0  0  0  0
    3.1833    0.3250    0.0000 C   0  0  0  0  0  0  0  0  0  0  0  0
    4.4208    1.0417    0.0000 C   0  0  0  0  0  0  0  0  0  0  0  0
   -1.7958    1.6750    0.0000 C   0  0  0  0  0  0  0  0  0  0  0  0
   -1.3083   -2.4542    0.0000 C   0  0  0  0  0  0  0  0  0  0  0  0
   -1.6083   -3.8500    0.0000 C   0  0  0  0  0  0  0  0  0  0  0  0
   -1.7958    2.5000    0.0000 C   0  0  0  0  0  0  0  0  0  0  0  0
   -1.0542   -3.2375    0.0000 C   0  0  0  0  0  0  0  0  0  0  0  0
   -1.3500   -4.6333    0.0000 C   0  0  0  0  0  0  0  0  0  0  0  0
   -1.0833    2.9125    0.0000 C   0  0  0  0  0  0  0  0  0  0  0  0
  2  1  2  0  0  0  0
  3  1  1  0  0  0  0
  4  1  1  0  0  0  0
  5  3  1  0  0  0  0
  6  7  1  0  0  0  0
  6  5  1  0  0  0  0
  7  2  1  0  0  0  0
  8  2  1  0  0  0  0
  9  4  2  0  0  0  0
  9  8  1  0  0  0  0
 10 20  1  0  0  0  0
 11 10  3  0  0  0  0
 12 21  1  0  0  0  0
 13  5  2  0  0  0  0
 14  7  2  0  0  0  0
 15 12  1  0  0  0  0
 16  9  1  0  0  0  0
 17 15  1  0  0  0  0
 18 12  2  0  0  0  0
 19  3  1  0  0  0  0
 20 23  1  0  0  0  0
 21 16  1  0  0  0  0
 22  8  1  0  0  0  0
 23 17  2  0  0  0  0
 24 25  2  0  0  0  0
 25 17  1  0  0  0  0
 26 20  2  0  0  0  0
 26 24  1  0  0  0  0
 27 19  1  0  0  0  0
 28 22  1  0  0  0  0
 29 31  1  0  0  0  0
 30 27  1  0  0  0  0
 31 28  1  0  0  0  0
 32 29  1  0  0  0  0
 33 30  1  0  0  0  0
M  END
> <CdId>
3202

> <Mol Weight>
449.5453

> <Formula>
C25H31N5O3

> <Click_ID>
CLK042B06 __ __ 

$$$$
