CLK046C10
 OpenBabel03181419432D

 25 27  0  0  0  0  0  0  0  0999 V2000
   -0.5083    1.4167    0.0000 C   0  0  0  0  0  0  0  0  0  0  0  0
   -0.5083    0.5917    0.0000 N   0  0  0  0  0  0  0  0  0  0  0  0
   -1.2917    1.6708    0.0000 N   0  0  0  0  0  0  0  0  0  0  0  0
    0.2750    0.3375    0.0000 C   0  0  0  0  0  0  0  0  0  0  0  0
   -1.2917    0.3375    0.0000 C   0  0  0  0  0  0  0  0  0  0  0  0
   -1.7792    1.0042    0.0000 C   0  0  0  0  0  0  0  0  0  0  0  0
    0.2750    1.6708    0.0000 S   0  0  0  0  0  0  0  0  0  0  0  0
    0.5333   -0.4458    0.0000 C   0  0  0  0  0  0  0  0  0  0  0  0
    0.7625    1.0042    0.0000 C   0  0  0  0  0  0  0  0  0  0  0  0
    1.3375   -0.6208    0.0000 C   0  0  0  0  0  0  0  0  0  0  0  0
    3.2083   -1.7458    0.0000 C   0  0  0  0  0  0  0  0  0  0  0  0
    4.0125   -1.9167    0.0000 C   0  0  0  0  0  0  0  0  0  0  0  0
    1.5917   -1.4042    0.0000 N   0  0  0  0  0  0  0  0  0  0  0  0
    2.4000   -1.5750    0.0000 C   0  0  0  0  0  0  0  0  0  0  0  0
   -2.6042    1.0042    0.0000 C   0  0  0  0  0  0  0  0  0  0  0  0
    1.8917   -0.0042    0.0000 O   0  0  0  0  0  0  0  0  0  0  0  0
    2.2292   -2.3833    0.0000 C   0  0  0  0  0  0  0  0  0  0  0  0
    2.5708   -0.7667    0.0000 C   0  0  0  0  0  0  0  0  0  0  0  0
   -3.0167    1.7208    0.0000 C   0  0  0  0  0  0  0  0  0  0  0  0
   -3.0167    0.2917    0.0000 C   0  0  0  0  0  0  0  0  0  0  0  0
    1.4458   -2.6375    0.0000 C   0  0  0  0  0  0  0  0  0  0  0  0
    3.3583   -0.5125    0.0000 C   0  0  0  0  0  0  0  0  0  0  0  0
   -3.8417    0.2917    0.0000 C   0  0  0  0  0  0  0  0  0  0  0  0
   -3.8417    1.7208    0.0000 C   0  0  0  0  0  0  0  0  0  0  0  0
   -4.2542    1.0042    0.0000 C   0  0  0  0  0  0  0  0  0  0  0  0
  2  1  1  0  0  0  0
  3  1  2  0  0  0  0
  4  2  1  0  0  0  0
  5  2  1  0  0  0  0
  5  6  2  0  0  0  0
  6  3  1  0  0  0  0
  7  1  1  0  0  0  0
  8  4  1  0  0  0  0
  9  7  1  0  0  0  0
  9  4  2  0  0  0  0
 10  8  1  0  0  0  0
 11 14  1  0  0  0  0
 12 11  3  0  0  0  0
 13 10  1  0  0  0  0
 14 13  1  0  0  0  0
 15  6  1  0  0  0  0
 16 10  2  0  0  0  0
 17 14  1  0  0  0  0
 18 14  1  0  0  0  0
 19 15  1  0  0  0  0
 20 15  2  0  0  0  0
 21 17  1  0  0  0  0
 22 18  1  0  0  0  0
 23 20  1  0  0  0  0
 24 19  2  0  0  0  0
 25 23  2  0  0  0  0
 25 24  1  0  0  0  0
M  END
> <CdId>
3555

> <Mol Weight>
351.465

> <Formula>
C20H21N3OS

> <Click_ID>
CLK046C10 __ __ 

$$$$
