CLK021_G05
 OpenBabel03181419432D

 25 26  0  0  0  0  0  0  0  0999 V2000
    5.1717    3.9441    0.0000 C   0  0  0  0  0  0  0  0  0  0  0  0
    4.4571    4.3563    0.0000 C   0  0  0  0  0  0  0  0  0  0  0  0
    5.8864    4.3563    0.0000 C   0  0  0  0  0  0  0  0  0  0  0  0
    6.6010    4.7595    0.0000 N   0  0  0  0  0  0  0  0  0  0  0  0
    5.1717    0.6459    0.0000 C   0  0  0  0  0  0  0  0  0  0  0  0
    0.8933    1.4704    0.0000 C   0  0  0  0  0  0  0  0  0  0  0  0
    0.1787    1.0582    0.0000 C   0  0  0  0  0  0  0  0  0  0  0  0
    2.3133    3.9441    0.0000 C   0  0  0  0  0  0  0  0  0  0  0  0
    5.1717    3.1195    0.0000 C   0  0  0  0  0  0  0  0  0  0  0  0
    5.1717    1.4704    0.0000 C   0  0  0  0  0  0  0  0  0  0  0  0
    3.7425    3.9441    0.0000 C   0  0  0  0  0  0  0  0  0  0  0  0
    3.0279    4.3563    0.0000 C   0  0  0  0  0  0  0  0  0  0  0  0
    2.3133    3.1195    0.0000 C   0  0  0  0  0  0  0  0  0  0  0  0
    4.4571    0.2336    0.0000 O   0  0  0  0  0  0  0  0  0  0  0  0
    5.8864    2.7072    0.0000 C   0  0  0  0  0  0  0  0  0  0  0  0
    4.4571    2.7072    0.0000 C   0  0  0  0  0  0  0  0  0  0  0  0
    5.8864    1.8827    0.0000 C   0  0  0  0  0  0  0  0  0  0  0  0
    4.4571    1.8827    0.0000 C   0  0  0  0  0  0  0  0  0  0  0  0
    3.0279    2.7072    0.0000 C   0  0  0  0  0  0  0  0  0  0  0  0
    5.8864    0.2336    0.0000 O   0  0  0  0  0  0  0  0  0  0  0  0
    3.7425    3.1195    0.0000 C   0  0  0  0  0  0  0  0  0  0  0  0
    1.5987    4.3563    0.0000 O   0  0  0  0  0  0  0  0  0  0  0  0
    1.5987    2.7072    0.0000 O   0  0  0  0  0  0  0  0  0  0  0  0
    1.5987    1.8827    0.0000 C   0  0  0  0  0  0  0  0  0  0  0  0
    1.5987    5.1717    0.0000 C   0  0  0  0  0  0  0  0  0  0  0  0
  2  1  2  0  0  0  0
  3  1  1  0  0  0  0
  4  3  3  0  0  0  0
  5 10  1  0  0  0  0
  6 24  1  0  0  0  0
  7  6  3  0  0  0  0
  8 12  1  0  0  0  0
  8 13  2  0  0  0  0
  9  1  1  0  0  0  0
 10 18  1  0  0  0  0
 10 17  2  0  0  0  0
 11  2  1  0  0  0  0
 12 11  2  0  0  0  0
 13 19  1  0  0  0  0
 14  5  2  0  0  0  0
 15  9  2  0  0  0  0
 16  9  1  0  0  0  0
 17 15  1  0  0  0  0
 18 16  2  0  0  0  0
 19 21  2  0  0  0  0
 20  5  1  0  0  0  0
 21 11  1  0  0  0  0
 22  8  1  0  0  0  0
 23 13  1  0  0  0  0
 24 23  1  0  0  0  0
 25 22  1  0  0  0  0
M  END
> <CdId>
1620

> <Mol Weight>
333.3374

> <Formula>
C20H15NO4

> <Click_ID>
CLK021_G05 __ __ 

$$$$
