CLK001_A11
 OpenBabel03181419432D

 17 19  0  0  0  0  0  0  0  0999 V2000
    0.4055    0.6821    0.0000 C   0  0  0  0  0  0  0  0  0  0  0  0
   -0.3789    0.4283    0.0000 C   0  0  0  0  0  0  0  0  0  0  0  0
    0.8944    0.0152    0.0000 C   0  0  0  0  0  0  0  0  0  0  0  0
    1.1900    0.9019    0.0000 O   0  0  0  0  0  0  0  0  0  0  0  0
   -0.0455    1.3680    0.0000 O   0  0  0  0  0  0  0  0  0  0  0  0
   -0.3789   -0.3979    0.0000 C   0  0  0  0  0  0  0  0  0  0  0  0
   -1.0990    0.8451    0.0000 C   0  0  0  0  0  0  0  0  0  0  0  0
    0.4017   -0.6518    0.0000 N   0  0  0  0  0  0  0  0  0  0  0  0
    1.7205    0.0152    0.0000 O   0  0  0  0  0  0  0  0  0  0  0  0
    1.2354    1.7129    0.0000 C   0  0  0  0  0  0  0  0  0  0  0  0
    0.4699    2.0009    0.0000 C   0  0  0  0  0  0  0  0  0  0  0  0
   -1.0990   -0.8109    0.0000 C   0  0  0  0  0  0  0  0  0  0  0  0
   -1.8115    0.4283    0.0000 C   0  0  0  0  0  0  0  0  0  0  0  0
    0.6557   -1.4363    0.0000 C   0  0  0  0  0  0  0  0  0  0  0  0
   -1.8115   -0.3979    0.0000 C   0  0  0  0  0  0  0  0  0  0  0  0
    0.1023   -2.0464    0.0000 C   0  0  0  0  0  0  0  0  0  0  0  0
   -0.4472   -2.6603    0.0000 C   0  0  0  0  0  0  0  0  0  0  0  0
  1  2  1  0  0  0  0
  1  3  1  0  0  0  0
  1  4  1  0  0  0  0
  1  5  1  0  0  0  0
  2  6  2  0  0  0  0
  2  7  1  0  0  0  0
  3  8  1  0  0  0  0
  3  9  2  0  0  0  0
  4 10  1  0  0  0  0
  5 11  1  0  0  0  0
  6 12  1  0  0  0  0
  6  8  1  0  0  0  0
  7 13  2  0  0  0  0
  8 14  1  0  0  0  0
 10 11  1  0  0  0  0
 12 15  2  0  0  0  0
 13 15  1  0  0  0  0
 14 16  1  0  0  0  0
 16 17  3  0  0  0  0
M  END
> <CdId>
10

> <Mol Weight>
229.2313

> <Formula>
C13H11NO3

> <Click_ID>
CLK001_A11 __ __ 

$$$$
