CLK046G04
 OpenBabel03181419432D

 24 24  0  0  0  0  0  0  0  0999 V2000
   -1.3125    2.0625    0.0000 S   0  0  0  0  0  0  0  0  0  0  0  0
    0.1167   -0.4125    0.0000 C   0  0  0  0  0  0  0  0  0  0  0  0
   -0.5958    1.6500    0.0000 C   0  0  0  0  0  0  0  0  0  0  0  0
    0.8333   -0.8250    0.0000 N   0  0  0  0  0  0  0  0  0  0  0  0
    0.1167    0.4125    0.0000 C   0  0  0  0  0  0  0  0  0  0  0  0
   -2.7417    3.7125    0.0000 C   0  0  0  0  0  0  0  0  0  0  0  0
   -0.5958    0.8250    0.0000 C   0  0  0  0  0  0  0  0  0  0  0  0
   -3.4542    4.1250    0.0000 C   0  0  0  0  0  0  0  0  0  0  0  0
   -1.7250    1.3500    0.0000 O   0  0  0  0  0  0  0  0  0  0  0  0
   -0.9000    2.7792    0.0000 O   0  0  0  0  0  0  0  0  0  0  0  0
   -2.0250    2.4750    0.0000 N   0  0  0  0  0  0  0  0  0  0  0  0
   -0.5958   -0.8250    0.0000 O   0  0  0  0  0  0  0  0  0  0  0  0
   -2.0250    3.3000    0.0000 C   0  0  0  0  0  0  0  0  0  0  0  0
    0.8333   -1.6500    0.0000 C   0  0  3  0  0  0  0  0  0  0  0  0
    0.1167    2.0625    0.0000 C   0  0  0  0  0  0  0  0  0  0  0  0
    0.8333    0.8250    0.0000 C   0  0  0  0  0  0  0  0  0  0  0  0
    1.5458   -2.8875    0.0000 C   0  0  0  0  0  0  0  0  0  0  0  0
    0.8333    1.6500    0.0000 C   0  0  0  0  0  0  0  0  0  0  0  0
    1.5458   -2.0625    0.0000 C   0  0  0  0  0  0  0  0  0  0  0  0
    2.2583   -3.3000    0.0000 C   0  0  0  0  0  0  0  0  0  0  0  0
    2.2583   -4.1250    0.0000 C   0  0  0  0  0  0  0  0  0  0  0  0
    0.1167   -2.0625    0.0000 C   0  0  0  0  0  0  0  0  0  0  0  0
    2.9750   -4.5375    0.0000 C   0  0  0  0  0  0  0  0  0  0  0  0
    1.5458   -4.5375    0.0000 C   0  0  0  0  0  0  0  0  0  0  0  0
  2  5  1  0  0  0  0
  3  1  1  0  0  0  0
  4  2  1  0  0  0  0
  5  7  2  0  0  0  0
  6 13  1  0  0  0  0
  7  3  1  0  0  0  0
  8  6  3  0  0  0  0
  9  1  2  0  0  0  0
 10  1  2  0  0  0  0
 11  1  1  0  0  0  0
 12  2  2  0  0  0  0
 13 11  1  0  0  0  0
 14  4  1  0  0  0  0
 15  3  2  0  0  0  0
 16  5  1  0  0  0  0
 17 19  1  0  0  0  0
 18 15  1  0  0  0  0
 18 16  2  0  0  0  0
 19 14  1  0  0  0  0
 20 17  1  0  0  0  0
 21 20  1  0  0  0  0
 22 14  1  0  0  0  0
 23 21  1  0  0  0  0
 24 21  1  0  0  0  0
M  END
> <CdId>
3511

> <Mol Weight>
350.476

> <Formula>
C18H26N2O3S

> <Click_ID>
CLK046G04 __ __ 

$$$$
