CLK040D09
 OpenBabel03181419432D

 23 25  0  0  0  0  0  0  0  0999 V2000
    0.1750    0.5000    0.0000 N   0  0  0  0  0  0  0  0  0  0  0  0
    0.1750    1.3250    0.0000 C   0  0  0  0  0  0  0  0  0  0  0  0
   -0.5375    0.0875    0.0000 C   0  0  0  0  0  0  0  0  0  0  0  0
   -0.5375    1.7375    0.0000 N   0  0  0  0  0  0  0  0  0  0  0  0
   -1.2542    0.5000    0.0000 C   0  0  0  0  0  0  0  0  0  0  0  0
    0.8917    1.7375    0.0000 C   0  0  0  0  0  0  0  0  0  0  0  0
   -1.2542    1.3250    0.0000 C   0  0  0  0  0  0  0  0  0  0  0  0
   -0.5375   -0.7375    0.0000 S   0  0  0  0  0  0  0  0  0  0  0  0
    0.9792    2.5583    0.0000 S   0  0  0  0  0  0  0  0  0  0  0  0
    1.6042   -3.6250    0.0000 C   0  0  0  0  0  0  0  0  0  0  0  0
    2.3208   -4.0375    0.0000 C   0  0  0  0  0  0  0  0  0  0  0  0
    0.1750   -1.9750    0.0000 C   0  0  0  0  0  0  0  0  0  0  0  0
    1.6458    1.4000    0.0000 C   0  0  0  0  0  0  0  0  0  0  0  0
    1.7833    2.7292    0.0000 C   0  0  0  0  0  0  0  0  0  0  0  0
    2.1958    2.0167    0.0000 C   0  0  0  0  0  0  0  0  0  0  0  0
   -0.5375   -2.3875    0.0000 O   0  0  0  0  0  0  0  0  0  0  0  0
    0.1750   -1.1500    0.0000 C   0  0  0  0  0  0  0  0  0  0  0  0
    0.8917   -2.3875    0.0000 N   0  0  0  0  0  0  0  0  0  0  0  0
    0.8917   -3.2125    0.0000 C   0  0  0  0  0  0  0  0  0  0  0  0
   -1.9667    0.0875    0.0000 C   0  0  0  0  0  0  0  0  0  0  0  0
   -1.9667    1.7375    0.0000 C   0  0  0  0  0  0  0  0  0  0  0  0
   -2.6833    0.5000    0.0000 C   0  0  0  0  0  0  0  0  0  0  0  0
   -2.6833    1.3250    0.0000 C   0  0  0  0  0  0  0  0  0  0  0  0
  2  1  2  0  0  0  0
  3  1  1  0  0  0  0
  4  2  1  0  0  0  0
  5  3  2  0  0  0  0
  5  7  1  0  0  0  0
  6  2  1  0  0  0  0
  7  4  2  0  0  0  0
  8  3  1  0  0  0  0
  9  6  1  0  0  0  0
 10 19  1  0  0  0  0
 11 10  3  0  0  0  0
 12 17  1  0  0  0  0
 13  6  2  0  0  0  0
 14  9  1  0  0  0  0
 14 15  2  0  0  0  0
 15 13  1  0  0  0  0
 16 12  2  0  0  0  0
 17  8  1  0  0  0  0
 18 12  1  0  0  0  0
 19 18  1  0  0  0  0
 20  5  1  0  0  0  0
 21  7  1  0  0  0  0
 22 20  2  0  0  0  0
 22 23  1  0  0  0  0
 23 21  2  0  0  0  0
M  END
> <CdId>
3068

> <Mol Weight>
339.435

> <Formula>
C17H13N3OS2

> <Click_ID>
CLK040D09 __ __ 

$$$$
