CLK047B04
 OpenBabel03181419432D

 27 29  0  0  0  0  0  0  0  0999 V2000
   -1.0667   -0.5083    0.0000 C   0  0  0  0  0  0  0  0  0  0  0  0
    0.3625   -0.5083    0.0000 N   0  0  0  0  0  0  0  0  0  0  0  0
   -1.0667    0.3167    0.0000 C   0  0  0  0  0  0  0  0  0  0  0  0
   -0.3542   -0.9208    0.0000 C   0  0  0  0  0  0  0  0  0  0  0  0
   -0.3542    0.7292    0.0000 N   0  0  0  0  0  0  0  0  0  0  0  0
    0.3625    0.3167    0.0000 C   0  0  0  0  0  0  0  0  0  0  0  0
   -1.8500   -0.7625    0.0000 C   0  0  0  0  0  0  0  0  0  0  0  0
   -1.8500    0.5750    0.0000 S   0  0  0  0  0  0  0  0  0  0  0  0
   -2.3375   -0.0958    0.0000 C   0  0  0  0  0  0  0  0  0  0  0  0
   -2.1083   -1.5458    0.0000 C   0  0  0  0  0  0  0  0  0  0  0  0
    1.0750    0.7292    0.0000 S   0  0  0  0  0  0  0  0  0  0  0  0
    1.0750   -0.9208    0.0000 C   0  0  0  0  0  0  0  0  0  0  0  0
   -1.6208   -2.2125    0.0000 S   0  0  0  0  0  0  0  0  0  0  0  0
    2.5042    4.0250    0.0000 C   0  0  0  0  0  0  0  0  0  0  0  0
   -0.3542   -1.7458    0.0000 O   0  0  0  0  0  0  0  0  0  0  0  0
    2.5042    4.8500    0.0000 C   0  0  0  0  0  0  0  0  0  0  0  0
    1.7917    1.9667    0.0000 C   0  0  0  0  0  0  0  0  0  0  0  0
   -2.8917   -1.8000    0.0000 C   0  0  0  0  0  0  0  0  0  0  0  0
   -2.1083   -2.8792    0.0000 C   0  0  0  0  0  0  0  0  0  0  0  0
   -2.8917   -2.6250    0.0000 C   0  0  0  0  0  0  0  0  0  0  0  0
    2.5042    1.5542    0.0000 O   0  0  0  0  0  0  0  0  0  0  0  0
    1.0750    1.5542    0.0000 C   0  0  0  0  0  0  0  0  0  0  0  0
    1.7917    2.7917    0.0000 N   0  0  0  0  0  0  0  0  0  0  0  0
    2.5042    3.2042    0.0000 C   0  0  0  0  0  0  0  0  0  0  0  0
    1.0750   -1.7458    0.0000 C   0  0  0  0  0  0  0  0  0  0  0  0
    0.3625   -2.1583    0.0000 C   0  0  0  0  0  0  0  0  0  0  0  0
    1.7917   -2.1583    0.0000 C   0  0  0  0  0  0  0  0  0  0  0  0
  2  4  1  0  0  0  0
  3  1  2  0  0  0  0
  4  1  1  0  0  0  0
  5  3  1  0  0  0  0
  5  6  2  0  0  0  0
  6  2  1  0  0  0  0
  7  1  1  0  0  0  0
  8  3  1  0  0  0  0
  9  7  2  0  0  0  0
  9  8  1  0  0  0  0
 10  7  1  0  0  0  0
 11  6  1  0  0  0  0
 12  2  1  0  0  0  0
 13 10  1  0  0  0  0
 14 24  1  0  0  0  0
 15  4  2  0  0  0  0
 16 14  3  0  0  0  0
 17 22  1  0  0  0  0
 18 10  2  0  0  0  0
 19 13  1  0  0  0  0
 19 20  2  0  0  0  0
 20 18  1  0  0  0  0
 21 17  2  0  0  0  0
 22 11  1  0  0  0  0
 23 17  1  0  0  0  0
 24 23  1  0  0  0  0
 25 12  1  0  0  0  0
 26 25  1  0  0  0  0
 27 25  1  0  0  0  0
M  END
> <CdId>
3586

> <Mol Weight>
417.568

> <Formula>
C19H19N3O2S3

> <Click_ID>
CLK047B04 __ __ 

$$$$
