CLK046G09
 OpenBabel03181419432D

 27 29  0  0  0  0  0  0  0  0999 V2000
   -0.7542    0.0875    0.0000 C   0  0  0  0  0  0  0  0  0  0  0  0
    0.0292    0.3417    0.0000 C   0  0  0  0  0  0  0  0  0  0  0  0
   -1.2417    0.7542    0.0000 N   0  0  0  0  0  0  0  0  0  0  0  0
   -0.7542    1.4250    0.0000 N   0  0  0  0  0  0  0  0  0  0  0  0
   -2.0667    0.7542    0.0000 C   0  0  0  0  0  0  0  0  0  0  0  0
   -1.0083   -0.6958    0.0000 C   0  0  0  0  0  0  0  0  0  0  0  0
    0.6958   -0.1417    0.0000 C   0  0  0  0  0  0  0  0  0  0  0  0
   -2.4792    0.0417    0.0000 N   0  0  0  0  0  0  0  0  0  0  0  0
    0.0292    1.1667    0.0000 C   0  0  0  0  0  0  0  0  0  0  0  0
   -3.3042    0.0417    0.0000 N   0  0  0  0  0  0  0  0  0  0  0  0
   -2.4792    1.4708    0.0000 C   0  0  0  0  0  0  0  0  0  0  0  0
   -3.7167    0.7542    0.0000 C   0  0  0  0  0  0  0  0  0  0  0  0
    1.4500    0.1958    0.0000 N   0  0  0  0  0  0  0  0  0  0  0  0
    4.2917   -0.1042    0.0000 C   0  0  0  0  0  0  0  0  0  0  0  0
   -3.3042    1.4708    0.0000 C   0  0  0  0  0  0  0  0  0  0  0  0
    5.0458    0.2292    0.0000 C   0  0  0  0  0  0  0  0  0  0  0  0
    0.6125   -0.9625    0.0000 O   0  0  0  0  0  0  0  0  0  0  0  0
    2.1167   -0.2917    0.0000 C   0  0  0  0  0  0  0  0  0  0  0  0
   -4.5417    0.7542    0.0000 O   0  0  0  0  0  0  0  0  0  0  0  0
   -0.2250   -0.9500    0.0000 F   0  0  0  0  0  0  0  0  0  0  0  0
   -1.7958   -0.4417    0.0000 F   0  0  0  0  0  0  0  0  0  0  0  0
   -1.2667   -1.4792    0.0000 F   0  0  0  0  0  0  0  0  0  0  0  0
    3.5375   -0.4417    0.0000 C   0  0  0  0  0  0  0  0  0  0  0  0
    2.8708    0.0458    0.0000 C   0  0  0  0  0  0  0  0  0  0  0  0
    2.7000   -1.5958    0.0000 C   0  0  0  0  0  0  0  0  0  0  0  0
    2.0333   -1.1125    0.0000 C   0  0  0  0  0  0  0  0  0  0  0  0
    3.4542   -1.2625    0.0000 C   0  0  0  0  0  0  0  0  0  0  0  0
  2  1  2  0  0  0  0
  3  1  1  0  0  0  0
  4  3  1  0  0  0  0
  4  9  2  0  0  0  0
  5  3  1  0  0  0  0
  6  1  1  0  0  0  0
  7  2  1  0  0  0  0
  8  5  2  0  0  0  0
  9  2  1  0  0  0  0
 10  8  1  0  0  0  0
 11  5  1  0  0  0  0
 12 10  1  0  0  0  0
 12 15  1  0  0  0  0
 13  7  1  0  0  0  0
 14 23  1  0  0  0  0
 15 11  2  0  0  0  0
 16 14  3  0  0  0  0
 17  7  2  0  0  0  0
 18 13  1  0  0  0  0
 19 12  2  0  0  0  0
 20  6  1  0  0  0  0
 21  6  1  0  0  0  0
 22  6  1  0  0  0  0
 23 24  1  0  0  0  0
 24 18  2  0  0  0  0
 25 26  2  0  0  0  0
 26 18  1  0  0  0  0
 27 23  2  0  0  0  0
 27 25  1  0  0  0  0
M  END
> <CdId>
3551

> <Mol Weight>
373.2888

> <Formula>
C17H10F3N5O2

> <Click_ID>
CLK046G09 __ __ 

$$$$
