CLK006_D04
 OpenBabel03181419432D

 21 23  0  0  0  0  0  0  0  0999 V2000
   -0.3365    0.2954    0.0000 C   0  0  0  0  0  0  0  0  0  0  0  0
   -0.8207   -0.3777    0.0000 N   0  0  0  0  0  0  0  0  0  0  0  0
    0.4910    0.3021    0.0000 C   0  0  0  0  0  0  0  0  0  0  0  0
   -0.8344    0.9615    0.0000 N   0  0  0  0  0  0  0  0  0  0  0  0
   -1.6104   -0.1339    0.0000 C   0  0  0  0  0  0  0  0  0  0  0  0
   -0.4086   -1.0920    0.0000 C   0  0  0  0  0  0  0  0  0  0  0  0
    0.9100   -0.4086    0.0000 C   0  0  0  0  0  0  0  0  0  0  0  0
    0.8928    1.0164    0.0000 C   0  0  0  0  0  0  0  0  0  0  0  0
   -1.6173    0.6971    0.0000 C   0  0  0  0  0  0  0  0  0  0  0  0
   -2.3281   -0.5425    0.0000 C   0  0  0  0  0  0  0  0  0  0  0  0
   -0.8207   -1.7993    0.0000 C   0  0  0  0  0  0  0  0  0  0  0  0
    1.7306   -0.3949    0.0000 C   0  0  0  0  0  0  0  0  0  0  0  0
    1.7204    1.0267    0.0000 C   0  0  0  0  0  0  0  0  0  0  0  0
   -2.3281    1.1125    0.0000 C   0  0  0  0  0  0  0  0  0  0  0  0
   -3.0389   -0.1271    0.0000 C   0  0  0  0  0  0  0  0  0  0  0  0
   -0.4017   -2.5170    0.0000 C   0  0  0  0  0  0  0  0  0  0  0  0
    2.1393    0.3125    0.0000 C   0  0  0  0  0  0  0  0  0  0  0  0
   -3.0389    0.7005    0.0000 C   0  0  0  0  0  0  0  0  0  0  0  0
    2.9600    0.3194    0.0000 N   0  0  0  0  0  0  0  0  0  0  0  0
    3.3755   -0.3881    0.0000 C   0  0  0  0  0  0  0  0  0  0  0  0
    3.3652    1.0336    0.0000 C   0  0  0  0  0  0  0  0  0  0  0  0
  1  2  1  0  0  0  0
  1  3  1  0  0  0  0
  1  4  2  0  0  0  0
  2  5  1  0  0  0  0
  2  6  1  0  0  0  0
  3  7  2  0  0  0  0
  3  8  1  0  0  0  0
  4  9  1  0  0  0  0
  5 10  2  0  0  0  0
  5  9  1  0  0  0  0
  6 11  1  0  0  0  0
  7 12  1  0  0  0  0
  8 13  2  0  0  0  0
  9 14  2  0  0  0  0
 10 15  1  0  0  0  0
 11 16  3  0  0  0  0
 12 17  2  0  0  0  0
 13 17  1  0  0  0  0
 14 18  1  0  0  0  0
 15 18  2  0  0  0  0
 17 19  1  0  0  0  0
 19 20  1  0  0  0  0
 19 21  1  0  0  0  0
M  END
> <CdId>
433

> <Mol Weight>
275.3477

> <Formula>
C18H17N3

> <Click_ID>
CLK006_D04 __ __ 

$$$$
