CLK035_C05
 OpenBabel03181419432D

 25 27  0  0  0  0  0  0  0  0999 V2000
   -4.5776    2.5468    0.0000 C   0  0  0  0  0  0  0  0  0  0  0  0
   -4.6692    1.7312    0.0000 N   0  0  0  0  0  0  0  0  0  0  0  0
   -5.3142    2.8922    0.0000 S   0  0  0  0  0  0  0  0  0  0  0  0
   -3.1544    5.0355    0.0000 N   0  0  0  0  0  0  0  0  0  0  0  0
   -3.8660    2.9671    0.0000 N   0  0  0  0  0  0  0  0  0  0  0  0
   -5.4765    1.5689    0.0000 C   0  0  0  0  0  0  0  0  0  0  0  0
   -5.8760    2.2930    0.0000 C   0  0  0  0  0  0  0  0  0  0  0  0
   -2.4802    5.5099    0.0000 C   0  0  0  0  0  0  0  0  0  0  0  0
   -3.8161    5.5099    0.0000 C   0  0  0  0  0  0  0  0  0  0  0  0
   -3.8660    3.7953    0.0000 C   0  0  0  0  0  0  0  0  0  0  0  0
   -6.6959    2.3054    0.0000 C   0  0  0  0  0  0  0  0  0  0  0  0
   -3.1544    4.2073    0.0000 C   0  0  0  0  0  0  0  0  0  0  0  0
   -4.2405    0.3496    0.0000 C   0  0  0  0  0  0  0  0  0  0  0  0
   -4.4153   -0.4536    0.0000 C   0  0  0  0  0  0  0  0  0  0  0  0
   -5.9010    0.8697    0.0000 C   0  0  0  0  0  0  0  0  0  0  0  0
   -7.1204    1.5980    0.0000 C   0  0  0  0  0  0  0  0  0  0  0  0
   -3.5664    6.2964    0.0000 C   0  0  0  0  0  0  0  0  0  0  0  0
   -2.7424    6.3047    0.0000 C   0  0  0  0  0  0  0  0  0  0  0  0
   -4.6026    5.2685    0.0000 O   0  0  0  0  0  0  0  0  0  0  0  0
   -1.6937    5.2560    0.0000 O   0  0  0  0  0  0  0  0  0  0  0  0
   -4.5901    4.2073    0.0000 O   0  0  0  0  0  0  0  0  0  0  0  0
   -6.7084    0.8822    0.0000 C   0  0  0  0  0  0  0  0  0  0  0  0
   -4.0533    1.1611    0.0000 C   0  0  0  0  0  0  0  0  0  0  0  0
   -7.0954    3.0295    0.0000 C   0  0  0  0  0  0  0  0  0  0  0  0
   -7.1079    0.1581    0.0000 C   0  0  0  0  0  0  0  0  0  0  0  0
  2  1  1  0  0  0  0
  3  1  1  0  0  0  0
  4 12  1  0  0  0  0
  5  1  2  0  0  0  0
  6  2  1  0  0  0  0
  7  3  1  0  0  0  0
  7  6  2  0  0  0  0
  8  4  1  0  0  0  0
  9  4  1  0  0  0  0
 10  5  1  0  0  0  0
 11  7  1  0  0  0  0
 12 10  1  0  0  0  0
 13 23  1  0  0  0  0
 14 13  3  0  0  0  0
 15  6  1  0  0  0  0
 16 11  2  0  0  0  0
 17  9  1  0  0  0  0
 17 18  1  0  0  0  0
 18  8  1  0  0  0  0
 19  9  2  0  0  0  0
 20  8  2  0  0  0  0
 21 10  2  0  0  0  0
 22 15  2  0  0  0  0
 22 16  1  0  0  0  0
 23  2  1  0  0  0  0
 24 11  1  0  0  0  0
 25 22  1  0  0  0  0
M  END
> <CdId>
2669

> <Mol Weight>
355.411

> <Formula>
C18H17N3O3S

> <Click_ID>
CLK035_C05 __ __ 

$$$$
