CLK005_H07
 OpenBabel03181419432D

 25 26  0  0  0  0  0  0  0  0999 V2000
   -0.0586    0.3621    0.0000 C   0  0  0  0  0  0  0  0  0  0  0  0
   -0.0517   -0.4586    0.0000 C   0  0  3  0  0  0  0  0  0  0  0  0
    0.6517    0.7724    0.0000 C   0  0  0  0  0  0  0  0  0  0  0  0
   -0.7724    0.7724    0.0000 C   0  0  0  0  0  0  0  0  0  0  0  0
   -0.7655   -0.8724    0.0000 C   0  0  0  0  0  0  0  0  0  0  0  0
    0.6655   -0.8724    0.0000 N   0  0  0  0  0  0  0  0  0  0  0  0
    0.6517    1.6000    0.0000 C   0  0  0  0  0  0  0  0  0  0  0  0
    1.3655    0.3655    0.0000 O   0  0  0  0  0  0  0  0  0  0  0  0
   -0.7759    1.5897    0.0000 C   0  0  0  0  0  0  0  0  0  0  0  0
   -0.7655   -1.7000    0.0000 C   0  0  0  0  0  0  0  0  0  0  0  0
   -1.4862   -0.4655    0.0000 C   0  0  0  0  0  0  0  0  0  0  0  0
    0.6655   -1.7000    0.0000 C   0  0  0  0  0  0  0  0  0  0  0  0
   -0.0586    2.0103    0.0000 C   0  0  0  0  0  0  0  0  0  0  0  0
    1.3655    2.0103    0.0000 O   0  0  0  0  0  0  0  0  0  0  0  0
    2.0759    0.7862    0.0000 C   0  0  0  0  0  0  0  0  0  0  0  0
   -0.0517   -2.1138    0.0000 N   0  0  0  0  0  0  0  0  0  0  0  0
   -1.4862   -2.1138    0.0000 C   0  0  0  0  0  0  0  0  0  0  0  0
   -2.1966   -0.8759    0.0000 O   0  0  0  0  0  0  0  0  0  0  0  0
   -1.4862    0.3621    0.0000 O   0  0  0  0  0  0  0  0  0  0  0  0
    1.3759   -2.1138    0.0000 O   0  0  0  0  0  0  0  0  0  0  0  0
    1.3655    2.8345    0.0000 C   0  0  0  0  0  0  0  0  0  0  0  0
    2.7966    0.3724    0.0000 C   0  0  0  0  0  0  0  0  0  0  0  0
   -2.9103   -0.4655    0.0000 C   0  0  0  0  0  0  0  0  0  0  0  0
    3.5103    0.7862    0.0000 C   0  0  0  0  0  0  0  0  0  0  0  0
   -3.6241   -0.8759    0.0000 C   0  0  0  0  0  0  0  0  0  0  0  0
  1  2  1  0  0  0  0
  1  3  2  0  0  0  0
  1  4  1  0  0  0  0
  2  5  1  0  0  0  0
  2  6  1  0  0  0  0
  3  7  1  0  0  0  0
  3  8  1  0  0  0  0
  4  9  2  0  0  0  0
  5 10  2  0  0  0  0
  5 11  1  0  0  0  0
  6 12  1  0  0  0  0
  7 13  2  0  0  0  0
  7 14  1  0  0  0  0
  8 15  1  0  0  0  0
  9 13  1  0  0  0  0
 10 16  1  0  0  0  0
 10 17  1  0  0  0  0
 11 18  1  0  0  0  0
 11 19  2  0  0  0  0
 12 20  2  0  0  0  0
 12 16  1  0  0  0  0
 14 21  1  0  0  0  0
 15 22  1  0  0  0  0
 18 23  1  0  0  0  0
 22 24  3  0  0  0  0
 23 25  1  0  0  0  0
M  END
> <CdId>
396

> <Mol Weight>
344.3618

> <Formula>
C18H20N2O5

> <Click_ID>
CLK005_H07 __ __ 

$$$$
