CLK051A05
 OpenBabel03181419432D

 19 20  0  0  0  0  0  0  0  0999 V2000
    1.6917   -0.4542    0.0000 C   0  0  0  0  0  0  0  0  0  0  0  0
    0.9750   -0.0417    0.0000 N   0  0  0  0  0  0  0  0  0  0  0  0
    3.8333   -0.0417    0.0000 C   0  0  0  0  0  0  0  0  0  0  0  0
   -0.4542   -0.0417    0.0000 C   0  0  0  0  0  0  0  0  0  0  0  0
    4.5500    0.3708    0.0000 C   0  0  0  0  0  0  0  0  0  0  0  0
   -1.1667   -0.4542    0.0000 C   0  0  0  0  0  0  0  0  0  0  0  0
    0.2625   -0.4542    0.0000 C   0  0  3  0  0  0  0  0  0  0  0  0
   -1.8833   -0.0417    0.0000 C   0  0  0  0  0  0  0  0  0  0  0  0
    1.6917   -1.2792    0.0000 O   0  0  0  0  0  0  0  0  0  0  0  0
   -0.4542    0.7833    0.0000 C   0  0  0  0  0  0  0  0  0  0  0  0
    2.4042   -0.0417    0.0000 N   0  0  0  0  0  0  0  0  0  0  0  0
   -1.8833    0.7833    0.0000 C   0  0  0  0  0  0  0  0  0  0  0  0
   -1.1667    1.1958    0.0000 C   0  0  0  0  0  0  0  0  0  0  0  0
    3.1208   -0.4542    0.0000 C   0  0  0  0  0  0  0  0  0  0  0  0
   -2.5958   -0.4542    0.0000 C   0  0  0  0  0  0  0  0  0  0  0  0
    0.2625   -1.2792    0.0000 C   0  0  0  0  0  0  0  0  0  0  0  0
   -2.5958    1.1958    0.0000 C   0  0  0  0  0  0  0  0  0  0  0  0
   -3.3125   -0.0417    0.0000 C   0  0  0  0  0  0  0  0  0  0  0  0
   -3.3125    0.7833    0.0000 C   0  0  0  0  0  0  0  0  0  0  0  0
  2  1  1  0  0  0  0
  3 14  1  0  0  0  0
  4  7  1  0  0  0  0
  5  3  3  0  0  0  0
  6  4  2  0  0  0  0
  7  2  1  0  0  0  0
  8  6  1  0  0  0  0
  9  1  2  0  0  0  0
 10  4  1  0  0  0  0
 11  1  1  0  0  0  0
 12  8  2  0  0  0  0
 12 13  1  0  0  0  0
 13 10  2  0  0  0  0
 14 11  1  0  0  0  0
 15  8  1  0  0  0  0
 16  7  1  0  0  0  0
 17 12  1  0  0  0  0
 18 15  2  0  0  0  0
 18 19  1  0  0  0  0
 19 17  2  0  0  0  0
M  END
> <CdId>
3913

> <Mol Weight>
252.311

> <Formula>
C16H16N2O

> <Click_ID>
CLK051A05 __ __ 

$$$$
