CLK006_B10
 OpenBabel03181419432D

 25 27  0  0  0  0  0  0  0  0999 V2000
    4.3357  -24.0936    0.0000 C   0  0  0  0  0  0  0  0  0  0  0  0
    5.0465  -23.6821    0.0000 C   0  0  0  0  0  0  0  0  0  0  0  0
    3.6207  -23.6821    0.0000 N   0  0  0  0  0  0  0  0  0  0  0  0
    5.0465  -22.8548    0.0000 C   0  0  0  0  0  0  0  0  0  0  0  0
    4.3357  -22.4433    0.0000 N   0  0  0  0  0  0  0  0  0  0  0  0
    3.6207  -22.8548    0.0000 C   0  0  0  0  0  0  0  0  0  0  0  0
    4.3357  -24.9209    0.0000 N   0  0  0  0  0  0  0  0  0  0  0  0
    5.7615  -24.0936    0.0000 C   0  0  3  0  0  0  0  0  0  0  0  0
    5.0465  -25.3324    0.0000 C   0  0  0  0  0  0  0  0  0  0  0  0
    5.7615  -24.9209    0.0000 C   0  0  0  0  0  0  0  0  0  0  0  0
    1.4716  -22.4308    0.0000 C   0  0  0  0  0  0  0  0  0  0  0  0
    0.7565  -22.0110    0.0000 C   0  0  0  0  0  0  0  0  0  0  0  0
    6.4723  -23.6821    0.0000 C   0  0  0  0  0  0  0  0  0  0  0  0
    5.7657  -22.4350    0.0000 O   0  0  0  0  0  0  0  0  0  0  0  0
    5.0465  -26.1555    0.0000 O   0  0  0  0  0  0  0  0  0  0  0  0
    2.9015  -22.4350    0.0000 S   0  0  0  0  0  0  0  0  0  0  0  0
    7.1832  -24.0936    0.0000 C   0  0  0  0  0  0  0  0  0  0  0  0
    6.4723  -22.8590    0.0000 C   0  0  0  0  0  0  0  0  0  0  0  0
    7.8982  -22.8548    0.0000 C   0  0  0  0  0  0  0  0  0  0  0  0
    7.8982  -23.6821    0.0000 C   0  0  0  0  0  0  0  0  0  0  0  0
    7.1832  -22.4433    0.0000 C   0  0  0  0  0  0  0  0  0  0  0  0
    2.1824  -22.8465    0.0000 C   0  0  0  0  0  0  0  0  0  0  0  0
    8.6173  -22.4350    0.0000 O   0  0  0  0  0  0  0  0  0  0  0  0
    8.6131  -21.6077    0.0000 C   0  0  0  0  0  0  0  0  0  0  0  0
    9.3240  -21.1962    0.0000 C   0  0  0  0  0  0  0  0  0  0  0  0
  2  1  2  0  0  0  0
  3  1  1  0  0  0  0
  4  2  1  0  0  0  0
  4  5  1  0  0  0  0
  5  6  1  0  0  0  0
  6  3  2  0  0  0  0
  7  1  1  0  0  0  0
  8  2  1  0  0  0  0
  8 10  1  0  0  0  0
  9  7  1  0  0  0  0
 10  9  1  0  0  0  0
 11 22  1  0  0  0  0
 12 11  3  0  0  0  0
 13  8  1  0  0  0  0
 14  4  2  0  0  0  0
 15  9  2  0  0  0  0
 16  6  1  0  0  0  0
 17 13  2  0  0  0  0
 18 13  1  0  0  0  0
 19 21  1  0  0  0  0
 20 17  1  0  0  0  0
 20 19  2  0  0  0  0
 21 18  2  0  0  0  0
 22 16  1  0  0  0  0
 23 19  1  0  0  0  0
 24 23  1  0  0  0  0
 25 24  1  0  0  0  0
M  END
> <CdId>
419

> <Mol Weight>
355.411

> <Formula>
C18H17N3O3S

> <Click_ID>
CLK006_B10 __ __ 

$$$$
