CLK028_A10
 OpenBabel03181419432D

 11 10  0  0  0  0  0  0  0  0999 V2000
   -2.1182    0.1587    0.0000 C   0  0  0  0  0  0  0  0  0  0  0  0
   -2.8530    0.5865    0.0000 C   0  0  0  0  0  0  0  0  0  0  0  0
    2.1838    0.2035    0.0000 C   0  0  0  0  0  0  0  0  0  0  0  0
    0.0345   -0.2139    0.0000 C   0  0  0  0  0  0  0  0  0  0  0  0
    2.1838    1.0418    0.0000 O   0  0  0  0  0  0  0  0  0  0  0  0
    0.0345   -1.0384    0.0000 O   0  0  0  0  0  0  0  0  0  0  0  0
    1.4662   -0.2035    0.0000 C   0  0  0  0  0  0  0  0  0  0  0  0
    0.7590    0.2070    0.0000 C   0  0  0  0  0  0  0  0  0  0  0  0
    2.8496   -0.2519    0.0000 O   0  0  0  0  0  0  0  0  0  0  0  0
   -0.6899    0.2035    0.0000 O   0  0  0  0  0  0  0  0  0  0  0  0
   -1.4007   -0.2277    0.0000 C   0  0  0  0  0  0  0  0  0  0  0  0
  2  1  3  0  0  0  0
  3  7  1  0  0  0  0
  4 10  1  0  0  0  0
  5  3  2  0  0  0  0
  6  4  2  0  0  0  0
  7  8  1  0  0  0  0
  8  4  1  0  0  0  0
  9  3  1  0  0  0  0
 10 11  1  0  0  0  0
 11  1  1  0  0  0  0
M  END
> <CdId>
2094

> <Mol Weight>
156.136

> <Formula>
C7H8O4

> <Click_ID>
CLK028_A10 __ __ 

$$$$
