CLK045F04
 OpenBabel03181419432D

 16 16  0  0  0  0  0  0  0  0999 V2000
    1.3403   -1.0313    0.0000 N   0  3  0  0  0  0  0  0  0  0  0  0
    1.3403   -0.2046    0.0000 C   0  0  0  0  0  0  0  0  0  0  0  0
    0.6263    0.2087    0.0000 C   0  0  0  0  0  0  0  0  0  0  0  0
   -2.9561   -0.2046    0.0000 C   0  0  0  0  0  0  0  0  0  0  0  0
   -3.6701   -0.6180    0.0000 C   0  0  0  0  0  0  0  0  0  0  0  0
   -0.8059    0.2087    0.0000 C   0  0  0  0  0  0  0  0  0  0  0  0
    0.6263   -1.4447    0.0000 O   0  5  0  0  0  0  0  0  0  0  0  0
    2.0542   -1.4447    0.0000 O   0  0  0  0  0  0  0  0  0  0  0  0
   -0.0919   -0.2046    0.0000 C   0  0  0  0  0  0  0  0  0  0  0  0
   -0.8059    1.0354    0.0000 O   0  0  0  0  0  0  0  0  0  0  0  0
   -1.5240   -0.2046    0.0000 N   0  0  0  0  0  0  0  0  0  0  0  0
   -2.2379    0.2087    0.0000 C   0  0  0  0  0  0  0  0  0  0  0  0
    0.6263    1.0354    0.0000 C   0  0  0  0  0  0  0  0  0  0  0  0
    2.0542    0.2087    0.0000 C   0  0  0  0  0  0  0  0  0  0  0  0
    1.3403    1.4488    0.0000 C   0  0  0  0  0  0  0  0  0  0  0  0
    2.0542    1.0354    0.0000 C   0  0  0  0  0  0  0  0  0  0  0  0
  2  1  1  0  0  0  0
  3  2  2  0  0  0  0
  4 12  1  0  0  0  0
  5  4  3  0  0  0  0
  6  9  1  0  0  0  0
  7  1  1  0  0  0  0
  8  1  2  0  0  0  0
  9  3  1  0  0  0  0
 10  6  2  0  0  0  0
 11  6  1  0  0  0  0
 12 11  1  0  0  0  0
 13  3  1  0  0  0  0
 14  2  1  0  0  0  0
 15 13  2  0  0  0  0
 15 16  1  0  0  0  0
 16 14  2  0  0  0  0
M  END
> <CdId>
3430

> <Mol Weight>
218.2087

> <Formula>
C11H10N2O3

> <Click_ID>
CLK045F04 __ __ 

$$$$
