CLK048F02
 OpenBabel03181419432D

 11 11  0  0  0  0  0  0  0  0999 V2000
    0.0542    0.4250    0.0000 C   0  0  0  0  0  0  0  0  0  0  0  0
   -2.0958    0.0417    0.0000 C   0  0  0  0  0  0  0  0  0  0  0  0
   -2.8167   -0.3583    0.0000 C   0  0  0  0  0  0  0  0  0  0  0  0
    0.0667    1.2500    0.0000 O   0  0  0  0  0  0  0  0  0  0  0  0
    0.7625    0.0000    0.0000 C   0  0  0  0  0  0  0  0  0  0  0  0
   -0.6667    0.0208    0.0000 N   0  0  0  0  0  0  0  0  0  0  0  0
   -1.3750    0.4458    0.0000 C   0  0  0  0  0  0  0  0  0  0  0  0
    0.8333   -0.8208    0.0000 C   0  0  0  0  0  0  0  0  0  0  0  0
    1.5208    0.3250    0.0000 C   0  0  0  0  0  0  0  0  0  0  0  0
    2.0625   -0.2958    0.0000 C   0  0  0  0  0  0  0  0  0  0  0  0
    1.6375   -1.0042    0.0000 C   0  0  0  0  0  0  0  0  0  0  0  0
  2  7  1  0  0  0  0
  3  2  3  0  0  0  0
  4  1  2  0  0  0  0
  5  1  1  0  0  0  0
  6  1  1  0  0  0  0
  7  6  1  0  0  0  0
  8  5  1  0  0  0  0
  9  5  1  0  0  0  0
 10  9  1  0  0  0  0
 10 11  1  0  0  0  0
 11  8  1  0  0  0  0
M  END
> <CdId>
3654

> <Mol Weight>
151.2056

> <Formula>
C9H13NO

> <Click_ID>
CLK048F02 __ __ 

$$$$
