CLK040A07
 OpenBabel03181419432D

 20 21  0  0  0  0  0  0  0  0999 V2000
    0.0708   -1.3583    0.0000 N   0  0  0  0  0  0  0  0  0  0  0  0
    0.0708   -0.5333    0.0000 C   0  0  0  0  0  0  0  0  0  0  0  0
   -0.6458   -1.7708    0.0000 C   0  0  0  0  0  0  0  0  0  0  0  0
   -0.6458   -0.1208    0.0000 N   0  0  0  0  0  0  0  0  0  0  0  0
   -1.3583   -1.3583    0.0000 C   0  0  0  0  0  0  0  0  0  0  0  0
   -1.3583   -0.5333    0.0000 C   0  0  0  0  0  0  0  0  0  0  0  0
    0.7833   -0.1208    0.0000 S   0  0  0  0  0  0  0  0  0  0  0  0
    2.2125    3.1792    0.0000 C   0  0  0  0  0  0  0  0  0  0  0  0
    2.2125    4.0000    0.0000 C   0  0  0  0  0  0  0  0  0  0  0  0
   -0.6458   -2.5958    0.0000 O   0  0  0  0  0  0  0  0  0  0  0  0
    1.5000    1.1167    0.0000 C   0  0  0  0  0  0  0  0  0  0  0  0
    2.2125    0.7042    0.0000 O   0  0  0  0  0  0  0  0  0  0  0  0
    0.7833    0.7042    0.0000 C   0  0  0  0  0  0  0  0  0  0  0  0
    0.7833   -1.7708    0.0000 C   0  0  0  0  0  0  0  0  0  0  0  0
    1.5000    1.9417    0.0000 N   0  0  0  0  0  0  0  0  0  0  0  0
   -2.0750   -1.7708    0.0000 C   0  0  0  0  0  0  0  0  0  0  0  0
    2.2125    2.3542    0.0000 C   0  0  0  0  0  0  0  0  0  0  0  0
   -2.0750   -0.1208    0.0000 C   0  0  0  0  0  0  0  0  0  0  0  0
   -2.7875   -1.3583    0.0000 C   0  0  0  0  0  0  0  0  0  0  0  0
   -2.7875   -0.5333    0.0000 C   0  0  0  0  0  0  0  0  0  0  0  0
  2  1  1  0  0  0  0
  3  1  1  0  0  0  0
  4  2  2  0  0  0  0
  5  3  1  0  0  0  0
  6  5  2  0  0  0  0
  6  4  1  0  0  0  0
  7  2  1  0  0  0  0
  8 17  1  0  0  0  0
  9  8  3  0  0  0  0
 10  3  2  0  0  0  0
 11 13  1  0  0  0  0
 12 11  2  0  0  0  0
 13  7  1  0  0  0  0
 14  1  1  0  0  0  0
 15 11  1  0  0  0  0
 16  5  1  0  0  0  0
 17 15  1  0  0  0  0
 18  6  1  0  0  0  0
 19 16  2  0  0  0  0
 19 20  1  0  0  0  0
 20 18  2  0  0  0  0
M  END
> <CdId>
3049

> <Mol Weight>
287.337

> <Formula>
C14H13N3O2S

> <Click_ID>
CLK040A07 __ __ 

$$$$
