CLK033_H05
 OpenBabel03181419432D

 24 26  0  0  0  0  0  0  0  0999 V2000
   -4.5833    2.5500    0.0000 C    0  0  0  0  0  0  0  0  0  0  0  0
   -3.8708    2.9708    0.0000 N    0  0  0  0  0  0  0  0  0  0  0  0
   -4.6750    1.7333    0.0000 N    0  0  0  0  0  0  0  0  0  0  0  0
   -5.3208    2.8958    0.0000 S    0  0  0  0  0  0  0  0  0  0  0  0
   -5.4833    1.5708    0.0000 C    0  0  0  0  0  0  0  0  0  0  0  0
   -5.8833    2.2958    0.0000 C    0  0  0  0  0  0  0  0  0  0  0  0
   -3.8708    3.8000    0.0000 C    0  0  0  0  0  0  0  0  0  0  0  0
   -4.2458    0.3500    0.0000 C    0  0  0  0  0  0  0  0  0  0  0  0
   -4.4208   -0.4542    0.0000 C    0  0  0  0  0  0  0  0  0  0  0  0
   -3.1583    4.2125    0.0000 C    0  0  0  0  0  0  0  0  0  0  0  0
   -5.9083    0.8708    0.0000 C    0  0  0  0  0  0  0  0  0  0  0  0
   -4.5958    4.2125    0.0000 O    0  0  0  0  0  0  0  0  0  0  0  0
   -4.0583    1.1583    0.0000 C    0  0  0  0  0  0  0  0  0  0  0  0
   -2.4375    3.8083    0.0000 C    0  0  0  0  0  0  0  0  0  0  0  0
   -3.1500    5.0417    0.0000 C    0  0  0  0  0  0  0  0  0  0  0  0
   -5.5083    0.1458    0.0000 Cl   0  0  0  0  0  0  0  0  0  0  0  0
   -1.7208    5.0292    0.0000 C    0  0  0  0  0  0  0  0  0  0  0  0
   -6.7042    2.3083    0.0000 C    0  0  0  0  0  0  0  0  0  0  0  0
   -2.4375    5.4500    0.0000 C    0  0  0  0  0  0  0  0  0  0  0  0
   -1.7250    4.2042    0.0000 C    0  0  0  0  0  0  0  0  0  0  0  0
   -0.9958    5.4500    0.0000 O    0  0  0  0  0  0  0  0  0  0  0  0
   -7.1292    1.6000    0.0000 C    0  0  0  0  0  0  0  0  0  0  0  0
   -6.7167    0.8750    0.0000 C    0  0  0  0  0  0  0  0  0  0  0  0
   -0.2833    5.0292    0.0000 C    0  0  0  0  0  0  0  0  0  0  0  0
  2  1  2  0  0  0  0
  3  1  1  0  0  0  0
  4  1  1  0  0  0  0
  5  3  1  0  0  0  0
  6  4  1  0  0  0  0
  6  5  2  0  0  0  0
  7  2  1  0  0  0  0
  8 13  1  0  0  0  0
  9  8  3  0  0  0  0
 10  7  1  0  0  0  0
 11  5  1  0  0  0  0
 12  7  2  0  0  0  0
 13  3  1  0  0  0  0
 14 10  2  0  0  0  0
 15 10  1  0  0  0  0
 16 11  1  0  0  0  0
 17 19  1  0  0  0  0
 17 20  2  0  0  0  0
 18  6  1  0  0  0  0
 19 15  2  0  0  0  0
 20 14  1  0  0  0  0
 21 17  1  0  0  0  0
 22 18  2  0  0  0  0
 23 11  2  0  0  0  0
 23 22  1  0  0  0  0
 24 21  1  0  0  0  0
M  END
> <CdId>
2559

> <Mol Weight>
356.826

> <Formula>
C18H13ClN2O2S

> <Click_ID>
CLK033_H05 __ __ 

$$$$
