CLK016_F03
 OpenBabel03181419432D

 24 25  0  0  0  0  0  0  0  0999 V2000
    1.5619   -0.8142    0.0000 N   0  0  0  0  0  0  0  0  0  0  0  0
    1.8195   -1.5993    0.0000 C   0  0  0  0  0  0  0  0  0  0  0  0
    2.8954   -0.8142    0.0000 C   0  0  0  0  0  0  0  0  0  0  0  0
    2.2307   -0.3282    0.0000 C   0  0  0  0  0  0  0  0  0  0  0  0
    2.6420   -1.5993    0.0000 S   0  0  0  0  0  0  0  0  0  0  0  0
    3.6805   -0.5608    0.0000 C   0  0  0  0  0  0  0  0  0  0  0  0
    0.6106    0.2451    0.0000 C   0  0  0  0  0  0  0  0  0  0  0  0
    3.8508    0.2492    0.0000 C   0  0  0  0  0  0  0  0  0  0  0  0
    0.3905    1.0426    0.0000 C   0  0  0  0  0  0  0  0  0  0  0  0
    1.3334   -2.2598    0.0000 O   0  0  0  0  0  0  0  0  0  0  0  0
    2.2224    0.4943    0.0000 O   0  0  0  0  0  0  0  0  0  0  0  0
    6.6589   -0.3531    0.0000 C   0  0  0  0  0  0  0  0  0  0  0  0
    0.7851   -0.5608    0.0000 C   0  0  0  0  0  0  0  0  0  0  0  0
    4.6359    0.4985    0.0000 C   0  0  0  0  0  0  0  0  0  0  0  0
    5.2507   -0.0540    0.0000 O   0  0  0  0  0  0  0  0  0  0  0  0
    6.4845   -1.1632    0.0000 O   0  0  0  0  0  0  0  0  0  0  0  0
    6.0441    0.1994    0.0000 C   0  0  0  0  0  0  0  0  0  0  0  0
    7.4440   -0.1039    0.0000 O   0  0  0  0  0  0  0  0  0  0  0  0
    3.2443    0.8058    0.0000 C   0  0  0  0  0  0  0  0  0  0  0  0
    4.8104    1.3168    0.0000 C   0  0  0  0  0  0  0  0  0  0  0  0
    8.0630   -0.6605    0.0000 C   0  0  0  0  0  0  0  0  0  0  0  0
    8.8481   -0.4030    0.0000 C   0  0  0  0  0  0  0  0  0  0  0  0
    3.4188    1.6159    0.0000 C   0  0  0  0  0  0  0  0  0  0  0  0
    4.1997    1.8651    0.0000 C   0  0  0  0  0  0  0  0  0  0  0  0
  2  1  1  0  0  0  0
  3  4  1  0  0  0  0
  3  5  1  0  0  0  0
  4  1  1  0  0  0  0
  5  2  1  0  0  0  0
  6  3  2  0  0  0  0
  7 13  1  0  0  0  0
  8  6  1  0  0  0  0
  9  7  3  0  0  0  0
 10  2  2  0  0  0  0
 11  4  2  0  0  0  0
 12 17  1  0  0  0  0
 13  1  1  0  0  0  0
 14  8  1  0  0  0  0
 15 14  1  0  0  0  0
 16 12  2  0  0  0  0
 17 15  1  0  0  0  0
 18 12  1  0  0  0  0
 19  8  2  0  0  0  0
 20 14  2  0  0  0  0
 20 24  1  0  0  0  0
 21 18  1  0  0  0  0
 22 21  1  0  0  0  0
 23 19  1  0  0  0  0
 24 23  2  0  0  0  0
M  END
> <CdId>
1208

> <Mol Weight>
345.37

> <Formula>
C17H15NO5S

> <Click_ID>
CLK016_F03 __ __ 

$$$$
