CLK050F04
 OpenBabel03181419432D

 18 18  0  0  0  0  0  0  0  0999 V2000
    0.0375    1.8583    0.0000 C   0  0  0  0  0  0  0  0  0  0  0  0
    1.4667    3.5083    0.0000 C   0  0  0  0  0  0  0  0  0  0  0  0
    2.1792    3.9208    0.0000 C   0  0  0  0  0  0  0  0  0  0  0  0
    0.0375   -3.0917    0.0000 C   0  0  0  0  0  0  0  0  0  0  0  0
    0.0375    1.0333    0.0000 N   0  0  0  0  0  0  0  0  0  0  0  0
   -0.6750    2.2708    0.0000 O   0  0  0  0  0  0  0  0  0  0  0  0
   -0.6750   -2.6792    0.0000 O   0  0  0  0  0  0  0  0  0  0  0  0
    0.7542    2.2708    0.0000 N   0  0  0  0  0  0  0  0  0  0  0  0
   -0.6750   -1.8542    0.0000 C   0  0  0  0  0  0  0  0  0  0  0  0
    0.7542   -2.6792    0.0000 F   0  0  0  0  0  0  0  0  0  0  0  0
    0.0375   -3.9167    0.0000 F   0  0  0  0  0  0  0  0  0  0  0  0
   -0.6750    0.6208    0.0000 C   0  0  0  0  0  0  0  0  0  0  0  0
   -0.6750   -0.2042    0.0000 C   0  0  0  0  0  0  0  0  0  0  0  0
    0.7542    3.0958    0.0000 C   0  0  0  0  0  0  0  0  0  0  0  0
    0.0375   -1.4417    0.0000 C   0  0  0  0  0  0  0  0  0  0  0  0
   -1.3917   -1.4417    0.0000 C   0  0  0  0  0  0  0  0  0  0  0  0
   -1.3917   -0.6167    0.0000 C   0  0  0  0  0  0  0  0  0  0  0  0
    0.0375   -0.6167    0.0000 C   0  0  0  0  0  0  0  0  0  0  0  0
  2 14  1  0  0  0  0
  3  2  3  0  0  0  0
  4  7  1  0  0  0  0
  5  1  1  0  0  0  0
  6  1  2  0  0  0  0
  7  9  1  0  0  0  0
  8  1  1  0  0  0  0
  9 16  2  0  0  0  0
 10  4  1  0  0  0  0
 11  4  1  0  0  0  0
 12  5  1  0  0  0  0
 13 12  1  0  0  0  0
 14  8  1  0  0  0  0
 15 18  2  0  0  0  0
 15  9  1  0  0  0  0
 16 17  1  0  0  0  0
 17 13  2  0  0  0  0
 18 13  1  0  0  0  0
M  END
> <CdId>
3830

> <Mol Weight>
254.2327

> <Formula>
C12H12F2N2O2

> <Click_ID>
CLK050F04 __ __ 

$$$$
