CLK009_G10
 OpenBabel03181419432D

 30 33  0  0  0  0  0  0  0  0999 V2000
    2.1619    0.4417    0.0000 N   0  0  0  0  0  0  0  0  0  0  0  0
    2.5490    1.1102    0.0000 C   0  0  0  0  0  0  0  0  0  0  0  0
   -2.4238   -0.2502    0.0000 S   0  0  0  0  0  0  0  0  0  0  0  0
    3.4520    1.1220    0.0000 N   0  0  0  0  0  0  0  0  0  0  0  0
    1.2940   -0.3441    0.0000 C   0  0  0  0  0  0  0  0  0  0  0  0
   -3.2682   -0.2502    0.0000 N   0  0  0  0  0  0  0  0  0  0  0  0
    3.2839   -0.1681    0.0000 C   0  0  0  0  0  0  0  0  0  0  0  0
    3.7335    0.4417    0.0000 C   0  0  0  0  0  0  0  0  0  0  0  0
   -1.5911   -0.2697    0.0000 C   0  0  0  0  0  0  0  0  0  0  0  0
   -2.4238   -1.1064    0.0000 O   0  0  0  0  0  0  0  0  0  0  0  0
   -2.4121    0.5747    0.0000 O   0  0  0  0  0  0  0  0  0  0  0  0
    0.8796    2.5059    0.0000 C   0  0  0  0  0  0  0  0  0  0  0  0
    0.0938   -0.2815    0.0000 C   0  0  0  0  0  0  0  0  0  0  0  0
    0.0509    2.4981    0.0000 C   0  0  0  0  0  0  0  0  0  0  0  0
    2.1267    1.8139    0.0000 S   0  0  0  0  0  0  0  0  0  0  0  0
    1.6889   -1.2666    0.0000 O   0  0  0  0  0  0  0  0  0  0  0  0
   -1.1689   -0.9891    0.0000 C   0  0  0  0  0  0  0  0  0  0  0  0
   -1.1689    0.4339    0.0000 C   0  0  0  0  0  0  0  0  0  0  0  0
   -0.3479   -1.0008    0.0000 C   0  0  0  0  0  0  0  0  0  0  0  0
   -0.3401    0.4417    0.0000 C   0  0  0  0  0  0  0  0  0  0  0  0
   -4.9454   -0.2150    0.0000 O   0  0  0  0  0  0  0  0  0  0  0  0
   -3.6709    0.4691    0.0000 C   0  0  0  0  0  0  0  0  0  0  0  0
   -3.7022   -0.9734    0.0000 C   0  0  0  0  0  0  0  0  0  0  0  0
    1.3018    1.8022    0.0000 C   0  0  0  0  0  0  0  0  0  0  0  0
    3.6592   -0.8953    0.0000 C   0  0  0  0  0  0  0  0  0  0  0  0
    4.5076    0.4339    0.0000 C   0  0  0  0  0  0  0  0  0  0  0  0
   -4.5154    0.4691    0.0000 C   0  0  0  0  0  0  0  0  0  0  0  0
   -4.5232   -0.9657    0.0000 C   0  0  0  0  0  0  0  0  0  0  0  0
    4.5310   -0.9070    0.0000 C   0  0  0  0  0  0  0  0  0  0  0  0
    4.9141   -0.2385    0.0000 C   0  0  0  0  0  0  0  0  0  0  0  0
  2  1  1  0  0  0  0
  3  9  1  0  0  0  0
  4  2  2  0  0  0  0
  4  8  1  0  0  0  0
  5  1  1  0  0  0  0
  6  3  1  0  0  0  0
  7  1  1  0  0  0  0
  8  7  1  0  0  0  0
  9 18  2  0  0  0  0
  9 17  1  0  0  0  0
 10  3  2  0  0  0  0
 11  3  2  0  0  0  0
 12 24  1  0  0  0  0
 13  5  1  0  0  0  0
 14 12  3  0  0  0  0
 15  2  1  0  0  0  0
 16  5  2  0  0  0  0
 17 19  2  0  0  0  0
 18 20  1  0  0  0  0
 19 13  1  0  0  0  0
 20 13  2  0  0  0  0
 21 28  1  0  0  0  0
 21 27  1  0  0  0  0
 22  6  1  0  0  0  0
 23  6  1  0  0  0  0
 24 15  1  0  0  0  0
 25  7  2  0  0  0  0
 26  8  2  0  0  0  0
 27 22  1  0  0  0  0
 28 23  1  0  0  0  0
 29 25  1  0  0  0  0
 30 29  2  0  0  0  0
 30 26  1  0  0  0  0
M  END
> <CdId>
665

> <Mol Weight>
441.523

> <Formula>
C21H19N3O4S2

> <Click_ID>
CLK009_G10 __ __ 

$$$$
