CLK012_E05
 OpenBabel03181419432D

 25 26  0  0  0  0  0  0  0  0999 V2000
    5.3355   -0.4526    0.0000 N   0  0  0  0  0  0  0  0  0  0  0  0
    5.1985   -1.2706    0.0000 C   0  0  0  0  0  0  0  0  0  0  0  0
    4.6006   -0.0789    0.0000 C   0  0  0  0  0  0  0  0  0  0  0  0
    4.0152   -0.6602    0.0000 C   0  0  0  0  0  0  0  0  0  0  0  0
    4.3847   -1.3993    0.0000 S   0  0  0  0  0  0  0  0  0  0  0  0
    3.2013   -0.5274    0.0000 C   0  0  0  0  0  0  0  0  0  0  0  0
    5.7840   -1.8560    0.0000 S   0  0  0  0  0  0  0  0  0  0  0  0
    0.8761   -4.5134    0.0000 C   0  0  0  0  0  0  0  0  0  0  0  0
    0.3612   -5.1487    0.0000 C   0  0  0  0  0  0  0  0  0  0  0  0
    2.4456   -2.5827    0.0000 C   0  0  0  0  0  0  0  0  0  0  0  0
    4.4719    0.7349    0.0000 O   0  0  0  0  0  0  0  0  0  0  0  0
    2.6699   -1.1751    0.0000 C   0  0  0  0  0  0  0  0  0  0  0  0
    2.9646   -1.9432    0.0000 C   0  0  0  0  0  0  0  0  0  0  0  0
    1.6235   -2.4581    0.0000 C   0  0  0  0  0  0  0  0  0  0  0  0
    6.0663   -0.0789    0.0000 C   0  0  0  0  0  0  0  0  0  0  0  0
    1.3328   -1.6733    0.0000 C   0  0  0  0  0  0  0  0  0  0  0  0
    1.8560   -1.0381    0.0000 C   0  0  0  0  0  0  0  0  0  0  0  0
    2.7321   -3.3508    0.0000 O   0  0  0  0  0  0  0  0  0  0  0  0
    1.1004   -3.0934    0.0000 O   0  0  0  0  0  0  0  0  0  0  0  0
    1.3951   -3.8657    0.0000 C   0  0  0  0  0  0  0  0  0  0  0  0
    7.4905   -0.1537    0.0000 O   0  0  0  0  0  0  0  0  0  0  0  0
    6.7556   -0.5356    0.0000 C   0  0  0  0  0  0  0  0  0  0  0  0
    3.5543   -3.4878    0.0000 C   0  0  0  0  0  0  0  0  0  0  0  0
    8.1756   -0.6104    0.0000 C   0  0  0  0  0  0  0  0  0  0  0  0
    3.8408   -4.2518    0.0000 C   0  0  0  0  0  0  0  0  0  0  0  0
  2  1  1  0  0  0  0
  3  1  1  0  0  0  0
  4  3  1  0  0  0  0
  5  2  1  0  0  0  0
  5  4  1  0  0  0  0
  6  4  2  0  0  0  0
  7  2  2  0  0  0  0
  8 20  1  0  0  0  0
  9  8  3  0  0  0  0
 10 13  2  0  0  0  0
 11  3  2  0  0  0  0
 12  6  1  0  0  0  0
 13 12  1  0  0  0  0
 14 16  2  0  0  0  0
 14 10  1  0  0  0  0
 15  1  1  0  0  0  0
 16 17  1  0  0  0  0
 17 12  2  0  0  0  0
 18 10  1  0  0  0  0
 19 14  1  0  0  0  0
 20 19  1  0  0  0  0
 21 22  1  0  0  0  0
 22 15  1  0  0  0  0
 23 18  1  0  0  0  0
 24 21  1  0  0  0  0
 25 23  1  0  0  0  0
M  END
> <CdId>
880

> <Mol Weight>
377.478

> <Formula>
C18H19NO4S2

> <Click_ID>
CLK012_E05 __ __ 

$$$$
