CLK002_E06
 OpenBabel03181419432D

 30 34  0  0  0  0  0  0  0  0999 V2000
   -1.2104   -0.6595    0.0000 C   0  0  0  0  0  0  0  0  0  0  0  0
   -0.4792   -0.2594    0.0000 C   0  0  0  0  0  0  0  0  0  0  0  0
   -1.9119   -0.2594    0.0000 C   0  0  0  0  0  0  0  0  0  0  0  0
   -0.4792   -1.0622    0.0000 C   0  0  0  0  0  0  0  0  0  0  0  0
   -1.8921   -1.0473    0.0000 C   0  0  0  0  0  0  0  0  0  0  0  0
   -0.4792    0.5706    0.0000 C   0  0  0  0  0  0  0  0  0  0  0  0
    0.2272   -0.6521    0.0000 C   0  0  0  0  0  0  0  0  0  0  0  0
   -1.9119    0.5706    0.0000 C   0  0  0  0  0  0  0  0  0  0  0  0
   -0.4792   -1.8773    0.0000 C   0  0  0  0  0  0  0  0  0  0  0  0
   -1.8921   -1.8773    0.0000 C   0  0  0  0  0  0  0  0  0  0  0  0
   -1.2104    0.9880    0.0000 C   0  0  0  0  0  0  0  0  0  0  0  0
    0.2272    0.9880    0.0000 N   0  0  0  0  0  0  0  0  0  0  0  0
    0.9683   -0.2594    0.0000 N   0  0  0  0  0  0  0  0  0  0  0  0
    0.2272   -1.5067    0.0000 O   0  0  0  0  0  0  0  0  0  0  0  0
   -2.6282    0.9880    0.0000 C   0  0  0  0  0  0  0  0  0  0  0  0
   -1.2104   -2.3071    0.0000 C   0  0  0  0  0  0  0  0  0  0  0  0
   -1.2104    1.8130    0.0000 C   0  0  0  0  0  0  0  0  0  0  0  0
    0.9683    0.5706    0.0000 C   0  0  0  0  0  0  0  0  0  0  0  0
    1.6698   -0.6595    0.0000 C   0  0  0  0  0  0  0  0  0  0  0  0
   -2.6282    1.8130    0.0000 C   0  0  0  0  0  0  0  0  0  0  0  0
   -1.9119    2.2280    0.0000 C   0  0  0  0  0  0  0  0  0  0  0  0
    1.6895    0.9880    0.0000 S   0  0  0  0  0  0  0  0  0  0  0  0
    1.6698   -1.4821    0.0000 C   0  0  0  0  0  0  0  0  0  0  0  0
    2.3762   -0.2594    0.0000 C   0  0  0  0  0  0  0  0  0  0  0  0
    1.6895    1.8180    0.0000 C   0  0  0  0  0  0  0  0  0  0  0  0
    2.4009   -1.8847    0.0000 C   0  0  0  0  0  0  0  0  0  0  0  0
    3.0926   -0.6595    0.0000 C   0  0  0  0  0  0  0  0  0  0  0  0
    0.9683    2.2280    0.0000 C   0  0  0  0  0  0  0  0  0  0  0  0
    3.0926   -1.4821    0.0000 C   0  0  0  0  0  0  0  0  0  0  0  0
    0.2643    2.6282    0.0000 C   0  0  0  0  0  0  0  0  0  0  0  0
  1  2  1  0  0  0  0
  1  3  1  0  0  0  0
  1  4  1  0  0  0  0
  1  5  1  0  0  0  0
  2  6  2  0  0  0  0
  2  7  1  0  0  0  0
  3  8  1  0  0  0  0
  4  9  1  0  0  0  0
  5 10  1  0  0  0  0
  6 11  1  0  0  0  0
  6 12  1  0  0  0  0
  7 13  1  0  0  0  0
  7 14  2  0  0  0  0
  8 15  2  0  0  0  0
  8 11  1  0  0  0  0
  9 16  1  0  0  0  0
 10 16  1  0  0  0  0
 11 17  2  0  0  0  0
 12 18  2  0  0  0  0
 13 19  1  0  0  0  0
 13 18  1  0  0  0  0
 15 20  1  0  0  0  0
 17 21  1  0  0  0  0
 18 22  1  0  0  0  0
 19 23  1  0  0  0  0
 19 24  1  0  0  0  0
 20 21  2  0  0  0  0
 22 25  1  0  0  0  0
 23 26  1  0  0  0  0
 24 27  1  0  0  0  0
 25 28  1  0  0  0  0
 26 29  1  0  0  0  0
 27 29  1  0  0  0  0
 28 30  3  0  0  0  0
M  END
> <CdId>
125

> <Mol Weight>
418.594

> <Formula>
C26H30N2OS

> <Click_ID>
CLK002_E06 __ __ 

$$$$
