CLK025_F05
 OpenBabel03181419432D

 31 34  0  0  0  0  0  0  0  0999 V2000
    1.3164   -0.5259    0.0000 C   0  0  0  0  0  0  0  0  0  0  0  0
    1.4024   -1.3440    0.0000 C   0  0  0  0  0  0  0  0  0  0  0  0
    2.2067   -1.5158    0.0000 N   0  0  0  0  0  0  0  0  0  0  0  0
    2.0692   -0.1891    0.0000 C   0  0  0  0  0  0  0  0  0  0  0  0
    2.6226   -0.8043    0.0000 C   0  0  0  0  0  0  0  0  0  0  0  0
    0.6049   -0.1100    0.0000 N   0  0  0  0  0  0  0  0  0  0  0  0
   -0.1100    1.1274    0.0000 C   0  0  0  0  0  0  0  0  0  0  0  0
    0.6049    0.7115    0.0000 N   0  0  0  0  0  0  0  0  0  0  0  0
    2.0589   -2.9354    0.0000 C   0  0  0  0  0  0  0  0  0  0  0  0
    1.5708   -3.6022    0.0000 C   0  0  0  0  0  0  0  0  0  0  0  0
   -2.9698    1.1343    0.0000 C   0  0  0  0  0  0  0  0  0  0  0  0
    0.7872   -1.8939    0.0000 O   0  0  0  0  0  0  0  0  0  0  0  0
   -2.2514    0.7150    0.0000 C   0  0  0  0  0  0  0  0  0  0  0  0
   -1.5364    1.1274    0.0000 O   0  0  0  0  0  0  0  0  0  0  0  0
    2.5435   -2.2686    0.0000 C   0  0  0  0  0  0  0  0  0  0  0  0
   -0.1100    1.9489    0.0000 O   0  0  0  0  0  0  0  0  0  0  0  0
   -2.9698    1.9558    0.0000 C   0  0  0  0  0  0  0  0  0  0  0  0
   -0.8249    0.7150    0.0000 C   0  0  0  0  0  0  0  0  0  0  0  0
    2.3270    0.5946    0.0000 C   0  0  0  0  0  0  0  0  0  0  0  0
    3.4269   -0.6325    0.0000 C   0  0  0  0  0  0  0  0  0  0  0  0
   -3.6847    0.7150    0.0000 C   0  0  0  0  0  0  0  0  0  0  0  0
   -2.2514   -0.1134    0.0000 C   0  0  0  0  0  0  0  0  0  0  0  0
   -3.6847    2.3682    0.0000 C   0  0  0  0  0  0  0  0  0  0  0  0
   -2.2583    2.3717    0.0000 C   0  0  0  0  0  0  0  0  0  0  0  0
    3.1313    0.7631    0.0000 C   0  0  0  0  0  0  0  0  0  0  0  0
    3.6847    0.1512    0.0000 C   0  0  0  0  0  0  0  0  0  0  0  0
   -3.6847   -0.1134    0.0000 C   0  0  0  0  0  0  0  0  0  0  0  0
   -3.6881    3.1932    0.0000 C   0  0  0  0  0  0  0  0  0  0  0  0
   -2.9698   -0.5259    0.0000 C   0  0  0  0  0  0  0  0  0  0  0  0
   -2.2583    3.1932    0.0000 C   0  0  0  0  0  0  0  0  0  0  0  0
   -2.9732    3.6022    0.0000 C   0  0  0  0  0  0  0  0  0  0  0  0
  2  1  1  0  0  0  0
  3  2  1  0  0  0  0
  4  1  1  0  0  0  0
  5  4  2  0  0  0  0
  5  3  1  0  0  0  0
  6  1  2  0  0  0  0
  7  8  1  0  0  0  0
  8  6  1  0  0  0  0
  9 15  1  0  0  0  0
 10  9  3  0  0  0  0
 11 13  1  0  0  0  0
 12  2  2  0  0  0  0
 13 14  1  0  0  0  0
 14 18  1  0  0  0  0
 15  3  1  0  0  0  0
 16  7  2  0  0  0  0
 17 11  1  0  0  0  0
 18  7  1  0  0  0  0
 19  4  1  0  0  0  0
 20  5  1  0  0  0  0
 21 11  2  0  0  0  0
 22 13  2  0  0  0  0
 23 17  2  0  0  0  0
 24 17  1  0  0  0  0
 25 19  2  0  0  0  0
 26 25  1  0  0  0  0
 26 20  2  0  0  0  0
 27 21  1  0  0  0  0
 28 23  1  0  0  0  0
 28 31  2  0  0  0  0
 29 22  1  0  0  0  0
 29 27  2  0  0  0  0
 30 24  2  0  0  0  0
 31 30  1  0  0  0  0
M  END
> <CdId>
1910

> <Mol Weight>
409.4367

> <Formula>
C25H19N3O3

> <Click_ID>
CLK025_F05 __ __ 

$$$$
