CLK041G09
 OpenBabel03181419432D

 25 28  0  0  0  0  0  0  0  0999 V2000
   -0.5416    0.8582    0.0000 C   0  0  0  0  0  0  0  0  0  0  0  0
   -1.0248    1.5248    0.0000 N   0  0  0  0  0  0  0  0  0  0  0  0
   -1.0248    0.1917    0.0000 N   0  0  0  0  0  0  0  0  0  0  0  0
    0.2833    0.8582    0.0000 C   0  0  3  0  0  0  0  0  0  0  0  0
    1.5540    0.4457    0.0000 N   0  0  0  0  0  0  0  0  0  0  0  0
    1.5540    1.2706    0.0000 C   0  0  0  0  0  0  0  0  0  0  0  0
   -1.8122    0.4457    0.0000 C   0  0  0  0  0  0  0  0  0  0  0  0
   -1.8122    1.2706    0.0000 C   0  0  0  0  0  0  0  0  0  0  0  0
    0.7707    0.1917    0.0000 C   0  0  0  0  0  0  0  0  0  0  0  0
    0.7707    1.5248    0.0000 C   0  0  0  0  0  0  0  0  0  0  0  0
   -1.3248   -1.2040    0.0000 C   0  0  0  0  0  0  0  0  0  0  0  0
   -1.8747   -1.8205    0.0000 C   0  0  0  0  0  0  0  0  0  0  0  0
    2.2205   -0.0375    0.0000 C   0  0  0  0  0  0  0  0  0  0  0  0
    2.2205    1.7580    0.0000 O   0  0  0  0  0  0  0  0  0  0  0  0
   -0.7707   -0.5916    0.0000 C   0  0  0  0  0  0  0  0  0  0  0  0
    2.1330   -0.8582    0.0000 C   0  0  0  0  0  0  0  0  0  0  0  0
   -2.5246    0.0333    0.0000 C   0  0  0  0  0  0  0  0  0  0  0  0
   -2.5246    1.6830    0.0000 C   0  0  0  0  0  0  0  0  0  0  0  0
    1.3790   -1.1956    0.0000 C   0  0  0  0  0  0  0  0  0  0  0  0
    2.8038   -1.3415    0.0000 C   0  0  0  0  0  0  0  0  0  0  0  0
   -3.2370    0.4457    0.0000 C   0  0  0  0  0  0  0  0  0  0  0  0
   -3.2370    1.2706    0.0000 C   0  0  0  0  0  0  0  0  0  0  0  0
    2.7163   -2.1622    0.0000 C   0  0  0  0  0  0  0  0  0  0  0  0
    1.2956   -2.0164    0.0000 C   0  0  0  0  0  0  0  0  0  0  0  0
    1.9622   -2.4996    0.0000 C   0  0  0  0  0  0  0  0  0  0  0  0
  2  1  2  0  0  0  0
  3  1  1  0  0  0  0
  4  1  1  0  0  0  0
  5  9  1  0  0  0  0
  5  6  1  0  0  0  0
  6 10  1  0  0  0  0
  7  3  1  0  0  0  0
  7  8  2  0  0  0  0
  8  2  1  0  0  0  0
  9  4  1  0  0  0  0
 10  4  1  0  0  0  0
 11 15  1  0  0  0  0
 12 11  3  0  0  0  0
 13  5  1  0  0  0  0
 14  6  2  0  0  0  0
 15  3  1  0  0  0  0
 16 13  1  0  0  0  0
 17  7  1  0  0  0  0
 18  8  1  0  0  0  0
 19 16  1  0  0  0  0
 20 16  2  0  0  0  0
 21 17  2  0  0  0  0
 21 22  1  0  0  0  0
 22 18  2  0  0  0  0
 23 20  1  0  0  0  0
 24 19  2  0  0  0  0
 25 23  2  0  0  0  0
 25 24  1  0  0  0  0
M  END
> <CdId>
3151

> <Mol Weight>
329.3951

> <Formula>
C21H19N3O

> <Click_ID>
CLK041G09 __ __ 

$$$$
