CLK026_H08
 OpenBabel03181419432D

 28 31  0  0  0  0  0  0  0  0999 V2000
   -1.9640    1.8198    0.0000 N    0  0  0  0  0  0  0  0  0  0  0  0
   -2.7778    1.6447    0.0000 C    0  0  0  0  0  0  0  0  0  0  0  0
   -2.1082    0.4944    0.0000 C    0  0  0  0  0  0  0  0  0  0  0  0
   -1.5554    1.1056    0.0000 C    0  0  0  0  0  0  0  0  0  0  0  0
    0.1889   -0.5768    0.0000 N    0  0  0  0  0  0  0  0  0  0  0  0
   -1.1537   -0.5665    0.0000 C    0  0  0  0  0  0  0  0  0  0  0  0
   -2.8636    0.8309    0.0000 S    0  0  0  0  0  0  0  0  0  0  0  0
   -0.4876   -0.0927    0.0000 C    0  0  0  0  0  0  0  0  0  0  0  0
   -1.9400   -0.3159    0.0000 C    0  0  0  0  0  0  0  0  0  0  0  0
   -0.0824   -1.3632    0.0000 C    0  0  0  0  0  0  0  0  0  0  0  0
   -0.8962   -1.3632    0.0000 C    0  0  0  0  0  0  0  0  0  0  0  0
   -0.8103    2.6541    0.0000 C    0  0  0  0  0  0  0  0  0  0  0  0
    0.9648   -0.3296    0.0000 C    0  0  0  0  0  0  0  0  0  0  0  0
    0.0035    2.7881    0.0000 C    0  0  0  0  0  0  0  0  0  0  0  0
   -3.3890    2.2009    0.0000 O    0  0  0  0  0  0  0  0  0  0  0  0
   -0.7348    1.0232    0.0000 O    0  0  0  0  0  0  0  0  0  0  0  0
   -1.6344    2.5649    0.0000 C    0  0  0  0  0  0  0  0  0  0  0  0
    1.5726   -0.8859    0.0000 C    0  0  0  0  0  0  0  0  0  0  0  0
    2.7847   -2.0087    0.0000 C    0  0  0  0  0  0  0  0  0  0  0  0
    3.3855   -2.5581    0.0000 Cl   0  0  0  0  0  0  0  0  0  0  0  0
    2.3589   -0.6283    0.0000 C    0  0  0  0  0  0  0  0  0  0  0  0
    1.4009   -1.6962    0.0000 C    0  0  0  0  0  0  0  0  0  0  0  0
    2.9460   -1.1984    0.0000 C    0  0  0  0  0  0  0  0  0  0  0  0
    2.0018   -2.2490    0.0000 C    0  0  0  0  0  0  0  0  0  0  0  0
    0.3296   -2.0842    0.0000 C    0  0  0  0  0  0  0  0  0  0  0  0
   -1.3288   -2.0705    0.0000 C    0  0  0  0  0  0  0  0  0  0  0  0
   -0.0824   -2.7847    0.0000 C    0  0  0  0  0  0  0  0  0  0  0  0
   -0.9099   -2.7812    0.0000 C    0  0  0  0  0  0  0  0  0  0  0  0
  2  1  1  0  0  0  0
  3  4  1  0  0  0  0
  4  1  1  0  0  0  0
  5  8  1  0  0  0  0
  6  9  1  0  0  0  0
  7  2  1  0  0  0  0
  7  3  1  0  0  0  0
  8  6  2  0  0  0  0
  9  3  2  0  0  0  0
 10 11  1  0  0  0  0
 10  5  1  0  0  0  0
 11  6  1  0  0  0  0
 12 17  1  0  0  0  0
 13  5  1  0  0  0  0
 14 12  3  0  0  0  0
 15  2  2  0  0  0  0
 16  4  2  0  0  0  0
 17  1  1  0  0  0  0
 18 13  1  0  0  0  0
 19 24  2  0  0  0  0
 19 23  1  0  0  0  0
 20 19  1  0  0  0  0
 21 18  1  0  0  0  0
 22 18  2  0  0  0  0
 23 21  2  0  0  0  0
 24 22  1  0  0  0  0
 25 10  2  0  0  0  0
 26 11  2  0  0  0  0
 27 28  2  0  0  0  0
 27 25  1  0  0  0  0
 28 26  1  0  0  0  0
M  END
> <CdId>
2013

> <Mol Weight>
406.885

> <Formula>
C22H15ClN2O2S

> <Click_ID>
CLK026_H08 __ __ 

$$$$
