CLK037A08
 OpenBabel03181419432D

 25 27  0  0  0  0  0  0  0  0999 V2000
    0.2875   -0.5875    0.0000 C   0  0  0  0  0  0  0  0  0  0  0  0
   -0.1958    0.0792    0.0000 N   0  0  0  0  0  0  0  0  0  0  0  0
   -0.1958   -1.2583    0.0000 S   0  0  0  0  0  0  0  0  0  0  0  0
    1.1125   -0.5875    0.0000 C   0  0  0  0  0  0  0  0  0  0  0  0
    1.5250    0.1250    0.0000 C   0  0  0  0  0  0  0  0  0  0  0  0
   -0.9833   -0.1750    0.0000 C   0  0  0  0  0  0  0  0  0  0  0  0
   -0.9833   -1.0000    0.0000 C   0  0  0  0  0  0  0  0  0  0  0  0
    1.1125    0.8417    0.0000 C   0  0  0  0  0  0  0  0  0  0  0  0
   -1.8583    0.4292    0.0000 C   0  0  0  0  0  0  0  0  0  0  0  0
   -2.5708    0.0167    0.0000 C   0  0  0  0  0  0  0  0  0  0  0  0
    1.5250   -1.3042    0.0000 C   0  0  0  0  0  0  0  0  0  0  0  0
    2.3500   -1.3042    0.0000 C   0  0  0  0  0  0  0  0  0  0  0  0
    0.2875    0.8417    0.0000 C   0  0  0  0  0  0  0  0  0  0  0  0
    2.7625   -2.0167    0.0000 O   0  0  0  0  0  0  0  0  0  0  0  0
    2.7625   -0.5875    0.0000 O   0  0  0  0  0  0  0  0  0  0  0  0
   -0.4292    0.4292    0.0000 O   0  0  0  0  0  0  0  0  0  0  0  0
   -1.1417    0.8417    0.0000 C   0  0  0  0  0  0  0  0  0  0  0  0
   -1.6958    0.2375    0.0000 C   0  0  0  0  0  0  0  0  0  0  0  0
   -1.6958   -1.4125    0.0000 C   0  0  0  0  0  0  0  0  0  0  0  0
    1.5250    1.5542    0.0000 C   0  0  0  0  0  0  0  0  0  0  0  0
   -0.1250    1.5542    0.0000 C   0  0  0  0  0  0  0  0  0  0  0  0
   -2.4125   -1.0000    0.0000 C   0  0  0  0  0  0  0  0  0  0  0  0
   -2.4125   -0.1750    0.0000 C   0  0  0  0  0  0  0  0  0  0  0  0
    1.1125    2.2667    0.0000 C   0  0  0  0  0  0  0  0  0  0  0  0
    0.2875    2.2667    0.0000 C   0  0  0  0  0  0  0  0  0  0  0  0
  2  1  2  0  0  0  0
  3  1  1  0  0  0  0
  4  1  1  0  0  0  0
  5  4  2  0  0  0  0
  6  2  1  0  0  0  0
  7  3  1  0  0  0  0
  7  6  2  0  0  0  0
  8  5  1  0  0  0  0
  9 17  1  0  0  0  0
 10  9  3  0  0  0  0
 11  4  1  0  0  0  0
 12 11  1  0  0  0  0
 13  8  2  0  0  0  0
 14 12  2  0  0  0  0
 15 12  1  0  0  0  0
 16 13  1  0  0  0  0
 17 16  1  0  0  0  0
 18  6  1  0  0  0  0
 19  7  1  0  0  0  0
 20  8  1  0  0  0  0
 21 13  1  0  0  0  0
 22 19  2  0  0  0  0
 22 23  1  0  0  0  0
 23 18  2  0  0  0  0
 24 20  2  0  0  0  0
 25 21  2  0  0  0  0
 25 24  1  0  0  0  0
M  END
> <CdId>
2817

> <Mol Weight>
349.403

> <Formula>
C20H15NO3S

> <Click_ID>
CLK037A08 __ __ 

$$$$
