CLK027_D02
 OpenBabel03181419432D

 26 28  0  0  0  0  0  0  0  0999 V2000
   -1.8076    0.5636    0.0000 N    0  0  0  0  0  0  0  0  0  0  0  0
   -0.9829    0.6427    0.0000 C    0  0  0  0  0  0  0  0  0  0  0  0
   -1.9829   -0.2474    0.0000 C    0  0  0  0  0  0  0  0  0  0  0  0
   -1.2715   -0.6633    0.0000 C    0  0  0  0  0  0  0  0  0  0  0  0
   -0.6563   -0.1134    0.0000 S    0  0  0  0  0  0  0  0  0  0  0  0
   -1.1856   -1.4846    0.0000 C    0  0  0  0  0  0  0  0  0  0  0  0
   -2.3574    1.1753    0.0000 C    0  0  0  0  0  0  0  0  0  0  0  0
    3.2407   -2.6873    0.0000 C    0  0  0  0  0  0  0  0  0  0  0  0
    3.9933   -3.0242    0.0000 C    0  0  0  0  0  0  0  0  0  0  0  0
   -0.5705    1.3540    0.0000 O    0  0  0  0  0  0  0  0  0  0  0  0
    0.9863   -1.6770    0.0000 C    0  0  0  0  0  0  0  0  0  0  0  0
   -2.7355   -0.5739    0.0000 O    0  0  0  0  0  0  0  0  0  0  0  0
   -0.4365   -1.8213    0.0000 C    0  0  0  0  0  0  0  0  0  0  0  0
    0.2303   -1.3368    0.0000 C    0  0  0  0  0  0  0  0  0  0  0  0
    1.0790   -2.5018    0.0000 C    0  0  0  0  0  0  0  0  0  0  0  0
   -3.1582    1.0138    0.0000 C    0  0  0  0  0  0  0  0  0  0  0  0
   -2.0963    1.9623    0.0000 C    0  0  0  0  0  0  0  0  0  0  0  0
    0.3986   -2.9829    0.0000 C    0  0  0  0  0  0  0  0  0  0  0  0
    1.6530   -1.1994    0.0000 Cl   0  0  0  0  0  0  0  0  0  0  0  0
   -0.3574   -2.6461    0.0000 C    0  0  0  0  0  0  0  0  0  0  0  0
   -3.4469    2.4124    0.0000 C    0  0  0  0  0  0  0  0  0  0  0  0
   -2.6358    2.5739    0.0000 C    0  0  0  0  0  0  0  0  0  0  0  0
   -3.7080    1.6289    0.0000 C    0  0  0  0  0  0  0  0  0  0  0  0
   -3.9966    3.0275    0.0000 Cl   0  0  0  0  0  0  0  0  0  0  0  0
    1.8283   -2.8386    0.0000 O    0  0  0  0  0  0  0  0  0  0  0  0
    2.4914   -2.3506    0.0000 C    0  0  0  0  0  0  0  0  0  0  0  0
  2  1  1  0  0  0  0
  3  1  1  0  0  0  0
  4  3  1  0  0  0  0
  4  5  1  0  0  0  0
  5  2  1  0  0  0  0
  6  4  2  0  0  0  0
  7  1  1  0  0  0  0
  8 26  1  0  0  0  0
  9  8  3  0  0  0  0
 10  2  2  0  0  0  0
 11 14  2  0  0  0  0
 11 15  1  0  0  0  0
 12  3  2  0  0  0  0
 13  6  1  0  0  0  0
 14 13  1  0  0  0  0
 15 18  2  0  0  0  0
 16  7  1  0  0  0  0
 17  7  2  0  0  0  0
 18 20  1  0  0  0  0
 19 11  1  0  0  0  0
 20 13  2  0  0  0  0
 21 22  2  0  0  0  0
 22 17  1  0  0  0  0
 23 16  2  0  0  0  0
 23 21  1  0  0  0  0
 24 21  1  0  0  0  0
 25 15  1  0  0  0  0
 26 25  1  0  0  0  0
M  END
> <CdId>
2044

> <Mol Weight>
404.267

> <Formula>
C19H11Cl2NO3S

> <Click_ID>
CLK027_D02 __ __ 

$$$$
