CLK032_B09
 OpenBabel03181419432D

 28 30  0  0  0  0  0  0  0  0999 V2000
   -1.8958    2.1583    0.0000 C   0  0  0  0  0  0  0  0  0  0  0  0
   -1.0708    2.1583    0.0000 N   0  0  0  0  0  0  0  0  0  0  0  0
   -2.3750    2.8208    0.0000 N   0  0  0  0  0  0  0  0  0  0  0  0
   -2.3750    1.4833    0.0000 S   0  0  0  0  0  0  0  0  0  0  0  0
   -3.1625    2.5583    0.0000 C   0  0  0  0  0  0  0  0  0  0  0  0
   -0.6583    1.4458    0.0000 C   0  0  0  0  0  0  0  0  0  0  0  0
   -3.1583    1.7333    0.0000 C   0  0  0  0  0  0  0  0  0  0  0  0
    0.1667    1.4458    0.0000 C   0  0  0  0  0  0  0  0  0  0  0  0
    1.8125    1.4500    0.0000 C   0  0  0  0  0  0  0  0  0  0  0  0
    1.4042    0.7375    0.0000 C   0  0  0  0  0  0  0  0  0  0  0  0
    1.4000    2.1708    0.0000 C   0  0  0  0  0  0  0  0  0  0  0  0
    0.5750    2.1625    0.0000 C   0  0  0  0  0  0  0  0  0  0  0  0
    0.5792    0.7333    0.0000 C   0  0  0  0  0  0  0  0  0  0  0  0
   -1.3208    3.7708    0.0000 C   0  0  0  0  0  0  0  0  0  0  0  0
   -0.5208    3.9458    0.0000 C   0  0  0  0  0  0  0  0  0  0  0  0
   -3.8750    2.9833    0.0000 C   0  0  0  0  0  0  0  0  0  0  0  0
   -1.0625    0.7250    0.0000 O   0  0  0  0  0  0  0  0  0  0  0  0
   -2.1250    3.6083    0.0000 C   0  0  0  0  0  0  0  0  0  0  0  0
    2.6375    1.4500    0.0000 O   0  0  0  0  0  0  0  0  0  0  0  0
    1.8125    2.8833    0.0000 O   0  0  0  0  0  0  0  0  0  0  0  0
    1.8167    0.0250    0.0000 O   0  0  0  0  0  0  0  0  0  0  0  0
   -3.8750    3.8000    0.0000 F   0  0  0  0  0  0  0  0  0  0  0  0
   -3.8750    1.3250    0.0000 C   0  0  0  0  0  0  0  0  0  0  0  0
   -4.5833    1.7333    0.0000 C   0  0  0  0  0  0  0  0  0  0  0  0
   -4.5833    2.5583    0.0000 C   0  0  0  0  0  0  0  0  0  0  0  0
    3.0500    2.1708    0.0000 C   0  0  0  0  0  0  0  0  0  0  0  0
    2.6375    2.8833    0.0000 C   0  0  0  0  0  0  0  0  0  0  0  0
    1.4042   -0.6917    0.0000 C   0  0  0  0  0  0  0  0  0  0  0  0
  2  1  2  0  0  0  0
  3  1  1  0  0  0  0
  4  1  1  0  0  0  0
  5  3  1  0  0  0  0
  6  2  1  0  0  0  0
  7  4  1  0  0  0  0
  7  5  2  0  0  0  0
  8  6  1  0  0  0  0
  9 10  2  0  0  0  0
  9 11  1  0  0  0  0
 10 13  1  0  0  0  0
 11 12  2  0  0  0  0
 12  8  1  0  0  0  0
 13  8  2  0  0  0  0
 14 18  1  0  0  0  0
 15 14  3  0  0  0  0
 16  5  1  0  0  0  0
 17  6  2  0  0  0  0
 18  3  1  0  0  0  0
 19  9  1  0  0  0  0
 20 11  1  0  0  0  0
 21 10  1  0  0  0  0
 22 16  1  0  0  0  0
 23  7  1  0  0  0  0
 24 23  2  0  0  0  0
 24 25  1  0  0  0  0
 25 16  2  0  0  0  0
 26 19  1  0  0  0  0
 27 20  1  0  0  0  0
 28 21  1  0  0  0  0
M  END
> <CdId>
2423

> <Mol Weight>
400.423

> <Formula>
C20H17FN2O4S

> <Click_ID>
CLK032_B09 __ __ 

$$$$
