CLK002_D09
 OpenBabel03181419432D

 32 34  0  0  0  0  0  0  0  0999 V2000
   -3.1065    1.0389    0.0000 C    0  0  0  0  0  0  0  0  0  0  0  0
   -2.3161    0.7836    0.0000 C    0  0  0  0  0  0  0  0  0  0  0  0
   -3.1031    1.8639    0.0000 C    0  0  0  0  0  0  0  0  0  0  0  0
   -3.8279    0.6213    0.0000 C    0  0  0  0  0  0  0  0  0  0  0  0
   -1.8294    1.4497    0.0000 C    0  0  0  0  0  0  0  0  0  0  0  0
   -2.0641   -0.0034    0.0000 C    0  0  0  0  0  0  0  0  0  0  0  0
   -2.3126    2.1228    0.0000 N    0  0  0  0  0  0  0  0  0  0  0  0
   -3.8279    2.2851    0.0000 C    0  0  0  0  0  0  0  0  0  0  0  0
   -4.5390    1.0355    0.0000 C    0  0  0  0  0  0  0  0  0  0  0  0
   -1.2529   -0.1795    0.0000 C    0  0  0  0  0  0  0  0  0  0  0  0
   -4.5390    1.8639    0.0000 C    0  0  0  0  0  0  0  0  0  0  0  0
   -1.0010   -0.9631    0.0000 N    0  0  0  0  0  0  0  0  0  0  0  0
   -0.2002   -1.1390    0.0000 C    0  0  0  0  0  0  0  0  0  0  0  0
    0.0587   -1.9191    0.0000 C    0  0  0  0  0  0  0  0  0  0  0  0
    0.3590   -0.5246    0.0000 O    0  0  0  0  0  0  0  0  0  0  0  0
    0.8664   -2.0952    0.0000 C    0  0  0  0  0  0  0  0  0  0  0  0
   -0.4902   -2.5335    0.0000 C    0  0  0  0  0  0  0  0  0  0  0  0
    1.4152   -1.4808    0.0000 C    0  0  0  0  0  0  0  0  0  0  0  0
   -1.0804   -3.1203    0.0000 N    0  0  0  0  0  0  0  0  0  0  0  0
    1.1597   -0.6938    0.0000 C    0  0  0  0  0  0  0  0  0  0  0  0
    2.2125   -1.6533    0.0000 C    0  0  0  0  0  0  0  0  0  0  0  0
    1.7120   -0.0932    0.0000 C    0  0  0  0  0  0  0  0  0  0  0  0
    2.7544   -1.0424    0.0000 C    0  0  0  0  0  0  0  0  0  0  0  0
    2.5128   -0.2624    0.0000 C    0  0  0  0  0  0  0  0  0  0  0  0
    1.4669    0.6869    0.0000 O    0  0  0  0  0  0  0  0  0  0  0  0
    3.5621   -1.2150    0.0000 Cl   0  0  0  0  0  0  0  0  0  0  0  0
    3.0685    0.3451    0.0000 O    0  0  0  0  0  0  0  0  0  0  0  0
    0.6662    0.8594    0.0000 C    0  0  0  0  0  0  0  0  0  0  0  0
    3.8693    0.1692    0.0000 C    0  0  0  0  0  0  0  0  0  0  0  0
    0.4142    1.6361    0.0000 C    0  0  0  0  0  0  0  0  0  0  0  0
    4.4182    0.7767    0.0000 C    0  0  0  0  0  0  0  0  0  0  0  0
    4.9808    1.3842    0.0000 C    0  0  0  0  0  0  0  0  0  0  0  0
  1  2  1  0  0  0  0
  1  3  2  0  0  0  0
  1  4  1  0  0  0  0
  2  5  2  0  0  0  0
  2  6  1  0  0  0  0
  3  7  1  0  0  0  0
  3  8  1  0  0  0  0
  4  9  2  0  0  0  0
  5  7  1  0  0  0  0
  6 10  1  0  0  0  0
  8 11  2  0  0  0  0
  9 11  1  0  0  0  0
 10 12  1  0  0  0  0
 12 13  1  0  0  0  0
 13 14  1  0  0  0  0
 13 15  2  0  0  0  0
 14 16  2  0  0  0  0
 14 17  1  0  0  0  0
 16 18  1  0  0  0  0
 17 19  3  0  0  0  0
 18 20  2  0  0  0  0
 18 21  1  0  0  0  0
 20 22  1  0  0  0  0
 21 23  2  0  0  0  0
 22 24  2  0  0  0  0
 22 25  1  0  0  0  0
 23 26  1  0  0  0  0
 23 24  1  0  0  0  0
 24 27  1  0  0  0  0
 25 28  1  0  0  0  0
 27 29  1  0  0  0  0
 28 30  1  0  0  0  0
 29 31  1  0  0  0  0
 31 32  3  0  0  0  0
M  END
> <CdId>
118

> <Mol Weight>
447.913

> <Formula>
C25H22ClN3O3

> <Click_ID>
CLK002_D09 __ __ 

$$$$
