CLK003_B10
 OpenBabel03181419432D

 26 29  0  0  0  0  0  0  0  0999 V2000
   -0.2246   -1.3703    0.0000 C   0  0  0  0  0  0  0  0  0  0  0  0
    0.5778   -1.1788    0.0000 N   0  0  0  0  0  0  0  0  0  0  0  0
   -0.2840   -2.1959    0.0000 C   0  0  0  0  0  0  0  0  0  0  0  0
   -0.9147   -0.9147    0.0000 C   0  0  0  0  0  0  0  0  0  0  0  0
    1.0005   -1.8921    0.0000 C   0  0  0  0  0  0  0  0  0  0  0  0
    0.8090   -0.3963    0.0000 C   0  0  0  0  0  0  0  0  0  0  0  0
    0.4458   -2.5030    0.0000 N   0  0  0  0  0  0  0  0  0  0  0  0
   -1.0369   -2.5624    0.0000 C   0  0  0  0  0  0  0  0  0  0  0  0
   -1.6609   -1.2977    0.0000 C   0  0  0  0  0  0  0  0  0  0  0  0
    1.8359   -1.9449    0.0000 S   0  0  0  0  0  0  0  0  0  0  0  0
    0.2542    0.1981    0.0000 C   0  0  0  0  0  0  0  0  0  0  0  0
    1.6114   -0.2047    0.0000 O   0  0  0  0  0  0  0  0  0  0  0  0
   -1.7072   -2.0836    0.0000 C   0  0  0  0  0  0  0  0  0  0  0  0
    2.3015   -1.2581    0.0000 C   0  0  0  0  0  0  0  0  0  0  0  0
    0.4821    0.9807    0.0000 C   0  0  0  0  0  0  0  0  0  0  0  0
    3.1270   -1.3176    0.0000 C   0  0  0  0  0  0  0  0  0  0  0  0
   -0.0925    1.5982    0.0000 C   0  0  0  0  0  0  0  0  0  0  0  0
    3.9690   -1.3703    0.0000 C   0  0  0  0  0  0  0  0  0  0  0  0
   -0.8949    1.4232    0.0000 C   0  0  0  0  0  0  0  0  0  0  0  0
    0.1585    2.3808    0.0000 C   0  0  0  0  0  0  0  0  0  0  0  0
   -1.4529    2.0176    0.0000 C   0  0  0  0  0  0  0  0  0  0  0  0
   -0.3995    2.9916    0.0000 C   0  0  0  0  0  0  0  0  0  0  0  0
   -1.2020    2.8001    0.0000 C   0  0  0  0  0  0  0  0  0  0  0  0
   -2.2818    2.0176    0.0000 O   0  0  0  0  0  0  0  0  0  0  0  0
   -1.8723    3.2789    0.0000 O   0  0  0  0  0  0  0  0  0  0  0  0
   -2.5326    2.8001    0.0000 C   0  0  0  0  0  0  0  0  0  0  0  0
  1  2  1  0  0  0  0
  1  3  2  0  0  0  0
  1  4  1  0  0  0  0
  2  5  1  0  0  0  0
  2  6  1  0  0  0  0
  3  7  1  0  0  0  0
  3  8  1  0  0  0  0
  4  9  2  0  0  0  0
  5 10  1  0  0  0  0
  5  7  2  0  0  0  0
  6 11  1  0  0  0  0
  6 12  2  0  0  0  0
  8 13  2  0  0  0  0
  9 13  1  0  0  0  0
 10 14  1  0  0  0  0
 11 15  2  0  0  0  0
 14 16  1  0  0  0  0
 15 17  1  0  0  0  0
 16 18  3  0  0  0  0
 17 19  1  0  0  0  0
 17 20  2  0  0  0  0
 19 21  2  0  0  0  0
 20 22  1  0  0  0  0
 21 23  1  0  0  0  0
 21 24  1  0  0  0  0
 22 23  2  0  0  0  0
 23 25  1  0  0  0  0
 24 26  1  0  0  0  0
 25 26  1  0  0  0  0
M  END
> <CdId>
179

> <Mol Weight>
362.402

> <Formula>
C20H14N2O3S

> <Click_ID>
CLK003_B10 __ __ 

$$$$
