CLK004_A04
 OpenBabel03181419432D

 21 22  0  0  0  0  0  0  0  0999 V2000
    5.6266   -8.7433    0.0000 C   0  0  0  0  0  0  0  0  0  0  0  0
    6.8608   -8.0368    0.0000 C   0  0  0  0  0  0  0  0  0  0  0  0
    4.8038   -8.7391    0.0000 C   0  0  0  0  0  0  0  0  0  0  0  0
    6.0380   -8.0285    0.0000 N   0  0  0  0  0  0  0  0  0  0  0  0
    7.2598   -7.3179    0.0000 C   0  0  0  0  0  0  0  0  0  0  0  0
    6.0463   -9.4539    0.0000 C   0  0  0  0  0  0  0  0  0  0  0  0
    4.3841   -8.0285    0.0000 C   0  0  0  0  0  0  0  0  0  0  0  0
    8.1116  -10.1520    0.0000 C   0  0  0  0  0  0  0  0  0  0  0  0
    3.5613   -7.9454    0.0000 N   0  0  0  0  0  0  0  0  0  0  0  0
    8.9303  -10.1561    0.0000 C   0  0  0  0  0  0  0  0  0  0  0  0
    8.0826   -7.2307    0.0000 O   0  0  0  0  0  0  0  0  0  0  0  0
    7.2805   -8.7516    0.0000 O   0  0  0  0  0  0  0  0  0  0  0  0
    6.9148   -6.5741    0.0000 C   0  0  0  0  0  0  0  0  0  0  0  0
    3.3951   -7.1434    0.0000 C   0  0  0  0  0  0  0  0  0  0  0  0
    4.7207   -7.2722    0.0000 C   0  0  0  0  0  0  0  0  0  0  0  0
    5.6391  -10.1728    0.0000 O   0  0  0  0  0  0  0  0  0  0  0  0
    8.2446   -6.4161    0.0000 C   0  0  0  0  0  0  0  0  0  0  0  0
    7.5340   -6.0131    0.0000 C   0  0  0  0  0  0  0  0  0  0  0  0
    4.1015   -6.7237    0.0000 C   0  0  0  0  0  0  0  0  0  0  0  0
    6.8691   -9.4497    0.0000 N   0  0  0  0  0  0  0  0  0  0  0  0
    7.2847  -10.1603    0.0000 C   0  0  0  0  0  0  0  0  0  0  0  0
  2  4  1  0  0  0  0
  3  1  2  0  0  0  0
  4  1  1  0  0  0  0
  5  2  1  0  0  0  0
  6  1  1  0  0  0  0
  7  3  1  0  0  0  0
  8 21  1  0  0  0  0
  9  7  1  0  0  0  0
 10  8  3  0  0  0  0
 11  5  1  0  0  0  0
 12  2  2  0  0  0  0
 13  5  2  0  0  0  0
 14  9  1  0  0  0  0
 15  7  2  0  0  0  0
 16  6  2  0  0  0  0
 17 11  1  0  0  0  0
 18 13  1  0  0  0  0
 18 17  2  0  0  0  0
 19 15  1  0  0  0  0
 19 14  2  0  0  0  0
 20  6  1  0  0  0  0
 21 20  1  0  0  0  0
M  END
> <CdId>
243

> <Mol Weight>
283.282

> <Formula>
C15H13N3O3

> <Click_ID>
CLK004_A04 __ __ 

$$$$
