CLK012_G07
 OpenBabel03181419432D

 24 26  0  0  0  0  0  0  0  0999 V2000
    1.6539   -0.7697    0.0000 C    0  0  3  0  0  0  0  0  0  0  0  0
    2.0479   -1.4981    0.0000 C    0  0  0  0  0  0  0  0  0  0  0  0
    1.4706   -2.0891    0.0000 N    0  0  0  0  0  0  0  0  0  0  0  0
    0.8430   -0.9117    0.0000 C    0  0  0  0  0  0  0  0  0  0  0  0
    0.7331   -1.7227    0.0000 C    0  0  0  0  0  0  0  0  0  0  0  0
    2.5885   -0.1421    0.0000 C    0  0  0  0  0  0  0  0  0  0  0  0
    3.3811   -0.5544    0.0000 C    0  0  0  0  0  0  0  0  0  0  0  0
    0.9805   -3.4270    0.0000 C    0  0  0  0  0  0  0  0  0  0  0  0
    0.3482   -3.9584    0.0000 C    0  0  0  0  0  0  0  0  0  0  0  0
    2.8634   -1.6127    0.0000 O    0  0  0  0  0  0  0  0  0  0  0  0
    4.0729   -0.1008    0.0000 C    0  0  0  0  0  0  0  0  0  0  0  0
    1.6127   -2.9001    0.0000 C    0  0  0  0  0  0  0  0  0  0  0  0
    1.3928    0.1741    0.0000 O    0  0  0  0  0  0  0  0  0  0  0  0
    3.4132   -1.2416    0.0000 O    0  0  0  0  0  0  0  0  0  0  0  0
    4.0408    0.7147    0.0000 C    0  0  0  0  0  0  0  0  0  0  0  0
    4.8014   -0.4857    0.0000 C    0  0  0  0  0  0  0  0  0  0  0  0
    5.4611    0.7788    0.0000 C    0  0  0  0  0  0  0  0  0  0  0  0
    0.1970   -0.3986    0.0000 C    0  0  0  0  0  0  0  0  0  0  0  0
    4.7327    1.1636    0.0000 C    0  0  0  0  0  0  0  0  0  0  0  0
    5.5023   -0.0459    0.0000 C    0  0  0  0  0  0  0  0  0  0  0  0
    6.1621    1.2232    0.0000 Br   0  0  0  0  0  0  0  0  0  0  0  0
   -0.0366   -2.0342    0.0000 C    0  0  0  0  0  0  0  0  0  0  0  0
   -0.5635   -0.7056    0.0000 C    0  0  0  0  0  0  0  0  0  0  0  0
   -0.6826   -1.5256    0.0000 C    0  0  0  0  0  0  0  0  0  0  0  0
  2  1  1  0  0  0  0
  3  2  1  0  0  0  0
  4  1  1  0  0  0  0
  5  4  2  0  0  0  0
  5  3  1  0  0  0  0
  6  1  1  0  0  0  0
  7  6  1  0  0  0  0
  8 12  1  0  0  0  0
  9  8  3  0  0  0  0
 10  2  2  0  0  0  0
 11  7  1  0  0  0  0
 12  3  1  0  0  0  0
 13  1  1  0  0  0  0
 14  7  2  0  0  0  0
 15 11  2  0  0  0  0
 16 11  1  0  0  0  0
 17 20  1  0  0  0  0
 17 19  2  0  0  0  0
 18  4  1  0  0  0  0
 19 15  1  0  0  0  0
 20 16  2  0  0  0  0
 21 17  1  0  0  0  0
 22  5  1  0  0  0  0
 23 18  2  0  0  0  0
 24 23  1  0  0  0  0
 24 22  2  0  0  0  0
M  END
> <CdId>
902

> <Mol Weight>
384.223

> <Formula>
C19H14BrNO3

> <Click_ID>
CLK012_G07 __ __ 

$$$$
