CLK048H08
 OpenBabel03181419432D

 21 22  0  0  0  0  0  0  0  0999 V2000
    1.5958   -0.4875    0.0000 S   0  0  0  0  0  0  0  0  0  0  0  0
    0.8833    0.7500    0.0000 C   0  0  0  0  0  0  0  0  0  0  0  0
    0.1667    0.3375    0.0000 C   0  0  0  0  0  0  0  0  0  0  0  0
    1.5958    0.3375    0.0000 C   0  0  0  0  0  0  0  0  0  0  0  0
   -0.5458    0.7500    0.0000 N   0  0  0  0  0  0  0  0  0  0  0  0
   -1.9750   -1.7250    0.0000 C   0  0  0  0  0  0  0  0  0  0  0  0
   -1.9750   -2.5500    0.0000 C   0  0  0  0  0  0  0  0  0  0  0  0
    0.7708   -0.4875    0.0000 O   0  0  0  0  0  0  0  0  0  0  0  0
    1.5958   -1.3125    0.0000 O   0  0  0  0  0  0  0  0  0  0  0  0
    0.1667   -0.4875    0.0000 O   0  0  0  0  0  0  0  0  0  0  0  0
   -1.2625    0.3375    0.0000 C   0  0  0  0  0  0  0  0  0  0  0  0
   -1.9750   -0.9000    0.0000 C   0  0  0  0  0  0  0  0  0  0  0  0
   -1.2625   -0.4875    0.0000 C   0  0  0  0  0  0  0  0  0  0  0  0
    2.4208   -0.4875    0.0000 C   0  0  0  0  0  0  0  0  0  0  0  0
    0.8833    1.5750    0.0000 C   0  0  0  0  0  0  0  0  0  0  0  0
    2.3125    0.7500    0.0000 C   0  0  0  0  0  0  0  0  0  0  0  0
   -2.6917    0.3375    0.0000 C   0  0  0  0  0  0  0  0  0  0  0  0
   -1.9750    0.7500    0.0000 C   0  0  0  0  0  0  0  0  0  0  0  0
   -2.6917   -0.4875    0.0000 C   0  0  0  0  0  0  0  0  0  0  0  0
    1.5958    1.9875    0.0000 C   0  0  0  0  0  0  0  0  0  0  0  0
    2.3125    1.5750    0.0000 C   0  0  0  0  0  0  0  0  0  0  0  0
  2  4  2  0  0  0  0
  3  2  1  0  0  0  0
  4  1  1  0  0  0  0
  5  3  1  0  0  0  0
  6 12  1  0  0  0  0
  7  6  3  0  0  0  0
  8  1  2  0  0  0  0
  9  1  2  0  0  0  0
 10  3  2  0  0  0  0
 11  5  1  0  0  0  0
 12 13  1  0  0  0  0
 13 11  2  0  0  0  0
 14  1  1  0  0  0  0
 15  2  1  0  0  0  0
 16  4  1  0  0  0  0
 17 18  2  0  0  0  0
 18 11  1  0  0  0  0
 19 12  2  0  0  0  0
 19 17  1  0  0  0  0
 20 15  2  0  0  0  0
 20 21  1  0  0  0  0
 21 16  2  0  0  0  0
M  END
> <CdId>
3704

> <Mol Weight>
299.344

> <Formula>
C16H13NO3S

> <Click_ID>
CLK048H08 __ __ 

$$$$
