CLK003_H02
 OpenBabel03181419432D

 26 28  0  0  0  0  0  0  0  0999 V2000
   -1.6598   -0.0492    0.0000 C   0  0  0  0  0  0  0  0  0  0  0  0
   -0.8488    0.0871    0.0000 C   0  0  3  0  0  0  0  0  0  0  0  0
   -1.7735   -0.8716    0.0000 C   0  0  0  0  0  0  0  0  0  0  0  0
   -2.3041    0.4585    0.0000 C   0  0  0  0  0  0  0  0  0  0  0  0
   -0.4623   -0.6405    0.0000 C   0  0  0  0  0  0  0  0  0  0  0  0
    0.0834    0.7200    0.0000 C   0  0  0  0  0  0  0  0  0  0  0  0
   -1.1103    1.0270    0.0000 O   0  0  0  0  0  0  0  0  0  0  0  0
   -1.0383   -1.2316    0.0000 N   0  0  0  0  0  0  0  0  0  0  0  0
   -2.5389   -1.1785    0.0000 C   0  0  0  0  0  0  0  0  0  0  0  0
   -3.0733    0.1554    0.0000 C   0  0  0  0  0  0  0  0  0  0  0  0
    0.3562   -0.7504    0.0000 O   0  0  0  0  0  0  0  0  0  0  0  0
    0.8678    0.3069    0.0000 C   0  0  0  0  0  0  0  0  0  0  0  0
   -0.8943   -2.0425    0.0000 C   0  0  0  0  0  0  0  0  0  0  0  0
   -3.1870   -0.6670    0.0000 C   0  0  0  0  0  0  0  0  0  0  0  0
    1.5689    0.7465    0.0000 C   0  0  0  0  0  0  0  0  0  0  0  0
    0.9056   -0.3789    0.0000 O   0  0  0  0  0  0  0  0  0  0  0  0
   -1.5272   -2.5731    0.0000 C   0  0  0  0  0  0  0  0  0  0  0  0
    2.2965    0.3676    0.0000 C   0  0  0  0  0  0  0  0  0  0  0  0
    1.5272    1.5689    0.0000 C   0  0  0  0  0  0  0  0  0  0  0  0
   -2.1563   -3.0998    0.0000 C   0  0  0  0  0  0  0  0  0  0  0  0
    2.9937    0.8148    0.0000 C   0  0  0  0  0  0  0  0  0  0  0  0
    2.3267   -0.4472    0.0000 C   0  0  0  0  0  0  0  0  0  0  0  0
    2.2244    2.0160    0.0000 C   0  0  0  0  0  0  0  0  0  0  0  0
    0.7996    1.9554    0.0000 C   0  0  0  0  0  0  0  0  0  0  0  0
    2.9559    1.6409    0.0000 C   0  0  0  0  0  0  0  0  0  0  0  0
    3.6530    2.0804    0.0000 C   0  0  0  0  0  0  0  0  0  0  0  0
  1  2  1  0  0  0  0
  1  3  2  0  0  0  0
  1  4  1  0  0  0  0
  2  5  1  0  0  0  0
  2  6  1  0  0  0  0
  2  7  1  0  0  0  0
  3  8  1  0  0  0  0
  3  9  1  0  0  0  0
  4 10  2  0  0  0  0
  5 11  2  0  0  0  0
  5  8  1  0  0  0  0
  6 12  1  0  0  0  0
  8 13  1  0  0  0  0
  9 14  2  0  0  0  0
 10 14  1  0  0  0  0
 12 15  1  0  0  0  0
 12 16  2  0  0  0  0
 13 17  1  0  0  0  0
 15 18  1  0  0  0  0
 15 19  2  0  0  0  0
 17 20  3  0  0  0  0
 18 21  2  0  0  0  0
 18 22  1  0  0  0  0
 19 23  1  0  0  0  0
 19 24  1  0  0  0  0
 21 25  1  0  0  0  0
 23 25  2  0  0  0  0
 25 26  1  0  0  0  0
M  END
> <CdId>
231

> <Mol Weight>
347.407

> <Formula>
C22H21NO3

> <Click_ID>
CLK003_H02 __ __ 

$$$$
