CLK024_F03
 OpenBabel03181419432D

 32 34  0  0  0  0  0  0  0  0999 V2000
   -1.9016   -2.7268    0.0000 N   0  0  0  0  0  0  0  0  0  0  0  0
   -1.6470   -3.5245    0.0000 C   0  0  0  0  0  0  0  0  0  0  0  0
   -1.2379   -2.2488    0.0000 C   0  0  0  0  0  0  0  0  0  0  0  0
   -0.5742   -2.7405    0.0000 C   0  0  0  0  0  0  0  0  0  0  0  0
   -0.8356   -3.5245    0.0000 S   0  0  0  0  0  0  0  0  0  0  0  0
    0.7496   -0.0791    0.0000 C   0  0  0  0  0  0  0  0  0  0  0  0
    0.2132   -2.4896    0.0000 C   0  0  0  0  0  0  0  0  0  0  0  0
    1.3582   -0.6361    0.0000 C   0  0  0  0  0  0  0  0  0  0  0  0
   -0.0413   -0.3301    0.0000 C   0  0  0  0  0  0  0  0  0  0  0  0
    0.3955   -1.6883    0.0000 C   0  0  0  0  0  0  0  0  0  0  0  0
    2.2488    3.3767    0.0000 C   0  0  0  0  0  0  0  0  0  0  0  0
    0.9249    0.7256    0.0000 O   0  0  0  0  0  0  0  0  0  0  0  0
   -2.8609   -1.6540    0.0000 C   0  0  0  0  0  0  0  0  0  0  0  0
   -2.2488   -1.1038    0.0000 C   0  0  0  0  0  0  0  0  0  0  0  0
    1.4614    3.1360    0.0000 C   0  0  0  0  0  0  0  0  0  0  0  0
   -2.1354   -4.1882    0.0000 O   0  0  0  0  0  0  0  0  0  0  0  0
    1.1760   -1.4407    0.0000 C   0  0  0  0  0  0  0  0  0  0  0  0
   -0.2166   -1.1382    0.0000 C   0  0  0  0  0  0  0  0  0  0  0  0
   -1.2276   -1.4167    0.0000 O   0  0  0  0  0  0  0  0  0  0  0  0
   -2.6889   -2.4655    0.0000 C   0  0  0  0  0  0  0  0  0  0  0  0
    1.2826    2.3314    0.0000 C   0  0  0  0  0  0  0  0  0  0  0  0
    2.4242    4.1882    0.0000 O   0  0  0  0  0  0  0  0  0  0  0  0
    2.1457   -0.3920    0.0000 I   0  0  0  0  0  0  0  0  0  0  0  0
    0.3129    1.2826    0.0000 C   0  0  0  0  0  0  0  0  0  0  0  0
    2.8575    2.8230    0.0000 O   0  0  0  0  0  0  0  0  0  0  0  0
    0.4952    2.0872    0.0000 C   0  0  0  0  0  0  0  0  0  0  0  0
   -0.6499    0.2235    0.0000 O   0  0  0  0  0  0  0  0  0  0  0  0
    0.8494    3.6896    0.0000 C   0  0  0  0  0  0  0  0  0  0  0  0
    0.0619    3.4386    0.0000 C   0  0  0  0  0  0  0  0  0  0  0  0
   -0.1135    2.6374    0.0000 C   0  0  0  0  0  0  0  0  0  0  0  0
   -1.4373   -0.0241    0.0000 C   0  0  0  0  0  0  0  0  0  0  0  0
   -2.0494    0.5330    0.0000 C   0  0  0  0  0  0  0  0  0  0  0  0
  2  1  1  0  0  0  0
  3  1  1  0  0  0  0
  4  3  1  0  0  0  0
  5  2  1  0  0  0  0
  5  4  1  0  0  0  0
  6  9  1  0  0  0  0
  7  4  2  0  0  0  0
  8 17  1  0  0  0  0
  8  6  2  0  0  0  0
  9 18  2  0  0  0  0
 10  7  1  0  0  0  0
 11 15  1  0  0  0  0
 12  6  1  0  0  0  0
 13 20  1  0  0  0  0
 14 13  3  0  0  0  0
 15 21  1  0  0  0  0
 15 28  2  0  0  0  0
 16  2  2  0  0  0  0
 17 10  2  0  0  0  0
 18 10  1  0  0  0  0
 19  3  2  0  0  0  0
 20  1  1  0  0  0  0
 21 26  2  0  0  0  0
 22 11  2  0  0  0  0
 23  8  1  0  0  0  0
 24 12  1  0  0  0  0
 25 11  1  0  0  0  0
 26 24  1  0  0  0  0
 27  9  1  0  0  0  0
 28 29  1  0  0  0  0
 29 30  2  0  0  0  0
 30 26  1  0  0  0  0
 31 27  1  0  0  0  0
 32 31  1  0  0  0  0
M  END
> <CdId>
1828

> <Mol Weight>
563.362

> <Formula>
C23H18INO6S

> <Click_ID>
CLK024_F03 __ __ 

$$$$
