CLK009_A06
 OpenBabel03181419432D

 30 33  0  0  0  0  0  0  0  0999 V2000
    1.7557    0.0211    0.0000 N   0  0  0  0  0  0  0  0  0  0  0  0
    1.2734    0.6727    0.0000 C   0  0  0  0  0  0  0  0  0  0  0  0
    1.2734   -0.6642    0.0000 C   0  0  0  0  0  0  0  0  0  0  0  0
    0.4739    0.4188    0.0000 C   0  0  0  0  0  0  0  0  0  0  0  0
    0.4739   -0.4358    0.0000 C   0  0  0  0  0  0  0  0  0  0  0  0
   -4.5520   -0.8123    0.0000 N   0  3  0  0  0  0  0  0  0  0  0  0
    2.5764    0.0211    0.0000 C   0  0  0  0  0  0  0  0  0  0  0  0
   -0.2496    0.8461    0.0000 C   0  0  0  0  0  0  0  0  0  0  0  0
   -0.9773    0.4188    0.0000 C   0  0  0  0  0  0  0  0  0  0  0  0
   -1.6964    0.8123    0.0000 C   0  0  0  0  0  0  0  0  0  0  0  0
    4.1798    1.4680    0.0000 C   0  0  0  0  0  0  0  0  0  0  0  0
   -0.2496   -0.8419    0.0000 C   0  0  0  0  0  0  0  0  0  0  0  0
   -3.8286   -0.4104    0.0000 C   0  0  0  0  0  0  0  0  0  0  0  0
    5.0048    1.4680    0.0000 C   0  0  0  0  0  0  0  0  0  0  0  0
    1.5611    1.4680    0.0000 O   0  0  0  0  0  0  0  0  0  0  0  0
    1.5611   -1.4595    0.0000 O   0  0  0  0  0  0  0  0  0  0  0  0
   -5.2416   -0.3850    0.0000 O   0  5  0  0  0  0  0  0  0  0  0  0
   -4.5647   -1.6542    0.0000 O   0  0  0  0  0  0  0  0  0  0  0  0
   -2.3860    0.4188    0.0000 C   0  0  0  0  0  0  0  0  0  0  0  0
    2.9614    0.7319    0.0000 C   0  0  0  0  0  0  0  0  0  0  0  0
   -0.9773   -0.4358    0.0000 C   0  0  0  0  0  0  0  0  0  0  0  0
   -1.6880    1.6583    0.0000 O   0  0  0  0  0  0  0  0  0  0  0  0
   -3.8286    0.3892    0.0000 C   0  0  0  0  0  0  0  0  0  0  0  0
   -3.1095   -0.8123    0.0000 C   0  0  0  0  0  0  0  0  0  0  0  0
   -3.1179    0.8080    0.0000 C   0  0  0  0  0  0  0  0  0  0  0  0
   -2.3860   -0.4061    0.0000 C   0  0  0  0  0  0  0  0  0  0  0  0
    3.7864    0.7234    0.0000 C   0  0  0  0  0  0  0  0  0  0  0  0
    3.0249   -0.6600    0.0000 C   0  0  0  0  0  0  0  0  0  0  0  0
    3.8371   -0.6600    0.0000 C   0  0  0  0  0  0  0  0  0  0  0  0
    4.2433    0.0508    0.0000 C   0  0  0  0  0  0  0  0  0  0  0  0
  2  1  1  0  0  0  0
  3  1  1  0  0  0  0
  4  2  1  0  0  0  0
  5  3  1  0  0  0  0
  5  4  1  0  0  0  0
  6 13  1  0  0  0  0
  7  1  1  0  0  0  0
  8  4  2  0  0  0  0
  9  8  1  0  0  0  0
 10  9  1  0  0  0  0
 11 27  1  0  0  0  0
 12  5  2  0  0  0  0
 13 24  1  0  0  0  0
 13 23  2  0  0  0  0
 14 11  3  0  0  0  0
 15  2  2  0  0  0  0
 16  3  2  0  0  0  0
 17  6  1  0  0  0  0
 18  6  2  0  0  0  0
 19 10  1  0  0  0  0
 20  7  1  0  0  0  0
 21 12  1  0  0  0  0
 21  9  2  0  0  0  0
 22 10  2  0  0  0  0
 23 25  1  0  0  0  0
 24 26  2  0  0  0  0
 25 19  2  0  0  0  0
 26 19  1  0  0  0  0
 27 20  2  0  0  0  0
 27 30  1  0  0  0  0
 28  7  2  0  0  0  0
 29 28  1  0  0  0  0
 30 29  2  0  0  0  0
M  END
> <CdId>
601

> <Mol Weight>
396.3518

> <Formula>
C23H12N2O5

> <Click_ID>
CLK009_A06 __ __ 

$$$$
