CLK001_F02
 OpenBabel03181419432D

 27 29  0  0  0  0  0  0  0  0999 V2000
   -1.9543   -0.2618    0.0000 C   0  0  0  0  0  0  0  0  0  0  0  0
   -1.1422   -0.1138    0.0000 C   0  0  3  0  0  0  0  0  0  0  0  0
   -2.0644   -1.0777    0.0000 C   0  0  0  0  0  0  0  0  0  0  0  0
   -2.5994    0.2581    0.0000 C   0  0  0  0  0  0  0  0  0  0  0  0
   -0.7476   -0.8424    0.0000 C   0  0  0  0  0  0  0  0  0  0  0  0
   -0.2049    0.5085    0.0000 C   0  0  0  0  0  0  0  0  0  0  0  0
   -1.4041    0.8196    0.0000 O   0  0  0  0  0  0  0  0  0  0  0  0
   -1.3243   -1.4344    0.0000 N   0  0  0  0  0  0  0  0  0  0  0  0
   -2.8347   -1.3813    0.0000 C   0  0  0  0  0  0  0  0  0  0  0  0
   -3.3622   -0.0532    0.0000 C   0  0  0  0  0  0  0  0  0  0  0  0
    0.0683   -0.9639    0.0000 O   0  0  0  0  0  0  0  0  0  0  0  0
    0.5882    0.0949    0.0000 C   0  0  0  0  0  0  0  0  0  0  0  0
   -1.1840   -2.2465    0.0000 C   0  0  0  0  0  0  0  0  0  0  0  0
   -3.4798   -0.8728    0.0000 C   0  0  0  0  0  0  0  0  0  0  0  0
    1.2789    0.5465    0.0000 C   0  0  0  0  0  0  0  0  0  0  0  0
    0.6186   -0.5919    0.0000 O   0  0  0  0  0  0  0  0  0  0  0  0
   -1.8139   -2.7816    0.0000 C   0  0  0  0  0  0  0  0  0  0  0  0
    1.2485    1.3699    0.0000 C   0  0  0  0  0  0  0  0  0  0  0  0
    2.0074    0.1593    0.0000 C   0  0  0  0  0  0  0  0  0  0  0  0
   -2.4476   -3.3052    0.0000 C   0  0  0  0  0  0  0  0  0  0  0  0
    1.9392    1.8101    0.0000 C   0  0  0  0  0  0  0  0  0  0  0  0
    2.7095    0.6071    0.0000 C   0  0  0  0  0  0  0  0  0  0  0  0
    2.6677    1.4306    0.0000 C   0  0  0  0  0  0  0  0  0  0  0  0
    3.3698    1.8784    0.0000 C   0  0  0  0  0  0  0  0  0  0  0  0
    2.6374    2.2503    0.0000 C   0  0  0  0  0  0  0  0  0  0  0  0
    3.3280    2.6981    0.0000 C   0  0  0  0  0  0  0  0  0  0  0  0
    4.0983    1.4951    0.0000 C   0  0  0  0  0  0  0  0  0  0  0  0
  1  2  1  0  0  0  0
  1  3  2  0  0  0  0
  1  4  1  0  0  0  0
  2  5  1  0  0  0  0
  2  6  1  0  0  0  0
  2  7  1  0  0  0  0
  3  8  1  0  0  0  0
  3  9  1  0  0  0  0
  4 10  2  0  0  0  0
  5 11  2  0  0  0  0
  5  8  1  0  0  0  0
  6 12  1  0  0  0  0
  8 13  1  0  0  0  0
  9 14  2  0  0  0  0
 10 14  1  0  0  0  0
 12 15  1  0  0  0  0
 12 16  2  0  0  0  0
 13 17  1  0  0  0  0
 15 18  2  0  0  0  0
 15 19  1  0  0  0  0
 17 20  3  0  0  0  0
 18 21  1  0  0  0  0
 19 22  2  0  0  0  0
 21 23  2  0  0  0  0
 22 23  1  0  0  0  0
 23 24  1  0  0  0  0
 24 25  1  0  0  0  0
 24 26  1  0  0  0  0
 24 27  1  0  0  0  0
M  END
> <CdId>
51

> <Mol Weight>
361.4336

> <Formula>
C23H23NO3

> <Click_ID>
CLK001_F02 __ __ 

$$$$
