CLK033_E02
 OpenBabel03181419432D

 24 26  0  0  0  0  0  0  0  0999 V2000
   -4.6053    2.5636    0.0000 C    0  0  0  0  0  0  0  0  0  0  0  0
   -3.8705    2.9895    0.0000 N    0  0  0  0  0  0  0  0  0  0  0  0
   -4.6930    1.7369    0.0000 N    0  0  0  0  0  0  0  0  0  0  0  0
   -5.3318    2.9018    0.0000 S    0  0  0  0  0  0  0  0  0  0  0  0
   -3.8788    3.8079    0.0000 C    0  0  0  0  0  0  0  0  0  0  0  0
   -5.4989    1.5866    0.0000 C    0  0  0  0  0  0  0  0  0  0  0  0
   -5.9080    2.3048    0.0000 C    0  0  0  0  0  0  0  0  0  0  0  0
   -3.1648    4.2212    0.0000 C    0  0  0  0  0  0  0  0  0  0  0  0
   -4.2671    0.3590    0.0000 C    0  0  0  0  0  0  0  0  0  0  0  0
   -4.4550   -0.4551    0.0000 C    0  0  0  0  0  0  0  0  0  0  0  0
   -2.4509    3.8162    0.0000 C    0  0  0  0  0  0  0  0  0  0  0  0
   -5.9331    0.8851    0.0000 C    0  0  0  0  0  0  0  0  0  0  0  0
   -4.5928    4.2254    0.0000 O    0  0  0  0  0  0  0  0  0  0  0  0
   -4.0792    1.1649    0.0000 C    0  0  0  0  0  0  0  0  0  0  0  0
   -2.4634    2.9770    0.0000 Cl   0  0  0  0  0  0  0  0  0  0  0  0
   -6.7181    2.3256    0.0000 C    0  0  0  0  0  0  0  0  0  0  0  0
   -3.1565    5.0396    0.0000 C    0  0  0  0  0  0  0  0  0  0  0  0
   -5.5322    0.1461    0.0000 O    0  0  0  0  0  0  0  0  0  0  0  0
   -7.1565    1.6242    0.0000 C    0  0  0  0  0  0  0  0  0  0  0  0
   -6.7431    0.8893    0.0000 C    0  0  0  0  0  0  0  0  0  0  0  0
   -1.7369    4.2212    0.0000 C    0  0  0  0  0  0  0  0  0  0  0  0
   -5.9706   -0.5553    0.0000 C    0  0  0  0  0  0  0  0  0  0  0  0
   -2.4383    5.4530    0.0000 C    0  0  0  0  0  0  0  0  0  0  0  0
   -1.7244    5.0396    0.0000 C    0  0  0  0  0  0  0  0  0  0  0  0
  2  1  2  0  0  0  0
  3  1  1  0  0  0  0
  4  1  1  0  0  0  0
  5  2  1  0  0  0  0
  6  3  1  0  0  0  0
  7  4  1  0  0  0  0
  7  6  2  0  0  0  0
  8  5  1  0  0  0  0
  9 14  1  0  0  0  0
 10  9  3  0  0  0  0
 11  8  2  0  0  0  0
 12  6  1  0  0  0  0
 13  5  2  0  0  0  0
 14  3  1  0  0  0  0
 15 11  1  0  0  0  0
 16  7  1  0  0  0  0
 17  8  1  0  0  0  0
 18 12  1  0  0  0  0
 19 16  2  0  0  0  0
 20 12  2  0  0  0  0
 20 19  1  0  0  0  0
 21 11  1  0  0  0  0
 22 18  1  0  0  0  0
 23 17  2  0  0  0  0
 24 23  1  0  0  0  0
 24 21  2  0  0  0  0
M  END
> <CdId>
2526

> <Mol Weight>
356.826

> <Formula>
C18H13ClN2O2S

> <Click_ID>
CLK033_E02 __ __ 

$$$$
