CLK044H07
 OpenBabel03181419432D

 30 32  0  0  0  0  0  0  0  0999 V2000
   -0.8667   -0.5000    0.0000 C   0  0  0  0  0  0  0  0  0  0  0  0
    3.2208    1.5917    0.0000 S   0  0  0  0  0  0  0  0  0  0  0  0
   -1.6542   -0.2458    0.0000 N   0  0  0  0  0  0  0  0  0  0  0  0
   -2.1375   -0.9125    0.0000 C   0  0  0  0  0  0  0  0  0  0  0  0
   -0.2000   -0.0125    0.0000 N   0  0  0  0  0  0  0  0  0  0  0  0
   -0.8667   -1.3250    0.0000 S   0  0  0  0  0  0  0  0  0  0  0  0
   -1.6542   -1.5792    0.0000 C   0  0  0  0  0  0  0  0  0  0  0  0
    0.5542   -0.3500    0.0000 C   0  0  0  0  0  0  0  0  0  0  0  0
   -2.9625   -0.9125    0.0000 C   0  0  0  0  0  0  0  0  0  0  0  0
    2.5542    1.1042    0.0000 C   0  0  0  0  0  0  0  0  0  0  0  0
   -3.3750   -1.6250    0.0000 C   0  0  0  0  0  0  0  0  0  0  0  0
    5.3125    2.2250    0.0000 C   0  0  0  0  0  0  0  0  0  0  0  0
   -4.2000   -1.6250    0.0000 C   0  0  0  0  0  0  0  0  0  0  0  0
    5.9792    2.7083    0.0000 C   0  0  0  0  0  0  0  0  0  0  0  0
    3.7083    0.9208    0.0000 O   0  0  0  0  0  0  0  0  0  0  0  0
    2.7375    2.2583    0.0000 O   0  0  0  0  0  0  0  0  0  0  0  0
    1.2208    0.1333    0.0000 C   0  0  0  0  0  0  0  0  0  0  0  0
    3.8917    2.0750    0.0000 N   0  0  0  0  0  0  0  0  0  0  0  0
   -4.6125   -0.9125    0.0000 C   0  0  0  0  0  0  0  0  0  0  0  0
    0.6375   -1.1708    0.0000 O   0  0  0  0  0  0  0  0  0  0  0  0
   -3.3750   -0.1958    0.0000 C   0  0  0  0  0  0  0  0  0  0  0  0
    1.8000    1.4417    0.0000 C   0  0  0  0  0  0  0  0  0  0  0  0
    2.6417    0.2833    0.0000 C   0  0  0  0  0  0  0  0  0  0  0  0
    1.1333    0.9542    0.0000 C   0  0  0  0  0  0  0  0  0  0  0  0
    1.9750   -0.2000    0.0000 C   0  0  0  0  0  0  0  0  0  0  0  0
   -4.2000   -0.1958    0.0000 C   0  0  0  0  0  0  0  0  0  0  0  0
   -4.6125   -2.3417    0.0000 F   0  0  0  0  0  0  0  0  0  0  0  0
   -5.4375   -0.9125    0.0000 F   0  0  0  0  0  0  0  0  0  0  0  0
    4.6417    1.7375    0.0000 C   0  0  0  0  0  0  0  0  0  0  0  0
   -1.9083   -2.3625    0.0000 C   0  0  0  0  0  0  0  0  0  0  0  0
  2 10  1  0  0  0  0
  3  1  2  0  0  0  0
  4  3  1  0  0  0  0
  4  7  2  0  0  0  0
  5  1  1  0  0  0  0
  6  1  1  0  0  0  0
  7  6  1  0  0  0  0
  8  5  1  0  0  0  0
  9  4  1  0  0  0  0
 10 22  2  0  0  0  0
 10 23  1  0  0  0  0
 11  9  2  0  0  0  0
 12 29  1  0  0  0  0
 13 11  1  0  0  0  0
 14 12  3  0  0  0  0
 15  2  2  0  0  0  0
 16  2  2  0  0  0  0
 17  8  1  0  0  0  0
 18  2  1  0  0  0  0
 19 13  2  0  0  0  0
 19 26  1  0  0  0  0
 20  8  2  0  0  0  0
 21  9  1  0  0  0  0
 22 24  1  0  0  0  0
 23 25  2  0  0  0  0
 24 17  2  0  0  0  0
 25 17  1  0  0  0  0
 26 21  2  0  0  0  0
 27 13  1  0  0  0  0
 28 19  1  0  0  0  0
 29 18  1  0  0  0  0
 30  7  1  0  0  0  0
M  END
> <CdId>
3376

> <Mol Weight>
447.478

> <Formula>
C20H15F2N3O3S2

> <Click_ID>
CLK044H07 __ __ 

$$$$
