CLK012_E02
 OpenBabel03181419432D

 18 19  0  0  0  0  0  0  0  0999 V2000
    1.5670   -0.8169    0.0000 N    0  0  0  0  0  0  0  0  0  0  0  0
    1.8254   -1.6045    0.0000 C    0  0  0  0  0  0  0  0  0  0  0  0
    2.9048   -0.8169    0.0000 C    0  0  0  0  0  0  0  0  0  0  0  0
    2.2380   -0.3293    0.0000 C    0  0  0  0  0  0  0  0  0  0  0  0
    2.6506   -1.6045    0.0000 S    0  0  0  0  0  0  0  0  0  0  0  0
    3.9758   -0.4668    0.0000 C    0  0  0  0  0  0  0  0  0  0  0  0
    0.6126    0.2459    0.0000 C    0  0  0  0  0  0  0  0  0  0  0  0
    4.1509    0.3334    0.0000 C    0  0  0  0  0  0  0  0  0  0  0  0
    0.3918    1.0460    0.0000 C    0  0  0  0  0  0  0  0  0  0  0  0
    1.3378   -2.2672    0.0000 O    0  0  0  0  0  0  0  0  0  0  0  0
    2.2297    0.4959    0.0000 O    0  0  0  0  0  0  0  0  0  0  0  0
    0.7877   -0.5626    0.0000 C    0  0  0  0  0  0  0  0  0  0  0  0
    3.5299    0.8835    0.0000 C    0  0  0  0  0  0  0  0  0  0  0  0
    2.7506    0.6376    0.0000 Br   0  0  0  0  0  0  0  0  0  0  0  0
    4.9302    0.5834    0.0000 C    0  0  0  0  0  0  0  0  0  0  0  0
    3.7133    1.6879    0.0000 C    0  0  0  0  0  0  0  0  0  0  0  0
    5.1011    1.3836    0.0000 C    0  0  0  0  0  0  0  0  0  0  0  0
    4.4927    1.9379    0.0000 C    0  0  0  0  0  0  0  0  0  0  0  0
  2  1  1  0  0  0  0
  3  4  1  0  0  0  0
  3  5  1  0  0  0  0
  4  1  1  0  0  0  0
  5  2  1  0  0  0  0
  6  3  2  0  0  0  0
  7 12  1  0  0  0  0
  8  6  1  0  0  0  0
  9  7  3  0  0  0  0
 10  2  2  0  0  0  0
 11  4  2  0  0  0  0
 12  1  1  0  0  0  0
 13  8  1  0  0  0  0
 14 13  1  0  0  0  0
 15  8  2  0  0  0  0
 16 13  2  0  0  0  0
 17 15  1  0  0  0  0
 18 17  2  0  0  0  0
 18 16  1  0  0  0  0
M  END
> <CdId>
877

> <Mol Weight>
322.177

> <Formula>
C13H8BrNO2S

> <Click_ID>
CLK012_E02 __ __ 

$$$$
