CLK034_F05
 OpenBabel03181419432D

 37 40  0  0  0  0  0  0  0  0999 V2000
   -4.5833    2.5500    0.0000 C   0  0  0  0  0  0  0  0  0  0  0  0
   -1.0083    5.4667    0.0000 S   0  0  0  0  0  0  0  0  0  0  0  0
   -3.8708    2.9833    0.0000 N   0  0  0  0  0  0  0  0  0  0  0  0
   -5.3500    2.8708    0.0000 S   0  0  0  0  0  0  0  0  0  0  0  0
   -4.6583    1.7375    0.0000 N   0  0  0  0  0  0  0  0  0  0  0  0
   -5.8833    2.2458    0.0000 C   0  0  0  0  0  0  0  0  0  0  0  0
   -5.4583    1.5458    0.0000 C   0  0  0  0  0  0  0  0  0  0  0  0
   -3.8708    3.8000    0.0000 C   0  0  0  0  0  0  0  0  0  0  0  0
   -6.7042    2.2333    0.0000 C   0  0  0  0  0  0  0  0  0  0  0  0
   -1.7250    5.0417    0.0000 C   0  0  0  0  0  0  0  0  0  0  0  0
   -0.2958    5.8792    0.0000 N   0  0  0  0  0  0  0  0  0  0  0  0
    2.5792    5.0750    0.0000 N   0  0  0  0  0  0  0  0  0  0  0  0
   -1.0250    8.7667    0.0000 N   0  0  0  0  0  0  0  0  0  0  0  0
   -5.8458    0.8208    0.0000 C   0  0  0  0  0  0  0  0  0  0  0  0
   -3.2375    1.4625    0.0000 C   0  0  0  0  0  0  0  0  0  0  0  0
   -0.5875    4.7417    0.0000 O   0  0  0  0  0  0  0  0  0  0  0  0
   -1.4333    6.1792    0.0000 O   0  0  0  0  0  0  0  0  0  0  0  0
   -2.4625    1.7458    0.0000 C   0  0  0  0  0  0  0  0  0  0  0  0
   -1.0333    7.9417    0.0000 C   0  0  0  0  0  0  0  0  0  0  0  0
    1.8542    5.4792    0.0000 C   0  0  0  0  0  0  0  0  0  0  0  0
   -3.1583    4.2125    0.0000 C   0  0  0  0  0  0  0  0  0  0  0  0
   -4.5833    4.2042    0.0000 O   0  0  0  0  0  0  0  0  0  0  0  0
   -4.0208    1.1958    0.0000 C   0  0  0  0  0  0  0  0  0  0  0  0
   -7.1042    1.5083    0.0000 C   0  0  0  0  0  0  0  0  0  0  0  0
   -6.6667    0.7958    0.0000 C   0  0  0  0  0  0  0  0  0  0  0  0
   -2.4458    5.4417    0.0000 C   0  0  0  0  0  0  0  0  0  0  0  0
   -1.7208    4.2125    0.0000 C   0  0  0  0  0  0  0  0  0  0  0  0
   -2.4250    3.8000    0.0000 C   0  0  0  0  0  0  0  0  0  0  0  0
   -3.1500    5.0292    0.0000 C   0  0  0  0  0  0  0  0  0  0  0  0
   -1.0208    7.1042    0.0000 C   0  0  0  0  0  0  0  0  0  0  0  0
    1.1292    5.8917    0.0000 C   0  0  0  0  0  0  0  0  0  0  0  0
   -0.3000    6.7042    0.0000 C   0  0  0  0  0  0  0  0  0  0  0  0
    0.4167    5.4667    0.0000 C   0  0  0  0  0  0  0  0  0  0  0  0
   -7.1417    2.9333    0.0000 C   0  0  0  0  0  0  0  0  0  0  0  0
   -7.9167    1.4833    0.0000 C   0  0  0  0  0  0  0  0  0  0  0  0
   -7.9667    2.9125    0.0000 C   0  0  0  0  0  0  0  0  0  0  0  0
   -8.3542    2.1875    0.0000 C   0  0  0  0  0  0  0  0  0  0  0  0
  2 10  1  0  0  0  0
  3  1  2  0  0  0  0
  4  1  1  0  0  0  0
  5  1  1  0  0  0  0
  6  4  1  0  0  0  0
  6  7  2  0  0  0  0
  7  5  1  0  0  0  0
  8  3  1  0  0  0  0
  9  6  1  0  0  0  0
 10 26  1  0  0  0  0
 10 27  2  0  0  0  0
 11  2  1  0  0  0  0
 12 20  3  0  0  0  0
 13 19  3  0  0  0  0
 14  7  1  0  0  0  0
 15 23  1  0  0  0  0
 16  2  2  0  0  0  0
 17  2  2  0  0  0  0
 18 15  3  0  0  0  0
 19 30  1  0  0  0  0
 20 31  1  0  0  0  0
 21  8  1  0  0  0  0
 22  8  2  0  0  0  0
 23  5  1  0  0  0  0
 24  9  1  0  0  0  0
 25 14  2  0  0  0  0
 25 24  1  0  0  0  0
 26 29  2  0  0  0  0
 27 28  1  0  0  0  0
 28 21  2  0  0  0  0
 29 21  1  0  0  0  0
 30 32  1  0  0  0  0
 31 33  1  0  0  0  0
 32 11  1  0  0  0  0
 33 11  1  0  0  0  0
 34  9  2  0  0  0  0
 35 24  2  0  0  0  0
 35 37  1  0  0  0  0
 36 34  1  0  0  0  0
 37 36  2  0  0  0  0
M  END
> <CdId>
2619

> <Mol Weight>
527.617

> <Formula>
C27H21N5O3S2

> <Click_ID>
CLK034_F05 __ __ 

$$$$
