CLK039B04
 OpenBabel03181419432D

 19 20  0  0  0  0  0  0  0  0999 V2000
    1.3708   -0.9417    0.0000 C   0  0  0  0  0  0  0  0  0  0  0  0
    1.3708   -0.1167    0.0000 N   0  0  0  0  0  0  0  0  0  0  0  0
    0.5833   -1.1958    0.0000 N   0  0  0  0  0  0  0  0  0  0  0  0
    0.5833    0.1375    0.0000 N   0  0  0  0  0  0  0  0  0  0  0  0
    0.1000   -0.5292    0.0000 C   0  0  0  0  0  0  0  0  0  0  0  0
    2.0833   -1.3542    0.0000 N   0  0  0  0  0  0  0  0  0  0  0  0
    2.0833    0.2958    0.0000 C   0  0  0  0  0  0  0  0  0  0  0  0
    2.8000   -0.1167    0.0000 C   0  0  0  0  0  0  0  0  0  0  0  0
    2.8000   -0.9417    0.0000 C   0  0  0  0  0  0  0  0  0  0  0  0
   -3.6125    1.6125    0.0000 C   0  0  0  0  0  0  0  0  0  0  0  0
   -4.0250    2.3292    0.0000 C   0  0  0  0  0  0  0  0  0  0  0  0
   -0.7250   -0.5292    0.0000 S   0  0  0  0  0  0  0  0  0  0  0  0
   -1.9625    0.1833    0.0000 C   0  0  0  0  0  0  0  0  0  0  0  0
   -2.3750   -0.5292    0.0000 O   0  0  0  0  0  0  0  0  0  0  0  0
   -1.1375    0.1833    0.0000 C   0  0  0  0  0  0  0  0  0  0  0  0
   -2.3750    0.9000    0.0000 N   0  0  0  0  0  0  0  0  0  0  0  0
    2.0833    1.1208    0.0000 C   0  0  0  0  0  0  0  0  0  0  0  0
   -3.2000    0.9000    0.0000 C   0  0  0  0  0  0  0  0  0  0  0  0
    3.5125   -1.3542    0.0000 C   0  0  0  0  0  0  0  0  0  0  0  0
  2  1  1  0  0  0  0
  3  1  2  0  0  0  0
  4  2  1  0  0  0  0
  5  3  1  0  0  0  0
  5  4  2  0  0  0  0
  6  1  1  0  0  0  0
  7  2  1  0  0  0  0
  7  8  2  0  0  0  0
  8  9  1  0  0  0  0
  9  6  2  0  0  0  0
 10 18  1  0  0  0  0
 11 10  3  0  0  0  0
 12  5  1  0  0  0  0
 13 15  1  0  0  0  0
 14 13  2  0  0  0  0
 15 12  1  0  0  0  0
 16 13  1  0  0  0  0
 17  7  1  0  0  0  0
 18 16  1  0  0  0  0
 19  9  1  0  0  0  0
M  END
> <CdId>
2946

> <Mol Weight>
275.33

> <Formula>
C12H13N5OS

> <Click_ID>
CLK039B04 __ __ 

$$$$
