CLK029_E03
 OpenBabel03181419432D

 33 36  0  0  0  0  0  0  0  0999 V2000
   -1.1743    0.9654    0.0000 C   0  0  0  0  0  0  0  0  0  0  0  0
   -1.6632    0.2967    0.0000 N   0  0  0  0  0  0  0  0  0  0  0  0
   -0.3468    0.9654    0.0000 N   0  0  0  0  0  0  0  0  0  0  0  0
   -1.6632    1.6382    0.0000 S   0  0  0  0  0  0  0  0  0  0  0  0
   -2.4531    0.5516    0.0000 C   0  0  0  0  0  0  0  0  0  0  0  0
    2.0436    1.6382    0.0000 N   0  0  0  0  0  0  0  0  0  0  0  0
   -2.4531    1.3791    0.0000 C   0  0  0  0  0  0  0  0  0  0  0  0
    1.6048    0.0376    0.0000 N   0  0  0  0  0  0  0  0  0  0  0  0
    2.2567    2.4322    0.0000 C   0  0  0  0  0  0  0  0  0  0  0  0
   -0.1337    1.7677    0.0000 C   0  0  0  0  0  0  0  0  0  0  0  0
   -0.6018   -0.6561    0.0000 C   0  0  0  0  0  0  0  0  0  0  0  0
   -0.0501   -0.0418    0.0000 C   0  0  0  0  0  0  0  0  0  0  0  0
    1.2454    1.4250    0.0000 C   0  0  0  0  0  0  0  0  0  0  0  0
    2.6328    1.0614    0.0000 C   0  0  0  0  0  0  0  0  0  0  0  0
    2.4071    0.2591    0.0000 C   0  0  0  0  0  0  0  0  0  0  0  0
    1.0323    0.6269    0.0000 C   0  0  0  0  0  0  0  0  0  0  0  0
    1.3958   -0.7522    0.0000 C   0  0  0  0  0  0  0  0  0  0  0  0
    3.0507    2.6579    0.0000 O   0  0  0  0  0  0  0  0  0  0  0  0
   -1.4042   -0.4806    0.0000 C   0  0  0  0  0  0  0  0  0  0  0  0
   -0.7229    2.3528    0.0000 O   0  0  0  0  0  0  0  0  0  0  0  0
    0.8693    2.7916    0.0000 S   0  0  0  0  0  0  0  0  0  0  0  0
    1.6674    3.0089    0.0000 C   0  0  0  0  0  0  0  0  0  0  0  0
    0.6561    1.9892    0.0000 C   0  0  0  0  0  0  0  0  0  0  0  0
   -3.1677    0.1462    0.0000 C   0  0  0  0  0  0  0  0  0  0  0  0
   -3.1677    1.8011    0.0000 C   0  0  0  0  0  0  0  0  0  0  0  0
    0.6060   -0.9654    0.0000 C   0  0  0  0  0  0  0  0  0  0  0  0
    1.9809   -1.3332    0.0000 C   0  0  0  0  0  0  0  0  0  0  0  0
   -3.8740    0.5516    0.0000 C   0  0  0  0  0  0  0  0  0  0  0  0
   -3.8740    1.3791    0.0000 C   0  0  0  0  0  0  0  0  0  0  0  0
    1.7677   -2.1355    0.0000 C   0  0  0  0  0  0  0  0  0  0  0  0
    0.3929   -1.7594    0.0000 C   0  0  0  0  0  0  0  0  0  0  0  0
    0.9654   -2.3487    0.0000 C   0  0  0  0  0  0  0  0  0  0  0  0
   -4.5969    1.7886    0.0000 H   0  0  0  0  0  0  0  0  0  0  0  0
  2  1  1  0  0  0  0
  3  1  2  0  0  0  0
  4  1  1  0  0  0  0
  5  2  1  0  0  0  0
  6  9  1  0  0  0  0
  7  4  1  0  0  0  0
  7  5  2  0  0  0  0
  8 15  1  0  0  0  0
  8 16  1  0  0  0  0
  9 22  1  0  0  0  0
 10  3  1  0  0  0  0
 11 19  1  0  0  0  0
 12 11  3  0  0  0  0
 13  6  1  0  0  0  0
 14  6  1  0  0  0  0
 15 14  1  0  0  0  0
 16 13  1  0  0  0  0
 17  8  1  0  0  0  0
 18  9  2  0  0  0  0
 19  2  1  0  0  0  0
 20 10  2  0  0  0  0
 21 23  1  0  0  0  0
 22 21  1  0  0  0  0
 23 10  1  0  0  0  0
 24  5  1  0  0  0  0
 25  7  1  0  0  0  0
 26 17  2  0  0  0  0
 27 17  1  0  0  0  0
 28 24  2  0  0  0  0
 29 25  2  0  0  0  0
 29 28  1  0  0  0  0
 30 27  2  0  0  0  0
 31 26  1  0  0  0  0
 32 30  1  0  0  0  0
 32 31  2  0  0  0  0
 33 29  1  0  0  0  0
M  END
> <CdId>
2207

> <Mol Weight>
464.603

> <Formula>
C24H24N4O2S2

> <Click_ID>
CLK029_E03 __ __ 

$$$$
