CLK003_A11
 OpenBabel03181419432D

 27 29  0  0  0  0  0  0  0  0999 V2000
    0.3383    0.5911    0.0000 C   0  0  3  0  0  0  0  0  0  0  0  0
    0.9389    0.0266    0.0000 N   0  0  0  0  0  0  0  0  0  0  0  0
    0.5265    1.3950    0.0000 C   0  0  0  0  0  0  0  0  0  0  0  0
   -0.4524    0.3535    0.0000 C   0  0  0  0  0  0  0  0  0  0  0  0
    0.7470   -0.7773    0.0000 C   0  0  0  0  0  0  0  0  0  0  0  0
    1.7277    0.2604    0.0000 C   0  0  0  0  0  0  0  0  0  0  0  0
    1.2867    1.7105    0.0000 C   0  0  0  0  0  0  0  0  0  0  0  0
   -0.0114    2.0203    0.0000 S   0  0  0  0  0  0  0  0  0  0  0  0
   -1.0548    0.9199    0.0000 N   0  0  0  0  0  0  0  0  0  0  0  0
   -0.6424   -0.4485    0.0000 O   0  0  0  0  0  0  0  0  0  0  0  0
   -0.0437   -1.0187    0.0000 C   0  0  0  0  0  0  0  0  0  0  0  0
    1.3437   -1.3399    0.0000 C   0  0  0  0  0  0  0  0  0  0  0  0
    2.3282   -0.3041    0.0000 C   0  0  0  0  0  0  0  0  0  0  0  0
    1.9158    1.0643    0.0000 O   0  0  0  0  0  0  0  0  0  0  0  0
    1.2202    2.5354    0.0000 C   0  0  0  0  0  0  0  0  0  0  0  0
    0.4162    2.7255    0.0000 C   0  0  0  0  0  0  0  0  0  0  0  0
   -1.8455    0.6804    0.0000 C   0  0  0  0  0  0  0  0  0  0  0  0
   -0.2300   -1.8132    0.0000 C   0  0  0  0  0  0  0  0  0  0  0  0
    1.1593   -2.1439    0.0000 C   0  0  0  0  0  0  0  0  0  0  0  0
    2.9307   -0.8667    0.0000 C   0  0  0  0  0  0  0  0  0  0  0  0
   -2.1154   -0.0970    0.0000 C   0  0  0  0  0  0  0  0  0  0  0  0
   -2.5012    1.1822    0.0000 C   0  0  0  0  0  0  0  0  0  0  0  0
    0.3687   -2.3777    0.0000 C   0  0  0  0  0  0  0  0  0  0  0  0
   -1.0206   -2.0526    0.0000 O   0  0  0  0  0  0  0  0  0  0  0  0
   -2.9403   -0.0836    0.0000 C   0  0  0  0  0  0  0  0  0  0  0  0
   -3.1797    0.7109    0.0000 C   0  0  0  0  0  0  0  0  0  0  0  0
   -1.2126   -2.8566    0.0000 C   0  0  0  0  0  0  0  0  0  0  0  0
  1  2  1  0  0  0  0
  1  3  1  0  0  0  0
  1  4  1  0  0  0  0
  2  5  1  0  0  0  0
  2  6  1  0  0  0  0
  3  7  2  0  0  0  0
  3  8  1  0  0  0  0
  4  9  1  0  0  0  0
  4 10  2  0  0  0  0
  5 11  1  0  0  0  0
  5 12  2  0  0  0  0
  6 13  1  0  0  0  0
  6 14  2  0  0  0  0
  7 15  1  0  0  0  0
  8 16  1  0  0  0  0
  9 17  1  0  0  0  0
 11 18  2  0  0  0  0
 12 19  1  0  0  0  0
 13 20  3  0  0  0  0
 15 16  2  0  0  0  0
 17 21  1  0  0  0  0
 17 22  1  0  0  0  0
 18 23  1  0  0  0  0
 18 24  1  0  0  0  0
 19 23  2  0  0  0  0
 21 25  1  0  0  0  0
 22 26  1  0  0  0  0
 24 27  1  0  0  0  0
 25 26  1  0  0  0  0
M  END
> <CdId>
170

> <Mol Weight>
382.476

> <Formula>
C21H22N2O3S

> <Click_ID>
CLK003_A11 __ __ 

$$$$
