CLK020_C03
 OpenBabel03181419432D

 23 24  0  0  0  0  0  0  0  0999 V2000
    2.1713    2.3912    0.0000 C   0  0  0  0  0  0  0  0  0  0  0  0
    2.8859    2.8034    0.0000 C   0  0  0  0  0  0  0  0  0  0  0  0
    1.4567    2.8034    0.0000 C   0  0  0  0  0  0  0  0  0  0  0  0
    0.7421    3.2157    0.0000 N   0  0  0  0  0  0  0  0  0  0  0  0
    2.1713    1.5666    0.0000 C   0  0  0  0  0  0  0  0  0  0  0  0
    7.1644    1.1544    0.0000 C   0  0  0  0  0  0  0  0  0  0  0  0
    7.8790    0.7421    0.0000 C   0  0  0  0  0  0  0  0  0  0  0  0
    4.3060    1.1544    0.0000 C   0  0  0  0  0  0  0  0  0  0  0  0
    3.6005    2.3912    0.0000 C   0  0  0  0  0  0  0  0  0  0  0  0
    3.6005    1.5666    0.0000 C   0  0  0  0  0  0  0  0  0  0  0  0
    5.0206    1.5666    0.0000 C   0  0  0  0  0  0  0  0  0  0  0  0
    1.4567    1.1544    0.0000 C   0  0  0  0  0  0  0  0  0  0  0  0
    5.0206    2.3912    0.0000 C   0  0  0  0  0  0  0  0  0  0  0  0
    4.3060    2.8034    0.0000 C   0  0  0  0  0  0  0  0  0  0  0  0
    0.7421    1.5666    0.0000 F   0  0  0  0  0  0  0  0  0  0  0  0
    4.3060    0.3298    0.0000 O   0  0  0  0  0  0  0  0  0  0  0  0
    5.7352    1.1544    0.0000 O   0  0  0  0  0  0  0  0  0  0  0  0
    6.4498    1.5666    0.0000 C   0  0  0  0  0  0  0  0  0  0  0  0
    2.8859    1.1544    0.0000 C   0  0  0  0  0  0  0  0  0  0  0  0
    1.4567    0.3298    0.0000 C   0  0  0  0  0  0  0  0  0  0  0  0
    3.6005   -0.0825    0.0000 C   0  0  0  0  0  0  0  0  0  0  0  0
    2.8859    0.3298    0.0000 C   0  0  0  0  0  0  0  0  0  0  0  0
    2.1713   -0.0825    0.0000 C   0  0  0  0  0  0  0  0  0  0  0  0
  2  1  2  0  0  0  0
  3  1  1  0  0  0  0
  4  3  3  0  0  0  0
  5  1  1  0  0  0  0
  6 18  1  0  0  0  0
  7  6  3  0  0  0  0
  8 10  1  0  0  0  0
  8 11  2  0  0  0  0
  9  2  1  0  0  0  0
 10  9  2  0  0  0  0
 11 13  1  0  0  0  0
 12  5  2  0  0  0  0
 13 14  2  0  0  0  0
 14  9  1  0  0  0  0
 15 12  1  0  0  0  0
 16  8  1  0  0  0  0
 17 11  1  0  0  0  0
 18 17  1  0  0  0  0
 19  5  1  0  0  0  0
 20 12  1  0  0  0  0
 21 16  1  0  0  0  0
 22 19  2  0  0  0  0
 23 22  1  0  0  0  0
 23 20  2  0  0  0  0
M  END
> <CdId>
1498

> <Mol Weight>
307.3184

> <Formula>
C19H14FNO2

> <Click_ID>
CLK020_C03 __ __ 

$$$$
