CLK048G08
 OpenBabel03181419432D

 12 12  0  0  0  0  0  0  0  0999 V2000
   -0.3583   -0.3417    0.0000 C   0  0  0  0  0  0  0  0  0  0  0  0
    1.0708   -1.9917    0.0000 C   0  0  0  0  0  0  0  0  0  0  0  0
    1.7833   -2.4042    0.0000 C   0  0  0  0  0  0  0  0  0  0  0  0
   -1.0750   -0.7542    0.0000 O   0  0  0  0  0  0  0  0  0  0  0  0
   -0.3583    0.4833    0.0000 C   0  0  3  0  0  0  0  0  0  0  0  0
    0.3542   -0.7542    0.0000 N   0  0  0  0  0  0  0  0  0  0  0  0
   -1.0750    1.7208    0.0000 C   0  0  0  0  0  0  0  0  0  0  0  0
   -0.3583    2.1333    0.0000 C   0  0  0  0  0  0  0  0  0  0  0  0
    0.3542   -1.5792    0.0000 C   0  0  0  0  0  0  0  0  0  0  0  0
   -1.0750    0.8958    0.0000 C   0  0  0  0  0  0  0  0  0  0  0  0
    0.3542    1.7208    0.0000 C   0  0  0  0  0  0  0  0  0  0  0  0
    0.3542    0.8958    0.0000 C   0  0  0  0  0  0  0  0  0  0  0  0
  2  9  1  0  0  0  0
  3  2  3  0  0  0  0
  4  1  2  0  0  0  0
  5  1  1  0  0  0  0
  6  1  1  0  0  0  0
  7 10  1  0  0  0  0
  8  7  2  0  0  0  0
  8 11  1  0  0  0  0
  9  6  1  0  0  0  0
 10  5  1  0  0  0  0
 11 12  1  0  0  0  0
 12  5  1  0  0  0  0
M  END
> <CdId>
3703

> <Mol Weight>
163.2163

> <Formula>
C10H13NO

> <Click_ID>
CLK048G08 __ __ 

$$$$
