CLK039E04
 OpenBabel03181419432D

 15 15  0  0  0  0  0  0  0  0999 V2000
   -0.3841   -0.2756    0.0000 S    0  0  0  0  0  0  0  0  0  0  0  0
    0.3340    0.1378    0.0000 C    0  0  0  0  0  0  0  0  0  0  0  0
    1.0480   -0.2756    0.0000 C    0  0  0  0  0  0  0  0  0  0  0  0
   -2.5302   -0.6889    0.0000 C    0  0  0  0  0  0  0  0  0  0  0  0
    0.3340    0.9645    0.0000 C    0  0  0  0  0  0  0  0  0  0  0  0
   -3.2484   -1.1023    0.0000 C    0  0  0  0  0  0  0  0  0  0  0  0
    1.7619    0.1378    0.0000 C    0  0  0  0  0  0  0  0  0  0  0  0
    0.0293   -0.9895    0.0000 O    0  0  0  0  0  0  0  0  0  0  0  0
   -0.7974    0.4426    0.0000 O    0  0  0  0  0  0  0  0  0  0  0  0
   -1.0981   -0.6889    0.0000 N    0  0  0  0  0  0  0  0  0  0  0  0
    1.7619    0.9645    0.0000 C    0  0  0  0  0  0  0  0  0  0  0  0
    1.0480   -1.1023    0.0000 F    0  0  0  0  0  0  0  0  0  0  0  0
    1.0480    1.3778    0.0000 C    0  0  0  0  0  0  0  0  0  0  0  0
    2.4801    1.3778    0.0000 Cl   0  0  0  0  0  0  0  0  0  0  0  0
   -1.8163   -0.2756    0.0000 C    0  0  0  0  0  0  0  0  0  0  0  0
  2  1  1  0  0  0  0
  3  2  2  0  0  0  0
  4 15  1  0  0  0  0
  5  2  1  0  0  0  0
  6  4  3  0  0  0  0
  7  3  1  0  0  0  0
  8  1  2  0  0  0  0
  9  1  2  0  0  0  0
 10  1  1  0  0  0  0
 11  7  2  0  0  0  0
 12  3  1  0  0  0  0
 13  5  2  0  0  0  0
 13 11  1  0  0  0  0
 14 11  1  0  0  0  0
 15 10  1  0  0  0  0
M  END
> <CdId>
2949

> <Mol Weight>
247.674

> <Formula>
C9H7ClFNO2S

> <Click_ID>
CLK039E04 __ __ 

$$$$
