CLK021_B03
 OpenBabel03181419432D

 18 18  0  0  0  0  0  0  0  0999 V2000
    1.1681    1.4704    0.0000 N   0  3  0  0  0  0  0  0  0  0  0  0
    4.8785    2.1850    0.0000 C   0  0  0  0  0  0  0  0  0  0  0  0
    6.9124    2.6889    0.0000 C   0  0  0  0  0  0  0  0  0  0  0  0
    1.9926    1.4704    0.0000 C   0  0  0  0  0  0  0  0  0  0  0  0
    7.7095    2.4690    0.0000 C   0  0  0  0  0  0  0  0  0  0  0  0
    4.4663    1.4704    0.0000 N   0  0  0  0  0  0  0  0  0  0  0  0
    0.7558    2.1850    0.0000 O   0  5  0  0  0  0  0  0  0  0  0  0
    0.7558    0.7558    0.0000 O   0  0  0  0  0  0  0  0  0  0  0  0
    5.7031    2.1850    0.0000 O   0  0  0  0  0  0  0  0  0  0  0  0
    6.1154    2.8950    0.0000 C   0  0  0  0  0  0  0  0  0  0  0  0
    4.4663    2.8950    0.0000 O   0  0  0  0  0  0  0  0  0  0  0  0
    2.4049    0.7558    0.0000 C   0  0  0  0  0  0  0  0  0  0  0  0
    2.4049    2.1850    0.0000 C   0  0  0  0  0  0  0  0  0  0  0  0
    3.6417    1.4704    0.0000 C   0  0  0  0  0  0  0  0  0  0  0  0
    3.2295    0.7558    0.0000 C   0  0  0  0  0  0  0  0  0  0  0  0
    3.2295    2.1850    0.0000 C   0  0  0  0  0  0  0  0  0  0  0  0
    6.3948    3.6783    0.0000 C   0  0  0  0  0  0  0  0  0  0  0  0
    5.3641    3.2523    0.0000 C   0  0  0  0  0  0  0  0  0  0  0  0
  2  6  1  0  0  0  0
  3 10  1  0  0  0  0
  4  1  1  0  0  0  0
  5  3  3  0  0  0  0
  6 14  1  0  0  0  0
  7  1  1  0  0  0  0
  8  1  2  0  0  0  0
  9  2  1  0  0  0  0
 10  9  1  0  0  0  0
 11  2  2  0  0  0  0
 12  4  1  0  0  0  0
 13  4  2  0  0  0  0
 14 16  2  0  0  0  0
 14 15  1  0  0  0  0
 15 12  2  0  0  0  0
 16 13  1  0  0  0  0
 17 10  1  0  0  0  0
 18 10  1  0  0  0  0
M  END
> <CdId>
1568

> <Mol Weight>
248.2347

> <Formula>
C12H12N2O4

> <Click_ID>
CLK021_B03 __ __ 

$$$$
