CLK042D06
 OpenBabel03181419432D

 23 24  0  0  0  0  0  0  0  0999 V2000
   -0.4375    0.1833    0.0000 S    0  0  0  0  0  0  0  0  0  0  0  0
   -0.4375   -0.6417    0.0000 C    0  0  0  0  0  0  0  0  0  0  0  0
   -1.1500   -1.0542    0.0000 C    0  0  0  0  0  0  0  0  0  0  0  0
    0.2792   -1.0542    0.0000 C    0  0  0  0  0  0  0  0  0  0  0  0
   -0.4375    1.0083    0.0000 N    0  0  0  0  0  0  0  0  0  0  0  0
    0.2792   -1.8792    0.0000 C    0  0  0  0  0  0  0  0  0  0  0  0
   -1.1500   -1.8792    0.0000 C    0  0  0  0  0  0  0  0  0  0  0  0
   -0.4375   -2.2917    0.0000 C    0  0  0  0  0  0  0  0  0  0  0  0
    0.3875    0.1833    0.0000 O    0  0  0  0  0  0  0  0  0  0  0  0
   -1.2625    0.1833    0.0000 O    0  0  0  0  0  0  0  0  0  0  0  0
    0.9917    3.4833    0.0000 C    0  0  0  0  0  0  0  0  0  0  0  0
    0.9917    4.3042    0.0000 C    0  0  0  0  0  0  0  0  0  0  0  0
    0.2792    1.4208    0.0000 C    0  0  0  0  0  0  0  0  0  0  0  0
    0.9917    2.6583    0.0000 C    0  0  0  0  0  0  0  0  0  0  0  0
    0.9917   -0.6417    0.0000 Br   0  0  0  0  0  0  0  0  0  0  0  0
    0.2792    2.2458    0.0000 C    0  0  0  0  0  0  0  0  0  0  0  0
   -1.8667   -2.2917    0.0000 O    0  0  0  0  0  0  0  0  0  0  0  0
   -0.4375   -3.1167    0.0000 O    0  0  0  0  0  0  0  0  0  0  0  0
    1.7083    1.4208    0.0000 C    0  0  0  0  0  0  0  0  0  0  0  0
    0.9917    1.0083    0.0000 C    0  0  0  0  0  0  0  0  0  0  0  0
    1.7083    2.2458    0.0000 C    0  0  0  0  0  0  0  0  0  0  0  0
    0.2792   -3.5292    0.0000 C    0  0  0  0  0  0  0  0  0  0  0  0
   -2.5792   -1.8792    0.0000 C    0  0  0  0  0  0  0  0  0  0  0  0
  2  1  1  0  0  0  0
  3  2  2  0  0  0  0
  4  2  1  0  0  0  0
  5  1  1  0  0  0  0
  6  4  2  0  0  0  0
  6  8  1  0  0  0  0
  7  3  1  0  0  0  0
  8  7  2  0  0  0  0
  9  1  2  0  0  0  0
 10  1  2  0  0  0  0
 11 14  1  0  0  0  0
 12 11  3  0  0  0  0
 13  5  1  0  0  0  0
 14 16  1  0  0  0  0
 15  4  1  0  0  0  0
 16 13  2  0  0  0  0
 17  7  1  0  0  0  0
 18  8  1  0  0  0  0
 19 20  2  0  0  0  0
 20 13  1  0  0  0  0
 21 14  2  0  0  0  0
 21 19  1  0  0  0  0
 22 18  1  0  0  0  0
 23 17  1  0  0  0  0
M  END
> <CdId>
3204

> <Mol Weight>
396.256

> <Formula>
C16H14BrNO4S

> <Click_ID>
CLK042D06 __ __ 

$$$$
