CLK022_A05
 OpenBabel03181419432D

 16 16  0  0  0  0  0  0  0  0999 V2000
    3.4237    1.3429    0.0000 C   0  0  0  0  0  0  0  0  0  0  0  0
    7.9612    2.0579    0.0000 C   0  0  0  0  0  0  0  0  0  0  0  0
    8.7862    2.0579    0.0000 C   0  0  0  0  0  0  0  0  0  0  0  0
    4.2487    1.3429    0.0000 C   0  0  0  0  0  0  0  0  0  0  0  0
    3.0112    0.6279    0.0000 O   0  0  0  0  0  0  0  0  0  0  0  0
    3.0112    2.0579    0.0000 N   0  0  0  0  0  0  0  0  0  0  0  0
    4.6612    0.6279    0.0000 C   0  0  0  0  0  0  0  0  0  0  0  0
    4.6612    2.0579    0.0000 C   0  0  0  0  0  0  0  0  0  0  0  0
    1.7737    2.7729    0.0000 C   0  0  0  0  0  0  0  0  0  0  0  0
    0.9487    2.7729    0.0000 C   0  0  0  0  0  0  0  0  0  0  0  0
    5.8987    1.3429    0.0000 C   0  0  0  0  0  0  0  0  0  0  0  0
    5.4863    0.6279    0.0000 C   0  0  0  0  0  0  0  0  0  0  0  0
    5.4863    2.0579    0.0000 C   0  0  0  0  0  0  0  0  0  0  0  0
    7.1362    2.0579    0.0000 C   0  0  0  0  0  0  0  0  0  0  0  0
    6.7237    1.3429    0.0000 O   0  0  0  0  0  0  0  0  0  0  0  0
    2.1862    2.0579    0.0000 C   0  0  0  0  0  0  0  0  0  0  0  0
  2 14  1  0  0  0  0
  3  2  3  0  0  0  0
  4  1  1  0  0  0  0
  5  1  2  0  0  0  0
  6  1  1  0  0  0  0
  7  4  2  0  0  0  0
  8  4  1  0  0  0  0
  9 16  1  0  0  0  0
 10  9  2  0  0  0  0
 11 13  1  0  0  0  0
 11 12  2  0  0  0  0
 12  7  1  0  0  0  0
 13  8  2  0  0  0  0
 14 15  1  0  0  0  0
 15 11  1  0  0  0  0
 16  6  1  0  0  0  0
M  END
> <CdId>
1640

> <Mol Weight>
215.2478

> <Formula>
C13H13NO2

> <Click_ID>
CLK022_A05 __ __ 

$$$$
