CLK006_H10
 OpenBabel03181419432D

 26 28  0  0  0  0  0  0  0  0999 V2000
   -0.6659   -1.0219    0.0000 N   0  0  0  0  0  0  0  0  0  0  0  0
   -0.4146   -1.8134    0.0000 C   0  0  0  0  0  0  0  0  0  0  0  0
    0.0000   -0.5403    0.0000 C   0  0  0  0  0  0  0  0  0  0  0  0
    0.6701   -1.0219    0.0000 C   0  0  0  0  0  0  0  0  0  0  0  0
    0.4146   -1.8134    0.0000 S   0  0  0  0  0  0  0  0  0  0  0  0
   -1.4574   -0.7706    0.0000 C   0  0  0  0  0  0  0  0  0  0  0  0
   -2.0731   -1.3234    0.0000 C   0  0  0  0  0  0  0  0  0  0  0  0
   -2.8646   -1.0722    0.0000 N   0  0  0  0  0  0  0  0  0  0  0  0
    1.4616   -0.7706    0.0000 C   0  0  0  0  0  0  0  0  0  0  0  0
    3.1410    3.4634    0.0000 C   0  0  0  0  0  0  0  0  0  0  0  0
    3.3211    4.2508    0.0000 C   0  0  0  0  0  0  0  0  0  0  0  0
   -0.9046   -2.4793    0.0000 O   0  0  0  0  0  0  0  0  0  0  0  0
    0.0000    0.2847    0.0000 O   0  0  0  0  0  0  0  0  0  0  0  0
   -1.8972   -2.1401    0.0000 O   0  0  0  0  0  0  0  0  0  0  0  0
    1.6333    0.0209    0.0000 C   0  0  0  0  0  0  0  0  0  0  0  0
    1.9851    1.6208    0.0000 C   0  0  0  0  0  0  0  0  0  0  0  0
    1.0302    0.5863    0.0000 C   0  0  0  0  0  0  0  0  0  0  0  0
    2.4123    0.2722    0.0000 C   0  0  0  0  0  0  0  0  0  0  0  0
    1.2061    1.3778    0.0000 C   0  0  0  0  0  0  0  0  0  0  0  0
    2.6007    1.0888    0.0000 C   0  0  0  0  0  0  0  0  0  0  0  0
   -3.1159   -0.2806    0.0000 C   0  0  0  0  0  0  0  0  0  0  0  0
   -3.5305   -1.5496    0.0000 C   0  0  0  0  0  0  0  0  0  0  0  0
    2.9525    2.6636    0.0000 C   0  0  0  0  0  0  0  0  0  0  0  0
    2.1736    2.4123    0.0000 O   0  0  0  0  0  0  0  0  0  0  0  0
   -3.9451   -0.2806    0.0000 C   0  0  0  0  0  0  0  0  0  0  0  0
   -4.1964   -1.0722    0.0000 C   0  0  0  0  0  0  0  0  0  0  0  0
  2  1  1  0  0  0  0
  3  1  1  0  0  0  0
  4  3  1  0  0  0  0
  5  2  1  0  0  0  0
  5  4  1  0  0  0  0
  6  1  1  0  0  0  0
  7  6  1  0  0  0  0
  8  7  1  0  0  0  0
  9  4  2  0  0  0  0
 10 23  1  0  0  0  0
 11 10  3  0  0  0  0
 12  2  2  0  0  0  0
 13  3  2  0  0  0  0
 14  7  2  0  0  0  0
 15  9  1  0  0  0  0
 16 20  1  0  0  0  0
 16 19  2  0  0  0  0
 17 15  2  0  0  0  0
 18 15  1  0  0  0  0
 19 17  1  0  0  0  0
 20 18  2  0  0  0  0
 21  8  1  0  0  0  0
 22  8  1  0  0  0  0
 23 24  1  0  0  0  0
 24 16  1  0  0  0  0
 25 21  1  0  0  0  0
 25 26  1  0  0  0  0
 26 22  1  0  0  0  0
M  END
> <CdId>
479

> <Mol Weight>
370.422

> <Formula>
C19H18N2O4S

> <Click_ID>
CLK006_H10 __ __ 

$$$$
