CLK045D04
 OpenBabel03181419432D

 20 21  0  0  0  0  0  0  0  0999 V2000
    0.7833   -1.7292    0.0000 C   0  0  0  0  0  0  0  0  0  0  0  0
    2.2125   -3.3792    0.0000 C   0  0  0  0  0  0  0  0  0  0  0  0
    2.9292   -3.7917    0.0000 C   0  0  0  0  0  0  0  0  0  0  0  0
    0.7833   -0.9042    0.0000 C   0  0  0  0  0  0  0  0  0  0  0  0
    0.0708   -0.4917    0.0000 C   0  0  0  0  0  0  0  0  0  0  0  0
    0.0708   -2.1417    0.0000 O   0  0  0  0  0  0  0  0  0  0  0  0
    1.5000   -2.1417    0.0000 N   0  0  0  0  0  0  0  0  0  0  0  0
   -0.6458    0.7458    0.0000 O   0  0  0  0  0  0  0  0  0  0  0  0
    0.0708    0.3333    0.0000 C   0  0  0  0  0  0  0  0  0  0  0  0
   -0.6458    1.5708    0.0000 C   0  0  0  0  0  0  0  0  0  0  0  0
    1.5000   -2.9667    0.0000 C   0  0  0  0  0  0  0  0  0  0  0  0
   -1.3583    1.9833    0.0000 C   0  0  0  0  0  0  0  0  0  0  0  0
    1.5000   -0.4917    0.0000 C   0  0  0  0  0  0  0  0  0  0  0  0
    1.5000    0.3333    0.0000 C   0  0  0  0  0  0  0  0  0  0  0  0
    0.7833    0.7458    0.0000 C   0  0  0  0  0  0  0  0  0  0  0  0
   -2.0750    1.5708    0.0000 C   0  0  0  0  0  0  0  0  0  0  0  0
   -1.3583    2.8083    0.0000 C   0  0  0  0  0  0  0  0  0  0  0  0
   -2.0750    3.2208    0.0000 C   0  0  0  0  0  0  0  0  0  0  0  0
   -2.7875    1.9833    0.0000 C   0  0  0  0  0  0  0  0  0  0  0  0
   -2.7875    2.8083    0.0000 C   0  0  0  0  0  0  0  0  0  0  0  0
  2 11  1  0  0  0  0
  3  2  3  0  0  0  0
  4  1  1  0  0  0  0
  5  4  2  0  0  0  0
  6  1  2  0  0  0  0
  7  1  1  0  0  0  0
  8  9  1  0  0  0  0
  9  5  1  0  0  0  0
 10  8  1  0  0  0  0
 11  7  1  0  0  0  0
 12 10  1  0  0  0  0
 13  4  1  0  0  0  0
 14 13  2  0  0  0  0
 15  9  2  0  0  0  0
 15 14  1  0  0  0  0
 16 12  2  0  0  0  0
 17 12  1  0  0  0  0
 18 17  2  0  0  0  0
 19 16  1  0  0  0  0
 20 19  2  0  0  0  0
 20 18  1  0  0  0  0
M  END
> <CdId>
3428

> <Mol Weight>
265.3065

> <Formula>
C17H15NO2

> <Click_ID>
CLK045D04 __ __ 

$$$$
