CLK015_F03
 OpenBabel03181419432D

 31 33  0  0  0  0  0  0  0  0999 V2000
    1.6949   -1.9973    0.0000 N    0  0  0  0  0  0  0  0  0  0  0  0
    0.2657   -1.9973    0.0000 C    0  0  0  0  0  0  0  0  0  0  0  0
    0.9803   -1.5850    0.0000 C    0  0  0  0  0  0  0  0  0  0  0  0
    1.6949   -2.8218    0.0000 C    0  0  0  0  0  0  0  0  0  0  0  0
    0.9803   -3.2341    0.0000 N    0  0  0  0  0  0  0  0  0  0  0  0
    0.2657   -2.8218    0.0000 C    0  0  0  0  0  0  0  0  0  0  0  0
    3.1241    0.4764    0.0000 N    0  0  0  0  0  0  0  0  0  0  0  0
    2.4095   -1.5850    0.0000 C    0  0  0  0  0  0  0  0  0  0  0  0
   -0.4489   -1.5850    0.0000 C    0  0  0  0  0  0  0  0  0  0  0  0
   -2.5927   -2.8172    0.0000 C    0  0  0  0  0  0  0  0  0  0  0  0
    2.4095   -0.7604    0.0000 C    0  0  0  0  0  0  0  0  0  0  0  0
    3.1241   -0.3482    0.0000 C    0  0  0  0  0  0  0  0  0  0  0  0
   -2.5927   -1.9926    0.0000 C    0  0  0  0  0  0  0  0  0  0  0  0
   -1.8781   -3.2295    0.0000 C    0  0  0  0  0  0  0  0  0  0  0  0
   -1.1635   -1.9973    0.0000 C    0  0  0  0  0  0  0  0  0  0  0  0
   -4.0219   -4.4709    0.0000 C    0  0  0  0  0  0  0  0  0  0  0  0
    2.4095   -3.2341    0.0000 O    0  0  0  0  0  0  0  0  0  0  0  0
   -4.0219   -5.2954    0.0000 C    0  0  0  0  0  0  0  0  0  0  0  0
    0.9803   -0.7604    0.0000 O    0  0  0  0  0  0  0  0  0  0  0  0
    3.8387    0.8886    0.0000 O    0  0  0  0  0  0  0  0  0  0  0  0
    2.4095    0.8886    0.0000 O    0  0  0  0  0  0  0  0  0  0  0  0
   -1.1635   -2.8172    0.0000 C    0  0  0  0  0  0  0  0  0  0  0  0
   -1.8781   -1.5850    0.0000 C    0  0  0  0  0  0  0  0  0  0  0  0
   -0.4489   -3.2341    0.0000 O    0  0  0  0  0  0  0  0  0  0  0  0
   -3.3073   -1.5804    0.0000 Cl   0  0  0  0  0  0  0  0  0  0  0  0
   -1.8781   -4.0540    0.0000 Cl   0  0  0  0  0  0  0  0  0  0  0  0
   -3.3073   -3.2295    0.0000 O    0  0  0  0  0  0  0  0  0  0  0  0
    3.1241   -1.9973    0.0000 C    0  0  0  0  0  0  0  0  0  0  0  0
   -3.3073   -4.0586    0.0000 C    0  0  0  0  0  0  0  0  0  0  0  0
    3.8387   -0.7604    0.0000 C    0  0  0  0  0  0  0  0  0  0  0  0
    3.8387   -1.5850    0.0000 C    0  0  0  0  0  0  0  0  0  0  0  0
  2  3  1  0  0  0  0
  2  6  1  0  0  0  0
  3  1  1  0  0  0  0
  4  1  1  0  0  0  0
  5  4  1  0  0  0  0
  6  5  1  0  0  0  0
  7 12  1  0  0  0  0
  8  1  1  0  0  0  0
  9  2  2  0  0  0  0
 10 13  1  0  0  0  0
 11  8  2  0  0  0  0
 12 11  1  0  0  0  0
 12 30  2  0  0  0  0
 13 23  2  0  0  0  0
 14 22  1  0  0  0  0
 14 10  2  0  0  0  0
 15  9  1  0  0  0  0
 16 29  1  0  0  0  0
 17  4  2  0  0  0  0
 18 16  3  0  0  0  0
 19  3  2  0  0  0  0
 20  7  1  0  0  0  0
 21  7  2  0  0  0  0
 22 15  2  0  0  0  0
 23 15  1  0  0  0  0
 24  6  2  0  0  0  0
 25 13  1  0  0  0  0
 26 14  1  0  0  0  0
 27 10  1  0  0  0  0
 28  8  1  0  0  0  0
 29 27  1  0  0  0  0
 30 31  1  0  0  0  0
 31 28  2  0  0  0  0
M  END
> <CdId>
1128

> <Mol Weight>
460.224

> <Formula>
C20H11Cl2N3O6

> <Click_ID>
CLK015_F03 __ __ 

$$$$
