CLK013_B04
 OpenBabel03181419432D

 35 38  0  0  0  0  0  0  0  0999 V2000
    3.6326   -2.3271    0.0000 C    0  0  0  0  0  0  0  0  0  0  0  0
    4.3426   -1.0994    0.0000 C    0  0  0  0  0  0  0  0  0  0  0  0
    5.0481   -1.5117    0.0000 C    0  0  0  0  0  0  0  0  0  0  0  0
    4.3426   -2.7393    0.0000 C    0  0  0  0  0  0  0  0  0  0  0  0
    5.0572   -2.3271    0.0000 N    0  0  0  0  0  0  0  0  0  0  0  0
    3.6326   -1.5025    0.0000 C    0  0  3  0  0  0  0  0  0  0  0  0
    2.9180   -2.7393    0.0000 C    0  0  0  0  0  0  0  0  0  0  0  0
    4.3426   -0.2748    0.0000 C    0  0  0  0  0  0  0  0  0  0  0  0
    2.9180   -1.0903    0.0000 C    0  0  0  0  0  0  0  0  0  0  0  0
    1.4888   -0.2657    0.0000 C    0  0  0  0  0  0  0  0  0  0  0  0
    2.2034    0.1465    0.0000 C    0  0  0  0  0  0  0  0  0  0  0  0
    1.4888   -1.0903    0.0000 C    0  0  0  0  0  0  0  0  0  0  0  0
    2.9180   -0.2657    0.0000 C    0  0  0  0  0  0  0  0  0  0  0  0
    2.2034   -1.5025    0.0000 C    0  0  0  0  0  0  0  0  0  0  0  0
    4.3472   -3.5639    0.0000 C    0  0  0  0  0  0  0  0  0  0  0  0
    5.7627   -1.0903    0.0000 C    0  0  0  0  0  0  0  0  0  0  0  0
    5.7627   -0.2795    0.0000 C    0  0  0  0  0  0  0  0  0  0  0  0
    3.6280   -3.9762    0.0000 C    0  0  0  0  0  0  0  0  0  0  0  0
    1.4888    1.3742    0.0000 C    0  0  0  0  0  0  0  0  0  0  0  0
    2.9180   -3.5639    0.0000 C    0  0  0  0  0  0  0  0  0  0  0  0
    5.0481    0.1328    0.0000 C    0  0  0  0  0  0  0  0  0  0  0  0
    1.4888    2.1988    0.0000 C    0  0  0  0  0  0  0  0  0  0  0  0
    2.1988   -2.3225    0.0000 O    0  0  0  0  0  0  0  0  0  0  0  0
    3.6280    0.1465    0.0000 O    0  0  0  0  0  0  0  0  0  0  0  0
    2.2034    0.9711    0.0000 Cl   0  0  0  0  0  0  0  0  0  0  0  0
    5.7718   -2.7393    0.0000 C    0  0  0  0  0  0  0  0  0  0  0  0
    0.7742    0.1374    0.0000 O    0  0  0  0  0  0  0  0  0  0  0  0
    0.7742   -1.5025    0.0000 O    0  0  0  0  0  0  0  0  0  0  0  0
    0.7742    0.9620    0.0000 C    0  0  0  0  0  0  0  0  0  0  0  0
    5.3458    0.4398    0.0000 C    0  0  0  0  0  0  0  0  0  0  0  0
    3.6280   -4.8098    0.0000 C    0  0  0  0  0  0  0  0  0  0  0  0
    2.7943   -3.9762    0.0000 C    0  0  0  0  0  0  0  0  0  0  0  0
    6.4910    0.1465    0.0000 C    0  0  0  0  0  0  0  0  0  0  0  0
    0.0596   -1.0903    0.0000 C    0  0  0  0  0  0  0  0  0  0  0  0
    0.0596   -0.2657    0.0000 C    0  0  0  0  0  0  0  0  0  0  0  0
  2  6  1  0  0  0  0
  3  2  2  0  0  0  0
  4  1  2  0  0  0  0
  5  4  1  0  0  0  0
  5  3  1  0  0  0  0
  6  1  1  0  0  0  0
  7  1  1  0  0  0  0
  8  2  1  0  0  0  0
  9  6  1  0  0  0  0
 10 12  1  0  0  0  0
 10 11  2  0  0  0  0
 11 13  1  0  0  0  0
 12 14  2  0  0  0  0
 13  9  2  0  0  0  0
 14  9  1  0  0  0  0
 15  4  1  0  0  0  0
 15 18  1  0  0  0  0
 16  3  1  0  0  0  0
 17 21  1  0  0  0  0
 17 16  1  0  0  0  0
 18 20  1  0  0  0  0
 19 29  1  0  0  0  0
 20  7  1  0  0  0  0
 21  8  1  0  0  0  0
 22 19  3  0  0  0  0
 23  7  2  0  0  0  0
 24  8  2  0  0  0  0
 25 11  1  0  0  0  0
 26  5  1  0  0  0  0
 27 10  1  0  0  0  0
 28 12  1  0  0  0  0
 29 27  1  0  0  0  0
 30 17  1  0  0  0  0
 31 18  1  0  0  0  0
 32 18  1  0  0  0  0
 33 17  1  0  0  0  0
 34 28  1  0  0  0  0
 35 34  1  0  0  0  0
M  END
> <CdId>
929

> <Mol Weight>
496.038

> <Formula>
C29H34ClNO4

> <Click_ID>
CLK013_B04 __ __ 

$$$$
