CLK040F02
 OpenBabel03181419432D

 23 24  0  0  0  0  0  0  0  0999 V2000
   -1.9917   -0.9292    0.0000 S   0  0  0  0  0  0  0  0  0  0  0  0
    1.5833    0.3083    0.0000 N   0  0  0  0  0  0  0  0  0  0  0  0
    0.8667    0.7208    0.0000 C   0  0  0  0  0  0  0  0  0  0  0  0
    2.2958    0.7208    0.0000 C   0  0  0  0  0  0  0  0  0  0  0  0
   -1.2750   -0.5167    0.0000 C   0  0  0  0  0  0  0  0  0  0  0  0
   -4.1333   -1.3417    0.0000 C   0  0  0  0  0  0  0  0  0  0  0  0
   -4.8500   -1.7542    0.0000 C   0  0  0  0  0  0  0  0  0  0  0  0
   -1.5792   -1.6458    0.0000 O   0  0  0  0  0  0  0  0  0  0  0  0
   -2.4042   -0.2167    0.0000 O   0  0  0  0  0  0  0  0  0  0  0  0
    2.2958    1.5458    0.0000 N   0  0  0  0  0  0  0  0  0  0  0  0
    0.1542    0.3083    0.0000 C   0  0  0  0  0  0  0  0  0  0  0  0
   -2.7042   -1.3417    0.0000 N   0  0  0  0  0  0  0  0  0  0  0  0
    3.0125    0.3083    0.0000 C   0  0  0  0  0  0  0  0  0  0  0  0
    0.8667    1.5458    0.0000 O   0  0  0  0  0  0  0  0  0  0  0  0
   -1.2750    0.3083    0.0000 C   0  0  0  0  0  0  0  0  0  0  0  0
   -0.5625   -0.9292    0.0000 C   0  0  0  0  0  0  0  0  0  0  0  0
   -0.5625    0.7208    0.0000 C   0  0  0  0  0  0  0  0  0  0  0  0
    0.1542   -0.5167    0.0000 C   0  0  0  0  0  0  0  0  0  0  0  0
   -3.4208   -0.9292    0.0000 C   0  0  0  0  0  0  0  0  0  0  0  0
    3.0125   -0.5167    0.0000 O   0  0  0  0  0  0  0  0  0  0  0  0
    3.0125    1.9583    0.0000 C   0  0  0  0  0  0  0  0  0  0  0  0
    3.7250    0.7208    0.0000 C   0  0  0  0  0  0  0  0  0  0  0  0
    3.7250    1.5458    0.0000 C   0  0  0  0  0  0  0  0  0  0  0  0
  2  3  1  0  0  0  0
  3 11  1  0  0  0  0
  4  2  1  0  0  0  0
  5  1  1  0  0  0  0
  6 19  1  0  0  0  0
  7  6  3  0  0  0  0
  8  1  2  0  0  0  0
  9  1  2  0  0  0  0
 10  4  1  0  0  0  0
 11 18  2  0  0  0  0
 12  1  1  0  0  0  0
 13  4  2  0  0  0  0
 14  3  2  0  0  0  0
 15  5  1  0  0  0  0
 16  5  2  0  0  0  0
 17 15  2  0  0  0  0
 17 11  1  0  0  0  0
 18 16  1  0  0  0  0
 19 12  1  0  0  0  0
 20 13  1  0  0  0  0
 21 10  2  0  0  0  0
 21 23  1  0  0  0  0
 22 13  1  0  0  0  0
 23 22  2  0  0  0  0
M  END
> <CdId>
3014

> <Mol Weight>
331.346

> <Formula>
C15H13N3O4S

> <Click_ID>
CLK040F02 __ __ 

$$$$
