CLK015_D10
 OpenBabel03181419432D

 29 31  0  0  0  0  0  0  0  0999 V2000
    1.5645   -0.8156    0.0000 N   0  0  0  0  0  0  0  0  0  0  0  0
    4.5229    1.3981    0.0000 N   0  0  0  0  0  0  0  0  0  0  0  0
    1.8225   -1.6020    0.0000 C   0  0  0  0  0  0  0  0  0  0  0  0
    2.9002   -0.8156    0.0000 C   0  0  0  0  0  0  0  0  0  0  0  0
    2.2344   -0.3287    0.0000 C   0  0  0  0  0  0  0  0  0  0  0  0
    3.8571    0.2455    0.0000 C   0  0  0  0  0  0  0  0  0  0  0  0
    3.7115    1.5728    0.0000 C   0  0  0  0  0  0  0  0  0  0  0  0
    2.6463   -1.6020    0.0000 S   0  0  0  0  0  0  0  0  0  0  0  0
    5.1428    1.9556    0.0000 C   0  0  0  0  0  0  0  0  0  0  0  0
    4.6103    0.5825    0.0000 C   0  0  0  0  0  0  0  0  0  0  0  0
    3.6866   -0.5617    0.0000 C   0  0  0  0  0  0  0  0  0  0  0  0
    3.2996    0.8571    0.0000 C   0  0  0  0  0  0  0  0  0  0  0  0
    5.9210    1.6934    0.0000 C   0  0  0  0  0  0  0  0  0  0  0  0
    6.5326    2.2344    0.0000 C   0  0  0  0  0  0  0  0  0  0  0  0
    7.3148    1.9805    0.0000 C   0  0  0  0  0  0  0  0  0  0  0  0
    0.6116    0.2455    0.0000 C   0  0  0  0  0  0  0  0  0  0  0  0
    0.3912    1.0443    0.0000 C   0  0  0  0  0  0  0  0  0  0  0  0
    1.3356   -2.2635    0.0000 O   0  0  0  0  0  0  0  0  0  0  0  0
    4.9681    2.7462    0.0000 C   0  0  0  0  0  0  0  0  0  0  0  0
    2.2261    0.4951    0.0000 O   0  0  0  0  0  0  0  0  0  0  0  0
    0.7864   -0.5617    0.0000 C   0  0  0  0  0  0  0  0  0  0  0  0
    7.9307    2.5298    0.0000 O   0  0  0  0  0  0  0  0  0  0  0  0
    6.3703    3.0416    0.0000 C   0  0  0  0  0  0  0  0  0  0  0  0
    5.5839    3.2954    0.0000 C   0  0  0  0  0  0  0  0  0  0  0  0
    3.3828    2.3301    0.0000 C   0  0  0  0  0  0  0  0  0  0  0  0
    7.4813    1.1734    0.0000 O   0  0  0  0  0  0  0  0  0  0  0  0
    5.3218    0.1706    0.0000 C   0  0  0  0  0  0  0  0  0  0  0  0
    4.1859    3.0041    0.0000 C   0  0  0  0  0  0  0  0  0  0  0  0
    6.8696    0.6241    0.0000 C   0  0  0  0  0  0  0  0  0  0  0  0
  2 10  1  0  0  0  0
  2  7  1  0  0  0  0
  3  1  1  0  0  0  0
  4  5  1  0  0  0  0
  4  8  1  0  0  0  0
  5  1  1  0  0  0  0
  6 11  1  0  0  0  0
  7 12  2  0  0  0  0
  8  3  1  0  0  0  0
  9  2  1  0  0  0  0
 10  6  2  0  0  0  0
 11  4  2  0  0  0  0
 12  6  1  0  0  0  0
 13  9  2  0  0  0  0
 14 13  1  0  0  0  0
 14 23  2  0  0  0  0
 15 14  1  0  0  0  0
 16 21  1  0  0  0  0
 17 16  3  0  0  0  0
 18  3  2  0  0  0  0
 19  9  1  0  0  0  0
 20  5  2  0  0  0  0
 21  1  1  0  0  0  0
 22 15  2  0  0  0  0
 23 24  1  0  0  0  0
 24 19  2  0  0  0  0
 25  7  1  0  0  0  0
 26 15  1  0  0  0  0
 27 10  1  0  0  0  0
 28 19  1  0  0  0  0
 29 26  1  0  0  0  0
M  END
> <CdId>
1115

> <Mol Weight>
408.47

> <Formula>
C22H20N2O4S

> <Click_ID>
CLK015_D10 __ __ 

$$$$
