CLK016_D08
 OpenBabel03181419432D

 26 28  0  0  0  0  0  0  0  0999 V2000
    1.5619   -0.8142    0.0000 N   0  0  0  0  0  0  0  0  0  0  0  0
    1.8195   -1.5993    0.0000 C   0  0  0  0  0  0  0  0  0  0  0  0
    2.8954   -0.8142    0.0000 C   0  0  0  0  0  0  0  0  0  0  0  0
    2.2307   -0.3282    0.0000 C   0  0  0  0  0  0  0  0  0  0  0  0
    2.6420   -1.5993    0.0000 S   0  0  0  0  0  0  0  0  0  0  0  0
    3.6805   -0.5608    0.0000 C   0  0  0  0  0  0  0  0  0  0  0  0
    0.6106    0.2451    0.0000 C   0  0  0  0  0  0  0  0  0  0  0  0
    3.8550    0.2492    0.0000 C   0  0  0  0  0  0  0  0  0  0  0  0
    0.3905    1.0426    0.0000 C   0  0  0  0  0  0  0  0  0  0  0  0
    1.3334   -2.2598    0.0000 O   0  0  0  0  0  0  0  0  0  0  0  0
    2.2224    0.4943    0.0000 O   0  0  0  0  0  0  0  0  0  0  0  0
    0.7851   -0.5608    0.0000 C   0  0  0  0  0  0  0  0  0  0  0  0
    4.6401    0.4985    0.0000 C   0  0  0  0  0  0  0  0  0  0  0  0
    5.2465   -0.0540    0.0000 O   0  0  0  0  0  0  0  0  0  0  0  0
    6.0358    0.1952    0.0000 C   0  0  0  0  0  0  0  0  0  0  0  0
    7.8636   -1.4872    0.0000 C   0  0  0  0  0  0  0  0  0  0  0  0
    6.6465   -0.3656    0.0000 C   0  0  0  0  0  0  0  0  0  0  0  0
    8.4659   -2.0480    0.0000 I   0  0  0  0  0  0  0  0  0  0  0  0
    7.0702   -1.7322    0.0000 C   0  0  0  0  0  0  0  0  0  0  0  0
    8.0380   -0.6854    0.0000 C   0  0  0  0  0  0  0  0  0  0  0  0
    7.4316   -0.1163    0.0000 C   0  0  0  0  0  0  0  0  0  0  0  0
    6.4595   -1.1756    0.0000 C   0  0  0  0  0  0  0  0  0  0  0  0
    3.2443    0.8058    0.0000 C   0  0  0  0  0  0  0  0  0  0  0  0
    4.8145    1.3043    0.0000 C   0  0  0  0  0  0  0  0  0  0  0  0
    3.4188    1.6076    0.0000 C   0  0  0  0  0  0  0  0  0  0  0  0
    4.2122    1.8568    0.0000 C   0  0  0  0  0  0  0  0  0  0  0  0
  2  1  1  0  0  0  0
  3  4  1  0  0  0  0
  3  5  1  0  0  0  0
  4  1  1  0  0  0  0
  5  2  1  0  0  0  0
  6  3  2  0  0  0  0
  7 12  1  0  0  0  0
  8  6  1  0  0  0  0
  9  7  3  0  0  0  0
 10  2  2  0  0  0  0
 11  4  2  0  0  0  0
 12  1  1  0  0  0  0
 13  8  1  0  0  0  0
 14 13  1  0  0  0  0
 15 14  1  0  0  0  0
 16 19  2  0  0  0  0
 17 15  1  0  0  0  0
 18 16  1  0  0  0  0
 19 22  1  0  0  0  0
 20 21  2  0  0  0  0
 20 16  1  0  0  0  0
 21 17  1  0  0  0  0
 22 17  2  0  0  0  0
 23  8  2  0  0  0  0
 24 13  2  0  0  0  0
 24 26  1  0  0  0  0
 25 23  1  0  0  0  0
 26 25  2  0  0  0  0
M  END
> <CdId>
1193

> <Mol Weight>
475.3

> <Formula>
C20H14INO3S

> <Click_ID>
CLK016_D08 __ __ 

$$$$
