CLK023_G09
 OpenBabel03181419432D

 22 24  0  0  0  0  0  0  0  0999 V2000
   -1.9682   -0.3463    0.0000 N   0  0  0  0  0  0  0  0  0  0  0  0
   -2.3796   -1.0698    0.0000 C   0  0  0  0  0  0  0  0  0  0  0  0
   -1.1624   -0.5211    0.0000 C   0  0  0  0  0  0  0  0  0  0  0  0
   -1.0766   -1.3407    0.0000 C   0  0  0  0  0  0  0  0  0  0  0  0
   -1.8241   -1.6767    0.0000 S   0  0  0  0  0  0  0  0  0  0  0  0
    1.7761   -0.5314    0.0000 C   0  0  0  0  0  0  0  0  0  0  0  0
   -0.3566   -1.7521    0.0000 C   0  0  0  0  0  0  0  0  0  0  0  0
    1.0595   -0.1132    0.0000 C   0  0  0  0  0  0  0  0  0  0  0  0
    1.7658   -1.3407    0.0000 C   0  0  0  0  0  0  0  0  0  0  0  0
    0.3600   -1.3407    0.0000 C   0  0  0  0  0  0  0  0  0  0  0  0
   -1.8207    1.0663    0.0000 C   0  0  0  0  0  0  0  0  0  0  0  0
   -1.3749    1.7624    0.0000 C   0  0  0  0  0  0  0  0  0  0  0  0
    2.3899    0.0240    0.0000 O   0  0  0  0  0  0  0  0  0  0  0  0
    1.2447    0.6960    0.0000 O   0  0  0  0  0  0  0  0  0  0  0  0
   -3.1991   -1.1555    0.0000 O   0  0  0  0  0  0  0  0  0  0  0  0
    0.3532   -0.5178    0.0000 C   0  0  0  0  0  0  0  0  0  0  0  0
    1.0732   -1.7590    0.0000 C   0  0  0  0  0  0  0  0  0  0  0  0
   -0.5555    0.0377    0.0000 O   0  0  0  0  0  0  0  0  0  0  0  0
   -2.3042    0.3977    0.0000 C   0  0  0  0  0  0  0  0  0  0  0  0
    2.0607    0.7680    0.0000 C   0  0  0  0  0  0  0  0  0  0  0  0
    2.4893   -1.7590    0.0000 O   0  0  0  0  0  0  0  0  0  0  0  0
    3.1956   -1.3510    0.0000 C   0  0  0  0  0  0  0  0  0  0  0  0
  2  1  1  0  0  0  0
  3  1  1  0  0  0  0
  4  3  1  0  0  0  0
  5  2  1  0  0  0  0
  5  4  1  0  0  0  0
  6  9  2  0  0  0  0
  7  4  2  0  0  0  0
  8 16  2  0  0  0  0
  8  6  1  0  0  0  0
  9 17  1  0  0  0  0
 10  7  1  0  0  0  0
 11 19  1  0  0  0  0
 12 11  3  0  0  0  0
 13  6  1  0  0  0  0
 14  8  1  0  0  0  0
 15  2  2  0  0  0  0
 16 10  1  0  0  0  0
 17 10  2  0  0  0  0
 18  3  2  0  0  0  0
 19  1  1  0  0  0  0
 20 14  1  0  0  0  0
 20 13  1  0  0  0  0
 21  9  1  0  0  0  0
 22 21  1  0  0  0  0
M  END
> <CdId>
1764

> <Mol Weight>
317.317

> <Formula>
C15H11NO5S

> <Click_ID>
CLK023_G09 __ __ 

$$$$
