CLK011_D11
 OpenBabel03181419432D

 27 29  0  0  0  0  0  0  0  0999 V2000
    4.7733   -2.7074    0.0000 N    0  0  0  0  0  0  0  0  0  0  0  0
    4.4752   -3.4692    0.0000 C    0  0  0  0  0  0  0  0  0  0  0  0
    4.1357   -2.1776    0.0000 C    0  0  0  0  0  0  0  0  0  0  0  0
    3.4444   -2.6247    0.0000 C    0  0  0  0  0  0  0  0  0  0  0  0
    3.6513   -3.4278    0.0000 S    0  0  0  0  0  0  0  0  0  0  0  0
    5.5681   -2.4963    0.0000 C    0  0  0  0  0  0  0  0  0  0  0  0
    2.6744   -2.3266    0.0000 C    0  0  0  0  0  0  0  0  0  0  0  0
    0.7369   -3.8915    0.0000 C    0  0  0  0  0  0  0  0  0  0  0  0
    1.5069   -4.1771    0.0000 C    0  0  0  0  0  0  0  0  0  0  0  0
    0.6127   -3.0676    0.0000 C    0  0  0  0  0  0  0  0  0  0  0  0
    2.0285   -2.8482    0.0000 C    0  0  0  0  0  0  0  0  0  0  0  0
    6.1394   -3.0842    0.0000 C    0  0  0  0  0  0  0  0  0  0  0  0
   -0.4181   -5.7502    0.0000 C    0  0  0  0  0  0  0  0  0  0  0  0
   -1.0639   -6.2636    0.0000 C    0  0  0  0  0  0  0  0  0  0  0  0
    4.9223   -4.1647    0.0000 O    0  0  0  0  0  0  0  0  0  0  0  0
    2.1527   -3.6637    0.0000 C    0  0  0  0  0  0  0  0  0  0  0  0
    1.2544   -2.5502    0.0000 C    0  0  0  0  0  0  0  0  0  0  0  0
    4.1771   -1.3579    0.0000 O    0  0  0  0  0  0  0  0  0  0  0  0
   -0.1573   -2.7695    0.0000 Cl   0  0  0  0  0  0  0  0  0  0  0  0
    1.6311   -4.9968    0.0000 Cl   0  0  0  0  0  0  0  0  0  0  0  0
    6.9342   -2.8731    0.0000 C    0  0  0  0  0  0  0  0  0  0  0  0
    0.0994   -4.4131    0.0000 O    0  0  0  0  0  0  0  0  0  0  0  0
    5.7792   -1.7015    0.0000 C    0  0  0  0  0  0  0  0  0  0  0  0
    7.5055   -3.4650    0.0000 Cl   0  0  0  0  0  0  0  0  0  0  0  0
    0.2236   -5.2204    0.0000 C    0  0  0  0  0  0  0  0  0  0  0  0
    6.5823   -1.4945    0.0000 C    0  0  0  0  0  0  0  0  0  0  0  0
    7.1578   -2.0782    0.0000 C    0  0  0  0  0  0  0  0  0  0  0  0
  2  1  1  0  0  0  0
  3  1  1  0  0  0  0
  4  3  1  0  0  0  0
  5  2  1  0  0  0  0
  5  4  1  0  0  0  0
  6  1  1  0  0  0  0
  7  4  2  0  0  0  0
  8 10  2  0  0  0  0
  8  9  1  0  0  0  0
  9 16  2  0  0  0  0
 10 17  1  0  0  0  0
 11  7  1  0  0  0  0
 12  6  2  0  0  0  0
 13 25  1  0  0  0  0
 14 13  3  0  0  0  0
 15  2  2  0  0  0  0
 16 11  1  0  0  0  0
 17 11  2  0  0  0  0
 18  3  2  0  0  0  0
 19 10  1  0  0  0  0
 20  9  1  0  0  0  0
 21 12  1  0  0  0  0
 22  8  1  0  0  0  0
 23  6  1  0  0  0  0
 24 21  1  0  0  0  0
 25 22  1  0  0  0  0
 26 23  2  0  0  0  0
 27 26  1  0  0  0  0
 27 21  2  0  0  0  0
M  END
> <CdId>
796

> <Mol Weight>
438.712

> <Formula>
C19H10Cl3NO3S

> <Click_ID>
CLK011_D11 __ __ 

$$$$
