CLK046E08
 OpenBabel03181419432D

 19 19  0  0  0  0  0  0  0  0999 V2000
    0.1125    1.8458    0.0000 C   0  0  0  0  0  0  0  0  0  0  0  0
    0.1125    1.0208    0.0000 N   0  0  0  0  0  0  0  0  0  0  0  0
   -0.6042   -2.6917    0.0000 C   0  0  0  0  0  0  0  0  0  0  0  0
    1.5417    3.4958    0.0000 C   0  0  0  0  0  0  0  0  0  0  0  0
    2.2542    3.9083    0.0000 C   0  0  0  0  0  0  0  0  0  0  0  0
   -0.6042   -1.8667    0.0000 C   0  0  0  0  0  0  0  0  0  0  0  0
   -0.6042    2.2583    0.0000 O   0  0  0  0  0  0  0  0  0  0  0  0
   -0.6042    0.6083    0.0000 C   0  0  0  0  0  0  0  0  0  0  0  0
   -1.3167   -3.1042    0.0000 O   0  0  0  0  0  0  0  0  0  0  0  0
    0.8250    2.2583    0.0000 N   0  0  0  0  0  0  0  0  0  0  0  0
    0.1125   -1.4542    0.0000 C   0  0  0  0  0  0  0  0  0  0  0  0
   -1.3167   -1.4542    0.0000 C   0  0  0  0  0  0  0  0  0  0  0  0
   -0.6042   -0.2167    0.0000 C   0  0  0  0  0  0  0  0  0  0  0  0
    0.1125   -3.1042    0.0000 O   0  0  0  0  0  0  0  0  0  0  0  0
   -1.3167   -0.6292    0.0000 C   0  0  0  0  0  0  0  0  0  0  0  0
    0.1125   -0.6292    0.0000 C   0  0  0  0  0  0  0  0  0  0  0  0
    0.8250    3.0833    0.0000 C   0  0  0  0  0  0  0  0  0  0  0  0
    0.8250    0.6083    0.0000 C   0  0  0  0  0  0  0  0  0  0  0  0
    0.1125   -3.9292    0.0000 C   0  0  0  0  0  0  0  0  0  0  0  0
  2  1  1  0  0  0  0
  3  6  1  0  0  0  0
  4 17  1  0  0  0  0
  5  4  3  0  0  0  0
  6 12  2  0  0  0  0
  7  1  2  0  0  0  0
  8  2  1  0  0  0  0
  9  3  2  0  0  0  0
 10  1  1  0  0  0  0
 11 16  2  0  0  0  0
 11  6  1  0  0  0  0
 12 15  1  0  0  0  0
 13  8  1  0  0  0  0
 14  3  1  0  0  0  0
 15 13  2  0  0  0  0
 16 13  1  0  0  0  0
 17 10  1  0  0  0  0
 18  2  1  0  0  0  0
 19 14  1  0  0  0  0
M  END
> <CdId>
3541

> <Mol Weight>
260.2884

> <Formula>
C14H16N2O3

> <Click_ID>
CLK046E08 __ __ 

$$$$
