CLK029_C08
 OpenBabel03181419432D

 33 36  0  0  0  0  0  0  0  0999 V2000
   -1.1649    2.3882    0.0000 C   0  0  0  0  0  0  0  0  0  0  0  0
   -0.3382    2.3799    0.0000 N   0  0  0  0  0  0  0  0  0  0  0  0
   -1.6492    1.7244    0.0000 N   0  0  0  0  0  0  0  0  0  0  0  0
    3.3862    3.0772    0.0000 N   0  0  0  0  0  0  0  0  0  0  0  0
   -1.6492    3.0563    0.0000 S   0  0  0  0  0  0  0  0  0  0  0  0
   -2.4383    2.8016    0.0000 C   0  0  0  0  0  0  0  0  0  0  0  0
   -2.4383    1.9749    0.0000 C   0  0  0  0  0  0  0  0  0  0  0  0
    0.0752    3.0939    0.0000 C   0  0  0  0  0  0  0  0  0  0  0  0
    3.8580    3.7661    0.0000 C   0  0  0  0  0  0  0  0  0  0  0  0
    3.8998    2.4300    0.0000 C   0  0  0  0  0  0  0  0  0  0  0  0
   -4.5928    3.2192    0.0000 C   0  0  0  0  0  0  0  0  0  0  0  0
   -3.1523    3.2149    0.0000 C   0  0  0  0  0  0  0  0  0  0  0  0
   -3.8663    2.8016    0.0000 C   0  0  0  0  0  0  0  0  0  0  0  0
    2.5595    3.0897    0.0000 C   0  0  0  0  0  0  0  0  0  0  0  0
   -1.9498    0.3215    0.0000 C   0  0  0  0  0  0  0  0  0  0  0  0
   -3.1523    1.5615    0.0000 C   0  0  0  0  0  0  0  0  0  0  0  0
   -2.5010   -0.2923    0.0000 C   0  0  0  0  0  0  0  0  0  0  0  0
    0.9019    3.0939    0.0000 C   0  0  0  0  0  0  0  0  0  0  0  0
   -0.3382    3.8079    0.0000 O   0  0  0  0  0  0  0  0  0  0  0  0
    4.6513    3.5323    0.0000 C   0  0  0  0  0  0  0  0  0  0  0  0
    4.6764    2.7139    0.0000 C   0  0  0  0  0  0  0  0  0  0  0  0
    3.5741    4.5511    0.0000 O   0  0  0  0  0  0  0  0  0  0  0  0
    3.6743    1.6367    0.0000 O   0  0  0  0  0  0  0  0  0  0  0  0
   -3.8663    1.9749    0.0000 C   0  0  0  0  0  0  0  0  0  0  0  0
   -5.3068    2.8058    0.0000 O   0  0  0  0  0  0  0  0  0  0  0  0
   -1.3987    0.9352    0.0000 C   0  0  0  0  0  0  0  0  0  0  0  0
    2.1461    3.8079    0.0000 C   0  0  0  0  0  0  0  0  0  0  0  0
    2.1336    2.3757    0.0000 C   0  0  0  0  0  0  0  0  0  0  0  0
    1.3152    2.3882    0.0000 C   0  0  0  0  0  0  0  0  0  0  0  0
    1.3277    3.8162    0.0000 C   0  0  0  0  0  0  0  0  0  0  0  0
   -4.5803    4.0376    0.0000 O   0  0  0  0  0  0  0  0  0  0  0  0
   -5.3068    4.4634    0.0000 C   0  0  0  0  0  0  0  0  0  0  0  0
   -5.2985    5.2859    0.0000 C   0  0  0  0  0  0  0  0  0  0  0  0
  2  1  2  0  0  0  0
  3  1  1  0  0  0  0
  4 14  1  0  0  0  0
  5  1  1  0  0  0  0
  6  5  1  0  0  0  0
  6  7  2  0  0  0  0
  7  3  1  0  0  0  0
  8  2  1  0  0  0  0
  9  4  1  0  0  0  0
 10  4  1  0  0  0  0
 11 13  1  0  0  0  0
 12  6  1  0  0  0  0
 13 12  2  0  0  0  0
 13 24  1  0  0  0  0
 14 27  1  0  0  0  0
 15 26  1  0  0  0  0
 16  7  1  0  0  0  0
 17 15  3  0  0  0  0
 18  8  1  0  0  0  0
 19  8  2  0  0  0  0
 20  9  1  0  0  0  0
 21 10  1  0  0  0  0
 21 20  1  0  0  0  0
 22  9  2  0  0  0  0
 23 10  2  0  0  0  0
 24 16  2  0  0  0  0
 25 11  2  0  0  0  0
 26  3  1  0  0  0  0
 27 30  2  0  0  0  0
 28 29  1  0  0  0  0
 28 14  2  0  0  0  0
 29 18  2  0  0  0  0
 30 18  1  0  0  0  0
 31 11  1  0  0  0  0
 32 31  1  0  0  0  0
 33 32  1  0  0  0  0
M  END
> <CdId>
2192

> <Mol Weight>
461.49

> <Formula>
C24H19N3O5S

> <Click_ID>
CLK029_C08 __ __ 

$$$$
