CLK003_H06
 OpenBabel03181419432D

 13 13  0  0  0  0  0  0  0  0999 V2000
   -0.0704    0.6877    0.0000 C   0  0  0  0  0  0  0  0  0  0  0  0
    0.6407    0.2801    0.0000 C   0  0  0  0  0  0  0  0  0  0  0  0
   -0.7934    0.2902    0.0000 C   0  0  0  0  0  0  0  0  0  0  0  0
    0.3489    1.4090    0.0000 C   0  0  0  0  0  0  0  0  0  0  0  0
   -0.7146    1.2144    0.0000 O   0  0  0  0  0  0  0  0  0  0  0  0
    0.6407   -0.5468    0.0000 C   0  0  0  0  0  0  0  0  0  0  0  0
   -0.7934   -0.5367    0.0000 C   0  0  0  0  0  0  0  0  0  0  0  0
    0.7565    2.1285    0.0000 C   0  0  0  0  0  0  0  0  0  0  0  0
   -0.0822   -0.9561    0.0000 N   0  0  0  0  0  0  0  0  0  0  0  0
    1.4576   -0.4696    0.0000 C   0  0  0  0  0  0  0  0  0  0  0  0
    1.1171   -1.2177    0.0000 C   0  0  0  0  0  0  0  0  0  0  0  0
   -1.4995   -0.9561    0.0000 C   0  0  0  0  0  0  0  0  0  0  0  0
   -1.0064   -1.3335    0.0000 C   0  0  0  0  0  0  0  0  0  0  0  0
  1  2  1  0  0  0  0
  1  3  1  0  0  0  0
  1  4  1  0  0  0  0
  1  5  1  0  0  0  0
  2  6  1  0  0  0  0
  3  7  1  0  0  0  0
  4  8  3  0  0  0  0
  6  9  1  0  0  0  0
  6 10  1  0  0  0  0
  6 11  1  0  0  0  0
  7 12  1  0  0  0  0
  7 13  1  0  0  0  0
  7  9  1  0  0  0  0
M  END
> <CdId>
235

> <Mol Weight>
181.2747

> <Formula>
C11H19NO

> <Click_ID>
CLK003_H06 __ __ 

$$$$
