CLK007_A09
 OpenBabel03181419432D

 27 29  0  0  0  0  0  0  0  0999 V2000
   -0.1271   -1.9856    0.0000 C    0  0  0  0  0  0  0  0  0  0  0  0
   -0.1202   -2.8134    0.0000 C    0  0  0  0  0  0  0  0  0  0  0  0
   -0.7626   -1.4841    0.0000 N    0  0  0  0  0  0  0  0  0  0  0  0
    0.5565   -1.5356    0.0000 O    0  0  0  0  0  0  0  0  0  0  0  0
    0.5909   -3.2257    0.0000 C    0  0  0  0  0  0  0  0  0  0  0  0
   -0.8382   -3.2257    0.0000 C    0  0  0  0  0  0  0  0  0  0  0  0
   -0.4672   -0.7111    0.0000 C    0  0  0  0  0  0  0  0  0  0  0  0
    0.3435   -0.7489    0.0000 C    0  0  0  0  0  0  0  0  0  0  0  0
    0.5840   -4.0536    0.0000 C    0  0  0  0  0  0  0  0  0  0  0  0
    1.3054   -2.8134    0.0000 C    0  0  0  0  0  0  0  0  0  0  0  0
   -0.8382   -4.0536    0.0000 C    0  0  0  0  0  0  0  0  0  0  0  0
   -0.9241   -0.0137    0.0000 C    0  0  0  0  0  0  0  0  0  0  0  0
    0.8520   -0.0927    0.0000 O    0  0  0  0  0  0  0  0  0  0  0  0
   -0.1271   -4.4624    0.0000 C    0  0  0  0  0  0  0  0  0  0  0  0
   -0.5427    0.7214    0.0000 C    0  0  0  0  0  0  0  0  0  0  0  0
   -0.9996    1.4187    0.0000 C    0  0  0  0  0  0  0  0  0  0  0  0
    0.2714    0.7730    0.0000 C    0  0  0  0  0  0  0  0  0  0  0  0
   -0.6252    2.1539    0.0000 C    0  0  0  0  0  0  0  0  0  0  0  0
    0.6527    1.5012    0.0000 C    0  0  0  0  0  0  0  0  0  0  0  0
    0.1959    2.1986    0.0000 C    0  0  0  0  0  0  0  0  0  0  0  0
   -1.0718    2.8341    0.0000 O    0  0  0  0  0  0  0  0  0  0  0  0
    1.4737    1.5390    0.0000 Cl   0  0  0  0  0  0  0  0  0  0  0  0
    0.5702    2.9337    0.0000 O    0  0  0  0  0  0  0  0  0  0  0  0
   -1.8962    2.7928    0.0000 C    0  0  0  0  0  0  0  0  0  0  0  0
    0.1236    3.6173    0.0000 C    0  0  0  0  0  0  0  0  0  0  0  0
    0.4947    4.3456    0.0000 C    0  0  0  0  0  0  0  0  0  0  0  0
    1.3191    4.3868    0.0000 C    0  0  0  0  0  0  0  0  0  0  0  0
  1  2  1  0  0  0  0
  1  3  2  0  0  0  0
  1  4  1  0  0  0  0
  2  5  1  0  0  0  0
  2  6  2  0  0  0  0
  3  7  1  0  0  0  0
  4  8  1  0  0  0  0
  5  9  2  0  0  0  0
  5 10  1  0  0  0  0
  6 11  1  0  0  0  0
  7 12  2  0  0  0  0
  7  8  1  0  0  0  0
  8 13  2  0  0  0  0
  9 14  1  0  0  0  0
 11 14  2  0  0  0  0
 12 15  1  0  0  0  0
 15 16  1  0  0  0  0
 15 17  2  0  0  0  0
 16 18  2  0  0  0  0
 17 19  1  0  0  0  0
 18 20  1  0  0  0  0
 18 21  1  0  0  0  0
 19 22  1  0  0  0  0
 19 20  2  0  0  0  0
 20 23  1  0  0  0  0
 21 24  1  0  0  0  0
 23 25  1  0  0  0  0
 25 26  1  0  0  0  0
 26 27  3  0  0  0  0
M  END
> <CdId>
488

> <Mol Weight>
381.809

> <Formula>
C21H16ClNO4

> <Click_ID>
CLK007_A09 __ __ 

$$$$
