CLK046F04
 OpenBabel03181419432D

 18 18  0  0  0  0  0  0  0  0999 V2000
    1.5875   -2.6542    0.0000 C   0  0  0  0  0  0  0  0  0  0  0  0
   -1.9875    2.7083    0.0000 C   0  0  0  0  0  0  0  0  0  0  0  0
   -2.7000    3.1208    0.0000 C   0  0  0  0  0  0  0  0  0  0  0  0
    0.1583   -1.0042    0.0000 C   0  0  0  0  0  0  0  0  0  0  0  0
    0.8708   -1.4167    0.0000 N   0  0  0  0  0  0  0  0  0  0  0  0
   -0.5583    0.2333    0.0000 N   0  0  0  0  0  0  0  0  0  0  0  0
   -0.5583   -1.4167    0.0000 O   0  0  0  0  0  0  0  0  0  0  0  0
    0.8708   -2.2417    0.0000 C   0  0  0  0  0  0  0  0  0  0  0  0
    1.1750   -3.3708    0.0000 F   0  0  0  0  0  0  0  0  0  0  0  0
    2.3000   -3.0667    0.0000 F   0  0  0  0  0  0  0  0  0  0  0  0
    2.0000   -1.9417    0.0000 F   0  0  0  0  0  0  0  0  0  0  0  0
   -1.2708    2.2958    0.0000 C   0  0  0  0  0  0  0  0  0  0  0  0
    0.1583   -0.1792    0.0000 C   0  0  0  0  0  0  0  0  0  0  0  0
   -0.5583    1.0583    0.0000 C   0  0  0  0  0  0  0  0  0  0  0  0
   -1.2708    1.4708    0.0000 C   0  0  0  0  0  0  0  0  0  0  0  0
    0.1583    2.2958    0.0000 C   0  0  0  0  0  0  0  0  0  0  0  0
   -0.5583    2.7083    0.0000 C   0  0  0  0  0  0  0  0  0  0  0  0
    0.1583    1.4708    0.0000 C   0  0  0  0  0  0  0  0  0  0  0  0
  2 12  1  0  0  0  0
  3  2  3  0  0  0  0
  4  5  1  0  0  0  0
  5  8  1  0  0  0  0
  6 13  1  0  0  0  0
  7  4  2  0  0  0  0
  8  1  1  0  0  0  0
  9  1  1  0  0  0  0
 10  1  1  0  0  0  0
 11  1  1  0  0  0  0
 12 15  1  0  0  0  0
 13  4  1  0  0  0  0
 14  6  1  0  0  0  0
 15 14  2  0  0  0  0
 16 18  2  0  0  0  0
 17 12  2  0  0  0  0
 17 16  1  0  0  0  0
 18 14  1  0  0  0  0
M  END
> <CdId>
3510

> <Mol Weight>
256.2237

> <Formula>
C12H11F3N2O

> <Click_ID>
CLK046F04 __ __ 

$$$$
