CLK036_A05
 OpenBabel03181419432D

 28 30  0  0  0  0  0  0  0  0999 V2000
    4.1618   -0.9988    0.0000 C   0  0  0  0  0  0  0  0  0  0  0  0
    4.4989   -1.7521    0.0000 N   0  0  0  0  0  0  0  0  0  0  0  0
    3.3586   -0.8282    0.0000 N   0  0  0  0  0  0  0  0  0  0  0  0
    4.5738   -0.2914    0.0000 S   0  0  0  0  0  0  0  0  0  0  0  0
    7.6326   -3.5208    0.0000 S   0  0  0  0  0  0  0  0  0  0  0  0
    3.5125    2.4554    0.0000 N   0  3  0  0  0  0  0  0  0  0  0  0
    4.0202    0.3246    0.0000 C   0  0  0  0  0  0  0  0  0  0  0  0
    3.2711   -0.0042    0.0000 C   0  0  0  0  0  0  0  0  0  0  0  0
    5.3187   -1.8395    0.0000 C   0  0  0  0  0  0  0  0  0  0  0  0
    4.1076    1.1444    0.0000 C   0  0  0  0  0  0  0  0  0  0  0  0
    3.4376    1.6314    0.0000 C   0  0  0  0  0  0  0  0  0  0  0  0
    6.8086   -3.4376    0.0000 C   0  0  0  0  0  0  0  0  0  0  0  0
    5.6558   -2.5969    0.0000 C   0  0  0  0  0  0  0  0  0  0  0  0
    2.9340   -2.1766    0.0000 C   0  0  0  0  0  0  0  0  0  0  0  0
    2.6011    0.4828    0.0000 C   0  0  0  0  0  0  0  0  0  0  0  0
    6.4715   -2.6843    0.0000 C   0  0  0  0  0  0  0  0  0  0  0  0
    3.1130   -2.9840    0.0000 C   0  0  0  0  0  0  0  0  0  0  0  0
    4.2616    2.8050    0.0000 O   0  5  0  0  0  0  0  0  0  0  0  0
    7.7200   -2.6968    0.0000 O   0  0  0  0  0  0  0  0  0  0  0  0
    7.5535   -4.3449    0.0000 O   0  0  0  0  0  0  0  0  0  0  0  0
    2.8383    2.9298    0.0000 O   0  0  0  0  0  0  0  0  0  0  0  0
    5.8056   -1.1736    0.0000 O   0  0  0  0  0  0  0  0  0  0  0  0
    2.6885    1.2985    0.0000 C   0  0  0  0  0  0  0  0  0  0  0  0
    2.7509   -1.3859    0.0000 C   0  0  0  0  0  0  0  0  0  0  0  0
    8.4567   -3.5999    0.0000 C   0  0  0  0  0  0  0  0  0  0  0  0
    6.3216   -4.1076    0.0000 C   0  0  0  0  0  0  0  0  0  0  0  0
    5.1688   -3.2629    0.0000 C   0  0  0  0  0  0  0  0  0  0  0  0
    5.5060   -4.0202    0.0000 C   0  0  0  0  0  0  0  0  0  0  0  0
  2  1  2  0  0  0  0
  3  1  1  0  0  0  0
  4  1  1  0  0  0  0
  5 12  1  0  0  0  0
  6 11  1  0  0  0  0
  7  4  1  0  0  0  0
  8  3  1  0  0  0  0
  8  7  2  0  0  0  0
  9  2  1  0  0  0  0
 10  7  1  0  0  0  0
 11 10  2  0  0  0  0
 12 16  2  0  0  0  0
 12 26  1  0  0  0  0
 13  9  1  0  0  0  0
 14 24  1  0  0  0  0
 15  8  1  0  0  0  0
 16 13  1  0  0  0  0
 17 14  3  0  0  0  0
 18  6  1  0  0  0  0
 19  5  2  0  0  0  0
 20  5  2  0  0  0  0
 21  6  2  0  0  0  0
 22  9  2  0  0  0  0
 23 15  2  0  0  0  0
 23 11  1  0  0  0  0
 24  3  1  0  0  0  0
 25  5  1  0  0  0  0
 26 28  2  0  0  0  0
 27 13  2  0  0  0  0
 28 27  1  0  0  0  0
M  END
> <CdId>
2729

> <Mol Weight>
415.443

> <Formula>
C18H13N3O5S2

> <Click_ID>
CLK036_A05 __ __ 

$$$$
