CLK003_C05
 OpenBabel03181419432D

 28 30  0  0  0  0  0  0  0  0999 V2000
    1.2758   -1.1271    0.0000 C   0  0  0  0  0  0  0  0  0  0  0  0
    1.8636   -0.5394    0.0000 C   0  0  0  0  0  0  0  0  0  0  0  0
    0.4598   -0.9993    0.0000 S   0  0  0  0  0  0  0  0  0  0  0  0
    1.4038   -1.9432    0.0000 C   0  0  0  0  0  0  0  0  0  0  0  0
    1.6423    0.2524    0.0000 C   0  0  0  0  0  0  0  0  0  0  0  0
    0.0830   -1.7288    0.0000 C   0  0  0  0  0  0  0  0  0  0  0  0
    0.6639   -2.3201    0.0000 N   0  0  0  0  0  0  0  0  0  0  0  0
    2.1437   -2.3201    0.0000 O   0  0  0  0  0  0  0  0  0  0  0  0
    0.8471    0.4634    0.0000 C   0  0  0  0  0  0  0  0  0  0  0  0
    2.2163    0.8263    0.0000 C   0  0  0  0  0  0  0  0  0  0  0  0
   -0.7434   -1.7288    0.0000 N   0  0  0  0  0  0  0  0  0  0  0  0
    0.6293    1.2586    0.0000 C   0  0  0  0  0  0  0  0  0  0  0  0
    2.0054    1.6216    0.0000 C   0  0  0  0  0  0  0  0  0  0  0  0
   -1.5663   -1.7046    0.0000 C   0  0  0  0  0  0  0  0  0  0  0  0
    1.2102    1.8429    0.0000 C   0  0  0  0  0  0  0  0  0  0  0  0
   -0.1556    1.4799    0.0000 O   0  0  0  0  0  0  0  0  0  0  0  0
   -2.0054   -2.4065    0.0000 C   0  0  0  0  0  0  0  0  0  0  0  0
   -1.9570   -0.9785    0.0000 C   0  0  0  0  0  0  0  0  0  0  0  0
    1.0027    2.6312    0.0000 O   0  0  0  0  0  0  0  0  0  0  0  0
   -0.7330    0.8990    0.0000 C   0  0  0  0  0  0  0  0  0  0  0  0
   -2.8353   -2.3823    0.0000 C   0  0  0  0  0  0  0  0  0  0  0  0
   -2.7834   -0.9474    0.0000 C   0  0  0  0  0  0  0  0  0  0  0  0
    1.5871    3.2053    0.0000 C   0  0  0  0  0  0  0  0  0  0  0  0
   -1.5213    1.1030    0.0000 C   0  0  0  0  0  0  0  0  0  0  0  0
   -3.2225   -1.6493    0.0000 C   0  0  0  0  0  0  0  0  0  0  0  0
    1.3761    4.0074    0.0000 C   0  0  0  0  0  0  0  0  0  0  0  0
   -4.0488   -1.6182    0.0000 F   0  0  0  0  0  0  0  0  0  0  0  0
    1.1722    4.7992    0.0000 C   0  0  0  0  0  0  0  0  0  0  0  0
  1  2  2  0  0  0  0
  1  3  1  0  0  0  0
  1  4  1  0  0  0  0
  2  5  1  0  0  0  0
  3  6  1  0  0  0  0
  4  7  1  0  0  0  0
  4  8  2  0  0  0  0
  5  9  2  0  0  0  0
  5 10  1  0  0  0  0
  6 11  2  0  0  0  0
  6  7  1  0  0  0  0
  9 12  1  0  0  0  0
 10 13  2  0  0  0  0
 11 14  1  0  0  0  0
 12 15  2  0  0  0  0
 12 16  1  0  0  0  0
 13 15  1  0  0  0  0
 14 17  2  0  0  0  0
 14 18  1  0  0  0  0
 15 19  1  0  0  0  0
 16 20  1  0  0  0  0
 17 21  1  0  0  0  0
 18 22  2  0  0  0  0
 19 23  1  0  0  0  0
 20 24  1  0  0  0  0
 21 25  2  0  0  0  0
 22 25  1  0  0  0  0
 23 26  1  0  0  0  0
 25 27  1  0  0  0  0
 26 28  3  0  0  0  0
M  END
> <CdId>
184

> <Mol Weight>
396.435

> <Formula>
C21H17FN2O3S

> <Click_ID>
CLK003_C05 __ __ 

$$$$
