CLK018_B06
 OpenBabel03181419432D

 23 24  0  0  0  0  0  0  0  0999 V2000
    2.5977    1.6214    0.0000 N   0  0  0  0  0  0  0  0  0  0  0  0
    3.3546    1.9441    0.0000 C   0  0  0  0  0  0  0  0  0  0  0  0
    2.6597    0.8024    0.0000 C   0  0  0  0  0  0  0  0  0  0  0  0
    3.4621    0.6163    0.0000 C   0  0  0  0  0  0  0  0  0  0  0  0
    3.8882    1.3112    0.0000 S   0  0  0  0  0  0  0  0  0  0  0  0
    1.9028    2.0475    0.0000 C   0  0  0  0  0  0  0  0  0  0  0  0
    3.7724   -0.1407    0.0000 C   0  0  0  0  0  0  0  0  0  0  0  0
    3.5490    2.7300    0.0000 S   0  0  0  0  0  0  0  0  0  0  0  0
    1.1913    1.6586    0.0000 C   0  0  0  0  0  0  0  0  0  0  0  0
    2.8955   -3.6276    0.0000 C   0  0  0  0  0  0  0  0  0  0  0  0
    3.7145   -3.7351    0.0000 C   0  0  0  0  0  0  0  0  0  0  0  0
    1.1706    0.8396    0.0000 C   0  0  0  0  0  0  0  0  0  0  0  0
    2.0393    0.2730    0.0000 O   0  0  0  0  0  0  0  0  0  0  0  0
    1.8738    0.4095    0.0000 O   0  0  0  0  0  0  0  0  0  0  0  0
    3.2760   -0.7942    0.0000 C   0  0  0  0  0  0  0  0  0  0  0  0
    0.4509    0.4426    0.0000 O   0  0  0  0  0  0  0  0  0  0  0  0
    2.2585   -2.1137    0.0000 C   0  0  0  0  0  0  0  0  0  0  0  0
    3.5862   -1.5635    0.0000 C   0  0  0  0  0  0  0  0  0  0  0  0
    2.4488   -0.6949    0.0000 C   0  0  0  0  0  0  0  0  0  0  0  0
    1.9400   -1.3444    0.0000 C   0  0  0  0  0  0  0  0  0  0  0  0
    3.0775   -2.2212    0.0000 C   0  0  0  0  0  0  0  0  0  0  0  0
    2.0723   -3.5284    0.0000 C   0  0  0  0  0  0  0  0  0  0  0  0
    1.7539   -2.7672    0.0000 O   0  0  0  0  0  0  0  0  0  0  0  0
  2  1  1  0  0  0  0
  3  1  1  0  0  0  0
  4  3  1  0  0  0  0
  5  2  1  0  0  0  0
  5  4  1  0  0  0  0
  6  1  1  0  0  0  0
  7  4  2  0  0  0  0
  8  2  2  0  0  0  0
  9  6  1  0  0  0  0
 10 22  1  0  0  0  0
 11 10  3  0  0  0  0
 12  9  1  0  0  0  0
 13  3  2  0  0  0  0
 14 12  2  0  0  0  0
 15  7  1  0  0  0  0
 16 12  1  0  0  0  0
 17 20  1  0  0  0  0
 17 21  2  0  0  0  0
 18 15  2  0  0  0  0
 19 15  1  0  0  0  0
 20 19  2  0  0  0  0
 21 18  1  0  0  0  0
 22 23  1  0  0  0  0
 23 17  1  0  0  0  0
M  END
> <CdId>
1331

> <Mol Weight>
347.409

> <Formula>
C16H13NO4S2

> <Click_ID>
CLK018_B06 __ __ 

$$$$
