CLK016_G10
 OpenBabel03181419432D

 23 24  0  0  0  0  0  0  0  0999 V2000
    1.5667   -0.8167    0.0000 N   0  0  0  0  0  0  0  0  0  0  0  0
    1.8250   -1.6042    0.0000 C   0  0  0  0  0  0  0  0  0  0  0  0
    2.9042   -0.8167    0.0000 C   0  0  0  0  0  0  0  0  0  0  0  0
    2.2375   -0.3292    0.0000 C   0  0  0  0  0  0  0  0  0  0  0  0
    2.6500   -1.6042    0.0000 S   0  0  0  0  0  0  0  0  0  0  0  0
    3.6917   -0.5625    0.0000 C   0  0  0  0  0  0  0  0  0  0  0  0
    4.8042    1.3083    0.0000 C   0  0  0  0  0  0  0  0  0  0  0  0
    4.6417    0.5000    0.0000 C   0  0  0  0  0  0  0  0  0  0  0  0
    3.8542    0.2458    0.0000 C   0  0  0  0  0  0  0  0  0  0  0  0
    0.6125    0.2458    0.0000 C   0  0  0  0  0  0  0  0  0  0  0  0
    0.3917    1.0458    0.0000 C   0  0  0  0  0  0  0  0  0  0  0  0
    1.3375   -2.2667    0.0000 O   0  0  0  0  0  0  0  0  0  0  0  0
    4.1917    1.8583    0.0000 C   0  0  0  0  0  0  0  0  0  0  0  0
    2.2292    0.4958    0.0000 O   0  0  0  0  0  0  0  0  0  0  0  0
    0.7875   -0.5625    0.0000 C   0  0  0  0  0  0  0  0  0  0  0  0
    3.2417    0.7958    0.0000 C   0  0  0  0  0  0  0  0  0  0  0  0
    3.4125    1.5958    0.0000 C   0  0  0  0  0  0  0  0  0  0  0  0
    5.5917    1.5625    0.0000 O   0  0  0  0  0  0  0  0  0  0  0  0
    5.2542   -0.0542    0.0000 O   0  0  0  0  0  0  0  0  0  0  0  0
    4.3625    2.6583    0.0000 O   0  0  0  0  0  0  0  0  0  0  0  0
    5.7542    2.3708    0.0000 C   0  0  0  0  0  0  0  0  0  0  0  0
    6.0375    0.2083    0.0000 C   0  0  0  0  0  0  0  0  0  0  0  0
    3.7417    3.2083    0.0000 C   0  0  0  0  0  0  0  0  0  0  0  0
  2  1  1  0  0  0  0
  3  4  1  0  0  0  0
  4  1  1  0  0  0  0
  5  2  1  0  0  0  0
  5  3  1  0  0  0  0
  6  3  2  0  0  0  0
  7  8  1  0  0  0  0
  8  9  2  0  0  0  0
  9  6  1  0  0  0  0
 10 15  1  0  0  0  0
 11 10  3  0  0  0  0
 12  2  2  0  0  0  0
 13 17  1  0  0  0  0
 13  7  2  0  0  0  0
 14  4  2  0  0  0  0
 15  1  1  0  0  0  0
 16  9  1  0  0  0  0
 17 16  2  0  0  0  0
 18  7  1  0  0  0  0
 19  8  1  0  0  0  0
 20 13  1  0  0  0  0
 21 18  1  0  0  0  0
 22 19  1  0  0  0  0
 23 20  1  0  0  0  0
M  END
> <CdId>
1225

> <Mol Weight>
333.359

> <Formula>
C16H15NO5S

> <Click_ID>
CLK016_G10 __ __ 

$$$$
