CLK028_D06
 OpenBabel03181419432D

 28 30  0  0  0  0  0  0  0  0999 V2000
   -1.4433    0.3711    0.0000 C   0  0  0  0  0  0  0  0  0  0  0  0
    1.4501   -0.3402    0.0000 C   0  0  0  0  0  0  0  0  0  0  0  0
   -1.0309    1.0859    0.0000 C   0  0  0  0  0  0  0  0  0  0  0  0
   -2.2646    0.3608    0.0000 C   0  0  0  0  0  0  0  0  0  0  0  0
    1.0412   -1.0653    0.0000 C   0  0  0  0  0  0  0  0  0  0  0  0
   -3.0756   -2.5120    0.0000 N   0  0  0  0  0  0  0  0  0  0  0  0
    2.6701    1.8041    0.0000 C   0  0  0  0  0  0  0  0  0  0  0  0
   -1.0309   -0.3402    0.0000 C   0  0  0  0  0  0  0  0  0  0  0  0
    3.0722    2.5155    0.0000 C   0  0  0  0  0  0  0  0  0  0  0  0
    0.2130    0.3711    0.0000 N   0  0  0  0  0  0  0  0  0  0  0  0
   -2.6701   -1.7870    0.0000 C   0  0  0  0  0  0  0  0  0  0  0  0
    2.2749   -0.3402    0.0000 C   0  0  0  0  0  0  0  0  0  0  0  0
   -0.2062    1.0928    0.0000 N   0  0  0  0  0  0  0  0  0  0  0  0
    1.0412    0.3711    0.0000 C   0  0  0  0  0  0  0  0  0  0  0  0
   -2.6770   -0.3540    0.0000 C   0  0  0  0  0  0  0  0  0  0  0  0
   -1.4433    1.7938    0.0000 O   0  0  0  0  0  0  0  0  0  0  0  0
    1.4468   -1.7767    0.0000 C   0  0  0  0  0  0  0  0  0  0  0  0
    2.6873   -1.0515    0.0000 C   0  0  0  0  0  0  0  0  0  0  0  0
   -2.2577   -1.0722    0.0000 C   0  0  0  0  0  0  0  0  0  0  0  0
    2.2749   -1.7767    0.0000 C   0  0  0  0  0  0  0  0  0  0  0  0
   -2.6770    1.0790    0.0000 F   0  0  0  0  0  0  0  0  0  0  0  0
   -1.4295   -1.0653    0.0000 C   0  0  0  0  0  0  0  0  0  0  0  0
    2.6736    0.3746    0.0000 O   0  0  0  0  0  0  0  0  0  0  0  0
    2.2612    1.0859    0.0000 C   0  0  0  0  0  0  0  0  0  0  0  0
    0.2165   -1.0619    0.0000 C   0  0  0  0  0  0  0  0  0  0  0  0
    1.0344   -2.4845    0.0000 C   0  0  0  0  0  0  0  0  0  0  0  0
   -0.1959   -1.7697    0.0000 C   0  0  0  0  0  0  0  0  0  0  0  0
    0.2165   -2.4845    0.0000 C   0  0  0  0  0  0  0  0  0  0  0  0
  2 14  1  0  0  0  0
  3  1  1  0  0  0  0
  4  1  2  0  0  0  0
  5  2  2  0  0  0  0
  6 11  3  0  0  0  0
  7 24  1  0  0  0  0
  8  1  1  0  0  0  0
  9  7  3  0  0  0  0
 10 13  1  0  0  0  0
 11 19  1  0  0  0  0
 12  2  1  0  0  0  0
 13  3  1  0  0  0  0
 14 10  2  0  0  0  0
 15  4  1  0  0  0  0
 16  3  2  0  0  0  0
 17  5  1  0  0  0  0
 18 12  2  0  0  0  0
 19 22  1  0  0  0  0
 19 15  2  0  0  0  0
 20 18  1  0  0  0  0
 20 17  2  0  0  0  0
 21  4  1  0  0  0  0
 22  8  2  0  0  0  0
 23 12  1  0  0  0  0
 24 23  1  0  0  0  0
 25  5  1  0  0  0  0
 26 17  1  0  0  0  0
 26 28  2  0  0  0  0
 27 25  2  0  0  0  0
 28 27  1  0  0  0  0
M  END
> <CdId>
2120

> <Mol Weight>
371.3639

> <Formula>
C22H14FN3O2

> <Click_ID>
CLK028_D06 __ __ 

$$$$
