CLK007_F09
 OpenBabel03181419432D

 29 30  0  0  0  0  0  0  0  0999 V2000
    0.6257   -1.3102    0.0000 C   0  0  0  0  0  0  0  0  0  0  0  0
   -0.0449   -0.8297    0.0000 C   0  0  0  0  0  0  0  0  0  0  0  0
    1.4139   -1.0613    0.0000 C   0  0  0  0  0  0  0  0  0  0  0  0
    0.3699   -2.1020    0.0000 S   0  0  0  0  0  0  0  0  0  0  0  0
   -0.7156   -1.3102    0.0000 N   0  0  0  0  0  0  0  0  0  0  0  0
   -0.0518   -0.0034    0.0000 O   0  0  0  0  0  0  0  0  0  0  0  0
    1.5764   -0.2559    0.0000 C   0  0  0  0  0  0  0  0  0  0  0  0
   -0.4564   -2.1020    0.0000 C   0  0  0  0  0  0  0  0  0  0  0  0
   -1.4969   -1.0613    0.0000 C   0  0  0  0  0  0  0  0  0  0  0  0
    0.9715    0.2938    0.0000 C   0  0  0  0  0  0  0  0  0  0  0  0
    2.3543   -0.0034    0.0000 C   0  0  0  0  0  0  0  0  0  0  0  0
   -0.9472   -2.7726    0.0000 O   0  0  0  0  0  0  0  0  0  0  0  0
   -2.1192   -1.6110    0.0000 C   0  0  0  0  0  0  0  0  0  0  0  0
    1.1374    1.0994    0.0000 C   0  0  0  0  0  0  0  0  0  0  0  0
    2.5271    0.8055    0.0000 C   0  0  0  0  0  0  0  0  0  0  0  0
   -2.9005   -1.3621    0.0000 O   0  0  0  0  0  0  0  0  0  0  0  0
   -1.9429   -2.4234    0.0000 O   0  0  0  0  0  0  0  0  0  0  0  0
    1.9152    1.3413    0.0000 C   0  0  0  0  0  0  0  0  0  0  0  0
    0.5359    1.6421    0.0000 O   0  0  0  0  0  0  0  0  0  0  0  0
   -3.0733   -0.5462    0.0000 C   0  0  0  0  0  0  0  0  0  0  0  0
    2.0915    2.1572    0.0000 O   0  0  0  0  0  0  0  0  0  0  0  0
   -0.2454    1.3897    0.0000 C   0  0  0  0  0  0  0  0  0  0  0  0
   -3.8616   -0.2974    0.0000 C   0  0  0  0  0  0  0  0  0  0  0  0
   -2.4580    0.0034    0.0000 C   0  0  0  0  0  0  0  0  0  0  0  0
   -3.5228   -1.2446    0.0000 C   0  0  0  0  0  0  0  0  0  0  0  0
    2.8763    2.4027    0.0000 C   0  0  0  0  0  0  0  0  0  0  0  0
   -0.8539    1.9429    0.0000 C   0  0  0  0  0  0  0  0  0  0  0  0
    3.0561    3.2082    0.0000 C   0  0  0  0  0  0  0  0  0  0  0  0
    3.2323    4.0102    0.0000 C   0  0  0  0  0  0  0  0  0  0  0  0
  1  2  1  0  0  0  0
  1  3  2  0  0  0  0
  1  4  1  0  0  0  0
  2  5  1  0  0  0  0
  2  6  2  0  0  0  0
  3  7  1  0  0  0  0
  4  8  1  0  0  0  0
  5  9  1  0  0  0  0
  5  8  1  0  0  0  0
  7 10  2  0  0  0  0
  7 11  1  0  0  0  0
  8 12  2  0  0  0  0
  9 13  1  0  0  0  0
 10 14  1  0  0  0  0
 11 15  2  0  0  0  0
 13 16  1  0  0  0  0
 13 17  2  0  0  0  0
 14 18  2  0  0  0  0
 14 19  1  0  0  0  0
 15 18  1  0  0  0  0
 16 20  1  0  0  0  0
 18 21  1  0  0  0  0
 19 22  1  0  0  0  0
 20 23  1  0  0  0  0
 20 24  1  0  0  0  0
 20 25  1  0  0  0  0
 21 26  1  0  0  0  0
 22 27  1  0  0  0  0
 26 28  1  0  0  0  0
 28 29  3  0  0  0  0
M  END
> <CdId>
538

> <Mol Weight>
417.475

> <Formula>
C21H23NO6S

> <Click_ID>
CLK007_F09 __ __ 

$$$$
