CLK026_E10
 OpenBabel03181419432D

 30 32  0  0  0  0  0  0  0  0999 V2000
    2.4907    0.4123    0.0000 N   0  0  0  0  0  0  0  0  0  0  0  0
    3.2053    0.8211    0.0000 C   0  0  0  0  0  0  0  0  0  0  0  0
    1.7796    1.6490    0.0000 C   0  0  0  0  0  0  0  0  0  0  0  0
    1.7796    0.8211    0.0000 C   0  0  0  0  0  0  0  0  0  0  0  0
    3.2053    1.6490    0.0000 N   0  0  0  0  0  0  0  0  0  0  0  0
    2.4907    2.0681    0.0000 C   0  0  0  0  0  0  0  0  0  0  0  0
    1.0616    2.0613    0.0000 C   0  0  0  0  0  0  0  0  0  0  0  0
    2.4907   -0.4157    0.0000 C   0  0  0  0  0  0  0  0  0  0  0  0
    3.9233    0.4088    0.0000 S   0  0  0  0  0  0  0  0  0  0  0  0
   -3.2122    0.4088    0.0000 C   0  0  0  0  0  0  0  0  0  0  0  0
   -3.9268   -0.0035    0.0000 C   0  0  0  0  0  0  0  0  0  0  0  0
    1.0616    0.4088    0.0000 O   0  0  0  0  0  0  0  0  0  0  0  0
   -0.3642    0.4088    0.0000 C   0  0  0  0  0  0  0  0  0  0  0  0
    2.4907    2.8927    0.0000 O   0  0  0  0  0  0  0  0  0  0  0  0
    0.3470    1.6490    0.0000 C   0  0  0  0  0  0  0  0  0  0  0  0
    0.3504    0.8245    0.0000 C   0  0  0  0  0  0  0  0  0  0  0  0
   -1.0650    0.8142    0.0000 C   0  0  0  0  0  0  0  0  0  0  0  0
    3.2053   -0.8211    0.0000 C   0  0  0  0  0  0  0  0  0  0  0  0
    1.7693   -0.8211    0.0000 C   0  0  0  0  0  0  0  0  0  0  0  0
   -1.0684    1.6353    0.0000 C   0  0  0  0  0  0  0  0  0  0  0  0
   -0.3539    2.0510    0.0000 C   0  0  0  0  0  0  0  0  0  0  0  0
    2.4839   -2.0613    0.0000 C   0  0  0  0  0  0  0  0  0  0  0  0
    3.1985   -1.6490    0.0000 C   0  0  0  0  0  0  0  0  0  0  0  0
    1.7693   -1.6490    0.0000 C   0  0  0  0  0  0  0  0  0  0  0  0
   -0.3642   -0.4088    0.0000 O   0  0  0  0  0  0  0  0  0  0  0  0
    2.4701   -2.8893    0.0000 F   0  0  0  0  0  0  0  0  0  0  0  0
   -1.7830    0.4088    0.0000 O   0  0  0  0  0  0  0  0  0  0  0  0
   -2.4942    0.8211    0.0000 C   0  0  0  0  0  0  0  0  0  0  0  0
    0.3504   -0.8177    0.0000 C   0  0  0  0  0  0  0  0  0  0  0  0
    0.3504   -1.6353    0.0000 C   0  0  0  0  0  0  0  0  0  0  0  0
  2  1  1  0  0  0  0
  3  4  1  0  0  0  0
  4  1  1  0  0  0  0
  5  2  1  0  0  0  0
  5  6  1  0  0  0  0
  6  3  1  0  0  0  0
  7  3  2  0  0  0  0
  8  1  1  0  0  0  0
  9  2  2  0  0  0  0
 10 28  1  0  0  0  0
 11 10  3  0  0  0  0
 12  4  2  0  0  0  0
 13 16  1  0  0  0  0
 13 17  2  0  0  0  0
 14  6  2  0  0  0  0
 15  7  1  0  0  0  0
 16 15  2  0  0  0  0
 17 20  1  0  0  0  0
 18  8  1  0  0  0  0
 19  8  2  0  0  0  0
 20 21  2  0  0  0  0
 21 15  1  0  0  0  0
 22 24  2  0  0  0  0
 23 18  2  0  0  0  0
 23 22  1  0  0  0  0
 24 19  1  0  0  0  0
 25 13  1  0  0  0  0
 26 22  1  0  0  0  0
 27 17  1  0  0  0  0
 28 27  1  0  0  0  0
 29 25  1  0  0  0  0
 30 29  1  0  0  0  0
M  END
> <CdId>
1985

> <Mol Weight>
424.445

> <Formula>
C22H17FN2O4S

> <Click_ID>
CLK026_E10 __ __ 

$$$$
