CLK006_B03
 OpenBabel03181419432D

 14 14  0  0  0  0  0  0  0  0999 V2000
    0.0040    0.1068    0.0000 C   0  0  0  0  0  0  0  0  0  0  0  0
    0.4135   -0.6113    0.0000 C   0  0  0  0  0  0  0  0  0  0  0  0
    0.4254    0.8171    0.0000 C   0  0  0  0  0  0  0  0  0  0  0  0
   -0.8230    0.0989    0.0000 O   0  0  0  0  0  0  0  0  0  0  0  0
    1.2385   -0.6173    0.0000 C   0  0  0  0  0  0  0  0  0  0  0  0
    0.0020   -1.3117    0.0000 O   0  0  0  0  0  0  0  0  0  0  0  0
    1.2385    0.8112    0.0000 C   0  0  0  0  0  0  0  0  0  0  0  0
   -1.2366   -0.6113    0.0000 C   0  0  0  0  0  0  0  0  0  0  0  0
    1.6520    0.0870    0.0000 C   0  0  0  0  0  0  0  0  0  0  0  0
   -0.8131   -1.3058    0.0000 C   0  0  0  0  0  0  0  0  0  0  0  0
    1.6362    1.5274    0.0000 C   0  0  0  0  0  0  0  0  0  0  0  0
   -2.0616   -0.6113    0.0000 C   0  0  0  0  0  0  0  0  0  0  0  0
    1.2128    2.2297    0.0000 O   0  0  0  0  0  0  0  0  0  0  0  0
   -2.8866   -0.6113    0.0000 C   0  0  0  0  0  0  0  0  0  0  0  0
  1  2  2  0  0  0  0
  1  3  1  0  0  0  0
  1  4  1  0  0  0  0
  2  5  1  0  0  0  0
  2  6  1  0  0  0  0
  3  7  2  0  0  0  0
  4  8  1  0  0  0  0
  5  9  2  0  0  0  0
  6 10  1  0  0  0  0
  7 11  1  0  0  0  0
  7  9  1  0  0  0  0
  8 12  1  0  0  0  0
 11 13  2  0  0  0  0
 12 14  3  0  0  0  0
M  END
> <CdId>
412

> <Mol Weight>
190.1953

> <Formula>
C11H10O3

> <Click_ID>
CLK006_B03 __ __ 

$$$$
