CLK045G02
 OpenBabel03181419432D

 23 25  0  0  0  0  0  0  0  0999 V2000
   -0.0792   -0.3502    0.0000 C   0  0  0  0  0  0  0  0  0  0  0  0
   -0.0792    0.9838    0.0000 N   0  0  0  0  0  0  0  0  0  0  0  0
    0.7046    0.7296    0.0000 N   0  0  0  0  0  0  0  0  0  0  0  0
   -0.5628    0.3169    0.0000 C   0  0  0  0  0  0  0  0  0  0  0  0
    0.7046   -0.0959    0.0000 C   0  0  0  0  0  0  0  0  0  0  0  0
   -0.3335   -1.1381    0.0000 C   0  0  0  0  0  0  0  0  0  0  0  0
    0.5170   -3.1475    0.0000 C   0  0  0  0  0  0  0  0  0  0  0  0
    1.0673   -3.7603    0.0000 C   0  0  0  0  0  0  0  0  0  0  0  0
    1.3757    1.2131    0.0000 C   0  0  0  0  0  0  0  0  0  0  0  0
   -1.3882    0.3169    0.0000 C   0  0  0  0  0  0  0  0  0  0  0  0
   -1.1423   -1.3090    0.0000 O   0  0  0  0  0  0  0  0  0  0  0  0
    0.2168   -1.7509    0.0000 N   0  0  0  0  0  0  0  0  0  0  0  0
   -0.0375   -2.5346    0.0000 C   0  0  0  0  0  0  0  0  0  0  0  0
    2.1303    0.8797    0.0000 C   0  0  0  0  0  0  0  0  0  0  0  0
    1.2882    2.0344    0.0000 C   0  0  0  0  0  0  0  0  0  0  0  0
   -1.8010   -0.3960    0.0000 C   0  0  0  0  0  0  0  0  0  0  0  0
   -1.8010    1.0297    0.0000 C   0  0  0  0  0  0  0  0  0  0  0  0
   -2.6264    1.0297    0.0000 C   0  0  0  0  0  0  0  0  0  0  0  0
    2.7973    1.3632    0.0000 C   0  0  0  0  0  0  0  0  0  0  0  0
    1.9552    2.5221    0.0000 C   0  0  0  0  0  0  0  0  0  0  0  0
   -2.6264   -0.3960    0.0000 C   0  0  0  0  0  0  0  0  0  0  0  0
   -3.0391    0.3169    0.0000 C   0  0  0  0  0  0  0  0  0  0  0  0
    2.7097    2.1845    0.0000 C   0  0  0  0  0  0  0  0  0  0  0  0
  2  4  2  0  0  0  0
  2  3  1  0  0  0  0
  3  5  1  0  0  0  0
  4  1  1  0  0  0  0
  5  1  2  0  0  0  0
  6  1  1  0  0  0  0
  7 13  1  0  0  0  0
  8  7  3  0  0  0  0
  9  3  1  0  0  0  0
 10  4  1  0  0  0  0
 11  6  2  0  0  0  0
 12  6  1  0  0  0  0
 13 12  1  0  0  0  0
 14  9  1  0  0  0  0
 15  9  2  0  0  0  0
 16 10  2  0  0  0  0
 17 10  1  0  0  0  0
 18 17  2  0  0  0  0
 19 14  2  0  0  0  0
 20 15  1  0  0  0  0
 21 16  1  0  0  0  0
 22 21  2  0  0  0  0
 22 18  1  0  0  0  0
 23 20  2  0  0  0  0
 23 19  1  0  0  0  0
M  END
> <CdId>
3415

> <Mol Weight>
301.3419

> <Formula>
C19H15N3O

> <Click_ID>
CLK045G02 __ __ 

$$$$
