CLK013_C08
 OpenBabel03181419432D

 23 24  0  0  0  0  0  0  0  0999 V2000
    5.7792   -2.1745    0.0000 N   0  0  0  0  0  0  0  0  0  0  0  0
    5.2553   -2.8106    0.0000 C   0  0  0  0  0  0  0  0  0  0  0  0
    5.3301   -1.4760    0.0000 C   0  0  0  0  0  0  0  0  0  0  0  0
    4.5319   -1.6880    0.0000 C   0  0  0  0  0  0  0  0  0  0  0  0
    4.4820   -2.5113    0.0000 N   0  0  0  0  0  0  0  0  0  0  0  0
    3.8916   -1.1725    0.0000 C   0  0  0  0  0  0  0  0  0  0  0  0
    1.5758   -2.0580    0.0000 C   0  0  0  0  0  0  0  0  0  0  0  0
    2.2202   -2.5736    0.0000 C   0  0  0  0  0  0  0  0  0  0  0  0
    1.7088   -1.2390    0.0000 C   0  0  0  0  0  0  0  0  0  0  0  0
    3.1224   -1.4635    0.0000 C   0  0  0  0  0  0  0  0  0  0  0  0
    5.4673   -3.6089    0.0000 S   0  0  0  0  0  0  0  0  0  0  0  0
   -0.0956   -3.4550    0.0000 C   0  0  0  0  0  0  0  0  0  0  0  0
   -0.8606   -3.7461    0.0000 C   0  0  0  0  0  0  0  0  0  0  0  0
    2.9852   -2.2825    0.0000 C   0  0  0  0  0  0  0  0  0  0  0  0
    5.6295   -0.7110    0.0000 O   0  0  0  0  0  0  0  0  0  0  0  0
    2.4738   -0.9397    0.0000 C   0  0  0  0  0  0  0  0  0  0  0  0
    6.6024   -2.2202    0.0000 C   0  0  0  0  0  0  0  0  0  0  0  0
    2.0872   -3.3844    0.0000 I   0  0  0  0  0  0  0  0  0  0  0  0
    0.8025   -2.3491    0.0000 O   0  0  0  0  0  0  0  0  0  0  0  0
    1.0644   -0.7151    0.0000 O   0  0  0  0  0  0  0  0  0  0  0  0
    0.6777   -3.1598    0.0000 C   0  0  0  0  0  0  0  0  0  0  0  0
    0.2911   -1.0145    0.0000 C   0  0  0  0  0  0  0  0  0  0  0  0
   -0.3451   -0.4989    0.0000 C   0  0  0  0  0  0  0  0  0  0  0  0
  2  1  1  0  0  0  0
  3  1  1  0  0  0  0
  4  3  1  0  0  0  0
  5  2  1  0  0  0  0
  5  4  1  0  0  0  0
  6  4  2  0  0  0  0
  7  9  2  0  0  0  0
  7  8  1  0  0  0  0
  8 14  2  0  0  0  0
  9 16  1  0  0  0  0
 10  6  1  0  0  0  0
 11  2  2  0  0  0  0
 12 21  1  0  0  0  0
 13 12  3  0  0  0  0
 14 10  1  0  0  0  0
 15  3  2  0  0  0  0
 16 10  2  0  0  0  0
 17  1  1  0  0  0  0
 18  8  1  0  0  0  0
 19  7  1  0  0  0  0
 20  9  1  0  0  0  0
 21 19  1  0  0  0  0
 22 20  1  0  0  0  0
 23 22  1  0  0  0  0
M  END
> <CdId>
943

> <Mol Weight>
442.271

> <Formula>
C16H15IN2O3S

> <Click_ID>
CLK013_C08 __ __ 

$$$$
