CLK019_A05
 OpenBabel03181419432D

 24 25  0  0  0  0  0  0  0  0999 V2000
    6.8758    0.2290    0.0000 C    0  0  0  0  0  0  0  0  0  0  0  0
    6.1612    0.6413    0.0000 C    0  0  0  0  0  0  0  0  0  0  0  0
    6.8758   -0.5955    0.0000 C    0  0  0  0  0  0  0  0  0  0  0  0
    8.3050    1.8827    0.0000 C    0  0  0  0  0  0  0  0  0  0  0  0
    1.5987   -1.0216    0.0000 C    0  0  0  0  0  0  0  0  0  0  0  0
    8.3004    2.7072    0.0000 C    0  0  0  0  0  0  0  0  0  0  0  0
    2.3820   -0.5681    0.0000 C    0  0  0  0  0  0  0  0  0  0  0  0
    5.4466    0.2290    0.0000 C    0  0  0  0  0  0  0  0  0  0  0  0
    6.1703   -1.0078    0.0000 C    0  0  0  0  0  0  0  0  0  0  0  0
    5.4557   -0.5955    0.0000 C    0  0  0  0  0  0  0  0  0  0  0  0
    1.5987   -1.9285    0.0000 C    0  0  0  0  0  0  0  0  0  0  0  0
    3.9578   -0.5543    0.0000 N    0  0  0  0  0  0  0  0  0  0  0  0
    3.1745   -1.0216    0.0000 C    0  0  0  0  0  0  0  0  0  0  0  0
    2.3820   -2.3820    0.0000 C    0  0  0  0  0  0  0  0  0  0  0  0
    6.1612    1.4658    0.0000 Cl   0  0  0  0  0  0  0  0  0  0  0  0
    4.7457   -1.0078    0.0000 C    0  0  0  0  0  0  0  0  0  0  0  0
    7.5904    0.6459    0.0000 O    0  0  0  0  0  0  0  0  0  0  0  0
    0.8841   -0.6093    0.0000 Cl   0  0  0  0  0  0  0  0  0  0  0  0
    7.5995   -1.0032    0.0000 O    0  0  0  0  0  0  0  0  0  0  0  0
    3.1745   -1.9285    0.0000 C    0  0  0  0  0  0  0  0  0  0  0  0
    7.5904    1.4704    0.0000 C    0  0  0  0  0  0  0  0  0  0  0  0
    0.8841   -2.3408    0.0000 C    0  0  0  0  0  0  0  0  0  0  0  0
    7.5995   -1.8186    0.0000 C    0  0  0  0  0  0  0  0  0  0  0  0
    8.3141   -2.2400    0.0000 C    0  0  0  0  0  0  0  0  0  0  0  0
  2  1  2  0  0  0  0
  3  1  1  0  0  0  0
  4 21  1  0  0  0  0
  5  7  1  0  0  0  0
  5 11  2  0  0  0  0
  6  4  3  0  0  0  0
  7 13  2  0  0  0  0
  8  2  1  0  0  0  0
  8 10  2  0  0  0  0
  9  3  2  0  0  0  0
 10  9  1  0  0  0  0
 11 14  1  0  0  0  0
 12 16  1  0  0  0  0
 13 12  1  0  0  0  0
 14 20  2  0  0  0  0
 15  2  1  0  0  0  0
 16 10  1  0  0  0  0
 17  1  1  0  0  0  0
 18  5  1  0  0  0  0
 19  3  1  0  0  0  0
 20 13  1  0  0  0  0
 21 17  1  0  0  0  0
 22 11  1  0  0  0  0
 23 19  1  0  0  0  0
 24 23  1  0  0  0  0
M  END
> <CdId>
1400

> <Mol Weight>
364.266

> <Formula>
C19H19Cl2NO2

> <Click_ID>
CLK019_A05 __ __ 

$$$$
