CLK026_F08
 OpenBabel03181419432D

 23 24  0  0  0  0  0  0  0  0999 V2000
   -3.0545   -0.3452    0.0000 N   0  0  0  0  0  0  0  0  0  0  0  0
   -3.4722   -1.0630    0.0000 C   0  0  0  0  0  0  0  0  0  0  0  0
   -2.2400   -0.5246    0.0000 C   0  0  0  0  0  0  0  0  0  0  0  0
   -2.1572   -1.3529    0.0000 C   0  0  0  0  0  0  0  0  0  0  0  0
   -2.9199   -1.6912    0.0000 S   0  0  0  0  0  0  0  0  0  0  0  0
   -1.4393   -1.7775    0.0000 C   0  0  0  0  0  0  0  0  0  0  0  0
   -2.8923    1.0803    0.0000 C   0  0  0  0  0  0  0  0  0  0  0  0
   -2.4333    1.7809    0.0000 C   0  0  0  0  0  0  0  0  0  0  0  0
   -4.2971   -1.1390    0.0000 O   0  0  0  0  0  0  0  0  0  0  0  0
   -1.6188    0.0379    0.0000 O   0  0  0  0  0  0  0  0  0  0  0  0
    2.8543   -0.1829    0.0000 C   0  0  0  0  0  0  0  0  0  0  0  0
   -3.3790    0.4142    0.0000 C   0  0  0  0  0  0  0  0  0  0  0  0
    2.8682    0.6385    0.0000 O   0  0  0  0  0  0  0  0  0  0  0  0
   -0.7317   -1.3633    0.0000 C   0  0  0  0  0  0  0  0  0  0  0  0
    1.4358   -0.1518    0.0000 O   0  0  0  0  0  0  0  0  0  0  0  0
    2.1365   -0.5833    0.0000 C   0  0  0  0  0  0  0  0  0  0  0  0
    0.7145   -0.5523    0.0000 C   0  0  0  0  0  0  0  0  0  0  0  0
    3.5688   -0.6006    0.0000 O   0  0  0  0  0  0  0  0  0  0  0  0
   -0.7248   -0.5384    0.0000 C   0  0  0  0  0  0  0  0  0  0  0  0
   -0.0172   -1.7741    0.0000 C   0  0  0  0  0  0  0  0  0  0  0  0
    0.7006   -1.3771    0.0000 C   0  0  0  0  0  0  0  0  0  0  0  0
   -0.0035   -0.1346    0.0000 C   0  0  0  0  0  0  0  0  0  0  0  0
    4.2936   -0.1967    0.0000 C   0  0  0  0  0  0  0  0  0  0  0  0
  2  1  1  0  0  0  0
  3  1  1  0  0  0  0
  4  3  1  0  0  0  0
  5  2  1  0  0  0  0
  5  4  1  0  0  0  0
  6  4  2  0  0  0  0
  7 12  1  0  0  0  0
  8  7  3  0  0  0  0
  9  2  2  0  0  0  0
 10  3  2  0  0  0  0
 11 16  1  0  0  0  0
 12  1  1  0  0  0  0
 13 11  2  0  0  0  0
 14  6  1  0  0  0  0
 15 17  1  0  0  0  0
 16 15  1  0  0  0  0
 17 21  1  0  0  0  0
 18 11  1  0  0  0  0
 19 14  2  0  0  0  0
 20 14  1  0  0  0  0
 21 20  2  0  0  0  0
 22 19  1  0  0  0  0
 22 17  2  0  0  0  0
 23 18  1  0  0  0  0
M  END
> <CdId>
1993

> <Mol Weight>
331.343

> <Formula>
C16H13NO5S

> <Click_ID>
CLK026_F08 __ __ 

$$$$
