CLK051D04
 OpenBabel03181419432D

 18 19  0  0  0  0  0  0  0  0999 V2000
   -1.0207   -0.5916    0.0000 C   0  0  0  0  0  0  0  0  0  0  0  0
   -1.8039   -0.3333    0.0000 S   0  0  0  0  0  0  0  0  0  0  0  0
   -0.3500   -0.1042    0.0000 C   0  0  0  0  0  0  0  0  0  0  0  0
   -1.0207   -1.4165    0.0000 C   0  0  0  0  0  0  0  0  0  0  0  0
   -2.2872   -1.0041    0.0000 C   0  0  0  0  0  0  0  0  0  0  0  0
   -1.8039   -1.6706    0.0000 C   0  0  0  0  0  0  0  0  0  0  0  0
    0.3999   -0.4416    0.0000 N   0  0  0  0  0  0  0  0  0  0  0  0
    1.5623    2.1705    0.0000 C   0  0  0  0  0  0  0  0  0  0  0  0
    1.4790    2.9913    0.0000 C   0  0  0  0  0  0  0  0  0  0  0  0
   -0.4374    0.7166    0.0000 O   0  0  0  0  0  0  0  0  0  0  0  0
    1.0707    0.0458    0.0000 C   0  0  0  0  0  0  0  0  0  0  0  0
    1.6498    1.3498    0.0000 C   0  0  0  0  0  0  0  0  0  0  0  0
    0.9832    0.8666    0.0000 C   0  0  0  0  0  0  0  0  0  0  0  0
   -3.1121   -1.0041    0.0000 C   0  0  0  0  0  0  0  0  0  0  0  0
   -2.0580   -2.4539    0.0000 C   0  0  0  0  0  0  0  0  0  0  0  0
    2.4914    0.1917    0.0000 C   0  0  0  0  0  0  0  0  0  0  0  0
    1.8205   -0.2917    0.0000 C   0  0  0  0  0  0  0  0  0  0  0  0
    2.4039    1.0124    0.0000 C   0  0  0  0  0  0  0  0  0  0  0  0
  2  1  1  0  0  0  0
  3  1  1  0  0  0  0
  4  1  2  0  0  0  0
  5  2  1  0  0  0  0
  5  6  2  0  0  0  0
  6  4  1  0  0  0  0
  7  3  1  0  0  0  0
  8 12  1  0  0  0  0
  9  8  3  0  0  0  0
 10  3  2  0  0  0  0
 11  7  1  0  0  0  0
 12 13  1  0  0  0  0
 13 11  2  0  0  0  0
 14  5  1  0  0  0  0
 15  6  1  0  0  0  0
 16 17  2  0  0  0  0
 17 11  1  0  0  0  0
 18 12  2  0  0  0  0
 18 16  1  0  0  0  0
M  END
> <CdId>
3908

> <Mol Weight>
255.335

> <Formula>
C15H13NOS

> <Click_ID>
CLK051D04 __ __ 

$$$$
