CLK002_F10
 OpenBabel03181419432D

 19 19  0  0  0  0  0  0  0  0999 V2000
    0.3355    0.5451    0.0000 C   0  0  3  0  0  0  0  0  0  0  0  0
    1.1601    0.5451    0.0000 C   0  0  0  0  0  0  0  0  0  0  0  0
   -0.4962    0.5451    0.0000 C   0  0  0  0  0  0  0  0  0  0  0  0
    0.3355    1.3674    0.0000 C   0  0  0  0  0  0  0  0  0  0  0  0
    0.3355   -0.2865    0.0000 O   0  0  0  0  0  0  0  0  0  0  0  0
    1.5794    1.2603    0.0000 C   0  0  0  0  0  0  0  0  0  0  0  0
    1.5794   -0.1654    0.0000 C   0  0  0  0  0  0  0  0  0  0  0  0
   -0.9132   -0.1654    0.0000 C   0  0  0  0  0  0  0  0  0  0  0  0
    0.3355    2.2060    0.0000 C   0  0  0  0  0  0  0  0  0  0  0  0
    1.0506   -0.7058    0.0000 C   0  0  0  0  0  0  0  0  0  0  0  0
    2.4018    1.2603    0.0000 C   0  0  0  0  0  0  0  0  0  0  0  0
    2.4018   -0.1654    0.0000 C   0  0  0  0  0  0  0  0  0  0  0  0
   -1.7378   -0.1654    0.0000 C   0  0  0  0  0  0  0  0  0  0  0  0
    2.8211    0.5451    0.0000 C   0  0  0  0  0  0  0  0  0  0  0  0
   -2.1571   -0.8945    0.0000 N   0  0  0  0  0  0  0  0  0  0  0  0
   -1.7378   -1.6097    0.0000 C   0  0  0  0  0  0  0  0  0  0  0  0
   -2.9818   -0.8945    0.0000 C   0  0  0  0  0  0  0  0  0  0  0  0
   -0.9132   -1.6097    0.0000 C   0  0  0  0  0  0  0  0  0  0  0  0
   -3.4011   -1.6097    0.0000 C   0  0  0  0  0  0  0  0  0  0  0  0
  1  2  1  0  0  0  0
  1  3  1  0  0  0  0
  1  4  1  0  0  0  0
  1  5  1  0  0  0  0
  2  6  1  0  0  0  0
  2  7  2  0  0  0  0
  3  8  1  0  0  0  0
  4  9  3  0  0  0  0
  5 10  1  0  0  0  0
  6 11  2  0  0  0  0
  7 12  1  0  0  0  0
  8 13  1  0  0  0  0
 11 14  1  0  0  0  0
 12 14  2  0  0  0  0
 13 15  1  0  0  0  0
 15 16  1  0  0  0  0
 15 17  1  0  0  0  0
 16 18  1  0  0  0  0
 17 19  1  0  0  0  0
M  END
> <CdId>
139

> <Mol Weight>
259.3865

> <Formula>
C17H25NO

> <Click_ID>
CLK002_F10 __ __ 

$$$$
