CLK004_D10
 OpenBabel03181419432D

 27 29  0  0  0  0  0  0  0  0999 V2000
    0.8423    0.4992    0.0000 C   0  0  3  0  0  0  0  0  0  0  0  0
    1.2479   -0.2183    0.0000 C   0  0  0  0  0  0  0  0  0  0  0  0
    0.0139    0.4992    0.0000 C   0  0  0  0  0  0  0  0  0  0  0  0
    1.2582    1.2062    0.0000 C   0  0  0  0  0  0  0  0  0  0  0  0
    2.0798   -0.2183    0.0000 C   0  0  0  0  0  0  0  0  0  0  0  0
    0.8353   -0.9358    0.0000 C   0  0  0  0  0  0  0  0  0  0  0  0
   -0.4021   -0.2045    0.0000 C   0  0  0  0  0  0  0  0  0  0  0  0
   -0.3987    1.2271    0.0000 C   0  0  0  0  0  0  0  0  0  0  0  0
    2.0798    1.2028    0.0000 C   0  0  0  0  0  0  0  0  0  0  0  0
    0.8458    1.9307    0.0000 C   0  0  0  0  0  0  0  0  0  0  0  0
    2.4922    0.4853    0.0000 O   0  0  0  0  0  0  0  0  0  0  0  0
    2.4922   -0.9358    0.0000 C   0  0  0  0  0  0  0  0  0  0  0  0
    1.2479   -1.6603    0.0000 C   0  0  0  0  0  0  0  0  0  0  0  0
   -1.2271   -0.2045    0.0000 C   0  0  0  0  0  0  0  0  0  0  0  0
   -1.2166    1.2271    0.0000 C   0  0  0  0  0  0  0  0  0  0  0  0
    2.5027    1.9168    0.0000 N   0  0  0  0  0  0  0  0  0  0  0  0
    0.4437    2.6482    0.0000 N   0  0  0  0  0  0  0  0  0  0  0  0
    2.0867   -1.6499    0.0000 C   0  0  0  0  0  0  0  0  0  0  0  0
   -1.6464    0.5095    0.0000 C   0  0  0  0  0  0  0  0  0  0  0  0
   -1.6395   -0.9081    0.0000 O   0  0  0  0  0  0  0  0  0  0  0  0
    2.5061   -2.3744    0.0000 O   0  0  0  0  0  0  0  0  0  0  0  0
   -2.4714    0.5095    0.0000 O   0  0  0  0  0  0  0  0  0  0  0  0
   -1.2305   -1.6256    0.0000 C   0  0  0  0  0  0  0  0  0  0  0  0
   -2.8770   -0.1941    0.0000 C   0  0  0  0  0  0  0  0  0  0  0  0
   -1.6464   -2.3362    0.0000 C   0  0  0  0  0  0  0  0  0  0  0  0
   -3.7020   -0.2010    0.0000 C   0  0  0  0  0  0  0  0  0  0  0  0
   -4.5234   -0.1941    0.0000 C   0  0  0  0  0  0  0  0  0  0  0  0
  1  2  1  0  0  0  0
  1  3  1  0  0  0  0
  1  4  1  0  0  0  0
  2  5  2  0  0  0  0
  2  6  1  0  0  0  0
  3  7  1  0  0  0  0
  3  8  2  0  0  0  0
  4  9  2  0  0  0  0
  4 10  1  0  0  0  0
  5 11  1  0  0  0  0
  5 12  1  0  0  0  0
  6 13  2  0  0  0  0
  7 14  2  0  0  0  0
  8 15  1  0  0  0  0
  9 16  1  0  0  0  0
  9 11  1  0  0  0  0
 10 17  3  0  0  0  0
 12 18  2  0  0  0  0
 13 18  1  0  0  0  0
 14 19  1  0  0  0  0
 14 20  1  0  0  0  0
 15 19  2  0  0  0  0
 18 21  1  0  0  0  0
 19 22  1  0  0  0  0
 20 23  1  0  0  0  0
 22 24  1  0  0  0  0
 23 25  1  0  0  0  0
 24 26  1  0  0  0  0
 26 27  3  0  0  0  0
M  END
> <CdId>
279

> <Mol Weight>
362.3786

> <Formula>
C21H18N2O4

> <Click_ID>
CLK004_D10 __ __ 

$$$$
