CLK022_A04
 OpenBabel03181419432D

 20 20  0  0  0  0  0  0  0  0999 V2000
    2.0247    1.3696    0.0000 C   0  0  0  0  0  0  0  0  0  0  0  0
    0.0184    1.9514    0.0000 C   0  0  0  0  0  0  0  0  0  0  0  0
    1.3101    1.7819    0.0000 N   0  0  0  0  0  0  0  0  0  0  0  0
   -0.5634    2.5377    0.0000 C   0  0  0  0  0  0  0  0  0  0  0  0
    2.7393    1.7819    0.0000 N   0  0  0  0  0  0  0  0  0  0  0  0
    0.5955    1.3696    0.0000 C   0  0  0  0  0  0  0  0  0  0  0  0
    2.0247    0.5451    0.0000 O   0  0  0  0  0  0  0  0  0  0  0  0
    3.4540    1.3696    0.0000 C   0  0  0  0  0  0  0  0  0  0  0  0
    4.8832    0.5451    0.0000 C   0  0  0  0  0  0  0  0  0  0  0  0
    4.1686    1.7819    0.0000 C   0  0  0  0  0  0  0  0  0  0  0  0
    3.4540    0.5451    0.0000 C   0  0  0  0  0  0  0  0  0  0  0  0
    4.1686    0.1328    0.0000 C   0  0  0  0  0  0  0  0  0  0  0  0
    4.8832    1.3696    0.0000 C   0  0  0  0  0  0  0  0  0  0  0  0
    5.5978    0.1328    0.0000 O   0  0  0  0  0  0  0  0  0  0  0  0
   -0.0366    0.8383    0.0000 C   0  0  0  0  0  0  0  0  0  0  0  0
    1.0719    0.6962    0.0000 C   0  0  0  0  0  0  0  0  0  0  0  0
    6.3124    0.5451    0.0000 C   0  0  0  0  0  0  0  0  0  0  0  0
    0.7192   -0.0550    0.0000 C   0  0  0  0  0  0  0  0  0  0  0  0
    0.1146    0.0229    0.0000 C   0  0  0  0  0  0  0  0  0  0  0  0
    7.0270    0.1328    0.0000 C   0  0  0  0  0  0  0  0  0  0  0  0
  2  6  1  0  0  0  0
  3  1  1  0  0  0  0
  4  2  3  0  0  0  0
  5  1  1  0  0  0  0
  6  3  1  0  0  0  0
  7  1  2  0  0  0  0
  8  5  1  0  0  0  0
  9 12  2  0  0  0  0
  9 13  1  0  0  0  0
 10  8  1  0  0  0  0
 11  8  2  0  0  0  0
 12 11  1  0  0  0  0
 13 10  2  0  0  0  0
 14  9  1  0  0  0  0
 15  6  1  0  0  0  0
 16  6  1  0  0  0  0
 17 14  1  0  0  0  0
 18 16  1  0  0  0  0
 19 15  1  0  0  0  0
 20 17  1  0  0  0  0
M  END
> <CdId>
1639

> <Mol Weight>
274.3581

> <Formula>
C16H22N2O2

> <Click_ID>
CLK022_A04 __ __ 

$$$$
