CLK012_G10
 OpenBabel03181419432D

 25 26  0  0  0  0  0  0  0  0999 V2000
    1.5596   -0.8130    0.0000 N   0  0  0  0  0  0  0  0  0  0  0  0
    1.8167   -1.5969    0.0000 C   0  0  0  0  0  0  0  0  0  0  0  0
    2.2273   -0.3277    0.0000 C   0  0  0  0  0  0  0  0  0  0  0  0
    2.8910   -0.8130    0.0000 C   0  0  0  0  0  0  0  0  0  0  0  0
    2.6379   -1.5969    0.0000 S   0  0  0  0  0  0  0  0  0  0  0  0
    4.1933    1.8747    0.0000 C   0  0  0  0  0  0  0  0  0  0  0  0
    3.6749   -0.5599    0.0000 C   0  0  0  0  0  0  0  0  0  0  0  0
    4.8072    1.3148    0.0000 C   0  0  0  0  0  0  0  0  0  0  0  0
    3.4011    1.6134    0.0000 C   0  0  0  0  0  0  0  0  0  0  0  0
    3.8449    0.2447    0.0000 C   0  0  0  0  0  0  0  0  0  0  0  0
    0.6097    0.2447    0.0000 C   0  0  0  0  0  0  0  0  0  0  0  0
    0.3899    1.0410    0.0000 C   0  0  0  0  0  0  0  0  0  0  0  0
    4.3592    2.6711    0.0000 O   0  0  0  0  0  0  0  0  0  0  0  0
    1.3314   -2.2564    0.0000 O   0  0  0  0  0  0  0  0  0  0  0  0
    4.6330    0.5060    0.0000 C   0  0  0  0  0  0  0  0  0  0  0  0
    3.2269    0.8046    0.0000 C   0  0  0  0  0  0  0  0  0  0  0  0
    2.2190    0.4935    0.0000 O   0  0  0  0  0  0  0  0  0  0  0  0
    0.7839   -0.5599    0.0000 C   0  0  0  0  0  0  0  0  0  0  0  0
    5.5911    1.5678    0.0000 I   0  0  0  0  0  0  0  0  0  0  0  0
    2.7997    2.1609    0.0000 O   0  0  0  0  0  0  0  0  0  0  0  0
    5.1390    2.9241    0.0000 C   0  0  0  0  0  0  0  0  0  0  0  0
    2.0158    1.9038    0.0000 C   0  0  0  0  0  0  0  0  0  0  0  0
    5.7528    2.3849    0.0000 C   0  0  0  0  0  0  0  0  0  0  0  0
    5.3132    3.7329    0.0000 C   0  0  0  0  0  0  0  0  0  0  0  0
    1.4061    2.4595    0.0000 C   0  0  0  0  0  0  0  0  0  0  0  0
  2  1  1  0  0  0  0
  3  1  1  0  0  0  0
  4  3  1  0  0  0  0
  4  5  1  0  0  0  0
  5  2  1  0  0  0  0
  6  9  2  0  0  0  0
  6  8  1  0  0  0  0
  7  4  2  0  0  0  0
  8 15  2  0  0  0  0
  9 16  1  0  0  0  0
 10  7  1  0  0  0  0
 11 18  1  0  0  0  0
 12 11  3  0  0  0  0
 13  6  1  0  0  0  0
 14  2  2  0  0  0  0
 15 10  1  0  0  0  0
 16 10  2  0  0  0  0
 17  3  2  0  0  0  0
 18  1  1  0  0  0  0
 19  8  1  0  0  0  0
 20  9  1  0  0  0  0
 21 13  1  0  0  0  0
 22 20  1  0  0  0  0
 23 21  1  0  0  0  0
 24 21  1  0  0  0  0
 25 22  1  0  0  0  0
M  END
> <CdId>
905

> <Mol Weight>
471.309

> <Formula>
C18H18INO4S

> <Click_ID>
CLK012_G10 __ __ 

$$$$
