CLK042G05
 OpenBabel03181419432D

 23 23  0  0  0  0  0  0  0  0999 V2000
   -0.5292    2.2458    0.0000 S   0  0  0  0  0  0  0  0  0  0  0  0
   -0.5292   -1.0542    0.0000 C   0  0  0  0  0  0  0  0  0  0  0  0
    0.1833   -1.4667    0.0000 N   0  0  0  0  0  0  0  0  0  0  0  0
    0.9000   -2.7042    0.0000 C   0  0  0  0  0  0  0  0  0  0  0  0
   -0.5292    1.4208    0.0000 C   0  0  0  0  0  0  0  0  0  0  0  0
    0.1833    4.3042    0.0000 C   0  0  0  0  0  0  0  0  0  0  0  0
    0.1833    5.1292    0.0000 C   0  0  0  0  0  0  0  0  0  0  0  0
   -1.3542    2.2458    0.0000 O   0  0  0  0  0  0  0  0  0  0  0  0
    0.2958    2.2458    0.0000 O   0  0  0  0  0  0  0  0  0  0  0  0
    0.1833   -2.2917    0.0000 C   0  0  3  0  0  0  0  0  0  0  0  0
   -0.5292   -0.2292    0.0000 C   0  0  0  0  0  0  0  0  0  0  0  0
   -0.5292    3.0708    0.0000 N   0  0  0  0  0  0  0  0  0  0  0  0
   -1.2458   -1.4667    0.0000 O   0  0  0  0  0  0  0  0  0  0  0  0
    1.6125   -2.2917    0.0000 O   0  0  0  0  0  0  0  0  0  0  0  0
    0.1833    1.0083    0.0000 C   0  0  0  0  0  0  0  0  0  0  0  0
   -1.2458    1.0083    0.0000 C   0  0  0  0  0  0  0  0  0  0  0  0
    0.1833    0.1833    0.0000 C   0  0  0  0  0  0  0  0  0  0  0  0
   -1.2458    0.1833    0.0000 C   0  0  0  0  0  0  0  0  0  0  0  0
    0.9000   -3.5292    0.0000 N   0  0  0  0  0  0  0  0  0  0  0  0
    0.1833    3.4833    0.0000 C   0  0  0  0  0  0  0  0  0  0  0  0
   -0.5292   -2.7042    0.0000 C   0  0  0  0  0  0  0  0  0  0  0  0
    1.6125   -3.9417    0.0000 C   0  0  0  0  0  0  0  0  0  0  0  0
    1.6125   -4.7667    0.0000 C   0  0  0  0  0  0  0  0  0  0  0  0
  2 11  1  0  0  0  0
  3  2  1  0  0  0  0
  4 10  1  0  0  0  0
  5  1  1  0  0  0  0
  6 20  1  0  0  0  0
  7  6  3  0  0  0  0
  8  1  2  0  0  0  0
  9  1  2  0  0  0  0
 10  3  1  0  0  0  0
 11 18  2  0  0  0  0
 12  1  1  0  0  0  0
 13  2  2  0  0  0  0
 14  4  2  0  0  0  0
 15  5  1  0  0  0  0
 16  5  2  0  0  0  0
 17 15  2  0  0  0  0
 17 11  1  0  0  0  0
 18 16  1  0  0  0  0
 19  4  1  0  0  0  0
 20 12  1  0  0  0  0
 21 10  1  0  0  0  0
 22 19  1  0  0  0  0
 23 22  1  0  0  0  0
M  END
> <CdId>
3199

> <Mol Weight>
337.394

> <Formula>
C15H19N3O4S

> <Click_ID>
CLK042G05 __ __ 

$$$$
