CLK047G05
 OpenBabel03181419432D

 19 20  0  0  0  0  0  0  0  0999 V2000
   -0.6792    0.2625    0.0000 N   0  0  0  0  0  0  0  0  0  0  0  0
   -0.6792    1.9125    0.0000 N   0  0  0  0  0  0  0  0  0  0  0  0
    0.0375    0.6750    0.0000 C   0  0  0  0  0  0  0  0  0  0  0  0
    0.0375    1.5000    0.0000 C   0  0  0  0  0  0  0  0  0  0  0  0
    2.1792   -3.0375    0.0000 C   0  0  0  0  0  0  0  0  0  0  0  0
    0.7500    0.2625    0.0000 S   0  0  0  0  0  0  0  0  0  0  0  0
   -1.3917    0.6750    0.0000 C   0  0  0  0  0  0  0  0  0  0  0  0
   -1.3917    1.5000    0.0000 C   0  0  0  0  0  0  0  0  0  0  0  0
    2.1792   -3.8625    0.0000 C   0  0  0  0  0  0  0  0  0  0  0  0
    1.4625   -0.9750    0.0000 C   0  0  0  0  0  0  0  0  0  0  0  0
    2.1792   -0.5625    0.0000 O   0  0  0  0  0  0  0  0  0  0  0  0
    0.7500   -0.5625    0.0000 C   0  0  0  0  0  0  0  0  0  0  0  0
    1.4625   -1.8000    0.0000 N   0  0  0  0  0  0  0  0  0  0  0  0
    2.1792   -2.2125    0.0000 C   0  0  0  0  0  0  0  0  0  0  0  0
    0.7500    1.9125    0.0000 C   0  0  0  0  0  0  0  0  0  0  0  0
   -2.1083    0.2625    0.0000 C   0  0  0  0  0  0  0  0  0  0  0  0
   -2.1083    1.9125    0.0000 C   0  0  0  0  0  0  0  0  0  0  0  0
   -2.8208    1.5000    0.0000 C   0  0  0  0  0  0  0  0  0  0  0  0
   -2.8208    0.6750    0.0000 C   0  0  0  0  0  0  0  0  0  0  0  0
  2  4  1  0  0  0  0
  3  1  1  0  0  0  0
  4  3  2  0  0  0  0
  5 14  1  0  0  0  0
  6  3  1  0  0  0  0
  7  1  2  0  0  0  0
  8  7  1  0  0  0  0
  8  2  2  0  0  0  0
  9  5  3  0  0  0  0
 10 12  1  0  0  0  0
 11 10  2  0  0  0  0
 12  6  1  0  0  0  0
 13 10  1  0  0  0  0
 14 13  1  0  0  0  0
 15  4  1  0  0  0  0
 16  7  1  0  0  0  0
 17  8  1  0  0  0  0
 18 17  2  0  0  0  0
 19 16  2  0  0  0  0
 19 18  1  0  0  0  0
M  END
> <CdId>
3599

> <Mol Weight>
271.338

> <Formula>
C14H13N3OS

> <Click_ID>
CLK047G05 __ __ 

$$$$
