CLK042D08
 OpenBabel03181419432D

 22 23  0  0  0  0  0  0  0  0999 V2000
   -0.8375   -0.8917    0.0000 S   0  0  0  0  0  0  0  0  0  0  0  0
   -0.1250   -0.4792    0.0000 C   0  0  0  0  0  0  0  0  0  0  0  0
   -1.5542   -1.3042    0.0000 N   0  0  0  0  0  0  0  0  0  0  0  0
   -0.1250    0.3458    0.0000 C   0  0  0  0  0  0  0  0  0  0  0  0
    0.5917    0.7583    0.0000 C   0  0  0  0  0  0  0  0  0  0  0  0
    0.5917    1.5833    0.0000 C   0  0  0  0  0  0  0  0  0  0  0  0
   -0.4250   -1.6083    0.0000 O   0  0  0  0  0  0  0  0  0  0  0  0
   -1.2500   -0.1792    0.0000 O   0  0  0  0  0  0  0  0  0  0  0  0
    2.0208    3.2333    0.0000 C   0  0  0  0  0  0  0  0  0  0  0  0
    0.5917   -0.8917    0.0000 C   0  0  0  0  0  0  0  0  0  0  0  0
    2.7333    3.6458    0.0000 C   0  0  0  0  0  0  0  0  0  0  0  0
   -0.1250    1.9958    0.0000 O   0  0  0  0  0  0  0  0  0  0  0  0
    1.3042    0.3458    0.0000 C   0  0  0  0  0  0  0  0  0  0  0  0
    1.3042   -0.4792    0.0000 C   0  0  0  0  0  0  0  0  0  0  0  0
    1.3042    1.9958    0.0000 N   0  0  0  0  0  0  0  0  0  0  0  0
    1.3042    2.8208    0.0000 C   0  0  0  0  0  0  0  0  0  0  0  0
    0.5917   -1.7167    0.0000 O   0  0  0  0  0  0  0  0  0  0  0  0
   -2.3083   -0.9708    0.0000 C   0  0  0  0  0  0  0  0  0  0  0  0
   -1.6375   -2.1250    0.0000 C   0  0  0  0  0  0  0  0  0  0  0  0
    1.3042   -2.1292    0.0000 C   0  0  0  0  0  0  0  0  0  0  0  0
   -2.4458   -2.2958    0.0000 C   0  0  0  0  0  0  0  0  0  0  0  0
   -2.8583   -1.5833    0.0000 C   0  0  0  0  0  0  0  0  0  0  0  0
  2  1  1  0  0  0  0
  3  1  1  0  0  0  0
  4  2  1  0  0  0  0
  5  4  2  0  0  0  0
  5 13  1  0  0  0  0
  6  5  1  0  0  0  0
  7  1  2  0  0  0  0
  8  1  2  0  0  0  0
  9 16  1  0  0  0  0
 10  2  2  0  0  0  0
 11  9  3  0  0  0  0
 12  6  2  0  0  0  0
 13 14  2  0  0  0  0
 14 10  1  0  0  0  0
 15  6  1  0  0  0  0
 16 15  1  0  0  0  0
 17 10  1  0  0  0  0
 18  3  1  0  0  0  0
 19  3  1  0  0  0  0
 20 17  1  0  0  0  0
 21 19  1  0  0  0  0
 21 22  1  0  0  0  0
 22 18  1  0  0  0  0
M  END
> <CdId>
3220

> <Mol Weight>
322.379

> <Formula>
C15H18N2O4S

> <Click_ID>
CLK042D08 __ __ 

$$$$
