CLK023_D05
 OpenBabel03181419432D

 32 34  0  0  0  0  0  0  0  0999 V2000
    2.1312    0.4056    0.0000 N    0  0  0  0  0  0  0  0  0  0  0  0
    0.7115    0.4056    0.0000 C    0  0  0  0  0  0  0  0  0  0  0  0
    1.4162    0.8250    0.0000 C    0  0  0  0  0  0  0  0  0  0  0  0
    2.1312   -0.4193    0.0000 C    0  0  0  0  0  0  0  0  0  0  0  0
    1.4162   -0.8284    0.0000 N    0  0  0  0  0  0  0  0  0  0  0  0
    0.7115   -0.4193    0.0000 C    0  0  0  0  0  0  0  0  0  0  0  0
    2.8565    0.8215    0.0000 C    0  0  0  0  0  0  0  0  0  0  0  0
   -0.0138    0.8215    0.0000 C    0  0  0  0  0  0  0  0  0  0  0  0
   -2.1346   -0.4296    0.0000 C    0  0  0  0  0  0  0  0  0  0  0  0
   -2.1346    0.3953    0.0000 C    0  0  0  0  0  0  0  0  0  0  0  0
   -1.4299   -0.8353    0.0000 C    0  0  0  0  0  0  0  0  0  0  0  0
   -0.7184    0.4056    0.0000 C    0  0  0  0  0  0  0  0  0  0  0  0
   -4.2796   -0.8353    0.0000 C    0  0  0  0  0  0  0  0  0  0  0  0
    2.8565   -0.8353    0.0000 O    0  0  0  0  0  0  0  0  0  0  0  0
   -4.9979   -1.2443    0.0000 C    0  0  0  0  0  0  0  0  0  0  0  0
    1.4162    1.6534    0.0000 O    0  0  0  0  0  0  0  0  0  0  0  0
    3.5715    0.3987    0.0000 C    0  0  0  0  0  0  0  0  0  0  0  0
    2.8565    1.6499    0.0000 C    0  0  0  0  0  0  0  0  0  0  0  0
   -1.4299    0.8078    0.0000 C    0  0  0  0  0  0  0  0  0  0  0  0
   -0.7150   -0.4193    0.0000 C    0  0  0  0  0  0  0  0  0  0  0  0
   -0.0138   -0.8353    0.0000 O    0  0  0  0  0  0  0  0  0  0  0  0
    4.2899    0.8078    0.0000 C    0  0  0  0  0  0  0  0  0  0  0  0
    3.5749    2.0556    0.0000 C    0  0  0  0  0  0  0  0  0  0  0  0
   -2.8496    0.8009    0.0000 Cl   0  0  0  0  0  0  0  0  0  0  0  0
    4.2899    1.6362    0.0000 C    0  0  0  0  0  0  0  0  0  0  0  0
   -2.8496   -0.8353    0.0000 O    0  0  0  0  0  0  0  0  0  0  0  0
   -1.4299   -1.6499    0.0000 O    0  0  0  0  0  0  0  0  0  0  0  0
   -3.5646   -0.4193    0.0000 C    0  0  0  0  0  0  0  0  0  0  0  0
    3.5818    2.8806    0.0000 C    0  0  0  0  0  0  0  0  0  0  0  0
    4.9979    0.3953    0.0000 C    0  0  0  0  0  0  0  0  0  0  0  0
   -0.7150   -2.0590    0.0000 C    0  0  0  0  0  0  0  0  0  0  0  0
   -0.7150   -2.8771    0.0000 C    0  0  0  0  0  0  0  0  0  0  0  0
  2  3  1  0  0  0  0
  2  6  1  0  0  0  0
  3  1  1  0  0  0  0
  4  1  1  0  0  0  0
  5  4  1  0  0  0  0
  6  5  1  0  0  0  0
  7  1  1  0  0  0  0
  8  2  2  0  0  0  0
  9 11  2  0  0  0  0
 10 19  2  0  0  0  0
 10  9  1  0  0  0  0
 11 20  1  0  0  0  0
 12  8  1  0  0  0  0
 13 28  1  0  0  0  0
 14  4  2  0  0  0  0
 15 13  3  0  0  0  0
 16  3  2  0  0  0  0
 17  7  2  0  0  0  0
 18  7  1  0  0  0  0
 19 12  1  0  0  0  0
 20 12  2  0  0  0  0
 21  6  2  0  0  0  0
 22 17  1  0  0  0  0
 22 25  2  0  0  0  0
 23 18  2  0  0  0  0
 24 10  1  0  0  0  0
 25 23  1  0  0  0  0
 26  9  1  0  0  0  0
 27 11  1  0  0  0  0
 28 26  1  0  0  0  0
 29 23  1  0  0  0  0
 30 22  1  0  0  0  0
 31 27  1  0  0  0  0
 32 31  1  0  0  0  0
M  END
> <CdId>
1730

> <Mol Weight>
452.887

> <Formula>
C24H21ClN2O5

> <Click_ID>
CLK023_D05 __ __ 

$$$$
