CLK009_A09
 OpenBabel03181419432D

 16 16  0  0  0  0  0  0  0  0999 V2000
   -0.8798   -0.8523    0.0000 C   0  0  3  0  0  0  0  0  0  0  0  0
    0.5591   -0.0275    0.0000 C   0  0  3  0  0  0  0  0  0  0  0  0
   -0.1764    0.3849    0.0000 O   0  0  0  0  0  0  0  0  0  0  0  0
   -0.1764   -1.2648    0.0000 O   0  0  0  0  0  0  0  0  0  0  0  0
    2.5387    0.9188    0.0000 C   0  0  0  0  0  0  0  0  0  0  0  0
   -2.6853    0.4101    0.0000 C   0  0  0  0  0  0  0  0  0  0  0  0
    2.8801    1.6772    0.0000 C   0  0  0  0  0  0  0  0  0  0  0  0
   -2.8984    1.1937    0.0000 C   0  0  0  0  0  0  0  0  0  0  0  0
    0.5430   -0.8523    0.0000 C   0  0  0  0  0  0  0  0  0  0  0  0
   -0.8798   -0.0275    0.0000 C   0  0  0  0  0  0  0  0  0  0  0  0
    1.3839    0.0802    0.0000 O   0  0  0  0  0  0  0  0  0  0  0  0
   -1.6886   -0.6255    0.0000 O   0  0  0  0  0  0  0  0  0  0  0  0
    1.7322    0.8363    0.0000 C   0  0  0  0  0  0  0  0  0  0  0  0
   -1.8971    0.1833    0.0000 C   0  0  0  0  0  0  0  0  0  0  0  0
    0.4560    0.7973    0.0000 C   0  0  0  0  0  0  0  0  0  0  0  0
   -0.9692   -1.6772    0.0000 C   0  0  0  0  0  0  0  0  0  0  0  0
  2  3  1  0  0  0  0
  3 10  1  0  0  0  0
  4  1  1  0  0  0  0
  5 13  1  0  0  0  0
  6 14  1  0  0  0  0
  7  5  3  0  0  0  0
  8  6  3  0  0  0  0
  9  4  1  0  0  0  0
  9  2  1  0  0  0  0
 10  1  1  0  0  0  0
 11  2  1  0  0  0  0
 12  1  1  0  0  0  0
 13 11  1  0  0  0  0
 14 12  1  0  0  0  0
 15  2  1  0  0  0  0
 16  1  1  0  0  0  0
M  END
> <CdId>
604

> <Mol Weight>
224.253

> <Formula>
C12H16O4

> <Click_ID>
CLK009_A09 __ __ 

$$$$
