CLK049C08
 OpenBabel03181419432D

 20 21  0  0  0  0  0  0  0  0999 V2000
   -0.6128    0.1042    0.0000 N    0  0  0  0  0  0  0  0  0  0  0  0
   -1.0963    0.7712    0.0000 C    0  0  0  0  0  0  0  0  0  0  0  0
    0.1709    1.1839    0.0000 C    0  0  3  0  0  0  0  0  0  0  0  0
    0.1709    0.3585    0.0000 C    0  0  0  0  0  0  0  0  0  0  0  0
   -0.8671   -0.6795    0.0000 C    0  0  0  0  0  0  0  0  0  0  0  0
    0.8421    1.6675    0.0000 C    0  0  0  0  0  0  0  0  0  0  0  0
   -0.6128    1.4382    0.0000 C    0  0  0  0  0  0  0  0  0  0  0  0
   -0.3169   -1.2964    0.0000 C    0  0  0  0  0  0  0  0  0  0  0  0
    3.0181    1.4840    0.0000 C    0  0  0  0  0  0  0  0  0  0  0  0
    3.7685    1.1463    0.0000 C    0  0  0  0  0  0  0  0  0  0  0  0
   -0.5711   -2.0802    0.0000 C    0  0  0  0  0  0  0  0  0  0  0  0
   -1.9217    0.7712    0.0000 O    0  0  0  0  0  0  0  0  0  0  0  0
   -1.3757   -2.2511    0.0000 C    0  0  0  0  0  0  0  0  0  0  0  0
   -1.6758   -0.8546    0.0000 C    0  0  0  0  0  0  0  0  0  0  0  0
    0.7546    2.4887    0.0000 O    0  0  0  0  0  0  0  0  0  0  0  0
   -1.9301   -1.6383    0.0000 C    0  0  0  0  0  0  0  0  0  0  0  0
    1.5966    1.3339    0.0000 N    0  0  0  0  0  0  0  0  0  0  0  0
   -1.6341   -3.0348    0.0000 Br   0  0  0  0  0  0  0  0  0  0  0  0
    2.2636    1.8176    0.0000 C    0  0  0  0  0  0  0  0  0  0  0  0
   -0.0167   -2.6930    0.0000 C    0  0  0  0  0  0  0  0  0  0  0  0
  2  1  1  0  0  0  0
  3  4  1  0  0  0  0
  4  1  1  0  0  0  0
  5  1  1  0  0  0  0
  6  3  1  0  0  0  0
  7  2  1  0  0  0  0
  7  3  1  0  0  0  0
  8  5  2  0  0  0  0
  9 19  1  0  0  0  0
 10  9  3  0  0  0  0
 11  8  1  0  0  0  0
 12  2  2  0  0  0  0
 13 16  1  0  0  0  0
 13 11  2  0  0  0  0
 14  5  1  0  0  0  0
 15  6  2  0  0  0  0
 16 14  2  0  0  0  0
 17  6  1  0  0  0  0
 18 13  1  0  0  0  0
 19 17  1  0  0  0  0
 20 11  1  0  0  0  0
M  END
> <CdId>
3779

> <Mol Weight>
335.196

> <Formula>
C15H15BrN2O2

> <Click_ID>
CLK049C08 __ __ 

$$$$
