CLK013_D11
 OpenBabel03181419432D

 27 28  0  0  0  0  0  0  0  0999 V2000
    2.0225   -1.0779    0.0000 N    0  0  0  0  0  0  0  0  0  0  0  0
    2.2722   -1.8644    0.0000 C    0  0  0  0  0  0  0  0  0  0  0  0
    2.6842   -0.5910    0.0000 C    0  0  0  0  0  0  0  0  0  0  0  0
    3.3501   -1.0779    0.0000 C    0  0  0  0  0  0  0  0  0  0  0  0
    3.0962   -1.8644    0.0000 S    0  0  0  0  0  0  0  0  0  0  0  0
    4.1366   -0.8240    0.0000 C    0  0  0  0  0  0  0  0  0  0  0  0
    4.6485    1.5938    0.0000 C    0  0  0  0  0  0  0  0  0  0  0  0
    5.2561    1.0445    0.0000 C    0  0  0  0  0  0  0  0  0  0  0  0
    1.2402   -0.8240    0.0000 C    0  0  0  0  0  0  0  0  0  0  0  0
    3.8703    1.3442    0.0000 C    0  0  0  0  0  0  0  0  0  0  0  0
    4.3072   -0.0167    0.0000 C    0  0  0  0  0  0  0  0  0  0  0  0
    5.7971    3.4541    0.0000 C    0  0  0  0  0  0  0  0  0  0  0  0
    5.9719    4.2448    0.0000 C    0  0  0  0  0  0  0  0  0  0  0  0
    0.6242   -1.3775    0.0000 C    0  0  0  0  0  0  0  0  0  0  0  0
    1.7895   -2.5261    0.0000 O    0  0  0  0  0  0  0  0  0  0  0  0
    2.6842    0.2330    0.0000 O    0  0  0  0  0  0  0  0  0  0  0  0
    5.0855    0.2330    0.0000 C    0  0  0  0  0  0  0  0  0  0  0  0
    3.6955    0.5368    0.0000 C    0  0  0  0  0  0  0  0  0  0  0  0
    0.7990   -2.1848    0.0000 O    0  0  0  0  0  0  0  0  0  0  0  0
    6.0426    1.2859    0.0000 Cl   0  0  0  0  0  0  0  0  0  0  0  0
    4.8316    2.3971    0.0000 O    0  0  0  0  0  0  0  0  0  0  0  0
    3.2627    1.8935    0.0000 O    0  0  0  0  0  0  0  0  0  0  0  0
   -0.1581   -1.1236    0.0000 O    0  0  0  0  0  0  0  0  0  0  0  0
    5.6181    2.6426    0.0000 C    0  0  0  0  0  0  0  0  0  0  0  0
   -0.3329   -0.3163    0.0000 C    0  0  0  0  0  0  0  0  0  0  0  0
    2.4887    1.6438    0.0000 C    0  0  0  0  0  0  0  0  0  0  0  0
   -1.1194   -0.0666    0.0000 C    0  0  0  0  0  0  0  0  0  0  0  0
  2  1  1  0  0  0  0
  3  1  1  0  0  0  0
  4  3  1  0  0  0  0
  4  5  1  0  0  0  0
  5  2  1  0  0  0  0
  6  4  2  0  0  0  0
  7 10  2  0  0  0  0
  7  8  1  0  0  0  0
  8 17  2  0  0  0  0
  9  1  1  0  0  0  0
 10 18  1  0  0  0  0
 11  6  1  0  0  0  0
 12 24  1  0  0  0  0
 13 12  3  0  0  0  0
 14  9  1  0  0  0  0
 15  2  2  0  0  0  0
 16  3  2  0  0  0  0
 17 11  1  0  0  0  0
 18 11  2  0  0  0  0
 19 14  2  0  0  0  0
 20  8  1  0  0  0  0
 21  7  1  0  0  0  0
 22 10  1  0  0  0  0
 23 14  1  0  0  0  0
 24 21  1  0  0  0  0
 25 23  1  0  0  0  0
 26 22  1  0  0  0  0
 27 25  1  0  0  0  0
M  END
> <CdId>
956

> <Mol Weight>
409.841

> <Formula>
C18H16ClNO6S

> <Click_ID>
CLK013_D11 __ __ 

$$$$
