CLK024_H08
 OpenBabel03181419432D

 26 28  0  0  0  0  0  0  0  0999 V2000
   -2.3155   -0.4673    0.0000 N   0  0  0  0  0  0  0  0  0  0  0  0
   -2.0648   -1.2539    0.0000 C   0  0  0  0  0  0  0  0  0  0  0  0
   -0.9826   -0.4673    0.0000 C   0  0  0  0  0  0  0  0  0  0  0  0
   -1.6525    0.0206    0.0000 C   0  0  0  0  0  0  0  0  0  0  0  0
   -1.2402   -1.2539    0.0000 S   0  0  0  0  0  0  0  0  0  0  0  0
   -0.1958   -0.2164    0.0000 C   0  0  0  0  0  0  0  0  0  0  0  0
    0.7283    0.9310    0.0000 N   0  0  0  0  0  0  0  0  0  0  0  0
   -0.0241    0.5943    0.0000 C   0  0  0  0  0  0  0  0  0  0  0  0
    3.5867    0.9207    0.0000 C   0  0  0  0  0  0  0  0  0  0  0  0
    1.4429    0.5188    0.0000 C   0  0  0  0  0  0  0  0  0  0  0  0
    2.8652    0.5085    0.0000 C   0  0  0  0  0  0  0  0  0  0  0  0
   -3.7138   -0.7661    0.0000 C   0  0  0  0  0  0  0  0  0  0  0  0
    2.1506    0.9310    0.0000 C   0  0  0  0  0  0  0  0  0  0  0  0
   -4.3013   -1.3536    0.0000 C   0  0  0  0  0  0  0  0  0  0  0  0
    0.6390    1.7453    0.0000 C   0  0  0  0  0  0  0  0  0  0  0  0
   -2.5457   -1.9135    0.0000 O   0  0  0  0  0  0  0  0  0  0  0  0
   -0.5703    1.2059    0.0000 C   0  0  0  0  0  0  0  0  0  0  0  0
   -1.6525    0.8451    0.0000 O   0  0  0  0  0  0  0  0  0  0  0  0
   -0.1614    1.9170    0.0000 C   0  0  0  0  0  0  0  0  0  0  0  0
   -3.0954   -0.2164    0.0000 C   0  0  0  0  0  0  0  0  0  0  0  0
    4.2978    1.3330    0.0000 F   0  0  0  0  0  0  0  0  0  0  0  0
    3.9989    0.2061    0.0000 F   0  0  0  0  0  0  0  0  0  0  0  0
    3.1641    1.6319    0.0000 F   0  0  0  0  0  0  0  0  0  0  0  0
    1.4394   -0.3160    0.0000 C   0  0  0  0  0  0  0  0  0  0  0  0
    2.8652   -0.3160    0.0000 C   0  0  0  0  0  0  0  0  0  0  0  0
    2.1506   -0.7283    0.0000 C   0  0  0  0  0  0  0  0  0  0  0  0
  2  1  1  0  0  0  0
  3  4  1  0  0  0  0
  4  1  1  0  0  0  0
  5  2  1  0  0  0  0
  5  3  1  0  0  0  0
  6  3  2  0  0  0  0
  7  8  1  0  0  0  0
  8  6  1  0  0  0  0
  9 11  1  0  0  0  0
 10  7  1  0  0  0  0
 11 13  2  0  0  0  0
 11 25  1  0  0  0  0
 12 20  1  0  0  0  0
 13 10  1  0  0  0  0
 14 12  3  0  0  0  0
 15  7  1  0  0  0  0
 15 19  2  0  0  0  0
 16  2  2  0  0  0  0
 17  8  2  0  0  0  0
 18  4  2  0  0  0  0
 19 17  1  0  0  0  0
 20  1  1  0  0  0  0
 21  9  1  0  0  0  0
 22  9  1  0  0  0  0
 23  9  1  0  0  0  0
 24 10  2  0  0  0  0
 25 26  2  0  0  0  0
 26 24  1  0  0  0  0
M  END
> <CdId>
1853

> <Mol Weight>
376.352

> <Formula>
C18H11F3N2O2S

> <Click_ID>
CLK024_H08 __ __ 

$$$$
