CLK019_G11
 OpenBabel03181419432D

 20 20  0  0  0  0  0  0  0  0999 V2000
    1.7590    3.1149    0.0000 C    0  0  0  0  0  0  0  0  0  0  0  0
    1.0444    3.5272    0.0000 C    0  0  0  0  0  0  0  0  0  0  0  0
    6.0375    0.6413    0.0000 N    0  0  0  0  0  0  0  0  0  0  0  0
    3.1882    1.4658    0.0000 C    0  0  0  0  0  0  0  0  0  0  0  0
    4.6174    0.6413    0.0000 C    0  0  0  0  0  0  0  0  0  0  0  0
    3.1882    0.6413    0.0000 C    0  0  0  0  0  0  0  0  0  0  0  0
    3.9028    1.8781    0.0000 C    0  0  0  0  0  0  0  0  0  0  0  0
    4.6174    1.4658    0.0000 C    0  0  0  0  0  0  0  0  0  0  0  0
    3.9028    0.2290    0.0000 C    0  0  0  0  0  0  0  0  0  0  0  0
    2.4736    2.7026    0.0000 C    0  0  0  0  0  0  0  0  0  0  0  0
    2.4736    1.8781    0.0000 O    0  0  0  0  0  0  0  0  0  0  0  0
    7.4667    0.6413    0.0000 C    0  0  0  0  0  0  0  0  0  0  0  0
    5.3229    0.2290    0.0000 C    0  0  0  0  0  0  0  0  0  0  0  0
    6.7521    0.2290    0.0000 C    0  0  0  0  0  0  0  0  0  0  0  0
    8.1813    0.2290    0.0000 C    0  0  0  0  0  0  0  0  0  0  0  0
    7.4667    1.4658    0.0000 C    0  0  0  0  0  0  0  0  0  0  0  0
    8.1813    1.8781    0.0000 C    0  0  0  0  0  0  0  0  0  0  0  0
    8.8959    0.6413    0.0000 C    0  0  0  0  0  0  0  0  0  0  0  0
    8.8959    1.4658    0.0000 C    0  0  0  0  0  0  0  0  0  0  0  0
    5.3092    3.4447    0.0000 Cl   0  0  0  0  0  0  0  0  0  0  0  0
  2  1  3  0  0  0  0
  3 13  1  0  0  0  0
  4 11  1  0  0  0  0
  5  9  2  0  0  0  0
  5  8  1  0  0  0  0
  6  4  2  0  0  0  0
  7  4  1  0  0  0  0
  8  7  2  0  0  0  0
  9  6  1  0  0  0  0
 10  1  1  0  0  0  0
 11 10  1  0  0  0  0
 12 14  1  0  0  0  0
 13  5  1  0  0  0  0
 14  3  1  0  0  0  0
 15 12  2  0  0  0  0
 16 12  1  0  0  0  0
 17 16  2  0  0  0  0
 18 15  1  0  0  0  0
 19 18  2  0  0  0  0
 19 17  1  0  0  0  0
M  END
> <CdId>
1466

> <Mol Weight>
287.784

> <Formula>
C17H18ClNO

> <Click_ID>
CLK019_G11 __ __ 

$$$$
