CLK022_B04
 OpenBabel03181419432D

 20 21  0  0  0  0  0  0  0  0999 V2000
    5.5794    1.1406    0.0000 C   0  0  0  0  0  0  0  0  0  0  0  0
    1.2964    2.7897    0.0000 C   0  0  0  0  0  0  0  0  0  0  0  0
    0.5818    3.2020    0.0000 C   0  0  0  0  0  0  0  0  0  0  0  0
    6.2940    1.5529    0.0000 N   0  0  0  0  0  0  0  0  0  0  0  0
    4.8648    1.5529    0.0000 C   0  0  0  0  0  0  0  0  0  0  0  0
    8.4378    1.1406    0.0000 N   0  0  0  0  0  0  0  0  0  0  0  0
    5.5794    0.3161    0.0000 O   0  0  0  0  0  0  0  0  0  0  0  0
    4.8648    2.3774    0.0000 C   0  0  0  0  0  0  0  0  0  0  0  0
    4.1502    1.1406    0.0000 C   0  0  0  0  0  0  0  0  0  0  0  0
    7.0086    1.1406    0.0000 C   0  0  0  0  0  0  0  0  0  0  0  0
    7.7232    1.5529    0.0000 C   0  0  0  0  0  0  0  0  0  0  0  0
    3.4356    2.3774    0.0000 C   0  0  0  0  0  0  0  0  0  0  0  0
    4.1502    2.7897    0.0000 C   0  0  0  0  0  0  0  0  0  0  0  0
    3.4356    1.5529    0.0000 C   0  0  0  0  0  0  0  0  0  0  0  0
    2.0110    2.3774    0.0000 C   0  0  0  0  0  0  0  0  0  0  0  0
    2.7210    2.7897    0.0000 O   0  0  0  0  0  0  0  0  0  0  0  0
    9.1433    1.5529    0.0000 C   0  0  0  0  0  0  0  0  0  0  0  0
    7.7232    2.3774    0.0000 C   0  0  0  0  0  0  0  0  0  0  0  0
    9.1433    2.3774    0.0000 C   0  0  0  0  0  0  0  0  0  0  0  0
    8.4378    2.7897    0.0000 C   0  0  0  0  0  0  0  0  0  0  0  0
  2 15  1  0  0  0  0
  3  2  3  0  0  0  0
  4  1  1  0  0  0  0
  5  1  1  0  0  0  0
  6 11  1  0  0  0  0
  7  1  2  0  0  0  0
  8  5  1  0  0  0  0
  9  5  2  0  0  0  0
 10  4  1  0  0  0  0
 11 10  1  0  0  0  0
 12 14  2  0  0  0  0
 13  8  2  0  0  0  0
 13 12  1  0  0  0  0
 14  9  1  0  0  0  0
 15 16  1  0  0  0  0
 16 12  1  0  0  0  0
 17  6  2  0  0  0  0
 18 11  2  0  0  0  0
 19 20  2  0  0  0  0
 19 17  1  0  0  0  0
 20 18  1  0  0  0  0
M  END
> <CdId>
1647

> <Mol Weight>
266.2946

> <Formula>
C16H14N2O2

> <Click_ID>
CLK022_B04 __ __ 

$$$$
