CLK015_H09
 OpenBabel03181419432D

 28 30  0  0  0  0  0  0  0  0999 V2000
    1.5629   -0.8147    0.0000 N   0  0  0  0  0  0  0  0  0  0  0  0
    1.8205   -1.6003    0.0000 C   0  0  0  0  0  0  0  0  0  0  0  0
    2.8971   -0.8147    0.0000 C   0  0  0  0  0  0  0  0  0  0  0  0
    2.2320   -0.3284    0.0000 C   0  0  0  0  0  0  0  0  0  0  0  0
    2.6435   -1.6003    0.0000 S   0  0  0  0  0  0  0  0  0  0  0  0
    3.6827   -0.5611    0.0000 C   0  0  0  0  0  0  0  0  0  0  0  0
    8.4709   -2.0242    0.0000 C   0  0  0  0  0  0  0  0  0  0  0  0
    0.6110    0.2452    0.0000 C   0  0  0  0  0  0  0  0  0  0  0  0
    3.8530    0.2452    0.0000 C   0  0  0  0  0  0  0  0  0  0  0  0
    0.3907    1.0432    0.0000 C   0  0  0  0  0  0  0  0  0  0  0  0
    1.3342   -2.2611    0.0000 O   0  0  0  0  0  0  0  0  0  0  0  0
    2.2237    0.4946    0.0000 O   0  0  0  0  0  0  0  0  0  0  0  0
    7.8557   -1.4714    0.0000 C   0  0  0  0  0  0  0  0  0  0  0  0
    0.7856   -0.5611    0.0000 C   0  0  0  0  0  0  0  0  0  0  0  0
    4.6386    0.4988    0.0000 C   0  0  0  0  0  0  0  0  0  0  0  0
    5.2413   -0.0541    0.0000 O   0  0  0  0  0  0  0  0  0  0  0  0
    9.2565   -1.7748    0.0000 O   0  0  0  0  0  0  0  0  0  0  0  0
    7.0743   -1.7125    0.0000 C   0  0  0  0  0  0  0  0  0  0  0  0
    8.0303   -0.6651    0.0000 C   0  0  0  0  0  0  0  0  0  0  0  0
    8.2921   -2.8347    0.0000 O   0  0  0  0  0  0  0  0  0  0  0  0
    6.0269    0.1953    0.0000 C   0  0  0  0  0  0  0  0  0  0  0  0
    6.6379   -0.3533    0.0000 C   0  0  0  0  0  0  0  0  0  0  0  0
    7.4235   -0.1039    0.0000 C   0  0  0  0  0  0  0  0  0  0  0  0
    6.4633   -1.1638    0.0000 C   0  0  0  0  0  0  0  0  0  0  0  0
    3.2338    0.7980    0.0000 C   0  0  0  0  0  0  0  0  0  0  0  0
    4.8049    1.3051    0.0000 C   0  0  0  0  0  0  0  0  0  0  0  0
    3.4083    1.6044    0.0000 C   0  0  0  0  0  0  0  0  0  0  0  0
    4.2022    1.8537    0.0000 C   0  0  0  0  0  0  0  0  0  0  0  0
  2  1  1  0  0  0  0
  3  4  1  0  0  0  0
  3  5  1  0  0  0  0
  4  1  1  0  0  0  0
  5  2  1  0  0  0  0
  6  3  2  0  0  0  0
  7 13  1  0  0  0  0
  8 14  1  0  0  0  0
  9  6  1  0  0  0  0
 10  8  3  0  0  0  0
 11  2  2  0  0  0  0
 12  4  2  0  0  0  0
 13 18  2  0  0  0  0
 13 19  1  0  0  0  0
 14  1  1  0  0  0  0
 15  9  1  0  0  0  0
 16 15  1  0  0  0  0
 17  7  2  0  0  0  0
 18 24  1  0  0  0  0
 19 23  2  0  0  0  0
 20  7  1  0  0  0  0
 21 16  1  0  0  0  0
 22 21  1  0  0  0  0
 23 22  1  0  0  0  0
 24 22  2  0  0  0  0
 25  9  2  0  0  0  0
 26 15  2  0  0  0  0
 26 28  1  0  0  0  0
 27 25  1  0  0  0  0
 28 27  2  0  0  0  0
M  END
> <CdId>
1154

> <Mol Weight>
393.413

> <Formula>
C21H15NO5S

> <Click_ID>
CLK015_H09 __ __ 

$$$$
