CLK037F03
 OpenBabel03181419432D

 20 20  0  0  0  0  0  0  0  0999 V2000
   -1.3583    2.0625    0.0000 C   0  0  0  0  0  0  0  0  0  0  0  0
    0.0708   -0.4125    0.0000 C   0  0  0  0  0  0  0  0  0  0  0  0
    0.7833   -0.8250    0.0000 N   0  0  0  0  0  0  0  0  0  0  0  0
    0.7833   -2.4750    0.0000 C   0  0  0  0  0  0  0  0  0  0  0  0
   -0.6458    1.6500    0.0000 C   0  0  0  0  0  0  0  0  0  0  0  0
    0.0708    0.4125    0.0000 C   0  0  0  0  0  0  0  0  0  0  0  0
    0.7833   -3.3000    0.0000 C   0  0  0  0  0  0  0  0  0  0  0  0
   -0.6458    0.8250    0.0000 C   0  0  0  0  0  0  0  0  0  0  0  0
    0.7833   -1.6500    0.0000 C   0  0  0  0  0  0  0  0  0  0  0  0
   -0.6458   -0.8250    0.0000 O   0  0  0  0  0  0  0  0  0  0  0  0
   -2.0750    2.4750    0.0000 F   0  0  0  0  0  0  0  0  0  0  0  0
   -1.7708    1.3500    0.0000 F   0  0  0  0  0  0  0  0  0  0  0  0
   -0.9458    2.7792    0.0000 F   0  0  0  0  0  0  0  0  0  0  0  0
    0.0708    2.0625    0.0000 C   0  0  0  0  0  0  0  0  0  0  0  0
    0.7833    0.8250    0.0000 C   0  0  0  0  0  0  0  0  0  0  0  0
    0.7833    1.6500    0.0000 C   0  0  0  0  0  0  0  0  0  0  0  0
   -0.0417   -1.6500    0.0000 C   0  0  0  0  0  0  0  0  0  0  0  0
    1.6083   -1.6500    0.0000 C   0  0  0  0  0  0  0  0  0  0  0  0
   -0.4542   -0.9333    0.0000 C   0  0  0  0  0  0  0  0  0  0  0  0
    2.0208   -2.3625    0.0000 C   0  0  0  0  0  0  0  0  0  0  0  0
  2  6  1  0  0  0  0
  3  2  1  0  0  0  0
  4  9  1  0  0  0  0
  5  1  1  0  0  0  0
  6  8  2  0  0  0  0
  7  4  3  0  0  0  0
  8  5  1  0  0  0  0
  9  3  1  0  0  0  0
 10  2  2  0  0  0  0
 11  1  1  0  0  0  0
 12  1  1  0  0  0  0
 13  1  1  0  0  0  0
 14  5  2  0  0  0  0
 15  6  1  0  0  0  0
 16 14  1  0  0  0  0
 16 15  2  0  0  0  0
 17  9  1  0  0  0  0
 18  9  1  0  0  0  0
 19 17  1  0  0  0  0
 20 18  1  0  0  0  0
M  END
> <CdId>
2782

> <Mol Weight>
283.2888

> <Formula>
C15H16F3NO

> <Click_ID>
CLK037F03 __ __ 

$$$$
