CLK038F11
 OpenBabel03181419432D

 18 19  0  0  0  0  0  0  0  0999 V2000
   -1.2761    0.6214    0.0000 N   0  0  0  0  0  0  0  0  0  0  0  0
   -0.5588   -0.6173    0.0000 N   0  0  0  0  0  0  0  0  0  0  0  0
   -1.9893    0.2085    0.0000 C   0  0  0  0  0  0  0  0  0  0  0  0
   -0.5588    0.2085    0.0000 C   0  0  0  0  0  0  0  0  0  0  0  0
   -1.9893   -0.6173    0.0000 C   0  0  0  0  0  0  0  0  0  0  0  0
   -1.2761   -1.0301    0.0000 C   0  0  0  0  0  0  0  0  0  0  0  0
   -2.7733    0.4629    0.0000 S   0  0  0  0  0  0  0  0  0  0  0  0
    3.7326    0.2085    0.0000 C   0  0  0  0  0  0  0  0  0  0  0  0
    4.4457   -0.2044    0.0000 C   0  0  0  0  0  0  0  0  0  0  0  0
   -3.2612   -0.2044    0.0000 C   0  0  0  0  0  0  0  0  0  0  0  0
   -2.7733   -0.8716    0.0000 C   0  0  0  0  0  0  0  0  0  0  0  0
    0.1543    0.6214    0.0000 S   0  0  0  0  0  0  0  0  0  0  0  0
    1.5847    0.6214    0.0000 C   0  0  0  0  0  0  0  0  0  0  0  0
    1.5847    1.4471    0.0000 O   0  0  0  0  0  0  0  0  0  0  0  0
   -1.2761   -1.8559    0.0000 N   0  0  0  0  0  0  0  0  0  0  0  0
    0.8716    0.2085    0.0000 C   0  0  0  0  0  0  0  0  0  0  0  0
    2.3021    0.2085    0.0000 N   0  0  0  0  0  0  0  0  0  0  0  0
    3.0152    0.6214    0.0000 C   0  0  0  0  0  0  0  0  0  0  0  0
  2  4  2  0  0  0  0
  2  6  1  0  0  0  0
  3  1  2  0  0  0  0
  4  1  1  0  0  0  0
  5  3  1  0  0  0  0
  6  5  2  0  0  0  0
  7  3  1  0  0  0  0
  8 18  1  0  0  0  0
  9  8  3  0  0  0  0
 10  7  1  0  0  0  0
 11  5  1  0  0  0  0
 11 10  2  0  0  0  0
 12  4  1  0  0  0  0
 13 16  1  0  0  0  0
 14 13  2  0  0  0  0
 15  6  1  0  0  0  0
 16 12  1  0  0  0  0
 17 13  1  0  0  0  0
 18 17  1  0  0  0  0
M  END
> <CdId>
2926

> <Mol Weight>
278.353

> <Formula>
C11H10N4OS2

> <Click_ID>
CLK038F11 __ __ 

$$$$
