CLK047H10
 OpenBabel03181419432D

 18 19  0  0  0  0  0  0  0  0999 V2000
   -1.8667    2.6958    0.0000 C   0  0  0  0  0  0  0  0  0  0  0  0
    0.2750   -0.1917    0.0000 C   0  0  0  0  0  0  0  0  0  0  0  0
    0.9917   -2.2542    0.0000 C   0  0  0  0  0  0  0  0  0  0  0  0
   -2.5833    3.1083    0.0000 C   0  0  0  0  0  0  0  0  0  0  0  0
    0.2750   -1.0167    0.0000 C   0  0  0  0  0  0  0  0  0  0  0  0
    0.9917   -1.4292    0.0000 C   0  0  0  0  0  0  0  0  0  0  0  0
   -0.4375    0.2208    0.0000 N   0  0  0  0  0  0  0  0  0  0  0  0
    1.6583   -2.7417    0.0000 O   0  0  0  0  0  0  0  0  0  0  0  0
    0.3208   -2.7417    0.0000 C   0  0  0  0  0  0  0  0  0  0  0  0
    1.4042   -3.5250    0.0000 C   0  0  0  0  0  0  0  0  0  0  0  0
   -0.4375    1.0458    0.0000 C   0  0  0  0  0  0  0  0  0  0  0  0
    0.5792   -3.5250    0.0000 C   0  0  0  0  0  0  0  0  0  0  0  0
    0.9917    0.2208    0.0000 O   0  0  0  0  0  0  0  0  0  0  0  0
   -1.1542    2.2833    0.0000 C   0  0  0  0  0  0  0  0  0  0  0  0
   -1.1542    1.4583    0.0000 C   0  0  0  0  0  0  0  0  0  0  0  0
    0.2750    2.2833    0.0000 C   0  0  0  0  0  0  0  0  0  0  0  0
    0.2750    1.4583    0.0000 C   0  0  0  0  0  0  0  0  0  0  0  0
   -0.4375    2.6958    0.0000 C   0  0  0  0  0  0  0  0  0  0  0  0
  2  7  1  0  0  0  0
  3  6  1  0  0  0  0
  4  1  3  0  0  0  0
  5  2  1  0  0  0  0
  6  5  2  0  0  0  0
  7 11  1  0  0  0  0
  8  3  1  0  0  0  0
  9  3  2  0  0  0  0
 10  8  1  0  0  0  0
 10 12  2  0  0  0  0
 11 15  2  0  0  0  0
 12  9  1  0  0  0  0
 13  2  2  0  0  0  0
 14  1  1  0  0  0  0
 15 14  1  0  0  0  0
 16 18  1  0  0  0  0
 16 17  2  0  0  0  0
 17 11  1  0  0  0  0
 18 14  2  0  0  0  0
M  END
> <CdId>
3640

> <Mol Weight>
237.2533

> <Formula>
C15H11NO2

> <Click_ID>
CLK047H10 __ __ 

$$$$
