CLK013_C05
 OpenBabel03181419432D

 25 26  0  0  0  0  0  0  0  0999 V2000
    1.5619   -0.8142    0.0000 N    0  0  0  0  0  0  0  0  0  0  0  0
    1.8195   -1.5993    0.0000 C    0  0  0  0  0  0  0  0  0  0  0  0
    2.2307   -0.3282    0.0000 C    0  0  0  0  0  0  0  0  0  0  0  0
    2.8954   -0.8142    0.0000 C    0  0  0  0  0  0  0  0  0  0  0  0
    2.6420   -1.5993    0.0000 S    0  0  0  0  0  0  0  0  0  0  0  0
    4.1914    1.8651    0.0000 C    0  0  0  0  0  0  0  0  0  0  0  0
    3.6805   -0.5608    0.0000 C    0  0  0  0  0  0  0  0  0  0  0  0
    4.8104    1.3085    0.0000 C    0  0  0  0  0  0  0  0  0  0  0  0
    3.4146    1.6076    0.0000 C    0  0  0  0  0  0  0  0  0  0  0  0
    3.8425    0.2451    0.0000 C    0  0  0  0  0  0  0  0  0  0  0  0
    0.6106    0.2451    0.0000 C    0  0  0  0  0  0  0  0  0  0  0  0
    0.3905    1.0426    0.0000 C    0  0  0  0  0  0  0  0  0  0  0  0
    4.3617    2.6752    0.0000 O    0  0  0  0  0  0  0  0  0  0  0  0
    1.3334   -2.2598    0.0000 O    0  0  0  0  0  0  0  0  0  0  0  0
    4.6401    0.5068    0.0000 C    0  0  0  0  0  0  0  0  0  0  0  0
    3.2319    0.7934    0.0000 C    0  0  0  0  0  0  0  0  0  0  0  0
    2.2224    0.4943    0.0000 O    0  0  0  0  0  0  0  0  0  0  0  0
    0.7851   -0.5608    0.0000 C    0  0  0  0  0  0  0  0  0  0  0  0
    5.5872    1.5660    0.0000 Br   0  0  0  0  0  0  0  0  0  0  0  0
    2.8040    2.1642    0.0000 O    0  0  0  0  0  0  0  0  0  0  0  0
    5.1386    2.9244    0.0000 C    0  0  3  0  0  0  0  0  0  0  0  0
    2.0189    1.9067    0.0000 C    0  0  0  0  0  0  0  0  0  0  0  0
    5.3130    3.7344    0.0000 C    0  0  0  0  0  0  0  0  0  0  0  0
    5.7575    2.3761    0.0000 C    0  0  0  0  0  0  0  0  0  0  0  0
    6.1106    3.9837    0.0000 C    0  0  0  0  0  0  0  0  0  0  0  0
  2  1  1  0  0  0  0
  3  1  1  0  0  0  0
  4  3  1  0  0  0  0
  4  5  1  0  0  0  0
  5  2  1  0  0  0  0
  6  9  2  0  0  0  0
  6  8  1  0  0  0  0
  7  4  2  0  0  0  0
  8 15  2  0  0  0  0
  9 16  1  0  0  0  0
 10  7  1  0  0  0  0
 11 18  1  0  0  0  0
 12 11  3  0  0  0  0
 13  6  1  0  0  0  0
 14  2  2  0  0  0  0
 15 10  1  0  0  0  0
 16 10  2  0  0  0  0
 17  3  2  0  0  0  0
 18  1  1  0  0  0  0
 19  8  1  0  0  0  0
 20  9  1  0  0  0  0
 21 13  1  0  0  0  0
 22 20  1  0  0  0  0
 23 21  1  0  0  0  0
 24 21  1  0  0  0  0
 25 23  1  0  0  0  0
M  END
> <CdId>
940

> <Mol Weight>
424.309

> <Formula>
C18H18BrNO4S

> <Click_ID>
CLK013_C05 __ __ 

$$$$
