CLK023_F11
 OpenBabel03181419432D

 27 28  0  0  0  0  0  0  0  0999 V2000
   -0.3609    0.2028    0.0000 C    0  0  0  0  0  0  0  0  0  0  0  0
   -1.0828    0.6222    0.0000 C    0  0  0  0  0  0  0  0  0  0  0  0
    0.3472    0.6222    0.0000 C    0  0  0  0  0  0  0  0  0  0  0  0
    2.4991   -0.6222    0.0000 C    0  0  0  0  0  0  0  0  0  0  0  0
   -0.3609   -0.6222    0.0000 C    0  0  0  0  0  0  0  0  0  0  0  0
    2.4991    0.1994    0.0000 C    0  0  0  0  0  0  0  0  0  0  0  0
    1.7875   -1.0347    0.0000 C    0  0  0  0  0  0  0  0  0  0  0  0
   -1.7944    0.2028    0.0000 N    0  0  0  0  0  0  0  0  0  0  0  0
    1.0656    0.2028    0.0000 C    0  0  0  0  0  0  0  0  0  0  0  0
   -0.3678   -1.4437    0.0000 N    0  0  0  0  0  0  0  0  0  0  0  0
    3.9256   -2.2722    0.0000 C    0  0  0  0  0  0  0  0  0  0  0  0
   -3.2175    1.8597    0.0000 C    0  0  0  0  0  0  0  0  0  0  0  0
    4.6406   -2.6847    0.0000 C    0  0  0  0  0  0  0  0  0  0  0  0
   -2.5025    1.4472    0.0000 C    0  0  0  0  0  0  0  0  0  0  0  0
    1.7875    0.6222    0.0000 C    0  0  0  0  0  0  0  0  0  0  0  0
    1.0690   -0.6222    0.0000 C    0  0  0  0  0  0  0  0  0  0  0  0
   -2.5059    0.6222    0.0000 C    0  0  0  0  0  0  0  0  0  0  0  0
   -1.0828    1.4437    0.0000 O    0  0  0  0  0  0  0  0  0  0  0  0
   -3.9325    1.4472    0.0000 C    0  0  0  0  0  0  0  0  0  0  0  0
   -3.9325    0.6222    0.0000 C    0  0  0  0  0  0  0  0  0  0  0  0
    1.7875   -1.8528    0.0000 Cl   0  0  0  0  0  0  0  0  0  0  0  0
    3.2175    0.6084    0.0000 Cl   0  0  0  0  0  0  0  0  0  0  0  0
    3.2072   -1.0347    0.0000 O    0  0  0  0  0  0  0  0  0  0  0  0
   -3.2175    2.6881    0.0000 Cl   0  0  0  0  0  0  0  0  0  0  0  0
   -3.2175    0.2097    0.0000 C    0  0  0  0  0  0  0  0  0  0  0  0
    3.2175   -1.8528    0.0000 C    0  0  0  0  0  0  0  0  0  0  0  0
   -4.6440    1.8597    0.0000 C    0  0  0  0  0  0  0  0  0  0  0  0
  2  1  1  0  0  0  0
  3  1  2  0  0  0  0
  4  7  1  0  0  0  0
  4  6  2  0  0  0  0
  5  1  1  0  0  0  0
  6 15  1  0  0  0  0
  7 16  2  0  0  0  0
  8  2  1  0  0  0  0
  9  3  1  0  0  0  0
 10  5  3  0  0  0  0
 11 26  1  0  0  0  0
 12 14  1  0  0  0  0
 13 11  3  0  0  0  0
 14 17  2  0  0  0  0
 15  9  2  0  0  0  0
 16  9  1  0  0  0  0
 17  8  1  0  0  0  0
 18  2  2  0  0  0  0
 19 20  1  0  0  0  0
 19 12  2  0  0  0  0
 20 25  2  0  0  0  0
 21  7  1  0  0  0  0
 22  6  1  0  0  0  0
 23  4  1  0  0  0  0
 24 12  1  0  0  0  0
 25 17  1  0  0  0  0
 26 23  1  0  0  0  0
 27 19  1  0  0  0  0
M  END
> <CdId>
1756

> <Mol Weight>
419.688

> <Formula>
C20H13Cl3N2O2

> <Click_ID>
CLK023_F11 __ __ 

$$$$
