CLK032_D07
 OpenBabel03181419432D

 37 41  0  0  0  0  0  0  0  0999 V2000
    7.9375   -1.4417    0.0000 S   0  0  0  0  0  0  0  0  0  0  0  0
    3.3875   -2.1500    0.0000 C   0  0  0  0  0  0  0  0  0  0  0  0
    8.7667   -1.4417    0.0000 N   0  0  0  0  0  0  0  0  0  0  0  0
    4.2125   -2.1542    0.0000 N   0  0  0  0  0  0  0  0  0  0  0  0
   -0.0250   -1.3167    0.0000 S   0  0  0  0  0  0  0  0  0  0  0  0
    2.9042   -2.8125    0.0000 N   0  0  0  0  0  0  0  0  0  0  0  0
    2.9042   -1.4792    0.0000 S   0  0  0  0  0  0  0  0  0  0  0  0
    2.1167   -1.7292    0.0000 C   0  0  0  0  0  0  0  0  0  0  0  0
    2.1167   -2.5542    0.0000 C   0  0  0  0  0  0  0  0  0  0  0  0
    4.6250   -1.4417    0.0000 C   0  0  0  0  0  0  0  0  0  0  0  0
    9.1792   -2.1542    0.0000 C   0  0  0  0  0  0  0  0  0  0  0  0
    0.6917   -1.7292    0.0000 C   0  0  0  0  0  0  0  0  0  0  0  0
    1.4042   -1.3167    0.0000 C   0  0  0  0  0  0  0  0  0  0  0  0
    7.1042   -1.4417    0.0000 C   0  0  0  0  0  0  0  0  0  0  0  0
    9.3250   -0.8292    0.0000 C   0  0  0  0  0  0  0  0  0  0  0  0
    7.9375   -2.2750    0.0000 O   0  0  0  0  0  0  0  0  0  0  0  0
    7.9417   -0.6167    0.0000 O   0  0  0  0  0  0  0  0  0  0  0  0
    2.6042   -4.2125    0.0000 C   0  0  0  0  0  0  0  0  0  0  0  0
    1.4042   -2.9667    0.0000 C   0  0  0  0  0  0  0  0  0  0  0  0
    2.0542   -4.8250    0.0000 C   0  0  0  0  0  0  0  0  0  0  0  0
   -0.4625   -2.0250    0.0000 O   0  0  0  0  0  0  0  0  0  0  0  0
    0.4042   -0.6250    0.0000 O   0  0  0  0  0  0  0  0  0  0  0  0
    5.4500   -1.4417    0.0000 C   0  0  0  0  0  0  0  0  0  0  0  0
    9.9917   -1.9792    0.0000 C   0  0  0  0  0  0  0  0  0  0  0  0
   -0.7333   -0.8875    0.0000 N   0  0  0  0  0  0  0  0  0  0  0  0
    4.2125   -0.7292    0.0000 O   0  0  0  0  0  0  0  0  0  0  0  0
    0.6917   -2.5542    0.0000 C   0  0  0  0  0  0  0  0  0  0  0  0
   10.0792   -1.1667    0.0000 C   0  0  0  0  0  0  0  0  0  0  0  0
    3.1542   -3.6000    0.0000 C   0  0  0  0  0  0  0  0  0  0  0  0
    6.6917   -2.1625    0.0000 C   0  0  0  0  0  0  0  0  0  0  0  0
    6.6917   -0.7292    0.0000 C   0  0  0  0  0  0  0  0  0  0  0  0
    5.8667   -2.1542    0.0000 C   0  0  0  0  0  0  0  0  0  0  0  0
    5.8667   -0.7250    0.0000 C   0  0  0  0  0  0  0  0  0  0  0  0
    8.9167   -2.9375    0.0000 C   0  0  0  0  0  0  0  0  0  0  0  0
   10.5417   -2.6000    0.0000 C   0  0  0  0  0  0  0  0  0  0  0  0
    9.4750   -3.5542    0.0000 C   0  0  0  0  0  0  0  0  0  0  0  0
   10.2875   -3.3792    0.0000 C   0  0  0  0  0  0  0  0  0  0  0  0
  2  4  2  0  0  0  0
  3  1  1  0  0  0  0
  4 10  1  0  0  0  0
  5 12  1  0  0  0  0
  6  2  1  0  0  0  0
  7  2  1  0  0  0  0
  8  7  1  0  0  0  0
  8  9  2  0  0  0  0
  9  6  1  0  0  0  0
 10 23  1  0  0  0  0
 11  3  1  0  0  0  0
 12 13  2  0  0  0  0
 12 27  1  0  0  0  0
 13  8  1  0  0  0  0
 14  1  1  0  0  0  0
 15  3  1  0  0  0  0
 16  1  2  0  0  0  0
 17  1  2  0  0  0  0
 18 29  1  0  0  0  0
 19  9  1  0  0  0  0
 20 18  3  0  0  0  0
 21  5  2  0  0  0  0
 22  5  2  0  0  0  0
 23 33  1  0  0  0  0
 23 32  2  0  0  0  0
 24 11  2  0  0  0  0
 24 28  1  0  0  0  0
 25  5  1  0  0  0  0
 26 10  2  0  0  0  0
 27 19  2  0  0  0  0
 28 15  1  0  0  0  0
 29  6  1  0  0  0  0
 30 14  2  0  0  0  0
 31 14  1  0  0  0  0
 32 30  1  0  0  0  0
 33 31  2  0  0  0  0
 34 11  1  0  0  0  0
 35 24  1  0  0  0  0
 35 37  2  0  0  0  0
 36 34  2  0  0  0  0
 37 36  1  0  0  0  0
M  END
> <CdId>
2441

> <Mol Weight>
552.645

> <Formula>
C25H20N4O5S3

> <Click_ID>
CLK032_D07 __ __ 

$$$$
