CLK045F07
 OpenBabel03181419432D

 32 35  0  0  0  0  0  0  0  0999 V2000
   -0.2500   -3.0500    0.0000 C   0  0  0  0  0  0  0  0  0  0  0  0
   -0.2500   -2.2250    0.0000 N   0  0  0  0  0  0  0  0  0  0  0  0
    0.4667   -3.4625    0.0000 N   0  0  0  0  0  0  0  0  0  0  0  0
    1.1792   -3.0500    0.0000 C   0  0  0  0  0  0  0  0  0  0  0  0
   -1.0333   -3.3042    0.0000 N   0  0  0  0  0  0  0  0  0  0  0  0
    1.1792   -2.2250    0.0000 C   0  0  0  0  0  0  0  0  0  0  0  0
    0.4667   -1.8125    0.0000 C   0  0  0  0  0  0  0  0  0  0  0  0
   -0.3958    3.0083    0.0000 S   0  0  0  0  0  0  0  0  0  0  0  0
   -1.0333   -1.9667    0.0000 C   0  0  0  0  0  0  0  0  0  0  0  0
   -1.5208   -2.6375    0.0000 N   0  0  0  0  0  0  0  0  0  0  0  0
   -0.1417    2.2250    0.0000 C   0  0  0  0  0  0  0  0  0  0  0  0
   -0.9917    0.2125    0.0000 C   0  0  0  0  0  0  0  0  0  0  0  0
   -0.3542    5.1875    0.0000 C   0  0  0  0  0  0  0  0  0  0  0  0
   -0.4417    0.8292    0.0000 C   0  0  0  0  0  0  0  0  0  0  0  0
   -0.6958    1.6125    0.0000 C   0  0  0  0  0  0  0  0  0  0  0  0
   -0.6125    5.9708    0.0000 C   0  0  0  0  0  0  0  0  0  0  0  0
    0.3875    3.2667    0.0000 O   0  0  0  0  0  0  0  0  0  0  0  0
   -1.1833    2.7542    0.0000 O   0  0  0  0  0  0  0  0  0  0  0  0
    1.8958   -3.4625    0.0000 O   0  0  0  0  0  0  0  0  0  0  0  0
   -0.7375   -0.5708    0.0000 O   0  0  0  0  0  0  0  0  0  0  0  0
   -1.2875   -1.1833    0.0000 C   0  0  0  0  0  0  0  0  0  0  0  0
   -0.6542    3.7958    0.0000 N   0  0  0  0  0  0  0  0  0  0  0  0
   -1.8000    0.3875    0.0000 O   0  0  0  0  0  0  0  0  0  0  0  0
    0.4667   -4.2875    0.0000 C   0  0  0  0  0  0  0  0  0  0  0  0
    1.8958   -1.8125    0.0000 C   0  0  0  0  0  0  0  0  0  0  0  0
    0.4667   -0.9875    0.0000 C   0  0  0  0  0  0  0  0  0  0  0  0
   -0.1000    4.4042    0.0000 C   0  0  0  0  0  0  0  0  0  0  0  0
    0.6625    2.0542    0.0000 C   0  0  0  0  0  0  0  0  0  0  0  0
    0.3667    0.6542    0.0000 C   0  0  0  0  0  0  0  0  0  0  0  0
    0.9208    1.2708    0.0000 C   0  0  0  0  0  0  0  0  0  0  0  0
    1.8958   -0.9875    0.0000 C   0  0  0  0  0  0  0  0  0  0  0  0
    1.1792   -0.5750    0.0000 C   0  0  0  0  0  0  0  0  0  0  0  0
  2  1  1  0  0  0  0
  3  1  1  0  0  0  0
  4  3  1  0  0  0  0
  5  1  2  0  0  0  0
  6  7  2  0  0  0  0
  6  4  1  0  0  0  0
  7  2  1  0  0  0  0
  8 11  1  0  0  0  0
  9  2  1  0  0  0  0
 10  5  1  0  0  0  0
 10  9  2  0  0  0  0
 11 15  1  0  0  0  0
 12 20  1  0  0  0  0
 13 27  1  0  0  0  0
 14 12  1  0  0  0  0
 15 14  2  0  0  0  0
 16 13  3  0  0  0  0
 17  8  2  0  0  0  0
 18  8  2  0  0  0  0
 19  4  2  0  0  0  0
 20 21  1  0  0  0  0
 21  9  1  0  0  0  0
 22  8  1  0  0  0  0
 23 12  2  0  0  0  0
 24  3  1  0  0  0  0
 25  6  1  0  0  0  0
 26  7  1  0  0  0  0
 27 22  1  0  0  0  0
 28 11  2  0  0  0  0
 28 30  1  0  0  0  0
 29 14  1  0  0  0  0
 30 29  2  0  0  0  0
 31 25  2  0  0  0  0
 32 26  2  0  0  0  0
 32 31  1  0  0  0  0
M  END
> <CdId>
3454

> <Mol Weight>
451.455

> <Formula>
C21H17N5O5S

> <Click_ID>
CLK045F07 __ __ 

$$$$
