CLK046C02
 OpenBabel03181419432D

 24 24  0  0  0  0  0  0  0  0999 V2000
   -0.5958    2.5792    0.0000 S   0  0  0  0  0  0  0  0  0  0  0  0
   -0.5958   -0.7208    0.0000 C   0  0  0  0  0  0  0  0  0  0  0  0
   -0.5958    1.7542    0.0000 C   0  0  0  0  0  0  0  0  0  0  0  0
    0.1167   -1.1333    0.0000 N   0  0  0  0  0  0  0  0  0  0  0  0
    0.1167    4.6375    0.0000 C   0  0  0  0  0  0  0  0  0  0  0  0
    0.1167    5.4625    0.0000 C   0  0  0  0  0  0  0  0  0  0  0  0
   -1.4208    2.5792    0.0000 O   0  0  0  0  0  0  0  0  0  0  0  0
    0.2292    2.5792    0.0000 O   0  0  0  0  0  0  0  0  0  0  0  0
   -0.5958    0.1042    0.0000 C   0  0  0  0  0  0  0  0  0  0  0  0
   -0.5958    3.4042    0.0000 N   0  0  0  0  0  0  0  0  0  0  0  0
   -1.3125   -1.1333    0.0000 O   0  0  0  0  0  0  0  0  0  0  0  0
    0.1167    1.3417    0.0000 C   0  0  0  0  0  0  0  0  0  0  0  0
   -1.3125    1.3417    0.0000 C   0  0  0  0  0  0  0  0  0  0  0  0
    0.1167    0.5167    0.0000 C   0  0  0  0  0  0  0  0  0  0  0  0
   -1.3125    0.5167    0.0000 C   0  0  0  0  0  0  0  0  0  0  0  0
    0.1167    3.8167    0.0000 C   0  0  0  0  0  0  0  0  0  0  0  0
    0.1167   -1.9583    0.0000 C   0  0  3  0  0  0  0  0  0  0  0  0
    0.8333   -3.1958    0.0000 C   0  0  0  0  0  0  0  0  0  0  0  0
    0.8333   -2.3708    0.0000 C   0  0  0  0  0  0  0  0  0  0  0  0
    1.5458   -3.6083    0.0000 C   0  0  0  0  0  0  0  0  0  0  0  0
    1.5458   -4.4333    0.0000 C   0  0  0  0  0  0  0  0  0  0  0  0
   -0.5958   -2.3708    0.0000 C   0  0  0  0  0  0  0  0  0  0  0  0
    2.2583   -4.8458    0.0000 C   0  0  0  0  0  0  0  0  0  0  0  0
    0.8333   -4.8458    0.0000 C   0  0  0  0  0  0  0  0  0  0  0  0
  2  9  1  0  0  0  0
  3  1  1  0  0  0  0
  4  2  1  0  0  0  0
  5 16  1  0  0  0  0
  6  5  3  0  0  0  0
  7  1  2  0  0  0  0
  8  1  2  0  0  0  0
  9 15  2  0  0  0  0
 10  1  1  0  0  0  0
 11  2  2  0  0  0  0
 12  3  1  0  0  0  0
 13  3  2  0  0  0  0
 14 12  2  0  0  0  0
 14  9  1  0  0  0  0
 15 13  1  0  0  0  0
 16 10  1  0  0  0  0
 17  4  1  0  0  0  0
 18 19  1  0  0  0  0
 19 17  1  0  0  0  0
 20 18  1  0  0  0  0
 21 20  1  0  0  0  0
 22 17  1  0  0  0  0
 23 21  1  0  0  0  0
 24 21  1  0  0  0  0
M  END
> <CdId>
3491

> <Mol Weight>
350.476

> <Formula>
C18H26N2O3S

> <Click_ID>
CLK046C02 __ __ 

$$$$
