CLK044D02
 OpenBabel03181419432D

 20 21  0  0  0  0  0  0  0  0999 V2000
    2.1417   -0.2042    0.0000 N   0  0  0  0  0  0  0  0  0  0  0  0
    2.1417    0.6208    0.0000 C   0  0  0  0  0  0  0  0  0  0  0  0
    1.4250    1.0333    0.0000 N   0  0  0  0  0  0  0  0  0  0  0  0
    0.7125   -0.2042    0.0000 C   0  0  0  0  0  0  0  0  0  0  0  0
    0.7125    0.6208    0.0000 C   0  0  0  0  0  0  0  0  0  0  0  0
    1.4250   -0.6167    0.0000 C   0  0  0  0  0  0  0  0  0  0  0  0
    0.0000    1.0333    0.0000 N   0  0  0  0  0  0  0  0  0  0  0  0
    0.0000   -0.6167    0.0000 C   0  0  0  0  0  0  0  0  0  0  0  0
   -0.7167   -0.2042    0.0000 C   0  0  0  0  0  0  0  0  0  0  0  0
   -1.4292   -0.6167    0.0000 C   0  0  0  0  0  0  0  0  0  0  0  0
   -3.5750   -0.2042    0.0000 C   0  0  0  0  0  0  0  0  0  0  0  0
   -0.7167    0.6208    0.0000 C   0  0  0  0  0  0  0  0  0  0  0  0
    2.8542    1.0333    0.0000 O   0  0  0  0  0  0  0  0  0  0  0  0
   -4.2875    0.2083    0.0000 C   0  0  0  0  0  0  0  0  0  0  0  0
    1.4250   -1.4417    0.0000 O   0  0  0  0  0  0  0  0  0  0  0  0
   -1.4292   -1.4417    0.0000 O   0  0  0  0  0  0  0  0  0  0  0  0
    2.8542   -0.6167    0.0000 C   0  0  0  0  0  0  0  0  0  0  0  0
    1.4250    1.8583    0.0000 C   0  0  0  0  0  0  0  0  0  0  0  0
   -2.1458   -0.2042    0.0000 N   0  0  0  0  0  0  0  0  0  0  0  0
   -2.8583   -0.6167    0.0000 C   0  0  0  0  0  0  0  0  0  0  0  0
  2  1  1  0  0  0  0
  3  2  1  0  0  0  0
  4  6  1  0  0  0  0
  5  4  2  0  0  0  0
  5  3  1  0  0  0  0
  6  1  1  0  0  0  0
  7  5  1  0  0  0  0
  8  4  1  0  0  0  0
  9  8  2  0  0  0  0
  9 12  1  0  0  0  0
 10  9  1  0  0  0  0
 11 20  1  0  0  0  0
 12  7  2  0  0  0  0
 13  2  2  0  0  0  0
 14 11  3  0  0  0  0
 15  6  2  0  0  0  0
 16 10  2  0  0  0  0
 17  1  1  0  0  0  0
 18  3  1  0  0  0  0
 19 10  1  0  0  0  0
 20 19  1  0  0  0  0
M  END
> <CdId>
3332

> <Mol Weight>
272.2594

> <Formula>
C13H12N4O3

> <Click_ID>
CLK044D02 __ __ 

$$$$
