CLK015_H05
 OpenBabel03181419432D

 21 22  0  0  0  0  0  0  0  0999 V2000
    2.1101   -0.2289    0.0000 N   0  0  0  0  0  0  0  0  0  0  0  0
    2.3599   -1.0156    0.0000 C   0  0  0  0  0  0  0  0  0  0  0  0
    2.7719    0.2580    0.0000 C   0  0  0  0  0  0  0  0  0  0  0  0
    3.1839   -1.0156    0.0000 S   0  0  0  0  0  0  0  0  0  0  0  0
    3.4379   -0.2289    0.0000 C   0  0  0  0  0  0  0  0  0  0  0  0
    0.7117   -0.5286    0.0000 C   0  0  0  0  0  0  0  0  0  0  0  0
    0.1249   -1.1113    0.0000 C   0  0  0  0  0  0  0  0  0  0  0  0
    4.2245    0.0250    0.0000 C   0  0  0  0  0  0  0  0  0  0  0  0
    1.8771   -1.6773    0.0000 O   0  0  0  0  0  0  0  0  0  0  0  0
    2.7719    1.0821    0.0000 O   0  0  0  0  0  0  0  0  0  0  0  0
    4.3993    0.8324    0.0000 C   0  0  0  0  0  0  0  0  0  0  0  0
    1.3277    0.0250    0.0000 C   0  0  0  0  0  0  0  0  0  0  0  0
    5.1817    1.0821    0.0000 C   0  0  0  0  0  0  0  0  0  0  0  0
    5.3565    1.8937    0.0000 C   0  0  0  0  0  0  0  0  0  0  0  0
    5.6978    3.5044    0.0000 C   0  0  0  0  0  0  0  0  0  0  0  0
    6.1349    2.1434    0.0000 C   0  0  0  0  0  0  0  0  0  0  0  0
    4.7447    2.4348    0.0000 C   0  0  0  0  0  0  0  0  0  0  0  0
    6.3097    2.9425    0.0000 C   0  0  0  0  0  0  0  0  0  0  0  0
    4.9195    3.2422    0.0000 C   0  0  0  0  0  0  0  0  0  0  0  0
    5.8726    4.2994    0.0000 O   0  0  0  0  0  0  0  0  0  0  0  0
    5.2608    4.8488    0.0000 C   0  0  0  0  0  0  0  0  0  0  0  0
  2  1  1  0  0  0  0
  3  1  1  0  0  0  0
  4  2  1  0  0  0  0
  5  3  1  0  0  0  0
  5  4  1  0  0  0  0
  6 12  1  0  0  0  0
  7  6  3  0  0  0  0
  8  5  2  0  0  0  0
  9  2  2  0  0  0  0
 10  3  2  0  0  0  0
 11  8  1  0  0  0  0
 12  1  1  0  0  0  0
 13 11  2  0  0  0  0
 14 13  1  0  0  0  0
 15 19  1  0  0  0  0
 15 18  2  0  0  0  0
 16 14  2  0  0  0  0
 17 14  1  0  0  0  0
 18 16  1  0  0  0  0
 19 17  2  0  0  0  0
 20 15  1  0  0  0  0
 21 20  1  0  0  0  0
M  END
> <CdId>
1150

> <Mol Weight>
299.344

> <Formula>
C16H13NO3S

> <Click_ID>
CLK015_H05 __ __ 

$$$$
