CLK016_G04
 OpenBabel03181419432D

 20 21  0  0  0  0  0  0  0  0999 V2000
    1.5672   -0.8170    0.0000 N    0  0  0  0  0  0  0  0  0  0  0  0
    1.8256   -1.6047    0.0000 C    0  0  0  0  0  0  0  0  0  0  0  0
    2.2382   -0.3293    0.0000 C    0  0  0  0  0  0  0  0  0  0  0  0
    2.9051   -0.8170    0.0000 C    0  0  0  0  0  0  0  0  0  0  0  0
    2.6508   -1.6047    0.0000 S    0  0  0  0  0  0  0  0  0  0  0  0
    3.6929   -0.5627    0.0000 C    0  0  0  0  0  0  0  0  0  0  0  0
    0.6127    0.2459    0.0000 C    0  0  0  0  0  0  0  0  0  0  0  0
    0.3918    1.0461    0.0000 C    0  0  0  0  0  0  0  0  0  0  0  0
    4.8057    1.3087    0.0000 C    0  0  0  0  0  0  0  0  0  0  0  0
    1.3379   -2.2674    0.0000 O    0  0  0  0  0  0  0  0  0  0  0  0
    2.2299    0.4960    0.0000 O    0  0  0  0  0  0  0  0  0  0  0  0
    3.8554    0.2459    0.0000 C    0  0  0  0  0  0  0  0  0  0  0  0
    0.7878   -0.5627    0.0000 C    0  0  0  0  0  0  0  0  0  0  0  0
    4.6432    0.5002    0.0000 C    0  0  0  0  0  0  0  0  0  0  0  0
    4.1930    1.8589    0.0000 C    0  0  0  0  0  0  0  0  0  0  0  0
    3.4136    1.5963    0.0000 C    0  0  0  0  0  0  0  0  0  0  0  0
    5.5935    1.5630    0.0000 Cl   0  0  0  0  0  0  0  0  0  0  0  0
    3.2427    0.7961    0.0000 C    0  0  0  0  0  0  0  0  0  0  0  0
    4.3639    2.6591    0.0000 O    0  0  0  0  0  0  0  0  0  0  0  0
    3.7429    3.2093    0.0000 C    0  0  0  0  0  0  0  0  0  0  0  0
  2  1  1  0  0  0  0
  3  1  1  0  0  0  0
  4  3  1  0  0  0  0
  4  5  1  0  0  0  0
  5  2  1  0  0  0  0
  6  4  2  0  0  0  0
  7 13  1  0  0  0  0
  8  7  3  0  0  0  0
  9 14  1  0  0  0  0
  9 15  2  0  0  0  0
 10  2  2  0  0  0  0
 11  3  2  0  0  0  0
 12  6  1  0  0  0  0
 13  1  1  0  0  0  0
 14 12  2  0  0  0  0
 15 16  1  0  0  0  0
 16 18  2  0  0  0  0
 17  9  1  0  0  0  0
 18 12  1  0  0  0  0
 19 15  1  0  0  0  0
 20 19  1  0  0  0  0
M  END
> <CdId>
1219

> <Mol Weight>
307.752

> <Formula>
C14H10ClNO3S

> <Click_ID>
CLK016_G04 __ __ 

$$$$
