CLK003_C08
 OpenBabel03181419432D

 34 37  0  0  0  0  0  0  0  0999 V2000
    0.6535   -0.2432    0.0000 C   0  0  0  0  0  0  0  0  0  0  0  0
   -0.0722    0.1558    0.0000 C   0  0  3  0  0  0  0  0  0  0  0  0
    1.3603    0.1748    0.0000 C   0  0  0  0  0  0  0  0  0  0  0  0
    0.6574   -1.0678    0.0000 C   0  0  0  0  0  0  0  0  0  0  0  0
   -0.0760    0.9804    0.0000 C   0  0  0  0  0  0  0  0  0  0  0  0
   -0.7789   -0.2660    0.0000 C   0  0  0  0  0  0  0  0  0  0  0  0
    1.3489    0.9955    0.0000 N   0  0  0  0  0  0  0  0  0  0  0  0
    2.0784   -0.2241    0.0000 C   0  0  0  0  0  0  0  0  0  0  0  0
    1.3831   -1.4705    0.0000 C   0  0  0  0  0  0  0  0  0  0  0  0
   -0.0570   -1.4971    0.0000 O   0  0  0  0  0  0  0  0  0  0  0  0
    0.6307    1.3945    0.0000 C   0  0  0  0  0  0  0  0  0  0  0  0
   -0.8018    1.3831    0.0000 C   0  0  0  0  0  0  0  0  0  0  0  0
   -0.7637   -1.0906    0.0000 C   0  0  0  0  0  0  0  0  0  0  0  0
   -1.5047    0.1406    0.0000 C   0  0  0  0  0  0  0  0  0  0  0  0
    2.0595    1.4211    0.0000 C   0  0  0  0  0  0  0  0  0  0  0  0
    2.0899   -1.0563    0.0000 C   0  0  0  0  0  0  0  0  0  0  0  0
    0.6155    2.2266    0.0000 C   0  0  0  0  0  0  0  0  0  0  0  0
   -0.8055    2.2076    0.0000 C   0  0  0  0  0  0  0  0  0  0  0  0
   -1.5161    0.9576    0.0000 O   0  0  0  0  0  0  0  0  0  0  0  0
   -1.4781   -1.5199    0.0000 C   0  0  0  0  0  0  0  0  0  0  0  0
   -2.2114   -0.2850    0.0000 C   0  0  0  0  0  0  0  0  0  0  0  0
    2.7813    1.0221    0.0000 C   0  0  0  0  0  0  0  0  0  0  0  0
    2.8156   -1.4667    0.0000 C   0  0  0  0  0  0  0  0  0  0  0  0
    1.6794   -1.7859    0.0000 C   0  0  0  0  0  0  0  0  0  0  0  0
   -0.1026    2.6218    0.0000 C   0  0  0  0  0  0  0  0  0  0  0  0
   -2.1962   -1.1133    0.0000 C   0  0  0  0  0  0  0  0  0  0  0  0
    3.4805    1.4514    0.0000 O   0  0  0  0  0  0  0  0  0  0  0  0
    2.7928    0.1976    0.0000 O   0  0  0  0  0  0  0  0  0  0  0  0
   -0.1139    3.4616    0.0000 C   0  0  0  0  0  0  0  0  0  0  0  0
   -0.9385    2.6066    0.0000 C   0  0  0  0  0  0  0  0  0  0  0  0
   -2.9106   -1.5389    0.0000 O   0  0  0  0  0  0  0  0  0  0  0  0
   -2.8954   -2.3634    0.0000 C   0  0  0  0  0  0  0  0  0  0  0  0
   -3.6098   -2.7928    0.0000 C   0  0  0  0  0  0  0  0  0  0  0  0
   -3.5983   -3.6174    0.0000 C   0  0  0  0  0  0  0  0  0  0  0  0
  1  2  1  0  0  0  0
  1  3  2  0  0  0  0
  1  4  1  0  0  0  0
  2  5  1  0  0  0  0
  2  6  1  0  0  0  0
  3  7  1  0  0  0  0
  3  8  1  0  0  0  0
  4  9  1  0  0  0  0
  4 10  2  0  0  0  0
  5 11  2  0  0  0  0
  5 12  1  0  0  0  0
  6 13  2  0  0  0  0
  6 14  1  0  0  0  0
  7 15  1  0  0  0  0
  7 11  1  0  0  0  0
  8 16  1  0  0  0  0
  9 16  1  0  0  0  0
 11 17  1  0  0  0  0
 12 18  1  0  0  0  0
 12 19  2  0  0  0  0
 13 20  1  0  0  0  0
 14 21  2  0  0  0  0
 15 22  1  0  0  0  0
 16 23  1  0  0  0  0
 16 24  1  0  0  0  0
 17 25  1  0  0  0  0
 18 25  1  0  0  0  0
 20 26  2  0  0  0  0
 21 26  1  0  0  0  0
 22 27  1  0  0  0  0
 22 28  2  0  0  0  0
 25 29  1  0  0  0  0
 25 30  1  0  0  0  0
 26 31  1  0  0  0  0
 31 32  1  0  0  0  0
 32 33  1  0  0  0  0
 33 34  3  0  0  0  0
M  END
> <CdId>
187

> <Mol Weight>
461.5494

> <Formula>
C28H31NO5

> <Click_ID>
CLK003_C08 __ __ 

$$$$
