CLK045E11
 OpenBabel03181419432D

 18 18  0  0  0  0  0  0  0  0999 V2000
   -0.2417    1.2833    0.0000 S   0  0  0  0  0  0  0  0  0  0  0  0
   -0.2417   -2.0167    0.0000 C   0  0  0  0  0  0  0  0  0  0  0  0
   -0.2417    0.4583    0.0000 C   0  0  0  0  0  0  0  0  0  0  0  0
    0.4750    3.3458    0.0000 C   0  0  0  0  0  0  0  0  0  0  0  0
    0.4750    4.1667    0.0000 C   0  0  0  0  0  0  0  0  0  0  0  0
   -1.0667    1.2833    0.0000 O   0  0  0  0  0  0  0  0  0  0  0  0
    0.5833    1.2833    0.0000 O   0  0  0  0  0  0  0  0  0  0  0  0
   -0.2417   -1.1917    0.0000 C   0  0  0  0  0  0  0  0  0  0  0  0
   -0.2417    2.1083    0.0000 N   0  0  0  0  0  0  0  0  0  0  0  0
   -0.9542   -2.4292    0.0000 O   0  0  0  0  0  0  0  0  0  0  0  0
    0.4750    0.0458    0.0000 C   0  0  0  0  0  0  0  0  0  0  0  0
   -0.9542    0.0458    0.0000 C   0  0  0  0  0  0  0  0  0  0  0  0
    0.4750   -0.7792    0.0000 C   0  0  0  0  0  0  0  0  0  0  0  0
   -0.9542   -0.7792    0.0000 C   0  0  0  0  0  0  0  0  0  0  0  0
    0.4750   -2.4292    0.0000 N   0  0  0  0  0  0  0  0  0  0  0  0
    0.4750    2.5208    0.0000 C   0  0  0  0  0  0  0  0  0  0  0  0
    0.4750   -3.2542    0.0000 C   0  0  0  0  0  0  0  0  0  0  0  0
    1.1875   -3.6667    0.0000 C   0  0  0  0  0  0  0  0  0  0  0  0
  2  8  1  0  0  0  0
  3  1  1  0  0  0  0
  4 16  1  0  0  0  0
  5  4  3  0  0  0  0
  6  1  2  0  0  0  0
  7  1  2  0  0  0  0
  8 14  2  0  0  0  0
  9  1  1  0  0  0  0
 10  2  2  0  0  0  0
 11  3  1  0  0  0  0
 12  3  2  0  0  0  0
 13 11  2  0  0  0  0
 13  8  1  0  0  0  0
 14 12  1  0  0  0  0
 15  2  1  0  0  0  0
 16  9  1  0  0  0  0
 17 15  1  0  0  0  0
 18 17  1  0  0  0  0
M  END
> <CdId>
3485

> <Mol Weight>
266.316

> <Formula>
C12H14N2O3S

> <Click_ID>
CLK045E11 __ __ 

$$$$
