CLK046C11
 OpenBabel03181419432D

 14 14  0  0  0  0  0  0  0  0999 V2000
    0.0000   -0.3500    0.0000 C   0  0  0  0  0  0  0  0  0  0  0  0
   -0.7167    0.0625    0.0000 C   0  0  0  0  0  0  0  0  0  0  0  0
   -1.4292    2.1250    0.0000 C   0  0  0  0  0  0  0  0  0  0  0  0
   -1.4292    2.9500    0.0000 C   0  0  0  0  0  0  0  0  0  0  0  0
    0.0000   -1.1750    0.0000 C   0  0  0  0  0  0  0  0  0  0  0  0
    0.7125    0.0625    0.0000 C   0  0  0  0  0  0  0  0  0  0  0  0
   -1.4292   -0.3500    0.0000 O   0  0  0  0  0  0  0  0  0  0  0  0
    1.4250   -0.3500    0.0000 C   0  0  0  0  0  0  0  0  0  0  0  0
    0.7125   -1.5875    0.0000 C   0  0  0  0  0  0  0  0  0  0  0  0
   -0.7167    0.8875    0.0000 N   0  0  0  0  0  0  0  0  0  0  0  0
    1.4250   -1.1750    0.0000 C   0  0  0  0  0  0  0  0  0  0  0  0
   -1.4292    1.3000    0.0000 C   0  0  0  0  0  0  0  0  0  0  0  0
    2.1417    0.0625    0.0000 C   0  0  0  0  0  0  0  0  0  0  0  0
    0.7125   -2.4125    0.0000 C   0  0  0  0  0  0  0  0  0  0  0  0
  2  1  1  0  0  0  0
  3 12  1  0  0  0  0
  4  3  3  0  0  0  0
  5  1  1  0  0  0  0
  6  1  2  0  0  0  0
  7  2  2  0  0  0  0
  8  6  1  0  0  0  0
  8 11  2  0  0  0  0
  9  5  2  0  0  0  0
 10  2  1  0  0  0  0
 11  9  1  0  0  0  0
 12 10  1  0  0  0  0
 13  8  1  0  0  0  0
 14  9  1  0  0  0  0
M  END
> <CdId>
3563

> <Mol Weight>
187.2377

> <Formula>
C12H13NO

> <Click_ID>
CLK046C11 __ __ 

$$$$
