CLK012_A05
 OpenBabel03181419432D

 23 24  0  0  0  0  0  0  0  0999 V2000
    1.5658   -0.8162    0.0000 N    0  0  0  0  0  0  0  0  0  0  0  0
    1.8239   -1.6033    0.0000 C    0  0  0  0  0  0  0  0  0  0  0  0
    2.2362   -0.3290    0.0000 C    0  0  0  0  0  0  0  0  0  0  0  0
    2.9025   -0.8162    0.0000 C    0  0  0  0  0  0  0  0  0  0  0  0
    2.6485   -1.6033    0.0000 S    0  0  0  0  0  0  0  0  0  0  0  0
    3.6895   -0.5622    0.0000 C    0  0  0  0  0  0  0  0  0  0  0  0
    4.2017    1.8697    0.0000 C    0  0  0  0  0  0  0  0  0  0  0  0
    0.6121    0.2457    0.0000 C    0  0  0  0  0  0  0  0  0  0  0  0
    3.4230    1.6116    0.0000 C    0  0  0  0  0  0  0  0  0  0  0  0
    0.3915    1.0452    0.0000 C    0  0  0  0  0  0  0  0  0  0  0  0
    1.3367   -2.2654    0.0000 O    0  0  0  0  0  0  0  0  0  0  0  0
    2.2279    0.4955    0.0000 O    0  0  0  0  0  0  0  0  0  0  0  0
    3.8520    0.2457    0.0000 C    0  0  0  0  0  0  0  0  0  0  0  0
    4.3766    2.6734    0.0000 O    0  0  0  0  0  0  0  0  0  0  0  0
    0.7870   -0.5622    0.0000 C    0  0  0  0  0  0  0  0  0  0  0  0
    3.2398    0.7953    0.0000 C    0  0  0  0  0  0  0  0  0  0  0  0
    4.8222    1.3117    0.0000 C    0  0  0  0  0  0  0  0  0  0  0  0
    2.8109    2.1695    0.0000 Br   0  0  0  0  0  0  0  0  0  0  0  0
    4.6515    0.5080    0.0000 C    0  0  0  0  0  0  0  0  0  0  0  0
    5.1637    2.9316    0.0000 C    0  0  3  0  0  0  0  0  0  0  0  0
    5.3344    3.7353    0.0000 C    0  0  0  0  0  0  0  0  0  0  0  0
    5.7758    2.3819    0.0000 C    0  0  0  0  0  0  0  0  0  0  0  0
    4.7264    4.2892    0.0000 C    0  0  0  0  0  0  0  0  0  0  0  0
  2  1  1  0  0  0  0
  3  1  1  0  0  0  0
  4  3  1  0  0  0  0
  5  2  1  0  0  0  0
  5  4  1  0  0  0  0
  6  4  2  0  0  0  0
  7 17  1  0  0  0  0
  8 15  1  0  0  0  0
  9 16  1  0  0  0  0
  9  7  2  0  0  0  0
 10  8  3  0  0  0  0
 11  2  2  0  0  0  0
 12  3  2  0  0  0  0
 13  6  1  0  0  0  0
 14  7  1  0  0  0  0
 15  1  1  0  0  0  0
 16 13  2  0  0  0  0
 17 19  2  0  0  0  0
 18  9  1  0  0  0  0
 19 13  1  0  0  0  0
 20 14  1  0  0  0  0
 21 20  1  0  0  0  0
 22 20  1  0  0  0  0
 23 21  1  0  0  0  0
M  END
> <CdId>
840

> <Mol Weight>
394.283

> <Formula>
C17H16BrNO3S

> <Click_ID>
CLK012_A05 __ __ 

$$$$
