CLK043E03
 OpenBabel03181419432D

 27 29  0  0  0  0  0  0  0  0999 V2000
    0.1250    1.0208    0.0000 N   0  0  0  0  0  0  0  0  0  0  0  0
    0.1250    1.8458    0.0000 C   0  0  0  0  0  0  0  0  0  0  0  0
   -0.5917    0.6083    0.0000 C   0  0  0  0  0  0  0  0  0  0  0  0
   -0.5917    2.2583    0.0000 N   0  0  0  0  0  0  0  0  0  0  0  0
   -1.3042    1.0208    0.0000 C   0  0  0  0  0  0  0  0  0  0  0  0
    0.8375    2.2583    0.0000 C   0  0  0  0  0  0  0  0  0  0  0  0
   -1.3042    1.8458    0.0000 C   0  0  0  0  0  0  0  0  0  0  0  0
    0.8375   -3.5167    0.0000 C   0  0  0  0  0  0  0  0  0  0  0  0
   -0.5917   -0.2167    0.0000 S   0  0  0  0  0  0  0  0  0  0  0  0
    0.8375   -4.3417    0.0000 C   0  0  0  0  0  0  0  0  0  0  0  0
    0.1250   -1.4542    0.0000 C   0  0  0  0  0  0  0  0  0  0  0  0
    0.9250    3.0792    0.0000 O   0  0  0  0  0  0  0  0  0  0  0  0
    0.8375   -1.8667    0.0000 N   0  0  0  0  0  0  0  0  0  0  0  0
    0.8375   -2.6917    0.0000 C   0  0  0  0  0  0  0  0  0  0  0  0
    1.5917    1.9250    0.0000 C   0  0  0  0  0  0  0  0  0  0  0  0
    1.7292    3.2500    0.0000 C   0  0  0  0  0  0  0  0  0  0  0  0
    2.1417    2.5375    0.0000 C   0  0  0  0  0  0  0  0  0  0  0  0
   -0.5917   -1.8667    0.0000 O   0  0  0  0  0  0  0  0  0  0  0  0
    0.1250   -0.6292    0.0000 C   0  0  0  0  0  0  0  0  0  0  0  0
   -2.0208    0.6083    0.0000 C   0  0  0  0  0  0  0  0  0  0  0  0
   -2.0208    2.2583    0.0000 C   0  0  0  0  0  0  0  0  0  0  0  0
    1.6625   -2.6917    0.0000 C   0  0  0  0  0  0  0  0  0  0  0  0
    0.0125   -2.6917    0.0000 C   0  0  0  0  0  0  0  0  0  0  0  0
   -2.7333    1.0208    0.0000 C   0  0  0  0  0  0  0  0  0  0  0  0
   -0.4000   -1.9750    0.0000 C   0  0  0  0  0  0  0  0  0  0  0  0
    2.0750   -3.4042    0.0000 C   0  0  0  0  0  0  0  0  0  0  0  0
   -2.7333    1.8458    0.0000 C   0  0  0  0  0  0  0  0  0  0  0  0
  2  1  2  0  0  0  0
  3  1  1  0  0  0  0
  4  2  1  0  0  0  0
  5  3  2  0  0  0  0
  5  7  1  0  0  0  0
  6  2  1  0  0  0  0
  7  4  2  0  0  0  0
  8 14  1  0  0  0  0
  9  3  1  0  0  0  0
 10  8  3  0  0  0  0
 11 19  1  0  0  0  0
 12  6  1  0  0  0  0
 13 11  1  0  0  0  0
 14 13  1  0  0  0  0
 15  6  2  0  0  0  0
 16 12  1  0  0  0  0
 16 17  2  0  0  0  0
 17 15  1  0  0  0  0
 18 11  2  0  0  0  0
 19  9  1  0  0  0  0
 20  5  1  0  0  0  0
 21  7  1  0  0  0  0
 22 14  1  0  0  0  0
 23 14  1  0  0  0  0
 24 20  2  0  0  0  0
 24 27  1  0  0  0  0
 25 23  1  0  0  0  0
 26 22  1  0  0  0  0
 27 21  2  0  0  0  0
M  END
> <CdId>
3261

> <Mol Weight>
379.475

> <Formula>
C21H21N3O2S

> <Click_ID>
CLK043E03 __ __ 

$$$$
