CLK043B03
 OpenBabel03181419432D

 27 30  0  0  0  0  0  0  0  0999 V2000
   -0.1250   -0.8833    0.0000 N   0  0  0  0  0  0  0  0  0  0  0  0
   -0.1250   -0.0583    0.0000 C   0  0  3  0  0  0  0  0  0  0  0  0
   -0.8417   -1.2958    0.0000 C   0  0  0  0  0  0  0  0  0  0  0  0
   -0.8417    0.3542    0.0000 N   0  0  0  0  0  0  0  0  0  0  0  0
   -1.5542   -0.8833    0.0000 C   0  0  0  0  0  0  0  0  0  0  0  0
    0.5875    0.3542    0.0000 C   0  0  0  0  0  0  0  0  0  0  0  0
   -1.5542   -0.0583    0.0000 C   0  0  0  0  0  0  0  0  0  0  0  0
    0.5875   -1.2958    0.0000 C   0  0  0  0  0  0  0  0  0  0  0  0
   -0.8417    2.8292    0.0000 C   0  0  0  0  0  0  0  0  0  0  0  0
   -1.5542    3.2417    0.0000 C   0  0  0  0  0  0  0  0  0  0  0  0
   -0.8417   -2.1208    0.0000 O   0  0  0  0  0  0  0  0  0  0  0  0
    0.5875    1.1792    0.0000 C   0  0  0  0  0  0  0  0  0  0  0  0
    1.9000   -0.6292    0.0000 O   0  0  0  0  0  0  0  0  0  0  0  0
    1.4125   -1.2958    0.0000 C   0  0  3  0  0  0  0  0  0  0  0  0
   -2.2708   -1.2958    0.0000 C   0  0  0  0  0  0  0  0  0  0  0  0
    1.3042   -0.0583    0.0000 C   0  0  0  0  0  0  0  0  0  0  0  0
   -0.1250    1.5917    0.0000 O   0  0  0  0  0  0  0  0  0  0  0  0
   -0.1250    2.4167    0.0000 C   0  0  0  0  0  0  0  0  0  0  0  0
   -2.2708    0.3542    0.0000 C   0  0  0  0  0  0  0  0  0  0  0  0
    2.6833   -0.8833    0.0000 C   0  0  0  0  0  0  0  0  0  0  0  0
    1.3042    1.5917    0.0000 C   0  0  0  0  0  0  0  0  0  0  0  0
    1.9000   -1.9625    0.0000 C   0  0  0  0  0  0  0  0  0  0  0  0
   -2.9833   -0.8833    0.0000 C   0  0  0  0  0  0  0  0  0  0  0  0
    2.0167    0.3542    0.0000 C   0  0  0  0  0  0  0  0  0  0  0  0
   -2.9833   -0.0583    0.0000 C   0  0  0  0  0  0  0  0  0  0  0  0
    2.6833   -1.7083    0.0000 C   0  0  0  0  0  0  0  0  0  0  0  0
    2.0167    1.1792    0.0000 C   0  0  0  0  0  0  0  0  0  0  0  0
  2  1  1  0  0  0  0
  3  1  1  0  0  0  0
  4  2  1  0  0  0  0
  5  3  1  0  0  0  0
  5  7  2  0  0  0  0
  6  2  1  0  0  0  0
  7  4  1  0  0  0  0
  8  1  1  0  0  0  0
  9 18  1  0  0  0  0
 10  9  3  0  0  0  0
 11  3  2  0  0  0  0
 12  6  2  0  0  0  0
 13 14  1  0  0  0  0
 14  8  1  0  0  0  0
 15  5  1  0  0  0  0
 16  6  1  0  0  0  0
 17 12  1  0  0  0  0
 18 17  1  0  0  0  0
 19  7  1  0  0  0  0
 20 13  1  0  0  0  0
 20 26  1  0  0  0  0
 21 12  1  0  0  0  0
 22 14  1  0  0  0  0
 23 15  2  0  0  0  0
 23 25  1  0  0  0  0
 24 16  2  0  0  0  0
 25 19  2  0  0  0  0
 26 22  1  0  0  0  0
 27 21  2  0  0  0  0
 27 24  1  0  0  0  0
M  END
> <CdId>
3258

> <Mol Weight>
362.4217

> <Formula>
C22H22N2O3

> <Click_ID>
CLK043B03 __ __ 

$$$$
