CLK034_F09
 OpenBabel03181419432D

 37 40  0  0  0  0  0  0  0  0999 V2000
   -4.5934    2.5569    0.0000 C   0  0  0  0  0  0  0  0  0  0  0  0
   -0.9995    5.4513    0.0000 S   0  0  0  0  0  0  0  0  0  0  0  0
   -3.8604    2.9817    0.0000 N   0  0  0  0  0  0  0  0  0  0  0  0
   -4.6808    1.7324    0.0000 N   0  0  0  0  0  0  0  0  0  0  0  0
   -5.3180    2.8943    0.0000 S   0  0  0  0  0  0  0  0  0  0  0  0
   -5.4846    1.5825    0.0000 C   0  0  0  0  0  0  0  0  0  0  0  0
   -0.2831    5.8636    0.0000 N   0  0  0  0  0  0  0  0  0  0  0  0
   -5.8927    2.2988    0.0000 C   0  0  0  0  0  0  0  0  0  0  0  0
   -3.8687    3.7980    0.0000 C   0  0  0  0  0  0  0  0  0  0  0  0
    1.1494    6.6881    0.0000 N   0  0  0  0  0  0  0  0  0  0  0  0
    1.8657    7.1004    0.0000 C   0  0  0  0  0  0  0  0  0  0  0  0
   -1.7199    5.0390    0.0000 C   0  0  0  0  0  0  0  0  0  0  0  0
   -4.2560    0.3581    0.0000 C   0  0  0  0  0  0  0  0  0  0  0  0
   -0.5872    4.7267    0.0000 O   0  0  0  0  0  0  0  0  0  0  0  0
   -1.4117    6.1634    0.0000 O   0  0  0  0  0  0  0  0  0  0  0  0
    0.4290    5.4513    0.0000 C   0  0  0  0  0  0  0  0  0  0  0  0
   -0.2831    6.6881    0.0000 C   0  0  0  0  0  0  0  0  0  0  0  0
   -4.4434   -0.4540    0.0000 C   0  0  0  0  0  0  0  0  0  0  0  0
   -3.1566    4.2103    0.0000 C   0  0  0  0  0  0  0  0  0  0  0  0
    1.1494    5.8636    0.0000 C   0  0  0  0  0  0  0  0  0  0  0  0
    0.4290    7.1004    0.0000 C   0  0  0  0  0  0  0  0  0  0  0  0
   -5.9176    0.8828    0.0000 C   0  0  0  0  0  0  0  0  0  0  0  0
    2.5778    6.6881    0.0000 O   0  0  0  0  0  0  0  0  0  0  0  0
   -4.5809    4.2145    0.0000 O   0  0  0  0  0  0  0  0  0  0  0  0
   -4.0686    1.1619    0.0000 C   0  0  0  0  0  0  0  0  0  0  0  0
   -2.4320    5.4471    0.0000 C   0  0  0  0  0  0  0  0  0  0  0  0
   -1.7199    4.2103    0.0000 C   0  0  0  0  0  0  0  0  0  0  0  0
   -2.4320    3.8063    0.0000 C   0  0  0  0  0  0  0  0  0  0  0  0
   -3.1483    5.0265    0.0000 C   0  0  0  0  0  0  0  0  0  0  0  0
    1.8657    7.9250    0.0000 O   0  0  0  0  0  0  0  0  0  0  0  0
   -6.7006    2.3196    0.0000 C   0  0  0  0  0  0  0  0  0  0  0  0
   -5.5179    0.1457    0.0000 O   0  0  0  0  0  0  0  0  0  0  0  0
   -7.1379    1.6199    0.0000 C   0  0  0  0  0  0  0  0  0  0  0  0
   -6.7256    0.8870    0.0000 C   0  0  0  0  0  0  0  0  0  0  0  0
    1.1536    8.3373    0.0000 C   0  0  0  0  0  0  0  0  0  0  0  0
   -5.9551   -0.5539    0.0000 C   0  0  0  0  0  0  0  0  0  0  0  0
    1.1494    9.1701    0.0000 C   0  0  0  0  0  0  0  0  0  0  0  0
  2 12  1  0  0  0  0
  3  1  2  0  0  0  0
  4  1  1  0  0  0  0
  5  1  1  0  0  0  0
  6  4  1  0  0  0  0
  7  2  1  0  0  0  0
  8  5  1  0  0  0  0
  8  6  2  0  0  0  0
  9  3  1  0  0  0  0
 10 21  1  0  0  0  0
 11 10  1  0  0  0  0
 12 26  1  0  0  0  0
 12 27  2  0  0  0  0
 13 25  1  0  0  0  0
 14  2  2  0  0  0  0
 15  2  2  0  0  0  0
 16  7  1  0  0  0  0
 17  7  1  0  0  0  0
 18 13  3  0  0  0  0
 19  9  1  0  0  0  0
 20 16  1  0  0  0  0
 20 10  1  0  0  0  0
 21 17  1  0  0  0  0
 22  6  1  0  0  0  0
 23 11  2  0  0  0  0
 24  9  2  0  0  0  0
 25  4  1  0  0  0  0
 26 29  2  0  0  0  0
 27 28  1  0  0  0  0
 28 19  2  0  0  0  0
 29 19  1  0  0  0  0
 30 11  1  0  0  0  0
 31  8  1  0  0  0  0
 32 22  1  0  0  0  0
 33 31  2  0  0  0  0
 34 22  2  0  0  0  0
 34 33  1  0  0  0  0
 35 30  1  0  0  0  0
 36 32  1  0  0  0  0
 37 35  1  0  0  0  0
M  END
> <CdId>
2623

> <Mol Weight>
542.627

> <Formula>
C25H26N4O6S2

> <Click_ID>
CLK034_F09 __ __ 

$$$$
