CLK027_C08
 OpenBabel03181419432D

 18 18  0  0  0  0  0  0  0  0999 V2000
    0.7253   -0.4022    0.0000 C   0  0  0  0  0  0  0  0  0  0  0  0
   -1.4093    1.6534    0.0000 C   0  0  0  0  0  0  0  0  0  0  0  0
    0.7253    0.4159    0.0000 C   0  0  0  0  0  0  0  0  0  0  0  0
    0.0138   -0.8078    0.0000 C   0  0  0  0  0  0  0  0  0  0  0  0
   -2.8529    2.4851    0.0000 N   0  0  0  0  0  0  0  0  0  0  0  0
    0.0309    2.4783    0.0000 N   0  0  0  0  0  0  0  0  0  0  0  0
   -0.6977    0.4159    0.0000 C   0  0  0  0  0  0  0  0  0  0  0  0
   -2.1345    2.0692    0.0000 C   0  0  0  0  0  0  0  0  0  0  0  0
   -0.6874    2.0658    0.0000 C   0  0  0  0  0  0  0  0  0  0  0  0
   -1.4162    0.8215    0.0000 C   0  0  0  0  0  0  0  0  0  0  0  0
    2.1345   -2.0658    0.0000 C   0  0  0  0  0  0  0  0  0  0  0  0
    2.8495   -2.4817    0.0000 C   0  0  0  0  0  0  0  0  0  0  0  0
    0.0206    0.8318    0.0000 C   0  0  0  0  0  0  0  0  0  0  0  0
   -0.6977   -0.3918    0.0000 C   0  0  0  0  0  0  0  0  0  0  0  0
    0.0138   -1.6327    0.0000 I   0  0  0  0  0  0  0  0  0  0  0  0
    1.4505    0.8181    0.0000 I   0  0  0  0  0  0  0  0  0  0  0  0
    1.4299   -0.8181    0.0000 O   0  0  0  0  0  0  0  0  0  0  0  0
    1.4265   -1.6499    0.0000 C   0  0  0  0  0  0  0  0  0  0  0  0
  2 10  2  0  0  0  0
  3  1  2  0  0  0  0
  4  1  1  0  0  0  0
  5  8  3  0  0  0  0
  6  9  3  0  0  0  0
  7 14  1  0  0  0  0
  7 13  2  0  0  0  0
  8  2  1  0  0  0  0
  9  2  1  0  0  0  0
 10  7  1  0  0  0  0
 11 18  1  0  0  0  0
 12 11  3  0  0  0  0
 13  3  1  0  0  0  0
 14  4  2  0  0  0  0
 15  4  1  0  0  0  0
 16  3  1  0  0  0  0
 17  1  1  0  0  0  0
 18 17  1  0  0  0  0
M  END
> <CdId>
2041

> <Mol Weight>
460.0085

> <Formula>
C13H6I2N2O

> <Click_ID>
CLK027_C08 __ __ 

$$$$
