CLK038E04
 OpenBabel03181419432D

 22 24  0  0  0  0  0  0  0  0999 V2000
    0.1583    0.6667    0.0000 C    0  0  0  0  0  0  0  0  0  0  0  0
   -0.3292    1.3333    0.0000 C    0  0  0  0  0  0  0  0  0  0  0  0
    0.1583    2.0042    0.0000 N    0  0  0  0  0  0  0  0  0  0  0  0
   -0.0958   -0.1167    0.0000 C    0  0  0  0  0  0  0  0  0  0  0  0
    0.9417    0.9208    0.0000 C    0  0  0  0  0  0  0  0  0  0  0  0
    0.9417    1.7458    0.0000 C    0  0  0  0  0  0  0  0  0  0  0  0
   -0.9042   -0.2875    0.0000 C    0  0  0  0  0  0  0  0  0  0  0  0
   -0.3083   -3.0833    0.0000 C    0  0  0  0  0  0  0  0  0  0  0  0
    0.2417   -3.6958    0.0000 C    0  0  0  0  0  0  0  0  0  0  0  0
    1.6583    0.5083    0.0000 C    0  0  0  0  0  0  0  0  0  0  0  0
   -1.1542    1.3333    0.0000 O    0  0  0  0  0  0  0  0  0  0  0  0
    1.6583    2.1583    0.0000 C    0  0  0  0  0  0  0  0  0  0  0  0
   -1.1583   -1.0750    0.0000 C    0  0  0  0  0  0  0  0  0  0  0  0
    2.3708    0.9208    0.0000 C    0  0  0  0  0  0  0  0  0  0  0  0
    2.3708    1.7458    0.0000 C    0  0  0  0  0  0  0  0  0  0  0  0
    3.0875    0.5083    0.0000 Cl   0  0  0  0  0  0  0  0  0  0  0  0
   -0.6083   -1.6875    0.0000 O    0  0  0  0  0  0  0  0  0  0  0  0
   -0.8625   -2.4708    0.0000 C    0  0  0  0  0  0  0  0  0  0  0  0
   -1.4583    0.3250    0.0000 C    0  0  0  0  0  0  0  0  0  0  0  0
   -1.9667   -1.2458    0.0000 C    0  0  0  0  0  0  0  0  0  0  0  0
   -2.2625    0.1542    0.0000 C    0  0  0  0  0  0  0  0  0  0  0  0
   -2.5167   -0.6333    0.0000 C    0  0  0  0  0  0  0  0  0  0  0  0
  2  1  1  0  0  0  0
  3  2  1  0  0  0  0
  3  6  1  0  0  0  0
  4  1  2  0  0  0  0
  5  1  1  0  0  0  0
  6  5  2  0  0  0  0
  7  4  1  0  0  0  0
  8 18  1  0  0  0  0
  9  8  3  0  0  0  0
 10  5  1  0  0  0  0
 11  2  2  0  0  0  0
 12  6  1  0  0  0  0
 12 15  2  0  0  0  0
 13  7  2  0  0  0  0
 14 10  2  0  0  0  0
 15 14  1  0  0  0  0
 16 14  1  0  0  0  0
 17 13  1  0  0  0  0
 18 17  1  0  0  0  0
 19  7  1  0  0  0  0
 20 13  1  0  0  0  0
 21 19  2  0  0  0  0
 22 20  2  0  0  0  0
 22 21  1  0  0  0  0
M  END
> <CdId>
2869

> <Mol Weight>
309.746

> <Formula>
C18H12ClNO2

> <Click_ID>
CLK038E04 __ __ 

$$$$
