CLK015_D03
 OpenBabel03181419432D

 23 24  0  0  0  0  0  0  0  0999 V2000
    8.5537   -6.2738    0.0000 C   0  0  0  0  0  0  0  0  0  0  0  0
    3.6988   -5.0368    0.0000 C   0  0  0  0  0  0  0  0  0  0  0  0
    2.9995   -4.6245    0.0000 C   0  0  0  0  0  0  0  0  0  0  0  0
    9.2530   -6.6699    0.0000 C   0  0  0  0  0  0  0  0  0  0  0  0
    5.7645   -6.2738    0.0000 C   0  0  0  0  0  0  0  0  0  0  0  0
    7.8624   -6.6699    0.0000 C   0  0  0  0  0  0  0  0  0  0  0  0
    5.7846   -5.4491    0.0000 C   0  0  0  0  0  0  0  0  0  0  0  0
    6.4678   -6.6861    0.0000 C   0  0  0  0  0  0  0  0  0  0  0  0
    9.9806   -6.2495    0.0000 O   0  0  0  0  0  0  0  0  0  0  0  0
    9.2571   -7.5067    0.0000 C   0  0  0  0  0  0  0  0  0  0  0  0
    7.1712   -6.2617    0.0000 C   0  0  0  0  0  0  0  0  0  0  0  0
    6.4921   -5.0247    0.0000 C   0  0  0  0  0  0  0  0  0  0  0  0
    7.1955   -5.4370    0.0000 C   0  0  0  0  0  0  0  0  0  0  0  0
    5.0490   -6.6942    0.0000 O   0  0  0  0  0  0  0  0  0  0  0  0
    5.0934   -5.0328    0.0000 O   0  0  0  0  0  0  0  0  0  0  0  0
    4.3820   -5.4451    0.0000 C   0  0  0  0  0  0  0  0  0  0  0  0
    9.9847   -7.9231    0.0000 C   0  0  0  0  0  0  0  0  0  0  0  0
    8.5294   -7.9311    0.0000 C   0  0  0  0  0  0  0  0  0  0  0  0
    5.0368   -7.5108    0.0000 C   0  0  0  0  0  0  0  0  0  0  0  0
    4.3213   -7.9352    0.0000 C   0  0  0  0  0  0  0  0  0  0  0  0
    9.9847   -8.7679    0.0000 C   0  0  0  0  0  0  0  0  0  0  0  0
    8.5375   -8.7598    0.0000 C   0  0  0  0  0  0  0  0  0  0  0  0
    9.2571   -9.1843    0.0000 C   0  0  0  0  0  0  0  0  0  0  0  0
  2 16  1  0  0  0  0
  3  2  3  0  0  0  0
  4  1  1  0  0  0  0
  5  8  1  0  0  0  0
  5  7  2  0  0  0  0
  6  1  2  0  0  0  0
  7 12  1  0  0  0  0
  8 11  2  0  0  0  0
  9  4  2  0  0  0  0
 10  4  1  0  0  0  0
 11  6  1  0  0  0  0
 12 13  2  0  0  0  0
 13 11  1  0  0  0  0
 14  5  1  0  0  0  0
 15  7  1  0  0  0  0
 16 15  1  0  0  0  0
 17 10  1  0  0  0  0
 18 10  2  0  0  0  0
 19 14  1  0  0  0  0
 20 19  1  0  0  0  0
 21 17  2  0  0  0  0
 22 18  1  0  0  0  0
 23 22  2  0  0  0  0
 23 21  1  0  0  0  0
M  END
> <CdId>
1108

> <Mol Weight>
306.3551

> <Formula>
C20H18O3

> <Click_ID>
CLK015_D03 __ __ 

$$$$
