CLK001_A06
 OpenBabel03181419432D

 30 32  0  0  0  0  0  0  0  0999 V2000
    0.5074    1.1114    0.0000 C   0  0  0  0  0  0  0  0  0  0  0  0
    0.2520    0.3210    0.0000 S   0  0  0  0  0  0  0  0  0  0  0  0
    0.0310    1.7742    0.0000 C   0  0  0  0  0  0  0  0  0  0  0  0
    1.3323    1.1011    0.0000 C   0  0  0  0  0  0  0  0  0  0  0  0
    0.9181   -0.1657    0.0000 C   0  0  0  0  0  0  0  0  0  0  0  0
   -0.7939    1.6983    0.0000 C   0  0  0  0  0  0  0  0  0  0  0  0
    1.5913    0.3141    0.0000 N   0  0  0  0  0  0  0  0  0  0  0  0
    1.8295    1.7673    0.0000 O   0  0  0  0  0  0  0  0  0  0  0  0
    0.9147   -0.9907    0.0000 N   0  0  0  0  0  0  0  0  0  0  0  0
   -1.1391    0.9493    0.0000 C   0  0  0  0  0  0  0  0  0  0  0  0
   -1.2703    2.3610    0.0000 C   0  0  0  0  0  0  0  0  0  0  0  0
    2.3714    0.0587    0.0000 C   0  0  0  0  0  0  0  0  0  0  0  0
    1.6293   -1.4117    0.0000 C   0  0  0  0  0  0  0  0  0  0  0  0
   -1.9606    0.8664    0.0000 C   0  0  0  0  0  0  0  0  0  0  0  0
   -2.0883    2.2885    0.0000 C   0  0  0  0  0  0  0  0  0  0  0  0
    1.6188   -2.2368    0.0000 C   0  0  0  0  0  0  0  0  0  0  0  0
    2.3403   -1.0010    0.0000 C   0  0  0  0  0  0  0  0  0  0  0  0
   -2.4335    1.5361    0.0000 C   0  0  0  0  0  0  0  0  0  0  0  0
   -2.2954    0.1208    0.0000 O   0  0  0  0  0  0  0  0  0  0  0  0
    2.3300   -2.6544    0.0000 C   0  0  0  0  0  0  0  0  0  0  0  0
    3.0548   -1.4152    0.0000 C   0  0  0  0  0  0  0  0  0  0  0  0
   -3.2516    1.4601    0.0000 O   0  0  0  0  0  0  0  0  0  0  0  0
   -1.8225   -0.5419    0.0000 C   0  0  0  0  0  0  0  0  0  0  0  0
    3.0445   -2.2437    0.0000 C   0  0  0  0  0  0  0  0  0  0  0  0
    2.3195   -3.4828    0.0000 C   0  0  0  0  0  0  0  0  0  0  0  0
   -3.7348    2.1367    0.0000 C   0  0  0  0  0  0  0  0  0  0  0  0
    1.6016   -3.8832    0.0000 O   0  0  0  0  0  0  0  0  0  0  0  0
    3.0341   -3.8936    0.0000 O   0  0  0  0  0  0  0  0  0  0  0  0
   -4.5494    2.0607    0.0000 C   0  0  0  0  0  0  0  0  0  0  0  0
   -5.3744    1.9882    0.0000 C   0  0  0  0  0  0  0  0  0  0  0  0
  1  2  1  0  0  0  0
  1  3  2  0  0  0  0
  1  4  1  0  0  0  0
  2  5  1  0  0  0  0
  3  6  1  0  0  0  0
  4  7  1  0  0  0  0
  4  8  2  0  0  0  0
  5  9  2  0  0  0  0
  5  7  1  0  0  0  0
  6 10  2  0  0  0  0
  6 11  1  0  0  0  0
  7 12  1  0  0  0  0
  9 13  1  0  0  0  0
 10 14  1  0  0  0  0
 11 15  2  0  0  0  0
 13 16  2  0  0  0  0
 13 17  1  0  0  0  0
 14 18  2  0  0  0  0
 14 19  1  0  0  0  0
 15 18  1  0  0  0  0
 16 20  1  0  0  0  0
 17 21  2  0  0  0  0
 18 22  1  0  0  0  0
 19 23  1  0  0  0  0
 20 24  2  0  0  0  0
 20 25  1  0  0  0  0
 21 24  1  0  0  0  0
 22 26  1  0  0  0  0
 25 27  1  0  0  0  0
 25 28  2  0  0  0  0
 26 29  1  0  0  0  0
 29 30  3  0  0  0  0
M  END
> <CdId>
5

> <Mol Weight>
422.454

> <Formula>
C22H18N2O5S

> <Click_ID>
CLK001_A06 __ __ 

$$$$
