CLK019_E03
 OpenBabel03181419432D

 25 27  0  0  0  0  0  0  0  0999 V2000
    4.1430   -2.5502    0.0000 C    0  0  0  0  0  0  0  0  0  0  0  0
    4.8537   -2.9641    0.0000 C    0  0  3  0  0  0  0  0  0  0  0  0
    5.5686   -2.5502    0.0000 C    0  0  0  0  0  0  0  0  0  0  0  0
    4.1514   -1.7225    0.0000 C    0  0  0  0  0  0  0  0  0  0  0  0
    5.5728   -1.7225    0.0000 C    0  0  0  0  0  0  0  0  0  0  0  0
    4.8579   -1.3169    0.0000 O    0  0  0  0  0  0  0  0  0  0  0  0
    4.8454   -3.7919    0.0000 C    0  0  0  0  0  0  0  0  0  0  0  0
    3.4156   -2.9599    0.0000 C    0  0  0  0  0  0  0  0  0  0  0  0
    6.2835   -2.9641    0.0000 C    0  0  0  0  0  0  0  0  0  0  0  0
    2.7007   -3.3612    0.0000 N    0  0  0  0  0  0  0  0  0  0  0  0
    2.0067   -3.7793    0.0000 C    0  0  0  0  0  0  0  0  0  0  0  0
    1.2960   -3.3654    0.0000 C    0  0  0  0  0  0  0  0  0  0  0  0
    4.1305   -4.2015    0.0000 C    0  0  0  0  0  0  0  0  0  0  0  0
    5.5603   -4.2057    0.0000 C    0  0  0  0  0  0  0  0  0  0  0  0
    3.4365   -1.3086    0.0000 N    0  0  0  0  0  0  0  0  0  0  0  0
    6.2752   -3.7919    0.0000 O    0  0  0  0  0  0  0  0  0  0  0  0
    4.1263   -5.0210    0.0000 C    0  0  0  0  0  0  0  0  0  0  0  0
    5.5561   -5.0335    0.0000 C    0  0  0  0  0  0  0  0  0  0  0  0
    6.2835   -1.3169    0.0000 C    0  0  0  0  0  0  0  0  0  0  0  0
    4.8412   -5.4432    0.0000 C    0  0  0  0  0  0  0  0  0  0  0  0
    6.2626   -5.4474    0.0000 Br   0  0  0  0  0  0  0  0  0  0  0  0
    3.4239   -3.7876    0.0000 O    0  0  0  0  0  0  0  0  0  0  0  0
    2.7133   -4.1932    0.0000 C    0  0  0  0  0  0  0  0  0  0  0  0
    6.9984   -2.5585    0.0000 C    0  0  0  0  0  0  0  0  0  0  0  0
    6.9984   -1.7225    0.0000 C    0  0  0  0  0  0  0  0  0  0  0  0
  2  1  1  0  0  0  0
  3  2  1  0  0  0  0
  3  5  2  0  0  0  0
  4  1  2  0  0  0  0
  5  6  1  0  0  0  0
  6  4  1  0  0  0  0
  7  2  1  0  0  0  0
  8  1  1  0  0  0  0
  9  3  1  0  0  0  0
 10  8  3  0  0  0  0
 11 23  1  0  0  0  0
 12 11  3  0  0  0  0
 13  7  2  0  0  0  0
 14  7  1  0  0  0  0
 15  4  1  0  0  0  0
 16  9  2  0  0  0  0
 17 13  1  0  0  0  0
 18 14  2  0  0  0  0
 19  5  1  0  0  0  0
 20 18  1  0  0  0  0
 20 17  2  0  0  0  0
 21 18  1  0  0  0  0
 22 13  1  0  0  0  0
 23 22  1  0  0  0  0
 24  9  1  0  0  0  0
 25 19  1  0  0  0  0
 25 24  1  0  0  0  0
M  END
> <CdId>
1438

> <Mol Weight>
399.238

> <Formula>
C19H15BrN2O3

> <Click_ID>
CLK019_E03 __ __ 

$$$$
