CLK005_B05
 OpenBabel03181419432D

 17 17  0  0  0  0  0  0  0  0999 V2000
   -0.5937   -0.6766    0.0000 C   0  0  0  0  0  0  0  0  0  0  0  0
    0.1277   -0.2624    0.0000 C   0  0  0  0  0  0  0  0  0  0  0  0
   -1.3047   -0.2624    0.0000 C   0  0  0  0  0  0  0  0  0  0  0  0
   -0.5937   -1.5015    0.0000 N   0  3  0  0  0  0  0  0  0  0  0  0
    0.1277    0.5626    0.0000 N   0  0  0  0  0  0  0  0  0  0  0  0
    0.8456   -0.6904    0.0000 N   0  0  0  0  0  0  0  0  0  0  0  0
   -1.3047    0.5557    0.0000 N   0  0  0  0  0  0  0  0  0  0  0  0
   -1.3047   -1.9157    0.0000 O   0  0  0  0  0  0  0  0  0  0  0  0
    0.1277   -1.9157    0.0000 O   0  5  0  0  0  0  0  0  0  0  0  0
   -0.5937    0.9768    0.0000 C   0  0  0  0  0  0  0  0  0  0  0  0
    0.8456   -1.5153    0.0000 C   0  0  0  0  0  0  0  0  0  0  0  0
   -0.5937    1.8017    0.0000 N   0  0  0  0  0  0  0  0  0  0  0  0
    1.5601   -1.9260    0.0000 C   0  0  0  0  0  0  0  0  0  0  0  0
    0.1208    2.2124    0.0000 C   0  0  0  0  0  0  0  0  0  0  0  0
    2.2815   -2.3471    0.0000 C   0  0  0  0  0  0  0  0  0  0  0  0
    0.1208    3.0408    0.0000 C   0  0  0  0  0  0  0  0  0  0  0  0
    0.1208    3.8658    0.0000 C   0  0  0  0  0  0  0  0  0  0  0  0
  1  2  2  0  0  0  0
  1  3  1  0  0  0  0
  1  4  1  0  0  0  0
  2  5  1  0  0  0  0
  2  6  1  0  0  0  0
  3  7  2  0  0  0  0
  4  8  2  0  0  0  0
  4  9  1  0  0  0  0
  5 10  2  0  0  0  0
  6 11  1  0  0  0  0
  7 10  1  0  0  0  0
 10 12  1  0  0  0  0
 11 13  1  0  0  0  0
 12 14  1  0  0  0  0
 13 15  3  0  0  0  0
 14 16  1  0  0  0  0
 16 17  3  0  0  0  0
M  END
> <CdId>
334

> <Mol Weight>
231.2108

> <Formula>
C10H9N5O2

> <Click_ID>
CLK005_B05 __ __ 

$$$$
