CLK014_C02
 OpenBabel03181419432D

 28 30  0  0  0  0  0  0  0  0999 V2000
    1.5748   -0.8209    0.0000 N    0  0  0  0  0  0  0  0  0  0  0  0
    1.8345   -1.6125    0.0000 C    0  0  0  0  0  0  0  0  0  0  0  0
    2.2491   -0.3309    0.0000 C    0  0  0  0  0  0  0  0  0  0  0  0
    2.9193   -0.8209    0.0000 C    0  0  0  0  0  0  0  0  0  0  0  0
    2.6638   -1.6125    0.0000 S    0  0  0  0  0  0  0  0  0  0  0  0
    4.2009    1.6921    0.0000 C    0  0  0  0  0  0  0  0  0  0  0  0
    3.7109   -0.5654    0.0000 C    0  0  0  0  0  0  0  0  0  0  0  0
    4.8292    1.1895    0.0000 C    0  0  0  0  0  0  0  0  0  0  0  0
    3.4345    1.5036    0.0000 C    0  0  0  0  0  0  0  0  0  0  0  0
    3.8868    0.2596    0.0000 C    0  0  0  0  0  0  0  0  0  0  0  0
    4.3894    2.5130    0.0000 O    0  0  0  0  0  0  0  0  0  0  0  0
    0.6157    0.2471    0.0000 C    0  0  0  0  0  0  0  0  0  0  0  0
    0.3937    1.0512    0.0000 C    0  0  0  0  0  0  0  0  0  0  0  0
    1.3445   -2.2785    0.0000 O    0  0  0  0  0  0  0  0  0  0  0  0
    4.6742    0.4607    0.0000 C    0  0  0  0  0  0  0  0  0  0  0  0
    2.2408    0.4984    0.0000 O    0  0  0  0  0  0  0  0  0  0  0  0
    3.2711    0.7748    0.0000 C    0  0  0  0  0  0  0  0  0  0  0  0
    0.7916   -0.5654    0.0000 C    0  0  0  0  0  0  0  0  0  0  0  0
    5.6208    1.4533    0.0000 Br   0  0  0  0  0  0  0  0  0  0  0  0
    5.1810    2.7726    0.0000 C    0  0  0  0  0  0  0  0  0  0  0  0
    2.8314    2.0732    0.0000 O    0  0  0  0  0  0  0  0  0  0  0  0
    5.3569    3.5642    0.0000 C    0  0  0  0  0  0  0  0  0  0  0  0
    3.0324    2.8857    0.0000 C    0  0  0  0  0  0  0  0  0  0  0  0
    6.1569    3.8198    0.0000 C    0  0  0  0  0  0  0  0  0  0  0  0
    4.7538    4.1255    0.0000 C    0  0  0  0  0  0  0  0  0  0  0  0
    6.3328    4.6156    0.0000 C    0  0  0  0  0  0  0  0  0  0  0  0
    4.9381    4.9297    0.0000 C    0  0  0  0  0  0  0  0  0  0  0  0
    5.7297    5.1768    0.0000 C    0  0  0  0  0  0  0  0  0  0  0  0
  2  1  1  0  0  0  0
  3  1  1  0  0  0  0
  4  3  1  0  0  0  0
  4  5  1  0  0  0  0
  5  2  1  0  0  0  0
  6  9  2  0  0  0  0
  6  8  1  0  0  0  0
  7  4  2  0  0  0  0
  8 15  2  0  0  0  0
  9 17  1  0  0  0  0
 10  7  1  0  0  0  0
 11  6  1  0  0  0  0
 12 18  1  0  0  0  0
 13 12  3  0  0  0  0
 14  2  2  0  0  0  0
 15 10  1  0  0  0  0
 16  3  2  0  0  0  0
 17 10  2  0  0  0  0
 18  1  1  0  0  0  0
 19  8  1  0  0  0  0
 20 11  1  0  0  0  0
 21  9  1  0  0  0  0
 22 20  1  0  0  0  0
 23 21  1  0  0  0  0
 24 22  2  0  0  0  0
 25 22  1  0  0  0  0
 26 24  1  0  0  0  0
 27 25  2  0  0  0  0
 28 27  1  0  0  0  0
 28 26  2  0  0  0  0
M  END
> <CdId>
1017

> <Mol Weight>
458.325

> <Formula>
C21H16BrNO4S

> <Click_ID>
CLK014_C02 __ __ 

$$$$
