CLK034_F03
 OpenBabel03181419432D

 26 28  0  0  0  0  0  0  0  0999 V2000
   -4.5776    2.5468    0.0000 C    0  0  0  0  0  0  0  0  0  0  0  0
   -3.8660    2.9671    0.0000 N    0  0  0  0  0  0  0  0  0  0  0  0
   -4.6692    1.7312    0.0000 N    0  0  0  0  0  0  0  0  0  0  0  0
   -5.3142    2.8922    0.0000 S    0  0  0  0  0  0  0  0  0  0  0  0
   -5.4765    1.5689    0.0000 C    0  0  0  0  0  0  0  0  0  0  0  0
   -5.8760    2.2930    0.0000 C    0  0  0  0  0  0  0  0  0  0  0  0
   -3.8660    3.7953    0.0000 C    0  0  0  0  0  0  0  0  0  0  0  0
   -3.1544    4.2073    0.0000 C    0  0  0  0  0  0  0  0  0  0  0  0
   -4.2405    0.3496    0.0000 C    0  0  0  0  0  0  0  0  0  0  0  0
   -4.4153   -0.4536    0.0000 C    0  0  0  0  0  0  0  0  0  0  0  0
   -3.1461    5.0355    0.0000 C    0  0  0  0  0  0  0  0  0  0  0  0
   -2.4303    5.4474    0.0000 C    0  0  0  0  0  0  0  0  0  0  0  0
   -5.9010    0.8697    0.0000 C    0  0  0  0  0  0  0  0  0  0  0  0
   -4.5901    4.2073    0.0000 O    0  0  0  0  0  0  0  0  0  0  0  0
   -1.7104    5.0230    0.0000 C    0  0  0  0  0  0  0  0  0  0  0  0
   -4.0533    1.1569    0.0000 C    0  0  0  0  0  0  0  0  0  0  0  0
   -2.4345    3.8036    0.0000 C    0  0  0  0  0  0  0  0  0  0  0  0
   -1.7187    4.2073    0.0000 C    0  0  0  0  0  0  0  0  0  0  0  0
   -5.5015    0.1456    0.0000 Cl   0  0  0  0  0  0  0  0  0  0  0  0
   -2.4303    6.2714    0.0000 O    0  0  0  0  0  0  0  0  0  0  0  0
   -6.6959    2.3054    0.0000 C    0  0  0  0  0  0  0  0  0  0  0  0
   -0.9946    5.4433    0.0000 O    0  0  0  0  0  0  0  0  0  0  0  0
   -7.1204    1.5980    0.0000 C    0  0  0  0  0  0  0  0  0  0  0  0
   -6.7084    0.8739    0.0000 C    0  0  0  0  0  0  0  0  0  0  0  0
   -3.1419    6.6834    0.0000 C    0  0  0  0  0  0  0  0  0  0  0  0
   -0.2829    5.0230    0.0000 C    0  0  0  0  0  0  0  0  0  0  0  0
  2  1  2  0  0  0  0
  3  1  1  0  0  0  0
  4  1  1  0  0  0  0
  5  3  1  0  0  0  0
  6  4  1  0  0  0  0
  6  5  2  0  0  0  0
  7  2  1  0  0  0  0
  8  7  1  0  0  0  0
  9 16  1  0  0  0  0
 10  9  3  0  0  0  0
 11  8  1  0  0  0  0
 12 11  2  0  0  0  0
 12 15  1  0  0  0  0
 13  5  1  0  0  0  0
 14  7  2  0  0  0  0
 15 18  2  0  0  0  0
 16  3  1  0  0  0  0
 17  8  2  0  0  0  0
 18 17  1  0  0  0  0
 19 13  1  0  0  0  0
 20 12  1  0  0  0  0
 21  6  1  0  0  0  0
 22 15  1  0  0  0  0
 23 21  2  0  0  0  0
 24 13  2  0  0  0  0
 24 23  1  0  0  0  0
 25 20  1  0  0  0  0
 26 22  1  0  0  0  0
M  END
> <CdId>
2617

> <Mol Weight>
386.852

> <Formula>
C19H15ClN2O3S

> <Click_ID>
CLK034_F03 __ __ 

$$$$
