CLK005_H08
 OpenBabel03181419432D

 32 34  0  0  0  0  0  0  0  0999 V2000
    1.2080    0.5470    0.0000 N   0  0  0  0  0  0  0  0  0  0  0  0
    1.9236    0.1504    0.0000 C   0  0  0  0  0  0  0  0  0  0  0  0
    1.1806    1.3720    0.0000 C   0  0  0  0  0  0  0  0  0  0  0  0
    0.4969    0.1504    0.0000 C   0  0  0  0  0  0  0  0  0  0  0  0
    2.6347    0.5470    0.0000 C   0  0  0  0  0  0  0  0  0  0  0  0
    1.9236   -0.6928    0.0000 C   0  0  0  0  0  0  0  0  0  0  0  0
    0.4695    1.7686    0.0000 O   0  0  0  0  0  0  0  0  0  0  0  0
    1.8689    1.7914    0.0000 S   0  0  0  0  0  0  0  0  0  0  0  0
    0.4969   -0.6928    0.0000 C   0  0  0  0  0  0  0  0  0  0  0  0
    3.3457    0.1504    0.0000 C   0  0  0  0  0  0  0  0  0  0  0  0
    2.6347   -1.0894    0.0000 C   0  0  0  0  0  0  0  0  0  0  0  0
   -0.2461    1.3401    0.0000 C   0  0  0  0  0  0  0  0  0  0  0  0
    0.4969   -1.5133    0.0000 C   0  0  0  0  0  0  0  0  0  0  0  0
    3.3457   -0.6928    0.0000 C   0  0  0  0  0  0  0  0  0  0  0  0
   -0.9846    1.7367    0.0000 C   0  0  0  0  0  0  0  0  0  0  0  0
   -0.2461    0.5196    0.0000 C   0  0  0  0  0  0  0  0  0  0  0  0
    4.0660   -1.1167    0.0000 C   0  0  0  0  0  0  0  0  0  0  0  0
   -1.6775    1.3219    0.0000 C   0  0  0  0  0  0  0  0  0  0  0  0
   -0.9345    0.1003    0.0000 C   0  0  0  0  0  0  0  0  0  0  0  0
    4.7771   -0.7202    0.0000 O   0  0  0  0  0  0  0  0  0  0  0  0
    4.0660   -1.9328    0.0000 O   0  0  0  0  0  0  0  0  0  0  0  0
   -1.6775    0.5105    0.0000 C   0  0  0  0  0  0  0  0  0  0  0  0
    5.4608   -1.1396    0.0000 C   0  0  0  0  0  0  0  0  0  0  0  0
   -2.3384    0.0821    0.0000 C   0  0  0  0  0  0  0  0  0  0  0  0
   -3.0495    0.4695    0.0000 N   0  0  0  0  0  0  0  0  0  0  0  0
   -2.3384   -0.7430    0.0000 O   0  0  0  0  0  0  0  0  0  0  0  0
   -3.7606    0.0501    0.0000 C   0  0  0  0  0  0  0  0  0  0  0  0
   -4.4762    0.4695    0.0000 C   0  0  0  0  0  0  0  0  0  0  0  0
   -3.7606   -0.7749    0.0000 C   0  0  0  0  0  0  0  0  0  0  0  0
   -5.2010    0.0501    0.0000 C   0  0  0  0  0  0  0  0  0  0  0  0
   -4.4762   -1.1988    0.0000 C   0  0  0  0  0  0  0  0  0  0  0  0
   -5.2010   -0.7749    0.0000 C   0  0  0  0  0  0  0  0  0  0  0  0
  1  2  1  0  0  0  0
  1  3  1  0  0  0  0
  1  4  1  0  0  0  0
  2  5  1  0  0  0  0
  2  6  2  0  0  0  0
  3  7  1  0  0  0  0
  3  8  2  0  0  0  0
  4  9  1  0  0  0  0
  5 10  2  0  0  0  0
  6 11  1  0  0  0  0
  7 12  1  0  0  0  0
  9 13  3  0  0  0  0
 10 14  1  0  0  0  0
 11 14  2  0  0  0  0
 12 15  1  0  0  0  0
 12 16  2  0  0  0  0
 14 17  1  0  0  0  0
 15 18  2  0  0  0  0
 16 19  1  0  0  0  0
 17 20  1  0  0  0  0
 17 21  2  0  0  0  0
 18 22  1  0  0  0  0
 19 22  2  0  0  0  0
 20 23  1  0  0  0  0
 22 24  1  0  0  0  0
 24 25  1  0  0  0  0
 24 26  2  0  0  0  0
 25 27  1  0  0  0  0
 27 28  2  0  0  0  0
 27 29  1  0  0  0  0
 28 30  1  0  0  0  0
 29 31  2  0  0  0  0
 30 32  2  0  0  0  0
 31 32  1  0  0  0  0
M  END
> <CdId>
397

> <Mol Weight>
444.502

> <Formula>
C25H20N2O4S

> <Click_ID>
CLK005_H08 __ __ 

$$$$
