CLK028_D05
 OpenBabel03181419432D

 31 33  0  0  0  0  0  0  0  0999 V2000
    2.0453   -0.2853    0.0000 C   0  0  0  0  0  0  0  0  0  0  0  0
    2.7947    0.0550    0.0000 O   0  0  0  0  0  0  0  0  0  0  0  0
    2.1312   -1.1000    0.0000 C   0  0  0  0  0  0  0  0  0  0  0  0
    1.3268    0.1306    0.0000 C   0  0  0  0  0  0  0  0  0  0  0  0
    2.9322   -1.2719    0.0000 C   0  0  0  0  0  0  0  0  0  0  0  0
   -2.9597    0.9522    0.0000 C   0  0  0  0  0  0  0  0  0  0  0  0
    3.3447   -0.5603    0.0000 C   0  0  0  0  0  0  0  0  0  0  0  0
   -2.9528    0.1237    0.0000 C   0  0  0  0  0  0  0  0  0  0  0  0
   -2.2481    1.3647    0.0000 C   0  0  0  0  0  0  0  0  0  0  0  0
   -5.1082    1.3372    0.0000 C   0  0  0  0  0  0  0  0  0  0  0  0
   -5.8231    1.7428    0.0000 C   0  0  0  0  0  0  0  0  0  0  0  0
   -0.1066    0.1237    0.0000 N   0  0  0  0  0  0  0  0  0  0  0  0
    0.6050   -0.2853    0.0000 N   0  0  0  0  0  0  0  0  0  0  0  0
   -2.2378   -0.2853    0.0000 C   0  0  0  0  0  0  0  0  0  0  0  0
   -1.5331    0.9522    0.0000 C   0  0  0  0  0  0  0  0  0  0  0  0
    3.3447   -1.9868    0.0000 C   0  0  0  0  0  0  0  0  0  0  0  0
    1.3268    0.9625    0.0000 O   0  0  0  0  0  0  0  0  0  0  0  0
   -1.5331    0.1306    0.0000 C   0  0  0  0  0  0  0  0  0  0  0  0
    4.1697   -0.5500    0.0000 C   0  0  0  0  0  0  0  0  0  0  0  0
   -0.8112   -0.2853    0.0000 C   0  0  0  0  0  0  0  0  0  0  0  0
   -3.6747   -0.2956    0.0000 I   0  0  0  0  0  0  0  0  0  0  0  0
    4.1697   -1.9868    0.0000 C   0  0  0  0  0  0  0  0  0  0  0  0
   -3.6884    1.3509    0.0000 O   0  0  0  0  0  0  0  0  0  0  0  0
   -2.2516    2.1897    0.0000 O   0  0  0  0  0  0  0  0  0  0  0  0
    4.5856   -1.2650    0.0000 C   0  0  0  0  0  0  0  0  0  0  0  0
   -4.3931    0.9316    0.0000 C   0  0  0  0  0  0  0  0  0  0  0  0
    4.5856   -2.6984    0.0000 O   0  0  0  0  0  0  0  0  0  0  0  0
   -2.9735    2.5884    0.0000 C   0  0  0  0  0  0  0  0  0  0  0  0
    5.4106   -2.6984    0.0000 C   0  0  0  0  0  0  0  0  0  0  0  0
   -2.9768    3.4134    0.0000 C   0  0  0  0  0  0  0  0  0  0  0  0
    5.8231   -3.4134    0.0000 C   0  0  0  0  0  0  0  0  0  0  0  0
  2  1  1  0  0  0  0
  3  1  2  0  0  0  0
  4  1  1  0  0  0  0
  5  3  1  0  0  0  0
  5  7  2  0  0  0  0
  6  9  2  0  0  0  0
  7  2  1  0  0  0  0
  8 14  2  0  0  0  0
  8  6  1  0  0  0  0
  9 15  1  0  0  0  0
 10 26  1  0  0  0  0
 11 10  3  0  0  0  0
 12 13  1  0  0  0  0
 13  4  1  0  0  0  0
 14 18  1  0  0  0  0
 15 18  2  0  0  0  0
 16  5  1  0  0  0  0
 17  4  2  0  0  0  0
 18 20  1  0  0  0  0
 19  7  1  0  0  0  0
 20 12  2  0  0  0  0
 21  8  1  0  0  0  0
 22 16  2  0  0  0  0
 23  6  1  0  0  0  0
 24  9  1  0  0  0  0
 25 19  2  0  0  0  0
 25 22  1  0  0  0  0
 26 23  1  0  0  0  0
 27 22  1  0  0  0  0
 28 24  1  0  0  0  0
 29 27  1  0  0  0  0
 30 28  1  0  0  0  0
 31 29  1  0  0  0  0
M  END
> <CdId>
2119

> <Mol Weight>
532.3277

> <Formula>
C23H21IN2O5

> <Click_ID>
CLK028_D05 __ __ 

$$$$
