CLK024_A08
 OpenBabel03181419432D

 26 28  0  0  0  0  0  0  0  0999 V2000
    2.2378    0.1517    0.0000 N   0  0  0  0  0  0  0  0  0  0  0  0
    1.8240   -0.5621    0.0000 C   0  0  0  0  0  0  0  0  0  0  0  0
    0.9241    0.4276    0.0000 C   0  0  0  0  0  0  0  0  0  0  0  0
    1.6757    0.7655    0.0000 C   0  0  0  0  0  0  0  0  0  0  0  0
    1.0137   -0.3999    0.0000 S   0  0  0  0  0  0  0  0  0  0  0  0
    0.2069    0.8275    0.0000 C   0  0  0  0  0  0  0  0  0  0  0  0
   -1.9343   -0.4103    0.0000 C   0  0  0  0  0  0  0  0  0  0  0  0
   -1.9343    0.4138    0.0000 C   0  0  0  0  0  0  0  0  0  0  0  0
   -0.5069    0.4138    0.0000 C   0  0  0  0  0  0  0  0  0  0  0  0
   -2.6481   -0.8240    0.0000 N   0  0  0  0  0  0  0  0  0  0  0  0
   -1.2206   -0.8240    0.0000 C   0  0  0  0  0  0  0  0  0  0  0  0
   -1.2206    0.8275    0.0000 C   0  0  0  0  0  0  0  0  0  0  0  0
   -0.5069   -0.4103    0.0000 C   0  0  0  0  0  0  0  0  0  0  0  0
    3.5445   -0.4379    0.0000 C   0  0  0  0  0  0  0  0  0  0  0  0
    3.9583   -1.1517    0.0000 C   0  0  0  0  0  0  0  0  0  0  0  0
    2.1654   -1.3275    0.0000 O   0  0  0  0  0  0  0  0  0  0  0  0
    1.8481    1.5688    0.0000 O   0  0  0  0  0  0  0  0  0  0  0  0
    3.0618    0.2414    0.0000 C   0  0  0  0  0  0  0  0  0  0  0  0
   -1.2206   -1.6516    0.0000 O   0  0  0  0  0  0  0  0  0  0  0  0
   -1.2206    1.6551    0.0000 O   0  0  0  0  0  0  0  0  0  0  0  0
   -2.7377   -1.6516    0.0000 C   0  0  0  0  0  0  0  0  0  0  0  0
   -3.3997   -0.4862    0.0000 C   0  0  0  0  0  0  0  0  0  0  0  0
   -1.9447   -2.0653    0.0000 C   0  0  0  0  0  0  0  0  0  0  0  0
   -1.9343    2.0688    0.0000 C   0  0  0  0  0  0  0  0  0  0  0  0
   -3.5480   -1.8274    0.0000 C   0  0  0  0  0  0  0  0  0  0  0  0
   -3.9618   -1.0999    0.0000 C   0  0  0  0  0  0  0  0  0  0  0  0
  2  1  1  0  0  0  0
  3  4  1  0  0  0  0
  3  5  1  0  0  0  0
  4  1  1  0  0  0  0
  5  2  1  0  0  0  0
  6  3  2  0  0  0  0
  7 11  1  0  0  0  0
  8 12  1  0  0  0  0
  8  7  2  0  0  0  0
  9  6  1  0  0  0  0
 10  7  1  0  0  0  0
 11 13  2  0  0  0  0
 12  9  2  0  0  0  0
 13  9  1  0  0  0  0
 14 18  1  0  0  0  0
 15 14  3  0  0  0  0
 16  2  2  0  0  0  0
 17  4  2  0  0  0  0
 18  1  1  0  0  0  0
 19 11  1  0  0  0  0
 20 12  1  0  0  0  0
 21 10  1  0  0  0  0
 22 10  1  0  0  0  0
 23 19  1  0  0  0  0
 24 20  1  0  0  0  0
 25 21  1  0  0  0  0
 26 22  1  0  0  0  0
 26 25  1  0  0  0  0
M  END
> <CdId>
1783

> <Mol Weight>
372.438

> <Formula>
C19H20N2O4S

> <Click_ID>
CLK024_A08 __ __ 

$$$$
