CLK035_A04
 OpenBabel03181419432D

 34 37  0  0  0  0  0  0  0  0999 V2000
   -4.5958    2.5583    0.0000 C   0  0  0  0  0  0  0  0  0  0  0  0
   -0.9958    5.4292    0.0000 S   0  0  0  0  0  0  0  0  0  0  0  0
   -3.8625    2.9833    0.0000 N   0  0  0  0  0  0  0  0  0  0  0  0
   -4.6833    1.7333    0.0000 N   0  0  0  0  0  0  0  0  0  0  0  0
   -5.3208    2.8958    0.0000 S   0  0  0  0  0  0  0  0  0  0  0  0
   -5.4875    1.5833    0.0000 C   0  0  0  0  0  0  0  0  0  0  0  0
   -5.8958    2.3000    0.0000 C   0  0  0  0  0  0  0  0  0  0  0  0
   -0.5875    4.7167    0.0000 N   0  0  0  0  0  0  0  0  0  0  0  0
   -3.8708    3.8000    0.0000 C   0  0  0  0  0  0  0  0  0  0  0  0
   -1.7083    5.0292    0.0000 C   0  0  0  0  0  0  0  0  0  0  0  0
   -1.4083    6.1542    0.0000 O   0  0  0  0  0  0  0  0  0  0  0  0
   -0.2833    5.8417    0.0000 O   0  0  0  0  0  0  0  0  0  0  0  0
   -4.2583    0.3583    0.0000 C   0  0  0  0  0  0  0  0  0  0  0  0
   -4.4458   -0.4542    0.0000 C   0  0  0  0  0  0  0  0  0  0  0  0
   -3.1583    4.2125    0.0000 C   0  0  0  0  0  0  0  0  0  0  0  0
   -5.9208    0.8833    0.0000 C   0  0  0  0  0  0  0  0  0  0  0  0
   -4.5833    4.2167    0.0000 O   0  0  0  0  0  0  0  0  0  0  0  0
    0.2292    4.7125    0.0000 C   0  0  0  0  0  0  0  0  0  0  0  0
   -4.0708    1.1625    0.0000 C   0  0  0  0  0  0  0  0  0  0  0  0
   -2.4375    5.4500    0.0000 C   0  0  0  0  0  0  0  0  0  0  0  0
   -1.7208    4.2000    0.0000 C   0  0  0  0  0  0  0  0  0  0  0  0
   -3.1583    5.0292    0.0000 C   0  0  0  0  0  0  0  0  0  0  0  0
   -2.4458    3.8000    0.0000 C   0  0  0  0  0  0  0  0  0  0  0  0
   -6.7042    2.3208    0.0000 C   0  0  0  0  0  0  0  0  0  0  0  0
   -5.5208    0.1458    0.0000 O   0  0  0  0  0  0  0  0  0  0  0  0
   -1.0083    4.0042    0.0000 C   0  0  0  0  0  0  0  0  0  0  0  0
   -7.1417    1.6208    0.0000 C   0  0  0  0  0  0  0  0  0  0  0  0
   -6.7292    0.8875    0.0000 C   0  0  0  0  0  0  0  0  0  0  0  0
    0.6500    3.9958    0.0000 C   0  0  0  0  0  0  0  0  0  0  0  0
    0.6542    5.4167    0.0000 C   0  0  0  0  0  0  0  0  0  0  0  0
   -5.9583   -0.5542    0.0000 C   0  0  0  0  0  0  0  0  0  0  0  0
    1.4750    3.9958    0.0000 C   0  0  0  0  0  0  0  0  0  0  0  0
    1.4792    5.4167    0.0000 C   0  0  0  0  0  0  0  0  0  0  0  0
    1.9000    4.7000    0.0000 C   0  0  0  0  0  0  0  0  0  0  0  0
  2 10  1  0  0  0  0
  3  1  2  0  0  0  0
  4  1  1  0  0  0  0
  5  1  1  0  0  0  0
  6  4  1  0  0  0  0
  7  5  1  0  0  0  0
  7  6  2  0  0  0  0
  8  2  1  0  0  0  0
  9  3  1  0  0  0  0
 10 21  2  0  0  0  0
 10 20  1  0  0  0  0
 11  2  2  0  0  0  0
 12  2  2  0  0  0  0
 13 19  1  0  0  0  0
 14 13  3  0  0  0  0
 15  9  1  0  0  0  0
 16  6  1  0  0  0  0
 17  9  2  0  0  0  0
 18  8  1  0  0  0  0
 19  4  1  0  0  0  0
 20 22  2  0  0  0  0
 21 23  1  0  0  0  0
 22 15  1  0  0  0  0
 23 15  2  0  0  0  0
 24  7  1  0  0  0  0
 25 16  1  0  0  0  0
 26  8  1  0  0  0  0
 27 24  2  0  0  0  0
 28 16  2  0  0  0  0
 28 27  1  0  0  0  0
 29 18  2  0  0  0  0
 30 18  1  0  0  0  0
 31 25  1  0  0  0  0
 32 29  1  0  0  0  0
 33 30  2  0  0  0  0
 34 33  1  0  0  0  0
 34 32  2  0  0  0  0
M  END
> <CdId>
2648

> <Mol Weight>
491.582

> <Formula>
C25H21N3O4S2

> <Click_ID>
CLK035_A04 __ __ 

$$$$
