CLK004_C06
 OpenBabel03181419432D

 27 30  0  0  0  0  0  0  0  0999 V2000
    0.6080   -0.0076    0.0000 C    0  0  3  0  0  0  0  0  0  0  0  0
    1.3263   -0.4143    0.0000 C    0  0  0  0  0  0  0  0  0  0  0  0
    0.5967    0.8133    0.0000 C    0  0  0  0  0  0  0  0  0  0  0  0
   -0.6726   -0.7715    0.0000 C    0  0  0  0  0  0  0  0  0  0  0  0
    2.0371    0.0152    0.0000 C    0  0  0  0  0  0  0  0  0  0  0  0
    1.3339   -1.2275    0.0000 C    0  0  0  0  0  0  0  0  0  0  0  0
    1.2997    1.2313    0.0000 C    0  0  0  0  0  0  0  0  0  0  0  0
   -0.1216    1.2161    0.0000 C    0  0  0  0  0  0  0  0  0  0  0  0
   -1.3947   -0.3687    0.0000 C    0  0  0  0  0  0  0  0  0  0  0  0
   -0.6575   -1.6000    0.0000 C    0  0  0  0  0  0  0  0  0  0  0  0
    2.0219    0.8323    0.0000 N    0  0  0  0  0  0  0  0  0  0  0  0
    2.7591   -0.3952    0.0000 C    0  0  0  0  0  0  0  0  0  0  0  0
    2.0560   -1.6380    0.0000 C    0  0  0  0  0  0  0  0  0  0  0  0
    0.6195   -1.6608    0.0000 O    0  0  0  0  0  0  0  0  0  0  0  0
    1.2921    2.0675    0.0000 C    0  0  0  0  0  0  0  0  0  0  0  0
   -0.1330    2.0371    0.0000 C    0  0  0  0  0  0  0  0  0  0  0  0
   -0.8361    0.7981    0.0000 O    0  0  0  0  0  0  0  0  0  0  0  0
   -2.1054   -0.7867    0.0000 C    0  0  0  0  0  0  0  0  0  0  0  0
   -1.4023    0.4598    0.0000 O    0  0  0  0  0  0  0  0  0  0  0  0
   -1.3643   -2.0219    0.0000 C    0  0  0  0  0  0  0  0  0  0  0  0
    2.7667   -1.2199    0.0000 C    0  0  0  0  0  0  0  0  0  0  0  0
    0.5663    2.4551    0.0000 C    0  0  0  0  0  0  0  0  0  0  0  0
   -2.0903   -1.6228    0.0000 C    0  0  0  0  0  0  0  0  0  0  0  0
   -2.1321    0.8665    0.0000 C    0  0  0  0  0  0  0  0  0  0  0  0
   -1.3606   -2.8503    0.0000 Cl   0  0  0  0  0  0  0  0  0  0  0  0
   -2.1473    1.6950    0.0000 C    0  0  0  0  0  0  0  0  0  0  0  0
   -2.8618    2.0940    0.0000 C    0  0  0  0  0  0  0  0  0  0  0  0
  1  2  1  0  0  0  0
  1  3  1  0  0  0  0
  1  4  1  0  0  0  0
  2  5  2  0  0  0  0
  2  6  1  0  0  0  0
  3  7  2  0  0  0  0
  3  8  1  0  0  0  0
  4  9  1  0  0  0  0
  4 10  2  0  0  0  0
  5 11  1  0  0  0  0
  5 12  1  0  0  0  0
  6 13  1  0  0  0  0
  6 14  2  0  0  0  0
  7 15  1  0  0  0  0
  7 11  1  0  0  0  0
  8 16  1  0  0  0  0
  8 17  2  0  0  0  0
  9 18  2  0  0  0  0
  9 19  1  0  0  0  0
 10 20  1  0  0  0  0
 12 21  1  0  0  0  0
 13 21  1  0  0  0  0
 15 22  1  0  0  0  0
 16 22  1  0  0  0  0
 18 23  1  0  0  0  0
 19 24  1  0  0  0  0
 20 25  1  0  0  0  0
 20 23  2  0  0  0  0
 24 26  1  0  0  0  0
 26 27  3  0  0  0  0
M  END
> <CdId>
265

> <Mol Weight>
381.852

> <Formula>
C22H20ClNO3

> <Click_ID>
CLK004_C06 __ __ 

$$$$
