CLK003_F05
 OpenBabel03181419432D

 33 36  0  0  0  0  0  0  0  0999 V2000
    0.4973   -0.3075    0.0000 C   0  0  3  0  0  0  0  0  0  0  0  0
    0.4973   -1.1313    0.0000 C   0  0  0  0  0  0  0  0  0  0  0  0
    1.2072    0.0987    0.0000 C   0  0  0  0  0  0  0  0  0  0  0  0
   -0.2202    0.1063    0.0000 C   0  0  0  0  0  0  0  0  0  0  0  0
    1.2072   -1.5450    0.0000 C   0  0  0  0  0  0  0  0  0  0  0  0
   -0.2202   -1.5450    0.0000 C   0  0  0  0  0  0  0  0  0  0  0  0
    1.9132   -0.3151    0.0000 C   0  0  0  0  0  0  0  0  0  0  0  0
    1.2072    0.9224    0.0000 C   0  0  0  0  0  0  0  0  0  0  0  0
   -0.9339   -0.3075    0.0000 C   0  0  0  0  0  0  0  0  0  0  0  0
   -0.2202    0.9339    0.0000 C   0  0  0  0  0  0  0  0  0  0  0  0
    1.9132   -1.1313    0.0000 N   0  0  0  0  0  0  0  0  0  0  0  0
    1.2072   -2.3688    0.0000 C   0  0  0  0  0  0  0  0  0  0  0  0
   -0.2202   -2.3688    0.0000 C   0  0  0  0  0  0  0  0  0  0  0  0
   -0.9376   -1.1274    0.0000 O   0  0  0  0  0  0  0  0  0  0  0  0
    2.6308    0.1063    0.0000 C   0  0  0  0  0  0  0  0  0  0  0  0
    1.9132    1.3324    0.0000 C   0  0  0  0  0  0  0  0  0  0  0  0
    0.4935    1.3439    0.0000 O   0  0  0  0  0  0  0  0  0  0  0  0
   -1.6513    0.1063    0.0000 C   0  0  0  0  0  0  0  0  0  0  0  0
   -0.9339    1.3439    0.0000 C   0  0  0  0  0  0  0  0  0  0  0  0
    0.4935   -2.7826    0.0000 C   0  0  0  0  0  0  0  0  0  0  0  0
    2.6308    0.9187    0.0000 C   0  0  0  0  0  0  0  0  0  0  0  0
   -1.6513    0.9339    0.0000 C   0  0  0  0  0  0  0  0  0  0  0  0
   -2.3650   -0.3075    0.0000 O   0  0  0  0  0  0  0  0  0  0  0  0
    0.4935   -3.6177    0.0000 C   0  0  0  0  0  0  0  0  0  0  0  0
   -0.3416   -2.7826    0.0000 C   0  0  0  0  0  0  0  0  0  0  0  0
    2.2131    1.6400    0.0000 C   0  0  0  0  0  0  0  0  0  0  0  0
    3.3558    1.3439    0.0000 C   0  0  0  0  0  0  0  0  0  0  0  0
   -2.3650    1.3363    0.0000 O   0  0  0  0  0  0  0  0  0  0  0  0
   -3.0825    0.1063    0.0000 C   0  0  0  0  0  0  0  0  0  0  0  0
   -2.3650    2.1601    0.0000 C   0  0  0  0  0  0  0  0  0  0  0  0
   -3.0825    0.9224    0.0000 C   0  0  0  0  0  0  0  0  0  0  0  0
   -1.6513    2.5738    0.0000 C   0  0  0  0  0  0  0  0  0  0  0  0
   -1.6513    3.4014    0.0000 C   0  0  0  0  0  0  0  0  0  0  0  0
  1  2  1  0  0  0  0
  1  3  1  0  0  0  0
  1  4  1  0  0  0  0
  2  5  2  0  0  0  0
  2  6  1  0  0  0  0
  3  7  2  0  0  0  0
  3  8  1  0  0  0  0
  4  9  1  0  0  0  0
  4 10  2  0  0  0  0
  5 11  1  0  0  0  0
  5 12  1  0  0  0  0
  6 13  1  0  0  0  0
  6 14  2  0  0  0  0
  7 15  1  0  0  0  0
  7 11  1  0  0  0  0
  8 16  1  0  0  0  0
  8 17  2  0  0  0  0
  9 18  2  0  0  0  0
 10 19  1  0  0  0  0
 12 20  1  0  0  0  0
 13 20  1  0  0  0  0
 15 21  1  0  0  0  0
 16 21  1  0  0  0  0
 18 22  1  0  0  0  0
 18 23  1  0  0  0  0
 19 22  2  0  0  0  0
 20 24  1  0  0  0  0
 20 25  1  0  0  0  0
 21 26  1  0  0  0  0
 21 27  1  0  0  0  0
 22 28  1  0  0  0  0
 23 29  1  0  0  0  0
 28 30  1  0  0  0  0
 29 31  1  0  0  0  0
 30 32  1  0  0  0  0
 32 33  3  0  0  0  0
M  END
> <CdId>
214

> <Mol Weight>
447.5659

> <Formula>
C28H33NO4

> <Click_ID>
CLK003_F05 __ __ 

$$$$
