CLK029_C02
 OpenBabel03181419432D

 16 17  0  0  0  0  0  0  0  0999 V2000
   -1.0864   -0.7575    0.0000 C    0  0  0  0  0  0  0  0  0  0  0  0
   -1.5680   -1.4094    0.0000 S    0  0  0  0  0  0  0  0  0  0  0  0
   -1.5680   -0.0764    0.0000 C    0  0  0  0  0  0  0  0  0  0  0  0
   -2.3548   -0.3347    0.0000 C    0  0  0  0  0  0  0  0  0  0  0  0
   -2.3548   -1.1511    0.0000 C    0  0  0  0  0  0  0  0  0  0  0  0
   -0.2760   -0.7575    0.0000 C    0  0  0  0  0  0  0  0  0  0  0  0
    0.1469    1.3859    0.0000 C    0  0  0  0  0  0  0  0  0  0  0  0
    0.5461    2.1141    0.0000 C    0  0  0  0  0  0  0  0  0  0  0  0
    0.1821   -1.4622    0.0000 O    0  0  0  0  0  0  0  0  0  0  0  0
   -1.3154    0.7340    0.0000 Cl   0  0  0  0  0  0  0  0  0  0  0  0
    0.1469   -0.0412    0.0000 O    0  0  0  0  0  0  0  0  0  0  0  0
   -3.0947    0.0881    0.0000 C    0  0  0  0  0  0  0  0  0  0  0  0
   -0.2760    0.6812    0.0000 C    0  0  0  0  0  0  0  0  0  0  0  0
   -3.0947   -1.5739    0.0000 C    0  0  0  0  0  0  0  0  0  0  0  0
   -3.7994   -0.3347    0.0000 C    0  0  0  0  0  0  0  0  0  0  0  0
   -3.7994   -1.1511    0.0000 C    0  0  0  0  0  0  0  0  0  0  0  0
  2  1  1  0  0  0  0
  3  1  2  0  0  0  0
  4  3  1  0  0  0  0
  5  2  1  0  0  0  0
  5  4  2  0  0  0  0
  6  1  1  0  0  0  0
  7 13  1  0  0  0  0
  8  7  3  0  0  0  0
  9  6  2  0  0  0  0
 10  3  1  0  0  0  0
 11  6  1  0  0  0  0
 12  4  1  0  0  0  0
 13 11  1  0  0  0  0
 14  5  1  0  0  0  0
 15 12  2  0  0  0  0
 16 14  2  0  0  0  0
 16 15  1  0  0  0  0
M  END
> <CdId>
2186

> <Mol Weight>
250.701

> <Formula>
C12H7ClO2S

> <Click_ID>
CLK029_C02 __ __ 

$$$$
