CLK040A08
 OpenBabel03181419432D

 22 22  0  0  0  0  0  0  0  0999 V2000
   -1.1375    1.6333    0.0000 C   0  0  0  0  0  0  0  0  0  0  0  0
   -0.4250    1.2208    0.0000 C   0  0  0  0  0  0  0  0  0  0  0  0
    0.2917    1.6333    0.0000 N   0  0  0  0  0  0  0  0  0  0  0  0
   -1.1375    2.4583    0.0000 C   0  0  0  0  0  0  0  0  0  0  0  0
   -1.8542    1.2208    0.0000 C   0  0  0  0  0  0  0  0  0  0  0  0
    1.0042   -2.9042    0.0000 C   0  0  0  0  0  0  0  0  0  0  0  0
   -2.5667    0.8083    0.0000 N   0  0  0  0  0  0  0  0  0  0  0  0
   -0.4250    0.3958    0.0000 S   0  0  0  0  0  0  0  0  0  0  0  0
    1.0042   -3.7292    0.0000 C   0  0  0  0  0  0  0  0  0  0  0  0
    0.2917   -0.8417    0.0000 C   0  0  0  0  0  0  0  0  0  0  0  0
    1.0042   -1.2542    0.0000 N   0  0  0  0  0  0  0  0  0  0  0  0
    0.2917    2.4583    0.0000 C   0  0  0  0  0  0  0  0  0  0  0  0
    1.0042   -2.0792    0.0000 C   0  0  0  0  0  0  0  0  0  0  0  0
   -0.4250    2.8708    0.0000 C   0  0  0  0  0  0  0  0  0  0  0  0
   -0.4250   -1.2542    0.0000 O   0  0  0  0  0  0  0  0  0  0  0  0
    0.2917   -0.0167    0.0000 C   0  0  0  0  0  0  0  0  0  0  0  0
   -1.8542    2.8708    0.0000 C   0  0  0  0  0  0  0  0  0  0  0  0
    1.8292   -2.0792    0.0000 C   0  0  0  0  0  0  0  0  0  0  0  0
    0.1792   -2.0792    0.0000 C   0  0  0  0  0  0  0  0  0  0  0  0
    1.0042    2.8708    0.0000 C   0  0  0  0  0  0  0  0  0  0  0  0
   -0.2333   -1.3667    0.0000 C   0  0  0  0  0  0  0  0  0  0  0  0
    2.2417   -2.7917    0.0000 C   0  0  0  0  0  0  0  0  0  0  0  0
  2  1  2  0  0  0  0
  3  2  1  0  0  0  0
  4  1  1  0  0  0  0
  5  1  1  0  0  0  0
  6 13  1  0  0  0  0
  7  5  3  0  0  0  0
  8  2  1  0  0  0  0
  9  6  3  0  0  0  0
 10 16  1  0  0  0  0
 11 10  1  0  0  0  0
 12  3  2  0  0  0  0
 13 11  1  0  0  0  0
 14  4  2  0  0  0  0
 14 12  1  0  0  0  0
 15 10  2  0  0  0  0
 16  8  1  0  0  0  0
 17  4  1  0  0  0  0
 18 13  1  0  0  0  0
 19 13  1  0  0  0  0
 20 12  1  0  0  0  0
 21 19  1  0  0  0  0
 22 18  1  0  0  0  0
M  END
> <CdId>
3057

> <Mol Weight>
315.433

> <Formula>
C17H21N3OS

> <Click_ID>
CLK040A08 __ __ 

$$$$
