CLK048H10
 OpenBabel03181419432D

 18 19  0  0  0  0  0  0  0  0999 V2000
    1.3292    0.0792    0.0000 C   0  0  0  0  0  0  0  0  0  0  0  0
    0.5042    0.0792    0.0000 C   0  0  0  0  0  0  0  0  0  0  0  0
    2.5958    0.4917    0.0000 N   0  0  0  0  0  0  0  0  0  0  0  0
    1.8125   -0.5875    0.0000 C   0  0  0  0  0  0  0  0  0  0  0  0
    2.5958   -0.3333    0.0000 N   0  0  0  0  0  0  0  0  0  0  0  0
    1.8125    0.7458    0.0000 S   0  0  0  0  0  0  0  0  0  0  0  0
    0.0917    0.7917    0.0000 N   0  0  0  0  0  0  0  0  0  0  0  0
   -2.3833   -0.6375    0.0000 C   0  0  0  0  0  0  0  0  0  0  0  0
   -2.7958   -1.3500    0.0000 C   0  0  0  0  0  0  0  0  0  0  0  0
    0.0917   -0.6375    0.0000 O   0  0  0  0  0  0  0  0  0  0  0  0
   -0.7333    0.7917    0.0000 C   0  0  0  0  0  0  0  0  0  0  0  0
   -1.9708    0.0792    0.0000 C   0  0  0  0  0  0  0  0  0  0  0  0
   -1.1458    0.0792    0.0000 C   0  0  0  0  0  0  0  0  0  0  0  0
    1.5583   -1.3750    0.0000 C   0  0  0  0  0  0  0  0  0  0  0  0
   -1.9708    1.5083    0.0000 C   0  0  0  0  0  0  0  0  0  0  0  0
   -1.1458    1.5083    0.0000 C   0  0  0  0  0  0  0  0  0  0  0  0
   -2.3833    0.7917    0.0000 C   0  0  0  0  0  0  0  0  0  0  0  0
    2.1083   -1.9875    0.0000 C   0  0  0  0  0  0  0  0  0  0  0  0
  2  1  1  0  0  0  0
  3  6  1  0  0  0  0
  3  5  2  0  0  0  0
  4  1  2  0  0  0  0
  5  4  1  0  0  0  0
  6  1  1  0  0  0  0
  7  2  1  0  0  0  0
  8 12  1  0  0  0  0
  9  8  3  0  0  0  0
 10  2  2  0  0  0  0
 11  7  1  0  0  0  0
 12 13  1  0  0  0  0
 13 11  2  0  0  0  0
 14  4  1  0  0  0  0
 15 16  2  0  0  0  0
 16 11  1  0  0  0  0
 17 12  2  0  0  0  0
 17 15  1  0  0  0  0
 18 14  1  0  0  0  0
M  END
> <CdId>
3720

> <Mol Weight>
257.311

> <Formula>
C13H11N3OS

> <Click_ID>
CLK048H10 __ __ 

$$$$
