CLK044A08
 OpenBabel03181419432D

 24 25  0  0  0  0  0  0  0  0999 V2000
   -2.1458   -0.8917    0.0000 S   0  0  0  0  0  0  0  0  0  0  0  0
    0.7125    0.7583    0.0000 C   0  0  0  0  0  0  0  0  0  0  0  0
    1.4250    0.3458    0.0000 N   0  0  0  0  0  0  0  0  0  0  0  0
   -1.4292   -0.4792    0.0000 C   0  0  0  0  0  0  0  0  0  0  0  0
   -4.2875   -1.3042    0.0000 C   0  0  0  0  0  0  0  0  0  0  0  0
    2.1417    0.7583    0.0000 C   0  0  0  0  0  0  0  0  0  0  0  0
   -5.0042   -1.7167    0.0000 C   0  0  0  0  0  0  0  0  0  0  0  0
   -1.7333   -1.6042    0.0000 O   0  0  0  0  0  0  0  0  0  0  0  0
   -2.5583   -0.1792    0.0000 O   0  0  0  0  0  0  0  0  0  0  0  0
    0.0000    0.3458    0.0000 C   0  0  0  0  0  0  0  0  0  0  0  0
   -2.8583   -1.3042    0.0000 N   0  0  0  0  0  0  0  0  0  0  0  0
    0.7125    1.5833    0.0000 O   0  0  0  0  0  0  0  0  0  0  0  0
   -1.4292    0.3458    0.0000 C   0  0  0  0  0  0  0  0  0  0  0  0
   -0.7167   -0.8917    0.0000 C   0  0  0  0  0  0  0  0  0  0  0  0
    2.8542    0.3458    0.0000 C   0  0  0  0  0  0  0  0  0  0  0  0
   -0.7167    0.7583    0.0000 C   0  0  0  0  0  0  0  0  0  0  0  0
    0.0000   -0.4792    0.0000 C   0  0  0  0  0  0  0  0  0  0  0  0
   -3.5750   -0.8917    0.0000 C   0  0  0  0  0  0  0  0  0  0  0  0
    2.1417    1.5833    0.0000 C   0  0  0  0  0  0  0  0  0  0  0  0
    2.8542   -0.4792    0.0000 C   0  0  0  0  0  0  0  0  0  0  0  0
    3.5708    0.7583    0.0000 C   0  0  0  0  0  0  0  0  0  0  0  0
    3.5708   -0.8917    0.0000 C   0  0  0  0  0  0  0  0  0  0  0  0
    2.8542    1.9958    0.0000 C   0  0  0  0  0  0  0  0  0  0  0  0
    3.5708    1.5833    0.0000 C   0  0  0  0  0  0  0  0  0  0  0  0
  2 10  1  0  0  0  0
  3  2  1  0  0  0  0
  4  1  1  0  0  0  0
  5 18  1  0  0  0  0
  6  3  1  0  0  0  0
  7  5  3  0  0  0  0
  8  1  2  0  0  0  0
  9  1  2  0  0  0  0
 10 17  2  0  0  0  0
 11  1  1  0  0  0  0
 12  2  2  0  0  0  0
 13  4  1  0  0  0  0
 14  4  2  0  0  0  0
 15  6  2  0  0  0  0
 16 13  2  0  0  0  0
 16 10  1  0  0  0  0
 17 14  1  0  0  0  0
 18 11  1  0  0  0  0
 19  6  1  0  0  0  0
 20 15  1  0  0  0  0
 21 15  1  0  0  0  0
 22 20  1  0  0  0  0
 23 19  2  0  0  0  0
 23 24  1  0  0  0  0
 24 21  2  0  0  0  0
M  END
> <CdId>
3377

> <Mol Weight>
342.412

> <Formula>
C18H18N2O3S

> <Click_ID>
CLK044A08 __ __ 

$$$$
