CLK052H04
 OpenBabel03181419432D

 28 29  0  0  0  0  0  0  0  0999 V2000
   -1.8667    2.4917    0.0000 S    0  0  0  0  0  0  0  0  0  0  0  0
   -0.4375    0.0167    0.0000 C    0  0  0  0  0  0  0  0  0  0  0  0
    0.9917   -1.6333    0.0000 C    0  0  0  0  0  0  0  0  0  0  0  0
   -1.1500    2.0792    0.0000 C    0  0  0  0  0  0  0  0  0  0  0  0
    0.2792   -0.3958    0.0000 O    0  0  0  0  0  0  0  0  0  0  0  0
    0.9917   -2.4583    0.0000 N    0  0  0  0  0  0  0  0  0  0  0  0
   -0.4375    0.8417    0.0000 C    0  0  0  0  0  0  0  0  0  0  0  0
   -3.2958    4.1375    0.0000 C    0  0  0  0  0  0  0  0  0  0  0  0
   -1.1500    1.2542    0.0000 C    0  0  0  0  0  0  0  0  0  0  0  0
   -4.0083    4.5500    0.0000 C    0  0  0  0  0  0  0  0  0  0  0  0
   -2.2792    1.7792    0.0000 O    0  0  0  0  0  0  0  0  0  0  0  0
   -1.4542    3.2083    0.0000 O    0  0  0  0  0  0  0  0  0  0  0  0
    0.2792   -1.2208    0.0000 C    0  0  3  0  0  0  0  0  0  0  0  0
   -2.5792    2.9042    0.0000 N    0  0  0  0  0  0  0  0  0  0  0  0
   -1.1500   -0.3958    0.0000 O    0  0  0  0  0  0  0  0  0  0  0  0
    1.7083   -1.2208    0.0000 O    0  0  0  0  0  0  0  0  0  0  0  0
    1.7083   -2.8708    0.0000 C    0  0  0  0  0  0  0  0  0  0  0  0
    3.1375   -3.6958    0.0000 C    0  0  0  0  0  0  0  0  0  0  0  0
   -2.5792    3.7292    0.0000 C    0  0  0  0  0  0  0  0  0  0  0  0
    3.8500   -4.1083    0.0000 Br   0  0  0  0  0  0  0  0  0  0  0  0
    1.7083   -3.6958    0.0000 C    0  0  0  0  0  0  0  0  0  0  0  0
    2.4208   -2.4583    0.0000 C    0  0  0  0  0  0  0  0  0  0  0  0
    3.1375   -2.8708    0.0000 C    0  0  0  0  0  0  0  0  0  0  0  0
    2.4208   -4.1083    0.0000 C    0  0  0  0  0  0  0  0  0  0  0  0
   -0.4375    2.4917    0.0000 C    0  0  0  0  0  0  0  0  0  0  0  0
    0.2792    1.2542    0.0000 C    0  0  0  0  0  0  0  0  0  0  0  0
    0.2792    2.0792    0.0000 C    0  0  0  0  0  0  0  0  0  0  0  0
   -0.4375   -1.6333    0.0000 C    0  0  0  0  0  0  0  0  0  0  0  0
  2  7  1  0  0  0  0
  3 13  1  0  0  0  0
  4  1  1  0  0  0  0
  5  2  1  0  0  0  0
  6  3  1  0  0  0  0
  7  9  2  0  0  0  0
  8 19  1  0  0  0  0
  9  4  1  0  0  0  0
 10  8  3  0  0  0  0
 11  1  2  0  0  0  0
 12  1  2  0  0  0  0
 13  5  1  0  0  0  0
 14  1  1  0  0  0  0
 15  2  2  0  0  0  0
 16  3  2  0  0  0  0
 17  6  1  0  0  0  0
 18 23  2  0  0  0  0
 18 24  1  0  0  0  0
 19 14  1  0  0  0  0
 20 18  1  0  0  0  0
 21 17  1  0  0  0  0
 22 17  2  0  0  0  0
 23 22  1  0  0  0  0
 24 21  2  0  0  0  0
 25  4  2  0  0  0  0
 26  7  1  0  0  0  0
 27 25  1  0  0  0  0
 27 26  2  0  0  0  0
 28 13  1  0  0  0  0
M  END
> <CdId>
3992

> <Mol Weight>
465.318

> <Formula>
C19H17BrN2O5S

> <Click_ID>
CLK052H04 __ __ 

$$$$
