CLK019_A06
 OpenBabel03181419432D

 23 25  0  0  0  0  0  0  0  0999 V2000
    3.0217   -1.1154    0.0000 C    0  0  0  0  0  0  0  0  0  0  0  0
    2.5965   -1.8285    0.0000 C    0  0  0  0  0  0  0  0  0  0  0  0
    3.8445   -1.1291    0.0000 C    0  0  0  0  0  0  0  0  0  0  0  0
    3.0582    1.7370    0.0000 C    0  0  0  0  0  0  0  0  0  0  0  0
    2.6514    2.4548    0.0000 C    0  0  0  0  0  0  0  0  0  0  0  0
    2.6240   -0.4023    0.0000 C    0  0  0  0  0  0  0  0  0  0  0  0
    4.2696   -1.9199    0.0000 N    0  0  0  0  0  0  0  0  0  0  0  0
    1.7737   -1.8148    0.0000 C    0  0  0  0  0  0  0  0  0  0  0  0
    1.8011   -0.3886    0.0000 C    0  0  0  0  0  0  0  0  0  0  0  0
    1.3760   -1.0971    0.0000 C    0  0  0  0  0  0  0  0  0  0  0  0
    5.1747   -1.9383    0.0000 C    0  0  0  0  0  0  0  0  0  0  0  0
    6.9850   -1.9931    0.0000 C    0  0  0  0  0  0  0  0  0  0  0  0
    7.8078   -2.0159    0.0000 Br   0  0  0  0  0  0  0  0  0  0  0  0
    3.0445    0.3108    0.0000 O    0  0  0  0  0  0  0  0  0  0  0  0
    5.6090   -2.7337    0.0000 C    0  0  0  0  0  0  0  0  0  0  0  0
    5.6547   -1.1703    0.0000 C    0  0  0  0  0  0  0  0  0  0  0  0
    6.5141   -2.7611    0.0000 C    0  0  0  0  0  0  0  0  0  0  0  0
    6.5598   -1.1977    0.0000 C    0  0  0  0  0  0  0  0  0  0  0  0
    2.6377    1.0285    0.0000 C    0  0  0  0  0  0  0  0  0  0  0  0
    3.0033   -2.5417    0.0000 C    0  0  0  0  0  0  0  0  0  0  0  0
    1.3577   -2.5233    0.0000 C    0  0  0  0  0  0  0  0  0  0  0  0
    2.5782   -3.2502    0.0000 C    0  0  0  0  0  0  0  0  0  0  0  0
    1.7600   -3.2411    0.0000 C    0  0  0  0  0  0  0  0  0  0  0  0
  2  1  2  0  0  0  0
  3  1  1  0  0  0  0
  4 19  1  0  0  0  0
  5  4  3  0  0  0  0
  6  1  1  0  0  0  0
  7  3  1  0  0  0  0
  8  2  1  0  0  0  0
  8 10  2  0  0  0  0
  9  6  2  0  0  0  0
 10  9  1  0  0  0  0
 11  7  1  0  0  0  0
 12 18  1  0  0  0  0
 12 17  2  0  0  0  0
 13 12  1  0  0  0  0
 14  6  1  0  0  0  0
 15 11  2  0  0  0  0
 16 11  1  0  0  0  0
 17 15  1  0  0  0  0
 18 16  2  0  0  0  0
 19 14  1  0  0  0  0
 20  2  1  0  0  0  0
 21  8  1  0  0  0  0
 22 20  2  0  0  0  0
 23 22  1  0  0  0  0
 23 21  2  0  0  0  0
M  END
> <CdId>
1401

> <Mol Weight>
366.251

> <Formula>
C20H16BrNO

> <Click_ID>
CLK019_A06 __ __ 

$$$$
