CLK051A03
 OpenBabel03181419432D

 15 15  0  0  0  0  0  0  0  0999 V2000
   -0.7167    0.1375    0.0000 N   0  0  0  0  0  0  0  0  0  0  0  0
    2.8542    0.5500    0.0000 C   0  0  0  0  0  0  0  0  0  0  0  0
    0.0000    0.5500    0.0000 C   0  0  0  0  0  0  0  0  0  0  0  0
    3.5708    0.9625    0.0000 C   0  0  0  0  0  0  0  0  0  0  0  0
    0.7125    0.1375    0.0000 C   0  0  0  0  0  0  0  0  0  0  0  0
   -2.1458   -0.6875    0.0000 O   0  0  0  0  0  0  0  0  0  0  0  0
   -0.7167   -0.6875    0.0000 C   0  0  0  0  0  0  0  0  0  0  0  0
   -1.4292    0.5500    0.0000 C   0  0  3  0  0  0  0  0  0  0  0  0
   -2.1458    0.1375    0.0000 C   0  0  0  0  0  0  0  0  0  0  0  0
    0.7125   -0.6875    0.0000 O   0  0  0  0  0  0  0  0  0  0  0  0
    1.4250    0.5500    0.0000 N   0  0  0  0  0  0  0  0  0  0  0  0
   -1.4292   -1.1000    0.0000 C   0  0  3  0  0  0  0  0  0  0  0  0
    2.1417    0.1375    0.0000 C   0  0  0  0  0  0  0  0  0  0  0  0
   -1.4292    1.3750    0.0000 C   0  0  0  0  0  0  0  0  0  0  0  0
   -1.4292   -1.9250    0.0000 C   0  0  0  0  0  0  0  0  0  0  0  0
  2 13  1  0  0  0  0
  3  1  1  0  0  0  0
  4  2  3  0  0  0  0
  5  3  1  0  0  0  0
  6  9  1  0  0  0  0
  6 12  1  0  0  0  0
  7  1  1  0  0  0  0
  8  1  1  0  0  0  0
  9  8  1  0  0  0  0
 10  5  2  0  0  0  0
 11  5  1  0  0  0  0
 12  7  1  0  0  0  0
 13 11  1  0  0  0  0
 14  8  1  0  0  0  0
 15 12  1  0  0  0  0
M  END
> <CdId>
3897

> <Mol Weight>
210.2728

> <Formula>
C11H18N2O2

> <Click_ID>
CLK051A03 __ __ 

$$$$
