CLK022_D06
 OpenBabel03181419432D

 20 21  0  0  0  0  0  0  0  0999 V2000
    6.8612    1.4712    0.0000 C   0  0  0  0  0  0  0  0  0  0  0  0
    2.5759   -0.1696    0.0000 C   0  0  0  0  0  0  0  0  0  0  0  0
    1.8609   -0.5912    0.0000 C   0  0  0  0  0  0  0  0  0  0  0  0
    7.5762    1.0587    0.0000 N   0  0  0  0  0  0  0  0  0  0  0  0
    6.1463    1.0587    0.0000 C   0  0  0  0  0  0  0  0  0  0  0  0
    6.8612    2.2963    0.0000 O   0  0  0  0  0  0  0  0  0  0  0  0
   10.4363    0.2338    0.0000 N   0  0  0  0  0  0  0  0  0  0  0  0
    5.4313    1.4712    0.0000 C   0  0  0  0  0  0  0  0  0  0  0  0
    6.1463    0.2338    0.0000 C   0  0  0  0  0  0  0  0  0  0  0  0
    8.2912    1.4712    0.0000 C   0  0  0  0  0  0  0  0  0  0  0  0
    4.7162    0.2338    0.0000 C   0  0  0  0  0  0  0  0  0  0  0  0
    5.4313   -0.1696    0.0000 C   0  0  0  0  0  0  0  0  0  0  0  0
    4.7162    1.0587    0.0000 C   0  0  0  0  0  0  0  0  0  0  0  0
    9.0062    1.0587    0.0000 C   0  0  0  0  0  0  0  0  0  0  0  0
    3.2909    0.2338    0.0000 C   0  0  0  0  0  0  0  0  0  0  0  0
    4.0059   -0.1696    0.0000 O   0  0  0  0  0  0  0  0  0  0  0  0
    9.7212   -0.1696    0.0000 C   0  0  0  0  0  0  0  0  0  0  0  0
   10.4363    1.0587    0.0000 C   0  0  0  0  0  0  0  0  0  0  0  0
    9.7212    1.4712    0.0000 C   0  0  0  0  0  0  0  0  0  0  0  0
    9.0062    0.2338    0.0000 C   0  0  0  0  0  0  0  0  0  0  0  0
  2 15  1  0  0  0  0
  3  2  3  0  0  0  0
  4  1  1  0  0  0  0
  5  1  1  0  0  0  0
  6  1  2  0  0  0  0
  7 17  1  0  0  0  0
  8  5  1  0  0  0  0
  9  5  2  0  0  0  0
 10  4  1  0  0  0  0
 11 12  2  0  0  0  0
 12  9  1  0  0  0  0
 13  8  2  0  0  0  0
 13 11  1  0  0  0  0
 14 10  1  0  0  0  0
 15 16  1  0  0  0  0
 16 11  1  0  0  0  0
 17 20  2  0  0  0  0
 18 19  1  0  0  0  0
 18  7  2  0  0  0  0
 19 14  2  0  0  0  0
 20 14  1  0  0  0  0
M  END
> <CdId>
1665

> <Mol Weight>
266.2946

> <Formula>
C16H14N2O2

> <Click_ID>
CLK022_D06 __ __ 

$$$$
