CLK048F10
 OpenBabel03181419432D

 15 15  0  0  0  0  0  0  0  0999 V2000
   -1.6208    2.8083    0.0000 C    0  0  0  0  0  0  0  0  0  0  0  0
   -1.6208    3.6333    0.0000 C    0  0  0  0  0  0  0  0  0  0  0  0
   -0.9083    0.7458    0.0000 C    0  0  0  0  0  0  0  0  0  0  0  0
   -1.6208    0.3333    0.0000 O    0  0  0  0  0  0  0  0  0  0  0  0
    0.5208   -1.7292    0.0000 C    0  0  0  0  0  0  0  0  0  0  0  0
   -0.9083    1.5708    0.0000 N    0  0  0  0  0  0  0  0  0  0  0  0
   -0.1917   -0.4917    0.0000 O    0  0  0  0  0  0  0  0  0  0  0  0
   -0.1917    0.3333    0.0000 C    0  0  0  0  0  0  0  0  0  0  0  0
    0.5208   -0.9042    0.0000 C    0  0  0  0  0  0  0  0  0  0  0  0
    1.2375   -2.1417    0.0000 C    0  0  0  0  0  0  0  0  0  0  0  0
    1.2375   -2.9667    0.0000 Cl   0  0  0  0  0  0  0  0  0  0  0  0
   -1.6208    1.9833    0.0000 C    0  0  0  0  0  0  0  0  0  0  0  0
    1.9500   -0.9042    0.0000 C    0  0  0  0  0  0  0  0  0  0  0  0
    1.2375   -0.4917    0.0000 C    0  0  0  0  0  0  0  0  0  0  0  0
    1.9500   -1.7292    0.0000 C    0  0  0  0  0  0  0  0  0  0  0  0
  2  1  3  0  0  0  0
  3  6  1  0  0  0  0
  4  3  2  0  0  0  0
  5  9  1  0  0  0  0
  6 12  1  0  0  0  0
  7  8  1  0  0  0  0
  8  3  1  0  0  0  0
  9  7  1  0  0  0  0
 10  5  2  0  0  0  0
 11 10  1  0  0  0  0
 12  1  1  0  0  0  0
 13 14  1  0  0  0  0
 13 15  2  0  0  0  0
 14  9  2  0  0  0  0
 15 10  1  0  0  0  0
M  END
> <CdId>
3718

> <Mol Weight>
223.656

> <Formula>
C11H10ClNO2

> <Click_ID>
CLK048F10 __ __ 

$$$$
