CLK038C11
 OpenBabel03181419432D

 18 19  0  0  0  0  0  0  0  0999 V2000
   -1.1542   -0.5250    0.0000 N   0  0  0  0  0  0  0  0  0  0  0  0
    3.8500   -0.1125    0.0000 C   0  0  0  0  0  0  0  0  0  0  0  0
   -0.4375   -0.1125    0.0000 C   0  0  0  0  0  0  0  0  0  0  0  0
    4.5625    0.3000    0.0000 C   0  0  0  0  0  0  0  0  0  0  0  0
   -1.8667   -0.1125    0.0000 C   0  0  0  0  0  0  0  0  0  0  0  0
    1.7042   -0.5250    0.0000 C   0  0  0  0  0  0  0  0  0  0  0  0
    0.2750   -0.5250    0.0000 S   0  0  0  0  0  0  0  0  0  0  0  0
    1.7042   -1.3500    0.0000 O   0  0  0  0  0  0  0  0  0  0  0  0
   -1.8667    0.7125    0.0000 C   0  0  0  0  0  0  0  0  0  0  0  0
   -1.1542    1.1250    0.0000 C   0  0  0  0  0  0  0  0  0  0  0  0
    2.4208   -0.1125    0.0000 N   0  0  0  0  0  0  0  0  0  0  0  0
    0.9917   -0.1125    0.0000 C   0  0  0  0  0  0  0  0  0  0  0  0
   -0.4375    0.7125    0.0000 C   0  0  0  0  0  0  0  0  0  0  0  0
    3.1333   -0.5250    0.0000 C   0  0  0  0  0  0  0  0  0  0  0  0
   -2.5833   -0.5250    0.0000 C   0  0  0  0  0  0  0  0  0  0  0  0
   -2.5833    1.1250    0.0000 C   0  0  0  0  0  0  0  0  0  0  0  0
   -3.2958   -0.1125    0.0000 C   0  0  0  0  0  0  0  0  0  0  0  0
   -3.2958    0.7125    0.0000 C   0  0  0  0  0  0  0  0  0  0  0  0
  2 14  1  0  0  0  0
  3  1  2  0  0  0  0
  4  2  3  0  0  0  0
  5  1  1  0  0  0  0
  6 12  1  0  0  0  0
  7  3  1  0  0  0  0
  8  6  2  0  0  0  0
  9  5  2  0  0  0  0
  9 10  1  0  0  0  0
 10 13  2  0  0  0  0
 11  6  1  0  0  0  0
 12  7  1  0  0  0  0
 13  3  1  0  0  0  0
 14 11  1  0  0  0  0
 15  5  1  0  0  0  0
 16  9  1  0  0  0  0
 17 15  2  0  0  0  0
 17 18  1  0  0  0  0
 18 16  2  0  0  0  0
M  END
> <CdId>
2923

> <Mol Weight>
256.323

> <Formula>
C14H12N2OS

> <Click_ID>
CLK038C11 __ __ 

$$$$
