CLK043A09
 OpenBabel03181419432D

 24 25  0  0  0  0  0  0  0  0999 V2000
    1.3958    1.7375    0.0000 S   0  0  0  0  0  0  0  0  0  0  0  0
   -1.4625    0.0875    0.0000 C   0  0  0  0  0  0  0  0  0  0  0  0
   -1.4625   -0.7375    0.0000 N   0  0  0  0  0  0  0  0  0  0  0  0
    0.6833    1.3250    0.0000 C   0  0  0  0  0  0  0  0  0  0  0  0
   -1.4625   -3.2125    0.0000 C   0  0  0  0  0  0  0  0  0  0  0  0
    3.5417    2.1500    0.0000 C   0  0  0  0  0  0  0  0  0  0  0  0
    4.2542    2.5625    0.0000 C   0  0  0  0  0  0  0  0  0  0  0  0
    0.9833    2.4542    0.0000 O   0  0  0  0  0  0  0  0  0  0  0  0
    1.8083    1.0250    0.0000 O   0  0  0  0  0  0  0  0  0  0  0  0
   -0.7458    0.5000    0.0000 C   0  0  0  0  0  0  0  0  0  0  0  0
    2.1125    2.1500    0.0000 N   0  0  0  0  0  0  0  0  0  0  0  0
   -1.4625   -2.3875    0.0000 C   0  0  0  0  0  0  0  0  0  0  0  0
   -2.1750   -1.1500    0.0000 C   0  0  0  0  0  0  0  0  0  0  0  0
   -0.7458   -1.1500    0.0000 C   0  0  0  0  0  0  0  0  0  0  0  0
   -2.1750    0.5000    0.0000 O   0  0  0  0  0  0  0  0  0  0  0  0
   -0.7458   -3.6250    0.0000 O   0  0  0  0  0  0  0  0  0  0  0  0
    0.6833    0.5000    0.0000 C   0  0  0  0  0  0  0  0  0  0  0  0
   -0.0333    1.7375    0.0000 C   0  0  0  0  0  0  0  0  0  0  0  0
   -0.0333    0.0875    0.0000 C   0  0  0  0  0  0  0  0  0  0  0  0
   -0.7458    1.3250    0.0000 C   0  0  0  0  0  0  0  0  0  0  0  0
   -0.7458   -1.9750    0.0000 C   0  0  0  0  0  0  0  0  0  0  0  0
   -2.1750   -1.9750    0.0000 C   0  0  0  0  0  0  0  0  0  0  0  0
   -2.1750   -3.6250    0.0000 N   0  0  0  0  0  0  0  0  0  0  0  0
    2.8250    1.7375    0.0000 C   0  0  0  0  0  0  0  0  0  0  0  0
  2 10  1  0  0  0  0
  3  2  1  0  0  0  0
  4  1  1  0  0  0  0
  5 12  1  0  0  0  0
  6 24  1  0  0  0  0
  7  6  3  0  0  0  0
  8  1  2  0  0  0  0
  9  1  2  0  0  0  0
 10 20  2  0  0  0  0
 11  1  1  0  0  0  0
 12 22  1  0  0  0  0
 13  3  1  0  0  0  0
 14  3  1  0  0  0  0
 15  2  2  0  0  0  0
 16  5  2  0  0  0  0
 17  4  1  0  0  0  0
 18  4  2  0  0  0  0
 19 17  2  0  0  0  0
 19 10  1  0  0  0  0
 20 18  1  0  0  0  0
 21 14  1  0  0  0  0
 21 12  1  0  0  0  0
 22 13  1  0  0  0  0
 23  5  1  0  0  0  0
 24 11  1  0  0  0  0
M  END
> <CdId>
3305

> <Mol Weight>
349.405

> <Formula>
C16H19N3O4S

> <Click_ID>
CLK043A09 __ __ 

$$$$
