CLK019_F10
 OpenBabel03181419432D

 24 26  0  0  0  0  0  0  0  0999 V2000
    3.2982    1.6216    0.0000 C    0  0  0  0  0  0  0  0  0  0  0  0
    2.5836    1.2093    0.0000 C    0  0  0  0  0  0  0  0  0  0  0  0
    3.2982    2.4461    0.0000 C    0  0  0  0  0  0  0  0  0  0  0  0
    1.8690    1.6216    0.0000 C    0  0  0  0  0  0  0  0  0  0  0  0
    2.5836    0.3848    0.0000 C    0  0  0  0  0  0  0  0  0  0  0  0
    2.5836   -0.4398    0.0000 N    0  0  0  0  0  0  0  0  0  0  0  0
    1.1544    2.8584    0.0000 C    0  0  0  0  0  0  0  0  0  0  0  0
    6.1475    2.4461    0.0000 C    0  0  0  0  0  0  0  0  0  0  0  0
    1.8690    2.4461    0.0000 C    0  0  0  0  0  0  0  0  0  0  0  0
    6.8621    2.0339    0.0000 C    0  0  0  0  0  0  0  0  0  0  0  0
    0.4398    2.4461    0.0000 C    0  0  0  0  0  0  0  0  0  0  0  0
    0.9803    3.6646    0.0000 O    0  0  0  0  0  0  0  0  0  0  0  0
   -0.1740    3.0050    0.0000 O    0  0  0  0  0  0  0  0  0  0  0  0
    4.0036    2.8584    0.0000 C    0  0  0  0  0  0  0  0  0  0  0  0
    0.1558    3.7608    0.0000 C    0  0  0  0  0  0  0  0  0  0  0  0
    2.5836    2.8584    0.0000 C    0  0  0  0  0  0  0  0  0  0  0  0
    1.1544    1.2093    0.0000 C    0  0  0  0  0  0  0  0  0  0  0  0
    0.4398    1.6216    0.0000 C    0  0  0  0  0  0  0  0  0  0  0  0
    4.0036    3.6921    0.0000 C    0  0  0  0  0  0  0  0  0  0  0  0
    2.5836    3.6921    0.0000 C    0  0  0  0  0  0  0  0  0  0  0  0
    3.2982    4.1044    0.0000 C    0  0  0  0  0  0  0  0  0  0  0  0
    1.8690    4.1044    0.0000 Br   0  0  0  0  0  0  0  0  0  0  0  0
    4.7182    2.4461    0.0000 O    0  0  0  0  0  0  0  0  0  0  0  0
    5.4329    2.8584    0.0000 C    0  0  0  0  0  0  0  0  0  0  0  0
  2  1  2  0  0  0  0
  3  1  1  0  0  0  0
  4  2  1  0  0  0  0
  5  2  1  0  0  0  0
  6  5  3  0  0  0  0
  7  9  1  0  0  0  0
  8 24  1  0  0  0  0
  9  4  2  0  0  0  0
 10  8  3  0  0  0  0
 11 18  1  0  0  0  0
 11  7  2  0  0  0  0
 12  7  1  0  0  0  0
 13 11  1  0  0  0  0
 14  3  2  0  0  0  0
 15 12  1  0  0  0  0
 15 13  1  0  0  0  0
 16  3  1  0  0  0  0
 17  4  1  0  0  0  0
 18 17  2  0  0  0  0
 19 14  1  0  0  0  0
 19 21  2  0  0  0  0
 20 16  2  0  0  0  0
 21 20  1  0  0  0  0
 22 20  1  0  0  0  0
 23 14  1  0  0  0  0
 24 23  1  0  0  0  0
M  END
> <CdId>
1455

> <Mol Weight>
382.207

> <Formula>
C19H12BrNO3

> <Click_ID>
CLK019_F10 __ __ 

$$$$
