CLK035_G06
 OpenBabel03181419432D

 26 29  0  0  0  0  0  0  0  0999 V2000
   -4.6053    2.5636    0.0000 C   0  0  0  0  0  0  0  0  0  0  0  0
   -3.8705    2.9895    0.0000 N   0  0  0  0  0  0  0  0  0  0  0  0
   -4.6972    1.7369    0.0000 N   0  0  0  0  0  0  0  0  0  0  0  0
   -5.3318    2.9060    0.0000 S   0  0  0  0  0  0  0  0  0  0  0  0
   -3.8788    3.8079    0.0000 C   0  0  0  0  0  0  0  0  0  0  0  0
   -3.1648    4.2212    0.0000 C   0  0  3  0  0  0  0  0  0  0  0  0
   -5.5072    1.5866    0.0000 C   0  0  0  0  0  0  0  0  0  0  0  0
   -5.9080    2.3131    0.0000 C   0  0  0  0  0  0  0  0  0  0  0  0
   -2.4426    3.8037    0.0000 O   0  0  0  0  0  0  0  0  0  0  0  0
   -2.4383    5.4530    0.0000 O   0  0  0  0  0  0  0  0  0  0  0  0
   -1.7369    4.2129    0.0000 C   0  0  0  0  0  0  0  0  0  0  0  0
   -4.2797    0.3590    0.0000 C   0  0  0  0  0  0  0  0  0  0  0  0
   -4.4675   -0.4551    0.0000 C   0  0  0  0  0  0  0  0  0  0  0  0
   -3.1648    5.0396    0.0000 C   0  0  0  0  0  0  0  0  0  0  0  0
   -1.7244    5.0396    0.0000 C   0  0  0  0  0  0  0  0  0  0  0  0
   -4.5928    4.2212    0.0000 O   0  0  0  0  0  0  0  0  0  0  0  0
   -5.9373    0.8851    0.0000 C   0  0  0  0  0  0  0  0  0  0  0  0
   -4.0918    1.1649    0.0000 C   0  0  0  0  0  0  0  0  0  0  0  0
   -6.7264    2.3381    0.0000 C   0  0  0  0  0  0  0  0  0  0  0  0
   -7.1565    1.6284    0.0000 C   0  0  0  0  0  0  0  0  0  0  0  0
   -1.0229    3.8037    0.0000 C   0  0  0  0  0  0  0  0  0  0  0  0
   -6.7431    0.8977    0.0000 C   0  0  0  0  0  0  0  0  0  0  0  0
   -1.0104    5.4488    0.0000 C   0  0  0  0  0  0  0  0  0  0  0  0
   -5.5448    0.1503    0.0000 C   0  0  0  0  0  0  0  0  0  0  0  0
   -0.3006    4.2004    0.0000 C   0  0  0  0  0  0  0  0  0  0  0  0
   -0.2964    5.0354    0.0000 C   0  0  0  0  0  0  0  0  0  0  0  0
  2  1  2  0  0  0  0
  3  1  1  0  0  0  0
  4  1  1  0  0  0  0
  5  2  1  0  0  0  0
  6  5  1  0  0  0  0
  7  3  1  0  0  0  0
  8  4  1  0  0  0  0
  8  7  2  0  0  0  0
  9  6  1  0  0  0  0
 10 14  1  0  0  0  0
 11  9  1  0  0  0  0
 12 18  1  0  0  0  0
 13 12  3  0  0  0  0
 14  6  1  0  0  0  0
 15 10  1  0  0  0  0
 15 11  2  0  0  0  0
 16  5  2  0  0  0  0
 17  7  1  0  0  0  0
 18  3  1  0  0  0  0
 19  8  1  0  0  0  0
 20 19  2  0  0  0  0
 21 11  1  0  0  0  0
 22 17  2  0  0  0  0
 22 20  1  0  0  0  0
 23 15  1  0  0  0  0
 24 17  1  0  0  0  0
 25 21  2  0  0  0  0
 26 23  2  0  0  0  0
 26 25  1  0  0  0  0
M  END
> <CdId>
2710

> <Mol Weight>
364.418

> <Formula>
C20H16N2O3S

> <Click_ID>
CLK035_G06 __ __ 

$$$$
