CLK045C08
 OpenBabel03181419432D

 18 19  0  0  0  0  0  0  0  0999 V2000
   -0.1208   -0.3417    0.0000 C   0  0  0  0  0  0  0  0  0  0  0  0
   -0.1208   -1.1667    0.0000 C   0  0  0  0  0  0  0  0  0  0  0  0
    0.5917   -1.5792    0.0000 N   0  0  0  0  0  0  0  0  0  0  0  0
    0.5917    0.0708    0.0000 N   0  0  0  0  0  0  0  0  0  0  0  0
   -0.8375    2.5458    0.0000 C   0  0  0  0  0  0  0  0  0  0  0  0
   -0.8375   -2.4042    0.0000 N   0  0  0  0  0  0  0  0  0  0  0  0
   -1.5500    2.9583    0.0000 C   0  0  0  0  0  0  0  0  0  0  0  0
   -0.8375   -1.5792    0.0000 C   0  0  0  0  0  0  0  0  0  0  0  0
   -0.8375    0.0708    0.0000 O   0  0  0  0  0  0  0  0  0  0  0  0
    0.5917    0.8958    0.0000 C   0  0  0  0  0  0  0  0  0  0  0  0
    0.5917   -2.4042    0.0000 C   0  0  0  0  0  0  0  0  0  0  0  0
   -0.1208    2.1333    0.0000 C   0  0  0  0  0  0  0  0  0  0  0  0
   -0.1208   -2.8167    0.0000 C   0  0  0  0  0  0  0  0  0  0  0  0
   -0.1208    1.3083    0.0000 C   0  0  0  0  0  0  0  0  0  0  0  0
    1.3083    2.1333    0.0000 C   0  0  0  0  0  0  0  0  0  0  0  0
    1.3083    1.3083    0.0000 C   0  0  0  0  0  0  0  0  0  0  0  0
    0.5917    2.5458    0.0000 C   0  0  0  0  0  0  0  0  0  0  0  0
   -0.1208   -3.6417    0.0000 C   0  0  0  0  0  0  0  0  0  0  0  0
  2  1  1  0  0  0  0
  3  2  1  0  0  0  0
  4  1  1  0  0  0  0
  5 12  1  0  0  0  0
  6  8  1  0  0  0  0
  7  5  3  0  0  0  0
  8  2  2  0  0  0  0
  9  1  2  0  0  0  0
 10  4  1  0  0  0  0
 11  3  2  0  0  0  0
 11 13  1  0  0  0  0
 12 14  1  0  0  0  0
 13  6  2  0  0  0  0
 14 10  2  0  0  0  0
 15 16  2  0  0  0  0
 16 10  1  0  0  0  0
 17 12  2  0  0  0  0
 17 15  1  0  0  0  0
 18 13  1  0  0  0  0
M  END
> <CdId>
3459

> <Mol Weight>
237.2566

> <Formula>
C14H11N3O

> <Click_ID>
CLK045C08 __ __ 

$$$$
