CLK015_B08
 OpenBabel03181419432D

 17 18  0  0  0  0  0  0  0  0999 V2000
    7.4542   -5.2667    0.0000 N   0  0  0  0  0  0  0  0  0  0  0  0
    8.7625   -4.9917    0.0000 N   0  0  0  0  0  0  0  0  0  0  0  0
    8.3417   -4.2750    0.0000 N   0  0  0  0  0  0  0  0  0  0  0  0
    8.2125   -5.6042    0.0000 C   0  0  0  0  0  0  0  0  0  0  0  0
    7.5417   -4.4417    0.0000 C   0  0  0  0  0  0  0  0  0  0  0  0
    6.7417   -5.6792    0.0000 N   0  0  0  0  0  0  0  0  0  0  0  0
    3.1667   -8.5667    0.0000 C   0  0  0  0  0  0  0  0  0  0  0  0
    2.4542   -8.9750    0.0000 C   0  0  0  0  0  0  0  0  0  0  0  0
    6.0250   -6.0917    0.0000 C   0  0  0  0  0  0  0  0  0  0  0  0
    6.0292   -6.9167    0.0000 C   0  0  0  0  0  0  0  0  0  0  0  0
    5.3167   -7.3375    0.0000 C   0  0  0  0  0  0  0  0  0  0  0  0
    5.3167   -8.1625    0.0000 C   0  0  0  0  0  0  0  0  0  0  0  0
    3.8875   -8.1542    0.0000 C   0  0  0  0  0  0  0  0  0  0  0  0
    4.6000   -8.5750    0.0000 O   0  0  0  0  0  0  0  0  0  0  0  0
    6.7417   -8.1625    0.0000 C   0  0  0  0  0  0  0  0  0  0  0  0
    6.7417   -7.3292    0.0000 C   0  0  0  0  0  0  0  0  0  0  0  0
    6.0292   -8.5750    0.0000 C   0  0  0  0  0  0  0  0  0  0  0  0
  2  4  2  0  0  0  0
  2  3  1  0  0  0  0
  3  5  2  0  0  0  0
  4  1  1  0  0  0  0
  5  1  1  0  0  0  0
  6  1  1  0  0  0  0
  7 13  1  0  0  0  0
  8  7  3  0  0  0  0
  9  6  2  0  0  0  0
 10  9  1  0  0  0  0
 11 10  1  0  0  0  0
 12 11  2  0  0  0  0
 12 17  1  0  0  0  0
 13 14  1  0  0  0  0
 14 12  1  0  0  0  0
 15 16  1  0  0  0  0
 16 10  2  0  0  0  0
 17 15  2  0  0  0  0
M  END
> <CdId>
1093

> <Mol Weight>
226.234

> <Formula>
C12H10N4O

> <Click_ID>
CLK015_B08 __ __ 

$$$$
