CLK029_B02
 OpenBabel03181419432D

 13 14  0  0  0  0  0  0  0  0999 V2000
    0.9223    0.5429    0.0000 C   0  0  0  0  0  0  0  0  0  0  0  0
    0.3654    1.1555    0.0000 N   0  0  0  0  0  0  0  0  0  0  0  0
    0.5012   -0.1392    0.0000 N   0  0  0  0  0  0  0  0  0  0  0  0
   -0.3863    0.8214    0.0000 C   0  0  0  0  0  0  0  0  0  0  0  0
   -0.3028    0.0278    0.0000 C   0  0  0  0  0  0  0  0  0  0  0  0
    3.0941    0.2680    0.0000 C   0  0  0  0  0  0  0  0  0  0  0  0
    3.6336   -0.3237    0.0000 C   0  0  0  0  0  0  0  0  0  0  0  0
    1.7437    0.7100    0.0000 S   0  0  0  0  0  0  0  0  0  0  0  0
    2.2797    0.1253    0.0000 C   0  0  0  0  0  0  0  0  0  0  0  0
   -1.1450    1.1694    0.0000 C   0  0  0  0  0  0  0  0  0  0  0  0
   -0.9884   -0.4594    0.0000 C   0  0  0  0  0  0  0  0  0  0  0  0
   -1.7506   -0.1253    0.0000 C   0  0  0  0  0  0  0  0  0  0  0  0
   -1.8133    0.6856    0.0000 C   0  0  0  0  0  0  0  0  0  0  0  0
  2  1  2  0  0  0  0
  3  1  1  0  0  0  0
  4  2  1  0  0  0  0
  5  3  1  0  0  0  0
  5  4  1  0  0  0  0
  6  9  1  0  0  0  0
  7  6  3  0  0  0  0
  8  1  1  0  0  0  0
  9  8  1  0  0  0  0
 10  4  2  0  0  0  0
 11  5  2  0  0  0  0
 12 11  1  0  0  0  0
 13 10  1  0  0  0  0
 13 12  2  0  0  0  0
M  END
> <CdId>
2176

> <Mol Weight>
188.249

> <Formula>
C10H8N2S

> <Click_ID>
CLK029_B02 __ __ 

$$$$
