CLK009_E07
 OpenBabel03181419432D

 14 14  0  0  0  0  0  0  0  0999 V2000
   -2.0692   -0.4068    0.0000 C   0  0  0  0  0  0  0  0  0  0  0  0
   -1.1613    0.2830    0.0000 N   0  0  0  0  0  0  0  0  0  0  0  0
    0.3597    0.5246    0.0000 C   0  0  0  0  0  0  0  0  0  0  0  0
   -0.2122    1.2026    0.0000 C   0  0  0  0  0  0  0  0  0  0  0  0
   -0.2417   -0.2653    0.0000 C   0  0  0  0  0  0  0  0  0  0  0  0
   -2.0810   -1.2557    0.0000 O   0  0  0  0  0  0  0  0  0  0  0  0
   -3.0006   -0.0944    0.0000 C   0  0  0  0  0  0  0  0  0  0  0  0
    0.8725   -0.7782    0.0000 C   0  0  0  0  0  0  0  0  0  0  0  0
   -0.6838   -1.2734    0.0000 C   0  0  0  0  0  0  0  0  0  0  0  0
   -3.4134    0.6131    0.0000 C   0  0  0  0  0  0  0  0  0  0  0  0
   -3.3957   -0.8018    0.0000 C   0  0  0  0  0  0  0  0  0  0  0  0
   -4.1915   -0.8018    0.0000 C   0  0  0  0  0  0  0  0  0  0  0  0
   -4.2210    0.6131    0.0000 C   0  0  0  0  0  0  0  0  0  0  0  0
   -4.6160   -0.0944    0.0000 C   0  0  0  0  0  0  0  0  0  0  0  0
  2  1  1  0  0  0  0
  3  5  1  0  0  0  0
  4  3  3  0  0  0  0
  5  2  1  0  0  0  0
  6  1  2  0  0  0  0
  7  1  1  0  0  0  0
  8  5  1  0  0  0  0
  9  5  1  0  0  0  0
 10  7  2  0  0  0  0
 11  7  1  0  0  0  0
 12 11  2  0  0  0  0
 13 10  1  0  0  0  0
 14 12  1  0  0  0  0
 14 13  2  0  0  0  0
M  END
> <CdId>
642

> <Mol Weight>
187.2377

> <Formula>
C12H13NO

> <Click_ID>
CLK009_E07 __ __ 

$$$$
