CLK005_F09
 OpenBabel03181419432D

 24 26  0  0  0  0  0  0  0  0999 V2000
   -0.5650    0.1744    0.0000 C   0  0  3  0  0  0  0  0  0  0  0  0
   -1.3763    0.0303    0.0000 C   0  0  0  0  0  0  0  0  0  0  0  0
   -0.1820   -0.5535    0.0000 C   0  0  0  0  0  0  0  0  0  0  0  0
    0.3640    0.8076    0.0000 C   0  0  3  0  0  0  0  0  0  0  0  0
   -0.8265    1.1109    0.0000 O   0  0  0  0  0  0  0  0  0  0  0  0
   -1.4939   -0.7849    0.0000 C   0  0  0  0  0  0  0  0  0  0  0  0
   -2.0247    0.5460    0.0000 C   0  0  0  0  0  0  0  0  0  0  0  0
   -0.7584   -1.1451    0.0000 N   0  0  0  0  0  0  0  0  0  0  0  0
    0.6370   -0.6711    0.0000 O   0  0  0  0  0  0  0  0  0  0  0  0
    1.1527    0.3867    0.0000 C   0  0  0  0  0  0  0  0  0  0  0  0
    0.3147    1.6229    0.0000 C   0  0  0  0  0  0  0  0  0  0  0  0
   -2.2560   -1.0882    0.0000 C   0  0  0  0  0  0  0  0  0  0  0  0
   -2.7944    0.2351    0.0000 C   0  0  0  0  0  0  0  0  0  0  0  0
   -0.6142   -1.9527    0.0000 C   0  0  0  0  0  0  0  0  0  0  0  0
    1.8541    0.8341    0.0000 C   0  0  0  0  0  0  0  0  0  0  0  0
    1.1868   -0.2995    0.0000 O   0  0  0  0  0  0  0  0  0  0  0  0
   -2.9081   -0.5801    0.0000 C   0  0  0  0  0  0  0  0  0  0  0  0
   -1.2436   -2.4911    0.0000 C   0  0  0  0  0  0  0  0  0  0  0  0
    1.8124    1.6607    0.0000 C   0  0  0  0  0  0  0  0  0  0  0  0
    2.5821    0.4512    0.0000 C   0  0  0  0  0  0  0  0  0  0  0  0
   -1.8769   -3.0144    0.0000 C   0  0  0  0  0  0  0  0  0  0  0  0
    2.5062    2.1005    0.0000 C   0  0  0  0  0  0  0  0  0  0  0  0
    3.2759    0.8948    0.0000 C   0  0  0  0  0  0  0  0  0  0  0  0
    3.2419    1.7214    0.0000 C   0  0  0  0  0  0  0  0  0  0  0  0
  1  2  1  0  0  0  0
  1  3  1  0  0  0  0
  1  4  1  0  0  0  0
  1  5  1  0  0  0  0
  2  6  2  0  0  0  0
  2  7  1  0  0  0  0
  3  8  1  0  0  0  0
  3  9  2  0  0  0  0
  4 10  1  0  0  0  0
  4 11  1  0  0  0  0
  6 12  1  0  0  0  0
  6  8  1  0  0  0  0
  7 13  2  0  0  0  0
  8 14  1  0  0  0  0
 10 15  1  0  0  0  0
 10 16  2  0  0  0  0
 12 17  2  0  0  0  0
 13 17  1  0  0  0  0
 14 18  1  0  0  0  0
 15 19  2  0  0  0  0
 15 20  1  0  0  0  0
 18 21  3  0  0  0  0
 19 22  1  0  0  0  0
 20 23  2  0  0  0  0
 22 24  2  0  0  0  0
 23 24  1  0  0  0  0
M  END
> <CdId>
378

> <Mol Weight>
319.3539

> <Formula>
C20H17NO3

> <Click_ID>
CLK005_F09 __ __ 

$$$$
