CLK007_C03
 OpenBabel03181419432D

 32 36  0  0  0  0  0  0  0  0999 V2000
    6.2492  -19.1999    0.0000 C   0  0  3  0  0  0  0  0  0  0  0  0
    5.8426  -19.9135    0.0000 C   0  0  0  0  0  0  0  0  0  0  0  0
    5.0210  -19.9219    0.0000 C   0  0  0  0  0  0  0  0  0  0  0  0
    5.8301  -18.4861    0.0000 C   0  0  0  0  0  0  0  0  0  0  0  0
    6.9338  -18.7351    0.0000 C   0  0  0  0  0  0  0  0  0  0  0  0
    4.5935  -19.2039    0.0000 N   0  0  0  0  0  0  0  0  0  0  0  0
    5.0085  -18.4861    0.0000 C   0  0  0  0  0  0  0  0  0  0  0  0
    7.5894  -19.2413    0.0000 N   0  0  0  0  0  0  0  0  0  0  0  0
    6.4774  -19.9841    0.0000 C   0  0  0  0  0  0  0  0  0  0  0  0
    7.3031  -20.0215    0.0000 C   0  0  0  0  0  0  0  0  0  0  0  0
    5.5770  -20.6937    0.0000 C   0  0  0  0  0  0  0  0  0  0  0  0
    6.2367  -17.7683    0.0000 C   0  0  0  0  0  0  0  0  0  0  0  0
    5.3155  -21.4738    0.0000 N   0  0  0  0  0  0  0  0  0  0  0  0
    8.9754  -19.5858    0.0000 C   0  0  0  0  0  0  0  0  0  0  0  0
    9.5439  -20.1749    0.0000 C   0  0  0  0  0  0  0  0  0  0  0  0
    7.2492  -17.9633    0.0000 O   0  0  0  0  0  0  0  0  0  0  0  0
    3.7719  -19.2081    0.0000 C   0  0  0  0  0  0  0  0  0  0  0  0
    4.4981  -20.5568    0.0000 N   0  0  0  0  0  0  0  0  0  0  0  0
    8.3903  -19.0172    0.0000 C   0  0  0  0  0  0  0  0  0  0  0  0
    2.5437  -19.9260    0.0000 N   0  0  0  0  0  0  0  0  0  0  0  0
    6.9587  -17.3491    0.0000 O   0  0  0  0  0  0  0  0  0  0  0  0
    4.5853  -17.7848    0.0000 C   0  0  0  0  0  0  0  0  0  0  0  0
    6.0376  -20.6853    0.0000 C   0  0  0  0  0  0  0  0  0  0  0  0
    7.6890  -20.7476    0.0000 C   0  0  0  0  0  0  0  0  0  0  0  0
    3.3653  -19.9301    0.0000 C   0  0  0  0  0  0  0  0  0  0  0  0
    5.8135  -17.0587    0.0000 C   0  0  0  0  0  0  0  0  0  0  0  0
    4.9919  -17.0670    0.0000 C   0  0  0  0  0  0  0  0  0  0  0  0
    2.1245  -19.2123    0.0000 C   0  0  0  0  0  0  0  0  0  0  0  0
    3.3653  -18.4903    0.0000 C   0  0  0  0  0  0  0  0  0  0  0  0
    6.4235  -21.4198    0.0000 C   0  0  0  0  0  0  0  0  0  0  0  0
    7.2492  -21.4489    0.0000 C   0  0  0  0  0  0  0  0  0  0  0  0
    2.5437  -18.4944    0.0000 C   0  0  0  0  0  0  0  0  0  0  0  0
  2  1  1  0  0  0  0
  3  2  2  0  0  0  0
  4  1  1  0  0  0  0
  5  1  1  0  0  0  0
  6  7  1  0  0  0  0
  6  3  1  0  0  0  0
  7  4  2  0  0  0  0
  8  5  1  0  0  0  0
  8 10  1  0  0  0  0
  9  1  1  0  0  0  0
 10  9  2  0  0  0  0
 11  2  1  0  0  0  0
 12  4  1  0  0  0  0
 13 11  3  0  0  0  0
 14 19  1  0  0  0  0
 15 14  3  0  0  0  0
 16  5  2  0  0  0  0
 17  6  1  0  0  0  0
 18  3  1  0  0  0  0
 19  8  1  0  0  0  0
 20 25  2  0  0  0  0
 21 12  2  0  0  0  0
 22  7  1  0  0  0  0
 23  9  1  0  0  0  0
 24 10  1  0  0  0  0
 25 17  1  0  0  0  0
 26 12  1  0  0  0  0
 27 26  1  0  0  0  0
 27 22  1  0  0  0  0
 28 32  2  0  0  0  0
 28 20  1  0  0  0  0
 29 17  2  0  0  0  0
 30 23  2  0  0  0  0
 31 30  1  0  0  0  0
 31 24  2  0  0  0  0
 32 29  1  0  0  0  0
M  END
> <CdId>
502

> <Mol Weight>
421.4507

> <Formula>
C25H19N5O2

> <Click_ID>
CLK007_C03 __ __ 

$$$$
