CLK004_A08
 OpenBabel03181419432D

 29 32  0  0  0  0  0  0  0  0999 V2000
    0.4881   -0.0928    0.0000 C   0  0  0  0  0  0  0  0  0  0  0  0
   -0.3334   -0.0928    0.0000 C   0  0  0  0  0  0  0  0  0  0  0  0
    0.9005   -0.8008    0.0000 C   0  0  0  0  0  0  0  0  0  0  0  0
    0.9005    0.6221    0.0000 C   0  0  0  0  0  0  0  0  0  0  0  0
   -0.7424    0.6187    0.0000 C   0  0  0  0  0  0  0  0  0  0  0  0
   -0.7424   -0.8008    0.0000 C   0  0  0  0  0  0  0  0  0  0  0  0
    1.7324   -0.8112    0.0000 C   0  0  0  0  0  0  0  0  0  0  0  0
    0.4881   -1.5193    0.0000 C   0  0  0  0  0  0  0  0  0  0  0  0
    1.7359    0.6221    0.0000 C   0  0  0  0  0  0  0  0  0  0  0  0
    0.4881    1.3405    0.0000 O   0  0  0  0  0  0  0  0  0  0  0  0
   -0.4881    1.3956    0.0000 C   0  0  0  0  0  0  0  0  0  0  0  0
   -1.5674    0.6187    0.0000 C   0  0  0  0  0  0  0  0  0  0  0  0
   -0.4950   -1.5880    0.0000 C   0  0  0  0  0  0  0  0  0  0  0  0
   -1.5674   -0.8008    0.0000 C   0  0  0  0  0  0  0  0  0  0  0  0
    2.1484   -0.0928    0.0000 C   0  0  0  0  0  0  0  0  0  0  0  0
    2.1415   -1.5227    0.0000 C   0  0  0  0  0  0  0  0  0  0  0  0
    0.8971   -2.2343    0.0000 C   0  0  0  0  0  0  0  0  0  0  0  0
    0.9005    2.0521    0.0000 C   0  0  0  0  0  0  0  0  0  0  0  0
   -1.1549    1.8802    0.0000 N   0  0  0  0  0  0  0  0  0  0  0  0
    0.2990    1.6533    0.0000 C   0  0  0  0  0  0  0  0  0  0  0  0
   -1.8149    1.4024    0.0000 N   0  0  0  0  0  0  0  0  0  0  0  0
   -2.2824    0.2131    0.0000 O   0  0  0  0  0  0  0  0  0  0  0  0
   -1.1584   -2.0693    0.0000 N   0  0  0  0  0  0  0  0  0  0  0  0
    0.2888   -1.8493    0.0000 C   0  0  0  0  0  0  0  0  0  0  0  0
   -1.8149   -1.5812    0.0000 N   0  0  0  0  0  0  0  0  0  0  0  0
   -2.3649   -0.5843    0.0000 O   0  0  0  0  0  0  0  0  0  0  0  0
    1.7221   -2.2412    0.0000 C   0  0  0  0  0  0  0  0  0  0  0  0
    0.4881    2.7740    0.0000 C   0  0  0  0  0  0  0  0  0  0  0  0
    0.9005    3.4855    0.0000 C   0  0  0  0  0  0  0  0  0  0  0  0
  1  2  1  0  0  0  0
  1  3  1  0  0  0  0
  1  4  2  0  0  0  0
  2  5  1  0  0  0  0
  2  6  1  0  0  0  0
  3  7  1  0  0  0  0
  3  8  2  0  0  0  0
  4  9  1  0  0  0  0
  4 10  1  0  0  0  0
  5 11  1  0  0  0  0
  5 12  2  0  0  0  0
  6 13  1  0  0  0  0
  6 14  2  0  0  0  0
  7 15  1  0  0  0  0
  7 16  2  0  0  0  0
  8 17  1  0  0  0  0
  9 15  2  0  0  0  0
 10 18  1  0  0  0  0
 11 19  2  0  0  0  0
 11 20  1  0  0  0  0
 12 21  1  0  0  0  0
 12 22  1  0  0  0  0
 13 23  2  0  0  0  0
 13 24  1  0  0  0  0
 14 25  1  0  0  0  0
 14 26  1  0  0  0  0
 16 27  1  0  0  0  0
 17 27  2  0  0  0  0
 18 28  1  0  0  0  0
 19 21  1  0  0  0  0
 23 25  1  0  0  0  0
 28 29  3  0  0  0  0
M  END
> <CdId>
247

> <Mol Weight>
388.4192

> <Formula>
C22H20N4O3

> <Click_ID>
CLK004_A08 __ __ 

$$$$
