CLK045A05
 OpenBabel03181419432D

 30 32  0  0  0  0  0  0  0  0999 V2000
   -0.3333   -0.8165    0.0000 C   0  0  0  0  0  0  0  0  0  0  0  0
    2.2496    1.9455    0.0000 S   0  0  0  0  0  0  0  0  0  0  0  0
   -1.1165   -0.5625    0.0000 N   0  0  0  0  0  0  0  0  0  0  0  0
   -1.5998   -1.2290    0.0000 C   0  0  0  0  0  0  0  0  0  0  0  0
    0.3333   -0.3292    0.0000 N   0  0  0  0  0  0  0  0  0  0  0  0
   -0.3333   -1.6415    0.0000 S   0  0  0  0  0  0  0  0  0  0  0  0
   -1.1165   -1.8955    0.0000 C   0  0  0  0  0  0  0  0  0  0  0  0
    1.0873   -0.6666    0.0000 C   0  0  0  0  0  0  0  0  0  0  0  0
   -2.4246   -1.2290    0.0000 C   0  0  0  0  0  0  0  0  0  0  0  0
    2.3371    1.1248    0.0000 C   0  0  0  0  0  0  0  0  0  0  0  0
    1.7580   -0.1833    0.0000 C   0  0  0  0  0  0  0  0  0  0  0  0
   -2.8371   -1.9414    0.0000 C   0  0  0  0  0  0  0  0  0  0  0  0
    2.7454    4.0661    0.0000 C   0  0  0  0  0  0  0  0  0  0  0  0
    1.6706    0.6374    0.0000 C   0  0  0  0  0  0  0  0  0  0  0  0
   -3.6619   -1.9414    0.0000 C   0  0  0  0  0  0  0  0  0  0  0  0
    2.6579    4.8868    0.0000 C   0  0  0  0  0  0  0  0  0  0  0  0
    3.0703    2.0289    0.0000 O   0  0  0  0  0  0  0  0  0  0  0  0
    1.4290    1.8580    0.0000 O   0  0  0  0  0  0  0  0  0  0  0  0
    2.1663    2.7663    0.0000 N   0  0  0  0  0  0  0  0  0  0  0  0
   -4.0743   -1.2290    0.0000 C   0  0  0  0  0  0  0  0  0  0  0  0
    1.1748   -1.4873    0.0000 O   0  0  0  0  0  0  0  0  0  0  0  0
   -2.8371   -0.5125    0.0000 C   0  0  0  0  0  0  0  0  0  0  0  0
   -3.6619   -0.5125    0.0000 C   0  0  0  0  0  0  0  0  0  0  0  0
   -4.0743   -2.6579    0.0000 F   0  0  0  0  0  0  0  0  0  0  0  0
   -4.8993   -1.2290    0.0000 F   0  0  0  0  0  0  0  0  0  0  0  0
    2.8329    3.2495    0.0000 C   0  0  0  0  0  0  0  0  0  0  0  0
   -1.3706   -2.6788    0.0000 C   0  0  0  0  0  0  0  0  0  0  0  0
    3.0912    0.7873    0.0000 C   0  0  0  0  0  0  0  0  0  0  0  0
    2.5079   -0.5167    0.0000 C   0  0  0  0  0  0  0  0  0  0  0  0
    3.1787   -0.0333    0.0000 C   0  0  0  0  0  0  0  0  0  0  0  0
  2 10  1  0  0  0  0
  3  1  2  0  0  0  0
  4  3  1  0  0  0  0
  4  7  2  0  0  0  0
  5  1  1  0  0  0  0
  6  1  1  0  0  0  0
  7  6  1  0  0  0  0
  8  5  1  0  0  0  0
  9  4  1  0  0  0  0
 10 14  1  0  0  0  0
 11  8  1  0  0  0  0
 12  9  2  0  0  0  0
 13 26  1  0  0  0  0
 14 11  2  0  0  0  0
 15 12  1  0  0  0  0
 16 13  3  0  0  0  0
 17  2  2  0  0  0  0
 18  2  2  0  0  0  0
 19  2  1  0  0  0  0
 20 15  2  0  0  0  0
 20 23  1  0  0  0  0
 21  8  2  0  0  0  0
 22  9  1  0  0  0  0
 23 22  2  0  0  0  0
 24 15  1  0  0  0  0
 25 20  1  0  0  0  0
 26 19  1  0  0  0  0
 27  7  1  0  0  0  0
 28 10  2  0  0  0  0
 28 30  1  0  0  0  0
 29 11  1  0  0  0  0
 30 29  2  0  0  0  0
M  END
> <CdId>
3433

> <Mol Weight>
447.478

> <Formula>
C20H15F2N3O3S2

> <Click_ID>
CLK045A05 __ __ 

$$$$
