CLK048C05
 OpenBabel03181419432D

 25 27  0  0  0  0  0  0  0  0999 V2000
    0.3912    3.3376    0.0000 N   0  0  0  0  0  0  0  0  0  0  0  0
   -0.0916    3.9993    0.0000 C   0  0  0  0  0  0  0  0  0  0  0  0
    0.8157   -4.5986    0.0000 C   0  0  0  0  0  0  0  0  0  0  0  0
   -0.3288   -1.1943    0.0000 C   0  0  0  0  0  0  0  0  0  0  0  0
    1.3650   -5.2103    0.0000 C   0  0  0  0  0  0  0  0  0  0  0  0
    0.1373    2.5552    0.0000 C   0  0  0  0  0  0  0  0  0  0  0  0
   -0.0749   -0.4078    0.0000 C   0  0  0  0  0  0  0  0  0  0  0  0
    0.2205   -1.8061    0.0000 N   0  0  0  0  0  0  0  0  0  0  0  0
   -0.6242    0.2040    0.0000 C   0  0  0  0  0  0  0  0  0  0  0  0
   -0.9156    3.9993    0.0000 O   0  0  0  0  0  0  0  0  0  0  0  0
   -0.0333   -2.5885    0.0000 C   0  0  0  0  0  0  0  0  0  0  0  0
   -1.1361   -1.3650    0.0000 O   0  0  0  0  0  0  0  0  0  0  0  0
   -0.6700    2.3846    0.0000 C   0  0  0  0  0  0  0  0  0  0  0  0
    0.6909    1.9434    0.0000 C   0  0  0  0  0  0  0  0  0  0  0  0
    0.2664   -3.9826    0.0000 C   0  0  0  0  0  0  0  0  0  0  0  0
   -0.3703    0.9863    0.0000 C   0  0  0  0  0  0  0  0  0  0  0  0
    0.5202   -3.2003    0.0000 C   0  0  0  0  0  0  0  0  0  0  0  0
    1.1778    3.5914    0.0000 C   0  0  0  0  0  0  0  0  0  0  0  0
    0.4328    1.1569    0.0000 C   0  0  0  0  0  0  0  0  0  0  0  0
   -0.9239    1.5980    0.0000 C   0  0  0  0  0  0  0  0  0  0  0  0
    0.3912    4.6693    0.0000 C   0  0  0  0  0  0  0  0  0  0  0  0
    1.1778    4.4113    0.0000 C   0  0  0  0  0  0  0  0  0  0  0  0
   -1.0945   -3.5415    0.0000 C   0  0  0  0  0  0  0  0  0  0  0  0
   -0.8365   -2.7591    0.0000 C   0  0  0  0  0  0  0  0  0  0  0  0
   -0.5410   -4.1574    0.0000 C   0  0  0  0  0  0  0  0  0  0  0  0
  2  1  1  0  0  0  0
  3 15  1  0  0  0  0
  4  7  1  0  0  0  0
  5  3  3  0  0  0  0
  6  1  1  0  0  0  0
  7  9  2  0  0  0  0
  8  4  1  0  0  0  0
  9 16  1  0  0  0  0
 10  2  2  0  0  0  0
 11  8  1  0  0  0  0
 12  4  2  0  0  0  0
 13  6  2  0  0  0  0
 14  6  1  0  0  0  0
 15 17  1  0  0  0  0
 16 20  2  0  0  0  0
 17 11  2  0  0  0  0
 18  1  1  0  0  0  0
 19 14  2  0  0  0  0
 19 16  1  0  0  0  0
 20 13  1  0  0  0  0
 21  2  1  0  0  0  0
 21 22  1  0  0  0  0
 22 18  1  0  0  0  0
 23 24  2  0  0  0  0
 24 11  1  0  0  0  0
 25 15  2  0  0  0  0
 25 23  1  0  0  0  0
M  END
> <CdId>
3675

> <Mol Weight>
330.3798

> <Formula>
C21H18N2O2

> <Click_ID>
CLK048C05 __ __ 

$$$$
