CLK032_E07
 OpenBabel03181419432D

 24 26  0  0  0  0  0  0  0  0999 V2000
   -1.4246    2.6385    0.0000 C    0  0  0  0  0  0  0  0  0  0  0  0
   -0.6000    2.6339    0.0000 N    0  0  0  0  0  0  0  0  0  0  0  0
   -1.9056    1.9880    0.0000 N    0  0  0  0  0  0  0  0  0  0  0  0
   -1.9056    3.3210    0.0000 S    0  0  0  0  0  0  0  0  0  0  0  0
   -2.6889    2.2354    0.0000 C    0  0  0  0  0  0  0  0  0  0  0  0
   -2.6889    3.0599    0.0000 C    0  0  0  0  0  0  0  0  0  0  0  0
   -0.1787    3.3348    0.0000 C    0  0  0  0  0  0  0  0  0  0  0  0
   -3.4035    1.8231    0.0000 C    0  0  0  0  0  0  0  0  0  0  0  0
   -3.4035    3.4722    0.0000 C    0  0  0  0  0  0  0  0  0  0  0  0
   -4.1181    2.2354    0.0000 C    0  0  0  0  0  0  0  0  0  0  0  0
   -0.8383    1.0169    0.0000 C    0  0  0  0  0  0  0  0  0  0  0  0
    0.6505    3.3210    0.0000 C    0  0  0  0  0  0  0  0  0  0  0  0
   -0.0366    0.8474    0.0000 C    0  0  0  0  0  0  0  0  0  0  0  0
   -4.1181    3.0599    0.0000 C    0  0  0  0  0  0  0  0  0  0  0  0
   -0.5909    4.0403    0.0000 O    0  0  0  0  0  0  0  0  0  0  0  0
    1.0628    2.6064    0.0000 C    0  0  0  0  0  0  0  0  0  0  0  0
   -1.6445    1.1910    0.0000 C    0  0  0  0  0  0  0  0  0  0  0  0
   -3.4035    0.9986    0.0000 F    0  0  0  0  0  0  0  0  0  0  0  0
    1.8873    2.6064    0.0000 C    0  0  0  0  0  0  0  0  0  0  0  0
   -4.8327    3.4859    0.0000 F    0  0  0  0  0  0  0  0  0  0  0  0
    2.2996    1.8918    0.0000 Br   0  0  0  0  0  0  0  0  0  0  0  0
    1.0628    4.0356    0.0000 C    0  0  0  0  0  0  0  0  0  0  0  0
    1.8873    4.0356    0.0000 C    0  0  0  0  0  0  0  0  0  0  0  0
    2.2996    3.3210    0.0000 C    0  0  0  0  0  0  0  0  0  0  0  0
  2  1  2  0  0  0  0
  3  1  1  0  0  0  0
  4  1  1  0  0  0  0
  5  3  1  0  0  0  0
  5  6  2  0  0  0  0
  6  4  1  0  0  0  0
  7  2  1  0  0  0  0
  8  5  1  0  0  0  0
  9  6  1  0  0  0  0
 10  8  2  0  0  0  0
 10 14  1  0  0  0  0
 11 17  1  0  0  0  0
 12  7  1  0  0  0  0
 13 11  3  0  0  0  0
 14  9  2  0  0  0  0
 15  7  2  0  0  0  0
 16 12  2  0  0  0  0
 17  3  1  0  0  0  0
 18  8  1  0  0  0  0
 19 16  1  0  0  0  0
 19 24  2  0  0  0  0
 20 14  1  0  0  0  0
 21 19  1  0  0  0  0
 22 12  1  0  0  0  0
 23 22  2  0  0  0  0
 24 23  1  0  0  0  0
M  END
> <CdId>
2451

> <Mol Weight>
407.232

> <Formula>
C17H9BrF2N2OS

> <Click_ID>
CLK032_E07 __ __ 

$$$$
