CLK011_A05
 OpenBabel03181419432D

 22 23  0  0  0  0  0  0  0  0999 V2000
    2.7177    0.4522    0.0000 N   0  0  0  0  0  0  0  0  0  0  0  0
    2.4539   -0.3392    0.0000 C   0  0  0  0  0  0  0  0  0  0  0  0
    2.0477    0.9380    0.0000 C   0  0  0  0  0  0  0  0  0  0  0  0
    1.3735    0.4522    0.0000 C   0  0  0  0  0  0  0  0  0  0  0  0
    1.6331   -0.3392    0.0000 S   0  0  0  0  0  0  0  0  0  0  0  0
    0.5904    0.7118    0.0000 C   0  0  0  0  0  0  0  0  0  0  0  0
   -3.2620   -1.7881    0.0000 C   0  0  0  0  0  0  0  0  0  0  0  0
   -3.8776   -2.3408    0.0000 C   0  0  0  0  0  0  0  0  0  0  0  0
    2.9438   -1.0092    0.0000 O   0  0  0  0  0  0  0  0  0  0  0  0
   -0.4606   -1.2102    0.0000 C   0  0  0  0  0  0  0  0  0  0  0  0
    2.0393    1.7671    0.0000 O   0  0  0  0  0  0  0  0  0  0  0  0
   -0.0209    0.1507    0.0000 C   0  0  0  0  0  0  0  0  0  0  0  0
    0.1507   -0.6575    0.0000 C   0  0  0  0  0  0  0  0  0  0  0  0
   -1.2395   -0.9590    0.0000 C   0  0  0  0  0  0  0  0  0  0  0  0
    3.5092    0.7118    0.0000 C   0  0  0  0  0  0  0  0  0  0  0  0
   -1.4070   -0.1507    0.0000 C   0  0  0  0  0  0  0  0  0  0  0  0
   -0.7998    0.4020    0.0000 C   0  0  0  0  0  0  0  0  0  0  0  0
   -0.2973   -2.0100    0.0000 O   0  0  0  0  0  0  0  0  0  0  0  0
   -1.8592   -1.4992    0.0000 O   0  0  0  0  0  0  0  0  0  0  0  0
   -2.6465   -1.2479    0.0000 C   0  0  0  0  0  0  0  0  0  0  0  0
    0.4899   -2.2612    0.0000 C   0  0  0  0  0  0  0  0  0  0  0  0
    0.6575   -3.0652    0.0000 C   0  0  0  0  0  0  0  0  0  0  0  0
  2  1  1  0  0  0  0
  3  1  1  0  0  0  0
  4  3  1  0  0  0  0
  5  2  1  0  0  0  0
  5  4  1  0  0  0  0
  6  4  2  0  0  0  0
  7 20  1  0  0  0  0
  8  7  3  0  0  0  0
  9  2  2  0  0  0  0
 10 13  1  0  0  0  0
 11  3  2  0  0  0  0
 12  6  1  0  0  0  0
 13 12  2  0  0  0  0
 14 16  1  0  0  0  0
 14 10  2  0  0  0  0
 15  1  1  0  0  0  0
 16 17  2  0  0  0  0
 17 12  1  0  0  0  0
 18 10  1  0  0  0  0
 19 14  1  0  0  0  0
 20 19  1  0  0  0  0
 21 18  1  0  0  0  0
 22 21  1  0  0  0  0
M  END
> <CdId>
760

> <Mol Weight>
317.36

> <Formula>
C16H15NO4S

> <Click_ID>
CLK011_A05 __ __ 

$$$$
