CLK044D08
 OpenBabel03181419432D

 22 23  0  0  0  0  0  0  0  0999 V2000
   -0.1000    0.3958    0.0000 C    0  0  0  0  0  0  0  0  0  0  0  0
   -0.8125    0.8083    0.0000 N    0  0  0  0  0  0  0  0  0  0  0  0
    2.0458   -3.3167    0.0000 C    0  0  0  0  0  0  0  0  0  0  0  0
    0.6167   -0.8417    0.0000 N    0  0  0  0  0  0  0  0  0  0  0  0
   -1.5292    2.8708    0.0000 C    0  0  0  0  0  0  0  0  0  0  0  0
    2.7583   -3.7292    0.0000 C    0  0  0  0  0  0  0  0  0  0  0  0
   -1.5292    2.0458    0.0000 C    0  0  0  0  0  0  0  0  0  0  0  0
   -0.1000   -0.4292    0.0000 C    0  0  3  0  0  0  0  0  0  0  0  0
   -0.8125    1.6333    0.0000 C    0  0  0  0  0  0  0  0  0  0  0  0
   -0.8125    3.2833    0.0000 C    0  0  0  0  0  0  0  0  0  0  0  0
    0.6167    0.8083    0.0000 O    0  0  0  0  0  0  0  0  0  0  0  0
    0.6167   -1.6667    0.0000 C    0  0  0  0  0  0  0  0  0  0  0  0
   -0.1000    2.8708    0.0000 C    0  0  0  0  0  0  0  0  0  0  0  0
    1.3292   -2.9042    0.0000 C    0  0  0  0  0  0  0  0  0  0  0  0
    1.3292   -2.0792    0.0000 C    0  0  0  0  0  0  0  0  0  0  0  0
   -2.2417    3.2833    0.0000 Cl   0  0  0  0  0  0  0  0  0  0  0  0
   -0.1000    2.0458    0.0000 C    0  0  0  0  0  0  0  0  0  0  0  0
   -0.8125    4.1042    0.0000 F    0  0  0  0  0  0  0  0  0  0  0  0
   -0.1000   -2.9042    0.0000 C    0  0  0  0  0  0  0  0  0  0  0  0
   -0.1000   -2.0792    0.0000 C    0  0  0  0  0  0  0  0  0  0  0  0
   -0.8125   -0.8417    0.0000 C    0  0  0  0  0  0  0  0  0  0  0  0
    0.6167   -3.3167    0.0000 C    0  0  0  0  0  0  0  0  0  0  0  0
  2  1  1  0  0  0  0
  3 14  1  0  0  0  0
  4  8  1  0  0  0  0
  5  7  1  0  0  0  0
  6  3  3  0  0  0  0
  7  9  2  0  0  0  0
  8  1  1  0  0  0  0
  9  2  1  0  0  0  0
 10  5  2  0  0  0  0
 10 13  1  0  0  0  0
 11  1  2  0  0  0  0
 12  4  1  0  0  0  0
 13 17  2  0  0  0  0
 14 15  1  0  0  0  0
 15 12  2  0  0  0  0
 16  5  1  0  0  0  0
 17  9  1  0  0  0  0
 18 10  1  0  0  0  0
 19 20  2  0  0  0  0
 20 12  1  0  0  0  0
 21  8  1  0  0  0  0
 22 14  2  0  0  0  0
 22 19  1  0  0  0  0
M  END
> <CdId>
3380

> <Mol Weight>
316.757

> <Formula>
C17H14ClFN2O

> <Click_ID>
CLK044D08 __ __ 

$$$$
