CLK020_D02
 OpenBabel03181419432D

 25 27  0  0  0  0  0  0  0  0999 V2000
    4.9912    2.6354    0.0000 C   0  0  0  0  0  0  0  0  0  0  0  0
    4.5787    1.9204    0.0000 C   0  0  0  0  0  0  0  0  0  0  0  0
    4.4321    3.2404    0.0000 N   0  0  0  0  0  0  0  0  0  0  0  0
    5.8162    2.6354    0.0000 N   0  0  0  0  0  0  0  0  0  0  0  0
    5.8162    1.2054    0.0000 N   0  0  0  0  0  0  0  0  0  0  0  0
    3.7721    2.0854    0.0000 N   0  0  0  0  0  0  0  0  0  0  0  0
    6.2287    1.9204    0.0000 C   0  0  0  0  0  0  0  0  0  0  0  0
    4.9912    1.2054    0.0000 C   0  0  0  0  0  0  0  0  0  0  0  0
    3.6850    2.9104    0.0000 C   0  0  0  0  0  0  0  0  0  0  0  0
    3.1534    1.5354    0.0000 C   0  0  0  0  0  0  0  0  0  0  0  0
    2.2550    4.5512    0.0000 C   0  0  0  0  0  0  0  0  0  0  0  0
    7.0537    1.9204    0.0000 O   0  0  0  0  0  0  0  0  0  0  0  0
    4.5787    0.4904    0.0000 O   0  0  0  0  0  0  0  0  0  0  0  0
    1.5400    4.9637    0.0000 C   0  0  0  0  0  0  0  0  0  0  0  0
    2.9700    3.3229    0.0000 O   0  0  0  0  0  0  0  0  0  0  0  0
    6.2287    3.3504    0.0000 C   0  0  0  0  0  0  0  0  0  0  0  0
    6.2287    0.4904    0.0000 C   0  0  0  0  0  0  0  0  0  0  0  0
    2.3696    1.7875    0.0000 C   0  0  0  0  0  0  0  0  0  0  0  0
    0.8021    2.2963    0.0000 C   0  0  0  0  0  0  0  0  0  0  0  0
    0.0184    2.5529    0.0000 F   0  0  0  0  0  0  0  0  0  0  0  0
    1.7600    1.2375    0.0000 C   0  0  0  0  0  0  0  0  0  0  0  0
    2.2000    2.5941    0.0000 C   0  0  0  0  0  0  0  0  0  0  0  0
    1.4163    2.8554    0.0000 C   0  0  0  0  0  0  0  0  0  0  0  0
    0.9762    1.4941    0.0000 C   0  0  0  0  0  0  0  0  0  0  0  0
    2.9700    4.1479    0.0000 C   0  0  0  0  0  0  0  0  0  0  0  0
  2  1  2  0  0  0  0
  3  1  1  0  0  0  0
  4  1  1  0  0  0  0
  5  7  1  0  0  0  0
  6  2  1  0  0  0  0
  7  4  1  0  0  0  0
  8  2  1  0  0  0  0
  8  5  1  0  0  0  0
  9  3  2  0  0  0  0
  9  6  1  0  0  0  0
 10  6  1  0  0  0  0
 11 25  1  0  0  0  0
 12  7  2  0  0  0  0
 13  8  2  0  0  0  0
 14 11  3  0  0  0  0
 15  9  1  0  0  0  0
 16  4  1  0  0  0  0
 17  5  1  0  0  0  0
 18 10  1  0  0  0  0
 19 23  2  0  0  0  0
 20 19  1  0  0  0  0
 21 18  1  0  0  0  0
 22 18  2  0  0  0  0
 23 22  1  0  0  0  0
 24 21  2  0  0  0  0
 24 19  1  0  0  0  0
 25 15  1  0  0  0  0
M  END
> <CdId>
1507

> <Mol Weight>
342.3244

> <Formula>
C17H15FN4O3

> <Click_ID>
CLK020_D02 __ __ 

$$$$
