CLK029_G04
 OpenBabel03181419432D

 26 29  0  0  0  0  0  0  0  0999 V2000
   -4.7224    5.0181    0.0000 C   0  0  0  0  0  0  0  0  0  0  0  0
   -2.6364    5.3877    0.0000 N   0  0  0  0  0  0  0  0  0  0  0  0
   -5.1906    5.6587    0.0000 N   0  0  0  0  0  0  0  0  0  0  0  0
   -5.1906    4.3528    0.0000 N   0  0  0  0  0  0  0  0  0  0  0  0
   -3.9093    4.9688    0.0000 C   0  0  3  0  0  0  0  0  0  0  0  0
   -2.6364    4.5582    0.0000 C   0  0  0  0  0  0  0  0  0  0  0  0
   -3.4166    5.6341    0.0000 C   0  0  0  0  0  0  0  0  0  0  0  0
   -1.9628    5.8312    0.0000 C   0  0  0  0  0  0  0  0  0  0  0  0
   -5.9790    4.5992    0.0000 C   0  0  0  0  0  0  0  0  0  0  0  0
   -5.9790    5.4123    0.0000 C   0  0  0  0  0  0  0  0  0  0  0  0
   -3.4166    4.3036    0.0000 C   0  0  0  0  0  0  0  0  0  0  0  0
   -2.0121    6.6526    0.0000 C   0  0  0  0  0  0  0  0  0  0  0  0
   -5.4699    2.9321    0.0000 C   0  0  0  0  0  0  0  0  0  0  0  0
   -6.0119    2.3161    0.0000 C   0  0  0  0  0  0  0  0  0  0  0  0
   -1.2237    5.4616    0.0000 C   0  0  0  0  0  0  0  0  0  0  0  0
   -1.9628    4.0818    0.0000 O   0  0  0  0  0  0  0  0  0  0  0  0
   -1.3222    7.1124    0.0000 C   0  0  0  0  0  0  0  0  0  0  0  0
   -4.9195    3.5644    0.0000 C   0  0  0  0  0  0  0  0  0  0  0  0
   -0.5421    5.9134    0.0000 C   0  0  0  0  0  0  0  0  0  0  0  0
   -0.5831    6.7428    0.0000 C   0  0  0  0  0  0  0  0  0  0  0  0
   -6.6772    4.1804    0.0000 C   0  0  0  0  0  0  0  0  0  0  0  0
   -6.6772    5.8312    0.0000 C   0  0  0  0  0  0  0  0  0  0  0  0
   -2.7349    7.0385    0.0000 C   0  0  0  0  0  0  0  0  0  0  0  0
    0.1068    7.2110    0.0000 C   0  0  0  0  0  0  0  0  0  0  0  0
   -7.3917    4.5992    0.0000 C   0  0  0  0  0  0  0  0  0  0  0  0
   -7.3917    5.4123    0.0000 C   0  0  0  0  0  0  0  0  0  0  0  0
  2  7  1  0  0  0  0
  3  1  2  0  0  0  0
  4  1  1  0  0  0  0
  5  1  1  0  0  0  0
  6 11  1  0  0  0  0
  6  2  1  0  0  0  0
  7  5  1  0  0  0  0
  8  2  1  0  0  0  0
  9  4  1  0  0  0  0
  9 10  2  0  0  0  0
 10  3  1  0  0  0  0
 11  5  1  0  0  0  0
 12  8  2  0  0  0  0
 13 18  1  0  0  0  0
 14 13  3  0  0  0  0
 15  8  1  0  0  0  0
 16  6  2  0  0  0  0
 17 12  1  0  0  0  0
 18  4  1  0  0  0  0
 19 15  2  0  0  0  0
 20 19  1  0  0  0  0
 20 17  2  0  0  0  0
 21  9  1  0  0  0  0
 22 10  1  0  0  0  0
 23 12  1  0  0  0  0
 24 20  1  0  0  0  0
 25 21  2  0  0  0  0
 26 22  2  0  0  0  0
 26 25  1  0  0  0  0
M  END
> <CdId>
2228

> <Mol Weight>
343.4216

> <Formula>
C22H21N3O

> <Click_ID>
CLK029_G04 __ __ 

$$$$
