CLK051B06
 OpenBabel03181419432D

 16 16  0  0  0  0  0  0  0  0999 V2000
    0.6250    1.3417    0.0000 C   0  0  0  0  0  0  0  0  0  0  0  0
    1.3375    3.4042    0.0000 C   0  0  0  0  0  0  0  0  0  0  0  0
    1.3375    4.2250    0.0000 C   0  0  0  0  0  0  0  0  0  0  0  0
    1.3375    0.9292    0.0000 O   0  0  0  0  0  0  0  0  0  0  0  0
   -0.0917    0.9292    0.0000 N   0  0  0  0  0  0  0  0  0  0  0  0
    0.6250    2.1667    0.0000 N   0  0  0  0  0  0  0  0  0  0  0  0
   -0.8042   -2.7833    0.0000 C   0  0  0  0  0  0  0  0  0  0  0  0
   -0.8042   -1.1333    0.0000 C   0  0  0  0  0  0  0  0  0  0  0  0
   -0.8042   -3.6083    0.0000 F   0  0  0  0  0  0  0  0  0  0  0  0
    1.3375    2.5792    0.0000 C   0  0  0  0  0  0  0  0  0  0  0  0
   -0.0917   -2.3708    0.0000 C   0  0  0  0  0  0  0  0  0  0  0  0
   -1.5208   -2.3708    0.0000 C   0  0  0  0  0  0  0  0  0  0  0  0
   -1.5208   -1.5458    0.0000 C   0  0  0  0  0  0  0  0  0  0  0  0
   -0.0917   -1.5458    0.0000 C   0  0  0  0  0  0  0  0  0  0  0  0
   -0.0917    0.1042    0.0000 C   0  0  0  0  0  0  0  0  0  0  0  0
   -0.8042   -0.3083    0.0000 C   0  0  0  0  0  0  0  0  0  0  0  0
  2 10  1  0  0  0  0
  3  2  3  0  0  0  0
  4  1  2  0  0  0  0
  5  1  1  0  0  0  0
  6  1  1  0  0  0  0
  7 12  2  0  0  0  0
  8 16  1  0  0  0  0
  9  7  1  0  0  0  0
 10  6  1  0  0  0  0
 11 14  2  0  0  0  0
 11  7  1  0  0  0  0
 12 13  1  0  0  0  0
 13  8  2  0  0  0  0
 14  8  1  0  0  0  0
 15  5  1  0  0  0  0
 16 15  1  0  0  0  0
M  END
> <CdId>
3922

> <Mol Weight>
220.2428

> <Formula>
C12H13FN2O

> <Click_ID>
CLK051B06 __ __ 

$$$$
