CLK049E05
 OpenBabel03181419432D

 22 25  0  0  0  0  0  0  0  0999 V2000
    1.2602    0.7438    0.0000 C   0  0  3  0  0  0  0  0  0  0  0  0
    0.4008    0.5579    0.0000 C   0  0  0  0  0  0  0  0  0  0  0  0
    1.5990   -0.6074    0.0000 C   0  0  3  0  0  0  0  0  0  0  0  0
   -0.2561    0.0042    0.0000 N   0  0  0  0  0  0  0  0  0  0  0  0
    1.1032   -0.2025    0.0000 C   0  0  0  0  0  0  0  0  0  0  0  0
   -2.8553   -1.4337    0.0000 C   0  0  0  0  0  0  0  0  0  0  0  0
    1.4503    1.3387    0.0000 C   0  0  0  0  0  0  0  0  0  0  0  0
    2.0784    0.9835    0.0000 C   0  0  0  0  0  0  0  0  0  0  0  0
   -3.3263   -2.1032    0.0000 C   0  0  0  0  0  0  0  0  0  0  0  0
    2.5659    0.4421    0.0000 C   0  0  3  0  0  0  0  0  0  0  0  0
    0.8719    0.7480    0.0000 C   0  0  3  0  0  0  0  0  0  0  0  0
   -0.1570    1.1652    0.0000 O   0  0  0  0  0  0  0  0  0  0  0  0
    0.7727   -0.1901    0.0000 C   0  0  0  0  0  0  0  0  0  0  0  0
    2.4172   -0.3636    0.0000 C   0  0  0  0  0  0  0  0  0  0  0  0
   -1.0991   -0.1487    0.0000 C   0  0  0  0  0  0  0  0  0  0  0  0
    1.7479    0.8471    0.0000 C   0  0  0  0  0  0  0  0  0  0  0  0
   -2.3966   -0.7480    0.0000 C   0  0  0  0  0  0  0  0  0  0  0  0
    1.8222   -1.4007    0.0000 O   0  0  0  0  0  0  0  0  0  0  0  0
   -1.5825   -0.8223    0.0000 C   0  0  0  0  0  0  0  0  0  0  0  0
   -2.2726    0.6612    0.0000 C   0  0  0  0  0  0  0  0  0  0  0  0
   -1.4545    0.5868    0.0000 C   0  0  0  0  0  0  0  0  0  0  0  0
   -2.7396   -0.0082    0.0000 C   0  0  0  0  0  0  0  0  0  0  0  0
  2  1  1  0  0  0  0
  3  5  1  0  0  0  0
  4  2  1  0  0  0  0
  5  1  1  0  0  0  0
  6 17  1  0  0  0  0
  7  1  1  0  0  0  0
  8  1  1  0  0  0  0
  9  6  3  0  0  0  0
 10  8  1  0  0  0  0
 11  7  1  0  0  0  0
 12  2  2  0  0  0  0
 13 11  1  0  0  0  0
 13  3  1  0  0  0  0
 14 10  1  0  0  0  0
 14  3  1  0  0  0  0
 15  4  1  0  0  0  0
 16 11  1  0  0  0  0
 16 10  1  0  0  0  0
 17 19  1  0  0  0  0
 18  3  1  0  0  0  0
 19 15  2  0  0  0  0
 20 21  2  0  0  0  0
 21 15  1  0  0  0  0
 22 17  2  0  0  0  0
 22 20  1  0  0  0  0
M  END
> <CdId>
3757

> <Mol Weight>
295.3755

> <Formula>
C19H21NO2

> <Click_ID>
CLK049E05 __ __ 

$$$$
