CLK025_C02
 OpenBabel03181419432D

 14 14  0  0  0  0  0  0  0  0999 V2000
   -1.0793    0.6222    0.0000 C   0  0  0  0  0  0  0  0  0  0  0  0
    1.7806    0.6325    0.0000 C   0  0  0  0  0  0  0  0  0  0  0  0
    2.5025    1.0450    0.0000 C   0  0  0  0  0  0  0  0  0  0  0  0
   -0.3644    0.2097    0.0000 C   0  0  0  0  0  0  0  0  0  0  0  0
   -1.7909    0.2097    0.0000 C   0  0  0  0  0  0  0  0  0  0  0  0
   -1.0793    1.4472    0.0000 C   0  0  0  0  0  0  0  0  0  0  0  0
   -1.7841    1.8597    0.0000 O   0  0  0  0  0  0  0  0  0  0  0  0
   -0.3644   -0.6153    0.0000 C   0  0  0  0  0  0  0  0  0  0  0  0
   -1.7909   -0.6153    0.0000 C   0  0  0  0  0  0  0  0  0  0  0  0
   -1.0793   -1.0278    0.0000 C   0  0  0  0  0  0  0  0  0  0  0  0
    0.3506    0.6325    0.0000 O   0  0  0  0  0  0  0  0  0  0  0  0
    1.0657    0.2200    0.0000 C   0  0  0  0  0  0  0  0  0  0  0  0
   -2.5059   -1.0313    0.0000 O   0  0  0  0  0  0  0  0  0  0  0  0
   -2.5059   -1.8563    0.0000 C   0  0  0  0  0  0  0  0  0  0  0  0
  2 12  1  0  0  0  0
  3  2  3  0  0  0  0
  4  1  2  0  0  0  0
  5  1  1  0  0  0  0
  6  1  1  0  0  0  0
  7  6  2  0  0  0  0
  8  4  1  0  0  0  0
  8 10  2  0  0  0  0
  9  5  2  0  0  0  0
 10  9  1  0  0  0  0
 11  4  1  0  0  0  0
 12 11  1  0  0  0  0
 13  9  1  0  0  0  0
 14 13  1  0  0  0  0
M  END
> <CdId>
1877

> <Mol Weight>
190.1953

> <Formula>
C11H10O3

> <Click_ID>
CLK025_C02 __ __ 

$$$$
