CLK019_E11
 OpenBabel03181419432D

 26 29  0  0  0  0  0  0  0  0999 V2000
    3.0783    2.1117    0.0000 C   0  0  0  0  0  0  0  0  0  0  0  0
    2.9867    1.2918    0.0000 N   0  0  0  0  0  0  0  0  0  0  0  0
    2.3271    2.4553    0.0000 N   0  0  0  0  0  0  0  0  0  0  0  0
    1.7728    1.8369    0.0000 C   0  0  0  0  0  0  0  0  0  0  0  0
    2.1850    1.1223    0.0000 C   0  0  0  0  0  0  0  0  0  0  0  0
    3.7929    2.5240    0.0000 C   0  0  3  0  0  0  0  0  0  0  0  0
    4.5075    2.1117    0.0000 C   0  0  0  0  0  0  0  0  0  0  0  0
    1.3651    3.5134    0.0000 C   0  0  0  0  0  0  0  0  0  0  0  0
    5.2221    2.5240    0.0000 C   0  0  0  0  0  0  0  0  0  0  0  0
    0.5818    3.7654    0.0000 C   0  0  0  0  0  0  0  0  0  0  0  0
    5.9367    2.1117    0.0000 C   0  0  0  0  0  0  0  0  0  0  0  0
    5.9367    1.2872    0.0000 C   0  0  0  0  0  0  0  0  0  0  0  0
    2.1484    3.2569    0.0000 C   0  0  0  0  0  0  0  0  0  0  0  0
    4.5075    1.2872    0.0000 C   0  0  0  0  0  0  0  0  0  0  0  0
    6.6513    0.8749    0.0000 C   0  0  0  0  0  0  0  0  0  0  0  0
    5.2221    0.8749    0.0000 C   0  0  0  0  0  0  0  0  0  0  0  0
    6.6513    2.5240    0.0000 C   0  0  0  0  0  0  0  0  0  0  0  0
    7.3659    1.2872    0.0000 C   0  0  0  0  0  0  0  0  0  0  0  0
    7.3659    2.1117    0.0000 C   0  0  0  0  0  0  0  0  0  0  0  0
    0.9482    1.8369    0.0000 C   0  0  0  0  0  0  0  0  0  0  0  0
    8.0714    0.8749    0.0000 O   0  0  0  0  0  0  0  0  0  0  0  0
    1.7728    0.4077    0.0000 C   0  0  0  0  0  0  0  0  0  0  0  0
    3.7929    3.3485    0.0000 C   0  0  0  0  0  0  0  0  0  0  0  0
    8.7860    1.2872    0.0000 C   0  0  0  0  0  0  0  0  0  0  0  0
    0.5360    1.1223    0.0000 C   0  0  0  0  0  0  0  0  0  0  0  0
    0.9482    0.4077    0.0000 C   0  0  0  0  0  0  0  0  0  0  0  0
  2  1  2  0  0  0  0
  3  1  1  0  0  0  0
  4  3  1  0  0  0  0
  4  5  1  0  0  0  0
  5  2  1  0  0  0  0
  6  1  1  0  0  0  0
  7  6  1  0  0  0  0
  8 13  1  0  0  0  0
  9  7  1  0  0  0  0
 10  8  3  0  0  0  0
 11  9  2  0  0  0  0
 12 16  2  0  0  0  0
 12 11  1  0  0  0  0
 13  3  1  0  0  0  0
 14  7  2  0  0  0  0
 15 12  1  0  0  0  0
 16 14  1  0  0  0  0
 17 11  1  0  0  0  0
 18 15  2  0  0  0  0
 18 19  1  0  0  0  0
 19 17  2  0  0  0  0
 20  4  2  0  0  0  0
 21 18  1  0  0  0  0
 22  5  2  0  0  0  0
 23  6  1  0  0  0  0
 24 21  1  0  0  0  0
 25 20  1  0  0  0  0
 25 26  2  0  0  0  0
 26 22  1  0  0  0  0
M  END
> <CdId>
1446

> <Mol Weight>
340.4177

> <Formula>
C23H20N2O

> <Click_ID>
CLK019_E11 __ __ 

$$$$
