CLK039C08
 OpenBabel03181419432D

 18 19  0  0  0  0  0  0  0  0999 V2000
   -1.1542    0.2542    0.0000 S   0  0  0  0  0  0  0  0  0  0  0  0
    1.7042   -1.3958    0.0000 N   0  0  0  0  0  0  0  0  0  0  0  0
   -0.4375   -0.1583    0.0000 C   0  0  0  0  0  0  0  0  0  0  0  0
    0.9917   -0.9833    0.0000 C   0  0  0  0  0  0  0  0  0  0  0  0
    2.4208   -0.9833    0.0000 C   0  0  0  0  0  0  0  0  0  0  0  0
    0.9917   -0.1583    0.0000 C   0  0  0  0  0  0  0  0  0  0  0  0
   -2.5833    1.9042    0.0000 C   0  0  0  0  0  0  0  0  0  0  0  0
    0.2750    0.2542    0.0000 C   0  0  0  0  0  0  0  0  0  0  0  0
   -3.2958    2.3167    0.0000 C   0  0  0  0  0  0  0  0  0  0  0  0
   -1.5667   -0.4583    0.0000 O   0  0  0  0  0  0  0  0  0  0  0  0
   -0.7417    0.9667    0.0000 O   0  0  0  0  0  0  0  0  0  0  0  0
   -1.8667    0.6667    0.0000 N   0  0  0  0  0  0  0  0  0  0  0  0
   -0.4375   -0.9833    0.0000 C   0  0  0  0  0  0  0  0  0  0  0  0
    0.2750   -1.3958    0.0000 C   0  0  0  0  0  0  0  0  0  0  0  0
    3.1333   -1.3958    0.0000 O   0  0  0  0  0  0  0  0  0  0  0  0
    1.7042    0.2542    0.0000 C   0  0  0  0  0  0  0  0  0  0  0  0
    2.4208   -0.1583    0.0000 C   0  0  0  0  0  0  0  0  0  0  0  0
   -1.8667    1.4917    0.0000 C   0  0  0  0  0  0  0  0  0  0  0  0
  2  4  1  0  0  0  0
  3  1  1  0  0  0  0
  4 14  1  0  0  0  0
  4  6  2  0  0  0  0
  5  2  1  0  0  0  0
  6  8  1  0  0  0  0
  7 18  1  0  0  0  0
  8  3  2  0  0  0  0
  9  7  3  0  0  0  0
 10  1  2  0  0  0  0
 11  1  2  0  0  0  0
 12  1  1  0  0  0  0
 13  3  1  0  0  0  0
 14 13  2  0  0  0  0
 15  5  2  0  0  0  0
 16  6  1  0  0  0  0
 17 16  1  0  0  0  0
 17  5  1  0  0  0  0
 18 12  1  0  0  0  0
M  END
> <CdId>
2979

> <Mol Weight>
264.3

> <Formula>
C12H12N2O3S

> <Click_ID>
CLK039C08 __ __ 

$$$$
