CLK033_G05
 OpenBabel03181419432D

 24 26  0  0  0  0  0  0  0  0999 V2000
   -4.5898    2.5549    0.0000 C   0  0  0  0  0  0  0  0  0  0  0  0
   -3.8574    2.9794    0.0000 N   0  0  0  0  0  0  0  0  0  0  0  0
   -4.6814    1.7310    0.0000 N   0  0  0  0  0  0  0  0  0  0  0  0
   -5.3138    2.8962    0.0000 S   0  0  0  0  0  0  0  0  0  0  0  0
   -5.4886    1.5812    0.0000 C   0  0  0  0  0  0  0  0  0  0  0  0
   -5.8881    2.3053    0.0000 C   0  0  0  0  0  0  0  0  0  0  0  0
   -3.8657    3.7950    0.0000 C   0  0  0  0  0  0  0  0  0  0  0  0
   -4.2652    0.3578    0.0000 C   0  0  0  0  0  0  0  0  0  0  0  0
   -4.4525   -0.4536    0.0000 C   0  0  0  0  0  0  0  0  0  0  0  0
   -3.1542    4.2070    0.0000 C   0  0  0  0  0  0  0  0  0  0  0  0
   -4.5773    4.2070    0.0000 O   0  0  0  0  0  0  0  0  0  0  0  0
   -5.9172    0.8821    0.0000 C   0  0  0  0  0  0  0  0  0  0  0  0
   -4.0780    1.1610    0.0000 C   0  0  0  0  0  0  0  0  0  0  0  0
   -2.4343    3.8033    0.0000 C   0  0  0  0  0  0  0  0  0  0  0  0
   -3.1459    5.0351    0.0000 C   0  0  0  0  0  0  0  0  0  0  0  0
   -1.7185    5.0226    0.0000 C   0  0  0  0  0  0  0  0  0  0  0  0
   -2.4343    5.4429    0.0000 C   0  0  0  0  0  0  0  0  0  0  0  0
   -1.7227    4.1987    0.0000 C   0  0  0  0  0  0  0  0  0  0  0  0
   -6.7037    2.3302    0.0000 C   0  0  0  0  0  0  0  0  0  0  0  0
   -0.9945    5.4429    0.0000 O   0  0  0  0  0  0  0  0  0  0  0  0
   -7.1323    1.6229    0.0000 C   0  0  0  0  0  0  0  0  0  0  0  0
   -6.7204    0.8946    0.0000 C   0  0  0  0  0  0  0  0  0  0  0  0
   -5.5261    0.1498    0.0000 C   0  0  0  0  0  0  0  0  0  0  0  0
   -0.2829    5.0226    0.0000 C   0  0  0  0  0  0  0  0  0  0  0  0
  2  1  2  0  0  0  0
  3  1  1  0  0  0  0
  4  1  1  0  0  0  0
  5  3  1  0  0  0  0
  6  4  1  0  0  0  0
  6  5  2  0  0  0  0
  7  2  1  0  0  0  0
  8 13  1  0  0  0  0
  9  8  3  0  0  0  0
 10  7  1  0  0  0  0
 11  7  2  0  0  0  0
 12  5  1  0  0  0  0
 13  3  1  0  0  0  0
 14 10  2  0  0  0  0
 15 10  1  0  0  0  0
 16 17  1  0  0  0  0
 16 18  2  0  0  0  0
 17 15  2  0  0  0  0
 18 14  1  0  0  0  0
 19  6  1  0  0  0  0
 20 16  1  0  0  0  0
 21 19  2  0  0  0  0
 22 12  2  0  0  0  0
 22 21  1  0  0  0  0
 23 12  1  0  0  0  0
 24 20  1  0  0  0  0
M  END
> <CdId>
2549

> <Mol Weight>
336.408

> <Formula>
C19H16N2O2S

> <Click_ID>
CLK033_G05 __ __ 

$$$$
