CLK019_G03
 OpenBabel03181419432D

 15 15  0  0  0  0  0  0  0  0999 V2000
   -1.1223    0.8245    0.0000 C   0  0  0  0  0  0  0  0  0  0  0  0
   -1.1223    0.0091    0.0000 C   0  0  0  0  0  0  0  0  0  0  0  0
   -0.4077    1.2459    0.0000 C   0  0  0  0  0  0  0  0  0  0  0  0
   -3.2569    1.2368    0.0000 C   0  0  0  0  0  0  0  0  0  0  0  0
   -3.9715    0.8245    0.0000 C   0  0  0  0  0  0  0  0  0  0  0  0
   -0.4077   -0.4031    0.0000 C   0  0  0  0  0  0  0  0  0  0  0  0
    0.3069    0.8337    0.0000 C   0  0  0  0  0  0  0  0  0  0  0  0
    0.3069    0.0091    0.0000 C   0  0  0  0  0  0  0  0  0  0  0  0
   -1.8369   -0.4123    0.0000 I   0  0  0  0  0  0  0  0  0  0  0  0
   -1.8369    1.2368    0.0000 O   0  0  0  0  0  0  0  0  0  0  0  0
   -0.4077    2.0705    0.0000 O   0  0  0  0  0  0  0  0  0  0  0  0
   -2.5423    0.8245    0.0000 C   0  0  0  0  0  0  0  0  0  0  0  0
    1.7362    0.0091    0.0000 O   0  0  0  0  0  0  0  0  0  0  0  0
    1.0216   -0.4031    0.0000 C   0  0  0  0  0  0  0  0  0  0  0  0
    0.3023    2.4828    0.0000 C   0  0  0  0  0  0  0  0  0  0  0  0
  2  1  2  0  0  0  0
  3  1  1  0  0  0  0
  4 12  1  0  0  0  0
  5  4  3  0  0  0  0
  6  2  1  0  0  0  0
  7  3  2  0  0  0  0
  8  7  1  0  0  0  0
  8  6  2  0  0  0  0
  9  2  1  0  0  0  0
 10  1  1  0  0  0  0
 11  3  1  0  0  0  0
 12 10  1  0  0  0  0
 13 14  1  0  0  0  0
 14  8  1  0  0  0  0
 15 11  1  0  0  0  0
M  END
> <CdId>
1458

> <Mol Weight>
318.1077

> <Formula>
C11H11IO3

> <Click_ID>
CLK019_G03 __ __ 

$$$$
