CLK019_C06
 OpenBabel03181419432D

 25 27  0  0  0  0  0  0  0  0999 V2000
    1.9940   -1.4593    0.0000 C    0  0  0  0  0  0  0  0  0  0  0  0
    1.9940   -0.6509    0.0000 C    0  0  0  0  0  0  0  0  0  0  0  0
    0.5887   -0.6509    0.0000 N    0  0  0  0  0  0  0  0  0  0  0  0
    2.7775   -1.7080    0.0000 N    0  0  0  0  0  0  0  0  0  0  0  0
    1.2852   -1.8655    0.0000 N    0  0  0  0  0  0  0  0  0  0  0  0
    0.5887   -1.4593    0.0000 C    0  0  0  0  0  0  0  0  0  0  0  0
    1.2852   -0.2280    0.0000 C    0  0  0  0  0  0  0  0  0  0  0  0
    3.3248   -1.0489    0.0000 C    0  0  0  0  0  0  0  0  0  0  0  0
    2.7651   -0.3897    0.0000 N    0  0  0  0  0  0  0  0  0  0  0  0
   -0.1326   -0.2405    0.0000 C    0  0  0  0  0  0  0  0  0  0  0  0
    5.3892   -1.7536    0.0000 C    0  0  0  0  0  0  0  0  0  0  0  0
   -0.1326   -1.8655    0.0000 O    0  0  0  0  0  0  0  0  0  0  0  0
    1.2852    0.5803    0.0000 O    0  0  0  0  0  0  0  0  0  0  0  0
    5.8079   -2.4666    0.0000 C    0  0  0  0  0  0  0  0  0  0  0  0
    4.1538   -1.0489    0.0000 O    0  0  0  0  0  0  0  0  0  0  0  0
    1.2852   -2.6656    0.0000 C    0  0  0  0  0  0  0  0  0  0  0  0
   -0.8415   -0.6633    0.0000 C    0  0  0  0  0  0  0  0  0  0  0  0
    3.0221    0.3938    0.0000 C    0  0  0  0  0  0  0  0  0  0  0  0
   -2.2510   -1.5090    0.0000 C    0  0  0  0  0  0  0  0  0  0  0  0
   -2.9599   -1.9319    0.0000 Cl   0  0  0  0  0  0  0  0  0  0  0  0
   -0.8291   -1.4924    0.0000 C    0  0  0  0  0  0  0  0  0  0  0  0
   -1.5546   -0.2612    0.0000 C    0  0  0  0  0  0  0  0  0  0  0  0
   -2.2635   -0.6882    0.0000 C    0  0  0  0  0  0  0  0  0  0  0  0
   -1.5255   -1.9070    0.0000 C    0  0  0  0  0  0  0  0  0  0  0  0
    4.5684   -1.7577    0.0000 C    0  0  0  0  0  0  0  0  0  0  0  0
  2  1  2  0  0  0  0
  3  6  1  0  0  0  0
  4  1  1  0  0  0  0
  5  1  1  0  0  0  0
  6  5  1  0  0  0  0
  7  2  1  0  0  0  0
  7  3  1  0  0  0  0
  8  4  2  0  0  0  0
  8  9  1  0  0  0  0
  9  2  1  0  0  0  0
 10  3  1  0  0  0  0
 11 25  1  0  0  0  0
 12  6  2  0  0  0  0
 13  7  2  0  0  0  0
 14 11  3  0  0  0  0
 15  8  1  0  0  0  0
 16  5  1  0  0  0  0
 17 10  1  0  0  0  0
 18  9  1  0  0  0  0
 19 23  2  0  0  0  0
 20 19  1  0  0  0  0
 21 17  1  0  0  0  0
 22 17  2  0  0  0  0
 23 22  1  0  0  0  0
 24 21  2  0  0  0  0
 24 19  1  0  0  0  0
 25 15  1  0  0  0  0
M  END
> <CdId>
1421

> <Mol Weight>
358.779

> <Formula>
C17H15ClN4O3

> <Click_ID>
CLK019_C06 __ __ 

$$$$
