CLK047F11
 OpenBabel03181419432D

 21 23  0  0  0  0  0  0  0  0999 V2000
   -0.3130    1.2604    0.0000 C   0  0  0  0  0  0  0  0  0  0  0  0
    0.1711    1.9282    0.0000 C   0  0  0  0  0  0  0  0  0  0  0  0
    0.7095   -1.8824    0.0000 C   0  0  0  0  0  0  0  0  0  0  0  0
    0.4508   -1.0976    0.0000 N   0  0  0  0  0  0  0  0  0  0  0  0
   -0.3130    2.6002    0.0000 N   0  0  0  0  0  0  0  0  0  0  0  0
   -1.0976    1.5151    0.0000 C   0  0  0  0  0  0  0  0  0  0  0  0
    2.5793   -3.0134    0.0000 C   0  0  0  0  0  0  0  0  0  0  0  0
   -1.0976    2.3414    0.0000 C   0  0  0  0  0  0  0  0  0  0  0  0
    3.3890   -3.1846    0.0000 C   0  0  0  0  0  0  0  0  0  0  0  0
   -0.0584    0.4758    0.0000 C   0  0  0  0  0  0  0  0  0  0  0  0
   -0.3548   -0.9224    0.0000 C   0  0  0  0  0  0  0  0  0  0  0  0
    1.0059   -0.4800    0.0000 C   0  0  0  0  0  0  0  0  0  0  0  0
    0.1545   -2.4959    0.0000 O   0  0  0  0  0  0  0  0  0  0  0  0
    1.5151   -2.0535    0.0000 N   0  0  0  0  0  0  0  0  0  0  0  0
    0.7513    0.3047    0.0000 C   0  0  0  0  0  0  0  0  0  0  0  0
   -0.6093   -0.1377    0.0000 C   0  0  0  0  0  0  0  0  0  0  0  0
    1.7697   -2.8381    0.0000 C   0  0  0  0  0  0  0  0  0  0  0  0
   -1.8156    1.1019    0.0000 C   0  0  0  0  0  0  0  0  0  0  0  0
   -1.8156    2.7546    0.0000 C   0  0  0  0  0  0  0  0  0  0  0  0
   -2.5293    1.5151    0.0000 C   0  0  0  0  0  0  0  0  0  0  0  0
   -2.5293    2.3414    0.0000 C   0  0  0  0  0  0  0  0  0  0  0  0
  2  1  2  0  0  0  0
  3  4  1  0  0  0  0
  4 11  1  0  0  0  0
  5  2  1  0  0  0  0
  6  1  1  0  0  0  0
  7 17  1  0  0  0  0
  8  6  2  0  0  0  0
  8  5  1  0  0  0  0
  9  7  3  0  0  0  0
 10  1  1  0  0  0  0
 11 16  1  0  0  0  0
 12 15  1  0  0  0  0
 12  4  1  0  0  0  0
 13  3  2  0  0  0  0
 14  3  1  0  0  0  0
 15 10  1  0  0  0  0
 16 10  1  0  0  0  0
 17 14  1  0  0  0  0
 18  6  1  0  0  0  0
 19  8  1  0  0  0  0
 20 18  2  0  0  0  0
 20 21  1  0  0  0  0
 21 19  2  0  0  0  0
M  END
> <CdId>
3646

> <Mol Weight>
281.3523

> <Formula>
C17H19N3O

> <Click_ID>
CLK047F11 __ __ 

$$$$
