CLK018_E02
 OpenBabel03181419432D

 16 16  0  0  0  0  0  0  0  0999 V2000
   -0.3976    0.0734    0.0000 N    0  0  0  0  0  0  0  0  0  0  0  0
    0.3501   -0.3544    0.0000 C    0  0  0  0  0  0  0  0  0  0  0  0
    1.0891    0.0734    0.0000 C    0  0  0  0  0  0  0  0  0  0  0  0
    1.8325   -0.3544    0.0000 C    0  0  0  0  0  0  0  0  0  0  0  0
    3.9717    1.6941    0.0000 C    0  0  0  0  0  0  0  0  0  0  0  0
    4.4644    2.5109    0.0000 C    0  0  0  0  0  0  0  0  0  0  0  0
   -0.3976    0.9291    0.0000 O    0  0  0  0  0  0  0  0  0  0  0  0
   -1.1366   -0.3544    0.0000 O    0  0  0  0  0  0  0  0  0  0  0  0
    2.5326    0.0519    0.0000 C    0  0  0  0  0  0  0  0  0  0  0  0
    1.8325   -1.1712    0.0000 C    0  0  0  0  0  0  0  0  0  0  0  0
    3.2457   -0.3544    0.0000 C    0  0  0  0  0  0  0  0  0  0  0  0
    2.5326   -1.5861    0.0000 C    0  0  0  0  0  0  0  0  0  0  0  0
    3.2457   -1.1712    0.0000 C    0  0  0  0  0  0  0  0  0  0  0  0
    2.5326   -2.3900    0.0000 Br   0  0  0  0  0  0  0  0  0  0  0  0
    2.5455    0.8773    0.0000 O    0  0  0  0  0  0  0  0  0  0  0  0
    3.0339    1.6941    0.0000 C    0  0  0  0  0  0  0  0  0  0  0  0
  2  1  1  0  0  0  0
  3  2  2  0  0  0  0
  4  3  1  0  0  0  0
  5 16  1  0  0  0  0
  6  5  3  0  0  0  0
  7  1  1  0  0  0  0
  8  1  2  0  0  0  0
  9  4  2  0  0  0  0
 10  4  1  0  0  0  0
 11  9  1  0  0  0  0
 11 13  2  0  0  0  0
 12 10  2  0  0  0  0
 13 12  1  0  0  0  0
 14 12  1  0  0  0  0
 15  9  1  0  0  0  0
 16 15  1  0  0  0  0
M  END
> <CdId>
1357

> <Mol Weight>
282.09

> <Formula>
C11H8BrNO3

> <Click_ID>
CLK018_E02 __ __ 

$$$$
