CLK001_E02
 OpenBabel03181419432D

 26 28  0  0  0  0  0  0  0  0999 V2000
   -1.8519   -0.1745    0.0000 C   0  0  0  0  0  0  0  0  0  0  0  0
   -1.0397   -0.0265    0.0000 C   0  0  3  0  0  0  0  0  0  0  0  0
   -1.9619   -0.9904    0.0000 C   0  0  0  0  0  0  0  0  0  0  0  0
   -2.4970    0.3415    0.0000 C   0  0  0  0  0  0  0  0  0  0  0  0
   -0.6451   -0.7590    0.0000 C   0  0  0  0  0  0  0  0  0  0  0  0
   -0.1063    0.5958    0.0000 C   0  0  0  0  0  0  0  0  0  0  0  0
   -1.3017    0.9069    0.0000 O   0  0  0  0  0  0  0  0  0  0  0  0
   -1.2219   -1.3471    0.0000 N   0  0  0  0  0  0  0  0  0  0  0  0
   -2.7323   -1.2941    0.0000 C   0  0  0  0  0  0  0  0  0  0  0  0
   -3.2597    0.0304    0.0000 C   0  0  0  0  0  0  0  0  0  0  0  0
    0.1708   -0.8766    0.0000 O   0  0  0  0  0  0  0  0  0  0  0  0
    0.6868    0.1821    0.0000 C   0  0  0  0  0  0  0  0  0  0  0  0
   -1.0816   -2.1593    0.0000 C   0  0  0  0  0  0  0  0  0  0  0  0
   -3.3774   -0.7855    0.0000 C   0  0  0  0  0  0  0  0  0  0  0  0
    1.3813    0.6338    0.0000 C   0  0  0  0  0  0  0  0  0  0  0  0
    0.7210   -0.5047    0.0000 O   0  0  0  0  0  0  0  0  0  0  0  0
   -1.7152   -2.6981    0.0000 C   0  0  0  0  0  0  0  0  0  0  0  0
    1.3471    1.4571    0.0000 C   0  0  0  0  0  0  0  0  0  0  0  0
    2.1098    0.2466    0.0000 C   0  0  0  0  0  0  0  0  0  0  0  0
   -2.3490   -3.2179    0.0000 C   0  0  0  0  0  0  0  0  0  0  0  0
    2.0416    1.8973    0.0000 C   0  0  0  0  0  0  0  0  0  0  0  0
    2.8120    0.6907    0.0000 C   0  0  0  0  0  0  0  0  0  0  0  0
    2.7701    1.5179    0.0000 C   0  0  0  0  0  0  0  0  0  0  0  0
    3.4722    1.9657    0.0000 C   0  0  0  0  0  0  0  0  0  0  0  0
    4.2008    1.5824    0.0000 C   0  0  0  0  0  0  0  0  0  0  0  0
    3.4304    2.7816    0.0000 C   0  0  0  0  0  0  0  0  0  0  0  0
  1  2  1  0  0  0  0
  1  3  2  0  0  0  0
  1  4  1  0  0  0  0
  2  5  1  0  0  0  0
  2  6  1  0  0  0  0
  2  7  1  0  0  0  0
  3  8  1  0  0  0  0
  3  9  1  0  0  0  0
  4 10  2  0  0  0  0
  5 11  2  0  0  0  0
  5  8  1  0  0  0  0
  6 12  1  0  0  0  0
  8 13  1  0  0  0  0
  9 14  2  0  0  0  0
 10 14  1  0  0  0  0
 12 15  1  0  0  0  0
 12 16  2  0  0  0  0
 13 17  1  0  0  0  0
 15 18  2  0  0  0  0
 15 19  1  0  0  0  0
 17 20  3  0  0  0  0
 18 21  1  0  0  0  0
 19 22  2  0  0  0  0
 21 23  2  0  0  0  0
 22 23  1  0  0  0  0
 23 24  1  0  0  0  0
 24 25  1  0  0  0  0
 24 26  1  0  0  0  0
M  END
> <CdId>
41

> <Mol Weight>
347.407

> <Formula>
C22H21NO3

> <Click_ID>
CLK001_E02 __ __ 

$$$$
