CLK007_E09
 OpenBabel03181419432D

 28 29  0  0  0  0  0  0  0  0999 V2000
    0.5956   -1.2430    0.0000 C   0  0  0  0  0  0  0  0  0  0  0  0
   -0.0727   -0.7617    0.0000 C   0  0  0  0  0  0  0  0  0  0  0  0
    1.3850   -0.9938    0.0000 C   0  0  0  0  0  0  0  0  0  0  0  0
    0.3393   -2.0360    0.0000 S   0  0  0  0  0  0  0  0  0  0  0  0
   -0.7479   -1.2430    0.0000 N   0  0  0  0  0  0  0  0  0  0  0  0
   -0.0831    0.0658    0.0000 O   0  0  0  0  0  0  0  0  0  0  0  0
    1.5478   -0.1870    0.0000 C   0  0  0  0  0  0  0  0  0  0  0  0
   -0.4882   -2.0360    0.0000 C   0  0  0  0  0  0  0  0  0  0  0  0
   -1.5304   -0.9938    0.0000 C   0  0  0  0  0  0  0  0  0  0  0  0
    0.9349    0.3670    0.0000 C   0  0  0  0  0  0  0  0  0  0  0  0
    2.3268    0.0658    0.0000 C   0  0  0  0  0  0  0  0  0  0  0  0
   -0.9764   -2.7078    0.0000 O   0  0  0  0  0  0  0  0  0  0  0  0
   -2.1537   -1.5443    0.0000 C   0  0  0  0  0  0  0  0  0  0  0  0
    1.1115    1.1703    0.0000 C   0  0  0  0  0  0  0  0  0  0  0  0
    2.5034    0.8760    0.0000 C   0  0  0  0  0  0  0  0  0  0  0  0
   -2.9362   -1.2950    0.0000 O   0  0  0  0  0  0  0  0  0  0  0  0
   -1.9771   -2.3580    0.0000 O   0  0  0  0  0  0  0  0  0  0  0  0
    1.8871    1.4127    0.0000 C   0  0  0  0  0  0  0  0  0  0  0  0
    0.5090    1.7140    0.0000 O   0  0  0  0  0  0  0  0  0  0  0  0
   -3.1059   -0.4779    0.0000 C   0  0  0  0  0  0  0  0  0  0  0  0
    2.0706    2.2230    0.0000 O   0  0  0  0  0  0  0  0  0  0  0  0
   -0.2701    1.4716    0.0000 C   0  0  0  0  0  0  0  0  0  0  0  0
   -3.8989   -0.2285    0.0000 C   0  0  0  0  0  0  0  0  0  0  0  0
   -2.4931    0.0727    0.0000 C   0  0  0  0  0  0  0  0  0  0  0  0
   -3.5595   -1.1772    0.0000 C   0  0  0  0  0  0  0  0  0  0  0  0
    2.8496    2.4757    0.0000 C   0  0  0  0  0  0  0  0  0  0  0  0
    3.0297    3.2825    0.0000 C   0  0  0  0  0  0  0  0  0  0  0  0
    3.2063    4.0858    0.0000 C   0  0  0  0  0  0  0  0  0  0  0  0
  1  2  1  0  0  0  0
  1  3  2  0  0  0  0
  1  4  1  0  0  0  0
  2  5  1  0  0  0  0
  2  6  2  0  0  0  0
  3  7  1  0  0  0  0
  4  8  1  0  0  0  0
  5  9  1  0  0  0  0
  5  8  1  0  0  0  0
  7 10  2  0  0  0  0
  7 11  1  0  0  0  0
  8 12  2  0  0  0  0
  9 13  1  0  0  0  0
 10 14  1  0  0  0  0
 11 15  2  0  0  0  0
 13 16  1  0  0  0  0
 13 17  2  0  0  0  0
 14 18  2  0  0  0  0
 14 19  1  0  0  0  0
 15 18  1  0  0  0  0
 16 20  1  0  0  0  0
 18 21  1  0  0  0  0
 19 22  1  0  0  0  0
 20 23  1  0  0  0  0
 20 24  1  0  0  0  0
 20 25  1  0  0  0  0
 21 26  1  0  0  0  0
 26 27  1  0  0  0  0
 27 28  3  0  0  0  0
M  END
> <CdId>
528

> <Mol Weight>
403.449

> <Formula>
C20H21NO6S

> <Click_ID>
CLK007_E09 __ __ 

$$$$
