CLK021_B02
 OpenBabel03181419432D

 16 16  0  0  0  0  0  0  0  0999 V2000
    5.5204    1.3480    0.0000 C    0  0  0  0  0  0  0  0  0  0  0  0
    4.8555    1.8386    0.0000 S    0  0  0  0  0  0  0  0  0  0  0  0
    6.3044    1.6047    0.0000 C    0  0  0  0  0  0  0  0  0  0  0  0
    4.1862    1.3480    0.0000 C    0  0  0  0  0  0  0  0  0  0  0  0
    5.2682    0.5640    0.0000 C    0  0  0  0  0  0  0  0  0  0  0  0
    6.9188    1.0545    0.0000 N    0  0  0  0  0  0  0  0  0  0  0  0
    8.1568    0.6144    0.0000 C    0  0  0  0  0  0  0  0  0  0  0  0
    4.4429    0.5640    0.0000 C    0  0  0  0  0  0  0  0  0  0  0  0
    8.6015   -0.0734    0.0000 C    0  0  0  0  0  0  0  0  0  0  0  0
    7.7075    1.3067    0.0000 C    0  0  0  0  0  0  0  0  0  0  0  0
    6.4786    2.4163    0.0000 O    0  0  0  0  0  0  0  0  0  0  0  0
    3.4021    1.6047    0.0000 Br   0  0  0  0  0  0  0  0  0  0  0  0
    8.4365    1.6919    0.0000 C    0  0  0  0  0  0  0  0  0  0  0  0
    7.3773    2.0633    0.0000 C    0  0  0  0  0  0  0  0  0  0  0  0
    9.1334    1.2608    0.0000 C    0  0  0  0  0  0  0  0  0  0  0  0
    7.8817    2.7235    0.0000 C    0  0  0  0  0  0  0  0  0  0  0  0
  2  1  1  0  0  0  0
  3  1  1  0  0  0  0
  4  2  1  0  0  0  0
  5  1  2  0  0  0  0
  6  3  1  0  0  0  0
  7 10  1  0  0  0  0
  8  5  1  0  0  0  0
  8  4  2  0  0  0  0
  9  7  3  0  0  0  0
 10  6  1  0  0  0  0
 11  3  2  0  0  0  0
 12  4  1  0  0  0  0
 13 10  1  0  0  0  0
 14 10  1  0  0  0  0
 15 13  1  0  0  0  0
 16 14  1  0  0  0  0
M  END
> <CdId>
1567

> <Mol Weight>
300.215

> <Formula>
C12H14BrNOS

> <Click_ID>
CLK021_B02 __ __ 

$$$$
