CLK015_A03
 OpenBabel03181419432D

 28 31  0  0  0  0  0  0  0  0999 V2000
   -2.5705   -3.1380    0.0000 N    0  0  0  0  0  0  0  0  0  0  0  0
   -2.6754   -2.3464    0.0000 C    0  0  0  0  0  0  0  0  0  0  0  0
   -3.3287   -3.4957    0.0000 C    0  0  0  0  0  0  0  0  0  0  0  0
   -3.5004   -2.1795    0.0000 C    0  0  3  0  0  0  0  0  0  0  0  0
   -3.8915   -2.9091    0.0000 C    0  0  3  0  0  0  0  0  0  0  0  0
   -1.8456   -3.5386    0.0000 N    0  0  0  0  0  0  0  0  0  0  0  0
   -4.4161   -1.5738    0.0000 C    0  0  3  0  0  0  0  0  0  0  0  0
   -4.7451   -2.4227    0.0000 C    0  0  3  0  0  0  0  0  0  0  0  0
    1.0206   -4.2540    0.0000 C    0  0  0  0  0  0  0  0  0  0  0  0
   -5.2173   -2.0650    0.0000 C    0  0  0  0  0  0  0  0  0  0  0  0
   -5.6894   -2.8328    0.0000 C    0  0  0  0  0  0  0  0  0  0  0  0
    0.6152   -4.9693    0.0000 C    0  0  0  0  0  0  0  0  0  0  0  0
    0.6057   -3.5386    0.0000 C    0  0  0  0  0  0  0  0  0  0  0  0
   -4.5591   -0.5914    0.0000 C    0  0  0  0  0  0  0  0  0  0  0  0
    3.0760   -4.9645    0.0000 C    0  0  0  0  0  0  0  0  0  0  0  0
    3.4814   -5.6704    0.0000 C    0  0  0  0  0  0  0  0  0  0  0  0
   -2.0554   -1.7646    0.0000 O    0  0  0  0  0  0  0  0  0  0  0  0
   -3.4718   -4.3064    0.0000 O    0  0  0  0  0  0  0  0  0  0  0  0
   -1.4402   -4.2540    0.0000 C    0  0  0  0  0  0  0  0  0  0  0  0
   -0.6152   -4.2540    0.0000 C    0  0  0  0  0  0  0  0  0  0  0  0
   -0.2098   -4.9693    0.0000 C    0  0  0  0  0  0  0  0  0  0  0  0
   -0.2098   -3.5481    0.0000 C    0  0  0  0  0  0  0  0  0  0  0  0
    1.0206   -5.6799    0.0000 Cl   0  0  0  0  0  0  0  0  0  0  0  0
    1.8456   -4.2540    0.0000 O    0  0  0  0  0  0  0  0  0  0  0  0
    1.0206   -2.8328    0.0000 O    0  0  0  0  0  0  0  0  0  0  0  0
    2.2510   -4.9645    0.0000 C    0  0  0  0  0  0  0  0  0  0  0  0
    1.8361   -2.8233    0.0000 C    0  0  0  0  0  0  0  0  0  0  0  0
    2.2462   -2.1174    0.0000 C    0  0  0  0  0  0  0  0  0  0  0  0
  2  1  1  0  0  0  0
  3  1  1  0  0  0  0
  4  2  1  0  0  0  0
  5  3  1  0  0  0  0
  5  4  1  0  0  0  0
  6  1  1  0  0  0  0
  7  4  1  0  0  0  0
  7 14  1  0  0  0  0
  8  5  1  0  0  0  0
  9 13  1  0  0  0  0
 10  7  1  0  0  0  0
 11  8  1  0  0  0  0
 11 10  2  0  0  0  0
 12 21  1  0  0  0  0
 12  9  2  0  0  0  0
 13 22  2  0  0  0  0
 14  8  1  0  0  0  0
 15 26  1  0  0  0  0
 16 15  3  0  0  0  0
 17  2  2  0  0  0  0
 18  3  2  0  0  0  0
 19  6  2  0  0  0  0
 20 19  1  0  0  0  0
 21 20  2  0  0  0  0
 22 20  1  0  0  0  0
 23 12  1  0  0  0  0
 24  9  1  0  0  0  0
 25 13  1  0  0  0  0
 26 24  1  0  0  0  0
 27 25  1  0  0  0  0
 28 27  1  0  0  0  0
M  END
> <CdId>
1078

> <Mol Weight>
398.84

> <Formula>
C21H19ClN2O4

> <Click_ID>
CLK015_A03 __ __ 

$$$$
