CLK048H06
 OpenBabel03181419432D

 22 24  0  0  0  0  0  0  0  0999 V2000
    1.8542    0.3583    0.0000 C   0  0  0  0  0  0  0  0  0  0  0  0
    1.8542    1.1833    0.0000 C   0  0  0  0  0  0  0  0  0  0  0  0
    3.1208    0.7708    0.0000 N   0  0  0  0  0  0  0  0  0  0  0  0
    2.6375    1.4375    0.0000 N   0  0  0  0  0  0  0  0  0  0  0  0
    2.6375    0.1042    0.0000 C   0  0  0  0  0  0  0  0  0  0  0  0
    0.4250    0.3583    0.0000 C   0  0  0  0  0  0  0  0  0  0  0  0
    1.1375    1.5958    0.0000 N   0  0  0  0  0  0  0  0  0  0  0  0
    1.1375   -0.0542    0.0000 C   0  0  0  0  0  0  0  0  0  0  0  0
   -0.2917   -0.0542    0.0000 C   0  0  0  0  0  0  0  0  0  0  0  0
   -1.0042    0.3583    0.0000 N   0  0  0  0  0  0  0  0  0  0  0  0
   -2.4333   -2.1167    0.0000 C   0  0  0  0  0  0  0  0  0  0  0  0
    0.4250    1.1833    0.0000 C   0  0  0  0  0  0  0  0  0  0  0  0
   -2.4333   -2.9417    0.0000 C   0  0  0  0  0  0  0  0  0  0  0  0
   -0.2917   -0.8792    0.0000 O   0  0  0  0  0  0  0  0  0  0  0  0
   -1.7208   -0.0542    0.0000 C   0  0  0  0  0  0  0  0  0  0  0  0
   -2.4333   -1.2917    0.0000 C   0  0  0  0  0  0  0  0  0  0  0  0
   -1.7208   -0.8792    0.0000 C   0  0  0  0  0  0  0  0  0  0  0  0
    2.8917    2.2208    0.0000 C   0  0  0  0  0  0  0  0  0  0  0  0
    2.8917   -0.6792    0.0000 C   0  0  0  0  0  0  0  0  0  0  0  0
   -3.1500   -0.0542    0.0000 C   0  0  0  0  0  0  0  0  0  0  0  0
   -2.4333    0.3583    0.0000 C   0  0  0  0  0  0  0  0  0  0  0  0
   -3.1500   -0.8792    0.0000 C   0  0  0  0  0  0  0  0  0  0  0  0
  2  1  2  0  0  0  0
  3  5  2  0  0  0  0
  4  2  1  0  0  0  0
  4  3  1  0  0  0  0
  5  1  1  0  0  0  0
  6  8  2  0  0  0  0
  6 12  1  0  0  0  0
  7  2  1  0  0  0  0
  8  1  1  0  0  0  0
  9  6  1  0  0  0  0
 10  9  1  0  0  0  0
 11 16  1  0  0  0  0
 12  7  2  0  0  0  0
 13 11  3  0  0  0  0
 14  9  2  0  0  0  0
 15 10  1  0  0  0  0
 16 17  1  0  0  0  0
 17 15  2  0  0  0  0
 18  4  1  0  0  0  0
 19  5  1  0  0  0  0
 20 21  2  0  0  0  0
 21 15  1  0  0  0  0
 22 16  2  0  0  0  0
 22 20  1  0  0  0  0
M  END
> <CdId>
3688

> <Mol Weight>
290.3193

> <Formula>
C17H14N4O

> <Click_ID>
CLK048H06 __ __ 

$$$$
