CLK036_G05
 OpenBabel03181419432D

 26 28  0  0  0  0  0  0  0  0999 V2000
   -0.4764    4.8694    0.0000 C   0  0  0  0  0  0  0  0  0  0  0  0
   -0.0641    4.1456    0.0000 N   0  0  0  0  0  0  0  0  0  0  0  0
   -1.2872    4.9519    0.0000 N   0  0  0  0  0  0  0  0  0  0  0  0
   -0.1374    5.6252    0.0000 S   0  0  0  0  0  0  0  0  0  0  0  0
    2.4095    1.2734    0.0000 S   0  0  0  0  0  0  0  0  0  0  0  0
   -0.7512    6.1749    0.0000 C   0  0  0  0  0  0  0  0  0  0  0  0
   -1.4658    5.7627    0.0000 C   0  0  0  0  0  0  0  0  0  0  0  0
    0.7696    4.1456    0.0000 C   0  0  0  0  0  0  0  0  0  0  0  0
   -0.7512    6.9995    0.0000 C   0  0  0  0  0  0  0  0  0  0  0  0
    2.0064    2.0018    0.0000 C   0  0  0  0  0  0  0  0  0  0  0  0
   -1.5666    3.5684    0.0000 C   0  0  0  0  0  0  0  0  0  0  0  0
   -1.3055    2.7851    0.0000 C   0  0  0  0  0  0  0  0  0  0  0  0
   -2.1804    6.1749    0.0000 C   0  0  0  0  0  0  0  0  0  0  0  0
    1.1818    3.4310    0.0000 C   0  0  0  0  0  0  0  0  0  0  0  0
    1.6949    0.8612    0.0000 O   0  0  0  0  0  0  0  0  0  0  0  0
    3.1379    1.6857    0.0000 O   0  0  0  0  0  0  0  0  0  0  0  0
    1.1818    4.8419    0.0000 O   0  0  0  0  0  0  0  0  0  0  0  0
   -1.8277    4.3380    0.0000 C   0  0  0  0  0  0  0  0  0  0  0  0
    1.1818    2.0018    0.0000 C   0  0  0  0  0  0  0  0  0  0  0  0
    2.4095    2.7164    0.0000 C   0  0  0  0  0  0  0  0  0  0  0  0
    0.7696    2.7164    0.0000 C   0  0  0  0  0  0  0  0  0  0  0  0
    2.0064    3.4310    0.0000 C   0  0  0  0  0  0  0  0  0  0  0  0
   -1.4658    7.4118    0.0000 C   0  0  0  0  0  0  0  0  0  0  0  0
   -2.1804    6.9995    0.0000 C   0  0  0  0  0  0  0  0  0  0  0  0
    2.8309    0.5497    0.0000 C   0  0  0  0  0  0  0  0  0  0  0  0
   -1.4658    8.2363    0.0000 F   0  0  0  0  0  0  0  0  0  0  0  0
  2  1  2  0  0  0  0
  3  1  1  0  0  0  0
  4  1  1  0  0  0  0
  5 10  1  0  0  0  0
  6  4  1  0  0  0  0
  7  3  1  0  0  0  0
  7  6  2  0  0  0  0
  8  2  1  0  0  0  0
  9  6  1  0  0  0  0
 10 20  1  0  0  0  0
 10 19  2  0  0  0  0
 11 18  1  0  0  0  0
 12 11  3  0  0  0  0
 13  7  1  0  0  0  0
 14  8  1  0  0  0  0
 15  5  2  0  0  0  0
 16  5  2  0  0  0  0
 17  8  2  0  0  0  0
 18  3  1  0  0  0  0
 19 21  1  0  0  0  0
 20 22  2  0  0  0  0
 21 14  2  0  0  0  0
 22 14  1  0  0  0  0
 23  9  2  0  0  0  0
 24 13  2  0  0  0  0
 24 23  1  0  0  0  0
 25  5  1  0  0  0  0
 26 23  1  0  0  0  0
M  END
> <CdId>
2762

> <Mol Weight>
388.436

> <Formula>
C18H13FN2O3S2

> <Click_ID>
CLK036_G05 __ __ 

$$$$
