CLK031_B04
 OpenBabel03181419432D

 37 39  0  0  0  0  0  0  0  0999 V2000
   -1.1626    2.3835    0.0000 C   0  0  0  0  0  0  0  0  0  0  0  0
    3.3878    3.0961    0.0000 S   0  0  0  0  0  0  0  0  0  0  0  0
   -0.3375    2.3752    0.0000 N   0  0  0  0  0  0  0  0  0  0  0  0
   -4.5837    3.2128    0.0000 S   0  0  0  0  0  0  0  0  0  0  0  0
   -1.6460    1.7210    0.0000 N   0  0  0  0  0  0  0  0  0  0  0  0
   -1.6460    3.0503    0.0000 S   0  0  0  0  0  0  0  0  0  0  0  0
    4.2171    3.0961    0.0000 N   0  0  0  0  0  0  0  0  0  0  0  0
   -2.4335    2.7961    0.0000 C   0  0  0  0  0  0  0  0  0  0  0  0
   -2.4335    1.9710    0.0000 C   0  0  0  0  0  0  0  0  0  0  0  0
    0.0750    3.0878    0.0000 C   0  0  0  0  0  0  0  0  0  0  0  0
   -3.8587    2.7961    0.0000 C   0  0  0  0  0  0  0  0  0  0  0  0
   -3.1461    3.2086    0.0000 C   0  0  0  0  0  0  0  0  0  0  0  0
    2.5544    3.0878    0.0000 C   0  0  0  0  0  0  0  0  0  0  0  0
   -1.9460    0.3208    0.0000 C   0  0  0  0  0  0  0  0  0  0  0  0
    3.3878    2.2710    0.0000 O   0  0  0  0  0  0  0  0  0  0  0  0
    3.3795    3.9212    0.0000 O   0  0  0  0  0  0  0  0  0  0  0  0
   -3.1461    1.5584    0.0000 C   0  0  0  0  0  0  0  0  0  0  0  0
   -2.4960   -0.2917    0.0000 C   0  0  0  0  0  0  0  0  0  0  0  0
   -5.0213    2.5085    0.0000 O   0  0  0  0  0  0  0  0  0  0  0  0
   -4.1462    3.9087    0.0000 O   0  0  0  0  0  0  0  0  0  0  0  0
    0.9001    3.0878    0.0000 C   0  0  0  0  0  0  0  0  0  0  0  0
    4.6254    3.8129    0.0000 C   0  0  0  0  0  0  0  0  0  0  0  0
    4.6296    2.3752    0.0000 C   0  0  0  0  0  0  0  0  0  0  0  0
   -5.2838    3.6461    0.0000 N   0  0  0  0  0  0  0  0  0  0  0  0
   -0.3375    3.8004    0.0000 O   0  0  0  0  0  0  0  0  0  0  0  0
   -3.8587    1.9710    0.0000 C   0  0  0  0  0  0  0  0  0  0  0  0
   -1.3959    0.9334    0.0000 C   0  0  0  0  0  0  0  0  0  0  0  0
    2.1419    2.3710    0.0000 C   0  0  0  0  0  0  0  0  0  0  0  0
    2.1419    3.8004    0.0000 C   0  0  0  0  0  0  0  0  0  0  0  0
    1.3168    3.8004    0.0000 C   0  0  0  0  0  0  0  0  0  0  0  0
    1.3168    2.3585    0.0000 C   0  0  0  0  0  0  0  0  0  0  0  0
    5.4547    2.3835    0.0000 C   0  0  0  0  0  0  0  0  0  0  0  0
    4.2171    4.5129    0.0000 C   0  0  0  0  0  0  0  0  0  0  0  0
    5.8673    3.0961    0.0000 C   0  0  0  0  0  0  0  0  0  0  0  0
    5.8631    1.6752    0.0000 C   0  0  0  0  0  0  0  0  0  0  0  0
    4.6296    5.2172    0.0000 C   0  0  0  0  0  0  0  0  0  0  0  0
    3.3920    4.5129    0.0000 C   0  0  0  0  0  0  0  0  0  0  0  0
  2 13  1  0  0  0  0
  3  1  2  0  0  0  0
  4 11  1  0  0  0  0
  5  1  1  0  0  0  0
  6  1  1  0  0  0  0
  7  2  1  0  0  0  0
  8  6  1  0  0  0  0
  8  9  2  0  0  0  0
  9  5  1  0  0  0  0
 10  3  1  0  0  0  0
 11 12  2  0  0  0  0
 11 26  1  0  0  0  0
 12  8  1  0  0  0  0
 13 28  2  0  0  0  0
 14 27  1  0  0  0  0
 15  2  2  0  0  0  0
 16  2  2  0  0  0  0
 17  9  1  0  0  0  0
 18 14  3  0  0  0  0
 19  4  2  0  0  0  0
 20  4  2  0  0  0  0
 21 10  1  0  0  0  0
 22  7  1  0  0  0  0
 23  7  1  0  0  0  0
 24  4  1  0  0  0  0
 25 10  2  0  0  0  0
 26 17  2  0  0  0  0
 27  5  1  0  0  0  0
 28 31  1  0  0  0  0
 29 30  2  0  0  0  0
 29 13  1  0  0  0  0
 30 21  1  0  0  0  0
 31 21  2  0  0  0  0
 32 23  1  0  0  0  0
 33 22  1  0  0  0  0
 34 32  1  0  0  0  0
 35 32  1  0  0  0  0
 36 33  1  0  0  0  0
 37 33  1  0  0  0  0
M  END
> <CdId>
2338

> <Mol Weight>
562.725

> <Formula>
C25H30N4O5S3

> <Click_ID>
CLK031_B04 __ __ 

$$$$
