CLK050H11
 OpenBabel03181419432D

 16 16  0  0  0  0  0  0  0  0999 V2000
    0.2208    1.2667    0.0000 C    0  0  0  0  0  0  0  0  0  0  0  0
   -1.2083   -1.2083    0.0000 C    0  0  0  0  0  0  0  0  0  0  0  0
   -0.4917   -0.7958    0.0000 C    0  0  0  0  0  0  0  0  0  0  0  0
    1.6500    2.9167    0.0000 C    0  0  0  0  0  0  0  0  0  0  0  0
    2.3667    3.3292    0.0000 C    0  0  0  0  0  0  0  0  0  0  0  0
   -1.2083   -2.0333    0.0000 C    0  0  0  0  0  0  0  0  0  0  0  0
    0.2208    0.4417    0.0000 N    0  0  0  0  0  0  0  0  0  0  0  0
   -0.4917    0.0292    0.0000 C    0  0  0  0  0  0  0  0  0  0  0  0
   -0.4917    1.6792    0.0000 O    0  0  0  0  0  0  0  0  0  0  0  0
    0.2208   -1.2083    0.0000 C    0  0  0  0  0  0  0  0  0  0  0  0
    0.9375    1.6792    0.0000 N    0  0  0  0  0  0  0  0  0  0  0  0
   -0.4917   -2.4458    0.0000 C    0  0  0  0  0  0  0  0  0  0  0  0
   -1.9208   -0.7958    0.0000 Cl   0  0  0  0  0  0  0  0  0  0  0  0
    0.2208   -2.0333    0.0000 C    0  0  0  0  0  0  0  0  0  0  0  0
   -0.4917   -3.2708    0.0000 Cl   0  0  0  0  0  0  0  0  0  0  0  0
    0.9375    2.5042    0.0000 C    0  0  0  0  0  0  0  0  0  0  0  0
  2  3  2  0  0  0  0
  3  8  1  0  0  0  0
  4 16  1  0  0  0  0
  5  4  3  0  0  0  0
  6  2  1  0  0  0  0
  7  1  1  0  0  0  0
  8  7  1  0  0  0  0
  9  1  2  0  0  0  0
 10  3  1  0  0  0  0
 11  1  1  0  0  0  0
 12  6  2  0  0  0  0
 13  2  1  0  0  0  0
 14 10  2  0  0  0  0
 14 12  1  0  0  0  0
 15 12  1  0  0  0  0
 16 11  1  0  0  0  0
M  END
> <CdId>
3888

> <Mol Weight>
257.116

> <Formula>
C11H10Cl2N2O

> <Click_ID>
CLK050H11 __ __ 

$$$$
