CLK010_D10
 OpenBabel03181419432D

 25 27  0  0  0  0  0  0  0  0999 V2000
    6.9255   -3.0621    0.0000 C    0  0  0  0  0  0  0  0  0  0  0  0
    7.6924   -3.3998    0.0000 C    0  0  0  0  0  0  0  0  0  0  0  0
    7.0113   -2.2379    0.0000 C    0  0  0  0  0  0  0  0  0  0  0  0
    7.8183   -2.0662    0.0000 C    0  0  0  0  0  0  0  0  0  0  0  0
    8.2304   -2.7874    0.0000 C    0  0  0  0  0  0  0  0  0  0  0  0
    6.2157   -3.4742    0.0000 C    0  0  0  0  0  0  0  0  0  0  0  0
    6.2157   -5.9582    0.0000 C    0  0  0  0  0  0  0  0  0  0  0  0
    5.5003   -5.5347    0.0000 C    0  0  0  0  0  0  0  0  0  0  0  0
    6.9369   -5.5347    0.0000 C    0  0  0  0  0  0  0  0  0  0  0  0
    6.2215   -4.2984    0.0000 C    0  0  0  0  0  0  0  0  0  0  0  0
    5.4832   -8.0072    0.0000 C    0  0  0  0  0  0  0  0  0  0  0  0
    4.7734   -8.4307    0.0000 C    0  0  0  0  0  0  0  0  0  0  0  0
    5.5003   -4.7105    0.0000 C    0  0  0  0  0  0  0  0  0  0  0  0
    6.9369   -4.7105    0.0000 C    0  0  0  0  0  0  0  0  0  0  0  0
    6.3932   -1.6885    0.0000 O    0  0  0  0  0  0  0  0  0  0  0  0
    8.4708   -3.6116    0.0000 O    0  0  0  0  0  0  0  0  0  0  0  0
    4.7792   -5.9582    0.0000 Br   0  0  0  0  0  0  0  0  0  0  0  0
    6.2157   -6.7823    0.0000 O    0  0  0  0  0  0  0  0  0  0  0  0
    7.6466   -5.9753    0.0000 O    0  0  0  0  0  0  0  0  0  0  0  0
    9.0488   -2.7874    0.0000 C    0  0  0  0  0  0  0  0  0  0  0  0
    8.2304   -1.3622    0.0000 C    0  0  0  0  0  0  0  0  0  0  0  0
    5.4946   -7.1830    0.0000 C    0  0  0  0  0  0  0  0  0  0  0  0
    7.6466   -6.7881    0.0000 C    0  0  0  0  0  0  0  0  0  0  0  0
    9.0488   -1.3565    0.0000 C    0  0  0  0  0  0  0  0  0  0  0  0
    9.4609   -2.0662    0.0000 C    0  0  0  0  0  0  0  0  0  0  0  0
  2  1  1  0  0  0  0
  3  1  1  0  0  0  0
  4  3  1  0  0  0  0
  5  2  1  0  0  0  0
  5  4  2  0  0  0  0
  6  1  2  0  0  0  0
  7  9  1  0  0  0  0
  7  8  2  0  0  0  0
  8 13  1  0  0  0  0
  9 14  2  0  0  0  0
 10  6  1  0  0  0  0
 11 22  1  0  0  0  0
 12 11  3  0  0  0  0
 13 10  2  0  0  0  0
 14 10  1  0  0  0  0
 15  3  2  0  0  0  0
 16  2  2  0  0  0  0
 17  8  1  0  0  0  0
 18  7  1  0  0  0  0
 19  9  1  0  0  0  0
 20  5  1  0  0  0  0
 21  4  1  0  0  0  0
 22 18  1  0  0  0  0
 23 19  1  0  0  0  0
 24 21  2  0  0  0  0
 24 25  1  0  0  0  0
 25 20  2  0  0  0  0
M  END
> <CdId>
715

> <Mol Weight>
397.219

> <Formula>
C20H13BrO4

> <Click_ID>
CLK010_D10 __ __ 

$$$$
