CLK012_F06
 OpenBabel03181419432D

 24 25  0  0  0  0  0  0  0  0999 V2000
    1.5629   -0.8147    0.0000 N    0  0  0  0  0  0  0  0  0  0  0  0
    1.8205   -1.6003    0.0000 C    0  0  0  0  0  0  0  0  0  0  0  0
    2.2320   -0.3284    0.0000 C    0  0  0  0  0  0  0  0  0  0  0  0
    2.8971   -0.8147    0.0000 C    0  0  0  0  0  0  0  0  0  0  0  0
    2.6435   -1.6003    0.0000 S    0  0  0  0  0  0  0  0  0  0  0  0
    4.2146    1.8662    0.0000 C    0  0  0  0  0  0  0  0  0  0  0  0
    3.6827   -0.5611    0.0000 C    0  0  0  0  0  0  0  0  0  0  0  0
    4.8256    1.3176    0.0000 C    0  0  0  0  0  0  0  0  0  0  0  0
    3.4208    1.6168    0.0000 C    0  0  0  0  0  0  0  0  0  0  0  0
    3.8530    0.2452    0.0000 C    0  0  0  0  0  0  0  0  0  0  0  0
    4.4017    2.6684    0.0000 O    0  0  0  0  0  0  0  0  0  0  0  0
    0.6110    0.2452    0.0000 C    0  0  0  0  0  0  0  0  0  0  0  0
    0.3907    1.0432    0.0000 C    0  0  0  0  0  0  0  0  0  0  0  0
    1.3342   -2.2611    0.0000 O    0  0  0  0  0  0  0  0  0  0  0  0
    3.2462    0.8105    0.0000 C    0  0  0  0  0  0  0  0  0  0  0  0
    4.6386    0.4988    0.0000 C    0  0  0  0  0  0  0  0  0  0  0  0
    2.2237    0.4946    0.0000 O    0  0  0  0  0  0  0  0  0  0  0  0
    5.3660    3.7241    0.0000 C    0  0  0  0  0  0  0  0  0  0  0  0
    0.7856   -0.5611    0.0000 C    0  0  0  0  0  0  0  0  0  0  0  0
    4.7633    4.2812    0.0000 O    0  0  0  0  0  0  0  0  0  0  0  0
    5.1790    2.9261    0.0000 C    0  0  0  0  0  0  0  0  0  0  0  0
    5.6029    1.5669    0.0000 Br   0  0  0  0  0  0  0  0  0  0  0  0
    2.8223    2.1779    0.0000 Cl   0  0  0  0  0  0  0  0  0  0  0  0
    6.1641    3.9777    0.0000 O    0  0  0  0  0  0  0  0  0  0  0  0
  2  1  1  0  0  0  0
  3  1  1  0  0  0  0
  4  3  1  0  0  0  0
  4  5  1  0  0  0  0
  5  2  1  0  0  0  0
  6  8  1  0  0  0  0
  6  9  2  0  0  0  0
  7  4  2  0  0  0  0
  8 16  2  0  0  0  0
  9 15  1  0  0  0  0
 10  7  1  0  0  0  0
 11  6  1  0  0  0  0
 12 19  1  0  0  0  0
 13 12  3  0  0  0  0
 14  2  2  0  0  0  0
 15 10  2  0  0  0  0
 16 10  1  0  0  0  0
 17  3  2  0  0  0  0
 18 21  1  0  0  0  0
 19  1  1  0  0  0  0
 20 18  2  0  0  0  0
 21 11  1  0  0  0  0
 22  8  1  0  0  0  0
 23  9  1  0  0  0  0
 24 18  1  0  0  0  0
M  END
> <CdId>
891

> <Mol Weight>
430.658

> <Formula>
C15H9BrClNO5S

> <Click_ID>
CLK012_F06 __ __ 

$$$$
