CLK038F09
 OpenBabel03181419432D

 31 32  0  0  0  0  0  0  0  0999 V2000
   -0.5208    0.4875    0.0000 C   0  0  0  0  0  0  0  0  0  0  0  0
   -0.0333   -0.1792    0.0000 C   0  0  0  0  0  0  0  0  0  0  0  0
    0.7500    0.0750    0.0000 N   0  0  0  0  0  0  0  0  0  0  0  0
    0.7500    0.9000    0.0000 N   0  0  0  0  0  0  0  0  0  0  0  0
   -0.0333    1.1542    0.0000 C   0  0  0  0  0  0  0  0  0  0  0  0
   -0.2917   -0.9667    0.0000 C   0  0  0  0  0  0  0  0  0  0  0  0
    6.5667    0.3583    0.0000 C   0  0  0  0  0  0  0  0  0  0  0  0
    6.1542   -0.3542    0.0000 C   0  0  0  0  0  0  0  0  0  0  0  0
   -2.9958    1.9167    0.0000 C   0  0  0  0  0  0  0  0  0  0  0  0
   -3.4083    2.6292    0.0000 C   0  0  0  0  0  0  0  0  0  0  0  0
   -1.0958   -1.1375    0.0000 C   0  0  0  0  0  0  0  0  0  0  0  0
    1.4167    1.3833    0.0000 C   0  0  0  0  0  0  0  0  0  0  0  0
    7.3917    0.3583    0.0000 O   0  0  0  0  0  0  0  0  0  0  0  0
    6.5667   -1.0708    0.0000 O   0  0  0  0  0  0  0  0  0  0  0  0
   -1.3458    0.4875    0.0000 C   0  0  0  0  0  0  0  0  0  0  0  0
    6.1542    1.0750    0.0000 O   0  0  0  0  0  0  0  0  0  0  0  0
    5.3292   -0.3542    0.0000 O   0  0  0  0  0  0  0  0  0  0  0  0
   -1.3500   -1.9208    0.0000 C   0  0  0  0  0  0  0  0  0  0  0  0
   -1.7583    1.2000    0.0000 N   0  0  0  0  0  0  0  0  0  0  0  0
    2.1708    1.0500    0.0000 C   0  0  0  0  0  0  0  0  0  0  0  0
   -2.5833    1.2000    0.0000 C   0  0  0  0  0  0  0  0  0  0  0  0
    0.2625   -1.5792    0.0000 C   0  0  0  0  0  0  0  0  0  0  0  0
   -2.1583   -2.0917    0.0000 O   0  0  0  0  0  0  0  0  0  0  0  0
    0.0083   -2.3625    0.0000 C   0  0  0  0  0  0  0  0  0  0  0  0
   -0.8000   -2.5333    0.0000 C   0  0  0  0  0  0  0  0  0  0  0  0
    2.8375    1.5333    0.0000 C   0  0  0  0  0  0  0  0  0  0  0  0
    2.2583    0.2292    0.0000 C   0  0  0  0  0  0  0  0  0  0  0  0
   -2.4125   -2.8792    0.0000 C   0  0  0  0  0  0  0  0  0  0  0  0
    3.0125   -0.1083    0.0000 C   0  0  0  0  0  0  0  0  0  0  0  0
    3.5917    1.1958    0.0000 C   0  0  0  0  0  0  0  0  0  0  0  0
    3.6792    0.3792    0.0000 C   0  0  0  0  0  0  0  0  0  0  0  0
  2  1  1  0  0  0  0
  3  2  2  0  0  0  0
  4  5  1  0  0  0  0
  4  3  1  0  0  0  0
  5  1  2  0  0  0  0
  6  2  1  0  0  0  0
  8  7  1  0  0  0  0
  9 21  1  0  0  0  0
 10  9  3  0  0  0  0
 11  6  1  0  0  0  0
 12  4  1  0  0  0  0
 13  7  2  0  0  0  0
 14  8  2  0  0  0  0
 15  1  1  0  0  0  0
 16  7  1  0  0  0  0
 17  8  1  0  0  0  0
 18 11  2  0  0  0  0
 19 15  1  0  0  0  0
 20 12  1  0  0  0  0
 21 19  1  0  0  0  0
 22  6  2  0  0  0  0
 23 18  1  0  0  0  0
 24 22  1  0  0  0  0
 24 25  2  0  0  0  0
 25 18  1  0  0  0  0
 26 20  2  0  0  0  0
 27 20  1  0  0  0  0
 28 23  1  0  0  0  0
 29 27  2  0  0  0  0
 30 26  1  0  0  0  0
 31 30  2  0  0  0  0
 31 29  1  0  0  0  0
M  END
> <CdId>
2910

> <Mol Weight>
421.4458

> <Formula>
C23H23N3O5

> <Click_ID>
CLK038F09 __ __ 

$$$$
