CLK050F05
 OpenBabel03181419432D

 17 18  0  0  0  0  0  0  0  0999 V2000
    0.0709   -0.5426    0.0000 C   0  0  0  0  0  0  0  0  0  0  0  0
    0.0709    0.7930    0.0000 N   0  0  0  0  0  0  0  0  0  0  0  0
    0.8556    0.5384    0.0000 N   0  0  0  0  0  0  0  0  0  0  0  0
   -0.4174    0.1252    0.0000 C   0  0  0  0  0  0  0  0  0  0  0  0
   -0.1878   -1.3272    0.0000 C   0  0  0  0  0  0  0  0  0  0  0  0
    0.8556   -0.2880    0.0000 C   0  0  0  0  0  0  0  0  0  0  0  0
    0.6636   -3.3431    0.0000 C   0  0  0  0  0  0  0  0  0  0  0  0
    1.2188   -3.9567    0.0000 C   0  0  0  0  0  0  0  0  0  0  0  0
   -0.1878    1.5819    0.0000 C   0  0  0  0  0  0  0  0  0  0  0  0
   -0.9934   -1.4983    0.0000 O   0  0  0  0  0  0  0  0  0  0  0  0
    0.3673   -1.9408    0.0000 N   0  0  0  0  0  0  0  0  0  0  0  0
    0.1127   -2.7296    0.0000 C   0  0  0  0  0  0  0  0  0  0  0  0
    0.3673    2.1954    0.0000 C   0  0  0  0  0  0  0  0  0  0  0  0
   -0.9934    1.7530    0.0000 C   0  0  0  0  0  0  0  0  0  0  0  0
   -1.2479    2.5376    0.0000 C   0  0  0  0  0  0  0  0  0  0  0  0
    0.1127    2.9800    0.0000 C   0  0  0  0  0  0  0  0  0  0  0  0
   -0.6970    3.1511    0.0000 C   0  0  0  0  0  0  0  0  0  0  0  0
  2  4  1  0  0  0  0
  2  3  1  0  0  0  0
  3  6  2  0  0  0  0
  4  1  2  0  0  0  0
  5  1  1  0  0  0  0
  6  1  1  0  0  0  0
  7 12  1  0  0  0  0
  8  7  3  0  0  0  0
  9  2  1  0  0  0  0
 10  5  2  0  0  0  0
 11  5  1  0  0  0  0
 12 11  1  0  0  0  0
 13  9  1  0  0  0  0
 14  9  2  0  0  0  0
 15 14  1  0  0  0  0
 16 13  2  0  0  0  0
 17 15  2  0  0  0  0
 17 16  1  0  0  0  0
M  END
> <CdId>
3838

> <Mol Weight>
225.2459

> <Formula>
C13H11N3O

> <Click_ID>
CLK050F05 __ __ 

$$$$
