CLK041C02
 OpenBabel03181419432D

 23 23  0  0  0  0  0  0  0  0999 V2000
   -0.7167    1.9208    0.0000 C   0  0  0  0  0  0  0  0  0  0  0  0
    0.0000    1.5083    0.0000 C   0  0  0  0  0  0  0  0  0  0  0  0
   -1.4292    1.5083    0.0000 C   0  0  0  0  0  0  0  0  0  0  0  0
    0.0000   -0.9667    0.0000 C   0  0  0  0  0  0  0  0  0  0  0  0
    1.4250   -2.6167    0.0000 C   0  0  0  0  0  0  0  0  0  0  0  0
   -0.7167    0.2708    0.0000 C   0  0  0  0  0  0  0  0  0  0  0  0
    2.1417   -3.0292    0.0000 C   0  0  0  0  0  0  0  0  0  0  0  0
    0.0000   -1.7917    0.0000 N   0  0  0  0  0  0  0  0  0  0  0  0
    0.0000    0.6833    0.0000 C   0  0  0  0  0  0  0  0  0  0  0  0
   -1.4292    0.6833    0.0000 C   0  0  0  0  0  0  0  0  0  0  0  0
    0.7125   -2.2042    0.0000 C   0  0  0  0  0  0  0  0  0  0  0  0
    0.7125   -0.5542    0.0000 O   0  0  0  0  0  0  0  0  0  0  0  0
   -0.7167   -0.5542    0.0000 C   0  0  0  0  0  0  0  0  0  0  0  0
   -0.7167    2.7458    0.0000 O   0  0  0  0  0  0  0  0  0  0  0  0
   -2.1458    1.9208    0.0000 O   0  0  0  0  0  0  0  0  0  0  0  0
    0.7125    1.9208    0.0000 O   0  0  0  0  0  0  0  0  0  0  0  0
    0.3000   -2.9167    0.0000 C   0  0  0  0  0  0  0  0  0  0  0  0
    1.1250   -1.4875    0.0000 C   0  0  0  0  0  0  0  0  0  0  0  0
    0.0000    3.1583    0.0000 C   0  0  0  0  0  0  0  0  0  0  0  0
   -2.1458    2.7458    0.0000 C   0  0  0  0  0  0  0  0  0  0  0  0
    1.4250    1.5083    0.0000 C   0  0  0  0  0  0  0  0  0  0  0  0
    1.9500   -1.4875    0.0000 C   0  0  0  0  0  0  0  0  0  0  0  0
   -0.5250   -2.9167    0.0000 C   0  0  0  0  0  0  0  0  0  0  0  0
  2  1  1  0  0  0  0
  3  1  2  0  0  0  0
  4 13  1  0  0  0  0
  5 11  1  0  0  0  0
  6 10  2  0  0  0  0
  7  5  3  0  0  0  0
  8  4  1  0  0  0  0
  9  2  2  0  0  0  0
  9  6  1  0  0  0  0
 10  3  1  0  0  0  0
 11  8  1  0  0  0  0
 12  4  2  0  0  0  0
 13  6  1  0  0  0  0
 14  1  1  0  0  0  0
 15  3  1  0  0  0  0
 16  2  1  0  0  0  0
 17 11  1  0  0  0  0
 18 11  1  0  0  0  0
 19 14  1  0  0  0  0
 20 15  1  0  0  0  0
 21 16  1  0  0  0  0
 22 18  1  0  0  0  0
 23 17  1  0  0  0  0
M  END
> <CdId>
3091

> <Mol Weight>
319.3954

> <Formula>
C18H25NO4

> <Click_ID>
CLK041C02 __ __ 

$$$$
