CLK002_B05
 OpenBabel03181419432D

 22 22  0  0  0  0  0  0  0  0999 V2000
    1.0320   -0.9423    0.0000 C   0  0  0  0  0  0  0  0  0  0  0  0
    1.4428   -0.2278    0.0000 C   0  0  0  0  0  0  0  0  0  0  0  0
    1.4462   -1.6533    0.0000 C   0  0  0  0  0  0  0  0  0  0  0  0
    0.2071   -0.9423    0.0000 N   0  0  0  0  0  0  0  0  0  0  0  0
    2.2608   -0.2278    0.0000 C   0  0  0  0  0  0  0  0  0  0  0  0
    2.2712   -1.6533    0.0000 C   0  0  0  0  0  0  0  0  0  0  0  0
   -0.2036   -0.2278    0.0000 C   0  0  0  0  0  0  0  0  0  0  0  0
    2.6819   -0.9423    0.0000 C   0  0  0  0  0  0  0  0  0  0  0  0
   -1.0320   -0.2278    0.0000 C   0  0  0  0  0  0  0  0  0  0  0  0
    0.2071    0.4867    0.0000 O   0  0  0  0  0  0  0  0  0  0  0  0
    3.5103   -0.9354    0.0000 C   0  0  0  0  0  0  0  0  0  0  0  0
   -1.4428    0.4867    0.0000 C   0  0  0  0  0  0  0  0  0  0  0  0
    3.9245   -1.6499    0.0000 O   0  0  0  0  0  0  0  0  0  0  0  0
    3.9210   -0.2140    0.0000 O   0  0  0  0  0  0  0  0  0  0  0  0
   -2.2712    0.4867    0.0000 C   0  0  0  0  0  0  0  0  0  0  0  0
    4.7494   -1.6499    0.0000 C   0  0  0  0  0  0  0  0  0  0  0  0
   -2.6819    1.1978    0.0000 C   0  0  0  0  0  0  0  0  0  0  0  0
   -3.5068    1.1978    0.0000 O   0  0  0  0  0  0  0  0  0  0  0  0
   -2.2712    1.9122    0.0000 O   0  0  0  0  0  0  0  0  0  0  0  0
   -3.9210    1.9122    0.0000 C   0  0  0  0  0  0  0  0  0  0  0  0
   -4.7460    1.9122    0.0000 C   0  0  0  0  0  0  0  0  0  0  0  0
   -5.5744    1.9122    0.0000 C   0  0  0  0  0  0  0  0  0  0  0  0
  1  2  1  0  0  0  0
  1  3  2  0  0  0  0
  1  4  1  0  0  0  0
  2  5  2  0  0  0  0
  3  6  1  0  0  0  0
  4  7  1  0  0  0  0
  5  8  1  0  0  0  0
  6  8  2  0  0  0  0
  7  9  1  0  0  0  0
  7 10  2  0  0  0  0
  8 11  1  0  0  0  0
  9 12  1  0  0  0  0
 11 13  1  0  0  0  0
 11 14  2  0  0  0  0
 12 15  1  0  0  0  0
 13 16  1  0  0  0  0
 15 17  1  0  0  0  0
 17 18  1  0  0  0  0
 17 19  2  0  0  0  0
 18 20  1  0  0  0  0
 20 21  1  0  0  0  0
 21 22  3  0  0  0  0
M  END
> <CdId>
94

> <Mol Weight>
303.3099

> <Formula>
C16H17NO5

> <Click_ID>
CLK002_B05 __ __ 

$$$$
