CLK001_H05
 OpenBabel03181419432D

 27 29  0  0  0  0  0  0  0  0999 V2000
    1.2210   -1.0862    0.0000 C   0  0  0  0  0  0  0  0  0  0  0  0
    1.8056   -0.4982    0.0000 C   0  0  0  0  0  0  0  0  0  0  0  0
    0.4013   -0.9582    0.0000 S   0  0  0  0  0  0  0  0  0  0  0  0
    1.3456   -1.9025    0.0000 C   0  0  0  0  0  0  0  0  0  0  0  0
    1.5842    0.2906    0.0000 C   0  0  0  0  0  0  0  0  0  0  0  0
    0.0277   -1.6881    0.0000 C   0  0  0  0  0  0  0  0  0  0  0  0
    0.6053   -2.2795    0.0000 N   0  0  0  0  0  0  0  0  0  0  0  0
    2.0858   -2.2795    0.0000 O   0  0  0  0  0  0  0  0  0  0  0  0
    0.7922    0.5050    0.0000 C   0  0  0  0  0  0  0  0  0  0  0  0
    2.1619    0.8682    0.0000 C   0  0  0  0  0  0  0  0  0  0  0  0
   -0.8025   -1.6881    0.0000 N   0  0  0  0  0  0  0  0  0  0  0  0
    0.5742    1.3007    0.0000 C   0  0  0  0  0  0  0  0  0  0  0  0
    1.9475    1.6638    0.0000 C   0  0  0  0  0  0  0  0  0  0  0  0
   -1.6258   -1.6638    0.0000 C   0  0  0  0  0  0  0  0  0  0  0  0
    1.1553    1.8852    0.0000 C   0  0  0  0  0  0  0  0  0  0  0  0
   -0.2110    1.5219    0.0000 O   0  0  0  0  0  0  0  0  0  0  0  0
   -2.0650   -2.3660    0.0000 C   0  0  0  0  0  0  0  0  0  0  0  0
   -2.0132   -0.9374    0.0000 C   0  0  0  0  0  0  0  0  0  0  0  0
    0.9443    2.6738    0.0000 O   0  0  0  0  0  0  0  0  0  0  0  0
   -0.7887    0.9408    0.0000 C   0  0  0  0  0  0  0  0  0  0  0  0
   -2.8918   -2.3418    0.0000 C   0  0  0  0  0  0  0  0  0  0  0  0
   -2.8399   -0.9062    0.0000 C   0  0  0  0  0  0  0  0  0  0  0  0
    1.5324    3.2480    0.0000 C   0  0  0  0  0  0  0  0  0  0  0  0
   -3.2792   -1.6084    0.0000 C   0  0  0  0  0  0  0  0  0  0  0  0
    1.3213    4.0505    0.0000 C   0  0  0  0  0  0  0  0  0  0  0  0
   -4.1094   -1.5773    0.0000 F   0  0  0  0  0  0  0  0  0  0  0  0
    1.1173    4.8427    0.0000 C   0  0  0  0  0  0  0  0  0  0  0  0
  1  2  2  0  0  0  0
  1  3  1  0  0  0  0
  1  4  1  0  0  0  0
  2  5  1  0  0  0  0
  3  6  1  0  0  0  0
  4  7  1  0  0  0  0
  4  8  2  0  0  0  0
  5  9  2  0  0  0  0
  5 10  1  0  0  0  0
  6 11  2  0  0  0  0
  6  7  1  0  0  0  0
  9 12  1  0  0  0  0
 10 13  2  0  0  0  0
 11 14  1  0  0  0  0
 12 15  2  0  0  0  0
 12 16  1  0  0  0  0
 13 15  1  0  0  0  0
 14 17  2  0  0  0  0
 14 18  1  0  0  0  0
 15 19  1  0  0  0  0
 16 20  1  0  0  0  0
 17 21  1  0  0  0  0
 18 22  2  0  0  0  0
 19 23  1  0  0  0  0
 21 24  2  0  0  0  0
 22 24  1  0  0  0  0
 23 25  1  0  0  0  0
 24 26  1  0  0  0  0
 25 27  3  0  0  0  0
M  END
> <CdId>
74

> <Mol Weight>
382.408

> <Formula>
C20H15FN2O3S

> <Click_ID>
CLK001_H05 __ __ 

$$$$
