CLK028_D03
 OpenBabel03181419432D

 15 15  0  0  0  0  0  0  0  0999 V2000
    0.3505    0.2165    0.0000 C   0  0  0  0  0  0  0  0  0  0  0  0
    1.0720   -0.1958    0.0000 C   0  0  0  0  0  0  0  0  0  0  0  0
   -0.3608   -0.2027    0.0000 C   0  0  0  0  0  0  0  0  0  0  0  0
   -0.3676    2.2676    0.0000 C   0  0  0  0  0  0  0  0  0  0  0  0
    0.3470    2.6799    0.0000 C   0  0  0  0  0  0  0  0  0  0  0  0
    1.0720   -1.0273    0.0000 C   0  0  0  0  0  0  0  0  0  0  0  0
   -0.3608   -1.0273    0.0000 C   0  0  0  0  0  0  0  0  0  0  0  0
    0.3505   -1.4396    0.0000 C   0  0  0  0  0  0  0  0  0  0  0  0
   -0.3608   -2.6765    0.0000 O   0  0  0  0  0  0  0  0  0  0  0  0
    1.7832    0.2165    0.0000 I   0  0  0  0  0  0  0  0  0  0  0  0
    0.3505   -2.2642    0.0000 C   0  0  0  0  0  0  0  0  0  0  0  0
    0.3505    1.0307    0.0000 O   0  0  0  0  0  0  0  0  0  0  0  0
   -1.0754    0.2096    0.0000 O   0  0  0  0  0  0  0  0  0  0  0  0
   -0.3676    1.4430    0.0000 C   0  0  0  0  0  0  0  0  0  0  0  0
   -1.7866   -0.2027    0.0000 C   0  0  0  0  0  0  0  0  0  0  0  0
  2  1  2  0  0  0  0
  3  1  1  0  0  0  0
  4 14  1  0  0  0  0
  5  4  3  0  0  0  0
  6  2  1  0  0  0  0
  7  3  2  0  0  0  0
  8  7  1  0  0  0  0
  8  6  2  0  0  0  0
  9 11  2  0  0  0  0
 10  2  1  0  0  0  0
 11  8  1  0  0  0  0
 12  1  1  0  0  0  0
 13  3  1  0  0  0  0
 14 12  1  0  0  0  0
 15 13  1  0  0  0  0
M  END
> <CdId>
2117

> <Mol Weight>
316.0918

> <Formula>
C11H9IO3

> <Click_ID>
CLK028_D03 __ __ 

$$$$
