CLK051B10
 OpenBabel03181419432D

 18 19  0  0  0  0  0  0  0  0999 V2000
    0.4376    0.7209    0.0000 C   0  0  0  0  0  0  0  0  0  0  0  0
    0.9209    0.0542    0.0000 C   0  0  0  0  0  0  0  0  0  0  0  0
   -0.3876    0.7209    0.0000 C   0  0  0  0  0  0  0  0  0  0  0  0
    0.9209    1.3877    0.0000 S   0  0  0  0  0  0  0  0  0  0  0  0
   -2.0378    2.1503    0.0000 C   0  0  0  0  0  0  0  0  0  0  0  0
   -2.4503    2.8629    0.0000 C   0  0  0  0  0  0  0  0  0  0  0  0
    0.6668   -0.7293    0.0000 C   0  0  0  0  0  0  0  0  0  0  0  0
    1.7085    1.1335    0.0000 C   0  0  0  0  0  0  0  0  0  0  0  0
    1.7085    0.3083    0.0000 C   0  0  0  0  0  0  0  0  0  0  0  0
   -0.8001    0.0083    0.0000 O   0  0  0  0  0  0  0  0  0  0  0  0
   -0.8001    1.4335    0.0000 N   0  0  0  0  0  0  0  0  0  0  0  0
    1.2210   -1.3460    0.0000 C   0  0  0  0  0  0  0  0  0  0  0  0
   -0.1417   -0.9043    0.0000 C   0  0  0  0  0  0  0  0  0  0  0  0
    0.9626   -2.1295    0.0000 C   0  0  0  0  0  0  0  0  0  0  0  0
   -0.3959   -1.6877    0.0000 C   0  0  0  0  0  0  0  0  0  0  0  0
    0.1583   -2.3003    0.0000 C   0  0  0  0  0  0  0  0  0  0  0  0
   -1.6252    1.4335    0.0000 C   0  0  0  0  0  0  0  0  0  0  0  0
   -0.1000   -3.0837    0.0000 C   0  0  0  0  0  0  0  0  0  0  0  0
  2  1  2  0  0  0  0
  3  1  1  0  0  0  0
  4  1  1  0  0  0  0
  5 17  1  0  0  0  0
  6  5  3  0  0  0  0
  7  2  1  0  0  0  0
  8  4  1  0  0  0  0
  8  9  2  0  0  0  0
  9  2  1  0  0  0  0
 10  3  2  0  0  0  0
 11  3  1  0  0  0  0
 12  7  1  0  0  0  0
 13  7  2  0  0  0  0
 14 12  2  0  0  0  0
 14 16  1  0  0  0  0
 15 13  1  0  0  0  0
 16 15  2  0  0  0  0
 17 11  1  0  0  0  0
 18 16  1  0  0  0  0
M  END
> <CdId>
3954

> <Mol Weight>
255.335

> <Formula>
C15H13NOS

> <Click_ID>
CLK051B10 __ __ 

$$$$
