CLK046C06
 OpenBabel03181419432D

 18 19  0  0  0  0  0  0  0  0999 V2000
   -0.6708    1.5417    0.0000 N   0  0  0  0  0  0  0  0  0  0  0  0
   -1.1542    2.2083    0.0000 C   0  0  0  0  0  0  0  0  0  0  0  0
   -0.9250    0.7583    0.0000 C   0  0  0  0  0  0  0  0  0  0  0  0
   -0.6708    2.8792    0.0000 N   0  0  0  0  0  0  0  0  0  0  0  0
    2.0917   -1.5250    0.0000 C   0  0  0  0  0  0  0  0  0  0  0  0
    2.9000   -1.3500    0.0000 C   0  0  0  0  0  0  0  0  0  0  0  0
   -1.9792    2.2083    0.0000 O   0  0  0  0  0  0  0  0  0  0  0  0
   -0.3708    0.1458    0.0000 C   0  0  0  0  0  0  0  0  0  0  0  0
   -1.7292    0.5875    0.0000 O   0  0  0  0  0  0  0  0  0  0  0  0
   -0.6250   -0.6417    0.0000 N   0  0  0  0  0  0  0  0  0  0  0  0
    0.1167    1.7958    0.0000 C   0  0  0  0  0  0  0  0  0  0  0  0
    1.2833   -1.6958    0.0000 C   0  0  0  0  0  0  0  0  0  0  0  0
   -0.0750   -1.2542    0.0000 C   0  0  0  0  0  0  0  0  0  0  0  0
    0.1167    2.6208    0.0000 C   0  0  0  0  0  0  0  0  0  0  0  0
    0.7333   -1.0833    0.0000 C   0  0  0  0  0  0  0  0  0  0  0  0
    0.2208   -2.6500    0.0000 C   0  0  0  0  0  0  0  0  0  0  0  0
    1.0292   -2.4792    0.0000 C   0  0  0  0  0  0  0  0  0  0  0  0
   -0.3292   -2.0375    0.0000 C   0  0  0  0  0  0  0  0  0  0  0  0
  2  1  1  0  0  0  0
  3  1  1  0  0  0  0
  4  2  1  0  0  0  0
  4 14  1  0  0  0  0
  5 12  1  0  0  0  0
  6  5  3  0  0  0  0
  7  2  2  0  0  0  0
  8  3  1  0  0  0  0
  9  3  2  0  0  0  0
 10  8  1  0  0  0  0
 11  1  1  0  0  0  0
 12 15  1  0  0  0  0
 13 10  1  0  0  0  0
 14 11  1  0  0  0  0
 15 13  2  0  0  0  0
 16 18  2  0  0  0  0
 17 12  2  0  0  0  0
 17 16  1  0  0  0  0
 18 13  1  0  0  0  0
M  END
> <CdId>
3523

> <Mol Weight>
243.2612

> <Formula>
C13H13N3O2

> <Click_ID>
CLK046C06 __ __ 

$$$$
