CLK050F11
 OpenBabel03181419432D

 18 18  0  0  0  0  0  0  0  0999 V2000
   -0.4792    0.8250    0.0000 C    0  0  0  0  0  0  0  0  0  0  0  0
    0.2375   -1.2375    0.0000 C    0  0  0  0  0  0  0  0  0  0  0  0
    0.2375   -0.4125    0.0000 N    0  0  0  0  0  0  0  0  0  0  0  0
   -0.4792    0.0000    0.0000 C    0  0  3  0  0  0  0  0  0  0  0  0
   -1.1917    1.2375    0.0000 C    0  0  0  0  0  0  0  0  0  0  0  0
    1.6667   -2.8875    0.0000 C    0  0  0  0  0  0  0  0  0  0  0  0
    0.2375    1.2375    0.0000 C    0  0  0  0  0  0  0  0  0  0  0  0
    2.3792   -3.3000    0.0000 C    0  0  0  0  0  0  0  0  0  0  0  0
   -1.1917    2.0625    0.0000 C    0  0  0  0  0  0  0  0  0  0  0  0
   -0.4792   -1.6500    0.0000 O    0  0  0  0  0  0  0  0  0  0  0  0
    0.9500   -1.6500    0.0000 N    0  0  0  0  0  0  0  0  0  0  0  0
   -0.4792    2.4750    0.0000 C    0  0  0  0  0  0  0  0  0  0  0  0
   -1.9083    0.8250    0.0000 Cl   0  0  0  0  0  0  0  0  0  0  0  0
    0.2375    2.0625    0.0000 C    0  0  0  0  0  0  0  0  0  0  0  0
   -0.4792    3.3000    0.0000 Cl   0  0  0  0  0  0  0  0  0  0  0  0
    0.9500   -2.4750    0.0000 C    0  0  0  0  0  0  0  0  0  0  0  0
    0.9500    0.0000    0.0000 C    0  0  0  0  0  0  0  0  0  0  0  0
   -1.1917   -0.4125    0.0000 C    0  0  0  0  0  0  0  0  0  0  0  0
  2  3  1  0  0  0  0
  3  4  1  0  0  0  0
  4  1  1  0  0  0  0
  5  1  2  0  0  0  0
  6 16  1  0  0  0  0
  7  1  1  0  0  0  0
  8  6  3  0  0  0  0
  9  5  1  0  0  0  0
 10  2  2  0  0  0  0
 11  2  1  0  0  0  0
 12  9  2  0  0  0  0
 12 14  1  0  0  0  0
 13  5  1  0  0  0  0
 14  7  2  0  0  0  0
 15 12  1  0  0  0  0
 16 11  1  0  0  0  0
 17  3  1  0  0  0  0
 18  4  1  0  0  0  0
M  END
> <CdId>
3886

> <Mol Weight>
285.169

> <Formula>
C13H14Cl2N2O

> <Click_ID>
CLK050F11 __ __ 

$$$$
