CLK015_C08
 OpenBabel03181419432D

 22 24  0  0  0  0  0  0  0  0999 V2000
    1.5650   -0.8158    0.0000 N   0  0  0  0  0  0  0  0  0  0  0  0
    1.8230   -1.6024    0.0000 C   0  0  0  0  0  0  0  0  0  0  0  0
    2.9010   -0.8158    0.0000 C   0  0  0  0  0  0  0  0  0  0  0  0
    2.2350   -0.3288    0.0000 C   0  0  0  0  0  0  0  0  0  0  0  0
    2.6470   -1.6024    0.0000 S   0  0  0  0  0  0  0  0  0  0  0  0
    4.5242    1.3942    0.0000 C   0  0  0  0  0  0  0  0  0  0  0  0
    3.6876   -0.5619    0.0000 C   0  0  0  0  0  0  0  0  0  0  0  0
    4.6074    0.5702    0.0000 O   0  0  0  0  0  0  0  0  0  0  0  0
    3.8582    0.2372    0.0000 C   0  0  0  0  0  0  0  0  0  0  0  0
    5.1360    1.9436    0.0000 N   0  0  0  0  0  0  0  0  0  0  0  0
    3.7208    1.5690    0.0000 C   0  0  0  0  0  0  0  0  0  0  0  0
    0.6118    0.2455    0.0000 C   0  0  0  0  0  0  0  0  0  0  0  0
    3.3005    0.8573    0.0000 C   0  0  0  0  0  0  0  0  0  0  0  0
    0.3913    1.0446    0.0000 C   0  0  0  0  0  0  0  0  0  0  0  0
    1.3360   -2.2642    0.0000 O   0  0  0  0  0  0  0  0  0  0  0  0
    2.2267    0.4952    0.0000 O   0  0  0  0  0  0  0  0  0  0  0  0
    0.7866   -0.5619    0.0000 C   0  0  0  0  0  0  0  0  0  0  0  0
    6.3596    3.0299    0.0000 O   0  0  0  0  0  0  0  0  0  0  0  0
    5.9101    1.6856    0.0000 C   0  0  0  0  0  0  0  0  0  0  0  0
    4.9695    2.7427    0.0000 C   0  0  0  0  0  0  0  0  0  0  0  0
    5.5813    3.2921    0.0000 C   0  0  0  0  0  0  0  0  0  0  0  0
    6.5219    2.2308    0.0000 C   0  0  0  0  0  0  0  0  0  0  0  0
  2  1  1  0  0  0  0
  3  4  1  0  0  0  0
  3  5  1  0  0  0  0
  4  1  1  0  0  0  0
  5  2  1  0  0  0  0
  6  8  1  0  0  0  0
  6 11  2  0  0  0  0
  7  3  2  0  0  0  0
  8  9  1  0  0  0  0
  9  7  1  0  0  0  0
 10  6  1  0  0  0  0
 11 13  1  0  0  0  0
 12 17  1  0  0  0  0
 13  9  2  0  0  0  0
 14 12  3  0  0  0  0
 15  2  2  0  0  0  0
 16  4  2  0  0  0  0
 17  1  1  0  0  0  0
 18 21  1  0  0  0  0
 19 10  1  0  0  0  0
 20 10  1  0  0  0  0
 21 20  1  0  0  0  0
 22 19  1  0  0  0  0
 22 18  1  0  0  0  0
M  END
> <CdId>
1103

> <Mol Weight>
318.348

> <Formula>
C15H14N2O4S

> <Click_ID>
CLK015_C08 __ __ 

$$$$
