CLK044A06
 OpenBabel03181419432D

 22 24  0  0  0  0  0  0  0  0999 V2000
   -0.0333   -0.4292    0.0000 C   0  0  0  0  0  0  0  0  0  0  0  0
   -0.7500    0.8083    0.0000 C   0  0  0  0  0  0  0  0  0  0  0  0
    2.8250   -1.2542    0.0000 C   0  0  0  0  0  0  0  0  0  0  0  0
    3.5375   -0.8417    0.0000 C   0  0  0  0  0  0  0  0  0  0  0  0
   -0.0333   -1.2542    0.0000 N   0  0  0  0  0  0  0  0  0  0  0  0
   -0.7500   -0.0167    0.0000 C   0  0  0  0  0  0  0  0  0  0  0  0
   -1.4625    1.2208    0.0000 C   0  0  0  0  0  0  0  0  0  0  0  0
    0.6792   -0.0167    0.0000 O   0  0  0  0  0  0  0  0  0  0  0  0
    0.6792   -1.6667    0.0000 C   0  0  0  0  0  0  0  0  0  0  0  0
    2.1083   -1.6667    0.0000 C   0  0  0  0  0  0  0  0  0  0  0  0
   -1.4625    2.0458    0.0000 C   0  0  0  0  0  0  0  0  0  0  0  0
    1.3958   -1.2542    0.0000 C   0  0  0  0  0  0  0  0  0  0  0  0
   -0.0333    1.2208    0.0000 C   0  0  0  0  0  0  0  0  0  0  0  0
   -0.0333    2.0458    0.0000 C   0  0  0  0  0  0  0  0  0  0  0  0
    1.3958   -2.9042    0.0000 C   0  0  0  0  0  0  0  0  0  0  0  0
   -2.1792    0.8083    0.0000 C   0  0  0  0  0  0  0  0  0  0  0  0
    0.6792   -2.4917    0.0000 C   0  0  0  0  0  0  0  0  0  0  0  0
   -0.7500    2.4583    0.0000 C   0  0  0  0  0  0  0  0  0  0  0  0
    2.1083   -2.4917    0.0000 C   0  0  0  0  0  0  0  0  0  0  0  0
   -2.1792    2.4583    0.0000 C   0  0  0  0  0  0  0  0  0  0  0  0
   -2.8917    1.2208    0.0000 C   0  0  0  0  0  0  0  0  0  0  0  0
   -2.8917    2.0458    0.0000 C   0  0  0  0  0  0  0  0  0  0  0  0
  2  6  1  0  0  0  0
  3 10  1  0  0  0  0
  4  3  3  0  0  0  0
  5  1  1  0  0  0  0
  6  1  1  0  0  0  0
  7  2  2  0  0  0  0
  8  1  2  0  0  0  0
  9  5  1  0  0  0  0
 10 12  1  0  0  0  0
 11  7  1  0  0  0  0
 12  9  2  0  0  0  0
 13  2  1  0  0  0  0
 14 13  2  0  0  0  0
 15 17  2  0  0  0  0
 16  7  1  0  0  0  0
 17  9  1  0  0  0  0
 18 11  2  0  0  0  0
 18 14  1  0  0  0  0
 19 10  2  0  0  0  0
 19 15  1  0  0  0  0
 20 11  1  0  0  0  0
 21 16  2  0  0  0  0
 21 22  1  0  0  0  0
 22 20  2  0  0  0  0
M  END
> <CdId>
3361

> <Mol Weight>
285.3392

> <Formula>
C20H15NO

> <Click_ID>
CLK044A06 __ __ 

$$$$
