CLK005_G03
 OpenBabel03181419432D

 29 32  0  0  0  0  0  0  0  0999 V2000
    0.9631    0.7698    0.0000 C   0  0  3  0  0  0  0  0  0  0  0  0
    1.6327    0.2900    0.0000 C   0  0  3  0  0  0  0  0  0  0  0  0
    0.3003    0.2900    0.0000 C   0  0  3  0  0  0  0  0  0  0  0  0
    1.2081    2.0262    0.0000 O   0  0  0  0  0  0  0  0  0  0  0  0
    0.1623    0.9907    0.0000 C   0  0  0  0  0  0  0  0  0  0  0  0
    2.2195    0.8768    0.0000 C   0  0  3  0  0  0  0  0  0  0  0  0
    1.3773   -0.5005    0.0000 C   0  0  0  0  0  0  0  0  0  0  0  0
    0.5523   -0.5005    0.0000 N   0  0  0  0  0  0  0  0  0  0  0  0
   -0.4833    0.5385    0.0000 C   0  0  0  0  0  0  0  0  0  0  0  0
    1.5430    1.3635    0.0000 C   0  0  3  0  0  0  0  0  0  0  0  0
    0.7422    1.5775    0.0000 C   0  0  0  0  0  0  0  0  0  0  0  0
    3.0410    0.9424    0.0000 C   0  0  0  0  0  0  0  0  0  0  0  0
    1.8640   -1.1702    0.0000 O   0  0  0  0  0  0  0  0  0  0  0  0
    0.0691   -1.1702    0.0000 C   0  0  0  0  0  0  0  0  0  0  0  0
   -1.1011   -0.0103    0.0000 N   0  0  0  0  0  0  0  0  0  0  0  0
   -0.6593    1.3428    0.0000 O   0  0  0  0  0  0  0  0  0  0  0  0
    3.3932    1.6914    0.0000 N   0  0  0  0  0  0  0  0  0  0  0  0
    3.5105    0.2693    0.0000 O   0  0  0  0  0  0  0  0  0  0  0  0
    0.4004   -1.9123    0.0000 C   0  0  0  0  0  0  0  0  0  0  0  0
   -1.8847    0.2381    0.0000 C   0  0  0  0  0  0  0  0  0  0  0  0
    4.2113    1.7639    0.0000 C   0  0  0  0  0  0  0  0  0  0  0  0
   -0.0829   -2.5855    0.0000 C   0  0  0  0  0  0  0  0  0  0  0  0
   -2.4957   -0.3106    0.0000 C   0  0  0  0  0  0  0  0  0  0  0  0
   -2.3231   -1.1114    0.0000 C   0  0  0  0  0  0  0  0  0  0  0  0
   -3.2758   -0.0483    0.0000 C   0  0  0  0  0  0  0  0  0  0  0  0
   -2.9340   -1.6638    0.0000 C   0  0  0  0  0  0  0  0  0  0  0  0
   -3.8902   -0.6006    0.0000 C   0  0  0  0  0  0  0  0  0  0  0  0
   -3.7245   -1.4118    0.0000 C   0  0  0  0  0  0  0  0  0  0  0  0
   -4.3355   -1.9641    0.0000 F   0  0  0  0  0  0  0  0  0  0  0  0
  1  2  1  0  0  0  0
  1  3  1  0  0  0  0
  1  4  1  0  0  0  0
  1  5  1  0  0  0  0
  2  6  1  0  0  0  0
  2  7  1  0  0  0  0
  3  8  1  0  0  0  0
  3  9  1  0  0  0  0
  4 10  1  0  0  0  0
  5 11  2  0  0  0  0
  6 12  1  0  0  0  0
  6 10  1  0  0  0  0
  7 13  2  0  0  0  0
  7  8  1  0  0  0  0
  8 14  1  0  0  0  0
  9 15  1  0  0  0  0
  9 16  2  0  0  0  0
 10 11  1  0  0  0  0
 12 17  1  0  0  0  0
 12 18  2  0  0  0  0
 14 19  1  0  0  0  0
 15 20  1  0  0  0  0
 17 21  1  0  0  0  0
 19 22  3  0  0  0  0
 20 23  1  0  0  0  0
 23 24  1  0  0  0  0
 23 25  2  0  0  0  0
 24 26  2  0  0  0  0
 25 27  1  0  0  0  0
 26 28  1  0  0  0  0
 27 28  2  0  0  0  0
 28 29  1  0  0  0  0
M  END
> <CdId>
382

> <Mol Weight>
397.3996

> <Formula>
C21H20FN3O4

> <Click_ID>
CLK005_G03 __ __ 

$$$$
