CLK023_F06
 OpenBabel03181419432D

 25 27  0  0  0  0  0  0  0  0999 V2000
    0.5048   -1.9265    0.0000 C    0  0  0  0  0  0  0  0  0  0  0  0
   -0.8345   -1.9265    0.0000 N    0  0  0  0  0  0  0  0  0  0  0  0
   -0.1614   -1.4458    0.0000 C    0  0  0  0  0  0  0  0  0  0  0  0
   -0.5769   -2.7163    0.0000 N    0  0  0  0  0  0  0  0  0  0  0  0
    0.2507   -2.7163    0.0000 C    0  0  0  0  0  0  0  0  0  0  0  0
    1.2946   -1.6758    0.0000 C    0  0  0  0  0  0  0  0  0  0  0  0
    2.9361    2.5893    0.0000 C    0  0  0  0  0  0  0  0  0  0  0  0
    3.1112    3.3894    0.0000 C    0  0  0  0  0  0  0  0  0  0  0  0
    2.4038    0.1889    0.0000 C    0  0  0  0  0  0  0  0  0  0  0  0
   -1.6140   -1.6758    0.0000 C    0  0  0  0  0  0  0  0  0  0  0  0
   -0.1717   -0.6216    0.0000 O    0  0  0  0  0  0  0  0  0  0  0  0
    1.4561   -0.8722    0.0000 C    0  0  0  0  0  0  0  0  0  0  0  0
    2.2355   -0.6216    0.0000 C    0  0  0  0  0  0  0  0  0  0  0  0
    1.7960    0.7417    0.0000 C    0  0  0  0  0  0  0  0  0  0  0  0
    1.0199    0.4910    0.0000 C    0  0  0  0  0  0  0  0  0  0  0  0
    3.1868    0.4395    0.0000 Br   0  0  0  0  0  0  0  0  0  0  0  0
    0.8516   -0.3228    0.0000 C    0  0  0  0  0  0  0  0  0  0  0  0
    1.9712    1.5418    0.0000 O    0  0  0  0  0  0  0  0  0  0  0  0
    0.7314   -3.3894    0.0000 C    0  0  0  0  0  0  0  0  0  0  0  0
    2.7575    1.7926    0.0000 C    0  0  0  0  0  0  0  0  0  0  0  0
   -1.7857   -0.8619    0.0000 C    0  0  0  0  0  0  0  0  0  0  0  0
   -2.2287   -2.2287    0.0000 C    0  0  0  0  0  0  0  0  0  0  0  0
   -2.5755   -0.6113    0.0000 C    0  0  0  0  0  0  0  0  0  0  0  0
   -3.0185   -1.9642    0.0000 C    0  0  0  0  0  0  0  0  0  0  0  0
   -3.1902   -1.1573    0.0000 C    0  0  0  0  0  0  0  0  0  0  0  0
  2  3  1  0  0  0  0
  2  4  1  0  0  0  0
  3  1  1  0  0  0  0
  4  5  2  0  0  0  0
  5  1  1  0  0  0  0
  6  1  2  0  0  0  0
  7 20  1  0  0  0  0
  8  7  3  0  0  0  0
  9 13  2  0  0  0  0
  9 14  1  0  0  0  0
 10  2  1  0  0  0  0
 11  3  2  0  0  0  0
 12  6  1  0  0  0  0
 13 12  1  0  0  0  0
 14 15  2  0  0  0  0
 15 17  1  0  0  0  0
 16  9  1  0  0  0  0
 17 12  2  0  0  0  0
 18 14  1  0  0  0  0
 19  5  1  0  0  0  0
 20 18  1  0  0  0  0
 21 10  2  0  0  0  0
 22 10  1  0  0  0  0
 23 21  1  0  0  0  0
 23 25  2  0  0  0  0
 24 22  2  0  0  0  0
 25 24  1  0  0  0  0
M  END
> <CdId>
1751

> <Mol Weight>
395.249

> <Formula>
C20H15BrN2O2

> <Click_ID>
CLK023_F06 __ __ 

$$$$
