CLK013_D03
 OpenBabel03181419432D

 19 20  0  0  0  0  0  0  0  0999 V2000
    5.3094   -3.6364    0.0000 N   0  0  0  0  0  0  0  0  0  0  0  0
    4.5373   -3.9270    0.0000 C   0  0  0  0  0  0  0  0  0  0  0  0
    5.2720   -2.8062    0.0000 C   0  0  0  0  0  0  0  0  0  0  0  0
    4.4750   -2.5945    0.0000 C   0  0  0  0  0  0  0  0  0  0  0  0
    4.0267   -3.2877    0.0000 N   0  0  0  0  0  0  0  0  0  0  0  0
    4.1844   -1.8224    0.0000 C   0  0  0  0  0  0  0  0  0  0  0  0
    4.3256   -4.7241    0.0000 S   0  0  0  0  0  0  0  0  0  0  0  0
   -0.4234   -1.8099    0.0000 C   0  0  0  0  0  0  0  0  0  0  0  0
   -1.2412   -1.6730    0.0000 C   0  0  0  0  0  0  0  0  0  0  0  0
    5.9154   -2.2956    0.0000 O   0  0  0  0  0  0  0  0  0  0  0  0
    3.3625   -1.6937    0.0000 C   0  0  0  0  0  0  0  0  0  0  0  0
    6.0026   -4.0848    0.0000 C   0  0  0  0  0  0  0  0  0  0  0  0
    1.7228   -1.4239    0.0000 C   0  0  0  0  0  0  0  0  0  0  0  0
    2.8436   -2.3288    0.0000 C   0  0  0  0  0  0  0  0  0  0  0  0
    3.0678   -0.9133    0.0000 C   0  0  0  0  0  0  0  0  0  0  0  0
    2.0299   -2.1960    0.0000 C   0  0  0  0  0  0  0  0  0  0  0  0
    2.2583   -0.7763    0.0000 C   0  0  0  0  0  0  0  0  0  0  0  0
    0.3902   -1.9303    0.0000 C   0  0  0  0  0  0  0  0  0  0  0  0
    0.9133   -1.2952    0.0000 O   0  0  0  0  0  0  0  0  0  0  0  0
  2  1  1  0  0  0  0
  3  1  1  0  0  0  0
  4  3  1  0  0  0  0
  5  2  1  0  0  0  0
  5  4  1  0  0  0  0
  6  4  2  0  0  0  0
  7  2  2  0  0  0  0
  8 18  1  0  0  0  0
  9  8  3  0  0  0  0
 10  3  2  0  0  0  0
 11  6  1  0  0  0  0
 12  1  1  0  0  0  0
 13 17  2  0  0  0  0
 13 16  1  0  0  0  0
 14 11  1  0  0  0  0
 15 11  2  0  0  0  0
 16 14  2  0  0  0  0
 17 15  1  0  0  0  0
 18 19  1  0  0  0  0
 19 13  1  0  0  0  0
M  END
> <CdId>
948

> <Mol Weight>
272.322

> <Formula>
C14H12N2O2S

> <Click_ID>
CLK013_D03 __ __ 

$$$$
