CLK048A07
 OpenBabel03181419432D

 18 19  0  0  0  0  0  0  0  0999 V2000
    0.3167    0.0958    0.0000 C   0  0  0  0  0  0  0  0  0  0  0  0
   -0.4000   -0.3167    0.0000 C   0  0  0  0  0  0  0  0  0  0  0  0
    0.3167    0.9208    0.0000 C   0  0  0  0  0  0  0  0  0  0  0  0
    1.0292   -0.3167    0.0000 C   0  0  0  0  0  0  0  0  0  0  0  0
    1.7458   -2.3792    0.0000 C   0  0  0  0  0  0  0  0  0  0  0  0
   -0.4000    1.3333    0.0000 C   0  0  0  0  0  0  0  0  0  0  0  0
    1.7458   -3.2042    0.0000 C   0  0  0  0  0  0  0  0  0  0  0  0
   -1.1125    0.0958    0.0000 C   0  0  0  0  0  0  0  0  0  0  0  0
   -1.1125    0.9208    0.0000 C   0  0  0  0  0  0  0  0  0  0  0  0
    1.7458    0.0958    0.0000 O   0  0  0  0  0  0  0  0  0  0  0  0
    1.0292   -1.1417    0.0000 N   0  0  0  0  0  0  0  0  0  0  0  0
    1.0292    1.3333    0.0000 O   0  0  0  0  0  0  0  0  0  0  0  0
    1.7458   -1.5542    0.0000 C   0  0  0  0  0  0  0  0  0  0  0  0
   -1.8292   -0.3167    0.0000 C   0  0  0  0  0  0  0  0  0  0  0  0
   -1.8292    1.3333    0.0000 C   0  0  0  0  0  0  0  0  0  0  0  0
    1.0292    2.1583    0.0000 C   0  0  0  0  0  0  0  0  0  0  0  0
   -2.5417    0.9208    0.0000 C   0  0  0  0  0  0  0  0  0  0  0  0
   -2.5417    0.0958    0.0000 C   0  0  0  0  0  0  0  0  0  0  0  0
  2  1  1  0  0  0  0
  3  1  2  0  0  0  0
  4  1  1  0  0  0  0
  5 13  1  0  0  0  0
  6  3  1  0  0  0  0
  7  5  3  0  0  0  0
  8  2  2  0  0  0  0
  8  9  1  0  0  0  0
  9  6  2  0  0  0  0
 10  4  2  0  0  0  0
 11  4  1  0  0  0  0
 12  3  1  0  0  0  0
 13 11  1  0  0  0  0
 14  8  1  0  0  0  0
 15  9  1  0  0  0  0
 16 12  1  0  0  0  0
 17 15  2  0  0  0  0
 18 14  2  0  0  0  0
 18 17  1  0  0  0  0
M  END
> <CdId>
3689

> <Mol Weight>
239.2692

> <Formula>
C15H13NO2

> <Click_ID>
CLK048A07 __ __ 

$$$$
