CLK051B05
 OpenBabel03181419432D

 18 18  0  0  0  0  0  0  0  0999 V2000
   -1.6708    0.0000    0.0000 C   0  0  0  0  0  0  0  0  0  0  0  0
   -3.8125   -0.4125    0.0000 C   0  0  0  0  0  0  0  0  0  0  0  0
   -4.5292   -0.8250    0.0000 C   0  0  0  0  0  0  0  0  0  0  0  0
    1.1875    0.0000    0.0000 C   0  0  0  0  0  0  0  0  0  0  0  0
    1.9042   -0.4125    0.0000 C   0  0  0  0  0  0  0  0  0  0  0  0
   -1.6708    0.8250    0.0000 O   0  0  0  0  0  0  0  0  0  0  0  0
    1.1875    0.8250    0.0000 C   0  0  0  0  0  0  0  0  0  0  0  0
   -0.9542   -0.4125    0.0000 N   0  0  0  0  0  0  0  0  0  0  0  0
   -2.3833   -0.4125    0.0000 N   0  0  0  0  0  0  0  0  0  0  0  0
    2.6167    0.0000    0.0000 C   0  0  0  0  0  0  0  0  0  0  0  0
    1.9042    1.2375    0.0000 C   0  0  0  0  0  0  0  0  0  0  0  0
    2.6167    0.8250    0.0000 C   0  0  0  0  0  0  0  0  0  0  0  0
   -3.1000    0.0000    0.0000 C   0  0  0  0  0  0  0  0  0  0  0  0
    1.9042   -1.2375    0.0000 O   0  0  0  0  0  0  0  0  0  0  0  0
   -0.2417    0.0000    0.0000 C   0  0  0  0  0  0  0  0  0  0  0  0
    0.4750   -0.4125    0.0000 C   0  0  0  0  0  0  0  0  0  0  0  0
    1.9042    2.0625    0.0000 C   0  0  0  0  0  0  0  0  0  0  0  0
    2.6167   -1.6500    0.0000 C   0  0  0  0  0  0  0  0  0  0  0  0
  2 13  1  0  0  0  0
  3  2  3  0  0  0  0
  4 16  1  0  0  0  0
  5  4  2  0  0  0  0
  6  1  2  0  0  0  0
  7  4  1  0  0  0  0
  8  1  1  0  0  0  0
  9  1  1  0  0  0  0
 10  5  1  0  0  0  0
 11  7  2  0  0  0  0
 11 12  1  0  0  0  0
 12 10  2  0  0  0  0
 13  9  1  0  0  0  0
 14  5  1  0  0  0  0
 15  8  1  0  0  0  0
 16 15  1  0  0  0  0
 17 11  1  0  0  0  0
 18 14  1  0  0  0  0
M  END
> <CdId>
3914

> <Mol Weight>
246.3049

> <Formula>
C14H18N2O2

> <Click_ID>
CLK051B05 __ __ 

$$$$
