CLK035_H09
 OpenBabel03181419432D

 14 15  0  0  0  0  0  0  0  0999 V2000
   -2.8950    1.7041    0.0000 N   0  0  0  0  0  0  0  0  0  0  0  0
   -3.6096    2.1117    0.0000 C   0  0  0  0  0  0  0  0  0  0  0  0
   -3.6096    2.9362    0.0000 C   0  0  0  0  0  0  0  0  0  0  0  0
   -2.1850    2.9409    0.0000 N   0  0  0  0  0  0  0  0  0  0  0  0
   -2.8996    3.3531    0.0000 C   0  0  0  0  0  0  0  0  0  0  0  0
   -2.1804    2.1163    0.0000 C   0  0  0  0  0  0  0  0  0  0  0  0
   -5.0388    2.1117    0.0000 N   0  0  0  0  0  0  0  0  0  0  0  0
   -4.3242    1.6994    0.0000 N   0  0  0  0  0  0  0  0  0  0  0  0
   -2.2216    0.4077    0.0000 C   0  0  0  0  0  0  0  0  0  0  0  0
   -2.9637   -0.0321    0.0000 C   0  0  0  0  0  0  0  0  0  0  0  0
   -5.0388    2.9362    0.0000 C   0  0  0  0  0  0  0  0  0  0  0  0
   -2.8996    4.1777    0.0000 O   0  0  0  0  0  0  0  0  0  0  0  0
   -1.4704    1.7041    0.0000 S   0  0  0  0  0  0  0  0  0  0  0  0
   -1.4704    0.8383    0.0000 C   0  0  0  0  0  0  0  0  0  0  0  0
  2  1  1  0  0  0  0
  3  2  2  0  0  0  0
  4  6  1  0  0  0  0
  5  4  1  0  0  0  0
  5  3  1  0  0  0  0
  6  1  2  0  0  0  0
  7  8  1  0  0  0  0
  7 11  2  0  0  0  0
  8  2  1  0  0  0  0
  9 14  1  0  0  0  0
 10  9  3  0  0  0  0
 11  3  1  0  0  0  0
 12  5  2  0  0  0  0
 13  6  1  0  0  0  0
 14 13  1  0  0  0  0
M  END
> <CdId>
2723

> <Mol Weight>
206.224

> <Formula>
C8H6N4OS

> <Click_ID>
CLK035_H09 __ __ 

$$$$
