CLK026_D10
 OpenBabel03181419432D

 26 28  0  0  0  0  0  0  0  0999 V2000
   -2.5526    1.1357    0.0000 N   0  0  0  0  0  0  0  0  0  0  0  0
   -3.1119    0.5249    0.0000 C   0  0  0  0  0  0  0  0  0  0  0  0
   -1.9007   -0.0343    0.0000 C   0  0  0  0  0  0  0  0  0  0  0  0
   -1.7944    0.7823    0.0000 C   0  0  0  0  0  0  0  0  0  0  0  0
   -2.7139   -0.1956    0.0000 S   0  0  0  0  0  0  0  0  0  0  0  0
    2.6762   -2.5321    0.0000 N   0  3  0  0  0  0  0  0  0  0  0  0
   -1.2901   -0.5970    0.0000 C   0  0  0  0  0  0  0  0  0  0  0  0
    2.5252   -1.7292    0.0000 C   0  0  0  0  0  0  0  0  0  0  0  0
    0.8234   -0.3740    0.0000 C   0  0  0  0  0  0  0  0  0  0  0  0
    0.1441   -0.8440    0.0000 O   0  0  0  0  0  0  0  0  0  0  0  0
   -0.5078   -0.3568    0.0000 C   0  0  0  0  0  0  0  0  0  0  0  0
    1.7533   -1.4548    0.0000 C   0  0  0  0  0  0  0  0  0  0  0  0
    1.6057   -0.6416    0.0000 C   0  0  0  0  0  0  0  0  0  0  0  0
    0.5867    0.4152    0.0000 C   0  0  0  0  0  0  0  0  0  0  0  0
   -2.0826    2.4840    0.0000 C   0  0  0  0  0  0  0  0  0  0  0  0
   -0.2539    0.4255    0.0000 C   0  0  0  0  0  0  0  0  0  0  0  0
   -1.4959    3.0673    0.0000 C   0  0  0  0  0  0  0  0  0  0  0  0
    2.0689   -3.0638    0.0000 O   0  5  0  0  0  0  0  0  0  0  0  0
   -3.9251    0.6347    0.0000 O   0  0  0  0  0  0  0  0  0  0  0  0
    3.4619   -2.7962    0.0000 O   0  0  0  0  0  0  0  0  0  0  0  0
   -1.0773    1.1940    0.0000 O   0  0  0  0  0  0  0  0  0  0  0  0
    3.1462   -1.1802    0.0000 C   0  0  0  0  0  0  0  0  0  0  0  0
   -2.7036    1.9385    0.0000 C   0  0  0  0  0  0  0  0  0  0  0  0
    2.2198   -0.1064    0.0000 C   0  0  0  0  0  0  0  0  0  0  0  0
    3.0021   -0.3808    0.0000 C   0  0  0  0  0  0  0  0  0  0  0  0
    3.9216   -1.4513    0.0000 C   0  0  0  0  0  0  0  0  0  0  0  0
  2  1  1  0  0  0  0
  3  4  1  0  0  0  0
  4  1  1  0  0  0  0
  5  2  1  0  0  0  0
  5  3  1  0  0  0  0
  6  8  1  0  0  0  0
  7  3  2  0  0  0  0
  8 12  1  0  0  0  0
  9 10  1  0  0  0  0
 10 11  1  0  0  0  0
 11  7  1  0  0  0  0
 12 13  2  0  0  0  0
 13  9  1  0  0  0  0
 14 16  1  0  0  0  0
 14  9  2  0  0  0  0
 15 23  1  0  0  0  0
 16 11  2  0  0  0  0
 17 15  3  0  0  0  0
 18  6  1  0  0  0  0
 19  2  2  0  0  0  0
 20  6  2  0  0  0  0
 21  4  2  0  0  0  0
 22 25  1  0  0  0  0
 22  8  2  0  0  0  0
 23  1  1  0  0  0  0
 24 13  1  0  0  0  0
 25 24  2  0  0  0  0
 26 22  1  0  0  0  0
M  END
> <CdId>
1975

> <Mol Weight>
368.363

> <Formula>
C18H12N2O5S

> <Click_ID>
CLK026_D10 __ __ 

$$$$
