CLK050B05
 OpenBabel03181419432D

 23 25  0  0  0  0  0  0  0  0999 V2000
    0.4751    0.3709    0.0000 C   0  0  0  0  0  0  0  0  0  0  0  0
    1.3003    0.3709    0.0000 C   0  0  0  0  0  0  0  0  0  0  0  0
   -0.0125   -0.2959    0.0000 O   0  0  0  0  0  0  0  0  0  0  0  0
   -0.0125    1.0378    0.0000 N   0  0  0  0  0  0  0  0  0  0  0  0
    1.7838    1.0378    0.0000 S   0  0  0  0  0  0  0  0  0  0  0  0
    2.5674   -0.0417    0.0000 C   0  0  0  0  0  0  0  0  0  0  0  0
   -0.7960   -0.0417    0.0000 C   0  0  0  0  0  0  0  0  0  0  0  0
   -0.7960    0.7835    0.0000 N   0  0  0  0  0  0  0  0  0  0  0  0
    2.5674    0.7835    0.0000 C   0  0  0  0  0  0  0  0  0  0  0  0
    1.7838   -0.2959    0.0000 C   0  0  0  0  0  0  0  0  0  0  0  0
   -5.0596   -0.4876    0.0000 C   0  0  0  0  0  0  0  0  0  0  0  0
   -5.8140   -0.1542    0.0000 C   0  0  0  0  0  0  0  0  0  0  0  0
   -2.8841   -0.6752    0.0000 C   0  0  0  0  0  0  0  0  0  0  0  0
   -1.4629   -0.5251    0.0000 S   0  0  0  0  0  0  0  0  0  0  0  0
    3.2842   -0.4543    0.0000 C   0  0  0  0  0  0  0  0  0  0  0  0
    3.2842    1.1961    0.0000 C   0  0  0  0  0  0  0  0  0  0  0  0
   -2.8007   -1.4962    0.0000 O   0  0  0  0  0  0  0  0  0  0  0  0
   -2.2173   -0.1918    0.0000 C   0  0  0  0  0  0  0  0  0  0  0  0
   -3.6385   -0.3418    0.0000 N   0  0  0  0  0  0  0  0  0  0  0  0
    3.9969    0.7835    0.0000 C   0  0  0  0  0  0  0  0  0  0  0  0
    3.9969   -0.0417    0.0000 C   0  0  3  0  0  0  0  0  0  0  0  0
   -4.3053   -0.8252    0.0000 C   0  0  0  0  0  0  0  0  0  0  0  0
    4.7137   -0.4543    0.0000 C   0  0  0  0  0  0  0  0  0  0  0  0
  2  1  1  0  0  0  0
  3  1  1  0  0  0  0
  4  1  2  0  0  0  0
  5  2  1  0  0  0  0
  6 10  1  0  0  0  0
  6  9  2  0  0  0  0
  7  3  1  0  0  0  0
  7  8  2  0  0  0  0
  8  4  1  0  0  0  0
  9  5  1  0  0  0  0
 10  2  2  0  0  0  0
 11 22  1  0  0  0  0
 12 11  3  0  0  0  0
 13 18  1  0  0  0  0
 14  7  1  0  0  0  0
 15  6  1  0  0  0  0
 16  9  1  0  0  0  0
 17 13  2  0  0  0  0
 18 14  1  0  0  0  0
 19 13  1  0  0  0  0
 20 16  1  0  0  0  0
 20 21  1  0  0  0  0
 21 15  1  0  0  0  0
 22 19  1  0  0  0  0
 23 21  1  0  0  0  0
M  END
> <CdId>
3834

> <Mol Weight>
347.455

> <Formula>
C16H17N3O2S2

> <Click_ID>
CLK050B05 __ __ 

$$$$
