CLK003_F10
 OpenBabel03181419432D

 15 15  0  0  0  0  0  0  0  0999 V2000
    7.2125   -9.3292    0.0000 C   0  0  0  0  0  0  0  0  0  0  0  0
    8.0375   -9.3292    0.0000 C   0  0  0  0  0  0  0  0  0  0  0  0
    4.7292   -7.9042    0.0000 C   0  0  0  0  0  0  0  0  0  0  0  0
    5.1417   -8.6167    0.0000 C   0  0  0  0  0  0  0  0  0  0  0  0
    3.9042   -7.9042    0.0000 C   0  0  0  0  0  0  0  0  0  0  0  0
    4.7292   -9.3292    0.0000 C   0  0  0  0  0  0  0  0  0  0  0  0
    2.2542   -9.3292    0.0000 O   0  0  0  0  0  0  0  0  0  0  0  0
    3.4917   -8.6167    0.0000 C   0  0  0  0  0  0  0  0  0  0  0  0
    2.6667   -8.6167    0.0000 C   0  0  0  0  0  0  0  0  0  0  0  0
    3.9042   -9.3292    0.0000 C   0  0  0  0  0  0  0  0  0  0  0  0
    5.1542   -7.1875    0.0000 O   0  0  0  0  0  0  0  0  0  0  0  0
    5.9667   -8.6167    0.0000 O   0  0  0  0  0  0  0  0  0  0  0  0
    6.3792   -9.3292    0.0000 C   0  0  0  0  0  0  0  0  0  0  0  0
    4.7500   -6.4542    0.0000 C   0  0  0  0  0  0  0  0  0  0  0  0
    5.1667   -5.7500    0.0000 C   0  0  0  0  0  0  0  0  0  0  0  0
  2  1  3  0  0  0  0
  3  4  2  0  0  0  0
  4 12  1  0  0  0  0
  5  3  1  0  0  0  0
  5  8  2  0  0  0  0
  6  4  1  0  0  0  0
  7  9  2  0  0  0  0
  8 10  1  0  0  0  0
  9  8  1  0  0  0  0
 10  6  2  0  0  0  0
 11  3  1  0  0  0  0
 12 13  1  0  0  0  0
 13  1  1  0  0  0  0
 14 11  1  0  0  0  0
 15 14  1  0  0  0  0
M  END
> <CdId>
219

> <Mol Weight>
204.2219

> <Formula>
C12H12O3

> <Click_ID>
CLK003_F10 __ __ 

$$$$
