CLK028_E03
 OpenBabel03181419432D

 21 22  0  0  0  0  0  0  0  0999 V2000
    1.4255   -0.8247    0.0000 N   0  0  0  0  0  0  0  0  0  0  0  0
    1.4255   -1.6601    0.0000 C   0  0  0  0  0  0  0  0  0  0  0  0
    0.0000   -0.8247    0.0000 C   0  0  0  0  0  0  0  0  0  0  0  0
    0.7109   -0.4123    0.0000 C   0  0  0  0  0  0  0  0  0  0  0  0
    0.0000   -1.6494    0.0000 S   0  0  0  0  0  0  0  0  0  0  0  0
    2.1436   -2.0618    0.0000 N   0  0  0  0  0  0  0  0  0  0  0  0
   -0.7145   -0.4123    0.0000 C   0  0  0  0  0  0  0  0  0  0  0  0
    2.8581   -1.6494    0.0000 C   0  0  0  0  0  0  0  0  0  0  0  0
   -1.4290   -0.8247    0.0000 C   0  0  0  0  0  0  0  0  0  0  0  0
   -2.8617    1.6530    0.0000 C   0  0  0  0  0  0  0  0  0  0  0  0
   -3.5762    2.0653    0.0000 C   0  0  0  0  0  0  0  0  0  0  0  0
    0.7109    0.4159    0.0000 O   0  0  0  0  0  0  0  0  0  0  0  0
   -2.1471   -0.4123    0.0000 C   0  0  0  0  0  0  0  0  0  0  0  0
    2.8474   -0.8247    0.0000 O   0  0  0  0  0  0  0  0  0  0  0  0
   -2.1471    0.4159    0.0000 O   0  0  0  0  0  0  0  0  0  0  0  0
   -2.8617    0.8282    0.0000 C   0  0  0  0  0  0  0  0  0  0  0  0
    3.5726   -2.0582    0.0000 C   0  0  0  0  0  0  0  0  0  0  0  0
   -1.4290   -1.6494    0.0000 C   0  0  0  0  0  0  0  0  0  0  0  0
   -2.8617   -0.8247    0.0000 C   0  0  0  0  0  0  0  0  0  0  0  0
   -2.1471   -2.0618    0.0000 C   0  0  0  0  0  0  0  0  0  0  0  0
   -2.8617   -1.6494    0.0000 C   0  0  0  0  0  0  0  0  0  0  0  0
  2  1  2  0  0  0  0
  3  4  1  0  0  0  0
  4  1  1  0  0  0  0
  5  2  1  0  0  0  0
  5  3  1  0  0  0  0
  6  2  1  0  0  0  0
  7  3  2  0  0  0  0
  8  6  1  0  0  0  0
  9  7  1  0  0  0  0
 10 16  1  0  0  0  0
 11 10  3  0  0  0  0
 12  4  2  0  0  0  0
 13  9  1  0  0  0  0
 14  8  2  0  0  0  0
 15 13  1  0  0  0  0
 16 15  1  0  0  0  0
 17  8  1  0  0  0  0
 18  9  2  0  0  0  0
 19 13  2  0  0  0  0
 20 18  1  0  0  0  0
 21 20  2  0  0  0  0
 21 19  1  0  0  0  0
M  END
> <CdId>
2127

> <Mol Weight>
300.332

> <Formula>
C15H12N2O3S

> <Click_ID>
CLK028_E03 __ __ 

$$$$
