CLK040G07
 OpenBabel03181419432D

 21 21  0  0  0  0  0  0  0  0999 V2000
   -1.4667    1.8667    0.0000 N   0  3  0  0  0  0  0  0  0  0  0  0
   -0.7500    1.4542    0.0000 C   0  0  0  0  0  0  0  0  0  0  0  0
   -0.0375   -0.6083    0.0000 C   0  0  0  0  0  0  0  0  0  0  0  0
   -0.7500    0.6292    0.0000 C   0  0  0  0  0  0  0  0  0  0  0  0
   -0.0375    0.2167    0.0000 C   0  0  0  0  0  0  0  0  0  0  0  0
    0.6792   -1.0208    0.0000 N   0  0  0  0  0  0  0  0  0  0  0  0
    0.6792   -2.6708    0.0000 C   0  0  0  0  0  0  0  0  0  0  0  0
    0.6792   -3.4958    0.0000 C   0  0  0  0  0  0  0  0  0  0  0  0
   -0.0375    1.8667    0.0000 C   0  0  0  0  0  0  0  0  0  0  0  0
   -1.4667    2.6917    0.0000 O   0  5  0  0  0  0  0  0  0  0  0  0
    0.6792   -1.8458    0.0000 C   0  0  0  0  0  0  0  0  0  0  0  0
   -2.1792    1.4542    0.0000 O   0  0  0  0  0  0  0  0  0  0  0  0
   -0.7500   -1.0208    0.0000 O   0  0  0  0  0  0  0  0  0  0  0  0
    0.6792    0.6292    0.0000 C   0  0  0  0  0  0  0  0  0  0  0  0
    0.6792    1.4542    0.0000 C   0  0  0  0  0  0  0  0  0  0  0  0
   -0.0375    2.6917    0.0000 O   0  0  0  0  0  0  0  0  0  0  0  0
   -0.1458   -1.8458    0.0000 C   0  0  0  0  0  0  0  0  0  0  0  0
    1.5042   -1.8458    0.0000 C   0  0  0  0  0  0  0  0  0  0  0  0
    0.6792    3.1042    0.0000 C   0  0  0  0  0  0  0  0  0  0  0  0
    1.9167   -2.5583    0.0000 C   0  0  0  0  0  0  0  0  0  0  0  0
   -0.5583   -1.1292    0.0000 C   0  0  0  0  0  0  0  0  0  0  0  0
  2  1  1  0  0  0  0
  3  5  1  0  0  0  0
  4  2  1  0  0  0  0
  5  4  2  0  0  0  0
  6  3  1  0  0  0  0
  7 11  1  0  0  0  0
  8  7  3  0  0  0  0
  9  2  2  0  0  0  0
 10  1  1  0  0  0  0
 11  6  1  0  0  0  0
 12  1  2  0  0  0  0
 13  3  2  0  0  0  0
 14  5  1  0  0  0  0
 15  9  1  0  0  0  0
 15 14  2  0  0  0  0
 16  9  1  0  0  0  0
 17 11  1  0  0  0  0
 18 11  1  0  0  0  0
 19 16  1  0  0  0  0
 20 18  1  0  0  0  0
 21 17  1  0  0  0  0
M  END
> <CdId>
3055

> <Mol Weight>
290.3144

> <Formula>
C15H18N2O4

> <Click_ID>
CLK040G07 __ __ 

$$$$
