CLK049H11
 OpenBabel03181419432D

 25 26  0  0  0  0  0  0  0  0999 V2000
    0.6000    0.6125    0.0000 C   0  0  0  0  0  0  0  0  0  0  0  0
   -4.4042   -0.6250    0.0000 C   0  0  0  0  0  0  0  0  0  0  0  0
    1.3125    1.0250    0.0000 C   0  0  0  0  0  0  0  0  0  0  0  0
   -5.1167   -1.0375    0.0000 C   0  0  0  0  0  0  0  0  0  0  0  0
   -1.5458   -0.6250    0.0000 C   0  0  0  0  0  0  0  0  0  0  0  0
    2.0250    0.6125    0.0000 C   0  0  0  0  0  0  0  0  0  0  0  0
   -0.1167    1.0250    0.0000 C   0  0  0  0  0  0  0  0  0  0  0  0
   -2.2583   -0.2125    0.0000 C   0  0  0  0  0  0  0  0  0  0  0  0
   -0.8292   -0.2125    0.0000 C   0  0  0  0  0  0  0  0  0  0  0  0
    2.7417    1.0250    0.0000 C   0  0  0  0  0  0  0  0  0  0  0  0
    1.3125    1.8500    0.0000 O   0  0  0  0  0  0  0  0  0  0  0  0
   -0.8292    0.6125    0.0000 C   0  0  0  0  0  0  0  0  0  0  0  0
   -2.2583    0.6125    0.0000 C   0  0  0  0  0  0  0  0  0  0  0  0
    3.4542    0.6125    0.0000 C   0  0  0  0  0  0  0  0  0  0  0  0
   -1.5458    1.0250    0.0000 C   0  0  0  0  0  0  0  0  0  0  0  0
   -1.5458   -1.4500    0.0000 O   0  0  0  0  0  0  0  0  0  0  0  0
   -2.9750   -0.6250    0.0000 O   0  0  0  0  0  0  0  0  0  0  0  0
   -3.6875   -0.2125    0.0000 C   0  0  0  0  0  0  0  0  0  0  0  0
    4.1708    1.0250    0.0000 O   0  0  0  0  0  0  0  0  0  0  0  0
    2.0250   -0.2125    0.0000 C   0  0  0  0  0  0  0  0  0  0  0  0
    2.7417   -0.6250    0.0000 C   0  0  0  0  0  0  0  0  0  0  0  0
    3.4542   -0.2125    0.0000 C   0  0  0  0  0  0  0  0  0  0  0  0
   -0.8292   -1.8625    0.0000 C   0  0  0  0  0  0  0  0  0  0  0  0
    4.8833    0.6125    0.0000 C   0  0  0  0  0  0  0  0  0  0  0  0
   -0.8292   -2.6875    0.0000 C   0  0  0  0  0  0  0  0  0  0  0  0
  2 18  1  0  0  0  0
  3  1  1  0  0  0  0
  4  2  3  0  0  0  0
  5  9  1  0  0  0  0
  6  3  1  0  0  0  0
  7  1  2  0  0  0  0
  8 13  1  0  0  0  0
  8  5  2  0  0  0  0
  9 12  2  0  0  0  0
 10  6  2  0  0  0  0
 11  3  2  0  0  0  0
 12  7  1  0  0  0  0
 13 15  2  0  0  0  0
 14 10  1  0  0  0  0
 15 12  1  0  0  0  0
 16  5  1  0  0  0  0
 17  8  1  0  0  0  0
 18 17  1  0  0  0  0
 19 14  1  0  0  0  0
 20  6  1  0  0  0  0
 21 20  2  0  0  0  0
 22 14  2  0  0  0  0
 22 21  1  0  0  0  0
 23 16  1  0  0  0  0
 24 19  1  0  0  0  0
 25 23  1  0  0  0  0
M  END
> <CdId>
3808

> <Mol Weight>
336.3811

> <Formula>
C21H20O4

> <Click_ID>
CLK049H11 __ __ 

$$$$
