CLK021_C07
 OpenBabel03181419432D

 15 15  0  0  0  0  0  0  0  0999 V2000
    3.9096    2.0166    0.0000 C   0  0  0  0  0  0  0  0  0  0  0  0
    4.3221    1.3016    0.0000 C   0  0  0  0  0  0  0  0  0  0  0  0
    4.3221    2.7316    0.0000 C   0  0  0  0  0  0  0  0  0  0  0  0
    7.2096    2.0166    0.0000 N   0  0  0  0  0  0  0  0  0  0  0  0
    1.8471    2.7316    0.0000 C   0  0  0  0  0  0  0  0  0  0  0  0
    6.3846    2.0166    0.0000 C   0  0  0  0  0  0  0  0  0  0  0  0
    1.0221    2.7316    0.0000 C   0  0  0  0  0  0  0  0  0  0  0  0
    5.5596    2.0166    0.0000 C   0  0  0  0  0  0  0  0  0  0  0  0
    5.1471    1.3016    0.0000 C   0  0  0  0  0  0  0  0  0  0  0  0
    5.1471    2.7316    0.0000 C   0  0  0  0  0  0  0  0  0  0  0  0
    3.9096    0.5866    0.0000 I   0  0  0  0  0  0  0  0  0  0  0  0
    3.0846    2.0166    0.0000 O   0  0  0  0  0  0  0  0  0  0  0  0
    3.9096    3.4466    0.0000 O   0  0  0  0  0  0  0  0  0  0  0  0
    2.6721    2.7316    0.0000 C   0  0  0  0  0  0  0  0  0  0  0  0
    4.3221    4.1616    0.0000 C   0  0  0  0  0  0  0  0  0  0  0  0
  2  1  2  0  0  0  0
  3  1  1  0  0  0  0
  4  6  3  0  0  0  0
  5 14  1  0  0  0  0
  6  8  1  0  0  0  0
  7  5  3  0  0  0  0
  8 10  1  0  0  0  0
  9  2  1  0  0  0  0
  9  8  2  0  0  0  0
 10  3  2  0  0  0  0
 11  2  1  0  0  0  0
 12  1  1  0  0  0  0
 13  3  1  0  0  0  0
 14 12  1  0  0  0  0
 15 13  1  0  0  0  0
M  END
> <CdId>
1582

> <Mol Weight>
313.0912

> <Formula>
C11H8INO2

> <Click_ID>
CLK021_C07 __ __ 

$$$$
