CLK049G04
 OpenBabel03181419432D

 20 21  0  0  0  0  0  0  0  0999 V2000
    0.8292   -0.2208    0.0000 N   0  0  0  0  0  0  0  0  0  0  0  0
    1.5417   -0.6333    0.0000 C   0  0  0  0  0  0  0  0  0  0  0  0
    0.1167   -0.6333    0.0000 C   0  0  0  0  0  0  0  0  0  0  0  0
    0.1167   -1.4583    0.0000 C   0  0  0  0  0  0  0  0  0  0  0  0
    1.5417   -1.4583    0.0000 N   0  0  0  0  0  0  0  0  0  0  0  0
    0.8292   -1.8708    0.0000 C   0  0  0  0  0  0  0  0  0  0  0  0
    2.2583   -0.2208    0.0000 C   0  0  0  0  0  0  0  0  0  0  0  0
   -0.6000   -1.8708    0.0000 C   0  0  0  0  0  0  0  0  0  0  0  0
    3.0833   -0.2208    0.0000 C   0  0  0  0  0  0  0  0  0  0  0  0
    2.6708    0.4958    0.0000 C   0  0  0  0  0  0  0  0  0  0  0  0
   -1.3125   -2.2833    0.0000 N   0  0  0  0  0  0  0  0  0  0  0  0
   -0.6000   -0.2208    0.0000 S   0  0  0  0  0  0  0  0  0  0  0  0
   -2.0292    3.0792    0.0000 C   0  0  0  0  0  0  0  0  0  0  0  0
   -2.0292    3.9042    0.0000 C   0  0  0  0  0  0  0  0  0  0  0  0
   -1.3125    1.0167    0.0000 C   0  0  0  0  0  0  0  0  0  0  0  0
   -2.0292    0.6042    0.0000 O   0  0  0  0  0  0  0  0  0  0  0  0
   -0.6000    0.6042    0.0000 C   0  0  0  0  0  0  0  0  0  0  0  0
   -1.3125    1.8417    0.0000 N   0  0  0  0  0  0  0  0  0  0  0  0
   -2.0292    2.2542    0.0000 C   0  0  0  0  0  0  0  0  0  0  0  0
    0.8292   -2.6958    0.0000 C   0  0  0  0  0  0  0  0  0  0  0  0
  2  1  1  0  0  0  0
  3  1  2  0  0  0  0
  4  3  1  0  0  0  0
  5  2  2  0  0  0  0
  5  6  1  0  0  0  0
  6  4  2  0  0  0  0
  7  2  1  0  0  0  0
  8  4  1  0  0  0  0
  9  7  1  0  0  0  0
 10  7  1  0  0  0  0
 10  9  1  0  0  0  0
 11  8  3  0  0  0  0
 12  3  1  0  0  0  0
 13 19  1  0  0  0  0
 14 13  3  0  0  0  0
 15 17  1  0  0  0  0
 16 15  2  0  0  0  0
 17 12  1  0  0  0  0
 18 15  1  0  0  0  0
 19 18  1  0  0  0  0
 20  6  1  0  0  0  0
M  END
> <CdId>
3751

> <Mol Weight>
286.352

> <Formula>
C14H14N4OS

> <Click_ID>
CLK049G04 __ __ 

$$$$
