CLK032_G07
 OpenBabel03181419432D

 25 27  0  0  0  0  0  0  0  0999 V2000
   -1.4246    2.6385    0.0000 C   0  0  0  0  0  0  0  0  0  0  0  0
   -0.6000    2.6339    0.0000 N   0  0  0  0  0  0  0  0  0  0  0  0
   -1.9056    1.9880    0.0000 N   0  0  0  0  0  0  0  0  0  0  0  0
    1.9560    3.0462    0.0000 C   0  0  0  0  0  0  0  0  0  0  0  0
   -1.9056    3.3210    0.0000 S   0  0  0  0  0  0  0  0  0  0  0  0
   -2.6889    2.2354    0.0000 C   0  0  0  0  0  0  0  0  0  0  0  0
    2.6844    2.6385    0.0000 N   0  3  0  0  0  0  0  0  0  0  0  0
   -2.6889    3.0599    0.0000 C   0  0  0  0  0  0  0  0  0  0  0  0
   -0.1787    3.3348    0.0000 C   0  0  0  0  0  0  0  0  0  0  0  0
    1.2002    2.7072    0.0000 O   0  0  0  0  0  0  0  0  0  0  0  0
    0.6505    3.3210    0.0000 C   0  0  0  0  0  0  0  0  0  0  0  0
   -3.4035    1.8231    0.0000 C   0  0  0  0  0  0  0  0  0  0  0  0
    1.8736    3.8570    0.0000 C   0  0  0  0  0  0  0  0  0  0  0  0
    1.0628    4.0356    0.0000 C   0  0  0  0  0  0  0  0  0  0  0  0
   -3.4035    3.4722    0.0000 C   0  0  0  0  0  0  0  0  0  0  0  0
   -4.1181    2.2354    0.0000 C   0  0  0  0  0  0  0  0  0  0  0  0
   -0.8383    1.0169    0.0000 C   0  0  0  0  0  0  0  0  0  0  0  0
   -0.0366    0.8474    0.0000 C   0  0  0  0  0  0  0  0  0  0  0  0
    2.6844    1.8094    0.0000 O   0  5  0  0  0  0  0  0  0  0  0  0
    3.3944    3.0508    0.0000 O   0  0  0  0  0  0  0  0  0  0  0  0
   -4.1181    3.0599    0.0000 C   0  0  0  0  0  0  0  0  0  0  0  0
   -0.5909    4.0403    0.0000 O   0  0  0  0  0  0  0  0  0  0  0  0
   -1.6445    1.1910    0.0000 C   0  0  0  0  0  0  0  0  0  0  0  0
   -3.4035    0.9986    0.0000 F   0  0  0  0  0  0  0  0  0  0  0  0
   -4.8327    3.4859    0.0000 F   0  0  0  0  0  0  0  0  0  0  0  0
  2  1  2  0  0  0  0
  3  1  1  0  0  0  0
  4 10  1  0  0  0  0
  4 13  2  0  0  0  0
  5  1  1  0  0  0  0
  6  3  1  0  0  0  0
  6  8  2  0  0  0  0
  7  4  1  0  0  0  0
  8  5  1  0  0  0  0
  9  2  1  0  0  0  0
 10 11  1  0  0  0  0
 11  9  1  0  0  0  0
 12  6  1  0  0  0  0
 13 14  1  0  0  0  0
 14 11  2  0  0  0  0
 15  8  1  0  0  0  0
 16 12  2  0  0  0  0
 16 21  1  0  0  0  0
 17 23  1  0  0  0  0
 18 17  3  0  0  0  0
 19  7  1  0  0  0  0
 20  7  2  0  0  0  0
 21 15  2  0  0  0  0
 22  9  2  0  0  0  0
 23  3  1  0  0  0  0
 24 12  1  0  0  0  0
 25 21  1  0  0  0  0
M  END
> <CdId>
2471

> <Mol Weight>
363.296

> <Formula>
C15H7F2N3O4S

> <Click_ID>
CLK032_G07 __ __ 

$$$$
