CLK009_C05
 OpenBabel03181419432D

 24 25  0  0  0  0  0  0  0  0999 V2000
   -2.1055   -1.2899    0.0000 N   0  0  0  0  0  0  0  0  0  0  0  0
   -1.3771   -0.8688    0.0000 C   0  0  0  0  0  0  0  0  0  0  0  0
    3.5964   -1.2899    0.0000 C   0  0  0  0  0  0  0  0  0  0  0  0
    4.3247   -1.7110    0.0000 C   0  0  0  0  0  0  0  0  0  0  0  0
    1.4606   -0.8688    0.0000 C   0  0  0  0  0  0  0  0  0  0  0  0
   -1.3771   -0.0266    0.0000 O   0  0  0  0  0  0  0  0  0  0  0  0
   -2.8338   -0.8688    0.0000 C   0  0  0  0  0  0  0  0  0  0  0  0
   -2.1055   -2.1093    0.0000 C   0  0  0  0  0  0  0  0  0  0  0  0
    1.4606   -0.0266    0.0000 O   0  0  0  0  0  0  0  0  0  0  0  0
    2.1662   -1.2899    0.0000 O   0  0  0  0  0  0  0  0  0  0  0  0
    2.8832   -0.8688    0.0000 C   0  0  0  0  0  0  0  0  0  0  0  0
   -0.6676   -1.2899    0.0000 C   0  0  0  0  0  0  0  0  0  0  0  0
    0.0455   -0.8688    0.0000 C   0  0  0  0  0  0  0  0  0  0  0  0
    0.7550   -1.2899    0.0000 C   0  0  0  0  0  0  0  0  0  0  0  0
   -3.5470   -1.2747    0.0000 C   0  0  0  0  0  0  0  0  0  0  0  0
   -2.8338   -0.0266    0.0000 C   0  0  0  0  0  0  0  0  0  0  0  0
   -2.8186   -2.5190    0.0000 C   0  0  0  0  0  0  0  0  0  0  0  0
   -1.3960   -2.5076    0.0000 C   0  0  0  0  0  0  0  0  0  0  0  0
   -3.5470    0.3831    0.0000 C   0  0  0  0  0  0  0  0  0  0  0  0
   -2.8186   -3.3384    0.0000 C   0  0  0  0  0  0  0  0  0  0  0  0
   -1.3960   -3.3498    0.0000 C   0  0  0  0  0  0  0  0  0  0  0  0
   -4.2526   -0.8688    0.0000 C   0  0  0  0  0  0  0  0  0  0  0  0
   -4.2526   -0.0266    0.0000 C   0  0  0  0  0  0  0  0  0  0  0  0
   -2.1055   -3.7595    0.0000 C   0  0  0  0  0  0  0  0  0  0  0  0
  2  1  1  0  0  0  0
  3 11  1  0  0  0  0
  4  3  3  0  0  0  0
  5 14  1  0  0  0  0
  6  2  2  0  0  0  0
  7  1  1  0  0  0  0
  8  1  1  0  0  0  0
  9  5  2  0  0  0  0
 10  5  1  0  0  0  0
 11 10  1  0  0  0  0
 12  2  1  0  0  0  0
 13 12  1  0  0  0  0
 14 13  1  0  0  0  0
 15  7  1  0  0  0  0
 16  7  2  0  0  0  0
 17  8  2  0  0  0  0
 18  8  1  0  0  0  0
 19 16  1  0  0  0  0
 20 17  1  0  0  0  0
 21 18  2  0  0  0  0
 22 15  2  0  0  0  0
 22 23  1  0  0  0  0
 23 19  2  0  0  0  0
 24 21  1  0  0  0  0
 24 20  2  0  0  0  0
M  END
> <CdId>
620

> <Mol Weight>
321.3698

> <Formula>
C20H19NO3

> <Click_ID>
CLK009_C05 __ __ 

$$$$
