CLK012_C04
 OpenBabel03181419432D

 26 27  0  0  0  0  0  0  0  0999 V2000
    1.5650   -0.8158    0.0000 N    0  0  0  0  0  0  0  0  0  0  0  0
    1.8230   -1.6024    0.0000 C    0  0  0  0  0  0  0  0  0  0  0  0
    2.2350   -0.3288    0.0000 C    0  0  0  0  0  0  0  0  0  0  0  0
    2.9010   -0.8158    0.0000 C    0  0  0  0  0  0  0  0  0  0  0  0
    2.6470   -1.6024    0.0000 S    0  0  0  0  0  0  0  0  0  0  0  0
    4.2078    1.8604    0.0000 C    0  0  0  0  0  0  0  0  0  0  0  0
    3.6876   -0.5619    0.0000 C    0  0  0  0  0  0  0  0  0  0  0  0
    4.8113    1.3068    0.0000 C    0  0  0  0  0  0  0  0  0  0  0  0
    3.4212    1.6107    0.0000 C    0  0  0  0  0  0  0  0  0  0  0  0
    3.8582    0.2497    0.0000 C    0  0  0  0  0  0  0  0  0  0  0  0
    4.3868    2.6595    0.0000 O    0  0  0  0  0  0  0  0  0  0  0  0
    0.6118    0.2455    0.0000 C    0  0  0  0  0  0  0  0  0  0  0  0
    0.3913    1.0446    0.0000 C    0  0  0  0  0  0  0  0  0  0  0  0
    1.3360   -2.2642    0.0000 O    0  0  0  0  0  0  0  0  0  0  0  0
    3.2464    0.7949    0.0000 C    0  0  0  0  0  0  0  0  0  0  0  0
    4.6365    0.5077    0.0000 C    0  0  0  0  0  0  0  0  0  0  0  0
    2.2267    0.4952    0.0000 O    0  0  0  0  0  0  0  0  0  0  0  0
    5.3482    3.7167    0.0000 C    0  0  0  0  0  0  0  0  0  0  0  0
    0.7866   -0.5619    0.0000 C    0  0  0  0  0  0  0  0  0  0  0  0
    4.7364    4.2619    0.0000 O    0  0  0  0  0  0  0  0  0  0  0  0
    5.1609    2.9051    0.0000 C    0  0  0  0  0  0  0  0  0  0  0  0
    5.5938    1.5566    0.0000 Cl   0  0  0  0  0  0  0  0  0  0  0  0
    2.8094    2.1559    0.0000 Cl   0  0  0  0  0  0  0  0  0  0  0  0
    6.1307    3.9664    0.0000 O    0  0  0  0  0  0  0  0  0  0  0  0
    6.3097    4.7614    0.0000 C    0  0  0  0  0  0  0  0  0  0  0  0
    7.0838    4.9986    0.0000 C    0  0  0  0  0  0  0  0  0  0  0  0
  2  1  1  0  0  0  0
  3  1  1  0  0  0  0
  4  3  1  0  0  0  0
  5  2  1  0  0  0  0
  5  4  1  0  0  0  0
  6  8  1  0  0  0  0
  7  4  2  0  0  0  0
  8 16  2  0  0  0  0
  9 15  1  0  0  0  0
  9  6  2  0  0  0  0
 10  7  1  0  0  0  0
 11  6  1  0  0  0  0
 12 19  1  0  0  0  0
 13 12  3  0  0  0  0
 14  2  2  0  0  0  0
 15 10  2  0  0  0  0
 16 10  1  0  0  0  0
 17  3  2  0  0  0  0
 18 21  1  0  0  0  0
 19  1  1  0  0  0  0
 20 18  2  0  0  0  0
 21 11  1  0  0  0  0
 22  8  1  0  0  0  0
 23  9  1  0  0  0  0
 24 18  1  0  0  0  0
 25 24  1  0  0  0  0
 26 25  1  0  0  0  0
M  END
> <CdId>
859

> <Mol Weight>
414.26

> <Formula>
C17H13Cl2NO5S

> <Click_ID>
CLK012_C04 __ __ 

$$$$
