CLK009_A02
 OpenBabel03181419432D

 14 14  0  0  0  0  0  0  0  0999 V2000
   -0.0550   -1.1550    0.0000 N    0  0  0  0  0  0  0  0  0  0  0  0
   -0.8250   -0.0046    0.0000 C    0  0  0  0  0  0  0  0  0  0  0  0
   -0.0550   -0.4950    0.0000 C    0  0  0  0  0  0  0  0  0  0  0  0
   -1.6316   -0.5362    0.0000 N    0  0  0  0  0  0  0  0  0  0  0  0
   -0.8938   -1.6500    0.0000 C    0  0  0  0  0  0  0  0  0  0  0  0
   -1.6454   -1.1550    0.0000 C    0  0  0  0  0  0  0  0  0  0  0  0
    1.2834   -1.1962    0.0000 C    0  0  0  0  0  0  0  0  0  0  0  0
    2.0946   -1.1962    0.0000 C    0  0  0  0  0  0  0  0  0  0  0  0
   -0.8250    0.8204    0.0000 C    0  0  0  0  0  0  0  0  0  0  0  0
   -2.4429   -0.0046    0.0000 C    0  0  0  0  0  0  0  0  0  0  0  0
   -2.4429    0.8204    0.0000 C    0  0  0  0  0  0  0  0  0  0  0  0
    0.6463   -1.5446    0.0000 C    0  0  0  0  0  0  0  0  0  0  0  0
    0.6463   -0.1971    0.0000 C    0  0  0  0  0  0  0  0  0  0  0  0
   -0.1100   -2.0534    0.0000 Br   0  0  0  0  0  0  0  0  0  0  0  0
  2  3  1  0  0  0  0
  2  4  1  0  0  0  0
  3  1  2  0  0  0  0
  4  6  1  0  0  0  0
  5  1  1  0  0  0  0
  6  5  2  0  0  0  0
  7 12  1  0  0  0  0
  8  7  3  0  0  0  0
  9  2  2  0  0  0  0
 10  4  1  0  0  0  0
 11  9  1  0  0  0  0
 11 10  2  0  0  0  0
 12  1  1  0  0  0  0
 13  3  1  0  0  0  0
M  END
> <CdId>
597

> <Mol Weight>
251.122

> <Formula>
C11H11BrN2

> <Click_ID>
CLK009_A02 __ __ 

$$$$
