CLK037F05
 OpenBabel03181419432D

 18 18  0  0  0  0  0  0  0  0999 V2000
   -0.2000    0.7125    0.0000 C   0  0  0  0  0  0  0  0  0  0  0  0
   -0.2000   -0.1125    0.0000 C   0  0  0  0  0  0  0  0  0  0  0  0
   -0.9167    1.1250    0.0000 C   0  0  0  0  0  0  0  0  0  0  0  0
    0.5125   -0.5250    0.0000 N   0  0  0  0  0  0  0  0  0  0  0  0
    0.5125   -2.1750    0.0000 C   0  0  0  0  0  0  0  0  0  0  0  0
    0.5125    1.1250    0.0000 C   0  0  0  0  0  0  0  0  0  0  0  0
    0.5125   -3.0000    0.0000 C   0  0  0  0  0  0  0  0  0  0  0  0
   -0.9167    1.9500    0.0000 C   0  0  0  0  0  0  0  0  0  0  0  0
    0.5125   -1.3500    0.0000 C   0  0  0  0  0  0  0  0  0  0  0  0
   -0.9167   -0.5250    0.0000 O   0  0  0  0  0  0  0  0  0  0  0  0
   -0.2000    2.3625    0.0000 C   0  0  0  0  0  0  0  0  0  0  0  0
   -1.6292    0.7125    0.0000 F   0  0  0  0  0  0  0  0  0  0  0  0
    0.5125    1.9500    0.0000 C   0  0  0  0  0  0  0  0  0  0  0  0
   -0.2000    3.1875    0.0000 F   0  0  0  0  0  0  0  0  0  0  0  0
   -0.3125   -1.3500    0.0000 C   0  0  0  0  0  0  0  0  0  0  0  0
    1.3375   -1.3500    0.0000 C   0  0  0  0  0  0  0  0  0  0  0  0
   -0.7250   -0.6375    0.0000 C   0  0  0  0  0  0  0  0  0  0  0  0
    1.7500   -2.0625    0.0000 C   0  0  0  0  0  0  0  0  0  0  0  0
  2  1  1  0  0  0  0
  3  1  2  0  0  0  0
  4  2  1  0  0  0  0
  5  9  1  0  0  0  0
  6  1  1  0  0  0  0
  7  5  3  0  0  0  0
  8  3  1  0  0  0  0
  9  4  1  0  0  0  0
 10  2  2  0  0  0  0
 11  8  2  0  0  0  0
 11 13  1  0  0  0  0
 12  3  1  0  0  0  0
 13  6  2  0  0  0  0
 14 11  1  0  0  0  0
 15  9  1  0  0  0  0
 16  9  1  0  0  0  0
 17 15  1  0  0  0  0
 18 16  1  0  0  0  0
M  END
> <CdId>
2798

> <Mol Weight>
251.2718

> <Formula>
C14H15F2NO

> <Click_ID>
CLK037F05 __ __ 

$$$$
