CLK019_F06
 OpenBabel03181419432D

 29 32  0  0  0  0  0  0  0  0999 V2000
    5.6921   -3.2891    0.0000 C    0  0  3  0  0  0  0  0  0  0  0  0
    6.1581   -3.9196    0.0000 C    0  0  0  0  0  0  0  0  0  0  0  0
    4.9109   -3.5404    0.0000 C    0  0  0  0  0  0  0  0  0  0  0  0
    5.6921   -4.6231    0.0000 N    0  0  0  0  0  0  0  0  0  0  0  0
    4.9109   -4.3718    0.0000 C    0  0  0  0  0  0  0  0  0  0  0  0
    6.5372   -2.5126    0.0000 C    0  0  0  0  0  0  0  0  0  0  0  0
    9.5020   -0.0868    0.0000 N    0  0  0  0  0  0  0  0  0  0  0  0
    7.4965   -2.6907    0.0000 C    0  0  0  0  0  0  0  0  0  0  0  0
    5.4408   -6.0210    0.0000 C    0  0  0  0  0  0  0  0  0  0  0  0
    4.1937   -4.7830    0.0000 C    0  0  0  0  0  0  0  0  0  0  0  0
    4.9063   -6.6514    0.0000 C    0  0  0  0  0  0  0  0  0  0  0  0
    4.1937   -3.1293    0.0000 C    0  0  0  0  0  0  0  0  0  0  0  0
    9.0040   -0.7310    0.0000 C    0  0  0  0  0  0  0  0  0  0  0  0
    6.9483   -3.9881    0.0000 O    0  0  0  0  0  0  0  0  0  0  0  0
    7.9945   -2.0329    0.0000 C    0  0  0  0  0  0  0  0  0  0  0  0
   10.3243   -0.1005    0.0000 C    0  0  0  0  0  0  0  0  0  0  0  0
    9.2690    0.7080    0.0000 C    0  0  0  0  0  0  0  0  0  0  0  0
    5.9662   -5.3997    0.0000 C    0  0  0  0  0  0  0  0  0  0  0  0
    5.3038   -2.4166    0.0000 O    0  0  0  0  0  0  0  0  0  0  0  0
    7.7706   -3.2663    0.0000 O    0  0  0  0  0  0  0  0  0  0  0  0
    9.9497    1.1740    0.0000 C    0  0  0  0  0  0  0  0  0  0  0  0
   10.5984    0.6669    0.0000 C    0  0  0  0  0  0  0  0  0  0  0  0
    8.1864   -0.6213    0.0000 C    0  0  0  0  0  0  0  0  0  0  0  0
    9.3102   -1.4984    0.0000 C    0  0  0  0  0  0  0  0  0  0  0  0
    7.6793   -1.2791    0.0000 C    0  0  0  0  0  0  0  0  0  0  0  0
    8.8122   -2.1426    0.0000 C    0  0  0  0  0  0  0  0  0  0  0  0
    3.4856   -3.5404    0.0000 C    0  0  0  0  0  0  0  0  0  0  0  0
    3.4856   -4.3718    0.0000 C    0  0  0  0  0  0  0  0  0  0  0  0
    2.7684   -3.1293    0.0000 Br   0  0  0  0  0  0  0  0  0  0  0  0
  2  1  1  0  0  0  0
  3  1  1  0  0  0  0
  4  2  1  0  0  0  0
  4  5  1  0  0  0  0
  5  3  2  0  0  0  0
  6  1  1  0  0  0  0
  7 13  1  0  0  0  0
  8  6  1  0  0  0  0
  9 18  1  0  0  0  0
 10  5  1  0  0  0  0
 10 28  2  0  0  0  0
 11  9  3  0  0  0  0
 12  3  1  0  0  0  0
 13 24  1  0  0  0  0
 14  2  2  0  0  0  0
 15  8  1  0  0  0  0
 16  7  1  0  0  0  0
 17  7  1  0  0  0  0
 18  4  1  0  0  0  0
 19  1  1  0  0  0  0
 20  8  2  0  0  0  0
 21 17  2  0  0  0  0
 21 22  1  0  0  0  0
 22 16  2  0  0  0  0
 23 25  1  0  0  0  0
 23 13  2  0  0  0  0
 24 26  2  0  0  0  0
 25 15  2  0  0  0  0
 26 15  1  0  0  0  0
 27 12  2  0  0  0  0
 28 27  1  0  0  0  0
 29 27  1  0  0  0  0
M  END
> <CdId>
1451

> <Mol Weight>
449.297

> <Formula>
C23H17BrN2O3

> <Click_ID>
CLK019_F06 __ __ 

$$$$
