CLK046B04
 OpenBabel03181419432D

 35 38  0  0  0  0  0  0  0  0999 V2000
    0.1958    0.2417    0.0000 C   0  0  0  0  0  0  0  0  0  0  0  0
   -1.2333   -0.5833    0.0000 C   0  0  0  0  0  0  0  0  0  0  0  0
    0.1958   -0.5833    0.0000 C   0  0  0  0  0  0  0  0  0  0  0  0
   -0.5167   -0.9958    0.0000 N   0  0  0  0  0  0  0  0  0  0  0  0
   -0.5167    0.6542    0.0000 C   0  0  3  0  0  0  0  0  0  0  0  0
   -1.2333    0.2417    0.0000 N   0  0  0  0  0  0  0  0  0  0  0  0
    0.9125    0.6542    0.0000 C   0  0  0  0  0  0  0  0  0  0  0  0
    2.3417    0.6542    0.0000 C   0  0  0  0  0  0  0  0  0  0  0  0
    1.6250    0.2417    0.0000 N   0  0  0  0  0  0  0  0  0  0  0  0
    2.4250    1.4750    0.0000 N   0  0  0  0  0  0  0  0  0  0  0  0
   -0.5167    1.4792    0.0000 C   0  0  0  0  0  0  0  0  0  0  0  0
    3.0958    0.3167    0.0000 C   0  0  0  0  0  0  0  0  0  0  0  0
    3.2333    1.6458    0.0000 O   0  0  0  0  0  0  0  0  0  0  0  0
   -1.9458   -0.9958    0.0000 S   0  0  0  0  0  0  0  0  0  0  0  0
    3.6458    0.9292    0.0000 C   0  0  0  0  0  0  0  0  0  0  0  0
   -0.5167   -1.8208    0.0000 C   0  0  0  0  0  0  0  0  0  0  0  0
   -3.3750    1.4792    0.0000 C   0  0  0  0  0  0  0  0  0  0  0  0
   -4.0875    1.0667    0.0000 C   0  0  0  0  0  0  0  0  0  0  0  0
    0.9125    1.4792    0.0000 O   0  0  0  0  0  0  0  0  0  0  0  0
   -1.2333    1.8917    0.0000 C   0  0  0  0  0  0  0  0  0  0  0  0
   -1.2333   -2.2333    0.0000 C   0  0  0  0  0  0  0  0  0  0  0  0
    0.1958   -2.2333    0.0000 C   0  0  0  0  0  0  0  0  0  0  0  0
    0.9125   -0.9958    0.0000 C   0  0  0  0  0  0  0  0  0  0  0  0
   -0.5167   -3.4708    0.0000 C   0  0  0  0  0  0  0  0  0  0  0  0
    0.1958   -3.0583    0.0000 C   0  0  0  0  0  0  0  0  0  0  0  0
   -1.2333   -3.0583    0.0000 C   0  0  0  0  0  0  0  0  0  0  0  0
   -1.9458    1.4792    0.0000 O   0  0  0  0  0  0  0  0  0  0  0  0
    0.1958    1.8917    0.0000 C   0  0  0  0  0  0  0  0  0  0  0  0
   -2.6625    1.8917    0.0000 C   0  0  0  0  0  0  0  0  0  0  0  0
   -0.5167   -4.2958    0.0000 O   0  0  0  0  0  0  0  0  0  0  0  0
    4.4667    0.8458    0.0000 C   0  0  0  0  0  0  0  0  0  0  0  0
   -1.2333    2.7167    0.0000 C   0  0  0  0  0  0  0  0  0  0  0  0
    0.1958   -4.7083    0.0000 C   0  0  0  0  0  0  0  0  0  0  0  0
    0.1958    2.7167    0.0000 C   0  0  0  0  0  0  0  0  0  0  0  0
   -0.5167    3.1292    0.0000 C   0  0  0  0  0  0  0  0  0  0  0  0
  2  6  1  0  0  0  0
  2  4  1  0  0  0  0
  3  1  2  0  0  0  0
  4  3  1  0  0  0  0
  5  1  1  0  0  0  0
  6  5  1  0  0  0  0
  7  1  1  0  0  0  0
  8  9  1  0  0  0  0
  9  7  1  0  0  0  0
 10  8  2  0  0  0  0
 11  5  1  0  0  0  0
 12  8  1  0  0  0  0
 13 10  1  0  0  0  0
 13 15  1  0  0  0  0
 14  2  2  0  0  0  0
 15 12  2  0  0  0  0
 16  4  1  0  0  0  0
 17 29  1  0  0  0  0
 18 17  3  0  0  0  0
 19  7  2  0  0  0  0
 20 11  2  0  0  0  0
 21 16  2  0  0  0  0
 22 16  1  0  0  0  0
 23  3  1  0  0  0  0
 24 26  2  0  0  0  0
 25 22  2  0  0  0  0
 25 24  1  0  0  0  0
 26 21  1  0  0  0  0
 27 20  1  0  0  0  0
 28 11  1  0  0  0  0
 29 27  1  0  0  0  0
 30 24  1  0  0  0  0
 31 15  1  0  0  0  0
 32 20  1  0  0  0  0
 33 30  1  0  0  0  0
 34 28  2  0  0  0  0
 35 32  2  0  0  0  0
 35 34  1  0  0  0  0
M  END
> <CdId>
3506

> <Mol Weight>
488.558

> <Formula>
C26H24N4O4S

> <Click_ID>
CLK046B04 __ __ 

$$$$
