CLK019_E04
 OpenBabel03181419432D

 23 25  0  0  0  0  0  0  0  0999 V2000
    5.1508   -2.1591    0.0000 C   0  0  3  0  0  0  0  0  0  0  0  0
    5.6174   -2.7904    0.0000 C   0  0  0  0  0  0  0  0  0  0  0  0
    5.1508   -3.4903    0.0000 N   0  0  0  0  0  0  0  0  0  0  0  0
    4.3686   -2.4153    0.0000 C   0  0  0  0  0  0  0  0  0  0  0  0
    4.3686   -3.2433    0.0000 C   0  0  0  0  0  0  0  0  0  0  0  0
    5.9970   -1.3860    0.0000 C   0  0  0  0  0  0  0  0  0  0  0  0
    7.4562   -0.9057    0.0000 C   0  0  0  0  0  0  0  0  0  0  0  0
    8.2796   -0.9332    0.0000 O   0  0  0  0  0  0  0  0  0  0  0  0
    6.9576   -1.5553    0.0000 C   0  0  0  0  0  0  0  0  0  0  0  0
    7.2230   -0.1144    0.0000 C   0  0  0  0  0  0  0  0  0  0  0  0
    4.8991   -4.8991    0.0000 C   0  0  0  0  0  0  0  0  0  0  0  0
    8.5541   -0.1556    0.0000 C   0  0  0  0  0  0  0  0  0  0  0  0
    4.3639   -5.5213    0.0000 C   0  0  0  0  0  0  0  0  0  0  0  0
    7.9091    0.3522    0.0000 C   0  0  0  0  0  0  0  0  0  0  0  0
    6.4087   -2.8590    0.0000 O   0  0  0  0  0  0  0  0  0  0  0  0
    5.4252   -4.2725    0.0000 C   0  0  0  0  0  0  0  0  0  0  0  0
    4.7619   -1.2809    0.0000 O   0  0  0  0  0  0  0  0  0  0  0  0
    7.2321   -2.1408    0.0000 O   0  0  0  0  0  0  0  0  0  0  0  0
    3.6503   -1.9945    0.0000 C   0  0  0  0  0  0  0  0  0  0  0  0
    3.6503   -3.6550    0.0000 C   0  0  0  0  0  0  0  0  0  0  0  0
    9.3500    0.0777    0.0000 C   0  0  0  0  0  0  0  0  0  0  0  0
    2.9414   -2.4153    0.0000 C   0  0  0  0  0  0  0  0  0  0  0  0
    2.9414   -3.2433    0.0000 C   0  0  0  0  0  0  0  0  0  0  0  0
  2  1  1  0  0  0  0
  3  2  1  0  0  0  0
  4  1  1  0  0  0  0
  5  4  2  0  0  0  0
  5  3  1  0  0  0  0
  6  1  1  0  0  0  0
  7  9  1  0  0  0  0
  8  7  1  0  0  0  0
  9  6  1  0  0  0  0
 10  7  2  0  0  0  0
 11 16  1  0  0  0  0
 12  8  1  0  0  0  0
 12 14  2  0  0  0  0
 13 11  3  0  0  0  0
 14 10  1  0  0  0  0
 15  2  2  0  0  0  0
 16  3  1  0  0  0  0
 17  1  1  0  0  0  0
 18  9  2  0  0  0  0
 19  4  1  0  0  0  0
 20  5  1  0  0  0  0
 20 23  2  0  0  0  0
 21 12  1  0  0  0  0
 22 19  2  0  0  0  0
 23 22  1  0  0  0  0
M  END
> <CdId>
1439

> <Mol Weight>
309.316

> <Formula>
C18H15NO4

> <Click_ID>
CLK019_E04 __ __ 

$$$$
