CLK026_G09
 OpenBabel03181419432D

 25 27  0  0  0  0  0  0  0  0999 V2000
   -2.9584    0.0344    0.0000 N    0  0  0  0  0  0  0  0  0  0  0  0
   -2.6079   -0.7216    0.0000 C    0  0  0  0  0  0  0  0  0  0  0  0
   -1.6355    0.2062    0.0000 C    0  0  0  0  0  0  0  0  0  0  0  0
   -2.3570    0.6047    0.0000 C    0  0  0  0  0  0  0  0  0  0  0  0
    1.0755   -0.2783    0.0000 N    0  0  0  0  0  0  0  0  0  0  0  0
   -0.2165    0.0996    0.0000 C    0  0  0  0  0  0  0  0  0  0  0  0
   -1.7867   -0.6150    0.0000 S    0  0  0  0  0  0  0  0  0  0  0  0
    0.6013   -0.9449    0.0000 C    0  0  0  0  0  0  0  0  0  0  0  0
    0.5669    0.3814    0.0000 C    0  0  0  0  0  0  0  0  0  0  0  0
   -0.8796    0.5601    0.0000 C    0  0  0  0  0  0  0  0  0  0  0  0
   -0.1924   -0.7147    0.0000 C    0  0  0  0  0  0  0  0  0  0  0  0
    1.8932   -0.2542    0.0000 C    0  0  0  0  0  0  0  0  0  0  0  0
   -4.0442    0.9655    0.0000 C    0  0  0  0  0  0  0  0  0  0  0  0
   -4.3671    1.7249    0.0000 C    0  0  0  0  0  0  0  0  0  0  0  0
   -3.0064   -1.4363    0.0000 O    0  0  0  0  0  0  0  0  0  0  0  0
   -2.4739    1.4190    0.0000 O    0  0  0  0  0  0  0  0  0  0  0  0
   -3.7659    0.1821    0.0000 C    0  0  0  0  0  0  0  0  0  0  0  0
    2.3158   -0.9724    0.0000 C    0  0  0  0  0  0  0  0  0  0  0  0
    2.2815    0.4673    0.0000 C    0  0  0  0  0  0  0  0  0  0  0  0
    3.5425   -0.2302    0.0000 C    0  0  0  0  0  0  0  0  0  0  0  0
    0.8727   -1.7214    0.0000 C    0  0  0  0  0  0  0  0  0  0  0  0
    0.8040    1.1648    0.0000 C    0  0  0  0  0  0  0  0  0  0  0  0
    3.1301   -0.9518    0.0000 C    0  0  0  0  0  0  0  0  0  0  0  0
    3.1130    0.4742    0.0000 C    0  0  0  0  0  0  0  0  0  0  0  0
    4.3637   -0.2165    0.0000 Br   0  0  0  0  0  0  0  0  0  0  0  0
  2  1  1  0  0  0  0
  3  4  1  0  0  0  0
  4  1  1  0  0  0  0
  5  9  1  0  0  0  0
  6 10  1  0  0  0  0
  7  2  1  0  0  0  0
  7  3  1  0  0  0  0
  8 11  2  0  0  0  0
  8  5  1  0  0  0  0
  9  6  2  0  0  0  0
 10  3  2  0  0  0  0
 11  6  1  0  0  0  0
 12  5  1  0  0  0  0
 13 17  1  0  0  0  0
 14 13  3  0  0  0  0
 15  2  2  0  0  0  0
 16  4  2  0  0  0  0
 17  1  1  0  0  0  0
 18 12  2  0  0  0  0
 19 12  1  0  0  0  0
 20 24  1  0  0  0  0
 20 23  2  0  0  0  0
 21  8  1  0  0  0  0
 22  9  1  0  0  0  0
 23 18  1  0  0  0  0
 24 19  2  0  0  0  0
 25 20  1  0  0  0  0
M  END
> <CdId>
2004

> <Mol Weight>
415.304

> <Formula>
C19H15BrN2O2S

> <Click_ID>
CLK026_G09 __ __ 

$$$$
