CLK047E11
 OpenBabel03181419432D

 17 18  0  0  0  0  0  0  0  0999 V2000
   -1.7667    1.0208    0.0000 N   0  0  0  0  0  0  0  0  0  0  0  0
   -1.0542   -0.2167    0.0000 C   0  0  0  0  0  0  0  0  0  0  0  0
   -1.0542    0.6083    0.0000 C   0  0  0  0  0  0  0  0  0  0  0  0
   -2.4833    0.6083    0.0000 C   0  0  0  0  0  0  0  0  0  0  0  0
    1.0917   -0.6292    0.0000 C   0  0  0  0  0  0  0  0  0  0  0  0
   -1.7667   -0.6292    0.0000 O   0  0  0  0  0  0  0  0  0  0  0  0
    0.3750   -0.2167    0.0000 C   0  0  0  0  0  0  0  0  0  0  0  0
    3.2333   -0.2167    0.0000 C   0  0  0  0  0  0  0  0  0  0  0  0
   -0.3375   -0.6292    0.0000 C   0  0  0  0  0  0  0  0  0  0  0  0
    3.9500    0.1958    0.0000 C   0  0  0  0  0  0  0  0  0  0  0  0
    1.0917   -1.4542    0.0000 O   0  0  0  0  0  0  0  0  0  0  0  0
   -0.3375    1.0208    0.0000 C   0  0  0  0  0  0  0  0  0  0  0  0
   -3.1958    1.0208    0.0000 O   0  0  0  0  0  0  0  0  0  0  0  0
    0.3750    0.6083    0.0000 C   0  0  0  0  0  0  0  0  0  0  0  0
   -2.4833   -0.2167    0.0000 C   0  0  0  0  0  0  0  0  0  0  0  0
    1.8042   -0.2167    0.0000 N   0  0  0  0  0  0  0  0  0  0  0  0
    2.5208   -0.6292    0.0000 C   0  0  0  0  0  0  0  0  0  0  0  0
  2  3  2  0  0  0  0
  2  6  1  0  0  0  0
  3  1  1  0  0  0  0
  4  1  1  0  0  0  0
  5  7  1  0  0  0  0
  6 15  1  0  0  0  0
  7  9  2  0  0  0  0
  8 17  1  0  0  0  0
  9  2  1  0  0  0  0
 10  8  3  0  0  0  0
 11  5  2  0  0  0  0
 12  3  1  0  0  0  0
 13  4  2  0  0  0  0
 14 12  2  0  0  0  0
 14  7  1  0  0  0  0
 15  4  1  0  0  0  0
 16  5  1  0  0  0  0
 17 16  1  0  0  0  0
M  END
> <CdId>
3645

> <Mol Weight>
230.2194

> <Formula>
C12H10N2O3

> <Click_ID>
CLK047E11 __ __ 

$$$$
