CLK041H03
 OpenBabel03181419432D

 17 17  0  0  0  0  0  0  0  0999 V2000
    0.0417    0.8500    0.0000 S   0  0  0  0  0  0  0  0  0  0  0  0
    0.0417    0.0250    0.0000 C   0  0  0  0  0  0  0  0  0  0  0  0
   -0.6750   -0.3875    0.0000 C   0  0  0  0  0  0  0  0  0  0  0  0
    0.7542    2.9125    0.0000 C   0  0  0  0  0  0  0  0  0  0  0  0
   -0.6750   -1.2125    0.0000 C   0  0  0  0  0  0  0  0  0  0  0  0
    0.7542    3.7375    0.0000 C   0  0  0  0  0  0  0  0  0  0  0  0
   -0.7833    0.8500    0.0000 O   0  0  0  0  0  0  0  0  0  0  0  0
    0.8667    0.8500    0.0000 O   0  0  0  0  0  0  0  0  0  0  0  0
    0.0417    1.6750    0.0000 N   0  0  0  0  0  0  0  0  0  0  0  0
    0.0417   -1.6250    0.0000 C   0  0  0  0  0  0  0  0  0  0  0  0
    0.7542   -0.3875    0.0000 C   0  0  0  0  0  0  0  0  0  0  0  0
    0.7542   -1.2125    0.0000 C   0  0  0  0  0  0  0  0  0  0  0  0
   -1.3875   -1.6250    0.0000 O   0  0  0  0  0  0  0  0  0  0  0  0
    0.7542    2.0875    0.0000 C   0  0  0  0  0  0  0  0  0  0  0  0
    0.0417   -2.4500    0.0000 O   0  0  0  0  0  0  0  0  0  0  0  0
   -2.1042   -1.2125    0.0000 C   0  0  0  0  0  0  0  0  0  0  0  0
    0.7542   -2.8625    0.0000 C   0  0  0  0  0  0  0  0  0  0  0  0
  2  1  1  0  0  0  0
  3  2  2  0  0  0  0
  4 14  1  0  0  0  0
  5  3  1  0  0  0  0
  6  4  3  0  0  0  0
  7  1  2  0  0  0  0
  8  1  2  0  0  0  0
  9  1  1  0  0  0  0
 10  5  2  0  0  0  0
 11  2  1  0  0  0  0
 12 11  2  0  0  0  0
 12 10  1  0  0  0  0
 13  5  1  0  0  0  0
 14  9  1  0  0  0  0
 15 10  1  0  0  0  0
 16 13  1  0  0  0  0
 17 15  1  0  0  0  0
M  END
> <CdId>
3104

> <Mol Weight>
255.29

> <Formula>
C11H13NO4S

> <Click_ID>
CLK041H03 __ __ 

$$$$
