CLK030_B08
 OpenBabel03181419432D

 28 31  0  0  0  0  0  0  0  0999 V2000
   -1.1625    2.3833    0.0000 C   0  0  0  0  0  0  0  0  0  0  0  0
   -0.3375    2.3750    0.0000 N   0  0  0  0  0  0  0  0  0  0  0  0
   -1.6458    1.7208    0.0000 N   0  0  0  0  0  0  0  0  0  0  0  0
   -1.6458    3.0500    0.0000 S   0  0  0  0  0  0  0  0  0  0  0  0
   -4.5833    3.2125    0.0000 S   0  0  0  0  0  0  0  0  0  0  0  0
   -2.4333    2.7958    0.0000 C   0  0  0  0  0  0  0  0  0  0  0  0
   -2.4333    1.9708    0.0000 C   0  0  0  0  0  0  0  0  0  0  0  0
    0.0750    3.0875    0.0000 C   0  0  0  0  0  0  0  0  0  0  0  0
   -3.8583    2.7958    0.0000 C   0  0  0  0  0  0  0  0  0  0  0  0
   -3.1458    3.2083    0.0000 C   0  0  0  0  0  0  0  0  0  0  0  0
    3.3667    2.9250    0.0000 N   0  0  0  0  0  0  0  0  0  0  0  0
    0.9000    3.0875    0.0000 C   0  0  0  0  0  0  0  0  0  0  0  0
    3.4500    2.1000    0.0000 C   0  0  0  0  0  0  0  0  0  0  0  0
    2.1417    2.3833    0.0000 C   0  0  0  0  0  0  0  0  0  0  0  0
    2.6917    1.7583    0.0000 S   0  0  0  0  0  0  0  0  0  0  0  0
   -1.9458    0.3208    0.0000 C   0  0  0  0  0  0  0  0  0  0  0  0
   -3.1458    1.5583    0.0000 C   0  0  0  0  0  0  0  0  0  0  0  0
    1.3125    2.3708    0.0000 C   0  0  0  0  0  0  0  0  0  0  0  0
    2.5542    3.0958    0.0000 C   0  0  0  0  0  0  0  0  0  0  0  0
   -2.4958   -0.2917    0.0000 C   0  0  0  0  0  0  0  0  0  0  0  0
   -5.0208    2.5083    0.0000 O   0  0  0  0  0  0  0  0  0  0  0  0
   -4.1458    3.9083    0.0000 O   0  0  0  0  0  0  0  0  0  0  0  0
   -0.3375    3.8000    0.0000 O   0  0  0  0  0  0  0  0  0  0  0  0
   -3.8583    1.9708    0.0000 C   0  0  0  0  0  0  0  0  0  0  0  0
   -1.3958    0.9333    0.0000 C   0  0  0  0  0  0  0  0  0  0  0  0
    1.3167    3.8125    0.0000 C   0  0  0  0  0  0  0  0  0  0  0  0
    2.1417    3.8125    0.0000 C   0  0  0  0  0  0  0  0  0  0  0  0
   -5.2833    3.6458    0.0000 C   0  0  0  0  0  0  0  0  0  0  0  0
  2  1  2  0  0  0  0
  3  1  1  0  0  0  0
  4  1  1  0  0  0  0
  5  9  1  0  0  0  0
  6  4  1  0  0  0  0
  6  7  2  0  0  0  0
  7  3  1  0  0  0  0
  8  2  1  0  0  0  0
  9 10  2  0  0  0  0
  9 24  1  0  0  0  0
 10  6  1  0  0  0  0
 11 19  1  0  0  0  0
 12  8  1  0  0  0  0
 13 15  1  0  0  0  0
 13 11  2  0  0  0  0
 14 18  1  0  0  0  0
 14 19  2  0  0  0  0
 15 14  1  0  0  0  0
 16 25  1  0  0  0  0
 17  7  1  0  0  0  0
 18 12  2  0  0  0  0
 19 27  1  0  0  0  0
 20 16  3  0  0  0  0
 21  5  2  0  0  0  0
 22  5  2  0  0  0  0
 23  8  2  0  0  0  0
 24 17  2  0  0  0  0
 25  3  1  0  0  0  0
 26 12  1  0  0  0  0
 27 26  2  0  0  0  0
 28  5  1  0  0  0  0
M  END
> <CdId>
2262

> <Mol Weight>
427.52

> <Formula>
C19H13N3O3S3

> <Click_ID>
CLK030_B08 __ __ 

$$$$
