CLK042E06
 OpenBabel03181419432D

 24 26  0  0  0  0  0  0  0  0999 V2000
   -1.0458   -0.0833    0.0000 C   0  0  0  0  0  0  0  0  0  0  0  0
   -0.3292   -0.4958    0.0000 N   0  0  0  0  0  0  0  0  0  0  0  0
   -1.0458    0.7417    0.0000 C   0  0  0  0  0  0  0  0  0  0  0  0
   -1.7583    1.1542    0.0000 C   0  0  0  0  0  0  0  0  0  0  0  0
    1.8125   -1.7333    0.0000 C   0  0  0  0  0  0  0  0  0  0  0  0
    3.9583   -1.3208    0.0000 C   0  0  0  0  0  0  0  0  0  0  0  0
    4.6708   -0.9083    0.0000 C   0  0  0  0  0  0  0  0  0  0  0  0
   -1.7583   -0.4958    0.0000 O   0  0  0  0  0  0  0  0  0  0  0  0
    0.3833   -0.0833    0.0000 C   0  0  0  0  0  0  0  0  0  0  0  0
   -0.3292   -1.3208    0.0000 C   0  0  0  0  0  0  0  0  0  0  0  0
    1.1000   -1.3208    0.0000 C   0  0  0  0  0  0  0  0  0  0  0  0
    1.8125   -2.5583    0.0000 O   0  0  0  0  0  0  0  0  0  0  0  0
    1.1000   -0.4958    0.0000 C   0  0  0  0  0  0  0  0  0  0  0  0
    0.3833   -1.7333    0.0000 C   0  0  0  0  0  0  0  0  0  0  0  0
    2.5292   -1.3208    0.0000 N   0  0  0  0  0  0  0  0  0  0  0  0
   -1.7583    1.9792    0.0000 C   0  0  0  0  0  0  0  0  0  0  0  0
   -0.3292    1.1542    0.0000 C   0  0  0  0  0  0  0  0  0  0  0  0
    3.2417   -1.7333    0.0000 C   0  0  0  0  0  0  0  0  0  0  0  0
   -2.4750    0.7417    0.0000 C   0  0  0  0  0  0  0  0  0  0  0  0
   -0.3292    1.9792    0.0000 C   0  0  0  0  0  0  0  0  0  0  0  0
   -1.0458    2.3917    0.0000 C   0  0  0  0  0  0  0  0  0  0  0  0
   -2.4750    2.3917    0.0000 C   0  0  0  0  0  0  0  0  0  0  0  0
   -3.1875    1.1542    0.0000 C   0  0  0  0  0  0  0  0  0  0  0  0
   -3.1875    1.9792    0.0000 C   0  0  0  0  0  0  0  0  0  0  0  0
  2  1  1  0  0  0  0
  3  1  1  0  0  0  0
  4  3  2  0  0  0  0
  5 11  1  0  0  0  0
  6 18  1  0  0  0  0
  7  6  3  0  0  0  0
  8  1  2  0  0  0  0
  9  2  1  0  0  0  0
 10  2  1  0  0  0  0
 11 14  1  0  0  0  0
 12  5  2  0  0  0  0
 13  9  1  0  0  0  0
 13 11  1  0  0  0  0
 14 10  1  0  0  0  0
 15  5  1  0  0  0  0
 16  4  1  0  0  0  0
 17  3  1  0  0  0  0
 18 15  1  0  0  0  0
 19  4  1  0  0  0  0
 20 17  2  0  0  0  0
 21 16  2  0  0  0  0
 21 20  1  0  0  0  0
 22 16  1  0  0  0  0
 23 19  2  0  0  0  0
 23 24  1  0  0  0  0
 24 22  2  0  0  0  0
M  END
> <CdId>
3205

> <Mol Weight>
320.385

> <Formula>
C20H20N2O2

> <Click_ID>
CLK042E06 __ __ 

$$$$
