CLK048A10
 OpenBabel03181419432D

 15 15  0  0  0  0  0  0  0  0999 V2000
   -1.9542    2.4500    0.0000 C   0  0  0  0  0  0  0  0  0  0  0  0
   -2.6708    2.8625    0.0000 C   0  0  0  0  0  0  0  0  0  0  0  0
   -0.5250    0.8000    0.0000 C   0  0  0  0  0  0  0  0  0  0  0  0
    0.1875    1.2125    0.0000 O   0  0  0  0  0  0  0  0  0  0  0  0
    0.1875   -0.4375    0.0000 C   0  0  0  0  0  0  0  0  0  0  0  0
   -0.5250   -0.0250    0.0000 C   0  0  0  0  0  0  0  0  0  0  0  0
   -1.2417    1.2125    0.0000 N   0  0  0  0  0  0  0  0  0  0  0  0
    0.1875   -1.2625    0.0000 C   0  0  0  0  0  0  0  0  0  0  0  0
    0.9042   -1.6750    0.0000 C   0  0  0  0  0  0  0  0  0  0  0  0
   -1.2417    2.0375    0.0000 C   0  0  0  0  0  0  0  0  0  0  0  0
    0.9042   -2.5000    0.0000 O   0  0  0  0  0  0  0  0  0  0  0  0
    1.6167   -0.4375    0.0000 C   0  0  0  0  0  0  0  0  0  0  0  0
    0.9042   -0.0250    0.0000 C   0  0  0  0  0  0  0  0  0  0  0  0
    1.6167   -1.2625    0.0000 C   0  0  0  0  0  0  0  0  0  0  0  0
    1.6167   -2.9125    0.0000 C   0  0  0  0  0  0  0  0  0  0  0  0
  2  1  3  0  0  0  0
  3  7  1  0  0  0  0
  4  3  2  0  0  0  0
  5  6  1  0  0  0  0
  6  3  1  0  0  0  0
  7 10  1  0  0  0  0
  8  5  1  0  0  0  0
  9  8  2  0  0  0  0
 10  1  1  0  0  0  0
 11  9  1  0  0  0  0
 12 13  1  0  0  0  0
 12 14  2  0  0  0  0
 13  5  2  0  0  0  0
 14  9  1  0  0  0  0
 15 11  1  0  0  0  0
M  END
> <CdId>
3713

> <Mol Weight>
203.2371

> <Formula>
C12H13NO2

> <Click_ID>
CLK048A10 __ __ 

$$$$
