CLK011_B05
 OpenBabel03181419432D

 22 23  0  0  0  0  0  0  0  0999 V2000
    2.6949    0.4485    0.0000 N    0  0  0  0  0  0  0  0  0  0  0  0
    2.4333   -0.3363    0.0000 C    0  0  0  0  0  0  0  0  0  0  0  0
    1.3620    0.4485    0.0000 C    0  0  0  0  0  0  0  0  0  0  0  0
    2.0305    0.9301    0.0000 C    0  0  0  0  0  0  0  0  0  0  0  0
    1.6194   -0.3363    0.0000 S    0  0  0  0  0  0  0  0  0  0  0  0
    0.5855    0.7059    0.0000 C    0  0  0  0  0  0  0  0  0  0  0  0
   -0.0332    0.1495    0.0000 C    0  0  0  0  0  0  0  0  0  0  0  0
   -1.4201   -0.1412    0.0000 C    0  0  0  0  0  0  0  0  0  0  0  0
   -0.8097    0.4069    0.0000 C    0  0  0  0  0  0  0  0  0  0  0  0
   -1.2582   -0.9509    0.0000 C    0  0  0  0  0  0  0  0  0  0  0  0
    0.1412   -0.6602    0.0000 C    0  0  0  0  0  0  0  0  0  0  0  0
   -3.2845   -1.7731    0.0000 C    0  0  0  0  0  0  0  0  0  0  0  0
   -0.4734   -1.2125    0.0000 C    0  0  0  0  0  0  0  0  0  0  0  0
   -3.8991   -2.3295    0.0000 C    0  0  0  0  0  0  0  0  0  0  0  0
    2.9192   -1.0008    0.0000 O    0  0  0  0  0  0  0  0  0  0  0  0
    2.0222    1.7523    0.0000 O    0  0  0  0  0  0  0  0  0  0  0  0
    3.4797    0.7059    0.0000 C    0  0  0  0  0  0  0  0  0  0  0  0
   -0.9799    1.2083    0.0000 Br   0  0  0  0  0  0  0  0  0  0  0  0
   -1.8768   -1.4949    0.0000 O    0  0  0  0  0  0  0  0  0  0  0  0
   -0.3197   -2.0098    0.0000 O    0  0  0  0  0  0  0  0  0  0  0  0
   -2.6617   -1.2333    0.0000 C    0  0  0  0  0  0  0  0  0  0  0  0
    0.4609   -2.2589    0.0000 C    0  0  0  0  0  0  0  0  0  0  0  0
  2  1  1  0  0  0  0
  3  4  1  0  0  0  0
  4  1  1  0  0  0  0
  5  2  1  0  0  0  0
  5  3  1  0  0  0  0
  6  3  2  0  0  0  0
  7  6  1  0  0  0  0
  8  9  2  0  0  0  0
  8 10  1  0  0  0  0
  9  7  1  0  0  0  0
 10 13  2  0  0  0  0
 11  7  2  0  0  0  0
 12 21  1  0  0  0  0
 13 11  1  0  0  0  0
 14 12  3  0  0  0  0
 15  2  2  0  0  0  0
 16  4  2  0  0  0  0
 17  1  1  0  0  0  0
 18  9  1  0  0  0  0
 19 10  1  0  0  0  0
 20 13  1  0  0  0  0
 21 19  1  0  0  0  0
 22 20  1  0  0  0  0
M  END
> <CdId>
770

> <Mol Weight>
382.229

> <Formula>
C15H12BrNO4S

> <Click_ID>
CLK011_B05 __ __ 

$$$$
