CLK010_C02
 OpenBabel03181419432D

 26 28  0  0  0  0  0  0  0  0999 V2000
    4.5533   -2.2537    0.0000 C    0  0  0  0  0  0  0  0  0  0  0  0
    4.6449   -3.0692    0.0000 C    0  0  0  0  0  0  0  0  0  0  0  0
    5.4466   -3.2478    0.0000 N    0  0  0  0  0  0  0  0  0  0  0  0
    5.3092   -1.9148    0.0000 C    0  0  0  0  0  0  0  0  0  0  0  0
    5.8589   -2.5332    0.0000 C    0  0  0  0  0  0  0  0  0  0  0  0
    3.8387   -1.8415    0.0000 N    0  0  0  0  0  0  0  0  0  0  0  0
    3.1333   -0.6047    0.0000 C    0  0  0  0  0  0  0  0  0  0  0  0
    3.8479   -1.0169    0.0000 N    0  0  0  0  0  0  0  0  0  0  0  0
    5.2954   -4.6633    0.0000 C    0  0  0  0  0  0  0  0  0  0  0  0
    4.8144   -5.3320    0.0000 C    0  0  0  0  0  0  0  0  0  0  0  0
    4.0311   -3.6189    0.0000 O    0  0  0  0  0  0  0  0  0  0  0  0
    2.4095    0.6321    0.0000 O    0  0  0  0  0  0  0  0  0  0  0  0
    5.7855   -3.9990    0.0000 C    0  0  0  0  0  0  0  0  0  0  0  0
    2.4095   -1.0169    0.0000 O    0  0  0  0  0  0  0  0  0  0  0  0
    1.7041    0.2199    0.0000 C    0  0  0  0  0  0  0  0  0  0  0  0
    0.9803    0.6413    0.0000 C    0  0  0  0  0  0  0  0  0  0  0  0
    3.1333    0.2199    0.0000 C    0  0  0  0  0  0  0  0  0  0  0  0
    0.9803    1.4658    0.0000 Cl   0  0  0  0  0  0  0  0  0  0  0  0
    5.5703   -1.1315    0.0000 C    0  0  0  0  0  0  0  0  0  0  0  0
    6.6697   -2.3637    0.0000 C    0  0  0  0  0  0  0  0  0  0  0  0
    1.7041   -0.6093    0.0000 C    0  0  0  0  0  0  0  0  0  0  0  0
    0.2748    0.2199    0.0000 C    0  0  0  0  0  0  0  0  0  0  0  0
    6.3765   -0.9666    0.0000 C    0  0  0  0  0  0  0  0  0  0  0  0
    6.9262   -1.5804    0.0000 C    0  0  0  0  0  0  0  0  0  0  0  0
    0.9803   -1.0216    0.0000 C    0  0  0  0  0  0  0  0  0  0  0  0
    0.2748   -0.6093    0.0000 C    0  0  0  0  0  0  0  0  0  0  0  0
  2  1  1  0  0  0  0
  3  2  1  0  0  0  0
  4  1  1  0  0  0  0
  5  4  2  0  0  0  0
  5  3  1  0  0  0  0
  6  1  2  0  0  0  0
  7  8  1  0  0  0  0
  8  6  1  0  0  0  0
  9 13  1  0  0  0  0
 10  9  3  0  0  0  0
 11  2  2  0  0  0  0
 12 17  1  0  0  0  0
 13  3  1  0  0  0  0
 14  7  2  0  0  0  0
 15 12  1  0  0  0  0
 16 15  1  0  0  0  0
 17  7  1  0  0  0  0
 18 16  1  0  0  0  0
 19  4  1  0  0  0  0
 20  5  1  0  0  0  0
 21 15  2  0  0  0  0
 22 16  2  0  0  0  0
 23 19  2  0  0  0  0
 24 23  1  0  0  0  0
 24 20  2  0  0  0  0
 25 21  1  0  0  0  0
 26 25  2  0  0  0  0
 26 22  1  0  0  0  0
M  END
> <CdId>
697

> <Mol Weight>
367.786

> <Formula>
C19H14ClN3O3

> <Click_ID>
CLK010_C02 __ __ 

$$$$
