CLK028_C10
 OpenBabel03181419432D

 19 19  0  0  0  0  0  0  0  0999 V2000
   -3.9349   -0.5513    0.0000 C   0  0  0  0  0  0  0  0  0  0  0  0
   -4.6551   -0.9855    0.0000 C   0  0  0  0  0  0  0  0  0  0  0  0
    1.0889   -0.2171    0.0000 C   0  0  0  0  0  0  0  0  0  0  0  0
    1.8055   -0.6512    0.0000 N   0  0  0  0  0  0  0  0  0  0  0  0
   -1.7952   -0.1861    0.0000 C   0  0  0  0  0  0  0  0  0  0  0  0
    2.5188   -0.2550    0.0000 C   0  0  0  0  0  0  0  0  0  0  0  0
    1.0889    0.5823    0.0000 O   0  0  0  0  0  0  0  0  0  0  0  0
   -1.7952    0.6547    0.0000 O   0  0  0  0  0  0  0  0  0  0  0  0
    3.2286   -0.6512    0.0000 C   0  0  0  0  0  0  0  0  0  0  0  0
   -2.5084   -0.5892    0.0000 O   0  0  0  0  0  0  0  0  0  0  0  0
    3.9522   -0.2550    0.0000 C   0  0  0  0  0  0  0  0  0  0  0  0
   -3.2183   -0.1482    0.0000 C   0  0  0  0  0  0  0  0  0  0  0  0
    0.3790   -0.6202    0.0000 C   0  0  0  0  0  0  0  0  0  0  0  0
   -1.0751   -0.6202    0.0000 C   0  0  0  0  0  0  0  0  0  0  0  0
   -0.3618   -0.2171    0.0000 C   0  0  0  0  0  0  0  0  0  0  0  0
    3.2286    0.9889    0.0000 C   0  0  0  0  0  0  0  0  0  0  0  0
    2.5188    0.5823    0.0000 C   0  0  0  0  0  0  0  0  0  0  0  0
    3.9522    0.5823    0.0000 C   0  0  0  0  0  0  0  0  0  0  0  0
    4.6517   -0.6788    0.0000 C   0  0  0  0  0  0  0  0  0  0  0  0
  2  1  3  0  0  0  0
  3 13  1  0  0  0  0
  4  3  1  0  0  0  0
  5 10  1  0  0  0  0
  6  4  1  0  0  0  0
  7  3  2  0  0  0  0
  8  5  2  0  0  0  0
  9  6  2  0  0  0  0
 10 12  1  0  0  0  0
 11  9  1  0  0  0  0
 12  1  1  0  0  0  0
 13 15  1  0  0  0  0
 14  5  1  0  0  0  0
 15 14  1  0  0  0  0
 16 17  2  0  0  0  0
 17  6  1  0  0  0  0
 18 16  1  0  0  0  0
 18 11  2  0  0  0  0
 19 11  1  0  0  0  0
M  END
> <CdId>
2114

> <Mol Weight>
259.3004

> <Formula>
C15H17NO3

> <Click_ID>
CLK028_C10 __ __ 

$$$$
