CLK021_G10
 OpenBabel03181419432D

 21 21  0  0  0  0  0  0  0  0999 V2000
    4.6037    2.6110    0.0000 C   0  0  3  0  0  0  0  0  0  0  0  0
    3.8891    2.1988    0.0000 C   0  0  0  0  0  0  0  0  0  0  0  0
    5.3183    2.1988    0.0000 C   0  0  3  0  0  0  0  0  0  0  0  0
    5.3183    3.8479    0.0000 C   0  0  0  0  0  0  0  0  0  0  0  0
    6.0329    3.4356    0.0000 C   0  0  0  0  0  0  0  0  0  0  0  0
    4.6037    3.4356    0.0000 C   0  0  0  0  0  0  0  0  0  0  0  0
    6.0329    2.6110    0.0000 C   0  0  0  0  0  0  0  0  0  0  0  0
    5.3183    1.3742    0.0000 C   0  0  0  0  0  0  0  0  0  0  0  0
    3.1745    2.6110    0.0000 N   0  0  0  0  0  0  0  0  0  0  0  0
    1.8736    2.7851    0.0000 C   0  0  0  0  0  0  0  0  0  0  0  0
    1.2964    3.3669    0.0000 C   0  0  0  0  0  0  0  0  0  0  0  0
    2.4599    2.1988    0.0000 C   0  0  0  0  0  0  0  0  0  0  0  0
    3.8891    1.3742    0.0000 O   0  0  0  0  0  0  0  0  0  0  0  0
    6.0329    0.9620    0.0000 O   0  0  0  0  0  0  0  0  0  0  0  0
    4.6037    0.9620    0.0000 O   0  0  0  0  0  0  0  0  0  0  0  0
    6.7475    3.8479    0.0000 C   0  0  0  0  0  0  0  0  0  0  0  0
    5.3183    4.6633    0.0000 C   0  0  0  0  0  0  0  0  0  0  0  0
    1.8277    1.6720    0.0000 C   0  0  0  0  0  0  0  0  0  0  0  0
    2.9317    1.5254    0.0000 C   0  0  0  0  0  0  0  0  0  0  0  0
    1.0490    1.9514    0.0000 C   0  0  0  0  0  0  0  0  0  0  0  0
    2.5836    0.7787    0.0000 C   0  0  0  0  0  0  0  0  0  0  0  0
  2  1  1  0  0  0  0
  3  1  1  0  0  0  0
  4  6  1  0  0  0  0
  5  4  2  0  0  0  0
  5  7  1  0  0  0  0
  6  1  1  0  0  0  0
  7  3  1  0  0  0  0
  8  3  1  0  0  0  0
  9  2  1  0  0  0  0
 10 12  1  0  0  0  0
 11 10  3  0  0  0  0
 12  9  1  0  0  0  0
 13  2  2  0  0  0  0
 14  8  2  0  0  0  0
 15  8  1  0  0  0  0
 16  5  1  0  0  0  0
 17  4  1  0  0  0  0
 18 12  1  0  0  0  0
 19 12  1  0  0  0  0
 20 18  1  0  0  0  0
 21 19  1  0  0  0  0
M  END
> <CdId>
1625

> <Mol Weight>
291.3853

> <Formula>
C17H25NO3

> <Click_ID>
CLK021_G10 __ __ 

$$$$
