CLK007_C06
 OpenBabel03181419432D

 29 32  0  0  0  0  0  0  0  0999 V2000
   -0.2831   -1.5739    0.0000 C    0  0  0  0  0  0  0  0  0  0  0  0
    0.4314   -1.1563    0.0000 C    0  0  3  0  0  0  0  0  0  0  0  0
   -1.0700   -1.3184    0.0000 C    0  0  0  0  0  0  0  0  0  0  0  0
   -0.2727   -2.3988    0.0000 C    0  0  0  0  0  0  0  0  0  0  0  0
    0.4383   -0.3313    0.0000 C    0  0  0  0  0  0  0  0  0  0  0  0
    1.1459   -1.5739    0.0000 C    0  0  0  0  0  0  0  0  0  0  0  0
   -1.3322   -0.5350    0.0000 C    0  0  0  0  0  0  0  0  0  0  0  0
   -1.5497   -1.9881    0.0000 N    0  0  0  0  0  0  0  0  0  0  0  0
   -1.0562   -2.6577    0.0000 N    0  0  0  0  0  0  0  0  0  0  0  0
    0.4314   -2.8095    0.0000 N    0  0  0  0  0  0  0  0  0  0  0  0
    1.1563    0.0829    0.0000 C    0  0  0  0  0  0  0  0  0  0  0  0
   -0.2727    0.0829    0.0000 C    0  0  0  0  0  0  0  0  0  0  0  0
    1.1459   -2.3988    0.0000 C    0  0  0  0  0  0  0  0  0  0  0  0
   -2.1330   -0.3727    0.0000 C    0  0  0  0  0  0  0  0  0  0  0  0
   -0.7835    0.0760    0.0000 C    0  0  0  0  0  0  0  0  0  0  0  0
    1.1563    0.9042    0.0000 C    0  0  0  0  0  0  0  0  0  0  0  0
   -0.2727    0.9042    0.0000 C    0  0  0  0  0  0  0  0  0  0  0  0
    1.8672   -2.8129    0.0000 O    0  0  0  0  0  0  0  0  0  0  0  0
   -2.3953    0.4073    0.0000 C    0  0  0  0  0  0  0  0  0  0  0  0
   -1.0355    0.8560    0.0000 C    0  0  0  0  0  0  0  0  0  0  0  0
    0.4452    1.3219    0.0000 C    0  0  0  0  0  0  0  0  0  0  0  0
    1.8707    1.3150    0.0000 O    0  0  0  0  0  0  0  0  0  0  0  0
   -1.8465    1.0286    0.0000 C    0  0  0  0  0  0  0  0  0  0  0  0
    0.4452    2.1468    0.0000 O    0  0  0  0  0  0  0  0  0  0  0  0
    2.5852    0.9042    0.0000 C    0  0  0  0  0  0  0  0  0  0  0  0
   -2.2642    1.7464    0.0000 Cl   0  0  0  0  0  0  0  0  0  0  0  0
    1.1563    2.5576    0.0000 C    0  0  0  0  0  0  0  0  0  0  0  0
    1.1528    3.3860    0.0000 C    0  0  0  0  0  0  0  0  0  0  0  0
    1.1459    4.2108    0.0000 C    0  0  0  0  0  0  0  0  0  0  0  0
  1  2  1  0  0  0  0
  1  3  1  0  0  0  0
  1  4  2  0  0  0  0
  2  5  1  0  0  0  0
  2  6  1  0  0  0  0
  3  7  1  0  0  0  0
  3  8  2  0  0  0  0
  4  9  1  0  0  0  0
  4 10  1  0  0  0  0
  5 11  2  0  0  0  0
  5 12  1  0  0  0  0
  6 13  1  0  0  0  0
  7 14  1  0  0  0  0
  7 15  2  0  0  0  0
  8  9  1  0  0  0  0
 10 13  1  0  0  0  0
 11 16  1  0  0  0  0
 12 17  2  0  0  0  0
 13 18  2  0  0  0  0
 14 19  2  0  0  0  0
 15 20  1  0  0  0  0
 16 21  2  0  0  0  0
 16 22  1  0  0  0  0
 17 21  1  0  0  0  0
 19 23  1  0  0  0  0
 20 23  2  0  0  0  0
 21 24  1  0  0  0  0
 22 25  1  0  0  0  0
 23 26  1  0  0  0  0
 24 27  1  0  0  0  0
 27 28  1  0  0  0  0
 28 29  3  0  0  0  0
M  END
> <CdId>
505

> <Mol Weight>
407.85

> <Formula>
C22H18ClN3O3

> <Click_ID>
CLK007_C06 __ __ 

$$$$
