CLK050B07
 OpenBabel03181419432D

 16 16  0  0  0  0  0  0  0  0999 V2000
    1.0708    0.7250    0.0000 C   0  0  0  0  0  0  0  0  0  0  0  0
    3.2125    0.3125    0.0000 C   0  0  0  0  0  0  0  0  0  0  0  0
    3.9292   -0.1000    0.0000 C   0  0  0  0  0  0  0  0  0  0  0  0
   -2.5042   -0.5125    0.0000 N   0  0  0  0  0  0  0  0  0  0  0  0
    0.3542    0.3125    0.0000 N   0  0  0  0  0  0  0  0  0  0  0  0
   -1.7875   -0.9250    0.0000 C   0  0  0  0  0  0  0  0  0  0  0  0
    1.0708    1.5500    0.0000 O   0  0  0  0  0  0  0  0  0  0  0  0
    1.7833    0.3125    0.0000 N   0  0  0  0  0  0  0  0  0  0  0  0
   -1.0750   -0.5125    0.0000 C   0  0  0  0  0  0  0  0  0  0  0  0
   -0.3583    0.7250    0.0000 C   0  0  0  0  0  0  0  0  0  0  0  0
   -1.0750    0.3125    0.0000 C   0  0  0  0  0  0  0  0  0  0  0  0
   -2.5042    0.3125    0.0000 C   0  0  0  0  0  0  0  0  0  0  0  0
    2.5000    0.7250    0.0000 C   0  0  0  0  0  0  0  0  0  0  0  0
   -1.7875   -1.7500    0.0000 O   0  0  0  0  0  0  0  0  0  0  0  0
   -1.7875    0.7250    0.0000 C   0  0  0  0  0  0  0  0  0  0  0  0
   -1.0750   -2.1625    0.0000 C   0  0  0  0  0  0  0  0  0  0  0  0
  2 13  1  0  0  0  0
  3  2  3  0  0  0  0
  4 12  1  0  0  0  0
  4  6  2  0  0  0  0
  5  1  1  0  0  0  0
  6  9  1  0  0  0  0
  7  1  2  0  0  0  0
  8  1  1  0  0  0  0
  9 11  2  0  0  0  0
 10  5  1  0  0  0  0
 11 10  1  0  0  0  0
 12 15  2  0  0  0  0
 13  8  1  0  0  0  0
 14  6  1  0  0  0  0
 15 11  1  0  0  0  0
 16 14  1  0  0  0  0
M  END
> <CdId>
3850

> <Mol Weight>
219.2398

> <Formula>
C11H13N3O2

> <Click_ID>
CLK050B07 __ __ 

$$$$
