CLK024_E05
 OpenBabel03181419432D

 28 31  0  0  0  0  0  0  0  0999 V2000
   -1.4270    0.8459    0.0000 N   0  0  0  0  0  0  0  0  0  0  0  0
   -1.7674    0.1066    0.0000 C   0  0  0  0  0  0  0  0  0  0  0  0
   -0.4332   -0.0378    0.0000 C   0  0  0  0  0  0  0  0  0  0  0  0
   -0.6086    0.7737    0.0000 C   0  0  0  0  0  0  0  0  0  0  0  0
   -1.1485   -0.4504    0.0000 S   0  0  0  0  0  0  0  0  0  0  0  0
    0.3163   -0.3679    0.0000 C   0  0  0  0  0  0  0  0  0  0  0  0
    0.4058   -1.1897    0.0000 C   0  0  0  0  0  0  0  0  0  0  0  0
   -0.2579   -1.6779    0.0000 C   0  0  0  0  0  0  0  0  0  0  0  0
    2.4103    0.2717    0.0000 C   0  0  0  0  0  0  0  0  0  0  0  0
   -1.8430    1.5611    0.0000 C   0  0  0  0  0  0  0  0  0  0  0  0
    3.0740    0.7530    0.0000 C   0  0  0  0  0  0  0  0  0  0  0  0
   -2.5754   -0.0619    0.0000 O   0  0  0  0  0  0  0  0  0  0  0  0
    1.1553   -1.5198    0.0000 C   0  0  0  0  0  0  0  0  0  0  0  0
   -0.0584    1.3857    0.0000 O   0  0  0  0  0  0  0  0  0  0  0  0
   -0.1754   -2.4963    0.0000 C   0  0  0  0  0  0  0  0  0  0  0  0
    1.2447   -2.3554    0.0000 C   0  0  0  0  0  0  0  0  0  0  0  0
    0.5811   -2.8367    0.0000 C   0  0  0  0  0  0  0  0  0  0  0  0
    1.8293   -1.0315    0.0000 O   0  0  0  0  0  0  0  0  0  0  0  0
    1.7433   -0.2166    0.0000 C   0  0  0  0  0  0  0  0  0  0  0  0
   -1.0109   -1.3410    0.0000 C   0  0  0  0  0  0  0  0  0  0  0  0
   -1.4270    2.2762    0.0000 C   0  0  0  0  0  0  0  0  0  0  0  0
   -2.6648    1.5611    0.0000 C   0  0  0  0  0  0  0  0  0  0  0  0
   -0.8459   -2.9846    0.0000 C   0  0  0  0  0  0  0  0  0  0  0  0
   -1.6779   -1.8224    0.0000 C   0  0  0  0  0  0  0  0  0  0  0  0
   -3.0774    2.2762    0.0000 C   0  0  0  0  0  0  0  0  0  0  0  0
   -1.8361    2.9880    0.0000 C   0  0  0  0  0  0  0  0  0  0  0  0
   -1.5989   -2.6476    0.0000 C   0  0  0  0  0  0  0  0  0  0  0  0
   -2.6648    2.9880    0.0000 C   0  0  0  0  0  0  0  0  0  0  0  0
  2  1  1  0  0  0  0
  3  4  1  0  0  0  0
  3  5  1  0  0  0  0
  4  1  1  0  0  0  0
  5  2  1  0  0  0  0
  6  3  2  0  0  0  0
  7  6  1  0  0  0  0
  8  7  2  0  0  0  0
  9 19  1  0  0  0  0
 10  1  1  0  0  0  0
 11  9  3  0  0  0  0
 12  2  2  0  0  0  0
 13  7  1  0  0  0  0
 14  4  2  0  0  0  0
 15  8  1  0  0  0  0
 15 17  2  0  0  0  0
 16 13  2  0  0  0  0
 17 16  1  0  0  0  0
 18 13  1  0  0  0  0
 19 18  1  0  0  0  0
 20  8  1  0  0  0  0
 21 10  2  0  0  0  0
 22 10  1  0  0  0  0
 23 15  1  0  0  0  0
 24 20  2  0  0  0  0
 25 22  2  0  0  0  0
 26 21  1  0  0  0  0
 26 28  2  0  0  0  0
 27 24  1  0  0  0  0
 27 23  2  0  0  0  0
 28 25  1  0  0  0  0
M  END
> <CdId>
1820

> <Mol Weight>
385.435

> <Formula>
C23H15NO3S

> <Click_ID>
CLK024_E05 __ __ 

$$$$
