CLK001_A07
 OpenBabel03181419432D

 19 20  0  0  0  0  0  0  0  0999 V2000
   -1.0843    0.3141    0.0000 C   0  0  0  0  0  0  0  0  0  0  0  0
   -1.0843   -0.5074    0.0000 C   0  0  0  0  0  0  0  0  0  0  0  0
   -0.3654    0.7339    0.0000 C   0  0  0  0  0  0  0  0  0  0  0  0
   -1.8545    0.5769    0.0000 C   0  0  0  0  0  0  0  0  0  0  0  0
   -0.3654   -0.9303    0.0000 N   0  0  0  0  0  0  0  0  0  0  0  0
   -1.8545   -0.7702    0.0000 S   0  0  0  0  0  0  0  0  0  0  0  0
    0.3534    0.3141    0.0000 N   0  0  0  0  0  0  0  0  0  0  0  0
   -0.3654    1.5585    0.0000 O   0  0  0  0  0  0  0  0  0  0  0  0
   -2.3288   -0.0876    0.0000 C   0  0  0  0  0  0  0  0  0  0  0  0
   -2.1959    1.3471    0.0000 C   0  0  0  0  0  0  0  0  0  0  0  0
    0.3534   -0.5074    0.0000 C   0  0  0  0  0  0  0  0  0  0  0  0
    1.0693    0.7339    0.0000 C   0  0  0  0  0  0  0  0  0  0  0  0
   -3.1504   -0.0181    0.0000 C   0  0  0  0  0  0  0  0  0  0  0  0
    1.0693   -0.9303    0.0000 S   0  0  0  0  0  0  0  0  0  0  0  0
    1.7881    0.3141    0.0000 C   0  0  0  0  0  0  0  0  0  0  0  0
    1.7881   -0.5256    0.0000 C   0  0  0  0  0  0  0  0  0  0  0  0
    2.5070    0.7189    0.0000 C   0  0  0  0  0  0  0  0  0  0  0  0
    2.5070   -0.9454    0.0000 C   0  0  0  0  0  0  0  0  0  0  0  0
    3.2078   -1.3683    0.0000 C   0  0  0  0  0  0  0  0  0  0  0  0
  1  2  2  0  0  0  0
  1  3  1  0  0  0  0
  1  4  1  0  0  0  0
  2  5  1  0  0  0  0
  2  6  1  0  0  0  0
  3  7  1  0  0  0  0
  3  8  2  0  0  0  0
  4  9  2  0  0  0  0
  4 10  1  0  0  0  0
  5 11  2  0  0  0  0
  6  9  1  0  0  0  0
  7 12  1  0  0  0  0
  7 11  1  0  0  0  0
  9 13  1  0  0  0  0
 11 14  1  0  0  0  0
 12 15  1  0  0  0  0
 14 16  1  0  0  0  0
 15 17  2  0  0  0  0
 16 18  1  0  0  0  0
 18 19  3  0  0  0  0
M  END
> <CdId>
6

> <Mol Weight>
290.404

> <Formula>
C14H14N2OS2

> <Click_ID>
CLK001_A07 __ __ 

$$$$
