CLK043B08
 OpenBabel03181419432D

 27 29  0  0  0  0  0  0  0  0999 V2000
    1.5946   -1.8826    0.0000 S   0  0  0  0  0  0  0  0  0  0  0  0
   -1.6572    1.8575    0.0000 N   0  0  0  0  0  0  0  0  0  0  0  0
   -1.1729    2.5253    0.0000 C   0  0  0  0  0  0  0  0  0  0  0  0
   -1.1729    1.1896    0.0000 C   0  0  0  0  0  0  0  0  0  0  0  0
   -0.3882    2.2708    0.0000 O   0  0  0  0  0  0  0  0  0  0  0  0
   -1.4276    3.3143    0.0000 C   0  0  0  0  0  0  0  0  0  0  0  0
    0.7847   -2.0537    0.0000 C   0  0  0  0  0  0  0  0  0  0  0  0
   -1.1312   -0.9976    0.0000 C   0  0  0  0  0  0  0  0  0  0  0  0
   -0.3882    1.4443    0.0000 C   0  0  0  0  0  0  0  0  0  0  0  0
   -2.2123    3.5689    0.0000 S   0  0  0  0  0  0  0  0  0  0  0  0
    3.7610   -2.1539    0.0000 C   0  0  0  0  0  0  0  0  0  0  0  0
   -0.5760   -1.6112    0.0000 C   0  0  0  0  0  0  0  0  0  0  0  0
    0.2296   -1.4401    0.0000 C   0  0  0  0  0  0  0  0  0  0  0  0
   -0.8766   -0.2129    0.0000 N   0  0  0  0  0  0  0  0  0  0  0  0
    4.5707   -1.9786    0.0000 C   0  0  0  0  0  0  0  0  0  0  0  0
    1.4193   -1.0727    0.0000 O   0  0  0  0  0  0  0  0  0  0  0  0
    1.7657   -2.6923    0.0000 O   0  0  0  0  0  0  0  0  0  0  0  0
    2.4001   -1.7114    0.0000 N   0  0  0  0  0  0  0  0  0  0  0  0
   -0.9434    3.9822    0.0000 C   0  0  0  0  0  0  0  0  0  0  0  0
   -2.2123    4.3912    0.0000 C   0  0  0  0  0  0  0  0  0  0  0  0
   -1.9368   -1.1688    0.0000 O   0  0  0  0  0  0  0  0  0  0  0  0
   -1.4276    4.6459    0.0000 C   0  0  0  0  0  0  0  0  0  0  0  0
   -1.4276    0.4049    0.0000 C   0  0  0  0  0  0  0  0  0  0  0  0
    2.9553   -2.3250    0.0000 C   0  0  0  0  0  0  0  0  0  0  0  0
    0.5302   -2.8384    0.0000 C   0  0  0  0  0  0  0  0  0  0  0  0
   -0.8348   -2.3960    0.0000 C   0  0  0  0  0  0  0  0  0  0  0  0
   -0.2797   -3.0096    0.0000 C   0  0  0  0  0  0  0  0  0  0  0  0
  2  4  1  0  0  0  0
  3  2  2  0  0  0  0
  3  5  1  0  0  0  0
  4 23  1  0  0  0  0
  5  9  1  0  0  0  0
  6  3  1  0  0  0  0
  7  1  1  0  0  0  0
  8 12  1  0  0  0  0
  9  4  2  0  0  0  0
 10  6  1  0  0  0  0
 11 24  1  0  0  0  0
 12 13  2  0  0  0  0
 13  7  1  0  0  0  0
 14  8  1  0  0  0  0
 15 11  3  0  0  0  0
 16  1  2  0  0  0  0
 17  1  2  0  0  0  0
 18  1  1  0  0  0  0
 19  6  2  0  0  0  0
 20 10  1  0  0  0  0
 20 22  2  0  0  0  0
 21  8  2  0  0  0  0
 22 19  1  0  0  0  0
 23 14  1  0  0  0  0
 24 18  1  0  0  0  0
 25  7  2  0  0  0  0
 26 12  1  0  0  0  0
 27 25  1  0  0  0  0
 27 26  2  0  0  0  0
M  END
> <CdId>
3298

> <Mol Weight>
401.459

> <Formula>
C18H15N3O4S2

> <Click_ID>
CLK043B08 __ __ 

$$$$
