CLK041F07
 OpenBabel03181419432D

 23 24  0  0  0  0  0  0  0  0999 V2000
    1.3333    0.3792    0.0000 C    0  0  0  0  0  0  0  0  0  0  0  0
   -1.5250   -0.4458    0.0000 C    0  0  0  0  0  0  0  0  0  0  0  0
    0.6208    0.7917    0.0000 C    0  0  0  0  0  0  0  0  0  0  0  0
   -1.5250    0.3792    0.0000 C    0  0  0  0  0  0  0  0  0  0  0  0
   -0.8083   -0.8583    0.0000 C    0  0  0  0  0  0  0  0  0  0  0  0
    1.3333   -0.4458    0.0000 C    0  0  0  0  0  0  0  0  0  0  0  0
   -0.0958    0.3792    0.0000 C    0  0  0  0  0  0  0  0  0  0  0  0
    1.3333   -1.2708    0.0000 N    0  0  0  0  0  0  0  0  0  0  0  0
   -3.6667   -0.8583    0.0000 C    0  0  0  0  0  0  0  0  0  0  0  0
   -4.3833   -1.2708    0.0000 C    0  0  0  0  0  0  0  0  0  0  0  0
    2.0500    0.7917    0.0000 C    0  0  0  0  0  0  0  0  0  0  0  0
   -0.8083    0.7917    0.0000 C    0  0  0  0  0  0  0  0  0  0  0  0
   -0.0958   -0.4458    0.0000 C    0  0  0  0  0  0  0  0  0  0  0  0
    2.0500    1.6167    0.0000 N    0  0  0  0  0  0  0  0  0  0  0  0
   -2.2375    0.7917    0.0000 Cl   0  0  0  0  0  0  0  0  0  0  0  0
   -2.2375   -0.8583    0.0000 O    0  0  0  0  0  0  0  0  0  0  0  0
   -0.8083   -1.6833    0.0000 O    0  0  0  0  0  0  0  0  0  0  0  0
   -2.9542   -0.4458    0.0000 C    0  0  0  0  0  0  0  0  0  0  0  0
    2.7625    2.0292    0.0000 C    0  0  0  0  0  0  0  0  0  0  0  0
    2.7625    0.3792    0.0000 C    0  0  0  0  0  0  0  0  0  0  0  0
   -0.0958   -2.0958    0.0000 C    0  0  0  0  0  0  0  0  0  0  0  0
    3.4792    1.6167    0.0000 C    0  0  0  0  0  0  0  0  0  0  0  0
    3.4792    0.7917    0.0000 C    0  0  0  0  0  0  0  0  0  0  0  0
  2  4  1  0  0  0  0
  2  5  2  0  0  0  0
  3  1  2  0  0  0  0
  4 12  2  0  0  0  0
  5 13  1  0  0  0  0
  6  1  1  0  0  0  0
  7  3  1  0  0  0  0
  8  6  3  0  0  0  0
  9 18  1  0  0  0  0
 10  9  3  0  0  0  0
 11  1  1  0  0  0  0
 12  7  1  0  0  0  0
 13  7  2  0  0  0  0
 14 11  2  0  0  0  0
 15  4  1  0  0  0  0
 16  2  1  0  0  0  0
 17  5  1  0  0  0  0
 18 16  1  0  0  0  0
 19 14  1  0  0  0  0
 20 11  1  0  0  0  0
 21 17  1  0  0  0  0
 22 19  2  0  0  0  0
 22 23  1  0  0  0  0
 23 20  2  0  0  0  0
M  END
> <CdId>
3134

> <Mol Weight>
324.761

> <Formula>
C18H13ClN2O2

> <Click_ID>
CLK041F07 __ __ 

$$$$
