CLK040D04
 OpenBabel03181419432D

 16 16  0  0  0  0  0  0  0  0999 V2000
    0.0000   -0.3583    0.0000 C   0  0  0  0  0  0  0  0  0  0  0  0
    1.4250   -2.8333    0.0000 C   0  0  0  0  0  0  0  0  0  0  0  0
    2.1417   -3.2458    0.0000 C   0  0  0  0  0  0  0  0  0  0  0  0
   -0.7167    0.0542    0.0000 N   0  0  0  0  0  0  0  0  0  0  0  0
   -0.7167    0.8792    0.0000 C   0  0  0  0  0  0  0  0  0  0  0  0
    0.7125    0.0542    0.0000 O   0  0  0  0  0  0  0  0  0  0  0  0
   -1.4292    1.2917    0.0000 C   0  0  0  0  0  0  0  0  0  0  0  0
    0.0000   -1.1833    0.0000 C   0  0  0  0  0  0  0  0  0  0  0  0
    0.7125   -1.5958    0.0000 N   0  0  0  0  0  0  0  0  0  0  0  0
   -1.4292    2.1167    0.0000 C   0  0  0  0  0  0  0  0  0  0  0  0
   -2.1458    2.5292    0.0000 F   0  0  0  0  0  0  0  0  0  0  0  0
    0.7125   -2.4208    0.0000 C   0  0  0  0  0  0  0  0  0  0  0  0
    0.0000    2.1167    0.0000 C   0  0  0  0  0  0  0  0  0  0  0  0
    0.0000    1.2917    0.0000 C   0  0  0  0  0  0  0  0  0  0  0  0
   -0.7167    2.5292    0.0000 C   0  0  0  0  0  0  0  0  0  0  0  0
    1.4250   -1.1833    0.0000 C   0  0  0  0  0  0  0  0  0  0  0  0
  2 12  1  0  0  0  0
  3  2  3  0  0  0  0
  4  1  1  0  0  0  0
  5  4  1  0  0  0  0
  6  1  2  0  0  0  0
  7  5  2  0  0  0  0
  8  1  1  0  0  0  0
  9  8  1  0  0  0  0
 10  7  1  0  0  0  0
 11 10  1  0  0  0  0
 12  9  1  0  0  0  0
 13 14  2  0  0  0  0
 14  5  1  0  0  0  0
 15 10  2  0  0  0  0
 15 13  1  0  0  0  0
 16  9  1  0  0  0  0
M  END
> <CdId>
3028

> <Mol Weight>
220.2428

> <Formula>
C12H13FN2O

> <Click_ID>
CLK040D04 __ __ 

$$$$
