CLK021_B06
 OpenBabel03181419432D

 19 18  0  0  0  0  0  0  0  0999 V2000
    9.2944   -7.5906    0.0000 Cl   0  0  0  0  0  0  0  0  0  0  0  0
    5.4597   -7.8642    0.0000 C    0  0  0  0  0  0  0  0  0  0  0  0
    6.6951   -7.1511    0.0000 C    0  0  0  0  0  0  0  0  0  0  0  0
    6.2847   -7.8642    0.0000 C    0  0  0  0  0  0  0  0  0  0  0  0
    5.0493   -7.1511    0.0000 C    0  0  0  0  0  0  0  0  0  0  0  0
    6.2847   -6.4422    0.0000 C    0  0  0  0  0  0  0  0  0  0  0  0
    2.9848   -7.8642    0.0000 C    0  0  0  0  0  0  0  0  0  0  0  0
    5.4597   -6.4422    0.0000 C    0  0  0  0  0  0  0  0  0  0  0  0
    2.1557   -7.8642    0.0000 C    0  0  0  0  0  0  0  0  0  0  0  0
    6.6951   -8.5855    0.0000 Br   0  0  0  0  0  0  0  0  0  0  0  0
    4.2202   -7.1511    0.0000 O    0  0  0  0  0  0  0  0  0  0  0  0
    5.0493   -5.7251    0.0000 O    0  0  0  0  0  0  0  0  0  0  0  0
    7.9388   -6.4422    0.0000 N    0  0  0  0  0  0  0  0  0  0  0  0
    7.5242   -7.1511    0.0000 C    0  0  0  0  0  0  0  0  0  0  0  0
    3.8098   -7.8642    0.0000 C    0  0  0  0  0  0  0  0  0  0  0  0
    9.9991   -5.7251    0.0000 O    0  0  0  0  0  0  0  0  0  0  0  0
    8.7596   -6.4422    0.0000 C    0  0  0  0  0  0  0  0  0  0  0  0
    9.1700   -5.7251    0.0000 C    0  0  0  0  0  0  0  0  0  0  0  0
    5.4597   -5.0120    0.0000 C    0  0  0  0  0  0  0  0  0  0  0  0
  3  4  1  0  0  0  0
  4  2  2  0  0  0  0
  5  2  1  0  0  0  0
  6  8  1  0  0  0  0
  6  3  2  0  0  0  0
  7 15  1  0  0  0  0
  8  5  2  0  0  0  0
  9  7  3  0  0  0  0
 10  4  1  0  0  0  0
 11  5  1  0  0  0  0
 12  8  1  0  0  0  0
 13 14  1  0  0  0  0
 14  3  1  0  0  0  0
 15 11  1  0  0  0  0
 16 18  1  0  0  0  0
 17 13  1  0  0  0  0
 18 17  1  0  0  0  0
 19 12  1  0  0  0  0
M  END
> <CdId>
1571

> <Mol Weight>
350.636

> <Formula>
C13H17BrClNO3

> <Click_ID>
CLK021_B06 __ __ 

$$$$
