CLK044G08
 OpenBabel03181419432D

 16 16  0  0  0  0  0  0  0  0999 V2000
   -2.1000   -0.2833    0.0000 N   0  3  0  0  0  0  0  0  0  0  0  0
   -1.3875    0.1292    0.0000 C   0  0  0  0  0  0  0  0  0  0  0  0
   -0.6708   -0.2833    0.0000 C   0  0  0  0  0  0  0  0  0  0  0  0
    0.0417    0.1292    0.0000 C   0  0  0  0  0  0  0  0  0  0  0  0
    0.7583   -0.2833    0.0000 C   0  0  0  0  0  0  0  0  0  0  0  0
    2.9000    0.1292    0.0000 C   0  0  0  0  0  0  0  0  0  0  0  0
    3.6167    0.5417    0.0000 C   0  0  0  0  0  0  0  0  0  0  0  0
   -2.8167    0.1292    0.0000 O   0  5  0  0  0  0  0  0  0  0  0  0
   -2.1000   -1.1083    0.0000 O   0  0  0  0  0  0  0  0  0  0  0  0
    0.7583   -1.1083    0.0000 O   0  0  0  0  0  0  0  0  0  0  0  0
    1.4708    0.1292    0.0000 N   0  0  0  0  0  0  0  0  0  0  0  0
    2.1875   -0.2833    0.0000 C   0  0  0  0  0  0  0  0  0  0  0  0
   -1.3875    0.9542    0.0000 C   0  0  0  0  0  0  0  0  0  0  0  0
   -0.6708   -1.1083    0.0000 C   0  0  0  0  0  0  0  0  0  0  0  0
    0.0417    0.9542    0.0000 C   0  0  0  0  0  0  0  0  0  0  0  0
   -0.6708    1.3667    0.0000 C   0  0  0  0  0  0  0  0  0  0  0  0
  2  1  1  0  0  0  0
  3  2  2  0  0  0  0
  4  3  1  0  0  0  0
  5  4  1  0  0  0  0
  6 12  1  0  0  0  0
  7  6  3  0  0  0  0
  8  1  1  0  0  0  0
  9  1  2  0  0  0  0
 10  5  2  0  0  0  0
 11  5  1  0  0  0  0
 12 11  1  0  0  0  0
 13  2  1  0  0  0  0
 14  3  1  0  0  0  0
 15  4  2  0  0  0  0
 16 13  2  0  0  0  0
 16 15  1  0  0  0  0
M  END
> <CdId>
3383

> <Mol Weight>
218.2087

> <Formula>
C11H10N2O3

> <Click_ID>
CLK044G08 __ __ 

$$$$
