CLK039D07
 OpenBabel03181419432D

 18 19  0  0  0  0  0  0  0  0999 V2000
    0.3958   -0.9000    0.0000 C   0  0  0  0  0  0  0  0  0  0  0  0
    1.6625   -0.4875    0.0000 N   0  0  0  0  0  0  0  0  0  0  0  0
    0.8792   -0.2333    0.0000 C   0  0  0  0  0  0  0  0  0  0  0  0
    1.6625   -1.3125    0.0000 O   0  0  0  0  0  0  0  0  0  0  0  0
    0.8792   -1.5667    0.0000 C   0  0  0  0  0  0  0  0  0  0  0  0
   -0.4292   -0.9000    0.0000 C   0  0  0  0  0  0  0  0  0  0  0  0
   -2.0792    0.5292    0.0000 C   0  0  0  0  0  0  0  0  0  0  0  0
   -2.4917    1.2417    0.0000 C   0  0  0  0  0  0  0  0  0  0  0  0
    0.6250    0.5500    0.0000 C   0  0  0  0  0  0  0  0  0  0  0  0
   -0.8417   -1.6167    0.0000 O   0  0  0  0  0  0  0  0  0  0  0  0
   -0.8417   -0.1875    0.0000 N   0  0  0  0  0  0  0  0  0  0  0  0
   -1.6667   -0.1875    0.0000 C   0  0  0  0  0  0  0  0  0  0  0  0
    0.6250   -2.3542    0.0000 C   0  0  0  0  0  0  0  0  0  0  0  0
    1.1750    1.1625    0.0000 C   0  0  0  0  0  0  0  0  0  0  0  0
   -0.1833    0.7208    0.0000 C   0  0  0  0  0  0  0  0  0  0  0  0
   -0.4375    1.5083    0.0000 C   0  0  0  0  0  0  0  0  0  0  0  0
    0.9208    1.9500    0.0000 C   0  0  0  0  0  0  0  0  0  0  0  0
    0.1125    2.1208    0.0000 C   0  0  0  0  0  0  0  0  0  0  0  0
  2  3  2  0  0  0  0
  2  4  1  0  0  0  0
  3  1  1  0  0  0  0
  4  5  1  0  0  0  0
  5  1  2  0  0  0  0
  6  1  1  0  0  0  0
  7 12  1  0  0  0  0
  8  7  3  0  0  0  0
  9  3  1  0  0  0  0
 10  6  2  0  0  0  0
 11  6  1  0  0  0  0
 12 11  1  0  0  0  0
 13  5  1  0  0  0  0
 14  9  1  0  0  0  0
 15  9  2  0  0  0  0
 16 15  1  0  0  0  0
 17 14  2  0  0  0  0
 18 16  2  0  0  0  0
 18 17  1  0  0  0  0
M  END
> <CdId>
2972

> <Mol Weight>
240.2573

> <Formula>
C14H12N2O2

> <Click_ID>
CLK039D07 __ __ 

$$$$
