CLK009_C10
 OpenBabel03181419432D

 30 31  0  0  0  0  0  0  0  0999 V2000
    3.4165   -2.7177    0.0000 C   0  0  0  0  0  0  0  0  0  0  0  0
    4.7685   -1.7585    0.0000 C   0  0  0  0  0  0  0  0  0  0  0  0
    4.1656   -3.0694    0.0000 C   0  0  0  0  0  0  0  0  0  0  0  0
    3.3434   -1.8955    0.0000 C   0  0  0  0  0  0  0  0  0  0  0  0
    4.8416   -2.5807    0.0000 C   0  0  0  0  0  0  0  0  0  0  0  0
    4.0194   -1.4251    0.0000 C   0  0  0  0  0  0  0  0  0  0  0  0
    2.7451   -3.1836    0.0000 C   0  0  0  0  0  0  0  0  0  0  0  0
    9.0985   -2.1924    0.0000 C   0  0  0  0  0  0  0  0  0  0  0  0
    8.4270   -2.6629    0.0000 C   0  0  0  0  0  0  0  0  0  0  0  0
    9.0300   -1.3703    0.0000 C   0  0  0  0  0  0  0  0  0  0  0  0
   10.6652   -3.6906    0.0000 C   0  0  0  0  0  0  0  0  0  0  0  0
   11.4051   -4.0331    0.0000 C   0  0  0  0  0  0  0  0  0  0  0  0
    5.4308   -1.2789    0.0000 N   0  0  0  0  0  0  0  0  0  0  0  0
    6.1798   -1.6306    0.0000 N   0  0  0  0  0  0  0  0  0  0  0  0
    7.6780   -2.3066    0.0000 C   0  0  0  0  0  0  0  0  0  0  0  0
    8.2763   -1.0186    0.0000 C   0  0  0  0  0  0  0  0  0  0  0  0
    7.6049   -1.4982    0.0000 C   0  0  0  0  0  0  0  0  0  0  0  0
    4.2387   -3.8778    0.0000 F   0  0  0  0  0  0  0  0  0  0  0  0
    2.5944   -1.5530    0.0000 F   0  0  0  0  0  0  0  0  0  0  0  0
    5.5906   -2.9369    0.0000 F   0  0  0  0  0  0  0  0  0  0  0  0
    3.9326   -0.6029    0.0000 F   0  0  0  0  0  0  0  0  0  0  0  0
    1.9184   -2.9597    0.0000 F   0  0  0  0  0  0  0  0  0  0  0  0
    2.6766   -4.0422    0.0000 F   0  0  0  0  0  0  0  0  0  0  0  0
    2.1239   -3.6221    0.0000 F   0  0  0  0  0  0  0  0  0  0  0  0
    6.8513   -1.1510    0.0000 C   0  0  0  0  0  0  0  0  0  0  0  0
    8.5002   -3.4713    0.0000 I   0  0  0  0  0  0  0  0  0  0  0  0
    9.8430   -2.5259    0.0000 O   0  0  0  0  0  0  0  0  0  0  0  0
    9.7014   -0.8816    0.0000 O   0  0  0  0  0  0  0  0  0  0  0  0
    9.9206   -3.3434    0.0000 C   0  0  0  0  0  0  0  0  0  0  0  0
    9.6238   -0.0731    0.0000 C   0  0  0  0  0  0  0  0  0  0  0  0
  2  6  2  0  0  0  0
  2  5  1  0  0  0  0
  3  1  1  0  0  0  0
  4  1  2  0  0  0  0
  5  3  2  0  0  0  0
  6  4  1  0  0  0  0
  7  1  1  0  0  0  0
  8 10  1  0  0  0  0
  8  9  2  0  0  0  0
  9 15  1  0  0  0  0
 10 16  2  0  0  0  0
 11 29  1  0  0  0  0
 12 11  3  0  0  0  0
 13  2  1  0  0  0  0
 14 13  1  0  0  0  0
 15 17  2  0  0  0  0
 16 17  1  0  0  0  0
 17 25  1  0  0  0  0
 18  3  1  0  0  0  0
 19  4  1  0  0  0  0
 20  5  1  0  0  0  0
 21  6  1  0  0  0  0
 22  7  1  0  0  0  0
 23  7  1  0  0  0  0
 24  7  1  0  0  0  0
 25 14  2  0  0  0  0
 26  9  1  0  0  0  0
 27  8  1  0  0  0  0
 28 10  1  0  0  0  0
 29 27  1  0  0  0  0
 30 28  1  0  0  0  0
M  END
> <CdId>
625

> <Mol Weight>
546.1775

> <Formula>
C18H10F7IN2O2

> <Click_ID>
CLK009_C10 __ __ 

$$$$
