CLK019_F02
 OpenBabel03181419432D

 13 13  0  0  0  0  0  0  0  0999 V2000
   -3.2569    1.2368    0.0000 C    0  0  0  0  0  0  0  0  0  0  0  0
   -3.9715    0.8245    0.0000 C    0  0  0  0  0  0  0  0  0  0  0  0
   -1.1223    0.0091    0.0000 C    0  0  0  0  0  0  0  0  0  0  0  0
   -1.1223    0.8245    0.0000 C    0  0  0  0  0  0  0  0  0  0  0  0
   -0.4077   -0.4031    0.0000 C    0  0  0  0  0  0  0  0  0  0  0  0
   -0.4077    1.2459    0.0000 C    0  0  0  0  0  0  0  0  0  0  0  0
   -1.8277   -0.4031    0.0000 Br   0  0  0  0  0  0  0  0  0  0  0  0
    0.3069    0.0091    0.0000 C    0  0  0  0  0  0  0  0  0  0  0  0
    0.3069    0.8337    0.0000 C    0  0  0  0  0  0  0  0  0  0  0  0
   -1.8369    1.2368    0.0000 O    0  0  0  0  0  0  0  0  0  0  0  0
   -2.5423    0.8245    0.0000 C    0  0  0  0  0  0  0  0  0  0  0  0
    1.7362    0.0091    0.0000 O    0  0  0  0  0  0  0  0  0  0  0  0
    1.0216   -0.4031    0.0000 C    0  0  0  0  0  0  0  0  0  0  0  0
  2  1  3  0  0  0  0
  3  4  2  0  0  0  0
  4 10  1  0  0  0  0
  5  3  1  0  0  0  0
  6  4  1  0  0  0  0
  7  3  1  0  0  0  0
  8  9  1  0  0  0  0
  8  5  2  0  0  0  0
  9  6  2  0  0  0  0
 10 11  1  0  0  0  0
 11  1  1  0  0  0  0
 12 13  1  0  0  0  0
 13  8  1  0  0  0  0
M  END
> <CdId>
1447

> <Mol Weight>
241.081

> <Formula>
C10H9BrO2

> <Click_ID>
CLK019_F02 __ __ 

$$$$
