CLK012_H05
 OpenBabel03181419432D

 29 31  0  0  0  0  0  0  0  0999 V2000
    1.5599   -0.8132    0.0000 N   0  0  0  0  0  0  0  0  0  0  0  0
    1.8171   -1.5972    0.0000 C   0  0  0  0  0  0  0  0  0  0  0  0
    2.2278   -0.3278    0.0000 C   0  0  0  0  0  0  0  0  0  0  0  0
    2.8916   -0.8132    0.0000 C   0  0  0  0  0  0  0  0  0  0  0  0
    2.6385   -1.5972    0.0000 S   0  0  0  0  0  0  0  0  0  0  0  0
    3.6757   -0.5601    0.0000 C   0  0  0  0  0  0  0  0  0  0  0  0
    0.6098    0.2447    0.0000 C   0  0  0  0  0  0  0  0  0  0  0  0
    0.3900    1.0413    0.0000 C   0  0  0  0  0  0  0  0  0  0  0  0
    5.3144    3.7337    0.0000 C   0  0  0  0  0  0  0  0  0  0  0  0
    1.3317   -2.2569    0.0000 O   0  0  0  0  0  0  0  0  0  0  0  0
    2.2195    0.4937    0.0000 O   0  0  0  0  0  0  0  0  0  0  0  0
    6.0985    3.9827    0.0000 N   0  0  0  0  0  0  0  0  0  0  0  0
    0.7841   -0.5601    0.0000 C   0  0  0  0  0  0  0  0  0  0  0  0
    4.7045    4.2731    0.0000 O   0  0  0  0  0  0  0  0  0  0  0  0
    3.8458    0.2447    0.0000 C   0  0  0  0  0  0  0  0  0  0  0  0
    4.3602    2.6717    0.0000 O   0  0  0  0  0  0  0  0  0  0  0  0
    6.2644    4.7834    0.0000 C   0  0  0  0  0  0  0  0  0  0  0  0
    5.1401    2.9248    0.0000 C   0  0  0  0  0  0  0  0  0  0  0  0
    4.1860    1.8627    0.0000 C   0  0  0  0  0  0  0  0  0  0  0  0
    6.6129    6.4013    0.0000 C   0  0  0  0  0  0  0  0  0  0  0  0
    6.7830    7.2103    0.0000 F   0  0  0  0  0  0  0  0  0  0  0  0
    3.2277    0.8048    0.0000 C   0  0  0  0  0  0  0  0  0  0  0  0
    4.6340    0.5061    0.0000 C   0  0  0  0  0  0  0  0  0  0  0  0
    7.0610    5.0406    0.0000 C   0  0  0  0  0  0  0  0  0  0  0  0
    5.6504    5.3310    0.0000 C   0  0  0  0  0  0  0  0  0  0  0  0
    3.4019    1.6138    0.0000 C   0  0  0  0  0  0  0  0  0  0  0  0
    4.8041    1.3068    0.0000 C   0  0  0  0  0  0  0  0  0  0  0  0
    7.2228    5.8495    0.0000 C   0  0  0  0  0  0  0  0  0  0  0  0
    5.8246    6.1400    0.0000 C   0  0  0  0  0  0  0  0  0  0  0  0
  2  1  1  0  0  0  0
  3  1  1  0  0  0  0
  4  3  1  0  0  0  0
  4  5  1  0  0  0  0
  5  2  1  0  0  0  0
  6  4  2  0  0  0  0
  7 13  1  0  0  0  0
  8  7  3  0  0  0  0
  9 18  1  0  0  0  0
 10  2  2  0  0  0  0
 11  3  2  0  0  0  0
 12  9  1  0  0  0  0
 13  1  1  0  0  0  0
 14  9  2  0  0  0  0
 15  6  1  0  0  0  0
 16 19  1  0  0  0  0
 17 12  1  0  0  0  0
 18 16  1  0  0  0  0
 19 27  1  0  0  0  0
 19 26  2  0  0  0  0
 20 29  2  0  0  0  0
 21 20  1  0  0  0  0
 22 15  2  0  0  0  0
 23 15  1  0  0  0  0
 24 17  1  0  0  0  0
 25 17  2  0  0  0  0
 26 22  1  0  0  0  0
 27 23  2  0  0  0  0
 28 24  2  0  0  0  0
 28 20  1  0  0  0  0
 29 25  1  0  0  0  0
M  END
> <CdId>
910

> <Mol Weight>
410.418

> <Formula>
C21H15FN2O4S

> <Click_ID>
CLK012_H05 __ __ 

$$$$
