CLK035_G08
 OpenBabel03181419432D

 19 21  0  0  0  0  0  0  0  0999 V2000
   -4.4044    1.8692    0.0000 N   0  0  0  0  0  0  0  0  0  0  0  0
   -3.6191    2.1172    0.0000 C   0  0  0  0  0  0  0  0  0  0  0  0
   -4.8867    2.5214    0.0000 N   0  0  0  0  0  0  0  0  0  0  0  0
   -3.6191    2.9439    0.0000 C   0  0  0  0  0  0  0  0  0  0  0  0
   -4.4044    3.1966    0.0000 C   0  0  0  0  0  0  0  0  0  0  0  0
   -2.9072    3.3573    0.0000 C   0  0  0  0  0  0  0  0  0  0  0  0
   -2.9072    1.7039    0.0000 N   0  0  0  0  0  0  0  0  0  0  0  0
   -2.1908    2.9439    0.0000 N   0  0  0  0  0  0  0  0  0  0  0  0
   -2.1999    5.4195    0.0000 C   0  0  0  0  0  0  0  0  0  0  0  0
   -2.1999    6.2462    0.0000 C   0  0  0  0  0  0  0  0  0  0  0  0
   -2.1908    2.1172    0.0000 C   0  0  0  0  0  0  0  0  0  0  0  0
   -4.5836    1.0563    0.0000 C   0  0  0  0  0  0  0  0  0  0  0  0
   -2.9072    4.1840    0.0000 S   0  0  0  0  0  0  0  0  0  0  0  0
   -2.1999    4.5928    0.0000 C   0  0  0  0  0  0  0  0  0  0  0  0
   -5.3689    0.8083    0.0000 C   0  0  0  0  0  0  0  0  0  0  0  0
   -3.9773    0.5052    0.0000 C   0  0  0  0  0  0  0  0  0  0  0  0
   -4.1473   -0.2940    0.0000 C   0  0  0  0  0  0  0  0  0  0  0  0
   -5.5480    0.0091    0.0000 C   0  0  0  0  0  0  0  0  0  0  0  0
   -4.9418   -0.5558    0.0000 C   0  0  0  0  0  0  0  0  0  0  0  0
  2  1  1  0  0  0  0
  3  1  1  0  0  0  0
  4  2  2  0  0  0  0
  5  3  2  0  0  0  0
  5  4  1  0  0  0  0
  6  4  1  0  0  0  0
  7  2  1  0  0  0  0
  8 11  1  0  0  0  0
  8  6  2  0  0  0  0
  9 14  1  0  0  0  0
 10  9  3  0  0  0  0
 11  7  2  0  0  0  0
 12  1  1  0  0  0  0
 13  6  1  0  0  0  0
 14 13  1  0  0  0  0
 15 12  1  0  0  0  0
 16 12  2  0  0  0  0
 17 16  1  0  0  0  0
 18 15  2  0  0  0  0
 18 19  1  0  0  0  0
 19 17  2  0  0  0  0
M  END
> <CdId>
2712

> <Mol Weight>
266.321

> <Formula>
C14H10N4S

> <Click_ID>
CLK035_G08 __ __ 

$$$$
