CLK027_E07
 OpenBabel03181419432D

 26 28  0  0  0  0  0  0  0  0999 V2000
    1.9317    0.9693    0.0000 N    0  0  0  0  0  0  0  0  0  0  0  0
    2.6809    0.6358    0.0000 C    0  0  0  0  0  0  0  0  0  0  0  0
    2.0210    1.7907    0.0000 C    0  0  0  0  0  0  0  0  0  0  0  0
    3.2309    1.2477    0.0000 N    0  0  0  0  0  0  0  0  0  0  0  0
    2.8185    1.9660    0.0000 N    0  0  0  0  0  0  0  0  0  0  0  0
    1.2167    0.5568    0.0000 N    0  0  0  0  0  0  0  0  0  0  0  0
   -1.6601   -0.2749    0.0000 C    0  0  0  0  0  0  0  0  0  0  0  0
   -1.6533    0.5706    0.0000 C    0  0  0  0  0  0  0  0  0  0  0  0
   -0.9383   -0.6771    0.0000 C    0  0  0  0  0  0  0  0  0  0  0  0
   -3.0866   -1.9248    0.0000 C    0  0  0  0  0  0  0  0  0  0  0  0
   -3.8083   -2.3372    0.0000 C    0  0  0  0  0  0  0  0  0  0  0  0
    0.5053    0.9693    0.0000 C    0  0  0  0  0  0  0  0  0  0  0  0
    2.8562   -0.1615    0.0000 C    0  0  0  0  0  0  0  0  0  0  0  0
   -0.2165    0.5568    0.0000 C    0  0  0  0  0  0  0  0  0  0  0  0
   -0.2165   -0.2681    0.0000 C    0  0  0  0  0  0  0  0  0  0  0  0
   -0.9383    0.9796    0.0000 C    0  0  0  0  0  0  0  0  0  0  0  0
    1.4092    2.3407    0.0000 S    0  0  0  0  0  0  0  0  0  0  0  0
   -2.3648    0.9796    0.0000 Cl   0  0  0  0  0  0  0  0  0  0  0  0
   -0.9418   -1.5020    0.0000 Cl   0  0  0  0  0  0  0  0  0  0  0  0
   -2.3716   -0.6874    0.0000 O    0  0  0  0  0  0  0  0  0  0  0  0
   -2.3751   -1.5089    0.0000 C    0  0  0  0  0  0  0  0  0  0  0  0
    2.2444   -0.7149    0.0000 C    0  0  0  0  0  0  0  0  0  0  0  0
    3.6364   -0.4159    0.0000 C    0  0  0  0  0  0  0  0  0  0  0  0
    2.4163   -1.5158    0.0000 C    0  0  0  0  0  0  0  0  0  0  0  0
    3.8049   -1.2236    0.0000 C    0  0  0  0  0  0  0  0  0  0  0  0
    3.1930   -1.7770    0.0000 C    0  0  0  0  0  0  0  0  0  0  0  0
  2  1  1  0  0  0  0
  3  1  1  0  0  0  0
  4  2  2  0  0  0  0
  5  3  2  0  0  0  0
  5  4  1  0  0  0  0
  6  1  1  0  0  0  0
  7  8  2  0  0  0  0
  7  9  1  0  0  0  0
  8 16  1  0  0  0  0
  9 15  2  0  0  0  0
 10 21  1  0  0  0  0
 11 10  3  0  0  0  0
 12  6  2  0  0  0  0
 13  2  1  0  0  0  0
 14 12  1  0  0  0  0
 15 14  1  0  0  0  0
 16 14  2  0  0  0  0
 17  3  1  0  0  0  0
 18  8  1  0  0  0  0
 19  9  1  0  0  0  0
 20  7  1  0  0  0  0
 21 20  1  0  0  0  0
 22 13  2  0  0  0  0
 23 13  1  0  0  0  0
 24 22  1  0  0  0  0
 25 23  2  0  0  0  0
 26 25  1  0  0  0  0
 26 24  2  0  0  0  0
M  END
> <CdId>
2058

> <Mol Weight>
403.285

> <Formula>
C18H12Cl2N4OS

> <Click_ID>
CLK027_E07 __ __ 

$$$$
