CLK022_B06
 OpenBabel03181419432D

 20 21  0  0  0  0  0  0  0  0999 V2000
    4.3221    1.6775    0.0000 C   0  0  0  0  0  0  0  0  0  0  0  0
    8.8596    2.3925    0.0000 C   0  0  0  0  0  0  0  0  0  0  0  0
    9.6846    2.3925    0.0000 C   0  0  0  0  0  0  0  0  0  0  0  0
    3.9096    2.3925    0.0000 N   0  0  0  0  0  0  0  0  0  0  0  0
    5.1471    1.6775    0.0000 C   0  0  0  0  0  0  0  0  0  0  0  0
    3.9096    0.9625    0.0000 O   0  0  0  0  0  0  0  0  0  0  0  0
    2.6721    4.5284    0.0000 N   0  0  0  0  0  0  0  0  0  0  0  0
    5.5596    0.9625    0.0000 C   0  0  0  0  0  0  0  0  0  0  0  0
    5.5596    2.3925    0.0000 C   0  0  0  0  0  0  0  0  0  0  0  0
    2.6721    3.1166    0.0000 C   0  0  0  0  0  0  0  0  0  0  0  0
    3.0846    2.3925    0.0000 C   0  0  0  0  0  0  0  0  0  0  0  0
    6.7971    1.6775    0.0000 C   0  0  0  0  0  0  0  0  0  0  0  0
    6.3846    0.9625    0.0000 C   0  0  0  0  0  0  0  0  0  0  0  0
    6.3846    2.3925    0.0000 C   0  0  0  0  0  0  0  0  0  0  0  0
    3.0846    3.8316    0.0000 C   0  0  0  0  0  0  0  0  0  0  0  0
    8.0346    2.3925    0.0000 C   0  0  0  0  0  0  0  0  0  0  0  0
    7.6221    1.6775    0.0000 O   0  0  0  0  0  0  0  0  0  0  0  0
    1.8471    4.5284    0.0000 C   0  0  0  0  0  0  0  0  0  0  0  0
    1.8471    3.1166    0.0000 C   0  0  0  0  0  0  0  0  0  0  0  0
    1.4346    3.8316    0.0000 C   0  0  0  0  0  0  0  0  0  0  0  0
  2 16  1  0  0  0  0
  3  2  3  0  0  0  0
  4  1  1  0  0  0  0
  5  1  1  0  0  0  0
  6  1  2  0  0  0  0
  7 15  2  0  0  0  0
  8  5  1  0  0  0  0
  9  5  2  0  0  0  0
 10 11  1  0  0  0  0
 11  4  1  0  0  0  0
 12 14  2  0  0  0  0
 13  8  2  0  0  0  0
 13 12  1  0  0  0  0
 14  9  1  0  0  0  0
 15 10  1  0  0  0  0
 16 17  1  0  0  0  0
 17 12  1  0  0  0  0
 18 20  2  0  0  0  0
 18  7  1  0  0  0  0
 19 10  2  0  0  0  0
 20 19  1  0  0  0  0
M  END
> <CdId>
1649

> <Mol Weight>
266.2946

> <Formula>
C16H14N2O2

> <Click_ID>
CLK022_B06 __ __ 

$$$$
