CLK027_G09
 OpenBabel03181419432D

 21 22  0  0  0  0  0  0  0  0999 V2000
    1.4989   -0.2206    0.0000 N    0  0  0  0  0  0  0  0  0  0  0  0
    1.1509    0.5204    0.0000 C    0  0  0  0  0  0  0  0  0  0  0  0
    0.1723   -0.3860    0.0000 C    0  0  0  0  0  0  0  0  0  0  0  0
    0.8959   -0.7822    0.0000 C    0  0  0  0  0  0  0  0  0  0  0  0
    0.3343    0.4273    0.0000 S    0  0  0  0  0  0  0  0  0  0  0  0
   -0.5272   -0.8098    0.0000 C    0  0  0  0  0  0  0  0  0  0  0  0
   -1.2543   -0.3997    0.0000 C    0  0  0  0  0  0  0  0  0  0  0  0
   -1.9573   -0.8270    0.0000 C    0  0  0  0  0  0  0  0  0  0  0  0
   -2.6843   -0.4204    0.0000 C    0  0  0  0  0  0  0  0  0  0  0  0
    2.8532    0.2516    0.0000 C    0  0  0  0  0  0  0  0  0  0  0  0
   -2.6946    0.4032    0.0000 C    0  0  0  0  0  0  0  0  0  0  0  0
    3.3942    0.8822    0.0000 C    0  0  0  0  0  0  0  0  0  0  0  0
    1.5644    1.2440    0.0000 O    0  0  0  0  0  0  0  0  0  0  0  0
   -1.2543    0.4204    0.0000 C    0  0  0  0  0  0  0  0  0  0  0  0
    1.0027   -1.6092    0.0000 O    0  0  0  0  0  0  0  0  0  0  0  0
   -1.9745    0.8305    0.0000 C    0  0  0  0  0  0  0  0  0  0  0  0
    2.3121   -0.3618    0.0000 C    0  0  0  0  0  0  0  0  0  0  0  0
   -1.9469   -1.6540    0.0000 O    0  0  0  0  0  0  0  0  0  0  0  0
   -3.3976   -0.8477    0.0000 O    0  0  0  0  0  0  0  0  0  0  0  0
   -1.9745    1.6678    0.0000 Cl   0  0  0  0  0  0  0  0  0  0  0  0
   -3.3838   -1.6643    0.0000 C    0  0  0  0  0  0  0  0  0  0  0  0
  2  1  1  0  0  0  0
  3  4  1  0  0  0  0
  4  1  1  0  0  0  0
  5  2  1  0  0  0  0
  5  3  1  0  0  0  0
  6  3  2  0  0  0  0
  7  6  1  0  0  0  0
  8  7  1  0  0  0  0
  9  8  2  0  0  0  0
 10 17  1  0  0  0  0
 11 16  2  0  0  0  0
 11  9  1  0  0  0  0
 12 10  3  0  0  0  0
 13  2  2  0  0  0  0
 14  7  2  0  0  0  0
 15  4  2  0  0  0  0
 16 14  1  0  0  0  0
 17  1  1  0  0  0  0
 18  8  1  0  0  0  0
 19  9  1  0  0  0  0
 20 16  1  0  0  0  0
 21 19  1  0  0  0  0
M  END
> <CdId>
2077

> <Mol Weight>
323.751

> <Formula>
C14H10ClNO4S

> <Click_ID>
CLK027_G09 __ __ 

$$$$
