CLK032_F05
 OpenBabel03181419432D

 26 28  0  0  0  0  0  0  0  0999 V2000
   -1.1626    2.3835    0.0000 C   0  0  0  0  0  0  0  0  0  0  0  0
   -0.3375    2.3752    0.0000 N   0  0  0  0  0  0  0  0  0  0  0  0
   -1.6460    1.7210    0.0000 N   0  0  0  0  0  0  0  0  0  0  0  0
   -1.6460    3.0503    0.0000 S   0  0  0  0  0  0  0  0  0  0  0  0
    0.0750    3.0878    0.0000 C   0  0  0  0  0  0  0  0  0  0  0  0
   -2.4335    2.7961    0.0000 C   0  0  0  0  0  0  0  0  0  0  0  0
   -2.4335    1.9710    0.0000 C   0  0  0  0  0  0  0  0  0  0  0  0
    0.9001    3.0878    0.0000 C   0  0  0  0  0  0  0  0  0  0  0  0
   -3.1461    3.2086    0.0000 C   0  0  0  0  0  0  0  0  0  0  0  0
   -1.9460    0.3208    0.0000 C   0  0  0  0  0  0  0  0  0  0  0  0
   -2.4960   -0.2917    0.0000 C   0  0  0  0  0  0  0  0  0  0  0  0
   -3.1461    1.5584    0.0000 C   0  0  0  0  0  0  0  0  0  0  0  0
   -5.2880    2.8003    0.0000 C   0  0  0  0  0  0  0  0  0  0  0  0
   -4.5837    3.2128    0.0000 N   0  0  0  0  0  0  0  0  0  0  0  0
    1.3168    2.3710    0.0000 C   0  0  0  0  0  0  0  0  0  0  0  0
   -3.8587    2.7961    0.0000 C   0  0  0  0  0  0  0  0  0  0  0  0
   -0.3375    3.8004    0.0000 O   0  0  0  0  0  0  0  0  0  0  0  0
   -1.3959    0.9334    0.0000 C   0  0  0  0  0  0  0  0  0  0  0  0
   -5.9994    3.2128    0.0000 O   0  0  0  0  0  0  0  0  0  0  0  0
   -3.8587    1.9710    0.0000 C   0  0  0  0  0  0  0  0  0  0  0  0
    0.9043    1.6460    0.0000 I   0  0  0  0  0  0  0  0  0  0  0  0
    1.3168    3.8004    0.0000 C   0  0  0  0  0  0  0  0  0  0  0  0
   -5.2963    1.9752    0.0000 C   0  0  0  0  0  0  0  0  0  0  0  0
    2.1294    2.3585    0.0000 C   0  0  0  0  0  0  0  0  0  0  0  0
    2.1419    3.8004    0.0000 C   0  0  0  0  0  0  0  0  0  0  0  0
    2.5502    3.0836    0.0000 C   0  0  0  0  0  0  0  0  0  0  0  0
  2  1  2  0  0  0  0
  3  1  1  0  0  0  0
  4  1  1  0  0  0  0
  5  2  1  0  0  0  0
  6  4  1  0  0  0  0
  6  7  2  0  0  0  0
  7  3  1  0  0  0  0
  8  5  1  0  0  0  0
  9  6  1  0  0  0  0
 10 18  1  0  0  0  0
 11 10  3  0  0  0  0
 12  7  1  0  0  0  0
 13 14  1  0  0  0  0
 14 16  1  0  0  0  0
 15  8  1  0  0  0  0
 16  9  2  0  0  0  0
 16 20  1  0  0  0  0
 17  5  2  0  0  0  0
 18  3  1  0  0  0  0
 19 13  2  0  0  0  0
 20 12  2  0  0  0  0
 21 15  1  0  0  0  0
 22  8  2  0  0  0  0
 23 13  1  0  0  0  0
 24 15  2  0  0  0  0
 25 22  1  0  0  0  0
 26 25  2  0  0  0  0
 26 24  1  0  0  0  0
M  END
> <CdId>
2459

> <Mol Weight>
475.303

> <Formula>
C19H14IN3O2S

> <Click_ID>
CLK032_F05 __ __ 

$$$$
