CLK049H07
 OpenBabel03181419432D

 21 22  0  0  0  0  0  0  0  0999 V2000
    1.2583   -3.2000    0.0000 N   0  3  0  0  0  0  0  0  0  0  0  0
   -0.1708    0.1000    0.0000 C   0  0  0  0  0  0  0  0  0  0  0  0
    1.2583   -2.3750    0.0000 C   0  0  0  0  0  0  0  0  0  0  0  0
   -2.3167    2.9875    0.0000 C   0  0  0  0  0  0  0  0  0  0  0  0
   -0.1708   -0.7250    0.0000 N   0  0  0  0  0  0  0  0  0  0  0  0
   -0.8875    0.5125    0.0000 N   0  0  0  0  0  0  0  0  0  0  0  0
   -3.0292    3.4000    0.0000 C   0  0  0  0  0  0  0  0  0  0  0  0
    0.5417   -1.9625    0.0000 C   0  0  0  0  0  0  0  0  0  0  0  0
    0.5417   -3.6125    0.0000 O   0  5  0  0  0  0  0  0  0  0  0  0
    1.9708   -3.6125    0.0000 O   0  0  0  0  0  0  0  0  0  0  0  0
    0.5417   -1.1375    0.0000 C   0  0  0  0  0  0  0  0  0  0  0  0
    0.5417    0.5125    0.0000 O   0  0  0  0  0  0  0  0  0  0  0  0
   -0.8875    1.3375    0.0000 C   0  0  0  0  0  0  0  0  0  0  0  0
   -1.6000    2.5750    0.0000 C   0  0  0  0  0  0  0  0  0  0  0  0
   -1.6000    1.7500    0.0000 C   0  0  0  0  0  0  0  0  0  0  0  0
    1.9708   -1.9625    0.0000 C   0  0  0  0  0  0  0  0  0  0  0  0
    1.9708   -1.1375    0.0000 C   0  0  0  0  0  0  0  0  0  0  0  0
   -0.1708    2.5750    0.0000 C   0  0  0  0  0  0  0  0  0  0  0  0
    1.2583   -0.7250    0.0000 C   0  0  0  0  0  0  0  0  0  0  0  0
   -0.1708    1.7500    0.0000 C   0  0  0  0  0  0  0  0  0  0  0  0
   -0.8875    2.9875    0.0000 C   0  0  0  0  0  0  0  0  0  0  0  0
  2  5  1  0  0  0  0
  3  1  1  0  0  0  0
  4 14  1  0  0  0  0
  5 11  1  0  0  0  0
  6  2  1  0  0  0  0
  7  4  3  0  0  0  0
  8  3  2  0  0  0  0
  9  1  1  0  0  0  0
 10  1  2  0  0  0  0
 11  8  1  0  0  0  0
 12  2  2  0  0  0  0
 13  6  1  0  0  0  0
 14 15  1  0  0  0  0
 15 13  2  0  0  0  0
 16  3  1  0  0  0  0
 17 16  2  0  0  0  0
 18 20  2  0  0  0  0
 19 11  2  0  0  0  0
 19 17  1  0  0  0  0
 20 13  1  0  0  0  0
 21 14  2  0  0  0  0
 21 18  1  0  0  0  0
M  END
> <CdId>
3776

> <Mol Weight>
281.2661

> <Formula>
C15H11N3O3

> <Click_ID>
CLK049H07 __ __ 

$$$$
