CLK025_C06
 OpenBabel03181419432D

 29 32  0  0  0  0  0  0  0  0999 V2000
    1.4161   -0.0788    0.0000 C    0  0  0  0  0  0  0  0  0  0  0  0
    1.5086   -0.8915    0.0000 C    0  0  0  0  0  0  0  0  0  0  0  0
    2.1704    0.2606    0.0000 C    0  0  0  0  0  0  0  0  0  0  0  0
    2.3076   -1.0630    0.0000 N    0  0  0  0  0  0  0  0  0  0  0  0
    2.7156   -0.3532    0.0000 C    0  0  0  0  0  0  0  0  0  0  0  0
   -1.4230   -0.0788    0.0000 C    0  0  0  0  0  0  0  0  0  0  0  0
    0.7029    0.3326    0.0000 N    0  0  0  0  0  0  0  0  0  0  0  0
   -0.7132    0.3326    0.0000 C    0  0  0  0  0  0  0  0  0  0  0  0
   -2.1464    0.3429    0.0000 C    0  0  0  0  0  0  0  0  0  0  0  0
   -1.4230   -0.9052    0.0000 C    0  0  0  0  0  0  0  0  0  0  0  0
    0.0000   -0.0788    0.0000 N    0  0  0  0  0  0  0  0  0  0  0  0
    3.4562   -1.8995    0.0000 C    0  0  0  0  0  0  0  0  0  0  0  0
    3.5248   -0.1783    0.0000 C    0  0  0  0  0  0  0  0  0  0  0  0
   -2.1464   -1.3167    0.0000 C    0  0  0  0  0  0  0  0  0  0  0  0
    4.2791   -1.9853    0.0000 C    0  0  0  0  0  0  0  0  0  0  0  0
    2.4241    1.0389    0.0000 C    0  0  0  0  0  0  0  0  0  0  0  0
    0.8949   -1.4401    0.0000 O    0  0  0  0  0  0  0  0  0  0  0  0
   -2.8562   -0.0788    0.0000 C    0  0  0  0  0  0  0  0  0  0  0  0
   -2.8562   -0.9052    0.0000 C    0  0  0  0  0  0  0  0  0  0  0  0
   -0.7132    1.1555    0.0000 O    0  0  0  0  0  0  0  0  0  0  0  0
    2.6436   -1.8069    0.0000 C    0  0  0  0  0  0  0  0  0  0  0  0
    3.2231    1.2103    0.0000 C    0  0  0  0  0  0  0  0  0  0  0  0
   -0.7132   -1.3167    0.0000 O    0  0  0  0  0  0  0  0  0  0  0  0
    3.7819    0.6034    0.0000 C    0  0  0  0  0  0  0  0  0  0  0  0
    3.4836    1.9887    0.0000 Br   0  0  0  0  0  0  0  0  0  0  0  0
   -3.5728    0.3429    0.0000 C    0  0  0  0  0  0  0  0  0  0  0  0
   -3.5728   -1.3167    0.0000 C    0  0  0  0  0  0  0  0  0  0  0  0
   -4.2826   -0.9052    0.0000 C    0  0  0  0  0  0  0  0  0  0  0  0
   -4.2826   -0.0788    0.0000 C    0  0  0  0  0  0  0  0  0  0  0  0
  2  1  1  0  0  0  0
  3  1  1  0  0  0  0
  4  2  1  0  0  0  0
  4  5  1  0  0  0  0
  5  3  2  0  0  0  0
  6  8  1  0  0  0  0
  7  1  2  0  0  0  0
  8 11  1  0  0  0  0
  9  6  1  0  0  0  0
 10  6  2  0  0  0  0
 11  7  1  0  0  0  0
 12 21  1  0  0  0  0
 13  5  1  0  0  0  0
 13 24  2  0  0  0  0
 14 10  1  0  0  0  0
 15 12  3  0  0  0  0
 16  3  1  0  0  0  0
 17  2  2  0  0  0  0
 18  9  2  0  0  0  0
 18 19  1  0  0  0  0
 19 14  2  0  0  0  0
 20  8  2  0  0  0  0
 21  4  1  0  0  0  0
 22 16  2  0  0  0  0
 23 10  1  0  0  0  0
 24 22  1  0  0  0  0
 25 22  1  0  0  0  0
 26 18  1  0  0  0  0
 27 19  1  0  0  0  0
 28 27  2  0  0  0  0
 29 26  2  0  0  0  0
 29 28  1  0  0  0  0
M  END
> <CdId>
1881

> <Mol Weight>
448.269

> <Formula>
C22H14BrN3O3

> <Click_ID>
CLK025_C06 __ __ 

$$$$
