CLK001_D11
 OpenBabel03181419432D

 27 28  0  0  0  0  0  0  0  0999 V2000
   -0.0207    0.3488    0.0000 N   0  0  0  0  0  0  0  0  0  0  0  0
   -0.7356    0.7494    0.0000 C   0  0  0  0  0  0  0  0  0  0  0  0
   -0.0241   -0.4869    0.0000 S   0  0  0  0  0  0  0  0  0  0  0  0
    0.6941    0.7528    0.0000 C   0  0  0  0  0  0  0  0  0  0  0  0
   -0.7356    1.5747    0.0000 C   0  0  0  0  0  0  0  0  0  0  0  0
   -1.4469    0.3384    0.0000 C   0  0  0  0  0  0  0  0  0  0  0  0
   -0.7356   -0.8910    0.0000 C   0  0  0  0  0  0  0  0  0  0  0  0
    0.3799   -1.2018    0.0000 O   0  0  0  0  0  0  0  0  0  0  0  0
    0.8012   -0.4869    0.0000 O   0  0  0  0  0  0  0  0  0  0  0  0
    1.4055    0.3350    0.0000 C   0  0  0  0  0  0  0  0  0  0  0  0
   -1.4469    1.9926    0.0000 C   0  0  0  0  0  0  0  0  0  0  0  0
   -2.1549    0.7494    0.0000 C   0  0  0  0  0  0  0  0  0  0  0  0
   -0.7390   -1.7128    0.0000 C   0  0  0  0  0  0  0  0  0  0  0  0
   -1.4469   -0.4731    0.0000 C   0  0  0  0  0  0  0  0  0  0  0  0
    2.1307    0.7494    0.0000 N   0  0  0  0  0  0  0  0  0  0  0  0
    1.4021   -0.5007    0.0000 O   0  0  0  0  0  0  0  0  0  0  0  0
   -2.1549    1.5747    0.0000 C   0  0  0  0  0  0  0  0  0  0  0  0
   -1.4607   -2.1203    0.0000 C   0  0  0  0  0  0  0  0  0  0  0  0
   -2.1618   -0.8806    0.0000 C   0  0  0  0  0  0  0  0  0  0  0  0
    2.8456    0.3212    0.0000 C   0  0  0  0  0  0  0  0  0  0  0  0
   -2.8766    1.9857    0.0000 C   0  0  0  0  0  0  0  0  0  0  0  0
   -2.1756   -1.7025    0.0000 C   0  0  0  0  0  0  0  0  0  0  0  0
    3.5673    0.7287    0.0000 C   0  0  0  0  0  0  0  0  0  0  0  0
    3.2600   -0.3903    0.0000 C   0  0  0  0  0  0  0  0  0  0  0  0
    2.4312   -0.3903    0.0000 C   0  0  0  0  0  0  0  0  0  0  0  0
   -2.8870   -2.1065    0.0000 F   0  0  0  0  0  0  0  0  0  0  0  0
    4.2822    1.1500    0.0000 C   0  0  0  0  0  0  0  0  0  0  0  0
  1  2  1  0  0  0  0
  1  3  1  0  0  0  0
  1  4  1  0  0  0  0
  2  5  1  0  0  0  0
  2  6  2  0  0  0  0
  3  7  1  0  0  0  0
  3  8  2  0  0  0  0
  3  9  2  0  0  0  0
  4 10  1  0  0  0  0
  5 11  2  0  0  0  0
  6 12  1  0  0  0  0
  7 13  1  0  0  0  0
  7 14  2  0  0  0  0
 10 15  1  0  0  0  0
 10 16  2  0  0  0  0
 11 17  1  0  0  0  0
 12 17  2  0  0  0  0
 13 18  2  0  0  0  0
 14 19  1  0  0  0  0
 15 20  1  0  0  0  0
 17 21  1  0  0  0  0
 18 22  1  0  0  0  0
 19 22  2  0  0  0  0
 20 23  1  0  0  0  0
 20 24  1  0  0  0  0
 20 25  1  0  0  0  0
 22 26  1  0  0  0  0
 23 27  3  0  0  0  0
M  END
> <CdId>
40

> <Mol Weight>
388.456

> <Formula>
C20H21FN2O3S

> <Click_ID>
CLK001_D11 __ __ 

$$$$
