CLK020_A04
 OpenBabel03181419432D

 28 30  0  0  0  0  0  0  0  0999 V2000
    2.4109    4.1709    0.0000 C    0  0  0  0  0  0  0  0  0  0  0  0
    2.4109    3.3459    0.0000 N    0  0  0  0  0  0  0  0  0  0  0  0
    3.8409    4.1709    0.0000 C    0  0  0  0  0  0  0  0  0  0  0  0
    4.5559    4.5696    0.0000 C    0  0  0  0  0  0  0  0  0  0  0  0
    3.1259    4.5696    0.0000 C    0  0  0  0  0  0  0  0  0  0  0  0
    1.6959    4.5696    0.0000 C    0  0  0  0  0  0  0  0  0  0  0  0
    3.1259    2.9287    0.0000 C    0  0  0  0  0  0  0  0  0  0  0  0
    3.8409    3.3459    0.0000 C    0  0  0  0  0  0  0  0  0  0  0  0
    5.2662    4.1709    0.0000 N    0  0  0  0  0  0  0  0  0  0  0  0
    6.5634    3.9966    0.0000 C    0  0  0  0  0  0  0  0  0  0  0  0
    3.1259    5.3946    0.0000 C    0  0  0  0  0  0  0  0  0  0  0  0
    7.1500    3.4146    0.0000 C    0  0  0  0  0  0  0  0  0  0  0  0
    1.6959    5.3946    0.0000 C    0  0  0  0  0  0  0  0  0  0  0  0
    5.9812    4.5696    0.0000 C    0  0  0  0  0  0  0  0  0  0  0  0
    4.5559    5.3946    0.0000 O    0  0  0  0  0  0  0  0  0  0  0  0
    2.4109    5.8071    0.0000 C    0  0  0  0  0  0  0  0  0  0  0  0
    3.1259    2.1037    0.0000 C    0  0  0  0  0  0  0  0  0  0  0  0
    3.1259    0.4537    0.0000 N    0  0  0  0  0  0  0  0  0  0  0  0
    0.9809    5.8071    0.0000 Cl   0  0  0  0  0  0  0  0  0  0  0  0
    0.9809    4.1709    0.0000 C    0  0  0  0  0  0  0  0  0  0  0  0
    3.8409    0.8662    0.0000 C    0  0  0  0  0  0  0  0  0  0  0  0
    2.4109    0.8662    0.0000 C    0  0  0  0  0  0  0  0  0  0  0  0
    6.6137    5.1013    0.0000 C    0  0  0  0  0  0  0  0  0  0  0  0
    5.5046    5.2434    0.0000 C    0  0  0  0  0  0  0  0  0  0  0  0
    3.8409    1.6912    0.0000 C    0  0  0  0  0  0  0  0  0  0  0  0
    2.4109    1.6912    0.0000 C    0  0  0  0  0  0  0  0  0  0  0  0
    7.3884    4.8171    0.0000 C    0  0  0  0  0  0  0  0  0  0  0  0
    5.8575    5.9950    0.0000 C    0  0  0  0  0  0  0  0  0  0  0  0
  2  1  2  0  0  0  0
  3  5  2  0  0  0  0
  4  3  1  0  0  0  0
  5  1  1  0  0  0  0
  6  1  1  0  0  0  0
  7  2  1  0  0  0  0
  8  3  1  0  0  0  0
  8  7  2  0  0  0  0
  9  4  1  0  0  0  0
 10 14  1  0  0  0  0
 11  5  1  0  0  0  0
 11 16  2  0  0  0  0
 12 10  3  0  0  0  0
 13  6  2  0  0  0  0
 14  9  1  0  0  0  0
 15  4  2  0  0  0  0
 16 13  1  0  0  0  0
 17  7  1  0  0  0  0
 18 22  2  0  0  0  0
 18 21  1  0  0  0  0
 19 13  1  0  0  0  0
 20  6  1  0  0  0  0
 21 25  2  0  0  0  0
 22 26  1  0  0  0  0
 23 14  1  0  0  0  0
 24 14  1  0  0  0  0
 25 17  1  0  0  0  0
 26 17  2  0  0  0  0
 27 23  1  0  0  0  0
 28 24  1  0  0  0  0
M  END
> <CdId>
1479

> <Mol Weight>
391.893

> <Formula>
C23H22ClN3O

> <Click_ID>
CLK020_A04 __ __ 

$$$$
