CLK051B02
 OpenBabel03181419432D

 17 18  0  0  0  0  0  0  0  0999 V2000
   -0.3882    1.9491    0.0000 N   0  0  0  0  0  0  0  0  0  0  0  0
   -0.3882    0.6135    0.0000 C   0  0  0  0  0  0  0  0  0  0  0  0
    0.0960    1.2814    0.0000 C   0  0  0  0  0  0  0  0  0  0  0  0
   -1.1770    0.8682    0.0000 C   0  0  0  0  0  0  0  0  0  0  0  0
    2.8005   -2.2621    0.0000 C   0  0  0  0  0  0  0  0  0  0  0  0
    3.6103   -2.4333    0.0000 C   0  0  0  0  0  0  0  0  0  0  0  0
   -1.1770    1.6946    0.0000 C   0  0  0  0  0  0  0  0  0  0  0  0
    0.9308   -1.1311    0.0000 C   0  0  0  0  0  0  0  0  0  0  0  0
   -0.1335   -0.1753    0.0000 C   0  0  0  0  0  0  0  0  0  0  0  0
    0.3756   -1.7446    0.0000 O   0  0  0  0  0  0  0  0  0  0  0  0
    1.7362   -1.3022    0.0000 N   0  0  0  0  0  0  0  0  0  0  0  0
    0.6761   -0.3464    0.0000 C   0  0  0  0  0  0  0  0  0  0  0  0
    1.9951   -2.0910    0.0000 C   0  0  0  0  0  0  0  0  0  0  0  0
   -1.8907    0.4550    0.0000 C   0  0  0  0  0  0  0  0  0  0  0  0
   -1.8907    2.1078    0.0000 C   0  0  0  0  0  0  0  0  0  0  0  0
   -2.6044    0.8682    0.0000 C   0  0  0  0  0  0  0  0  0  0  0  0
   -2.6044    1.6946    0.0000 C   0  0  0  0  0  0  0  0  0  0  0  0
  2  3  2  0  0  0  0
  3  1  1  0  0  0  0
  4  7  2  0  0  0  0
  4  2  1  0  0  0  0
  5 13  1  0  0  0  0
  6  5  3  0  0  0  0
  7  1  1  0  0  0  0
  8 12  1  0  0  0  0
  9  2  1  0  0  0  0
 10  8  2  0  0  0  0
 11  8  1  0  0  0  0
 12  9  1  0  0  0  0
 13 11  1  0  0  0  0
 14  4  1  0  0  0  0
 15  7  1  0  0  0  0
 16 14  2  0  0  0  0
 16 17  1  0  0  0  0
 17 15  2  0  0  0  0
M  END
> <CdId>
3890

> <Mol Weight>
226.2738

> <Formula>
C14H14N2O

> <Click_ID>
CLK051B02 __ __ 

$$$$
