CLK027_C02
 OpenBabel03181419432D

 25 27  0  0  0  0  0  0  0  0999 V2000
   -0.8461   -1.0869    0.0000 C    0  0  0  0  0  0  0  0  0  0  0  0
   -0.8358   -0.2648    0.0000 C    0  0  0  0  0  0  0  0  0  0  0  0
   -0.0584   -1.3483    0.0000 N    0  0  0  0  0  0  0  0  0  0  0  0
   -1.5546   -1.5065    0.0000 N    0  0  0  0  0  0  0  0  0  0  0  0
   -0.0481   -0.0138    0.0000 N    0  0  0  0  0  0  0  0  0  0  0  0
   -2.2632   -0.2648    0.0000 N    0  0  0  0  0  0  0  0  0  0  0  0
   -2.2632   -1.0938    0.0000 C    0  0  0  0  0  0  0  0  0  0  0  0
   -1.5546    0.1479    0.0000 C    0  0  0  0  0  0  0  0  0  0  0  0
    0.4334   -0.6845    0.0000 C    0  0  0  0  0  0  0  0  0  0  0  0
    0.2029    0.7704    0.0000 C    0  0  0  0  0  0  0  0  0  0  0  0
    1.0112    0.9355    0.0000 C    0  0  0  0  0  0  0  0  0  0  0  0
    2.4902   -1.3861    0.0000 C    0  0  0  0  0  0  0  0  0  0  0  0
   -2.9786   -1.5100    0.0000 O    0  0  0  0  0  0  0  0  0  0  0  0
   -1.5546    0.9803    0.0000 O    0  0  0  0  0  0  0  0  0  0  0  0
    2.9752   -2.0465    0.0000 C    0  0  0  0  0  0  0  0  0  0  0  0
    1.2726    1.7163    0.0000 C    0  0  0  0  0  0  0  0  0  0  0  0
    1.2554   -0.6742    0.0000 O    0  0  0  0  0  0  0  0  0  0  0  0
   -1.5478   -2.3285    0.0000 C    0  0  0  0  0  0  0  0  0  0  0  0
   -2.9752    0.1479    0.0000 C    0  0  0  0  0  0  0  0  0  0  0  0
    0.7258    2.3320    0.0000 Cl   0  0  0  0  0  0  0  0  0  0  0  0
    1.6681   -1.3930    0.0000 C    0  0  0  0  0  0  0  0  0  0  0  0
    1.5684    0.3130    0.0000 C    0  0  0  0  0  0  0  0  0  0  0  0
    2.0843    1.8918    0.0000 C    0  0  0  0  0  0  0  0  0  0  0  0
    2.3767    0.4884    0.0000 C    0  0  0  0  0  0  0  0  0  0  0  0
    2.6312    1.2726    0.0000 C    0  0  0  0  0  0  0  0  0  0  0  0
  2  1  2  0  0  0  0
  3  1  1  0  0  0  0
  4  1  1  0  0  0  0
  5  2  1  0  0  0  0
  5  9  1  0  0  0  0
  6  7  1  0  0  0  0
  6  8  1  0  0  0  0
  7  4  1  0  0  0  0
  8  2  1  0  0  0  0
  9  3  2  0  0  0  0
 10  5  1  0  0  0  0
 11 10  1  0  0  0  0
 12 21  1  0  0  0  0
 13  7  2  0  0  0  0
 14  8  2  0  0  0  0
 15 12  3  0  0  0  0
 16 11  1  0  0  0  0
 17  9  1  0  0  0  0
 18  4  1  0  0  0  0
 19  6  1  0  0  0  0
 20 16  1  0  0  0  0
 21 17  1  0  0  0  0
 22 11  2  0  0  0  0
 23 16  2  0  0  0  0
 24 22  1  0  0  0  0
 25 24  2  0  0  0  0
 25 23  1  0  0  0  0
M  END
> <CdId>
2035

> <Mol Weight>
358.779

> <Formula>
C17H15ClN4O3

> <Click_ID>
CLK027_C02 __ __ 

$$$$
