CLK048E07
 OpenBabel03181419432D

 18 19  0  0  0  0  0  0  0  0999 V2000
   -0.9542   -0.2750    0.0000 N   0  0  0  0  0  0  0  0  0  0  0  0
   -0.2417   -0.6875    0.0000 C   0  0  0  0  0  0  0  0  0  0  0  0
   -0.2417   -1.5125    0.0000 C   0  0  0  0  0  0  0  0  0  0  0  0
    0.4750    3.0250    0.0000 C   0  0  0  0  0  0  0  0  0  0  0  0
   -0.9542    0.5500    0.0000 C   0  0  0  0  0  0  0  0  0  0  0  0
    0.4750    3.8542    0.0000 C   0  0  0  0  0  0  0  0  0  0  0  0
   -0.2417    0.9625    0.0000 C   0  0  0  0  0  0  0  0  0  0  0  0
    0.4750   -0.2750    0.0000 C   0  0  0  0  0  0  0  0  0  0  0  0
    0.4750   -1.9250    0.0000 C   0  0  0  0  0  0  0  0  0  0  0  0
    0.4750    0.5500    0.0000 O   0  0  0  0  0  0  0  0  0  0  0  0
   -0.2417    1.7875    0.0000 N   0  0  0  0  0  0  0  0  0  0  0  0
   -1.6708   -0.6875    0.0000 C   0  0  0  0  0  0  0  0  0  0  0  0
    1.1875   -0.6875    0.0000 C   0  0  0  0  0  0  0  0  0  0  0  0
    1.1875   -1.5125    0.0000 C   0  0  0  0  0  0  0  0  0  0  0  0
    0.4750    2.2042    0.0000 C   0  0  0  0  0  0  0  0  0  0  0  0
   -0.9542   -1.9250    0.0000 C   0  0  0  0  0  0  0  0  0  0  0  0
   -1.6708   -1.5125    0.0000 C   0  0  0  0  0  0  0  0  0  0  0  0
    1.9042   -1.9250    0.0000 C   0  0  0  0  0  0  0  0  0  0  0  0
  2  1  1  0  0  0  0
  3  2  2  0  0  0  0
  3 16  1  0  0  0  0
  4 15  1  0  0  0  0
  5  1  1  0  0  0  0
  6  4  3  0  0  0  0
  7  5  1  0  0  0  0
  8  2  1  0  0  0  0
  9  3  1  0  0  0  0
 10  7  2  0  0  0  0
 11  7  1  0  0  0  0
 12  1  1  0  0  0  0
 13  8  2  0  0  0  0
 13 14  1  0  0  0  0
 14  9  2  0  0  0  0
 15 11  1  0  0  0  0
 16 17  1  0  0  0  0
 17 12  1  0  0  0  0
 18 14  1  0  0  0  0
M  END
> <CdId>
3693

> <Mol Weight>
242.3162

> <Formula>
C15H18N2O

> <Click_ID>
CLK048E07 __ __ 

$$$$
