CLK024_B07
 OpenBabel03181419432D

 20 21  0  0  0  0  0  0  0  0999 V2000
   -1.4569   -0.8748    0.0000 N    0  0  0  0  0  0  0  0  0  0  0  0
   -1.1820   -1.6533    0.0000 C    0  0  0  0  0  0  0  0  0  0  0  0
   -0.1250   -0.8499    0.0000 C    0  0  0  0  0  0  0  0  0  0  0  0
   -0.8106   -0.3749    0.0000 C    0  0  0  0  0  0  0  0  0  0  0  0
   -0.3571   -1.6354    0.0000 S    0  0  0  0  0  0  0  0  0  0  0  0
    1.1855   -0.1178    0.0000 C    0  0  0  0  0  0  0  0  0  0  0  0
    1.1784    0.7106    0.0000 C    0  0  0  0  0  0  0  0  0  0  0  0
    0.4678    1.1248    0.0000 C    0  0  0  0  0  0  0  0  0  0  0  0
    0.4678    1.9461    0.0000 C    0  0  0  0  0  0  0  0  0  0  0  0
   -2.3853    0.3357    0.0000 C    0  0  0  0  0  0  0  0  0  0  0  0
    1.1784    2.3675    0.0000 C    0  0  0  0  0  0  0  0  0  0  0  0
   -2.6068    1.1355    0.0000 C    0  0  0  0  0  0  0  0  0  0  0  0
   -1.5998   -2.3639    0.0000 O    0  0  0  0  0  0  0  0  0  0  0  0
    1.8854    1.1319    0.0000 C    0  0  0  0  0  0  0  0  0  0  0  0
   -0.8213    0.4499    0.0000 O    0  0  0  0  0  0  0  0  0  0  0  0
    1.8890    1.9568    0.0000 C    0  0  0  0  0  0  0  0  0  0  0  0
   -2.1675   -0.4606    0.0000 C    0  0  0  0  0  0  0  0  0  0  0  0
   -0.2500    2.3675    0.0000 Br   0  0  0  0  0  0  0  0  0  0  0  0
   -0.2500    0.7213    0.0000 O    0  0  0  0  0  0  0  0  0  0  0  0
    2.6032    2.3675    0.0000 Cl   0  0  0  0  0  0  0  0  0  0  0  0
  2  1  1  0  0  0  0
  3  4  1  0  0  0  0
  4  1  1  0  0  0  0
  5  2  1  0  0  0  0
  5  3  1  0  0  0  0
  6  3  2  0  0  0  0
  7  6  1  0  0  0  0
  8  7  2  0  0  0  0
  9  8  1  0  0  0  0
 10 17  1  0  0  0  0
 11 16  1  0  0  0  0
 11  9  2  0  0  0  0
 12 10  3  0  0  0  0
 13  2  2  0  0  0  0
 14  7  1  0  0  0  0
 15  4  2  0  0  0  0
 16 14  2  0  0  0  0
 17  1  1  0  0  0  0
 18  9  1  0  0  0  0
 19  8  1  0  0  0  0
 20 16  1  0  0  0  0
M  END
> <CdId>
1792

> <Mol Weight>
372.622

> <Formula>
C13H7BrClNO3S

> <Click_ID>
CLK024_B07 __ __ 

$$$$
