CLK028_C11
 OpenBabel03181419432D

 23 24  0  0  0  0  0  0  0  0999 V2000
   -2.2222   -1.1815    0.0000 C    0  0  0  0  0  0  0  0  0  0  0  0
    2.0437   -0.7213    0.0000 C    0  0  0  0  0  0  0  0  0  0  0  0
   -1.5525   -0.6938    0.0000 C    0  0  0  0  0  0  0  0  0  0  0  0
   -0.7969   -1.0304    0.0000 C    0  0  0  0  0  0  0  0  0  0  0  0
    3.2149    1.8822    0.0000 C    0  0  0  0  0  0  0  0  0  0  0  0
    3.1290    2.7032    0.0000 C    0  0  0  0  0  0  0  0  0  0  0  0
    0.6217   -0.8759    0.0000 N    0  0  0  0  0  0  0  0  0  0  0  0
   -2.4352   -0.3847    0.0000 S    0  0  0  0  0  0  0  0  0  0  0  0
   -2.9058   -1.6281    0.0000 S    0  0  0  0  0  0  0  0  0  0  0  0
    2.7135   -0.2438    0.0000 C    0  0  0  0  0  0  0  0  0  0  0  0
    2.1330   -1.5422    0.0000 C    0  0  0  0  0  0  0  0  0  0  0  0
   -0.1340   -0.5461    0.0000 N    0  0  0  0  0  0  0  0  0  0  0  0
    1.2880   -0.3847    0.0000 C    0  0  0  0  0  0  0  0  0  0  0  0
   -0.7041   -1.8479    0.0000 O    0  0  0  0  0  0  0  0  0  0  0  0
    3.4622   -0.5805    0.0000 C    0  0  0  0  0  0  0  0  0  0  0  0
    2.8886   -1.8788    0.0000 C    0  0  0  0  0  0  0  0  0  0  0  0
    3.5515   -1.3911    0.0000 C    0  0  0  0  0  0  0  0  0  0  0  0
    2.9779   -2.6997    0.0000 Br   0  0  0  0  0  0  0  0  0  0  0  0
    2.6310    0.5770    0.0000 O    0  0  0  0  0  0  0  0  0  0  0  0
    3.2973    1.0579    0.0000 C    0  0  0  0  0  0  0  0  0  0  0  0
   -1.9852   -1.9716    0.0000 C    0  0  0  0  0  0  0  0  0  0  0  0
   -3.5549   -1.1129    0.0000 C    0  0  0  0  0  0  0  0  0  0  0  0
   -3.2561   -0.3469    0.0000 C    0  0  0  0  0  0  0  0  0  0  0  0
  2 13  1  0  0  0  0
  3  1  1  0  0  0  0
  4  3  1  0  0  0  0
  5 20  1  0  0  0  0
  6  5  3  0  0  0  0
  7 12  1  0  0  0  0
  8  1  1  0  0  0  0
  9  1  1  0  0  0  0
 10  2  2  0  0  0  0
 11  2  1  0  0  0  0
 12  4  1  0  0  0  0
 13  7  2  0  0  0  0
 14  4  2  0  0  0  0
 15 10  1  0  0  0  0
 16 11  2  0  0  0  0
 17 16  1  0  0  0  0
 17 15  2  0  0  0  0
 18 16  1  0  0  0  0
 19 10  1  0  0  0  0
 20 19  1  0  0  0  0
 21  1  1  0  0  0  0
 22  9  1  0  0  0  0
 23  8  1  0  0  0  0
 23 22  1  0  0  0  0
M  END
> <CdId>
2115

> <Mol Weight>
413.352

> <Formula>
C16H17BrN2O2S2

> <Click_ID>
CLK028_C11 __ __ 

$$$$
