CLK048H05
 OpenBabel03181419432D

 25 26  0  0  0  0  0  0  0  0999 V2000
   -0.5292   -1.1042    0.0000 C   0  0  0  0  0  0  0  0  0  0  0  0
    0.7417   -0.6917    0.0000 N   0  0  0  0  0  0  0  0  0  0  0  0
    0.7417   -1.5167    0.0000 N   0  0  0  0  0  0  0  0  0  0  0  0
   -0.0417   -0.4375    0.0000 C   0  0  0  0  0  0  0  0  0  0  0  0
   -0.0417   -1.7708    0.0000 C   0  0  0  0  0  0  0  0  0  0  0  0
   -1.3542   -1.1042    0.0000 C   0  0  0  0  0  0  0  0  0  0  0  0
    1.9042    1.9208    0.0000 C   0  0  0  0  0  0  0  0  0  0  0  0
    1.4083   -0.2042    0.0000 C   0  0  0  0  0  0  0  0  0  0  0  0
   -1.7667   -0.3875    0.0000 C   0  0  0  0  0  0  0  0  0  0  0  0
    1.9917    1.1000    0.0000 C   0  0  0  0  0  0  0  0  0  0  0  0
    1.3208    0.6125    0.0000 C   0  0  0  0  0  0  0  0  0  0  0  0
   -3.8292    0.3250    0.0000 C   0  0  0  0  0  0  0  0  0  0  0  0
   -4.6542    0.3250    0.0000 C   0  0  0  0  0  0  0  0  0  0  0  0
   -1.7667   -1.8167    0.0000 O   0  0  0  0  0  0  0  0  0  0  0  0
   -1.3542    0.3250    0.0000 O   0  0  0  0  0  0  0  0  0  0  0  0
    1.0833    1.8333    0.0000 F   0  0  0  0  0  0  0  0  0  0  0  0
    2.7250    2.0042    0.0000 F   0  0  0  0  0  0  0  0  0  0  0  0
    1.8167    2.7417    0.0000 F   0  0  0  0  0  0  0  0  0  0  0  0
   -2.5917   -0.3875    0.0000 N   0  0  0  0  0  0  0  0  0  0  0  0
   -0.3000    0.3500    0.0000 C   0  0  0  0  0  0  0  0  0  0  0  0
   -0.3000   -2.5542    0.0000 C   0  0  0  0  0  0  0  0  0  0  0  0
   -3.0042    0.3250    0.0000 C   0  0  0  0  0  0  0  0  0  0  0  0
    2.1625   -0.5417    0.0000 C   0  0  0  0  0  0  0  0  0  0  0  0
    2.7458    0.7625    0.0000 C   0  0  0  0  0  0  0  0  0  0  0  0
    2.8292   -0.0583    0.0000 C   0  0  0  0  0  0  0  0  0  0  0  0
  2  4  1  0  0  0  0
  2  3  1  0  0  0  0
  3  5  2  0  0  0  0
  4  1  2  0  0  0  0
  5  1  1  0  0  0  0
  6  1  1  0  0  0  0
  7 10  1  0  0  0  0
  8  2  1  0  0  0  0
  9  6  1  0  0  0  0
 10 11  1  0  0  0  0
 11  8  2  0  0  0  0
 12 22  1  0  0  0  0
 13 12  3  0  0  0  0
 14  6  2  0  0  0  0
 15  9  2  0  0  0  0
 16  7  1  0  0  0  0
 17  7  1  0  0  0  0
 18  7  1  0  0  0  0
 19  9  1  0  0  0  0
 20  4  1  0  0  0  0
 21  5  1  0  0  0  0
 22 19  1  0  0  0  0
 23  8  1  0  0  0  0
 24 10  2  0  0  0  0
 24 25  1  0  0  0  0
 25 23  2  0  0  0  0
M  END
> <CdId>
3680

> <Mol Weight>
349.3072

> <Formula>
C17H14F3N3O2

> <Click_ID>
CLK048H05 __ __ 

$$$$
