CLK009_F02
 OpenBabel03181419432D

 14 14  0  0  0  0  0  0  0  0999 V2000
   -0.7081    0.1539    0.0000 C    0  0  0  0  0  0  0  0  0  0  0  0
   -1.4779    0.5938    0.0000 C    0  0  0  0  0  0  0  0  0  0  0  0
    0.0572    0.5938    0.0000 C    0  0  3  0  0  0  0  0  0  0  0  0
    0.0308    1.1963    0.0000 O    0  0  0  0  0  0  0  0  0  0  0  0
   -0.7081    1.5658    0.0000 C    0  0  0  0  0  0  0  0  0  0  0  0
   -1.4075    1.1304    0.0000 O    0  0  0  0  0  0  0  0  0  0  0  0
    0.8621    0.4354    0.0000 C    0  0  0  0  0  0  0  0  0  0  0  0
   -2.2520    0.1539    0.0000 Br   0  0  0  0  0  0  0  0  0  0  0  0
   -0.7917    2.3971    0.0000 C    0  0  0  0  0  0  0  0  0  0  0  0
    1.1260   -0.3343    0.0000 C    0  0  0  0  0  0  0  0  0  0  0  0
    1.4031    1.0512    0.0000 C    0  0  0  0  0  0  0  0  0  0  0  0
    2.2168    0.8929    0.0000 C    0  0  0  0  0  0  0  0  0  0  0  0
    1.9397   -0.4927    0.0000 C    0  0  0  0  0  0  0  0  0  0  0  0
    2.4807    0.1188    0.0000 C    0  0  0  0  0  0  0  0  0  0  0  0
  2  1  3  0  0  0  0
  3  1  1  0  0  0  0
  4  3  1  0  0  0  0
  5  4  1  0  0  0  0
  6  5  2  0  0  0  0
  7  3  1  0  0  0  0
  8  2  1  0  0  0  0
  9  5  1  0  0  0  0
 10  7  1  0  0  0  0
 11  7  2  0  0  0  0
 12 11  1  0  0  0  0
 13 10  2  0  0  0  0
 14 12  2  0  0  0  0
 14 13  1  0  0  0  0
M  END
> <CdId>
647

> <Mol Weight>
253.092

> <Formula>
C11H9BrO2

> <Click_ID>
CLK009_F02 __ __ 

$$$$
