CLK039B06
 OpenBabel03181419432D

 19 20  0  0  0  0  0  0  0  0999 V2000
    0.3750   -0.2583    0.0000 S   0  0  0  0  0  0  0  0  0  0  0  0
   -0.3417    0.1542    0.0000 N   0  0  0  0  0  0  0  0  0  0  0  0
    1.0875   -0.6708    0.0000 C   0  0  0  0  0  0  0  0  0  0  0  0
    0.7875    0.4542    0.0000 O   0  0  0  0  0  0  0  0  0  0  0  0
   -0.0375   -0.9750    0.0000 O   0  0  0  0  0  0  0  0  0  0  0  0
   -2.4833    2.2167    0.0000 C   0  0  0  0  0  0  0  0  0  0  0  0
   -1.7708    0.9792    0.0000 N   0  0  0  0  0  0  0  0  0  0  0  0
    1.0875   -1.4958    0.0000 C   0  0  0  0  0  0  0  0  0  0  0  0
   -2.4833    3.0417    0.0000 C   0  0  0  0  0  0  0  0  0  0  0  0
   -0.3417    0.9792    0.0000 C   0  0  0  0  0  0  0  0  0  0  0  0
   -1.0542   -0.2583    0.0000 C   0  0  0  0  0  0  0  0  0  0  0  0
   -1.7708    0.1542    0.0000 C   0  0  0  0  0  0  0  0  0  0  0  0
   -1.0542    1.3917    0.0000 C   0  0  0  0  0  0  0  0  0  0  0  0
    1.8042   -1.9083    0.0000 C   0  0  0  0  0  0  0  0  0  0  0  0
   -2.4833    1.3917    0.0000 C   0  0  0  0  0  0  0  0  0  0  0  0
    1.8042   -2.7333    0.0000 F   0  0  0  0  0  0  0  0  0  0  0  0
    1.8042   -0.2583    0.0000 C   0  0  0  0  0  0  0  0  0  0  0  0
    2.5167   -0.6708    0.0000 C   0  0  0  0  0  0  0  0  0  0  0  0
    2.5167   -1.4958    0.0000 C   0  0  0  0  0  0  0  0  0  0  0  0
  2  1  1  0  0  0  0
  3  1  1  0  0  0  0
  4  1  2  0  0  0  0
  5  1  2  0  0  0  0
  6 15  1  0  0  0  0
  7 12  1  0  0  0  0
  7 13  1  0  0  0  0
  8  3  1  0  0  0  0
  9  6  3  0  0  0  0
 10  2  1  0  0  0  0
 11  2  1  0  0  0  0
 12 11  1  0  0  0  0
 13 10  1  0  0  0  0
 14  8  2  0  0  0  0
 15  7  1  0  0  0  0
 16 14  1  0  0  0  0
 17  3  2  0  0  0  0
 18 17  1  0  0  0  0
 18 19  2  0  0  0  0
 19 14  1  0  0  0  0
M  END
> <CdId>
2962

> <Mol Weight>
282.334

> <Formula>
C13H15FN2O2S

> <Click_ID>
CLK039B06 __ __ 

$$$$
