CLK028_G02
 OpenBabel03181419432D

 29 30  0  0  0  0  0  0  0  0999 V2000
   -0.3601    0.8197    0.0000 C    0  0  0  0  0  0  0  0  0  0  0  0
   -1.0804    1.2313    0.0000 C    0  0  0  0  0  0  0  0  0  0  0  0
   -1.7939    0.8197    0.0000 N    0  0  0  0  0  0  0  0  0  0  0  0
    0.3464    1.2313    0.0000 C    0  0  0  0  0  0  0  0  0  0  0  0
    2.4936   -0.0068    0.0000 C    0  0  0  0  0  0  0  0  0  0  0  0
   -2.5005    1.2313    0.0000 C    0  0  0  0  0  0  0  0  0  0  0  0
   -3.2173    0.8197    0.0000 C    0  0  0  0  0  0  0  0  0  0  0  0
   -0.3601   -0.0068    0.0000 C    0  0  0  0  0  0  0  0  0  0  0  0
    2.4936    0.8197    0.0000 C    0  0  0  0  0  0  0  0  0  0  0  0
    1.7767   -0.4151    0.0000 C    0  0  0  0  0  0  0  0  0  0  0  0
    1.0633    0.8197    0.0000 C    0  0  0  0  0  0  0  0  0  0  0  0
   -0.3739   -0.8267    0.0000 N    0  0  0  0  0  0  0  0  0  0  0  0
    3.9205   -1.6499    0.0000 C    0  0  0  0  0  0  0  0  0  0  0  0
    4.6339   -2.0615    0.0000 C    0  0  0  0  0  0  0  0  0  0  0  0
    1.7767    1.2313    0.0000 C    0  0  0  0  0  0  0  0  0  0  0  0
    1.0702   -0.0068    0.0000 C    0  0  0  0  0  0  0  0  0  0  0  0
   -1.0804    2.0545    0.0000 O    0  0  0  0  0  0  0  0  0  0  0  0
   -3.9239    1.2313    0.0000 C    0  0  0  0  0  0  0  0  0  0  0  0
    3.2036    1.2313    0.0000 I    0  0  0  0  0  0  0  0  0  0  0  0
    3.2002   -0.4151    0.0000 O    0  0  0  0  0  0  0  0  0  0  0  0
    1.7905   -1.2416    0.0000 O    0  0  0  0  0  0  0  0  0  0  0  0
   -4.6373    0.8197    0.0000 Cl   0  0  0  0  0  0  0  0  0  0  0  0
    3.2002   -1.2416    0.0000 C    0  0  0  0  0  0  0  0  0  0  0  0
   -2.5005    2.0648    0.0000 C    0  0  0  0  0  0  0  0  0  0  0  0
   -3.2173    0.0035    0.0000 C    0  0  0  0  0  0  0  0  0  0  0  0
   -3.2173    2.4731    0.0000 C    0  0  0  0  0  0  0  0  0  0  0  0
   -3.9239    2.0648    0.0000 C    0  0  0  0  0  0  0  0  0  0  0  0
    1.0804   -1.6499    0.0000 C    0  0  0  0  0  0  0  0  0  0  0  0
    1.0907   -2.4696    0.0000 C    0  0  0  0  0  0  0  0  0  0  0  0
  2  1  1  0  0  0  0
  3  2  1  0  0  0  0
  4  1  2  0  0  0  0
  5 10  1  0  0  0  0
  5  9  2  0  0  0  0
  6  3  1  0  0  0  0
  7  6  1  0  0  0  0
  8  1  1  0  0  0  0
  9 15  1  0  0  0  0
 10 16  2  0  0  0  0
 11  4  1  0  0  0  0
 12  8  3  0  0  0  0
 13 23  1  0  0  0  0
 14 13  3  0  0  0  0
 15 11  2  0  0  0  0
 16 11  1  0  0  0  0
 17  2  2  0  0  0  0
 18  7  2  0  0  0  0
 19  9  1  0  0  0  0
 20  5  1  0  0  0  0
 21 10  1  0  0  0  0
 22 18  1  0  0  0  0
 23 20  1  0  0  0  0
 24  6  2  0  0  0  0
 25  7  1  0  0  0  0
 26 24  1  0  0  0  0
 27 26  2  0  0  0  0
 27 18  1  0  0  0  0
 28 21  1  0  0  0  0
 29 28  1  0  0  0  0
M  END
> <CdId>
2146

> <Mol Weight>
520.747

> <Formula>
C22H18ClIN2O3

> <Click_ID>
CLK028_G02 __ __ 

$$$$
