CLK021_B04
 OpenBabel03181419432D

 24 26  0  0  0  0  0  0  0  0999 V2000
    0.7467    3.8295    0.0000 C   0  0  0  0  0  0  0  0  0  0  0  0
    2.1759    3.0050    0.0000 C   0  0  0  0  0  0  0  0  0  0  0  0
    1.4613    4.2418    0.0000 N   0  0  0  0  0  0  0  0  0  0  0  0
    2.1759    3.8295    0.0000 C   0  0  3  0  0  0  0  0  0  0  0  0
    1.4613    2.5927    0.0000 C   0  0  0  0  0  0  0  0  0  0  0  0
    0.7467    3.0050    0.0000 N   0  0  0  0  0  0  0  0  0  0  0  0
    0.1374    4.3792    0.0000 N   0  0  0  0  0  0  0  0  0  0  0  0
    1.2964    5.0343    0.0000 N   0  0  0  0  0  0  0  0  0  0  0  0
    2.8905    2.5927    0.0000 C   0  0  0  0  0  0  0  0  0  0  0  0
    0.4719    5.1168    0.0000 C   0  0  0  0  0  0  0  0  0  0  0  0
    6.4635    5.4648    0.0000 C   0  0  0  0  0  0  0  0  0  0  0  0
    2.8905    4.2418    0.0000 C   0  0  0  0  0  0  0  0  0  0  0  0
    7.1781    5.8771    0.0000 C   0  0  0  0  0  0  0  0  0  0  0  0
    3.6051    3.0050    0.0000 O   0  0  0  0  0  0  0  0  0  0  0  0
    3.6051    3.8295    0.0000 C   0  0  0  0  0  0  0  0  0  0  0  0
    2.8905    5.0526    0.0000 C   0  0  0  0  0  0  0  0  0  0  0  0
    2.8905    1.7681    0.0000 O   0  0  0  0  0  0  0  0  0  0  0  0
    1.4613    1.7681    0.0000 C   0  0  0  0  0  0  0  0  0  0  0  0
    4.3197    5.0526    0.0000 C   0  0  0  0  0  0  0  0  0  0  0  0
    3.6051    5.4648    0.0000 C   0  0  0  0  0  0  0  0  0  0  0  0
    4.3197    4.2418    0.0000 C   0  0  0  0  0  0  0  0  0  0  0  0
    5.7489    5.0526    0.0000 C   0  0  0  0  0  0  0  0  0  0  0  0
    5.0343    5.4648    0.0000 O   0  0  0  0  0  0  0  0  0  0  0  0
    3.6051    1.3559    0.0000 C   0  0  0  0  0  0  0  0  0  0  0  0
  2  5  2  0  0  0  0
  3  1  1  0  0  0  0
  4  3  1  0  0  0  0
  4  2  1  0  0  0  0
  5  6  1  0  0  0  0
  6  1  1  0  0  0  0
  7  1  2  0  0  0  0
  8  3  1  0  0  0  0
  8 10  2  0  0  0  0
  9  2  1  0  0  0  0
 10  7  1  0  0  0  0
 11 22  1  0  0  0  0
 12  4  1  0  0  0  0
 13 11  3  0  0  0  0
 14  9  2  0  0  0  0
 15 12  1  0  0  0  0
 16 12  2  0  0  0  0
 17  9  1  0  0  0  0
 18  5  1  0  0  0  0
 19 20  2  0  0  0  0
 20 16  1  0  0  0  0
 21 15  2  0  0  0  0
 21 19  1  0  0  0  0
 22 23  1  0  0  0  0
 23 19  1  0  0  0  0
 24 17  1  0  0  0  0
M  END
> <CdId>
1569

> <Mol Weight>
324.3339

> <Formula>
C17H16N4O3

> <Click_ID>
CLK021_B04 __ __ 

$$$$
