CLK047C03
 OpenBabel03181419432D

 18 19  0  0  0  0  0  0  0  0999 V2000
    0.0792    0.0958    0.0000 C   0  0  0  0  0  0  0  0  0  0  0  0
    0.7917   -0.3167    0.0000 N   0  0  0  0  0  0  0  0  0  0  0  0
    0.7917   -1.1417    0.0000 N   0  0  0  0  0  0  0  0  0  0  0  0
    0.0792   -1.5542    0.0000 C   0  0  0  0  0  0  0  0  0  0  0  0
   -0.6375   -0.3167    0.0000 C   0  0  0  0  0  0  0  0  0  0  0  0
   -0.6375   -1.1417    0.0000 C   0  0  0  0  0  0  0  0  0  0  0  0
    0.0792    0.9208    0.0000 C   0  0  0  0  0  0  0  0  0  0  0  0
    1.5042    2.5708    0.0000 C   0  0  0  0  0  0  0  0  0  0  0  0
    2.2208    2.9833    0.0000 C   0  0  0  0  0  0  0  0  0  0  0  0
    0.0792   -2.3792    0.0000 O   0  0  0  0  0  0  0  0  0  0  0  0
   -0.6375    1.3333    0.0000 O   0  0  0  0  0  0  0  0  0  0  0  0
    0.7917    1.3333    0.0000 N   0  0  0  0  0  0  0  0  0  0  0  0
    1.5042   -1.5542    0.0000 C   0  0  0  0  0  0  0  0  0  0  0  0
    0.7917    2.1583    0.0000 C   0  0  0  0  0  0  0  0  0  0  0  0
   -1.3500    0.0958    0.0000 C   0  0  0  0  0  0  0  0  0  0  0  0
   -1.3500   -1.5542    0.0000 C   0  0  0  0  0  0  0  0  0  0  0  0
   -2.0667   -0.3167    0.0000 C   0  0  0  0  0  0  0  0  0  0  0  0
   -2.0667   -1.1417    0.0000 C   0  0  0  0  0  0  0  0  0  0  0  0
  2  1  2  0  0  0  0
  3  2  1  0  0  0  0
  4  6  1  0  0  0  0
  4  3  1  0  0  0  0
  5  1  1  0  0  0  0
  6  5  2  0  0  0  0
  7  1  1  0  0  0  0
  8 14  1  0  0  0  0
  9  8  3  0  0  0  0
 10  4  2  0  0  0  0
 11  7  2  0  0  0  0
 12  7  1  0  0  0  0
 13  3  1  0  0  0  0
 14 12  1  0  0  0  0
 15  5  1  0  0  0  0
 16  6  1  0  0  0  0
 17 15  2  0  0  0  0
 18 16  2  0  0  0  0
 18 17  1  0  0  0  0
M  END
> <CdId>
3579

> <Mol Weight>
241.2453

> <Formula>
C13H11N3O2

> <Click_ID>
CLK047C03 __ __ 

$$$$
