CLK035_C02
 OpenBabel03181419432D

 20 21  0  0  0  0  0  0  0  0999 V2000
   -4.5786    2.5488    0.0000 C   0  0  0  0  0  0  0  0  0  0  0  0
   -3.8481    2.9721    0.0000 N   0  0  0  0  0  0  0  0  0  0  0  0
   -4.6700    1.7268    0.0000 N   0  0  0  0  0  0  0  0  0  0  0  0
   -5.3009    2.8891    0.0000 S   0  0  0  0  0  0  0  0  0  0  0  0
   -3.8564    3.7858    0.0000 C   0  0  0  0  0  0  0  0  0  0  0  0
   -5.4752    1.5774    0.0000 C   0  0  0  0  0  0  0  0  0  0  0  0
   -5.8738    2.2997    0.0000 C   0  0  0  0  0  0  0  0  0  0  0  0
   -4.2548    0.3570    0.0000 C   0  0  0  0  0  0  0  0  0  0  0  0
   -4.4416   -0.4525    0.0000 C   0  0  0  0  0  0  0  0  0  0  0  0
   -3.1465    4.1967    0.0000 C   0  0  0  0  0  0  0  0  0  0  0  0
   -4.5662    4.1967    0.0000 O   0  0  0  0  0  0  0  0  0  0  0  0
   -5.9029    0.8800    0.0000 C   0  0  0  0  0  0  0  0  0  0  0  0
   -4.0680    1.1582    0.0000 C   0  0  0  0  0  0  0  0  0  0  0  0
   -6.6874    2.3246    0.0000 C   0  0  0  0  0  0  0  0  0  0  0  0
   -7.1150    1.6190    0.0000 C   0  0  0  0  0  0  0  0  0  0  0  0
   -2.4409    4.6326    0.0000 C   0  0  0  0  0  0  0  0  0  0  0  0
   -2.4491    3.7567    0.0000 C   0  0  0  0  0  0  0  0  0  0  0  0
   -3.0966    5.0229    0.0000 C   0  0  0  0  0  0  0  0  0  0  0  0
   -6.7040    0.8924    0.0000 C   0  0  0  0  0  0  0  0  0  0  0  0
   -5.5126    0.1495    0.0000 C   0  0  0  0  0  0  0  0  0  0  0  0
  2  1  2  0  0  0  0
  3  1  1  0  0  0  0
  4  1  1  0  0  0  0
  5  2  1  0  0  0  0
  6  3  1  0  0  0  0
  7  4  1  0  0  0  0
  7  6  2  0  0  0  0
  8 13  1  0  0  0  0
  9  8  3  0  0  0  0
 10  5  1  0  0  0  0
 11  5  2  0  0  0  0
 12  6  1  0  0  0  0
 13  3  1  0  0  0  0
 14  7  1  0  0  0  0
 15 14  2  0  0  0  0
 16 10  1  0  0  0  0
 17 10  1  0  0  0  0
 18 10  1  0  0  0  0
 19 12  2  0  0  0  0
 19 15  1  0  0  0  0
 20 12  1  0  0  0  0
M  END
> <CdId>
2666

> <Mol Weight>
286.392

> <Formula>
C16H18N2OS

> <Click_ID>
CLK035_C02 __ __ 

$$$$
