CLK006_A10
 OpenBabel03181419432D

 24 26  0  0  0  0  0  0  0  0999 V2000
    0.9217   -0.1899    0.0000 C   0  0  3  0  0  0  0  0  0  0  0  0
    0.2105   -0.6041    0.0000 C   0  0  0  0  0  0  0  0  0  0  0  0
    0.9217    0.6352    0.0000 C   0  0  0  0  0  0  0  0  0  0  0  0
    1.6363   -0.5937    0.0000 C   0  0  0  0  0  0  0  0  0  0  0  0
    0.2105   -1.4222    0.0000 C   0  0  0  0  0  0  0  0  0  0  0  0
   -0.5039   -0.1830    0.0000 C   0  0  0  0  0  0  0  0  0  0  0  0
    1.6363    1.0494    0.0000 C   0  0  0  0  0  0  0  0  0  0  0  0
    0.2105    1.0425    0.0000 C   0  0  0  0  0  0  0  0  0  0  0  0
    1.6363   -1.4222    0.0000 C   0  0  0  0  0  0  0  0  0  0  0  0
   -0.5039   -1.8330    0.0000 N   0  0  0  0  0  0  0  0  0  0  0  0
    0.9217   -1.8330    0.0000 N   0  0  0  0  0  0  0  0  0  0  0  0
   -1.2082   -0.6041    0.0000 N   0  0  0  0  0  0  0  0  0  0  0  0
   -0.5039    0.6421    0.0000 O   0  0  0  0  0  0  0  0  0  0  0  0
    1.6328    1.8744    0.0000 C   0  0  0  0  0  0  0  0  0  0  0  0
    0.1968    1.8606    0.0000 C   0  0  0  0  0  0  0  0  0  0  0  0
    2.3473   -1.8330    0.0000 O   0  0  0  0  0  0  0  0  0  0  0  0
   -1.2082   -1.4291    0.0000 C   0  0  0  0  0  0  0  0  0  0  0  0
    0.9182    2.2818    0.0000 C   0  0  0  0  0  0  0  0  0  0  0  0
   -1.9297   -1.8434    0.0000 S   0  0  0  0  0  0  0  0  0  0  0  0
    0.9113    3.1103    0.0000 S   0  0  0  0  0  0  0  0  0  0  0  0
   -2.6443   -1.4291    0.0000 C   0  0  0  0  0  0  0  0  0  0  0  0
    0.1968    3.5210    0.0000 C   0  0  0  0  0  0  0  0  0  0  0  0
   -2.6443   -0.6041    0.0000 C   0  0  0  0  0  0  0  0  0  0  0  0
   -3.3588   -0.1899    0.0000 C   0  0  0  0  0  0  0  0  0  0  0  0
  1  2  1  0  0  0  0
  1  3  1  0  0  0  0
  1  4  1  0  0  0  0
  2  5  2  0  0  0  0
  2  6  1  0  0  0  0
  3  7  2  0  0  0  0
  3  8  1  0  0  0  0
  4  9  1  0  0  0  0
  5 10  1  0  0  0  0
  5 11  1  0  0  0  0
  6 12  1  0  0  0  0
  6 13  2  0  0  0  0
  7 14  1  0  0  0  0
  8 15  2  0  0  0  0
  9 16  2  0  0  0  0
  9 11  1  0  0  0  0
 10 17  2  0  0  0  0
 12 17  1  0  0  0  0
 14 18  2  0  0  0  0
 15 18  1  0  0  0  0
 17 19  1  0  0  0  0
 18 20  1  0  0  0  0
 19 21  1  0  0  0  0
 20 22  1  0  0  0  0
 21 23  1  0  0  0  0
 23 24  3  0  0  0  0
M  END
> <CdId>
409

> <Mol Weight>
357.45

> <Formula>
C17H15N3O2S2

> <Click_ID>
CLK006_A10 __ __ 

$$$$
