CLK042G11
 OpenBabel03181419432D

 29 31  0  0  0  0  0  0  0  0999 V2000
   -2.1042    2.4667    0.0000 S   0  0  0  0  0  0  0  0  0  0  0  0
    2.9000   -2.8958    0.0000 N   0  0  0  0  0  0  0  0  0  0  0  0
   -0.6750   -0.0083    0.0000 C   0  0  0  0  0  0  0  0  0  0  0  0
    3.7917   -3.8875    0.0000 N   0  0  0  0  0  0  0  0  0  0  0  0
    3.6542   -2.5625    0.0000 N   0  0  0  0  0  0  0  0  0  0  0  0
    0.0417   -0.4208    0.0000 N   0  0  0  0  0  0  0  0  0  0  0  0
   -1.3875    2.0542    0.0000 C   0  0  0  0  0  0  0  0  0  0  0  0
    2.9833   -3.7167    0.0000 C   0  0  0  0  0  0  0  0  0  0  0  0
    4.2042   -3.1750    0.0000 C   0  0  0  0  0  0  0  0  0  0  0  0
   -0.6750    0.8167    0.0000 C   0  0  0  0  0  0  0  0  0  0  0  0
   -3.5333    4.1125    0.0000 C   0  0  0  0  0  0  0  0  0  0  0  0
   -1.3875    1.2292    0.0000 C   0  0  0  0  0  0  0  0  0  0  0  0
   -4.2458    4.5250    0.0000 C   0  0  0  0  0  0  0  0  0  0  0  0
   -1.6917    3.1792    0.0000 O   0  0  0  0  0  0  0  0  0  0  0  0
   -2.5167    1.7500    0.0000 O   0  0  0  0  0  0  0  0  0  0  0  0
    2.1833   -2.4833    0.0000 C   0  0  0  0  0  0  0  0  0  0  0  0
   -2.8167    2.8792    0.0000 N   0  0  0  0  0  0  0  0  0  0  0  0
    0.0417   -1.2458    0.0000 C   0  0  3  0  0  0  0  0  0  0  0  0
    0.7542   -1.6583    0.0000 C   0  0  0  0  0  0  0  0  0  0  0  0
   -1.3875   -0.4208    0.0000 O   0  0  0  0  0  0  0  0  0  0  0  0
    2.1833   -1.6583    0.0000 C   0  0  0  0  0  0  0  0  0  0  0  0
    1.4708   -2.8958    0.0000 C   0  0  0  0  0  0  0  0  0  0  0  0
    1.4708   -1.2458    0.0000 C   0  0  0  0  0  0  0  0  0  0  0  0
    0.7542   -2.4833    0.0000 C   0  0  0  0  0  0  0  0  0  0  0  0
   -2.8167    3.7042    0.0000 C   0  0  0  0  0  0  0  0  0  0  0  0
   -0.6750    2.4667    0.0000 C   0  0  0  0  0  0  0  0  0  0  0  0
    0.0417    1.2292    0.0000 C   0  0  0  0  0  0  0  0  0  0  0  0
    0.0417    2.0542    0.0000 C   0  0  0  0  0  0  0  0  0  0  0  0
   -0.6750   -1.6583    0.0000 C   0  0  0  0  0  0  0  0  0  0  0  0
  2 16  1  0  0  0  0
  3 10  1  0  0  0  0
  4  8  2  0  0  0  0
  5  2  1  0  0  0  0
  6  3  1  0  0  0  0
  7  1  1  0  0  0  0
  8  2  1  0  0  0  0
  9  5  2  0  0  0  0
  9  4  1  0  0  0  0
 10 12  2  0  0  0  0
 11 25  1  0  0  0  0
 12  7  1  0  0  0  0
 13 11  3  0  0  0  0
 14  1  2  0  0  0  0
 15  1  2  0  0  0  0
 16 21  2  0  0  0  0
 16 22  1  0  0  0  0
 17  1  1  0  0  0  0
 18  6  1  0  0  0  0
 19 18  1  0  0  0  0
 20  3  2  0  0  0  0
 21 23  1  0  0  0  0
 22 24  2  0  0  0  0
 23 19  2  0  0  0  0
 24 19  1  0  0  0  0
 25 17  1  0  0  0  0
 26  7  2  0  0  0  0
 27 10  1  0  0  0  0
 28 26  1  0  0  0  0
 28 27  2  0  0  0  0
 29 18  1  0  0  0  0
M  END
> <CdId>
3247

> <Mol Weight>
409.462

> <Formula>
C20H19N5O3S

> <Click_ID>
CLK042G11 __ __ 

$$$$
