CLK007_B06
 OpenBabel03181419432D

 27 29  0  0  0  0  0  0  0  0999 V2000
    0.4247    2.2520    0.0000 C   0  0  0  0  0  0  0  0  0  0  0  0
   -0.2959    1.8483    0.0000 C   0  0  0  0  0  0  0  0  0  0  0  0
    0.5151    3.0701    0.0000 C   0  0  0  0  0  0  0  0  0  0  0  0
    1.1800    1.9213    0.0000 S   0  0  0  0  0  0  0  0  0  0  0  0
   -0.2959    1.0129    0.0000 C   0  0  0  0  0  0  0  0  0  0  0  0
    1.3192    3.2441    0.0000 N   0  0  0  0  0  0  0  0  0  0  0  0
   -0.1009    3.6200    0.0000 O   0  0  0  0  0  0  0  0  0  0  0  0
    1.7334    2.5340    0.0000 C   0  0  0  0  0  0  0  0  0  0  0  0
    0.4177    0.5953    0.0000 C   0  0  0  0  0  0  0  0  0  0  0  0
   -0.9990    0.5953    0.0000 C   0  0  0  0  0  0  0  0  0  0  0  0
    1.6569    3.9959    0.0000 C   0  0  0  0  0  0  0  0  0  0  0  0
    2.5548    2.4469    0.0000 O   0  0  0  0  0  0  0  0  0  0  0  0
    0.4177   -0.2297    0.0000 C   0  0  0  0  0  0  0  0  0  0  0  0
   -0.9990   -0.2297    0.0000 C   0  0  0  0  0  0  0  0  0  0  0  0
    2.4818    4.0795    0.0000 C   0  0  0  0  0  0  0  0  0  0  0  0
   -0.2959   -0.6405    0.0000 C   0  0  0  0  0  0  0  0  0  0  0  0
    2.8194    4.8279    0.0000 C   0  0  0  0  0  0  0  0  0  0  0  0
   -0.2959   -1.4654    0.0000 O   0  0  0  0  0  0  0  0  0  0  0  0
   -1.0094   -1.8761    0.0000 C   0  0  0  0  0  0  0  0  0  0  0  0
   -1.0094   -2.7045    0.0000 C   0  0  0  0  0  0  0  0  0  0  0  0
   -1.6708   -3.1849    0.0000 O   0  0  0  0  0  0  0  0  0  0  0  0
   -0.3377   -3.1849    0.0000 C   0  0  0  0  0  0  0  0  0  0  0  0
   -1.4202   -3.9716    0.0000 C   0  0  0  0  0  0  0  0  0  0  0  0
   -0.5953   -3.9716    0.0000 C   0  0  0  0  0  0  0  0  0  0  0  0
   -1.9005   -4.6364    0.0000 C   0  0  0  0  0  0  0  0  0  0  0  0
   -2.7220   -4.5563    0.0000 O   0  0  0  0  0  0  0  0  0  0  0  0
   -1.5733   -5.3952    0.0000 O   0  0  0  0  0  0  0  0  0  0  0  0
  1  2  2  0  0  0  0
  1  3  1  0  0  0  0
  1  4  1  0  0  0  0
  2  5  1  0  0  0  0
  3  6  1  0  0  0  0
  3  7  2  0  0  0  0
  4  8  1  0  0  0  0
  5  9  2  0  0  0  0
  5 10  1  0  0  0  0
  6 11  1  0  0  0  0
  6  8  1  0  0  0  0
  8 12  2  0  0  0  0
  9 13  1  0  0  0  0
 10 14  2  0  0  0  0
 11 15  1  0  0  0  0
 13 16  2  0  0  0  0
 14 16  1  0  0  0  0
 15 17  3  0  0  0  0
 16 18  1  0  0  0  0
 18 19  1  0  0  0  0
 19 20  1  0  0  0  0
 20 21  1  0  0  0  0
 20 22  2  0  0  0  0
 21 23  1  0  0  0  0
 22 24  1  0  0  0  0
 23 25  1  0  0  0  0
 23 24  2  0  0  0  0
 25 26  1  0  0  0  0
 25 27  2  0  0  0  0
M  END
> <CdId>
495

> <Mol Weight>
383.375

> <Formula>
C19H13NO6S

> <Click_ID>
CLK007_B06 __ __ 

$$$$
