CLK043G06
 OpenBabel03181419432D

 22 24  0  0  0  0  0  0  0  0999 V2000
    0.0874    0.4203    0.0000 C   0  0  0  0  0  0  0  0  0  0  0  0
    0.0874    1.7522    0.0000 N   0  0  0  0  0  0  0  0  0  0  0  0
    0.8698    1.4983    0.0000 N   0  0  0  0  0  0  0  0  0  0  0  0
   -0.3996    1.0863    0.0000 C   0  0  0  0  0  0  0  0  0  0  0  0
   -0.1706   -0.3663    0.0000 C   0  0  0  0  0  0  0  0  0  0  0  0
    0.8698    0.6742    0.0000 C   0  0  0  0  0  0  0  0  0  0  0  0
    0.3829   -0.9781    0.0000 N   0  0  0  0  0  0  0  0  0  0  0  0
    0.9781   -3.7708    0.0000 C   0  0  0  0  0  0  0  0  0  0  0  0
    1.5275   -4.3826    0.0000 C   0  0  0  0  0  0  0  0  0  0  0  0
   -0.1706    2.5347    0.0000 C   0  0  0  0  0  0  0  0  0  0  0  0
   -0.9739   -0.5369    0.0000 O   0  0  0  0  0  0  0  0  0  0  0  0
    0.1291   -1.7605    0.0000 C   0  0  0  0  0  0  0  0  0  0  0  0
    0.4245   -3.1590    0.0000 C   0  0  0  0  0  0  0  0  0  0  0  0
    0.6784   -2.3724    0.0000 C   0  0  0  0  0  0  0  0  0  0  0  0
   -0.9323   -2.7178    0.0000 C   0  0  0  0  0  0  0  0  0  0  0  0
   -0.6784   -1.9311    0.0000 C   0  0  0  0  0  0  0  0  0  0  0  0
    0.3829    3.1465    0.0000 C   0  0  0  0  0  0  0  0  0  0  0  0
   -0.9739    2.7053    0.0000 C   0  0  0  0  0  0  0  0  0  0  0  0
   -0.3829   -3.3296    0.0000 C   0  0  0  0  0  0  0  0  0  0  0  0
   -1.2278    3.4919    0.0000 C   0  0  0  0  0  0  0  0  0  0  0  0
    0.1291    3.9331    0.0000 C   0  0  0  0  0  0  0  0  0  0  0  0
   -0.6784    4.0996    0.0000 C   0  0  0  0  0  0  0  0  0  0  0  0
  2  4  1  0  0  0  0
  2  3  1  0  0  0  0
  3  6  2  0  0  0  0
  4  1  2  0  0  0  0
  5  1  1  0  0  0  0
  6  1  1  0  0  0  0
  7  5  1  0  0  0  0
  8 13  1  0  0  0  0
  9  8  3  0  0  0  0
 10  2  1  0  0  0  0
 11  5  2  0  0  0  0
 12  7  1  0  0  0  0
 13 14  1  0  0  0  0
 14 12  2  0  0  0  0
 15 16  2  0  0  0  0
 16 12  1  0  0  0  0
 17 10  1  0  0  0  0
 18 10  2  0  0  0  0
 19 13  2  0  0  0  0
 19 15  1  0  0  0  0
 20 18  1  0  0  0  0
 21 17  2  0  0  0  0
 22 20  2  0  0  0  0
 22 21  1  0  0  0  0
M  END
> <CdId>
3287

> <Mol Weight>
287.3153

> <Formula>
C18H13N3O

> <Click_ID>
CLK043G06 __ __ 

$$$$
