CLK046H08
 OpenBabel03181419432D

 28 30  0  0  0  0  0  0  0  0999 V2000
    2.9583    0.6792    0.0000 S   0  0  0  0  0  0  0  0  0  0  0  0
    0.1000   -0.9708    0.0000 C   0  0  0  0  0  0  0  0  0  0  0  0
   -0.6125   -0.5583    0.0000 N   0  0  0  0  0  0  0  0  0  0  0  0
   -2.7583   -0.9708    0.0000 O   0  0  0  0  0  0  0  0  0  0  0  0
    2.2417    0.2667    0.0000 C   0  0  0  0  0  0  0  0  0  0  0  0
   -2.7583    0.6792    0.0000 O   0  0  0  0  0  0  0  0  0  0  0  0
   -3.4708   -0.5583    0.0000 C   0  0  0  0  0  0  0  0  0  0  0  0
   -2.0417   -0.5583    0.0000 C   0  0  3  0  0  0  0  0  0  0  0  0
    5.1000    1.0917    0.0000 C   0  0  0  0  0  0  0  0  0  0  0  0
    5.8167    1.5042    0.0000 C   0  0  0  0  0  0  0  0  0  0  0  0
    2.5458    1.3958    0.0000 O   0  0  0  0  0  0  0  0  0  0  0  0
    3.3708   -0.0333    0.0000 O   0  0  0  0  0  0  0  0  0  0  0  0
    0.8125   -0.5583    0.0000 C   0  0  0  0  0  0  0  0  0  0  0  0
   -1.3292   -0.9708    0.0000 C   0  0  0  0  0  0  0  0  0  0  0  0
   -3.4708    0.2667    0.0000 C   0  0  0  0  0  0  0  0  0  0  0  0
    3.6708    1.0917    0.0000 N   0  0  0  0  0  0  0  0  0  0  0  0
    0.1000   -1.7958    0.0000 O   0  0  0  0  0  0  0  0  0  0  0  0
    2.2417   -0.5583    0.0000 C   0  0  0  0  0  0  0  0  0  0  0  0
    1.5292    0.6792    0.0000 C   0  0  0  0  0  0  0  0  0  0  0  0
    1.5292   -0.9708    0.0000 C   0  0  0  0  0  0  0  0  0  0  0  0
    0.8125    0.2667    0.0000 C   0  0  0  0  0  0  0  0  0  0  0  0
   -2.0417    0.2667    0.0000 C   0  0  0  0  0  0  0  0  0  0  0  0
    4.3875    0.6792    0.0000 C   0  0  0  0  0  0  0  0  0  0  0  0
   -0.6125    0.2667    0.0000 C   0  0  0  0  0  0  0  0  0  0  0  0
   -4.1875   -0.9708    0.0000 C   0  0  0  0  0  0  0  0  0  0  0  0
   -4.1875    0.6792    0.0000 C   0  0  0  0  0  0  0  0  0  0  0  0
   -4.9000   -0.5583    0.0000 C   0  0  0  0  0  0  0  0  0  0  0  0
   -4.9000    0.2667    0.0000 C   0  0  0  0  0  0  0  0  0  0  0  0
  2 13  1  0  0  0  0
  3  2  1  0  0  0  0
  4  8  1  0  0  0  0
  5  1  1  0  0  0  0
  6 22  1  0  0  0  0
  7  4  1  0  0  0  0
  8 14  1  0  0  0  0
  9 23  1  0  0  0  0
 10  9  3  0  0  0  0
 11  1  2  0  0  0  0
 12  1  2  0  0  0  0
 13 21  2  0  0  0  0
 14  3  1  0  0  0  0
 15  7  2  0  0  0  0
 15  6  1  0  0  0  0
 16  1  1  0  0  0  0
 17  2  2  0  0  0  0
 18  5  1  0  0  0  0
 19  5  2  0  0  0  0
 20 18  2  0  0  0  0
 20 13  1  0  0  0  0
 21 19  1  0  0  0  0
 22  8  1  0  0  0  0
 23 16  1  0  0  0  0
 24  3  1  0  0  0  0
 25  7  1  0  0  0  0
 26 15  1  0  0  0  0
 27 25  2  0  0  0  0
 27 28  1  0  0  0  0
 28 26  2  0  0  0  0
M  END
> <CdId>
3544

> <Mol Weight>
400.448

> <Formula>
C20H20N2O5S

> <Click_ID>
CLK046H08 __ __ 

$$$$
