CLK026_A03
 OpenBabel03181419432D

 26 28  0  0  0  0  0  0  0  0999 V2000
    3.1827    0.2337    0.0000 N    0  0  0  0  0  0  0  0  0  0  0  0
    1.8835    0.5190    0.0000 C    0  0  0  0  0  0  0  0  0  0  0  0
    2.6328    0.8455    0.0000 C    0  0  0  0  0  0  0  0  0  0  0  0
    2.7702   -0.4778    0.0000 C    0  0  0  0  0  0  0  0  0  0  0  0
    1.9694   -0.3059    0.0000 C    0  0  0  0  0  0  0  0  0  0  0  0
   -0.9692    0.5568    0.0000 C    0  0  0  0  0  0  0  0  0  0  0  0
    4.3445    1.0689    0.0000 C    0  0  0  0  0  0  0  0  0  0  0  0
    4.5575    1.8698    0.0000 C    0  0  0  0  0  0  0  0  0  0  0  0
    0.4605    0.5465    0.0000 N    0  0  0  0  0  0  0  0  0  0  0  0
   -1.6876    0.9727    0.0000 N    0  0  0  0  0  0  0  0  0  0  0  0
   -3.8357    0.5740    0.0000 C    0  0  0  0  0  0  0  0  0  0  0  0
    1.1823    0.9452    0.0000 C    0  0  0  0  0  0  0  0  0  0  0  0
   -0.2509    0.9692    0.0000 N    0  0  0  0  0  0  0  0  0  0  0  0
   -3.8357   -0.2543    0.0000 C    0  0  0  0  0  0  0  0  0  0  0  0
   -2.3990    0.5706    0.0000 C    0  0  0  0  0  0  0  0  0  0  0  0
   -3.1140    0.9830    0.0000 C    0  0  0  0  0  0  0  0  0  0  0  0
   -0.9692   -0.2681    0.0000 O    0  0  0  0  0  0  0  0  0  0  0  0
    4.0076    0.3196    0.0000 C    0  0  0  0  0  0  0  0  0  0  0  0
   -3.1174   -0.6668    0.0000 C    0  0  0  0  0  0  0  0  0  0  0  0
   -2.3990   -0.2543    0.0000 C    0  0  0  0  0  0  0  0  0  0  0  0
   -4.5610   -0.6668    0.0000 Br   0  0  0  0  0  0  0  0  0  0  0  0
    3.0177   -1.2614    0.0000 C    0  0  0  0  0  0  0  0  0  0  0  0
    1.4092   -0.9108    0.0000 C    0  0  0  0  0  0  0  0  0  0  0  0
   -4.5404    0.9864    0.0000 C    0  0  0  0  0  0  0  0  0  0  0  0
    2.4678   -1.8663    0.0000 C    0  0  0  0  0  0  0  0  0  0  0  0
    1.6601   -1.6979    0.0000 C    0  0  0  0  0  0  0  0  0  0  0  0
  2  3  2  0  0  0  0
  2  5  1  0  0  0  0
  3  1  1  0  0  0  0
  4  1  1  0  0  0  0
  5  4  1  0  0  0  0
  6 13  1  0  0  0  0
  7 18  1  0  0  0  0
  8  7  3  0  0  0  0
  9 12  2  0  0  0  0
 10  6  1  0  0  0  0
 11 16  1  0  0  0  0
 11 14  2  0  0  0  0
 12  2  1  0  0  0  0
 13  9  1  0  0  0  0
 14 19  1  0  0  0  0
 15 10  1  0  0  0  0
 16 15  2  0  0  0  0
 17  6  2  0  0  0  0
 18  1  1  0  0  0  0
 19 20  2  0  0  0  0
 20 15  1  0  0  0  0
 21 14  1  0  0  0  0
 22  4  2  0  0  0  0
 23  5  2  0  0  0  0
 23 26  1  0  0  0  0
 24 11  1  0  0  0  0
 25 22  1  0  0  0  0
 26 25  2  0  0  0  0
M  END
> <CdId>
1938

> <Mol Weight>
409.279

> <Formula>
C20H17BrN4O

> <Click_ID>
CLK026_A03 __ __ 

$$$$
