CLK002_D04
 OpenBabel03181419432D

 31 35  0  0  0  0  0  0  0  0999 V2000
   -1.3174   -0.6024    0.0000 C   0  0  0  0  0  0  0  0  0  0  0  0
   -0.6300   -0.2100    0.0000 C   0  0  0  0  0  0  0  0  0  0  0  0
   -2.0473   -0.2100    0.0000 C   0  0  0  0  0  0  0  0  0  0  0  0
   -0.6300   -1.0274    0.0000 C   0  0  0  0  0  0  0  0  0  0  0  0
   -2.0099   -1.0274    0.0000 C   0  0  0  0  0  0  0  0  0  0  0  0
   -0.6300    0.6599    0.0000 C   0  0  0  0  0  0  0  0  0  0  0  0
    0.0950   -0.6024    0.0000 C   0  0  0  0  0  0  0  0  0  0  0  0
   -2.0473    0.6599    0.0000 C   0  0  0  0  0  0  0  0  0  0  0  0
   -0.6300   -1.8699    0.0000 C   0  0  0  0  0  0  0  0  0  0  0  0
   -2.0099   -1.8699    0.0000 C   0  0  0  0  0  0  0  0  0  0  0  0
   -1.3224    1.0474    0.0000 C   0  0  0  0  0  0  0  0  0  0  0  0
    0.0950    1.0474    0.0000 N   0  0  0  0  0  0  0  0  0  0  0  0
    0.8449   -0.2100    0.0000 N   0  0  0  0  0  0  0  0  0  0  0  0
    0.0950   -1.4499    0.0000 O   0  0  0  0  0  0  0  0  0  0  0  0
   -2.7448    1.0474    0.0000 C   0  0  0  0  0  0  0  0  0  0  0  0
   -1.2649   -2.2224    0.0000 C   0  0  0  0  0  0  0  0  0  0  0  0
   -1.3224    1.8724    0.0000 C   0  0  0  0  0  0  0  0  0  0  0  0
    0.8449    0.6599    0.0000 C   0  0  0  0  0  0  0  0  0  0  0  0
    1.5449   -0.6174    0.0000 C   0  0  0  0  0  0  0  0  0  0  0  0
   -2.7448    1.8724    0.0000 C   0  0  0  0  0  0  0  0  0  0  0  0
   -2.0473    2.2924    0.0000 C   0  0  0  0  0  0  0  0  0  0  0  0
    1.5449    1.1124    0.0000 S   0  0  0  0  0  0  0  0  0  0  0  0
    2.2798   -0.2100    0.0000 C   0  0  0  0  0  0  0  0  0  0  0  0
    1.5624   -1.4424    0.0000 C   0  0  0  0  0  0  0  0  0  0  0  0
    1.5449    1.9724    0.0000 C   0  0  0  0  0  0  0  0  0  0  0  0
    3.0048   -0.6174    0.0000 C   0  0  0  0  0  0  0  0  0  0  0  0
    2.2698   -1.8849    0.0000 C   0  0  0  0  0  0  0  0  0  0  0  0
    0.8375    2.3649    0.0000 C   0  0  0  0  0  0  0  0  0  0  0  0
    2.9948   -1.4524    0.0000 C   0  0  0  0  0  0  0  0  0  0  0  0
    0.1325    2.7698    0.0000 C   0  0  0  0  0  0  0  0  0  0  0  0
    3.7073   -1.8599    0.0000 C   0  0  0  0  0  0  0  0  0  0  0  0
  1  2  1  0  0  0  0
  1  3  1  0  0  0  0
  1  4  1  0  0  0  0
  1  5  1  0  0  0  0
  2  6  2  0  0  0  0
  2  7  1  0  0  0  0
  3  8  1  0  0  0  0
  4  9  1  0  0  0  0
  5 10  1  0  0  0  0
  6 11  1  0  0  0  0
  6 12  1  0  0  0  0
  7 13  1  0  0  0  0
  7 14  2  0  0  0  0
  8 15  2  0  0  0  0
  8 11  1  0  0  0  0
  9 16  1  0  0  0  0
 10 16  1  0  0  0  0
 11 17  2  0  0  0  0
 12 18  2  0  0  0  0
 13 19  1  0  0  0  0
 13 18  1  0  0  0  0
 15 20  1  0  0  0  0
 17 21  1  0  0  0  0
 18 22  1  0  0  0  0
 19 23  2  0  0  0  0
 19 24  1  0  0  0  0
 20 21  2  0  0  0  0
 22 25  1  0  0  0  0
 23 26  1  0  0  0  0
 24 27  2  0  0  0  0
 25 28  1  0  0  0  0
 26 29  2  0  0  0  0
 27 29  1  0  0  0  0
 28 30  3  0  0  0  0
 29 31  1  0  0  0  0
M  END
> <CdId>
113

> <Mol Weight>
426.573

> <Formula>
C27H26N2OS

> <Click_ID>
CLK002_D04 __ __ 

$$$$
