CLK024_D04
 OpenBabel03181419432D

 27 29  0  0  0  0  0  0  0  0999 V2000
    1.2379   -0.0241    0.0000 N   0  0  0  0  0  0  0  0  0  0  0  0
    0.6774   -0.6258    0.0000 C   0  0  0  0  0  0  0  0  0  0  0  0
    0.8252    0.7015    0.0000 C   0  0  0  0  0  0  0  0  0  0  0  0
    0.0206    0.5364    0.0000 C   0  0  0  0  0  0  0  0  0  0  0  0
   -1.3754    0.8252    0.0000 C   0  0  0  0  0  0  0  0  0  0  0  0
   -0.0757   -0.2888    0.0000 S   0  0  0  0  0  0  0  0  0  0  0  0
   -2.6992    0.8390    0.0000 N   0  0  0  0  0  0  0  0  0  0  0  0
   -0.5880    1.0866    0.0000 C   0  0  0  0  0  0  0  0  0  0  0  0
   -2.0287    1.3135    0.0000 C   0  0  0  0  0  0  0  0  0  0  0  0
   -1.6367    0.0378    0.0000 C   0  0  0  0  0  0  0  0  0  0  0  0
   -2.4551    0.0481    0.0000 C   0  0  0  0  0  0  0  0  0  0  0  0
    2.0596   -0.1238    0.0000 C   0  0  3  0  0  0  0  0  0  0  0  0
    2.5617    0.5261    0.0000 C   0  0  0  0  0  0  0  0  0  0  0  0
   -4.1056    0.5502    0.0000 C   0  0  0  0  0  0  0  0  0  0  0  0
   -4.6936   -0.0344    0.0000 C   0  0  0  0  0  0  0  0  0  0  0  0
    0.8493   -1.4510    0.0000 O   0  0  0  0  0  0  0  0  0  0  0  0
    1.1622    1.4545    0.0000 O   0  0  0  0  0  0  0  0  0  0  0  0
    2.2488    1.2894    0.0000 O   0  0  0  0  0  0  0  0  0  0  0  0
   -3.4901    1.1003    0.0000 C   0  0  0  0  0  0  0  0  0  0  0  0
    3.3766    0.4264    0.0000 O   0  0  0  0  0  0  0  0  0  0  0  0
   -2.8746   -0.6637    0.0000 C   0  0  0  0  0  0  0  0  0  0  0  0
   -1.2241   -0.6774    0.0000 C   0  0  0  0  0  0  0  0  0  0  0  0
    2.3760   -0.8871    0.0000 C   0  0  0  0  0  0  0  0  0  0  0  0
    3.8786    1.0763    0.0000 C   0  0  0  0  0  0  0  0  0  0  0  0
   -2.4689   -1.3754    0.0000 C   0  0  0  0  0  0  0  0  0  0  0  0
   -1.6505   -1.3891    0.0000 C   0  0  0  0  0  0  0  0  0  0  0  0
    4.6901    0.9765    0.0000 C   0  0  0  0  0  0  0  0  0  0  0  0
  2  1  1  0  0  0  0
  3  1  1  0  0  0  0
  4  3  1  0  0  0  0
  5  8  1  0  0  0  0
  6  2  1  0  0  0  0
  6  4  1  0  0  0  0
  7  9  1  0  0  0  0
  8  4  2  0  0  0  0
  9  5  2  0  0  0  0
 10  5  1  0  0  0  0
 11 10  2  0  0  0  0
 11  7  1  0  0  0  0
 12  1  1  0  0  0  0
 13 12  1  0  0  0  0
 14 19  1  0  0  0  0
 15 14  3  0  0  0  0
 16  2  2  0  0  0  0
 17  3  2  0  0  0  0
 18 13  2  0  0  0  0
 19  7  1  0  0  0  0
 20 13  1  0  0  0  0
 21 11  1  0  0  0  0
 22 10  1  0  0  0  0
 23 12  1  0  0  0  0
 24 20  1  0  0  0  0
 25 26  1  0  0  0  0
 25 21  2  0  0  0  0
 26 22  2  0  0  0  0
 27 24  1  0  0  0  0
M  END
> <CdId>
1809

> <Mol Weight>
382.433

> <Formula>
C20H18N2O4S

> <Click_ID>
CLK024_D04 __ __ 

$$$$
