CLK001_G06
 OpenBabel03181419432D

 31 35  0  0  0  0  0  0  0  0999 V2000
   -0.7961   -0.0066    0.0000 C   0  0  0  0  0  0  0  0  0  0  0  0
   -1.4994   -0.3914    0.0000 C   0  0  0  0  0  0  0  0  0  0  0  0
   -0.7961    0.8028    0.0000 C   0  0  0  0  0  0  0  0  0  0  0  0
   -0.0664   -0.3914    0.0000 C   0  0  0  0  0  0  0  0  0  0  0  0
   -2.1927   -0.0066    0.0000 C   0  0  0  0  0  0  0  0  0  0  0  0
   -0.7961   -0.7961    0.0000 C   0  0  0  0  0  0  0  0  0  0  0  0
   -2.1828   -0.7861    0.0000 C   0  0  0  0  0  0  0  0  0  0  0  0
   -1.4994    1.2340    0.0000 C   0  0  0  0  0  0  0  0  0  0  0  0
   -0.0664    1.2340    0.0000 N   0  0  0  0  0  0  0  0  0  0  0  0
    0.6668   -0.0066    0.0000 N   0  0  0  0  0  0  0  0  0  0  0  0
   -0.0664   -1.2373    0.0000 O   0  0  0  0  0  0  0  0  0  0  0  0
   -2.1927    0.8028    0.0000 C   0  0  0  0  0  0  0  0  0  0  0  0
   -0.7961   -1.6022    0.0000 C   0  0  0  0  0  0  0  0  0  0  0  0
   -2.1828   -1.6022    0.0000 C   0  0  0  0  0  0  0  0  0  0  0  0
   -1.4994    2.0534    0.0000 C   0  0  0  0  0  0  0  0  0  0  0  0
    0.6668    0.8028    0.0000 C   0  0  0  0  0  0  0  0  0  0  0  0
    1.3866   -0.4113    0.0000 C   0  0  0  0  0  0  0  0  0  0  0  0
   -2.9059    1.2340    0.0000 C   0  0  0  0  0  0  0  0  0  0  0  0
   -2.1927    2.4448    0.0000 C   0  0  0  0  0  0  0  0  0  0  0  0
    1.4098    1.1876    0.0000 S   0  0  0  0  0  0  0  0  0  0  0  0
    1.3866   -1.2671    0.0000 C   0  0  0  0  0  0  0  0  0  0  0  0
   -2.9059    2.0534    0.0000 C   0  0  0  0  0  0  0  0  0  0  0  0
    1.4098    2.0202    0.0000 C   0  0  0  0  0  0  0  0  0  0  0  0
    2.1164   -1.6918    0.0000 C   0  0  0  0  0  0  0  0  0  0  0  0
    0.6867    2.4382    0.0000 C   0  0  0  0  0  0  0  0  0  0  0  0
    2.8395   -1.2771    0.0000 C   0  0  0  0  0  0  0  0  0  0  0  0
    2.1097   -2.5177    0.0000 C   0  0  0  0  0  0  0  0  0  0  0  0
   -0.0332    2.8495    0.0000 C   0  0  0  0  0  0  0  0  0  0  0  0
    3.5793   -1.6918    0.0000 C   0  0  0  0  0  0  0  0  0  0  0  0
    2.8296   -2.9490    0.0000 C   0  0  0  0  0  0  0  0  0  0  0  0
    3.5726   -2.5376    0.0000 C   0  0  0  0  0  0  0  0  0  0  0  0
  1  2  1  0  0  0  0
  1  3  2  0  0  0  0
  1  4  1  0  0  0  0
  2  5  1  0  0  0  0
  2  6  1  0  0  0  0
  2  7  1  0  0  0  0
  3  8  1  0  0  0  0
  3  9  1  0  0  0  0
  4 10  1  0  0  0  0
  4 11  2  0  0  0  0
  5 12  1  0  0  0  0
  6 13  1  0  0  0  0
  7 14  1  0  0  0  0
  8 15  2  0  0  0  0
  8 12  1  0  0  0  0
  9 16  2  0  0  0  0
 10 17  1  0  0  0  0
 10 16  1  0  0  0  0
 12 18  2  0  0  0  0
 13 14  1  0  0  0  0
 15 19  1  0  0  0  0
 16 20  1  0  0  0  0
 17 21  1  0  0  0  0
 18 22  1  0  0  0  0
 19 22  2  0  0  0  0
 20 23  1  0  0  0  0
 21 24  1  0  0  0  0
 23 25  1  0  0  0  0
 24 26  2  0  0  0  0
 24 27  1  0  0  0  0
 25 28  3  0  0  0  0
 26 29  1  0  0  0  0
 27 30  2  0  0  0  0
 29 31  2  0  0  0  0
 30 31  1  0  0  0  0
M  END
> <CdId>
65

> <Mol Weight>
426.573

> <Formula>
C27H26N2OS

> <Click_ID>
CLK001_G06 __ __ 

$$$$
