CLK020_A07
 OpenBabel03181419432D

 20 22  0  0  0  0  0  0  0  0999 V2000
    2.6167    0.4208    0.0000 N   0  0  0  0  0  0  0  0  0  0  0  0
    4.9125    1.4750    0.0000 C   0  0  0  0  0  0  0  0  0  0  0  0
    3.9542    0.4208    0.0000 C   0  0  0  0  0  0  0  0  0  0  0  0
    2.8750   -0.3667    0.0000 C   0  0  0  0  0  0  0  0  0  0  0  0
    4.7792    2.8125    0.0000 N   0  0  0  0  0  0  0  0  0  0  0  0
    3.2875    0.9000    0.0000 C   0  0  0  0  0  0  0  0  0  0  0  0
    3.7000   -0.3667    0.0000 N   0  0  0  0  0  0  0  0  0  0  0  0
    4.3667    2.0958    0.0000 C   0  0  0  0  0  0  0  0  0  0  0  0
    4.7417    0.6708    0.0000 C   0  0  0  0  0  0  0  0  0  0  0  0
    5.6750    1.8125    0.0000 C   0  0  0  0  0  0  0  0  0  0  0  0
    5.5917    2.6333    0.0000 C   0  0  0  0  0  0  0  0  0  0  0  0
    4.9417    4.2292    0.0000 C   0  0  0  0  0  0  0  0  0  0  0  0
    5.4750    4.8542    0.0000 C   0  0  0  0  0  0  0  0  0  0  0  0
    2.3792   -1.0375    0.0000 O   0  0  0  0  0  0  0  0  0  0  0  0
    3.2792    1.7250    0.0000 O   0  0  0  0  0  0  0  0  0  0  0  0
    4.4542    3.5708    0.0000 C   0  0  0  0  0  0  0  0  0  0  0  0
    6.2625    3.1125    0.0000 C   0  0  0  0  0  0  0  0  0  0  0  0
    6.4250    1.4625    0.0000 C   0  0  0  0  0  0  0  0  0  0  0  0
    7.0917    1.9583    0.0000 C   0  0  0  0  0  0  0  0  0  0  0  0
    7.0042    2.7750    0.0000 C   0  0  0  0  0  0  0  0  0  0  0  0
  2  9  1  0  0  0  0
  3  6  1  0  0  0  0
  3  7  1  0  0  0  0
  4  1  1  0  0  0  0
  5  8  1  0  0  0  0
  5 11  1  0  0  0  0
  6  1  1  0  0  0  0
  7  4  1  0  0  0  0
  8  2  2  0  0  0  0
  9  3  2  0  0  0  0
 10  2  1  0  0  0  0
 11 10  1  0  0  0  0
 12 16  1  0  0  0  0
 13 12  3  0  0  0  0
 14  4  2  0  0  0  0
 15  6  2  0  0  0  0
 16  5  1  0  0  0  0
 17 11  2  0  0  0  0
 17 20  1  0  0  0  0
 18 10  2  0  0  0  0
 19 18  1  0  0  0  0
 20 19  2  0  0  0  0
M  END
> <CdId>
1482

> <Mol Weight>
265.2667

> <Formula>
C15H11N3O2

> <Click_ID>
CLK020_A07 __ __ 

$$$$
