CLK034_C08
 OpenBabel03181419432D

 29 32  0  0  0  0  0  0  0  0999 V2000
   -4.5958    2.5583    0.0000 C   0  0  0  0  0  0  0  0  0  0  0  0
   -3.8625    2.9833    0.0000 N   0  0  0  0  0  0  0  0  0  0  0  0
   -4.6833    1.7333    0.0000 N   0  0  0  0  0  0  0  0  0  0  0  0
   -5.3208    2.8958    0.0000 S   0  0  0  0  0  0  0  0  0  0  0  0
   -3.1583    4.2125    0.0000 C   0  0  0  0  0  0  0  0  0  0  0  0
   -5.4875    1.5833    0.0000 C   0  0  0  0  0  0  0  0  0  0  0  0
   -0.6250    6.6542    0.0000 N   0  3  0  0  0  0  0  0  0  0  0  0
   -3.8708    3.8000    0.0000 C   0  0  0  0  0  0  0  0  0  0  0  0
   -2.4083    3.8958    0.0000 S   0  0  0  0  0  0  0  0  0  0  0  0
   -5.8958    2.3000    0.0000 C   0  0  0  0  0  0  0  0  0  0  0  0
   -3.0583    5.0292    0.0000 C   0  0  0  0  0  0  0  0  0  0  0  0
   -2.2625    5.2125    0.0000 C   0  0  0  0  0  0  0  0  0  0  0  0
   -1.8458    4.4917    0.0000 C   0  0  0  0  0  0  0  0  0  0  0  0
   -1.0208    5.9167    0.0000 C   0  0  0  0  0  0  0  0  0  0  0  0
   -1.8458    5.9167    0.0000 C   0  0  0  0  0  0  0  0  0  0  0  0
   -4.2583    0.3583    0.0000 C   0  0  0  0  0  0  0  0  0  0  0  0
   -4.4458   -0.4542    0.0000 C   0  0  0  0  0  0  0  0  0  0  0  0
    0.2042    6.6792    0.0000 O   0  5  0  0  0  0  0  0  0  0  0  0
   -1.0708    7.3625    0.0000 O   0  0  0  0  0  0  0  0  0  0  0  0
   -5.9208    0.8833    0.0000 C   0  0  0  0  0  0  0  0  0  0  0  0
   -4.5833    4.2167    0.0000 O   0  0  0  0  0  0  0  0  0  0  0  0
   -1.0083    4.4917    0.0000 C   0  0  0  0  0  0  0  0  0  0  0  0
   -0.5958    5.2042    0.0000 C   0  0  0  0  0  0  0  0  0  0  0  0
   -4.0708    1.1625    0.0000 C   0  0  0  0  0  0  0  0  0  0  0  0
   -6.7042    2.3208    0.0000 C   0  0  0  0  0  0  0  0  0  0  0  0
   -5.5208    0.1458    0.0000 O   0  0  0  0  0  0  0  0  0  0  0  0
   -7.1417    1.6208    0.0000 C   0  0  0  0  0  0  0  0  0  0  0  0
   -6.7292    0.8875    0.0000 C   0  0  0  0  0  0  0  0  0  0  0  0
   -5.9583   -0.5542    0.0000 C   0  0  0  0  0  0  0  0  0  0  0  0
  2  1  2  0  0  0  0
  3  1  1  0  0  0  0
  4  1  1  0  0  0  0
  5  8  1  0  0  0  0
  6  3  1  0  0  0  0
  7 14  1  0  0  0  0
  8  2  1  0  0  0  0
  9  5  1  0  0  0  0
 10  4  1  0  0  0  0
 10  6  2  0  0  0  0
 11  5  2  0  0  0  0
 12 11  1  0  0  0  0
 13  9  1  0  0  0  0
 13 12  2  0  0  0  0
 14 15  2  0  0  0  0
 15 12  1  0  0  0  0
 16 24  1  0  0  0  0
 17 16  3  0  0  0  0
 18  7  1  0  0  0  0
 19  7  2  0  0  0  0
 20  6  1  0  0  0  0
 21  8  2  0  0  0  0
 22 13  1  0  0  0  0
 23 22  2  0  0  0  0
 23 14  1  0  0  0  0
 24  3  1  0  0  0  0
 25 10  1  0  0  0  0
 26 20  1  0  0  0  0
 27 25  2  0  0  0  0
 28 20  2  0  0  0  0
 28 27  1  0  0  0  0
 29 26  1  0  0  0  0
M  END
> <CdId>
2592

> <Mol Weight>
423.465

> <Formula>
C20H13N3O4S2

> <Click_ID>
CLK034_C08 __ __ 

$$$$
