CLK015_G04
 OpenBabel03181419432D

 26 28  0  0  0  0  0  0  0  0999 V2000
    2.1101   -0.2289    0.0000 N   0  0  0  0  0  0  0  0  0  0  0  0
    2.3599   -1.0156    0.0000 C   0  0  0  0  0  0  0  0  0  0  0  0
    6.3471   -0.1665    0.0000 N   0  0  0  0  0  0  0  0  0  0  0  0
    3.4379   -0.2289    0.0000 C   0  0  0  0  0  0  0  0  0  0  0  0
    2.7719    0.2580    0.0000 C   0  0  0  0  0  0  0  0  0  0  0  0
    5.0444    0.1082    0.0000 C   0  0  0  0  0  0  0  0  0  0  0  0
    3.1839   -1.0156    0.0000 S   0  0  0  0  0  0  0  0  0  0  0  0
    6.2597    0.6493    0.0000 C   0  0  0  0  0  0  0  0  0  0  0  0
    5.5980   -0.5036    0.0000 C   0  0  0  0  0  0  0  0  0  0  0  0
    4.2245    0.0250    0.0000 C   0  0  0  0  0  0  0  0  0  0  0  0
    5.4564    0.8241    0.0000 C   0  0  0  0  0  0  0  0  0  0  0  0
    7.0588   -0.5868    0.0000 C   0  0  0  0  0  0  0  0  0  0  0  0
    0.7117   -0.5286    0.0000 C   0  0  0  0  0  0  0  0  0  0  0  0
    7.0588   -1.4109    0.0000 C   0  0  0  0  0  0  0  0  0  0  0  0
    0.1249   -1.1113    0.0000 C   0  0  0  0  0  0  0  0  0  0  0  0
    1.8771   -1.6773    0.0000 O   0  0  0  0  0  0  0  0  0  0  0  0
    2.7719    1.0821    0.0000 O   0  0  0  0  0  0  0  0  0  0  0  0
    1.3277    0.0250    0.0000 C   0  0  0  0  0  0  0  0  0  0  0  0
    7.7705   -1.8147    0.0000 C   0  0  0  0  0  0  0  0  0  0  0  0
    6.8715    1.1987    0.0000 C   0  0  0  0  0  0  0  0  0  0  0  0
    5.4231   -1.3110    0.0000 C   0  0  0  0  0  0  0  0  0  0  0  0
    7.7705   -0.1665    0.0000 C   0  0  0  0  0  0  0  0  0  0  0  0
    7.7663   -2.6470    0.0000 O   0  0  0  0  0  0  0  0  0  0  0  0
    8.4822   -0.5868    0.0000 C   0  0  0  0  0  0  0  0  0  0  0  0
    8.4822   -1.4109    0.0000 C   0  0  0  0  0  0  0  0  0  0  0  0
    8.4780   -3.0591    0.0000 C   0  0  0  0  0  0  0  0  0  0  0  0
  2  1  1  0  0  0  0
  3  9  1  0  0  0  0
  4  5  1  0  0  0  0
  4  7  1  0  0  0  0
  5  1  1  0  0  0  0
  6 10  1  0  0  0  0
  7  2  1  0  0  0  0
  8 11  2  0  0  0  0
  8  3  1  0  0  0  0
  9  6  2  0  0  0  0
 10  4  2  0  0  0  0
 11  6  1  0  0  0  0
 12  3  1  0  0  0  0
 13 18  1  0  0  0  0
 14 12  2  0  0  0  0
 15 13  3  0  0  0  0
 16  2  2  0  0  0  0
 17  5  2  0  0  0  0
 18  1  1  0  0  0  0
 19 14  1  0  0  0  0
 20  8  1  0  0  0  0
 21  9  1  0  0  0  0
 22 12  1  0  0  0  0
 23 19  1  0  0  0  0
 24 22  2  0  0  0  0
 25 24  1  0  0  0  0
 25 19  2  0  0  0  0
 26 23  1  0  0  0  0
M  END
> <CdId>
1139

> <Mol Weight>
366.434

> <Formula>
C20H18N2O3S

> <Click_ID>
CLK015_G04 __ __ 

$$$$
