CLK045A09
 OpenBabel03181419432D

 22 23  0  0  0  0  0  0  0  0999 V2000
    0.2583   -0.1875    0.0000 S    0  0  0  0  0  0  0  0  0  0  0  0
    0.9708    0.2250    0.0000 C    0  0  0  0  0  0  0  0  0  0  0  0
   -0.4583   -0.6000    0.0000 N    0  0  0  0  0  0  0  0  0  0  0  0
    0.9708    1.0500    0.0000 C    0  0  0  0  0  0  0  0  0  0  0  0
   -0.1542    0.5292    0.0000 O    0  0  0  0  0  0  0  0  0  0  0  0
    0.6708   -0.9000    0.0000 O    0  0  0  0  0  0  0  0  0  0  0  0
   -3.3125   -0.6000    0.0000 C    0  0  0  0  0  0  0  0  0  0  0  0
   -4.0292   -1.0125    0.0000 C    0  0  0  0  0  0  0  0  0  0  0  0
    1.6875   -0.1875    0.0000 C    0  0  0  0  0  0  0  0  0  0  0  0
   -1.1708   -0.1875    0.0000 C    0  0  0  0  0  0  0  0  0  0  0  0
    2.4000    0.2250    0.0000 C    0  0  0  0  0  0  0  0  0  0  0  0
    1.6875    1.4625    0.0000 C    0  0  0  0  0  0  0  0  0  0  0  0
   -2.6000   -0.1875    0.0000 C    0  0  0  0  0  0  0  0  0  0  0  0
   -1.8875   -0.6000    0.0000 C    0  0  0  0  0  0  0  0  0  0  0  0
    2.4000    1.0500    0.0000 C    0  0  0  0  0  0  0  0  0  0  0  0
    1.6875    2.2875    0.0000 Br   0  0  0  0  0  0  0  0  0  0  0  0
    1.6875   -1.0125    0.0000 O    0  0  0  0  0  0  0  0  0  0  0  0
   -1.8875    1.0500    0.0000 C    0  0  0  0  0  0  0  0  0  0  0  0
   -1.1708    0.6375    0.0000 C    0  0  0  0  0  0  0  0  0  0  0  0
   -2.6000    0.6375    0.0000 C    0  0  0  0  0  0  0  0  0  0  0  0
    2.4000   -1.4250    0.0000 C    0  0  0  0  0  0  0  0  0  0  0  0
    2.4000   -2.2500    0.0000 C    0  0  0  0  0  0  0  0  0  0  0  0
  2  1  1  0  0  0  0
  3  1  1  0  0  0  0
  4  2  1  0  0  0  0
  5  1  2  0  0  0  0
  6  1  2  0  0  0  0
  7 13  1  0  0  0  0
  8  7  3  0  0  0  0
  9  2  2  0  0  0  0
 10  3  1  0  0  0  0
 11  9  1  0  0  0  0
 12  4  2  0  0  0  0
 12 15  1  0  0  0  0
 13 14  1  0  0  0  0
 14 10  2  0  0  0  0
 15 11  2  0  0  0  0
 16 12  1  0  0  0  0
 17  9  1  0  0  0  0
 18 19  2  0  0  0  0
 19 10  1  0  0  0  0
 20 13  2  0  0  0  0
 20 18  1  0  0  0  0
 21 17  1  0  0  0  0
 22 21  1  0  0  0  0
M  END
> <CdId>
3465

> <Mol Weight>
380.256

> <Formula>
C16H14BrNO3S

> <Click_ID>
CLK045A09 __ __ 

$$$$
