CLK045A08
 OpenBabel03181419432D

 22 24  0  0  0  0  0  0  0  0999 V2000
    1.5875   -1.2167    0.0000 N   0  0  0  0  0  0  0  0  0  0  0  0
    1.5875   -0.3917    0.0000 C   0  0  0  0  0  0  0  0  0  0  0  0
    0.8750   -1.6292    0.0000 C   0  0  0  0  0  0  0  0  0  0  0  0
    0.8750    0.0208    0.0000 N   0  0  0  0  0  0  0  0  0  0  0  0
    0.1583   -1.2167    0.0000 C   0  0  0  0  0  0  0  0  0  0  0  0
    0.1583   -0.3917    0.0000 C   0  0  0  0  0  0  0  0  0  0  0  0
    2.3042   -1.6292    0.0000 C   0  0  0  0  0  0  0  0  0  0  0  0
    2.3042    0.0208    0.0000 C   0  0  0  0  0  0  0  0  0  0  0  0
   -3.4125    0.8458    0.0000 C   0  0  0  0  0  0  0  0  0  0  0  0
    3.0167   -1.2167    0.0000 C   0  0  0  0  0  0  0  0  0  0  0  0
   -4.1250    0.4333    0.0000 C   0  0  0  0  0  0  0  0  0  0  0  0
    3.0167   -0.3917    0.0000 C   0  0  0  0  0  0  0  0  0  0  0  0
    0.8750   -2.4542    0.0000 O   0  0  0  0  0  0  0  0  0  0  0  0
   -0.5542    0.8458    0.0000 N   0  0  0  0  0  0  0  0  0  0  0  0
   -0.5542    0.0208    0.0000 C   0  0  0  0  0  0  0  0  0  0  0  0
   -2.6958    1.2583    0.0000 C   0  0  0  0  0  0  0  0  0  0  0  0
   -1.2667    1.2583    0.0000 C   0  0  0  0  0  0  0  0  0  0  0  0
   -1.9833    0.8458    0.0000 C   0  0  0  0  0  0  0  0  0  0  0  0
   -1.9833    2.4958    0.0000 C   0  0  0  0  0  0  0  0  0  0  0  0
    3.7333   -1.6292    0.0000 C   0  0  0  0  0  0  0  0  0  0  0  0
   -2.6958    2.0833    0.0000 C   0  0  0  0  0  0  0  0  0  0  0  0
   -1.2667    2.0833    0.0000 C   0  0  0  0  0  0  0  0  0  0  0  0
  2  1  1  0  0  0  0
  3  1  1  0  0  0  0
  4  2  2  0  0  0  0
  5  3  1  0  0  0  0
  5  6  2  0  0  0  0
  6  4  1  0  0  0  0
  7  1  1  0  0  0  0
  8  2  1  0  0  0  0
  8 12  2  0  0  0  0
  9 16  1  0  0  0  0
 10  7  2  0  0  0  0
 11  9  3  0  0  0  0
 12 10  1  0  0  0  0
 13  3  2  0  0  0  0
 14 15  1  0  0  0  0
 15  6  1  0  0  0  0
 16 18  1  0  0  0  0
 17 14  1  0  0  0  0
 18 17  2  0  0  0  0
 19 22  2  0  0  0  0
 20 10  1  0  0  0  0
 21 16  2  0  0  0  0
 21 19  1  0  0  0  0
 22 17  1  0  0  0  0
M  END
> <CdId>
3457

> <Mol Weight>
289.3312

> <Formula>
C18H15N3O

> <Click_ID>
CLK045A08 __ __ 

$$$$
