CLK024_H02
 OpenBabel03181419432D

 18 20  0  0  0  0  0  0  0  0999 V2000
   -0.7004   -0.0309    0.0000 C   0  0  0  0  0  0  0  0  0  0  0  0
   -1.1879    0.6421    0.0000 C   0  0  0  0  0  0  0  0  0  0  0  0
   -1.1879   -0.7004    0.0000 N   0  0  0  0  0  0  0  0  0  0  0  0
    0.1201    0.0550    0.0000 N   0  0  0  0  0  0  0  0  0  0  0  0
   -1.9707    0.3846    0.0000 C   0  0  0  0  0  0  0  0  0  0  0  0
   -0.8514    1.3905    0.0000 N   0  0  0  0  0  0  0  0  0  0  0  0
   -1.9707   -0.4429    0.0000 C   0  0  0  0  0  0  0  0  0  0  0  0
    0.4567    0.8137    0.0000 C   0  0  0  0  0  0  0  0  0  0  0  0
   -0.0377    1.4797    0.0000 N   0  0  0  0  0  0  0  0  0  0  0  0
    2.5750    0.3158    0.0000 C   0  0  0  0  0  0  0  0  0  0  0  0
    3.3955    0.3158    0.0000 C   0  0  0  0  0  0  0  0  0  0  0  0
    1.2703    0.8926    0.0000 S   0  0  0  0  0  0  0  0  0  0  0  0
   -0.9338   -1.4763    0.0000 C   0  0  0  0  0  0  0  0  0  0  0  0
   -2.6883    0.7931    0.0000 C   0  0  0  0  0  0  0  0  0  0  0  0
    1.7544    0.2301    0.0000 C   0  0  0  0  0  0  0  0  0  0  0  0
   -2.6883   -0.8549    0.0000 C   0  0  0  0  0  0  0  0  0  0  0  0
   -3.3990    0.3846    0.0000 C   0  0  0  0  0  0  0  0  0  0  0  0
   -3.3990   -0.4429    0.0000 C   0  0  0  0  0  0  0  0  0  0  0  0
  2  1  2  0  0  0  0
  3  1  1  0  0  0  0
  4  1  1  0  0  0  0
  5  2  1  0  0  0  0
  5  7  1  0  0  0  0
  6  2  1  0  0  0  0
  7  3  1  0  0  0  0
  8  4  2  0  0  0  0
  9  8  1  0  0  0  0
  9  6  2  0  0  0  0
 10 15  1  0  0  0  0
 11 10  3  0  0  0  0
 12  8  1  0  0  0  0
 13  3  1  0  0  0  0
 14  5  2  0  0  0  0
 15 12  1  0  0  0  0
 16  7  2  0  0  0  0
 17 14  1  0  0  0  0
 17 18  2  0  0  0  0
 18 16  1  0  0  0  0
M  END
> <CdId>
1847

> <Mol Weight>
254.31

> <Formula>
C13H10N4S

> <Click_ID>
CLK024_H02 __ __ 

$$$$
