CLK034_F08
 OpenBabel03181419432D

 31 34  0  0  0  0  0  0  0  0999 V2000
   -4.5756    2.5457    0.0000 C   0  0  0  0  0  0  0  0  0  0  0  0
   -3.8643    2.9658    0.0000 N   0  0  0  0  0  0  0  0  0  0  0  0
   -4.6754    1.7304    0.0000 N   0  0  0  0  0  0  0  0  0  0  0  0
   -1.0066    3.7894    0.0000 N   0  0  0  0  0  0  0  0  0  0  0  0
   -5.3118    2.8909    0.0000 S   0  0  0  0  0  0  0  0  0  0  0  0
   -5.4782    1.5723    0.0000 C   0  0  0  0  0  0  0  0  0  0  0  0
   -5.8858    2.2919    0.0000 C   0  0  0  0  0  0  0  0  0  0  0  0
   -3.8643    3.7936    0.0000 C   0  0  0  0  0  0  0  0  0  0  0  0
   -1.7179    4.2054    0.0000 C   0  0  0  0  0  0  0  0  0  0  0  0
   -0.9609    2.9658    0.0000 C   0  0  0  0  0  0  0  0  0  0  0  0
   -0.2371    4.0848    0.0000 C   0  0  0  0  0  0  0  0  0  0  0  0
   -2.4334    3.8019    0.0000 C   0  0  0  0  0  0  0  0  0  0  0  0
   -3.1530    4.2054    0.0000 C   0  0  0  0  0  0  0  0  0  0  0  0
   -4.2428    0.3494    0.0000 C   0  0  0  0  0  0  0  0  0  0  0  0
   -4.4258   -0.4617    0.0000 C   0  0  0  0  0  0  0  0  0  0  0  0
   -5.9025    0.8693    0.0000 C   0  0  0  0  0  0  0  0  0  0  0  0
   -4.5880    4.1971    0.0000 O   0  0  0  0  0  0  0  0  0  0  0  0
   -0.1456    2.7661    0.0000 C   0  0  0  0  0  0  0  0  0  0  0  0
    0.2912    3.4649    0.0000 C   0  0  0  0  0  0  0  0  0  0  0  0
   -1.5931    2.4541    0.0000 O   0  0  0  0  0  0  0  0  0  0  0  0
   -0.0208    4.8792    0.0000 O   0  0  0  0  0  0  0  0  0  0  0  0
   -4.0556    1.1563    0.0000 C   0  0  0  0  0  0  0  0  0  0  0  0
   -6.6929    2.3086    0.0000 C   0  0  0  0  0  0  0  0  0  0  0  0
   -1.7096    5.0207    0.0000 C   0  0  0  0  0  0  0  0  0  0  0  0
   -5.5115    0.1373    0.0000 O   0  0  0  0  0  0  0  0  0  0  0  0
   -3.1447    5.0332    0.0000 C   0  0  0  0  0  0  0  0  0  0  0  0
   -2.4292    5.4450    0.0000 C   0  0  0  0  0  0  0  0  0  0  0  0
   -7.1296    1.6056    0.0000 C   0  0  0  0  0  0  0  0  0  0  0  0
   -6.7178    0.8818    0.0000 C   0  0  0  0  0  0  0  0  0  0  0  0
   -5.9358   -0.5657    0.0000 C   0  0  0  0  0  0  0  0  0  0  0  0
   -5.5531   -1.2770    0.0000 C   0  0  0  0  0  0  0  0  0  0  0  0
  2  1  2  0  0  0  0
  3  1  1  0  0  0  0
  4  9  1  0  0  0  0
  5  1  1  0  0  0  0
  6  3  1  0  0  0  0
  7  5  1  0  0  0  0
  7  6  2  0  0  0  0
  8  2  1  0  0  0  0
  9 12  1  0  0  0  0
  9 24  2  0  0  0  0
 10  4  1  0  0  0  0
 11  4  1  0  0  0  0
 12 13  2  0  0  0  0
 13  8  1  0  0  0  0
 14 22  1  0  0  0  0
 15 14  3  0  0  0  0
 16  6  1  0  0  0  0
 17  8  2  0  0  0  0
 18 10  1  0  0  0  0
 18 19  1  0  0  0  0
 19 11  1  0  0  0  0
 20 10  2  0  0  0  0
 21 11  2  0  0  0  0
 22  3  1  0  0  0  0
 23  7  1  0  0  0  0
 24 27  1  0  0  0  0
 25 16  1  0  0  0  0
 26 13  1  0  0  0  0
 27 26  2  0  0  0  0
 28 23  2  0  0  0  0
 29 16  2  0  0  0  0
 29 28  1  0  0  0  0
 30 25  1  0  0  0  0
 31 30  1  0  0  0  0
M  END
> <CdId>
2622

> <Mol Weight>
433.48

> <Formula>
C23H19N3O4S

> <Click_ID>
CLK034_F08 __ __ 

$$$$
