CLK010_B09
 OpenBabel03181419432D

 28 30  0  0  0  0  0  0  0  0999 V2000
    3.4814   -5.9138    0.0000 N    0  0  0  0  0  0  0  0  0  0  0  0
    2.7668   -4.6770    0.0000 C    0  0  0  0  0  0  0  0  0  0  0  0
    3.4814   -5.0893    0.0000 C    0  0  0  0  0  0  0  0  0  0  0  0
    2.7668   -6.3261    0.0000 C    0  0  0  0  0  0  0  0  0  0  0  0
    2.0522   -5.9138    0.0000 N    0  0  0  0  0  0  0  0  0  0  0  0
    2.0522   -5.0893    0.0000 C    0  0  0  0  0  0  0  0  0  0  0  0
    2.7668   -3.8525    0.0000 C    0  0  0  0  0  0  0  0  0  0  0  0
    4.1960   -6.3261    0.0000 C    0  0  0  0  0  0  0  0  0  0  0  0
    2.0522   -3.4402    0.0000 C    0  0  0  0  0  0  0  0  0  0  0  0
    3.4814   -0.9666    0.0000 C    0  0  0  0  0  0  0  0  0  0  0  0
    2.7668   -7.1506    0.0000 O    0  0  0  0  0  0  0  0  0  0  0  0
    4.1960   -4.6770    0.0000 O    0  0  0  0  0  0  0  0  0  0  0  0
    3.4814   -0.1420    0.0000 C    0  0  0  0  0  0  0  0  0  0  0  0
    1.3376   -4.6770    0.0000 O    0  0  0  0  0  0  0  0  0  0  0  0
    2.0522   -2.6157    0.0000 C    0  0  0  0  0  0  0  0  0  0  0  0
    1.3376   -3.8525    0.0000 C    0  0  0  0  0  0  0  0  0  0  0  0
    4.1960   -7.1506    0.0000 C    0  0  0  0  0  0  0  0  0  0  0  0
    1.3376   -2.2034    0.0000 C    0  0  0  0  0  0  0  0  0  0  0  0
    0.6230   -3.4402    0.0000 C    0  0  0  0  0  0  0  0  0  0  0  0
    0.6230   -2.6157    0.0000 C    0  0  0  0  0  0  0  0  0  0  0  0
   -0.0916   -3.8525    0.0000 Br   0  0  0  0  0  0  0  0  0  0  0  0
    2.7668   -2.2034    0.0000 O    0  0  0  0  0  0  0  0  0  0  0  0
    2.7668   -1.3789    0.0000 C    0  0  0  0  0  0  0  0  0  0  0  0
    4.9106   -5.9138    0.0000 C    0  0  0  0  0  0  0  0  0  0  0  0
    3.4814   -7.5629    0.0000 C    0  0  0  0  0  0  0  0  0  0  0  0
    4.9106   -7.5629    0.0000 C    0  0  0  0  0  0  0  0  0  0  0  0
    5.6252   -6.3261    0.0000 C    0  0  0  0  0  0  0  0  0  0  0  0
    5.6252   -7.1506    0.0000 C    0  0  0  0  0  0  0  0  0  0  0  0
  2  3  1  0  0  0  0
  3  1  1  0  0  0  0
  4  1  1  0  0  0  0
  5  4  1  0  0  0  0
  6  5  1  0  0  0  0
  6  2  1  0  0  0  0
  7  2  2  0  0  0  0
  8  1  1  0  0  0  0
  9  7  1  0  0  0  0
 10 23  1  0  0  0  0
 11  4  2  0  0  0  0
 12  3  2  0  0  0  0
 13 10  3  0  0  0  0
 14  6  2  0  0  0  0
 15  9  1  0  0  0  0
 16  9  2  0  0  0  0
 17  8  1  0  0  0  0
 18 15  2  0  0  0  0
 19 16  1  0  0  0  0
 20 19  2  0  0  0  0
 20 18  1  0  0  0  0
 21 19  1  0  0  0  0
 22 15  1  0  0  0  0
 23 22  1  0  0  0  0
 24  8  2  0  0  0  0
 25 17  1  0  0  0  0
 26 17  2  0  0  0  0
 26 28  1  0  0  0  0
 27 24  1  0  0  0  0
 28 27  2  0  0  0  0
M  END
> <CdId>
694

> <Mol Weight>
439.259

> <Formula>
C21H15BrN2O4

> <Click_ID>
CLK010_B09 __ __ 

$$$$
