CLK025_B04
 OpenBabel03181419432D

 28 30  0  0  0  0  0  0  0  0999 V2000
    1.4270    0.3851    0.0000 C   0  0  0  0  0  0  0  0  0  0  0  0
    1.5096   -0.4333    0.0000 C   0  0  0  0  0  0  0  0  0  0  0  0
    2.3176   -0.6018    0.0000 N   0  0  0  0  0  0  0  0  0  0  0  0
    2.1801    0.7221    0.0000 C   0  0  0  0  0  0  0  0  0  0  0  0
   -2.1457   -0.8494    0.0000 N   0  3  0  0  0  0  0  0  0  0  0  0
    2.7302    0.1135    0.0000 C   0  0  0  0  0  0  0  0  0  0  0  0
    0.7118    0.7978    0.0000 N   0  0  0  0  0  0  0  0  0  0  0  0
   -2.8609   -0.4367    0.0000 C   0  0  0  0  0  0  0  0  0  0  0  0
   -0.7153    0.7978    0.0000 C   0  0  0  0  0  0  0  0  0  0  0  0
    0.0000    0.3851    0.0000 N   0  0  0  0  0  0  0  0  0  0  0  0
    3.4730   -1.4511    0.0000 C   0  0  0  0  0  0  0  0  0  0  0  0
    4.2879   -1.5371    0.0000 C   0  0  0  0  0  0  0  0  0  0  0  0
   -2.1457   -1.6746    0.0000 O   0  5  0  0  0  0  0  0  0  0  0  0
    0.8906   -0.9868    0.0000 O   0  0  0  0  0  0  0  0  0  0  0  0
   -2.8609    0.3851    0.0000 C   0  0  0  0  0  0  0  0  0  0  0  0
   -1.4304   -0.4367    0.0000 O   0  0  0  0  0  0  0  0  0  0  0  0
   -2.1457    0.7978    0.0000 O   0  0  0  0  0  0  0  0  0  0  0  0
    2.6512   -1.3582    0.0000 C   0  0  0  0  0  0  0  0  0  0  0  0
   -0.7153    1.6230    0.0000 O   0  0  0  0  0  0  0  0  0  0  0  0
   -1.4304    0.3851    0.0000 C   0  0  0  0  0  0  0  0  0  0  0  0
    2.4311    1.5061    0.0000 C   0  0  0  0  0  0  0  0  0  0  0  0
   -3.5830   -0.8494    0.0000 C   0  0  0  0  0  0  0  0  0  0  0  0
    3.5315    0.2751    0.0000 C   0  0  0  0  0  0  0  0  0  0  0  0
   -3.5830    0.8046    0.0000 C   0  0  0  0  0  0  0  0  0  0  0  0
    3.2426    1.6780    0.0000 C   0  0  0  0  0  0  0  0  0  0  0  0
   -4.2914   -0.4367    0.0000 C   0  0  0  0  0  0  0  0  0  0  0  0
    3.7927    1.0591    0.0000 C   0  0  0  0  0  0  0  0  0  0  0  0
   -4.2914    0.3851    0.0000 C   0  0  0  0  0  0  0  0  0  0  0  0
  2  1  1  0  0  0  0
  3  2  1  0  0  0  0
  3  6  1  0  0  0  0
  4  1  1  0  0  0  0
  5  8  1  0  0  0  0
  6  4  2  0  0  0  0
  7  1  2  0  0  0  0
  8 15  2  0  0  0  0
  9 10  1  0  0  0  0
 10  7  1  0  0  0  0
 11 18  1  0  0  0  0
 12 11  3  0  0  0  0
 13  5  1  0  0  0  0
 14  2  2  0  0  0  0
 15 17  1  0  0  0  0
 16  5  2  0  0  0  0
 17 20  1  0  0  0  0
 18  3  1  0  0  0  0
 19  9  2  0  0  0  0
 20  9  1  0  0  0  0
 21  4  1  0  0  0  0
 22  8  1  0  0  0  0
 23  6  1  0  0  0  0
 23 27  2  0  0  0  0
 24 15  1  0  0  0  0
 25 21  2  0  0  0  0
 26 28  1  0  0  0  0
 26 22  2  0  0  0  0
 27 25  1  0  0  0  0
 28 24  2  0  0  0  0
M  END
> <CdId>
1869

> <Mol Weight>
378.3383

> <Formula>
C19H14N4O5

> <Click_ID>
CLK025_B04 __ __ 

$$$$
