CLK026_C02
 OpenBabel03181419432D

 22 23  0  0  0  0  0  0  0  0999 V2000
    0.8562   -0.2238    0.0000 C   0  0  0  0  0  0  0  0  0  0  0  0
    1.5704    0.1954    0.0000 C   0  0  0  0  0  0  0  0  0  0  0  0
    0.1421    0.1741    0.0000 C   0  0  0  0  0  0  0  0  0  0  0  0
    1.5988   -2.2738    0.0000 C   0  0  0  0  0  0  0  0  0  0  0  0
    2.3129   -2.6823    0.0000 C   0  0  0  0  0  0  0  0  0  0  0  0
    1.5561    1.0196    0.0000 C   0  0  0  0  0  0  0  0  0  0  0  0
    0.1279    0.9983    0.0000 C   0  0  0  0  0  0  0  0  0  0  0  0
    0.8384    1.4176    0.0000 C   0  0  0  0  0  0  0  0  0  0  0  0
    0.0320    2.6859    0.0000 N   0  0  0  0  0  0  0  0  0  0  0  0
    2.2845   -0.2096    0.0000 I   0  0  0  0  0  0  0  0  0  0  0  0
    0.8278    2.2418    0.0000 C   0  0  0  0  0  0  0  0  0  0  0  0
    0.8704   -1.0481    0.0000 O   0  0  0  0  0  0  0  0  0  0  0  0
   -0.5720   -0.2416    0.0000 O   0  0  0  0  0  0  0  0  0  0  0  0
   -0.7354    2.2312    0.0000 C   0  0  0  0  0  0  0  0  0  0  0  0
    1.5845   -1.4495    0.0000 C   0  0  0  0  0  0  0  0  0  0  0  0
   -1.2861    0.1563    0.0000 C   0  0  0  0  0  0  0  0  0  0  0  0
   -1.5312    2.6859    0.0000 C   0  0  0  0  0  0  0  0  0  0  0  0
   -0.7354    1.3216    0.0000 C   0  0  0  0  0  0  0  0  0  0  0  0
   -2.0002   -0.2665    0.0000 C   0  0  0  0  0  0  0  0  0  0  0  0
   -1.5312    0.8704    0.0000 C   0  0  0  0  0  0  0  0  0  0  0  0
   -2.3164    2.2276    0.0000 C   0  0  0  0  0  0  0  0  0  0  0  0
   -2.3164    1.3216    0.0000 C   0  0  0  0  0  0  0  0  0  0  0  0
  2  1  2  0  0  0  0
  3  1  1  0  0  0  0
  4 15  1  0  0  0  0
  5  4  3  0  0  0  0
  6  2  1  0  0  0  0
  6  8  2  0  0  0  0
  7  3  2  0  0  0  0
  8  7  1  0  0  0  0
  9 11  1  0  0  0  0
 10  2  1  0  0  0  0
 11  8  1  0  0  0  0
 12  1  1  0  0  0  0
 13  3  1  0  0  0  0
 14  9  1  0  0  0  0
 15 12  1  0  0  0  0
 16 13  1  0  0  0  0
 17 14  2  0  0  0  0
 18 14  1  0  0  0  0
 19 16  1  0  0  0  0
 20 18  2  0  0  0  0
 21 17  1  0  0  0  0
 22 20  1  0  0  0  0
 22 21  2  0  0  0  0
M  END
> <CdId>
1957

> <Mol Weight>
407.2455

> <Formula>
C18H18INO2

> <Click_ID>
CLK026_C02 __ __ 

$$$$
