CLK019_F11
 OpenBabel03181419432D

 19 18  0  0  0  0  0  0  0  0999 V2000
    8.0300    0.3437    0.0000 Cl   0  0  0  0  0  0  0  0  0  0  0  0
    1.0175    3.9141    0.0000 C    0  0  0  0  0  0  0  0  0  0  0  0
    0.1925    3.9141    0.0000 C    0  0  0  0  0  0  0  0  0  0  0  0
    3.4925    2.4841    0.0000 C    0  0  0  0  0  0  0  0  0  0  0  0
    3.0800    3.1991    0.0000 C    0  0  0  0  0  0  0  0  0  0  0  0
    4.3175    2.4841    0.0000 C    0  0  0  0  0  0  0  0  0  0  0  0
    5.9675    3.9141    0.0000 N    0  0  0  0  0  0  0  0  0  0  0  0
    3.4925    3.9141    0.0000 C    0  0  0  0  0  0  0  0  0  0  0  0
    4.7300    3.1991    0.0000 C    0  0  0  0  0  0  0  0  0  0  0  0
    5.5550    3.1991    0.0000 C    0  0  0  0  0  0  0  0  0  0  0  0
    4.3175    3.9141    0.0000 C    0  0  0  0  0  0  0  0  0  0  0  0
    3.0800    1.7691    0.0000 O    0  0  0  0  0  0  0  0  0  0  0  0
    2.2550    3.1991    0.0000 O    0  0  0  0  0  0  0  0  0  0  0  0
    1.8425    3.9141    0.0000 C    0  0  0  0  0  0  0  0  0  0  0  0
    6.7925    3.9141    0.0000 C    0  0  0  0  0  0  0  0  0  0  0  0
    3.4925    1.0541    0.0000 C    0  0  0  0  0  0  0  0  0  0  0  0
    7.2050    4.6246    0.0000 C    0  0  0  0  0  0  0  0  0  0  0  0
    7.2050    3.1991    0.0000 C    0  0  0  0  0  0  0  0  0  0  0  0
    3.0800    0.3437    0.0000 C    0  0  0  0  0  0  0  0  0  0  0  0
  3  2  3  0  0  0  0
  4  5  2  0  0  0  0
  5 13  1  0  0  0  0
  6  4  1  0  0  0  0
  7 10  1  0  0  0  0
  8  5  1  0  0  0  0
  9 11  1  0  0  0  0
  9  6  2  0  0  0  0
 10  9  1  0  0  0  0
 11  8  2  0  0  0  0
 12  4  1  0  0  0  0
 13 14  1  0  0  0  0
 14  2  1  0  0  0  0
 15  7  1  0  0  0  0
 16 12  1  0  0  0  0
 17 15  1  0  0  0  0
 18 15  1  0  0  0  0
 19 16  1  0  0  0  0
M  END
> <CdId>
1456

> <Mol Weight>
283.794

> <Formula>
C15H22ClNO2

> <Click_ID>
CLK019_F11 __ __ 

$$$$
