CLK021_C02
 OpenBabel03181419432D

 21 22  0  0  0  0  0  0  0  0999 V2000
    4.3472    1.9789    0.0000 C   0  0  0  0  0  0  0  0  0  0  0  0
    4.7595    1.2643    0.0000 C   0  0  0  0  0  0  0  0  0  0  0  0
    3.5227    1.9789    0.0000 C   0  0  0  0  0  0  0  0  0  0  0  0
    4.7595    2.7026    0.0000 C   0  0  0  0  0  0  0  0  0  0  0  0
    5.5840    1.2643    0.0000 O   0  0  0  0  0  0  0  0  0  0  0  0
    3.1104    2.7026    0.0000 N   0  0  0  0  0  0  0  0  0  0  0  0
    5.5840    2.7026    0.0000 C   0  0  0  0  0  0  0  0  0  0  0  0
    5.9963    1.9789    0.0000 C   0  0  0  0  0  0  0  0  0  0  0  0
    2.0751    3.4906    0.0000 C   0  0  0  0  0  0  0  0  0  0  0  0
    1.8598    4.2876    0.0000 C   0  0  0  0  0  0  0  0  0  0  0  0
    2.2859    2.7026    0.0000 C   0  0  0  0  0  0  0  0  0  0  0  0
    4.3472    0.5497    0.0000 O   0  0  0  0  0  0  0  0  0  0  0  0
    3.1104    1.2643    0.0000 O   0  0  0  0  0  0  0  0  0  0  0  0
    5.9963    3.4172    0.0000 C   0  0  0  0  0  0  0  0  0  0  0  0
    6.8208    1.9789    0.0000 C   0  0  0  0  0  0  0  0  0  0  0  0
    1.4751    2.5515    0.0000 C   0  0  0  0  0  0  0  0  0  0  0  0
    2.3546    1.8781    0.0000 C   0  0  0  0  0  0  0  0  0  0  0  0
    0.9482    3.1836    0.0000 C   0  0  0  0  0  0  0  0  0  0  0  0
    1.6812    1.4017    0.0000 C   0  0  0  0  0  0  0  0  0  0  0  0
    7.2331    2.7026    0.0000 C   0  0  0  0  0  0  0  0  0  0  0  0
    6.8208    3.4172    0.0000 C   0  0  0  0  0  0  0  0  0  0  0  0
  2  1  1  0  0  0  0
  3  1  1  0  0  0  0
  4  1  2  0  0  0  0
  5  2  1  0  0  0  0
  6  3  1  0  0  0  0
  7  4  1  0  0  0  0
  8  7  1  0  0  0  0
  8  5  1  0  0  0  0
  9 11  1  0  0  0  0
 10  9  3  0  0  0  0
 11  6  1  0  0  0  0
 12  2  2  0  0  0  0
 13  3  2  0  0  0  0
 14  7  2  0  0  0  0
 15  8  2  0  0  0  0
 15 20  1  0  0  0  0
 16 11  1  0  0  0  0
 17 11  1  0  0  0  0
 18 16  1  0  0  0  0
 19 17  1  0  0  0  0
 20 21  2  0  0  0  0
 21 14  1  0  0  0  0
M  END
> <CdId>
1577

> <Mol Weight>
283.3218

> <Formula>
C17H17NO3

> <Click_ID>
CLK021_C02 __ __ 

$$$$
