CLK001_H11
 OpenBabel03181419432D

 26 27  0  0  0  0  0  0  0  0999 V2000
   -0.0483   -0.6454    0.0000 C    0  0  0  0  0  0  0  0  0  0  0  0
   -0.0553   -1.4704    0.0000 C    0  0  0  0  0  0  0  0  0  0  0  0
    0.6696   -0.2312    0.0000 C    0  0  0  0  0  0  0  0  0  0  0  0
   -0.7697   -0.2243    0.0000 C    0  0  0  0  0  0  0  0  0  0  0  0
   -0.7731   -1.8880    0.0000 C    0  0  0  0  0  0  0  0  0  0  0  0
    0.6696    0.5937    0.0000 C    0  0  0  0  0  0  0  0  0  0  0  0
   -1.4876   -0.6351    0.0000 C    0  0  0  0  0  0  0  0  0  0  0  0
   -1.4876   -1.4600    0.0000 C    0  0  0  0  0  0  0  0  0  0  0  0
   -0.7731   -2.7128    0.0000 O    0  0  0  0  0  0  0  0  0  0  0  0
    1.3841    1.0078    0.0000 C    0  0  0  0  0  0  0  0  0  0  0  0
   -0.0483    1.0078    0.0000 C    0  0  0  0  0  0  0  0  0  0  0  0
   -2.1987   -0.2243    0.0000 Br   0  0  0  0  0  0  0  0  0  0  0  0
   -2.2090   -1.8742    0.0000 O    0  0  0  0  0  0  0  0  0  0  0  0
   -1.4945   -3.1270    0.0000 C    0  0  0  0  0  0  0  0  0  0  0  0
    2.0951    0.5937    0.0000 N    0  0  0  0  0  0  0  0  0  0  0  0
    1.3841    1.8327    0.0000 O    0  0  0  0  0  0  0  0  0  0  0  0
   -0.7593    1.4185    0.0000 N    0  0  0  0  0  0  0  0  0  0  0  0
   -2.9199   -1.4600    0.0000 C    0  0  0  0  0  0  0  0  0  0  0  0
    2.8095    1.0078    0.0000 C    0  0  0  0  0  0  0  0  0  0  0  0
   -3.6482   -1.8707    0.0000 C    0  0  0  0  0  0  0  0  0  0  0  0
    2.8095    1.8293    0.0000 C    0  0  3  0  0  0  0  0  0  0  0  0
   -4.3593   -2.2849    0.0000 C    0  0  0  0  0  0  0  0  0  0  0  0
    2.1434    2.3091    0.0000 C    0  0  0  0  0  0  0  0  0  0  0  0
    3.4687    2.3160    0.0000 O    0  0  0  0  0  0  0  0  0  0  0  0
    2.3919    3.0926    0.0000 C    0  0  0  0  0  0  0  0  0  0  0  0
    3.2099    3.0926    0.0000 C    0  0  0  0  0  0  0  0  0  0  0  0
  1  2  2  0  0  0  0
  1  3  1  0  0  0  0
  1  4  1  0  0  0  0
  2  5  1  0  0  0  0
  3  6  2  0  0  0  0
  4  7  2  0  0  0  0
  5  8  2  0  0  0  0
  5  9  1  0  0  0  0
  6 10  1  0  0  0  0
  6 11  1  0  0  0  0
  7 12  1  0  0  0  0
  7  8  1  0  0  0  0
  8 13  1  0  0  0  0
  9 14  1  0  0  0  0
 10 15  1  0  0  0  0
 10 16  2  0  0  0  0
 11 17  3  0  0  0  0
 13 18  1  0  0  0  0
 15 19  1  0  0  0  0
 18 20  1  0  0  0  0
 19 21  1  0  0  0  0
 20 22  3  0  0  0  0
 21 23  1  0  0  0  0
 21 24  1  0  0  0  0
 23 25  1  0  0  0  0
 24 26  1  0  0  0  0
 25 26  1  0  0  0  0
M  END
> <CdId>
80

> <Mol Weight>
419.269

> <Formula>
C19H19BrN2O4

> <Click_ID>
CLK001_H11 __ __ 

$$$$
