CLK046C05
 OpenBabel03181419432D

 17 18  0  0  0  0  0  0  0  0999 V2000
    0.3461   -1.3095    0.0000 C    0  0  0  0  0  0  0  0  0  0  0  0
    0.0918   -0.5255    0.0000 C    0  0  0  0  0  0  0  0  0  0  0  0
   -0.1376   -1.9768    0.0000 O    0  0  0  0  0  0  0  0  0  0  0  0
    0.3461   -2.6441    0.0000 C    0  0  0  0  0  0  0  0  0  0  0  0
    1.1302   -1.5639    0.0000 C    0  0  0  0  0  0  0  0  0  0  0  0
    0.6423    0.0876    0.0000 N    0  0  0  0  0  0  0  0  0  0  0  0
   -1.4806    2.0018    0.0000 C    0  0  0  0  0  0  0  0  0  0  0  0
    1.1302   -2.3897    0.0000 C    0  0  0  0  0  0  0  0  0  0  0  0
   -2.2896    2.1770    0.0000 C    0  0  0  0  0  0  0  0  0  0  0  0
   -0.7174   -0.3545    0.0000 O    0  0  0  0  0  0  0  0  0  0  0  0
    0.3879    0.8758    0.0000 C    0  0  0  0  0  0  0  0  0  0  0  0
   -0.6756    1.8309    0.0000 C    0  0  0  0  0  0  0  0  0  0  0  0
    0.0918   -3.4323    0.0000 Cl   0  0  0  0  0  0  0  0  0  0  0  0
   -0.4171    1.0468    0.0000 C    0  0  0  0  0  0  0  0  0  0  0  0
    0.6881    2.2729    0.0000 C    0  0  0  0  0  0  0  0  0  0  0  0
    0.9426    1.4889    0.0000 C    0  0  0  0  0  0  0  0  0  0  0  0
   -0.1209    2.4439    0.0000 C    0  0  0  0  0  0  0  0  0  0  0  0
  2  1  1  0  0  0  0
  3  1  1  0  0  0  0
  4  3  1  0  0  0  0
  5  1  2  0  0  0  0
  6  2  1  0  0  0  0
  7 12  1  0  0  0  0
  8  5  1  0  0  0  0
  8  4  2  0  0  0  0
  9  7  3  0  0  0  0
 10  2  2  0  0  0  0
 11  6  1  0  0  0  0
 12 14  1  0  0  0  0
 13  4  1  0  0  0  0
 14 11  2  0  0  0  0
 15 16  2  0  0  0  0
 16 11  1  0  0  0  0
 17 12  2  0  0  0  0
 17 15  1  0  0  0  0
M  END
> <CdId>
3515

> <Mol Weight>
245.661

> <Formula>
C13H8ClNO2

> <Click_ID>
CLK046C05 __ __ 

$$$$
