CLK015_A02
 OpenBabel03181419432D

 25 26  0  0  0  0  0  0  0  0999 V2000
    3.7205   -0.6514    0.0000 N    0  0  0  0  0  0  0  0  0  0  0  0
    3.9710   -1.4406    0.0000 C    0  0  0  0  0  0  0  0  0  0  0  0
    4.3844   -0.1671    0.0000 C    0  0  0  0  0  0  0  0  0  0  0  0
    5.0525   -0.6514    0.0000 C    0  0  0  0  0  0  0  0  0  0  0  0
    4.7978   -1.4406    0.0000 S    0  0  0  0  0  0  0  0  0  0  0  0
    5.8417   -0.3925    0.0000 C    0  0  0  0  0  0  0  0  0  0  0  0
    6.3428    2.0251    0.0000 C    0  0  0  0  0  0  0  0  0  0  0  0
    6.9524    1.4740    0.0000 C    0  0  0  0  0  0  0  0  0  0  0  0
    5.5661    1.7663    0.0000 C    0  0  0  0  0  0  0  0  0  0  0  0
    2.9355   -0.3925    0.0000 C    0  0  0  0  0  0  0  0  0  0  0  0
    6.0129    0.4092    0.0000 C    0  0  0  0  0  0  0  0  0  0  0  0
    7.4910    3.8791    0.0000 C    0  0  0  0  0  0  0  0  0  0  0  0
    7.6706    4.6642    0.0000 C    0  0  0  0  0  0  0  0  0  0  0  0
    2.3175   -0.9520    0.0000 C    0  0  0  0  0  0  0  0  0  0  0  0
    3.4867   -2.1087    0.0000 O    0  0  0  0  0  0  0  0  0  0  0  0
    4.3844    0.6597    0.0000 O    0  0  0  0  0  0  0  0  0  0  0  0
    5.3907    0.9604    0.0000 C    0  0  0  0  0  0  0  0  0  0  0  0
    6.7812    0.6597    0.0000 C    0  0  0  0  0  0  0  0  0  0  0  0
    2.4928   -1.7580    0.0000 O    0  0  0  0  0  0  0  0  0  0  0  0
    7.7332    1.7162    0.0000 Cl   0  0  0  0  0  0  0  0  0  0  0  0
    4.9648    2.3258    0.0000 Cl   0  0  0  0  0  0  0  0  0  0  0  0
    6.5265    2.8268    0.0000 O    0  0  0  0  0  0  0  0  0  0  0  0
    1.5325   -0.6932    0.0000 O    0  0  0  0  0  0  0  0  0  0  0  0
    7.3073    3.0691    0.0000 C    0  0  0  0  0  0  0  0  0  0  0  0
    1.3571    0.1085    0.0000 C    0  0  0  0  0  0  0  0  0  0  0  0
  2  1  1  0  0  0  0
  3  1  1  0  0  0  0
  4  3  1  0  0  0  0
  5  2  1  0  0  0  0
  5  4  1  0  0  0  0
  6  4  2  0  0  0  0
  7  8  1  0  0  0  0
  8 18  2  0  0  0  0
  9 17  1  0  0  0  0
  9  7  2  0  0  0  0
 10  1  1  0  0  0  0
 11  6  1  0  0  0  0
 12 24  1  0  0  0  0
 13 12  3  0  0  0  0
 14 10  1  0  0  0  0
 15  2  2  0  0  0  0
 16  3  2  0  0  0  0
 17 11  2  0  0  0  0
 18 11  1  0  0  0  0
 19 14  2  0  0  0  0
 20  8  1  0  0  0  0
 21  9  1  0  0  0  0
 22  7  1  0  0  0  0
 23 14  1  0  0  0  0
 24 22  1  0  0  0  0
 25 23  1  0  0  0  0
M  END
> <CdId>
1077

> <Mol Weight>
400.233

> <Formula>
C16H11Cl2NO5S

> <Click_ID>
CLK015_A02 __ __ 

$$$$
