CLK023_H03
 OpenBabel03181419432D

 26 28  0  0  0  0  0  0  0  0999 V2000
    2.3611   -0.3964    0.0000 N   0  0  0  0  0  0  0  0  0  0  0  0
    1.5786   -0.6514    0.0000 C   0  0  0  0  0  0  0  0  0  0  0  0
    2.3611    0.4378    0.0000 C   0  0  0  0  0  0  0  0  0  0  0  0
    1.5786    0.6893    0.0000 C   0  0  0  0  0  0  0  0  0  0  0  0
    1.0961    0.0242    0.0000 N   0  0  0  0  0  0  0  0  0  0  0  0
    1.3201    1.4752    0.0000 C   0  0  0  0  0  0  0  0  0  0  0  0
    3.0746   -0.8100    0.0000 C   0  0  0  0  0  0  0  0  0  0  0  0
   -2.9849    3.1331    0.0000 C   0  0  0  0  0  0  0  0  0  0  0  0
   -3.7915    3.3055    0.0000 C   0  0  0  0  0  0  0  0  0  0  0  0
    1.3201   -1.4408    0.0000 O   0  0  0  0  0  0  0  0  0  0  0  0
    3.0366    0.9272    0.0000 O   0  0  0  0  0  0  0  0  0  0  0  0
    3.0746   -1.6373    0.0000 C   0  0  0  0  0  0  0  0  0  0  0  0
    0.5205    1.6510    0.0000 C   0  0  0  0  0  0  0  0  0  0  0  0
    2.3611   -2.0474    0.0000 C   0  0  0  0  0  0  0  0  0  0  0  0
   -1.0961    2.0026    0.0000 C   0  0  0  0  0  0  0  0  0  0  0  0
   -0.0345    1.0444    0.0000 C   0  0  0  0  0  0  0  0  0  0  0  0
    0.2654    2.4403    0.0000 C   0  0  0  0  0  0  0  0  0  0  0  0
    2.3611   -2.8781    0.0000 C   0  0  0  0  0  0  0  0  0  0  0  0
   -0.8376    1.2167    0.0000 C   0  0  0  0  0  0  0  0  0  0  0  0
   -0.5446    2.6161    0.0000 C   0  0  0  0  0  0  0  0  0  0  0  0
   -2.1715    2.9677    0.0000 C   0  0  0  0  0  0  0  0  0  0  0  0
   -1.9130    2.1784    0.0000 O   0  0  0  0  0  0  0  0  0  0  0  0
    3.7881   -2.8781    0.0000 C   0  0  0  0  0  0  0  0  0  0  0  0
    3.7881   -2.0474    0.0000 C   0  0  0  0  0  0  0  0  0  0  0  0
    3.0746   -3.2917    0.0000 C   0  0  0  0  0  0  0  0  0  0  0  0
    1.6338   -3.3021    0.0000 C   0  0  0  0  0  0  0  0  0  0  0  0
  2  1  1  0  0  0  0
  3  1  1  0  0  0  0
  4  3  1  0  0  0  0
  4  5  1  0  0  0  0
  5  2  1  0  0  0  0
  6  4  2  0  0  0  0
  7  1  1  0  0  0  0
  8 21  1  0  0  0  0
  9  8  3  0  0  0  0
 10  2  2  0  0  0  0
 11  3  2  0  0  0  0
 12  7  1  0  0  0  0
 13  6  1  0  0  0  0
 14 12  2  0  0  0  0
 15 20  2  0  0  0  0
 15 19  1  0  0  0  0
 16 13  1  0  0  0  0
 17 13  2  0  0  0  0
 18 14  1  0  0  0  0
 19 16  2  0  0  0  0
 20 17  1  0  0  0  0
 21 22  1  0  0  0  0
 22 15  1  0  0  0  0
 23 24  2  0  0  0  0
 24 12  1  0  0  0  0
 25 23  1  0  0  0  0
 25 18  2  0  0  0  0
 26 18  1  0  0  0  0
M  END
> <CdId>
1768

> <Mol Weight>
346.3792

> <Formula>
C21H18N2O3

> <Click_ID>
CLK023_H03 __ __ 

$$$$
