CLK002_G04
 OpenBabel03181419432D

 21 23  0  0  0  0  0  0  0  0999 V2000
   -0.1524   -0.2416    0.0000 C   0  0  3  0  0  0  0  0  0  0  0  0
   -0.7618    0.3204    0.0000 C   0  0  0  0  0  0  0  0  0  0  0  0
    0.5622   -0.6042    0.0000 C   0  0  0  0  0  0  0  0  0  0  0  0
   -0.5043   -0.9614    0.0000 O   0  0  0  0  0  0  0  0  0  0  0  0
    0.0893    0.5517    0.0000 O   0  0  0  0  0  0  0  0  0  0  0  0
   -1.4763   -0.1051    0.0000 C   0  0  0  0  0  0  0  0  0  0  0  0
   -0.7775    1.1453    0.0000 C   0  0  0  0  0  0  0  0  0  0  0  0
    1.2450   -0.1680    0.0000 C   0  0  0  0  0  0  0  0  0  0  0  0
    0.5937   -1.4289    0.0000 C   0  0  0  0  0  0  0  0  0  0  0  0
   -1.3135   -0.8984    0.0000 C   0  0  0  0  0  0  0  0  0  0  0  0
    0.8984    0.7145    0.0000 C   0  0  3  0  0  0  0  0  0  0  0  0
   -2.1960    0.3099    0.0000 C   0  0  0  0  0  0  0  0  0  0  0  0
   -1.4973    1.5551    0.0000 C   0  0  0  0  0  0  0  0  0  0  0  0
    1.9963   -0.5463    0.0000 C   0  0  0  0  0  0  0  0  0  0  0  0
    1.3397   -1.8126    0.0000 C   0  0  0  0  0  0  0  0  0  0  0  0
   -1.8440   -1.5184    0.0000 O   0  0  0  0  0  0  0  0  0  0  0  0
    1.1453    1.4973    0.0000 C   0  0  0  0  0  0  0  0  0  0  0  0
    1.4500    0.1262    0.0000 C   0  0  0  0  0  0  0  0  0  0  0  0
   -2.2066    1.1296    0.0000 C   0  0  0  0  0  0  0  0  0  0  0  0
    2.0278   -1.3660    0.0000 C   0  0  0  0  0  0  0  0  0  0  0  0
    1.3974    2.2905    0.0000 C   0  0  0  0  0  0  0  0  0  0  0  0
  1  2  1  0  0  0  0
  1  3  1  0  0  0  0
  1  4  1  0  0  0  0
  1  5  1  0  0  0  0
  2  6  1  0  0  0  0
  2  7  2  0  0  0  0
  3  8  2  0  0  0  0
  3  9  1  0  0  0  0
  4 10  1  0  0  0  0
  5 11  1  0  0  0  0
  6 12  2  0  0  0  0
  6 10  1  0  0  0  0
  7 13  1  0  0  0  0
  8 14  1  0  0  0  0
  9 15  2  0  0  0  0
 10 16  2  0  0  0  0
 11 17  1  0  0  0  0
 11 18  1  0  0  0  0
 12 19  1  0  0  0  0
 13 19  2  0  0  0  0
 14 20  2  0  0  0  0
 15 20  1  0  0  0  0
 17 21  3  0  0  0  0
M  END
> <CdId>
143

> <Mol Weight>
278.302

> <Formula>
C18H14O3

> <Click_ID>
CLK002_G04 __ __ 

$$$$
