CLK027_A05
 OpenBabel03181419432D

 44 48  0  0  0  0  0  0  0  0999 V2000
    0.5441    0.4985    0.0000 N    0  0  0  0  0  0  0  0  0  0  0  0
    0.5441   -0.3265    0.0000 C    0  0  0  0  0  0  0  0  0  0  0  0
    1.2568    0.9093    0.0000 C    0  0  3  0  0  0  0  0  0  0  0  0
    1.9694    0.4985    0.0000 C    0  0  0  0  0  0  0  0  0  0  0  0
   -0.2458    0.7513    0.0000 C    0  0  0  0  0  0  0  0  0  0  0  0
    1.2568   -0.7407    0.0000 N    0  0  0  0  0  0  0  0  0  0  0  0
   -0.7231    0.0843    0.0000 C    0  0  0  0  0  0  0  0  0  0  0  0
    1.9694   -0.3265    0.0000 C    0  0  0  0  0  0  0  0  0  0  0  0
   -0.2458   -0.5862    0.0000 S    0  0  0  0  0  0  0  0  0  0  0  0
    1.2497    2.5662    0.0000 C    0  0  0  0  0  0  0  0  0  0  0  0
   -1.5517    0.0773    0.0000 C    0  0  0  0  0  0  0  0  0  0  0  0
    2.6925    0.9232    0.0000 C    0  0  0  0  0  0  0  0  0  0  0  0
   -2.7839   -2.0677    0.0000 C    0  0  0  0  0  0  0  0  0  0  0  0
    0.5301    2.9734    0.0000 C    0  0  0  0  0  0  0  0  0  0  0  0
   -1.9519   -2.0537    0.0000 C    0  0  0  0  0  0  0  0  0  0  0  0
   -3.1981   -1.3480    0.0000 C    0  0  0  0  0  0  0  0  0  0  0  0
   -1.9589   -0.6284    0.0000 C    0  0  0  0  0  0  0  0  0  0  0  0
   -4.4268   -3.5000    0.0000 C    0  0  0  0  0  0  0  0  0  0  0  0
    1.9659    2.9874    0.0000 C    0  0  0  0  0  0  0  0  0  0  0  0
   -4.8481   -4.2126    0.0000 C    0  0  0  0  0  0  0  0  0  0  0  0
   -0.4950    1.5411    0.0000 O    0  0  0  0  0  0  0  0  0  0  0  0
   -1.5446   -1.3410    0.0000 C    0  0  0  0  0  0  0  0  0  0  0  0
   -2.7839   -0.6354    0.0000 C    0  0  0  0  0  0  0  0  0  0  0  0
    2.6891    1.7482    0.0000 O    0  0  0  0  0  0  0  0  0  0  0  0
    0.5301    3.7878    0.0000 C    0  0  0  0  0  0  0  0  0  0  0  0
    1.9553    3.8089    0.0000 C    0  0  0  0  0  0  0  0  0  0  0  0
    1.2427    4.2126    0.0000 C    0  0  0  0  0  0  0  0  0  0  0  0
   -1.5341   -2.7663    0.0000 Cl   0  0  0  0  0  0  0  0  0  0  0  0
   -3.1981   -2.7803    0.0000 O    0  0  0  0  0  0  0  0  0  0  0  0
    2.6925   -0.7513    0.0000 C    0  0  0  0  0  0  0  0  0  0  0  0
    3.4158    0.5091    0.0000 O    0  0  0  0  0  0  0  0  0  0  0  0
   -4.0231   -1.3550    0.0000 O    0  0  0  0  0  0  0  0  0  0  0  0
    2.6820    2.5732    0.0000 O    0  0  0  0  0  0  0  0  0  0  0  0
   -4.0231   -2.7803    0.0000 C    0  0  0  0  0  0  0  0  0  0  0  0
   -0.1720    2.5627    0.0000 C    0  0  0  0  0  0  0  0  0  0  0  0
   -0.1826    4.1986    0.0000 C    0  0  0  0  0  0  0  0  0  0  0  0
    4.1284    0.9232    0.0000 C    0  0  0  0  0  0  0  0  0  0  0  0
   -4.4373   -0.6389    0.0000 C    0  0  0  0  0  0  0  0  0  0  0  0
    3.3947    2.9874    0.0000 C    0  0  0  0  0  0  0  0  0  0  0  0
    2.6891   -1.5797    0.0000 C    0  0  0  0  0  0  0  0  0  0  0  0
   -0.8847    2.9629    0.0000 C    0  0  0  0  0  0  0  0  0  0  0  0
    4.8445    0.5125    0.0000 C    0  0  0  0  0  0  0  0  0  0  0  0
    3.4017   -1.9905    0.0000 C    0  0  0  0  0  0  0  0  0  0  0  0
   -0.8882    3.7844    0.0000 C    0  0  0  0  0  0  0  0  0  0  0  0
  2  1  1  0  0  0  0
  3  1  1  0  0  0  0
  4  3  1  0  0  0  0
  5  1  1  0  0  0  0
  6  2  2  0  0  0  0
  6  8  1  0  0  0  0
  7  5  1  0  0  0  0
  7  9  1  0  0  0  0
  8  4  2  0  0  0  0
  9  2  1  0  0  0  0
 10  3  1  0  0  0  0
 11  7  2  0  0  0  0
 12  4  1  0  0  0  0
 13 16  2  0  0  0  0
 14 10  1  0  0  0  0
 15 22  2  0  0  0  0
 15 13  1  0  0  0  0
 16 23  1  0  0  0  0
 17 11  1  0  0  0  0
 18 34  1  0  0  0  0
 19 10  2  0  0  0  0
 20 18  3  0  0  0  0
 21  5  2  0  0  0  0
 22 17  1  0  0  0  0
 23 17  2  0  0  0  0
 24 12  2  0  0  0  0
 25 14  1  0  0  0  0
 26 19  1  0  0  0  0
 27 26  2  0  0  0  0
 27 25  1  0  0  0  0
 28 15  1  0  0  0  0
 29 13  1  0  0  0  0
 30  8  1  0  0  0  0
 31 12  1  0  0  0  0
 32 16  1  0  0  0  0
 33 19  1  0  0  0  0
 34 29  1  0  0  0  0
 35 14  2  0  0  0  0
 36 25  2  0  0  0  0
 36 44  1  0  0  0  0
 37 31  1  0  0  0  0
 38 32  1  0  0  0  0
 39 33  1  0  0  0  0
 40 30  1  0  0  0  0
 41 35  1  0  0  0  0
 42 37  1  0  0  0  0
 43 40  1  0  0  0  0
 44 41  2  0  0  0  0
M  END
> <CdId>
2020

> <Mol Weight>
631.138

> <Formula>
C34H31ClN2O6S

> <Click_ID>
CLK027_A05 __ __ 

$$$$
