CLK009_D11
 OpenBabel03181419432D

 17 18  0  0  0  0  0  0  0  0999 V2000
   -3.5290    1.8145    0.0000 N   0  0  0  0  0  0  0  0  0  0  0  0
   -3.5290    2.6335    0.0000 C   0  0  0  0  0  0  0  0  0  0  0  0
   -4.2360    1.3904    0.0000 C   0  0  0  0  0  0  0  0  0  0  0  0
   -4.2360    3.0577    0.0000 N   0  0  0  0  0  0  0  0  0  0  0  0
   -4.9666    1.8145    0.0000 C   0  0  0  0  0  0  0  0  0  0  0  0
   -4.9666    2.6335    0.0000 C   0  0  0  0  0  0  0  0  0  0  0  0
   -2.0503    4.2713    0.0000 C   0  0  0  0  0  0  0  0  0  0  0  0
   -2.0503    5.1020    0.0000 C   0  0  0  0  0  0  0  0  0  0  0  0
   -4.2006    0.5656    0.0000 O   0  0  0  0  0  0  0  0  0  0  0  0
   -2.7866    3.0341    0.0000 S   0  0  0  0  0  0  0  0  0  0  0  0
   -2.8220    1.4140    0.0000 C   0  0  0  0  0  0  0  0  0  0  0  0
   -5.6853    1.3904    0.0000 C   0  0  0  0  0  0  0  0  0  0  0  0
   -2.7866    3.8825    0.0000 C   0  0  0  0  0  0  0  0  0  0  0  0
   -5.6853    3.0577    0.0000 C   0  0  0  0  0  0  0  0  0  0  0  0
   -2.1150    1.8382    0.0000 C   0  0  0  0  0  0  0  0  0  0  0  0
   -6.3923    1.8145    0.0000 C   0  0  0  0  0  0  0  0  0  0  0  0
   -6.3923    2.6335    0.0000 C   0  0  0  0  0  0  0  0  0  0  0  0
  2  1  1  0  0  0  0
  3  1  1  0  0  0  0
  4  2  2  0  0  0  0
  4  6  1  0  0  0  0
  5  3  1  0  0  0  0
  6  5  2  0  0  0  0
  7 13  1  0  0  0  0
  8  7  3  0  0  0  0
  9  3  2  0  0  0  0
 10  2  1  0  0  0  0
 11  1  1  0  0  0  0
 12  5  1  0  0  0  0
 13 10  1  0  0  0  0
 14  6  1  0  0  0  0
 15 11  1  0  0  0  0
 16 12  2  0  0  0  0
 17 16  1  0  0  0  0
 17 14  2  0  0  0  0
M  END
> <CdId>
636

> <Mol Weight>
244.312

> <Formula>
C13H12N2OS

> <Click_ID>
CLK009_D11 __ __ 

$$$$
