CLK025_C05
 OpenBabel03181419432D

 23 25  0  0  0  0  0  0  0  0999 V2000
    0.9591    0.8937    0.0000 C   0  0  0  0  0  0  0  0  0  0  0  0
    1.0416    0.0757    0.0000 C   0  0  0  0  0  0  0  0  0  0  0  0
    1.8494   -0.0963    0.0000 N   0  0  0  0  0  0  0  0  0  0  0  0
    1.7119    1.2307    0.0000 C   0  0  0  0  0  0  0  0  0  0  0  0
    2.2653    0.6188    0.0000 C   0  0  0  0  0  0  0  0  0  0  0  0
    0.2475    1.3062    0.0000 N   0  0  0  0  0  0  0  0  0  0  0  0
   -0.4675    0.8937    0.0000 N   0  0  0  0  0  0  0  0  0  0  0  0
   -1.1825    1.3062    0.0000 C   0  0  0  0  0  0  0  0  0  0  0  0
    1.7016   -1.5194    0.0000 C   0  0  0  0  0  0  0  0  0  0  0  0
    1.2169   -2.1828    0.0000 C   0  0  0  0  0  0  0  0  0  0  0  0
    0.4331   -0.4744    0.0000 O   0  0  0  0  0  0  0  0  0  0  0  0
    2.1828   -0.8491    0.0000 C   0  0  0  0  0  0  0  0  0  0  0  0
   -1.1825    2.1312    0.0000 O   0  0  0  0  0  0  0  0  0  0  0  0
   -1.8975    0.8937    0.0000 C   0  0  0  0  0  0  0  0  0  0  0  0
    1.9628    2.0144    0.0000 C   0  0  0  0  0  0  0  0  0  0  0  0
    3.0731    0.7838    0.0000 C   0  0  0  0  0  0  0  0  0  0  0  0
   -2.6194    1.3132    0.0000 C   0  0  0  0  0  0  0  0  0  0  0  0
   -1.8975    0.0687    0.0000 C   0  0  0  0  0  0  0  0  0  0  0  0
    2.7741    2.1863    0.0000 C   0  0  0  0  0  0  0  0  0  0  0  0
    3.3241    1.5675    0.0000 C   0  0  0  0  0  0  0  0  0  0  0  0
   -3.3275    0.8937    0.0000 C   0  0  0  0  0  0  0  0  0  0  0  0
   -2.6194   -0.3403    0.0000 C   0  0  0  0  0  0  0  0  0  0  0  0
   -3.3275    0.0687    0.0000 C   0  0  0  0  0  0  0  0  0  0  0  0
  2  1  1  0  0  0  0
  3  2  1  0  0  0  0
  4  1  1  0  0  0  0
  5  4  2  0  0  0  0
  5  3  1  0  0  0  0
  6  1  2  0  0  0  0
  7  6  1  0  0  0  0
  8  7  1  0  0  0  0
  9 12  1  0  0  0  0
 10  9  3  0  0  0  0
 11  2  2  0  0  0  0
 12  3  1  0  0  0  0
 13  8  2  0  0  0  0
 14  8  1  0  0  0  0
 15  4  1  0  0  0  0
 16  5  1  0  0  0  0
 17 14  1  0  0  0  0
 18 14  2  0  0  0  0
 19 15  2  0  0  0  0
 20 19  1  0  0  0  0
 20 16  2  0  0  0  0
 21 17  2  0  0  0  0
 22 18  1  0  0  0  0
 23 22  2  0  0  0  0
 23 21  1  0  0  0  0
M  END
> <CdId>
1880

> <Mol Weight>
303.3147

> <Formula>
C18H13N3O2

> <Click_ID>
CLK025_C05 __ __ 

$$$$
