CLK045E03
 OpenBabel03181419432D

 35 38  0  0  0  0  0  0  0  0999 V2000
    0.3208    0.1000    0.0000 C   0  0  0  0  0  0  0  0  0  0  0  0
   -0.3958   -1.1375    0.0000 N   0  0  0  0  0  0  0  0  0  0  0  0
   -1.1083   -0.7250    0.0000 C   0  0  0  0  0  0  0  0  0  0  0  0
    0.3208   -0.7250    0.0000 C   0  0  0  0  0  0  0  0  0  0  0  0
   -0.3958    0.5125    0.0000 C   0  0  3  0  0  0  0  0  0  0  0  0
   -1.1083    0.1000    0.0000 N   0  0  0  0  0  0  0  0  0  0  0  0
    1.0333    0.5125    0.0000 C   0  0  0  0  0  0  0  0  0  0  0  0
    2.4625    0.5125    0.0000 C   0  0  0  0  0  0  0  0  0  0  0  0
    1.7500    0.1000    0.0000 N   0  0  0  0  0  0  0  0  0  0  0  0
    2.5500    1.3333    0.0000 N   0  0  0  0  0  0  0  0  0  0  0  0
   -0.3958    1.3375    0.0000 C   0  0  0  0  0  0  0  0  0  0  0  0
    3.2167    0.1750    0.0000 C   0  0  0  0  0  0  0  0  0  0  0  0
   -0.3958   -1.9625    0.0000 C   0  0  0  0  0  0  0  0  0  0  0  0
    3.3583    1.5042    0.0000 O   0  0  0  0  0  0  0  0  0  0  0  0
   -1.8250   -1.1375    0.0000 S   0  0  0  0  0  0  0  0  0  0  0  0
    3.7708    0.7917    0.0000 C   0  0  0  0  0  0  0  0  0  0  0  0
   -3.2542    1.3375    0.0000 C   0  0  0  0  0  0  0  0  0  0  0  0
   -3.9667    0.9250    0.0000 C   0  0  0  0  0  0  0  0  0  0  0  0
    1.0333    1.3375    0.0000 O   0  0  0  0  0  0  0  0  0  0  0  0
   -1.1083    1.7500    0.0000 C   0  0  0  0  0  0  0  0  0  0  0  0
   -1.1083   -2.3750    0.0000 C   0  0  0  0  0  0  0  0  0  0  0  0
    1.0333   -1.1375    0.0000 C   0  0  0  0  0  0  0  0  0  0  0  0
   -1.8250    1.3375    0.0000 O   0  0  0  0  0  0  0  0  0  0  0  0
    0.3208    1.7500    0.0000 C   0  0  0  0  0  0  0  0  0  0  0  0
   -1.8250   -1.9625    0.0000 O   0  0  0  0  0  0  0  0  0  0  0  0
   -2.5375    1.7500    0.0000 C   0  0  0  0  0  0  0  0  0  0  0  0
    0.3208   -2.3750    0.0000 C   0  0  0  0  0  0  0  0  0  0  0  0
    4.5875    0.7042    0.0000 C   0  0  0  0  0  0  0  0  0  0  0  0
   -1.1083    2.5750    0.0000 C   0  0  0  0  0  0  0  0  0  0  0  0
   -1.1083   -3.2000    0.0000 C   0  0  0  0  0  0  0  0  0  0  0  0
   -2.5375   -2.3750    0.0000 C   0  0  0  0  0  0  0  0  0  0  0  0
    0.3208    2.5750    0.0000 C   0  0  0  0  0  0  0  0  0  0  0  0
    0.3208   -3.2000    0.0000 C   0  0  0  0  0  0  0  0  0  0  0  0
   -0.3958   -3.6125    0.0000 C   0  0  0  0  0  0  0  0  0  0  0  0
   -0.3958    2.9875    0.0000 C   0  0  0  0  0  0  0  0  0  0  0  0
  2  4  1  0  0  0  0
  3  6  1  0  0  0  0
  3  2  1  0  0  0  0
  4  1  2  0  0  0  0
  5  1  1  0  0  0  0
  6  5  1  0  0  0  0
  7  1  1  0  0  0  0
  8  9  1  0  0  0  0
  9  7  1  0  0  0  0
 10  8  2  0  0  0  0
 11  5  1  0  0  0  0
 12  8  1  0  0  0  0
 13  2  1  0  0  0  0
 14 10  1  0  0  0  0
 14 16  1  0  0  0  0
 15  3  2  0  0  0  0
 16 12  2  0  0  0  0
 17 26  1  0  0  0  0
 18 17  3  0  0  0  0
 19  7  2  0  0  0  0
 20 11  2  0  0  0  0
 21 13  2  0  0  0  0
 22  4  1  0  0  0  0
 23 20  1  0  0  0  0
 24 11  1  0  0  0  0
 25 21  1  0  0  0  0
 26 23  1  0  0  0  0
 27 13  1  0  0  0  0
 28 16  1  0  0  0  0
 29 20  1  0  0  0  0
 30 21  1  0  0  0  0
 31 25  1  0  0  0  0
 32 24  2  0  0  0  0
 33 27  2  0  0  0  0
 33 34  1  0  0  0  0
 34 30  2  0  0  0  0
 35 29  2  0  0  0  0
 35 32  1  0  0  0  0
M  END
> <CdId>
3421

> <Mol Weight>
488.558

> <Formula>
C26H24N4O4S

> <Click_ID>
CLK045E03 __ __ 

$$$$
