CLK037A04
 OpenBabel03181419432D

 26 26  0  0  0  0  0  0  0  0999 V2000
    0.4375    0.4125    0.0000 S   0  0  0  0  0  0  0  0  0  0  0  0
    0.4375   -0.4125    0.0000 N   0  0  0  0  0  0  0  0  0  0  0  0
   -0.2750   -1.6500    0.0000 C   0  0  0  0  0  0  0  0  0  0  0  0
   -0.2750   -0.8250    0.0000 C   0  0  2  0  0  0  0  0  0  0  0  0
   -0.9917   -2.0625    0.0000 N   0  0  0  0  0  0  0  0  0  0  0  0
    0.4375    1.2375    0.0000 C   0  0  0  0  0  0  0  0  0  0  0  0
   -0.9917   -3.7125    0.0000 C   0  0  0  0  0  0  0  0  0  0  0  0
    1.2625    0.4125    0.0000 O   0  0  0  0  0  0  0  0  0  0  0  0
   -0.3875    0.4125    0.0000 O   0  0  0  0  0  0  0  0  0  0  0  0
   -0.9917   -4.5375    0.0000 C   0  0  0  0  0  0  0  0  0  0  0  0
   -0.9917   -2.8875    0.0000 C   0  0  0  0  0  0  0  0  0  0  0  0
    1.1500    4.1250    0.0000 C   0  0  0  0  0  0  0  0  0  0  0  0
    0.4375    3.7125    0.0000 N   0  0  0  0  0  0  0  0  0  0  0  0
    0.4375   -2.0625    0.0000 O   0  0  0  0  0  0  0  0  0  0  0  0
    1.8667    3.7125    0.0000 O   0  0  0  0  0  0  0  0  0  0  0  0
    1.1500    1.6500    0.0000 C   0  0  0  0  0  0  0  0  0  0  0  0
   -0.2750    1.6500    0.0000 C   0  0  0  0  0  0  0  0  0  0  0  0
    0.4375    2.8917    0.0000 C   0  0  0  0  0  0  0  0  0  0  0  0
   -0.2750    2.4750    0.0000 C   0  0  0  0  0  0  0  0  0  0  0  0
    1.1500    2.4750    0.0000 C   0  0  0  0  0  0  0  0  0  0  0  0
   -0.9917   -0.4125    0.0000 C   0  0  0  0  0  0  0  0  0  0  0  0
    1.1500    4.9500    0.0000 C   0  0  0  0  0  0  0  0  0  0  0  0
   -1.8167   -2.8875    0.0000 C   0  0  0  0  0  0  0  0  0  0  0  0
   -0.1667   -2.8875    0.0000 C   0  0  0  0  0  0  0  0  0  0  0  0
   -2.2292   -2.1708    0.0000 C   0  0  0  0  0  0  0  0  0  0  0  0
    0.2458   -3.6000    0.0000 C   0  0  0  0  0  0  0  0  0  0  0  0
  2  1  1  0  0  0  0
  4  3  1  6  0  0  0
  4  2  1  0  0  0  0
  4 21  1  0  0  0  0
  5  3  1  0  0  0  0
  6  1  1  0  0  0  0
  7 11  1  0  0  0  0
  8  1  2  0  0  0  0
  9  1  2  0  0  0  0
 10  7  3  0  0  0  0
 11  5  1  0  0  0  0
 12 13  1  0  0  0  0
 13 18  1  0  0  0  0
 14  3  2  0  0  0  0
 15 12  2  0  0  0  0
 16  6  1  0  0  0  0
 17  6  2  0  0  0  0
 18 19  2  0  0  0  0
 18 20  1  0  0  0  0
 19 17  1  0  0  0  0
 20 16  2  0  0  0  0
 22 12  1  0  0  0  0
 23 11  1  0  0  0  0
 24 11  1  0  0  0  0
 25 23  1  0  0  0  0
 26 24  1  0  0  0  0
M  END
> <CdId>
2785

> <Mol Weight>
379.474

> <Formula>
C18H25N3O4S

> <Click_ID>
CLK037A04 __ __ 

$$$$
