CLK028_H06
 OpenBabel03181419432D

 13 13  0  0  0  0  0  0  0  0999 V2000
    0.2165   -1.0793    0.0000 C    0  0  0  0  0  0  0  0  0  0  0  0
    0.2613    1.7701    0.0000 C    0  0  0  0  0  0  0  0  0  0  0  0
    0.6668    2.4920    0.0000 C    0  0  0  0  0  0  0  0  0  0  0  0
   -0.1821   -0.3678    0.0000 C    0  0  0  0  0  0  0  0  0  0  0  0
   -0.1959   -1.8011    0.0000 C    0  0  0  0  0  0  0  0  0  0  0  0
    1.0415   -1.0930    0.0000 C    0  0  0  0  0  0  0  0  0  0  0  0
    1.4402   -1.8183    0.0000 O    0  0  0  0  0  0  0  0  0  0  0  0
   -1.0071   -0.3574    0.0000 C    0  0  0  0  0  0  0  0  0  0  0  0
   -1.0209   -1.7805    0.0000 C    0  0  0  0  0  0  0  0  0  0  0  0
   -1.4195   -1.0690    0.0000 C    0  0  0  0  0  0  0  0  0  0  0  0
   -1.4436   -2.4886    0.0000 Cl   0  0  0  0  0  0  0  0  0  0  0  0
    0.2509    0.3438    0.0000 O    0  0  0  0  0  0  0  0  0  0  0  0
   -0.1615    1.0690    0.0000 C    0  0  0  0  0  0  0  0  0  0  0  0
  2 13  1  0  0  0  0
  3  2  3  0  0  0  0
  4  1  1  0  0  0  0
  5  1  2  0  0  0  0
  6  1  1  0  0  0  0
  7  6  2  0  0  0  0
  8  4  2  0  0  0  0
  8 10  1  0  0  0  0
  9  5  1  0  0  0  0
 10  9  2  0  0  0  0
 11  9  1  0  0  0  0
 12  4  1  0  0  0  0
 13 12  1  0  0  0  0
M  END
> <CdId>
2160

> <Mol Weight>
194.614

> <Formula>
C10H7ClO2

> <Click_ID>
CLK028_H06 __ __ 

$$$$
