CLK023_D04
 OpenBabel03181419432D

 20 20  0  0  0  0  0  0  0  0999 V2000
    1.7865   -0.4226    0.0000 C   0  0  0  0  0  0  0  0  0  0  0  0
    1.0684   -0.8348    0.0000 C   0  0  0  0  0  0  0  0  0  0  0  0
    1.7830    0.4054    0.0000 C   0  0  0  0  0  0  0  0  0  0  0  0
   -3.2053    2.4770    0.0000 N   0  0  0  0  0  0  0  0  0  0  0  0
   -3.2122    1.6525    0.0000 C   0  0  0  0  0  0  0  0  0  0  0  0
    3.2088   -2.0578    0.0000 C   0  0  0  0  0  0  0  0  0  0  0  0
    2.5079   -2.4736    0.0000 C   0  0  0  0  0  0  0  0  0  0  0  0
   -2.5010    0.4157    0.0000 C   0  0  0  0  0  0  0  0  0  0  0  0
   -1.0753    0.4054    0.0000 N   0  0  0  0  0  0  0  0  0  0  0  0
   -3.2122    0.8280    0.0000 C   0  0  0  0  0  0  0  0  0  0  0  0
    0.3470   -0.4226    0.0000 C   0  0  0  0  0  0  0  0  0  0  0  0
    1.0616    0.8177    0.0000 C   0  0  0  0  0  0  0  0  0  0  0  0
    0.3470    0.4054    0.0000 C   0  0  0  0  0  0  0  0  0  0  0  0
   -1.7899    0.8280    0.0000 N   0  0  0  0  0  0  0  0  0  0  0  0
   -2.5148   -0.4123    0.0000 O   0  0  0  0  0  0  0  0  0  0  0  0
   -0.3573    0.8142    0.0000 C   0  0  0  0  0  0  0  0  0  0  0  0
    2.4976    0.8177    0.0000 I   0  0  0  0  0  0  0  0  0  0  0  0
    1.0616   -1.6593    0.0000 I   0  0  0  0  0  0  0  0  0  0  0  0
    2.4976   -0.8314    0.0000 O   0  0  0  0  0  0  0  0  0  0  0  0
    3.2088   -1.2368    0.0000 C   0  0  0  0  0  0  0  0  0  0  0  0
  2  1  2  0  0  0  0
  3  1  1  0  0  0  0
  4  5  3  0  0  0  0
  5 10  1  0  0  0  0
  6 20  1  0  0  0  0
  7  6  3  0  0  0  0
  8 14  1  0  0  0  0
  9 16  2  0  0  0  0
 10  8  1  0  0  0  0
 11  2  1  0  0  0  0
 11 13  2  0  0  0  0
 12  3  2  0  0  0  0
 13 12  1  0  0  0  0
 14  9  1  0  0  0  0
 15  8  2  0  0  0  0
 16 13  1  0  0  0  0
 17  3  1  0  0  0  0
 18  2  1  0  0  0  0
 19  1  1  0  0  0  0
 20 19  1  0  0  0  0
M  END
> <CdId>
1729

> <Mol Weight>
493.0384

> <Formula>
C13H9I2N3O2

> <Click_ID>
CLK023_D04 __ __ 

$$$$
