CLK011_E02
 OpenBabel03181419432D

 29 32  0  0  0  0  0  0  0  0999 V2000
    2.4927   -0.6764    0.0000 N    0  0  0  0  0  0  0  0  0  0  0  0
    3.1983   -1.9081    0.0000 C    0  0  0  0  0  0  0  0  0  0  0  0
    2.4927   -1.5031    0.0000 C    0  0  0  0  0  0  0  0  0  0  0  0
    3.1983   -0.2547    0.0000 C    0  0  0  0  0  0  0  0  0  0  0  0
    3.9123   -0.6764    0.0000 N    0  0  0  0  0  0  0  0  0  0  0  0
    3.9123   -1.5031    0.0000 C    0  0  0  0  0  0  0  0  0  0  0  0
    3.9206   -3.1482    0.0000 C    0  0  0  0  0  0  0  0  0  0  0  0
    3.1983   -2.7349    0.0000 C    0  0  0  0  0  0  0  0  0  0  0  0
    5.2275   -3.4238    0.0000 N    0  0  0  0  0  0  0  0  0  0  0  0
    4.6764   -2.8100    0.0000 C    0  0  0  0  0  0  0  0  0  0  0  0
    1.7704   -0.2630    0.0000 C    0  0  0  0  0  0  0  0  0  0  0  0
    4.0083   -3.9707    0.0000 C    0  0  0  0  0  0  0  0  0  0  0  0
    4.8142   -4.1378    0.0000 C    0  0  0  0  0  0  0  0  0  0  0  0
    1.0564   -0.6764    0.0000 C    0  0  0  0  0  0  0  0  0  0  0  0
    6.5302   -4.0125    0.0000 C    0  0  0  0  0  0  0  0  0  0  0  0
    3.1983    0.5720    0.0000 O    0  0  0  0  0  0  0  0  0  0  0  0
    6.9811   -4.7097    0.0000 C    0  0  0  0  0  0  0  0  0  0  0  0
    1.7704   -1.9165    0.0000 O    0  0  0  0  0  0  0  0  0  0  0  0
    4.6346   -1.9165    0.0000 O    0  0  0  0  0  0  0  0  0  0  0  0
    6.0542   -3.3444    0.0000 C    0  0  0  0  0  0  0  0  0  0  0  0
    0.3424   -0.2630    0.0000 C    0  0  0  0  0  0  0  0  0  0  0  0
    1.7704    0.5720    0.0000 C    0  0  0  0  0  0  0  0  0  0  0  0
   -0.3716   -0.6764    0.0000 Br   0  0  0  0  0  0  0  0  0  0  0  0
    5.0647   -4.9269    0.0000 C    0  0  0  0  0  0  0  0  0  0  0  0
    3.4488   -4.5845    0.0000 C    0  0  0  0  0  0  0  0  0  0  0  0
    1.0564    0.9770    0.0000 C    0  0  0  0  0  0  0  0  0  0  0  0
    0.3424    0.5720    0.0000 C    0  0  0  0  0  0  0  0  0  0  0  0
    4.5135   -5.5407    0.0000 C    0  0  0  0  0  0  0  0  0  0  0  0
    3.7077   -5.3653    0.0000 C    0  0  0  0  0  0  0  0  0  0  0  0
  2  3  1  0  0  0  0
  2  6  1  0  0  0  0
  3  1  1  0  0  0  0
  4  1  1  0  0  0  0
  5  4  1  0  0  0  0
  6  5  1  0  0  0  0
  7  8  1  0  0  0  0
  8  2  2  0  0  0  0
  9 10  1  0  0  0  0
 10  7  2  0  0  0  0
 11  1  1  0  0  0  0
 12  7  1  0  0  0  0
 13 12  1  0  0  0  0
 13  9  1  0  0  0  0
 14 11  1  0  0  0  0
 15 20  1  0  0  0  0
 16  4  2  0  0  0  0
 17 15  3  0  0  0  0
 18  3  2  0  0  0  0
 19  6  2  0  0  0  0
 20  9  1  0  0  0  0
 21 14  2  0  0  0  0
 21 27  1  0  0  0  0
 22 11  2  0  0  0  0
 23 21  1  0  0  0  0
 24 13  2  0  0  0  0
 25 12  2  0  0  0  0
 26 22  1  0  0  0  0
 27 26  2  0  0  0  0
 28 29  2  0  0  0  0
 28 24  1  0  0  0  0
 29 25  1  0  0  0  0
M  END
> <CdId>
797

> <Mol Weight>
448.269

> <Formula>
C22H14BrN3O3

> <Click_ID>
CLK011_E02 __ __ 

$$$$
