CLK012_B10
 OpenBabel03181419432D

 29 31  0  0  0  0  0  0  0  0999 V2000
    5.7710   -1.2132    0.0000 N    0  0  0  0  0  0  0  0  0  0  0  0
    5.6380   -2.0317    0.0000 C    0  0  0  0  0  0  0  0  0  0  0  0
    5.0356   -0.8393    0.0000 C    0  0  0  0  0  0  0  0  0  0  0  0
    4.4497   -1.4209    0.0000 C    0  0  0  0  0  0  0  0  0  0  0  0
    4.8237   -2.1605    0.0000 S    0  0  0  0  0  0  0  0  0  0  0  0
    3.6313   -1.2880    0.0000 C    0  0  0  0  0  0  0  0  0  0  0  0
    2.0608   -3.2200    0.0000 C    0  0  0  0  0  0  0  0  0  0  0  0
    6.5064   -0.8476    0.0000 C    0  0  0  0  0  0  0  0  0  0  0  0
    1.7617   -2.4347    0.0000 C    0  0  0  0  0  0  0  0  0  0  0  0
    2.8792   -3.3446    0.0000 C    0  0  0  0  0  0  0  0  0  0  0  0
    3.1078   -1.9362    0.0000 C    0  0  0  0  0  0  0  0  0  0  0  0
    6.2197   -2.6175    0.0000 S    0  0  0  0  0  0  0  0  0  0  0  0
    1.3129   -5.2766    0.0000 C    0  0  0  0  0  0  0  0  0  0  0  0
    0.7894   -5.9081    0.0000 C    0  0  0  0  0  0  0  0  0  0  0  0
    2.2852   -1.7990    0.0000 C    0  0  0  0  0  0  0  0  0  0  0  0
    4.9109   -0.0291    0.0000 O    0  0  0  0  0  0  0  0  0  0  0  0
    3.4027   -2.7047    0.0000 C    0  0  0  0  0  0  0  0  0  0  0  0
    0.9515   -2.3059    0.0000 Br   0  0  0  0  0  0  0  0  0  0  0  0
    6.5479   -0.0249    0.0000 C    0  0  0  0  0  0  0  0  0  0  0  0
    1.5373   -3.8639    0.0000 O    0  0  0  0  0  0  0  0  0  0  0  0
    3.1701   -4.1132    0.0000 O    0  0  0  0  0  0  0  0  0  0  0  0
    7.2833    0.3490    0.0000 C    0  0  0  0  0  0  0  0  0  0  0  0
    1.8240   -4.6284    0.0000 C    0  0  0  0  0  0  0  0  0  0  0  0
    3.9886   -4.2420    0.0000 C    0  0  0  0  0  0  0  0  0  0  0  0
    7.9689   -0.1039    0.0000 C    0  0  0  0  0  0  0  0  0  0  0  0
    7.3207    1.1675    0.0000 C    0  0  0  0  0  0  0  0  0  0  0  0
    8.7001    0.2617    0.0000 C    0  0  0  0  0  0  0  0  0  0  0  0
    8.0561    1.5331    0.0000 C    0  0  0  0  0  0  0  0  0  0  0  0
    8.7499    1.0802    0.0000 C    0  0  0  0  0  0  0  0  0  0  0  0
  2  1  1  0  0  0  0
  3  1  1  0  0  0  0
  4  3  1  0  0  0  0
  5  2  1  0  0  0  0
  5  4  1  0  0  0  0
  6  4  2  0  0  0  0
  7 10  1  0  0  0  0
  7  9  2  0  0  0  0
  8  1  1  0  0  0  0
  9 15  1  0  0  0  0
 10 17  2  0  0  0  0
 11  6  1  0  0  0  0
 12  2  2  0  0  0  0
 13 23  1  0  0  0  0
 14 13  3  0  0  0  0
 15 11  2  0  0  0  0
 16  3  2  0  0  0  0
 17 11  1  0  0  0  0
 18  9  1  0  0  0  0
 19  8  1  0  0  0  0
 20  7  1  0  0  0  0
 21 10  1  0  0  0  0
 22 19  1  0  0  0  0
 23 20  1  0  0  0  0
 24 21  1  0  0  0  0
 25 22  2  0  0  0  0
 26 22  1  0  0  0  0
 27 25  1  0  0  0  0
 28 26  2  0  0  0  0
 29 28  1  0  0  0  0
 29 27  2  0  0  0  0
M  END
> <CdId>
855

> <Mol Weight>
488.417

> <Formula>
C22H18BrNO3S2

> <Click_ID>
CLK012_B10 __ __ 

$$$$
