CLK032_H04
 OpenBabel03181419432D

 29 31  0  0  0  0  0  0  0  0999 V2000
   -1.1625    2.3833    0.0000 C   0  0  0  0  0  0  0  0  0  0  0  0
   -0.3375    2.3750    0.0000 N   0  0  0  0  0  0  0  0  0  0  0  0
   -1.6458    1.7208    0.0000 N   0  0  0  0  0  0  0  0  0  0  0  0
   -1.6458    3.0500    0.0000 S   0  0  0  0  0  0  0  0  0  0  0  0
   -2.4333    2.7958    0.0000 C   0  0  0  0  0  0  0  0  0  0  0  0
   -2.4333    1.9708    0.0000 C   0  0  0  0  0  0  0  0  0  0  0  0
    0.0750    3.0875    0.0000 C   0  0  0  0  0  0  0  0  0  0  0  0
   -3.1458    3.2083    0.0000 C   0  0  0  0  0  0  0  0  0  0  0  0
    3.3917    3.0708    0.0000 C   0  0  0  0  0  0  0  0  0  0  0  0
   -1.9458    0.3208    0.0000 C   0  0  0  0  0  0  0  0  0  0  0  0
   -2.4958   -0.2917    0.0000 C   0  0  0  0  0  0  0  0  0  0  0  0
   -3.1458    1.5583    0.0000 C   0  0  0  0  0  0  0  0  0  0  0  0
    0.9000    3.0875    0.0000 C   0  0  0  0  0  0  0  0  0  0  0  0
   -5.2875    2.8000    0.0000 C   0  0  0  0  0  0  0  0  0  0  0  0
   -4.5833    3.2125    0.0000 N   0  0  0  0  0  0  0  0  0  0  0  0
    2.5625    3.0875    0.0000 C   0  0  0  0  0  0  0  0  0  0  0  0
   -3.8583    2.7958    0.0000 C   0  0  0  0  0  0  0  0  0  0  0  0
   -0.3375    3.8000    0.0000 O   0  0  0  0  0  0  0  0  0  0  0  0
    3.7917    2.3500    0.0000 O   0  0  0  0  0  0  0  0  0  0  0  0
   -1.3958    0.9333    0.0000 C   0  0  0  0  0  0  0  0  0  0  0  0
   -6.0000    3.2125    0.0000 O   0  0  0  0  0  0  0  0  0  0  0  0
    1.3167    3.8083    0.0000 C   0  0  0  0  0  0  0  0  0  0  0  0
    1.3042    2.3833    0.0000 C   0  0  0  0  0  0  0  0  0  0  0  0
    2.1417    3.7958    0.0000 C   0  0  0  0  0  0  0  0  0  0  0  0
    2.1292    2.3708    0.0000 C   0  0  0  0  0  0  0  0  0  0  0  0
   -3.8583    1.9708    0.0000 C   0  0  0  0  0  0  0  0  0  0  0  0
    3.8042    3.7958    0.0000 O   0  0  0  0  0  0  0  0  0  0  0  0
   -5.2958    1.9750    0.0000 C   0  0  0  0  0  0  0  0  0  0  0  0
    3.4000    4.5042    0.0000 C   0  0  0  0  0  0  0  0  0  0  0  0
  2  1  2  0  0  0  0
  3  1  1  0  0  0  0
  4  1  1  0  0  0  0
  5  4  1  0  0  0  0
  5  6  2  0  0  0  0
  6  3  1  0  0  0  0
  7  2  1  0  0  0  0
  8  5  1  0  0  0  0
  9 16  1  0  0  0  0
 10 20  1  0  0  0  0
 11 10  3  0  0  0  0
 12  6  1  0  0  0  0
 13  7  1  0  0  0  0
 14 15  1  0  0  0  0
 15 17  1  0  0  0  0
 16 25  2  0  0  0  0
 16 24  1  0  0  0  0
 17  8  2  0  0  0  0
 17 26  1  0  0  0  0
 18  7  2  0  0  0  0
 19  9  2  0  0  0  0
 20  3  1  0  0  0  0
 21 14  2  0  0  0  0
 22 13  1  0  0  0  0
 23 13  2  0  0  0  0
 24 22  2  0  0  0  0
 25 23  1  0  0  0  0
 26 12  2  0  0  0  0
 27  9  1  0  0  0  0
 28 14  1  0  0  0  0
 29 27  1  0  0  0  0
M  END
> <CdId>
2478

> <Mol Weight>
407.442

> <Formula>
C21H17N3O4S

> <Click_ID>
CLK032_H04 __ __ 

$$$$
