CLK013_F02
 OpenBabel03181419432D

 22 23  0  0  0  0  0  0  0  0999 V2000
    5.3094   -3.6364    0.0000 N    0  0  0  0  0  0  0  0  0  0  0  0
    4.5373   -3.9270    0.0000 C    0  0  0  0  0  0  0  0  0  0  0  0
    5.2720   -2.8062    0.0000 C    0  0  0  0  0  0  0  0  0  0  0  0
    4.4750   -2.5945    0.0000 C    0  0  0  0  0  0  0  0  0  0  0  0
    4.0267   -3.2877    0.0000 N    0  0  0  0  0  0  0  0  0  0  0  0
    4.1844   -1.8224    0.0000 C    0  0  0  0  0  0  0  0  0  0  0  0
    1.7228   -1.4239    0.0000 C    0  0  0  0  0  0  0  0  0  0  0  0
    2.2583   -0.7763    0.0000 C    0  0  0  0  0  0  0  0  0  0  0  0
    2.0299   -2.1960    0.0000 C    0  0  0  0  0  0  0  0  0  0  0  0
    3.3625   -1.6937    0.0000 C    0  0  0  0  0  0  0  0  0  0  0  0
    4.3256   -4.7241    0.0000 S    0  0  0  0  0  0  0  0  0  0  0  0
   -0.4234   -1.8099    0.0000 C    0  0  0  0  0  0  0  0  0  0  0  0
   -1.2412   -1.6730    0.0000 C    0  0  0  0  0  0  0  0  0  0  0  0
    3.0678   -0.9133    0.0000 C    0  0  0  0  0  0  0  0  0  0  0  0
    5.9154   -2.2956    0.0000 O    0  0  0  0  0  0  0  0  0  0  0  0
    2.8436   -2.3288    0.0000 C    0  0  0  0  0  0  0  0  0  0  0  0
    6.0026   -4.0848    0.0000 C    0  0  0  0  0  0  0  0  0  0  0  0
    1.9677   -0.0125    0.0000 Cl   0  0  0  0  0  0  0  0  0  0  0  0
    0.9133   -1.2952    0.0000 O    0  0  0  0  0  0  0  0  0  0  0  0
    1.5111   -2.8311    0.0000 O    0  0  0  0  0  0  0  0  0  0  0  0
    0.3902   -1.9303    0.0000 C    0  0  0  0  0  0  0  0  0  0  0  0
    1.7975   -3.6115    0.0000 C    0  0  0  0  0  0  0  0  0  0  0  0
  2  1  1  0  0  0  0
  3  1  1  0  0  0  0
  4  3  1  0  0  0  0
  5  2  1  0  0  0  0
  5  4  1  0  0  0  0
  6  4  2  0  0  0  0
  7  9  1  0  0  0  0
  7  8  2  0  0  0  0
  8 14  1  0  0  0  0
  9 16  2  0  0  0  0
 10  6  1  0  0  0  0
 11  2  2  0  0  0  0
 12 21  1  0  0  0  0
 13 12  3  0  0  0  0
 14 10  2  0  0  0  0
 15  3  2  0  0  0  0
 16 10  1  0  0  0  0
 17  1  1  0  0  0  0
 18  8  1  0  0  0  0
 19  7  1  0  0  0  0
 20  9  1  0  0  0  0
 21 19  1  0  0  0  0
 22 20  1  0  0  0  0
M  END
> <CdId>
967

> <Mol Weight>
336.793

> <Formula>
C15H13ClN2O3S

> <Click_ID>
CLK013_F02 __ __ 

$$$$
