CLK045F10
 OpenBabel03181419432D

 25 27  0  0  0  0  0  0  0  0999 V2000
    1.0960    0.6334    0.0000 N   0  0  0  0  0  0  0  0  0  0  0  0
    1.9004    0.8169    0.0000 C   0  0  3  0  0  0  0  0  0  0  0  0
    1.0960    2.4880    0.0000 N   0  0  0  0  0  0  0  0  0  0  0  0
    1.9004    2.3004    0.0000 C   0  0  0  0  0  0  0  0  0  0  0  0
    0.4501    1.1460    0.0000 C   0  0  0  0  0  0  0  0  0  0  0  0
    2.2587    1.5586    0.0000 C   0  0  0  0  0  0  0  0  0  0  0  0
    0.9127   -0.1708    0.0000 C   0  0  0  0  0  0  0  0  0  0  0  0
    0.4501    1.9712    0.0000 C   0  0  0  0  0  0  0  0  0  0  0  0
   -2.0046   -3.3173    0.0000 C   0  0  0  0  0  0  0  0  0  0  0  0
   -2.1879   -4.1216    0.0000 C   0  0  0  0  0  0  0  0  0  0  0  0
    0.1208   -0.4168    0.0000 C   0  0  0  0  0  0  0  0  0  0  0  0
    2.4129    2.9463    0.0000 O   0  0  0  0  0  0  0  0  0  0  0  0
    1.5170   -0.7334    0.0000 O   0  0  0  0  0  0  0  0  0  0  0  0
   -0.0625   -1.2210    0.0000 N   0  0  0  0  0  0  0  0  0  0  0  0
   -1.8211   -2.5130    0.0000 C   0  0  0  0  0  0  0  0  0  0  0  0
   -0.8502   -1.4628    0.0000 C   0  0  0  0  0  0  0  0  0  0  0  0
   -1.0335   -2.2671    0.0000 C   0  0  0  0  0  0  0  0  0  0  0  0
    2.4129    0.1708    0.0000 C   0  0  0  0  0  0  0  0  0  0  0  0
   -0.2667    0.7334    0.0000 C   0  0  0  0  0  0  0  0  0  0  0  0
   -0.2667    2.3837    0.0000 C   0  0  0  0  0  0  0  0  0  0  0  0
   -2.2421   -1.1460    0.0000 C   0  0  0  0  0  0  0  0  0  0  0  0
   -2.4254   -1.9504    0.0000 C   0  0  0  0  0  0  0  0  0  0  0  0
   -1.4545   -0.9002    0.0000 C   0  0  0  0  0  0  0  0  0  0  0  0
   -0.9794    1.1460    0.0000 C   0  0  0  0  0  0  0  0  0  0  0  0
   -0.9794    1.9712    0.0000 C   0  0  0  0  0  0  0  0  0  0  0  0
  2  1  1  0  0  0  0
  3  8  1  0  0  0  0
  3  4  1  0  0  0  0
  4  6  1  0  0  0  0
  5  1  1  0  0  0  0
  6  2  1  0  0  0  0
  7  1  1  0  0  0  0
  8  5  2  0  0  0  0
  9 15  1  0  0  0  0
 10  9  3  0  0  0  0
 11  7  1  0  0  0  0
 12  4  2  0  0  0  0
 13  7  2  0  0  0  0
 14 11  1  0  0  0  0
 15 17  1  0  0  0  0
 16 14  1  0  0  0  0
 17 16  2  0  0  0  0
 18  2  1  0  0  0  0
 19  5  1  0  0  0  0
 20  8  1  0  0  0  0
 21 23  2  0  0  0  0
 22 15  2  0  0  0  0
 22 21  1  0  0  0  0
 23 16  1  0  0  0  0
 24 19  2  0  0  0  0
 24 25  1  0  0  0  0
 25 20  2  0  0  0  0
M  END
> <CdId>
3478

> <Mol Weight>
333.3838

> <Formula>
C20H19N3O2

> <Click_ID>
CLK045F10 __ __ 

$$$$
