CLK033_D11
 OpenBabel03181419432D

 27 29  0  0  0  0  0  0  0  0999 V2000
   -4.5695    2.5423    0.0000 C   0  0  0  0  0  0  0  0  0  0  0  0
   -3.8592    2.9619    0.0000 N   0  0  0  0  0  0  0  0  0  0  0  0
   -4.6692    1.7281    0.0000 N   0  0  0  0  0  0  0  0  0  0  0  0
   -5.3048    2.8871    0.0000 S   0  0  0  0  0  0  0  0  0  0  0  0
   -5.4710    1.5703    0.0000 C   0  0  0  0  0  0  0  0  0  0  0  0
   -5.8781    2.2889    0.0000 C   0  0  0  0  0  0  0  0  0  0  0  0
   -3.8592    3.7886    0.0000 C   0  0  0  0  0  0  0  0  0  0  0  0
   -4.2372    0.3489    0.0000 C   0  0  0  0  0  0  0  0  0  0  0  0
   -4.4200   -0.4611    0.0000 C   0  0  0  0  0  0  0  0  0  0  0  0
   -3.1488    4.1999    0.0000 C   0  0  0  0  0  0  0  0  0  0  0  0
   -5.8948    0.8682    0.0000 C   0  0  0  0  0  0  0  0  0  0  0  0
   -1.7074    5.0141    0.0000 C   0  0  0  0  0  0  0  0  0  0  0  0
   -0.9928    5.4336    0.0000 C   0  0  0  0  0  0  0  0  0  0  0  0
   -4.5820    4.1916    0.0000 O   0  0  0  0  0  0  0  0  0  0  0  0
   -4.0503    1.1548    0.0000 C   0  0  0  0  0  0  0  0  0  0  0  0
   -0.2824    5.0266    0.0000 O   0  0  0  0  0  0  0  0  0  0  0  0
   -2.4302    3.7969    0.0000 C   0  0  0  0  0  0  0  0  0  0  0  0
   -3.1405    5.0266    0.0000 C   0  0  0  0  0  0  0  0  0  0  0  0
   -1.7156    4.1999    0.0000 C   0  0  0  0  0  0  0  0  0  0  0  0
   -2.4260    5.4378    0.0000 C   0  0  0  0  0  0  0  0  0  0  0  0
   -6.6841    2.3056    0.0000 C   0  0  0  0  0  0  0  0  0  0  0  0
   -5.5042    0.1371    0.0000 O   0  0  0  0  0  0  0  0  0  0  0  0
   -7.1203    1.6035    0.0000 C   0  0  0  0  0  0  0  0  0  0  0  0
   -6.7090    0.8806    0.0000 C   0  0  0  0  0  0  0  0  0  0  0  0
   -0.9928    6.2604    0.0000 C   0  0  0  0  0  0  0  0  0  0  0  0
   -5.9280   -0.5650    0.0000 C   0  0  0  0  0  0  0  0  0  0  0  0
   -5.5458   -1.2754    0.0000 C   0  0  0  0  0  0  0  0  0  0  0  0
  2  1  2  0  0  0  0
  3  1  1  0  0  0  0
  4  1  1  0  0  0  0
  5  3  1  0  0  0  0
  6  4  1  0  0  0  0
  6  5  2  0  0  0  0
  7  2  1  0  0  0  0
  8 15  1  0  0  0  0
  9  8  3  0  0  0  0
 10  7  1  0  0  0  0
 11  5  1  0  0  0  0
 12 20  1  0  0  0  0
 12 19  2  0  0  0  0
 13 12  1  0  0  0  0
 14  7  2  0  0  0  0
 15  3  1  0  0  0  0
 16 13  2  0  0  0  0
 17 10  2  0  0  0  0
 18 10  1  0  0  0  0
 19 17  1  0  0  0  0
 20 18  2  0  0  0  0
 21  6  1  0  0  0  0
 22 11  1  0  0  0  0
 23 21  2  0  0  0  0
 24 11  2  0  0  0  0
 24 23  1  0  0  0  0
 25 13  1  0  0  0  0
 26 22  1  0  0  0  0
 27 26  1  0  0  0  0
M  END
> <CdId>
2525

> <Mol Weight>
378.444

> <Formula>
C21H18N2O3S

> <Click_ID>
CLK033_D11 __ __ 

$$$$
