CLK047C05
 OpenBabel03181419432D

 15 15  0  0  0  0  0  0  0  0999 V2000
   -0.2417   -0.0250    0.0000 C   0  0  0  0  0  0  0  0  0  0  0  0
   -0.9542   -0.4375    0.0000 C   0  0  0  0  0  0  0  0  0  0  0  0
   -0.2417    0.8000    0.0000 C   0  0  0  0  0  0  0  0  0  0  0  0
    1.1875    2.4500    0.0000 C   0  0  0  0  0  0  0  0  0  0  0  0
    0.4750   -0.4375    0.0000 C   0  0  0  0  0  0  0  0  0  0  0  0
    1.9042    2.8625    0.0000 C   0  0  0  0  0  0  0  0  0  0  0  0
   -0.9542   -1.2625    0.0000 C   0  0  0  0  0  0  0  0  0  0  0  0
   -0.9542    1.2125    0.0000 O   0  0  0  0  0  0  0  0  0  0  0  0
    0.4750    1.2125    0.0000 N   0  0  0  0  0  0  0  0  0  0  0  0
   -0.2417   -1.6750    0.0000 C   0  0  0  0  0  0  0  0  0  0  0  0
   -1.6708   -0.0250    0.0000 F   0  0  0  0  0  0  0  0  0  0  0  0
    0.4750   -1.2625    0.0000 C   0  0  0  0  0  0  0  0  0  0  0  0
    0.4750    2.0375    0.0000 C   0  0  0  0  0  0  0  0  0  0  0  0
   -0.2417   -2.5000    0.0000 O   0  0  0  0  0  0  0  0  0  0  0  0
    0.4750   -2.9125    0.0000 C   0  0  0  0  0  0  0  0  0  0  0  0
  2  1  2  0  0  0  0
  3  1  1  0  0  0  0
  4 13  1  0  0  0  0
  5  1  1  0  0  0  0
  6  4  3  0  0  0  0
  7  2  1  0  0  0  0
  8  3  2  0  0  0  0
  9  3  1  0  0  0  0
 10  7  2  0  0  0  0
 11  2  1  0  0  0  0
 12  5  2  0  0  0  0
 12 10  1  0  0  0  0
 13  9  1  0  0  0  0
 14 10  1  0  0  0  0
 15 14  1  0  0  0  0
M  END
> <CdId>
3595

> <Mol Weight>
207.201

> <Formula>
C11H10FNO2

> <Click_ID>
CLK047C05 __ __ 

$$$$
