CLK033_D10
 OpenBabel03181419432D

 25 27  0  0  0  0  0  0  0  0999 V2000
   -4.5776    2.5468    0.0000 C   0  0  0  0  0  0  0  0  0  0  0  0
   -3.8660    2.9671    0.0000 N   0  0  0  0  0  0  0  0  0  0  0  0
   -4.6692    1.7312    0.0000 N   0  0  0  0  0  0  0  0  0  0  0  0
   -5.3142    2.8922    0.0000 S   0  0  0  0  0  0  0  0  0  0  0  0
   -5.4765    1.5689    0.0000 C   0  0  0  0  0  0  0  0  0  0  0  0
   -5.8760    2.2930    0.0000 C   0  0  0  0  0  0  0  0  0  0  0  0
   -3.8660    3.7953    0.0000 C   0  0  0  0  0  0  0  0  0  0  0  0
   -6.6959    2.3054    0.0000 C   0  0  0  0  0  0  0  0  0  0  0  0
   -0.2705    5.8345    0.0000 N   0  0  0  0  0  0  0  0  0  0  0  0
   -4.2405    0.3496    0.0000 C   0  0  0  0  0  0  0  0  0  0  0  0
   -4.4153   -0.4536    0.0000 C   0  0  0  0  0  0  0  0  0  0  0  0
   -5.9010    0.8697    0.0000 C   0  0  0  0  0  0  0  0  0  0  0  0
   -0.9863    5.4308    0.0000 C   0  0  0  0  0  0  0  0  0  0  0  0
   -3.1544    4.2073    0.0000 C   0  0  0  0  0  0  0  0  0  0  0  0
   -7.1204    1.5980    0.0000 C   0  0  0  0  0  0  0  0  0  0  0  0
   -4.5901    4.2073    0.0000 O   0  0  0  0  0  0  0  0  0  0  0  0
   -6.7084    0.8822    0.0000 C   0  0  0  0  0  0  0  0  0  0  0  0
   -4.0533    1.1611    0.0000 C   0  0  0  0  0  0  0  0  0  0  0  0
   -2.4303    3.8036    0.0000 C   0  0  0  0  0  0  0  0  0  0  0  0
   -3.1419    5.0230    0.0000 C   0  0  0  0  0  0  0  0  0  0  0  0
   -1.7062    5.0230    0.0000 C   0  0  0  0  0  0  0  0  0  0  0  0
   -2.4220    5.4350    0.0000 C   0  0  0  0  0  0  0  0  0  0  0  0
   -1.7187    4.1990    0.0000 C   0  0  0  0  0  0  0  0  0  0  0  0
   -7.0954    3.0295    0.0000 C   0  0  0  0  0  0  0  0  0  0  0  0
   -7.1079    0.1581    0.0000 C   0  0  0  0  0  0  0  0  0  0  0  0
  2  1  2  0  0  0  0
  3  1  1  0  0  0  0
  4  1  1  0  0  0  0
  5  3  1  0  0  0  0
  6  4  1  0  0  0  0
  6  5  2  0  0  0  0
  7  2  1  0  0  0  0
  8  6  1  0  0  0  0
  9 13  3  0  0  0  0
 10 18  1  0  0  0  0
 11 10  3  0  0  0  0
 12  5  1  0  0  0  0
 13 21  1  0  0  0  0
 14  7  1  0  0  0  0
 15  8  2  0  0  0  0
 16  7  2  0  0  0  0
 17 12  2  0  0  0  0
 17 15  1  0  0  0  0
 18  3  1  0  0  0  0
 19 14  2  0  0  0  0
 20 14  1  0  0  0  0
 21 22  1  0  0  0  0
 21 23  2  0  0  0  0
 22 20  2  0  0  0  0
 23 19  1  0  0  0  0
 24  8  1  0  0  0  0
 25 17  1  0  0  0  0
M  END
> <CdId>
2524

> <Mol Weight>
345.418

> <Formula>
C20H15N3OS

> <Click_ID>
CLK033_D10 __ __ 

$$$$
