CLK012_E06
 OpenBabel03181419432D

 23 25  0  0  0  0  0  0  0  0999 V2000
    0.6129    0.0750    0.0000 C    0  0  0  0  0  0  0  0  0  0  0  0
    0.3544   -0.7130    0.0000 C    0  0  0  0  0  0  0  0  0  0  0  0
   -0.0583    0.5587    0.0000 C    0  0  0  0  0  0  0  0  0  0  0  0
   -0.4711   -0.7130    0.0000 C    0  0  0  0  0  0  0  0  0  0  0  0
   -0.7255    0.0750    0.0000 C    0  0  0  0  0  0  0  0  0  0  0  0
    1.4009    0.3335    0.0000 C    0  0  0  0  0  0  0  0  0  0  0  0
    3.0436    4.6071    0.0000 C    0  0  0  0  0  0  0  0  0  0  0  0
    3.2271    5.4077    0.0000 C    0  0  0  0  0  0  0  0  0  0  0  0
    2.5058    2.1972    0.0000 C    0  0  0  0  0  0  0  0  0  0  0  0
    1.5677    1.1465    0.0000 C    0  0  0  0  0  0  0  0  0  0  0  0
   -0.0583    1.3842    0.0000 O    0  0  0  0  0  0  0  0  0  0  0  0
    0.8422   -1.3801    0.0000 O    0  0  0  0  0  0  0  0  0  0  0  0
    2.3432    1.3884    0.0000 C    0  0  0  0  0  0  0  0  0  0  0  0
    1.9054    2.7476    0.0000 C    0  0  0  0  0  0  0  0  0  0  0  0
    1.1257    2.5016    0.0000 C    0  0  0  0  0  0  0  0  0  0  0  0
    3.2938    2.4599    0.0000 Br   0  0  0  0  0  0  0  0  0  0  0  0
    0.9548    1.6886    0.0000 C    0  0  0  0  0  0  0  0  0  0  0  0
    2.0805    3.5606    0.0000 O    0  0  0  0  0  0  0  0  0  0  0  0
   -1.5260    0.2460    0.0000 C    0  0  0  0  0  0  0  0  0  0  0  0
   -1.0215   -1.3258    0.0000 C    0  0  0  0  0  0  0  0  0  0  0  0
    2.8685    3.8024    0.0000 C    0  0  0  0  0  0  0  0  0  0  0  0
   -1.8262   -1.1507    0.0000 C    0  0  0  0  0  0  0  0  0  0  0  0
   -2.0846   -0.3669    0.0000 C    0  0  0  0  0  0  0  0  0  0  0  0
  2  1  1  0  0  0  0
  3  1  1  0  0  0  0
  4  2  1  0  0  0  0
  4  5  2  0  0  0  0
  5  3  1  0  0  0  0
  6  1  2  0  0  0  0
  7 21  1  0  0  0  0
  8  7  3  0  0  0  0
  9 13  2  0  0  0  0
 10  6  1  0  0  0  0
 11  3  2  0  0  0  0
 12  2  2  0  0  0  0
 13 10  1  0  0  0  0
 14 15  2  0  0  0  0
 14  9  1  0  0  0  0
 15 17  1  0  0  0  0
 16  9  1  0  0  0  0
 17 10  2  0  0  0  0
 18 14  1  0  0  0  0
 19  5  1  0  0  0  0
 20  4  1  0  0  0  0
 21 18  1  0  0  0  0
 22 20  2  0  0  0  0
 23 19  2  0  0  0  0
 23 22  1  0  0  0  0
M  END
> <CdId>
881

> <Mol Weight>
367.193

> <Formula>
C19H11BrO3

> <Click_ID>
CLK012_E06 __ __ 

$$$$
