CLK028_D07
 OpenBabel03181419432D

 25 26  0  0  0  0  0  0  0  0999 V2000
   -4.2897   -2.2651    0.0000 N   0  3  0  0  0  0  0  0  0  0  0  0
   -3.5747   -1.8526    0.0000 C   0  0  0  0  0  0  0  0  0  0  0  0
   -2.8529   -0.5981    0.0000 N   0  0  0  0  0  0  0  0  0  0  0  0
    4.2931    1.0415    0.0000 C   0  0  0  0  0  0  0  0  0  0  0  0
    5.0080    1.4505    0.0000 C   0  0  0  0  0  0  0  0  0  0  0  0
   -5.0080   -1.8526    0.0000 O   0  5  0  0  0  0  0  0  0  0  0  0
   -0.6977   -0.1856    0.0000 N   0  0  0  0  0  0  0  0  0  0  0  0
    1.4402    1.0483    0.0000 C   0  0  0  0  0  0  0  0  0  0  0  0
   -2.1311   -1.0174    0.0000 C   0  0  0  0  0  0  0  0  0  0  0  0
   -4.2897   -3.0935    0.0000 O   0  0  0  0  0  0  0  0  0  0  0  0
   -3.5747   -1.0174    0.0000 C   0  0  0  0  0  0  0  0  0  0  0  0
    2.1483    0.6428    0.0000 C   0  0  0  0  0  0  0  0  0  0  0  0
   -2.8529   -2.2651    0.0000 C   0  0  0  0  0  0  0  0  0  0  0  0
    0.7287    0.6428    0.0000 C   0  0  0  0  0  0  0  0  0  0  0  0
   -1.4162   -0.5981    0.0000 N   0  0  0  0  0  0  0  0  0  0  0  0
    2.1483   -0.1821    0.0000 C   0  0  0  0  0  0  0  0  0  0  0  0
    0.0068   -0.5981    0.0000 C   0  0  0  0  0  0  0  0  0  0  0  0
    0.7287   -0.1856    0.0000 C   0  0  0  0  0  0  0  0  0  0  0  0
   -2.1311   -1.8526    0.0000 C   0  0  0  0  0  0  0  0  0  0  0  0
    1.4299   -0.5843    0.0000 C   0  0  0  0  0  0  0  0  0  0  0  0
    1.4402    1.8733    0.0000 O   0  0  0  0  0  0  0  0  0  0  0  0
    2.8701    1.0415    0.0000 O   0  0  0  0  0  0  0  0  0  0  0  0
    3.5747    0.6393    0.0000 C   0  0  0  0  0  0  0  0  0  0  0  0
    0.7390    2.2720    0.0000 C   0  0  0  0  0  0  0  0  0  0  0  0
    0.7287    3.0970    0.0000 C   0  0  0  0  0  0  0  0  0  0  0  0
  2  1  1  0  0  0  0
  3 11  2  0  0  0  0
  4 23  1  0  0  0  0
  5  4  3  0  0  0  0
  6  1  1  0  0  0  0
  7 15  1  0  0  0  0
  8 14  1  0  0  0  0
  9 19  2  0  0  0  0
  9  3  1  0  0  0  0
 10  1  2  0  0  0  0
 11  2  1  0  0  0  0
 12 16  1  0  0  0  0
 12  8  2  0  0  0  0
 13  2  2  0  0  0  0
 14 18  2  0  0  0  0
 15  9  1  0  0  0  0
 16 20  2  0  0  0  0
 17  7  2  0  0  0  0
 18 17  1  0  0  0  0
 19 13  1  0  0  0  0
 20 18  1  0  0  0  0
 21  8  1  0  0  0  0
 22 12  1  0  0  0  0
 23 22  1  0  0  0  0
 24 21  1  0  0  0  0
 25 24  1  0  0  0  0
M  END
> <CdId>
2121

> <Mol Weight>
340.3333

> <Formula>
C17H16N4O4

> <Click_ID>
CLK028_D07 __ __ 

$$$$
