CLK005_E11
 OpenBabel03181419432D

 19 20  0  0  0  0  0  0  0  0999 V2000
    1.3143    0.1573    0.0000 C    0  0  0  0  0  0  0  0  0  0  0  0
   -0.1173    0.1573    0.0000 C    0  0  0  0  0  0  0  0  0  0  0  0
    0.5998    0.5652    0.0000 C    0  0  0  0  0  0  0  0  0  0  0  0
    1.3143   -0.6718    0.0000 C    0  0  0  0  0  0  0  0  0  0  0  0
    0.5998   -1.0824    0.0000 N    0  0  0  0  0  0  0  0  0  0  0  0
   -1.5436    0.1573    0.0000 C    0  0  0  0  0  0  0  0  0  0  0  0
   -0.8291    0.5652    0.0000 N    0  0  0  0  0  0  0  0  0  0  0  0
   -3.6923    0.5652    0.0000 C    0  0  0  0  0  0  0  0  0  0  0  0
   -4.3935    0.9810    0.0000 C    0  0  0  0  0  0  0  0  0  0  0  0
    2.0261   -1.0824    0.0000 C    0  0  0  0  0  0  0  0  0  0  0  0
    2.0261    0.5652    0.0000 C    0  0  0  0  0  0  0  0  0  0  0  0
   -0.1173   -0.6718    0.0000 C    0  0  0  0  0  0  0  0  0  0  0  0
   -1.5436   -0.6718    0.0000 O    0  0  0  0  0  0  0  0  0  0  0  0
   -2.2607    0.5652    0.0000 N    0  0  0  0  0  0  0  0  0  0  0  0
    2.7432   -0.6718    0.0000 C    0  0  0  0  0  0  0  0  0  0  0  0
    0.5998    1.3889    0.0000 O    0  0  0  0  0  0  0  0  0  0  0  0
    2.7432    0.1573    0.0000 C    0  0  0  0  0  0  0  0  0  0  0  0
    3.4577   -1.0824    0.0000 Cl   0  0  0  0  0  0  0  0  0  0  0  0
   -2.9725    0.1573    0.0000 C    0  0  0  0  0  0  0  0  0  0  0  0
  2  3  2  0  0  0  0
  3  1  1  0  0  0  0
  4  1  1  0  0  0  0
  5  4  1  0  0  0  0
  6  7  1  0  0  0  0
  7  2  1  0  0  0  0
  8 19  1  0  0  0  0
  9  8  3  0  0  0  0
 10  4  2  0  0  0  0
 11  1  2  0  0  0  0
 12  5  2  0  0  0  0
 12  2  1  0  0  0  0
 13  6  2  0  0  0  0
 14  6  1  0  0  0  0
 15 17  2  0  0  0  0
 15 10  1  0  0  0  0
 16  3  1  0  0  0  0
 17 11  1  0  0  0  0
 18 15  1  0  0  0  0
 19 14  1  0  0  0  0
M  END
> <CdId>
370

> <Mol Weight>
275.69

> <Formula>
C13H10ClN3O2

> <Click_ID>
CLK005_E11 __ __ 

$$$$
