CLK038H02
 OpenBabel03181419432D

 21 22  0  0  0  0  0  0  0  0999 V2000
   -1.5250    0.0583    0.0000 N   0  0  0  0  0  0  0  0  0  0  0  0
   -1.0375   -0.6083    0.0000 C   0  0  0  0  0  0  0  0  0  0  0  0
   -1.5250   -1.2792    0.0000 S   0  0  0  0  0  0  0  0  0  0  0  0
   -2.3083   -0.1958    0.0000 C   0  0  0  0  0  0  0  0  0  0  0  0
   -2.3083   -1.0208    0.0000 C   0  0  0  0  0  0  0  0  0  0  0  0
    3.0875    0.8167    0.0000 C   0  0  0  0  0  0  0  0  0  0  0  0
    1.0250    0.1042    0.0000 C   0  0  0  0  0  0  0  0  0  0  0  0
   -0.2125   -0.6083    0.0000 C   0  0  0  0  0  0  0  0  0  0  0  0
    3.9125    0.8167    0.0000 C   0  0  0  0  0  0  0  0  0  0  0  0
    0.2000    0.1042    0.0000 C   0  0  0  0  0  0  0  0  0  0  0  0
    1.4375    0.8167    0.0000 N   0  0  0  0  0  0  0  0  0  0  0  0
    2.2625    0.8167    0.0000 C   0  0  0  0  0  0  0  0  0  0  0  0
    1.4375   -0.6083    0.0000 O   0  0  0  0  0  0  0  0  0  0  0  0
   -3.0250    0.2167    0.0000 C   0  0  0  0  0  0  0  0  0  0  0  0
   -3.0250   -1.4333    0.0000 C   0  0  0  0  0  0  0  0  0  0  0  0
    2.2625    1.6417    0.0000 C   0  0  0  0  0  0  0  0  0  0  0  0
    2.2625   -0.0083    0.0000 C   0  0  0  0  0  0  0  0  0  0  0  0
    2.9750    2.0542    0.0000 C   0  0  0  0  0  0  0  0  0  0  0  0
    1.5458   -0.4208    0.0000 C   0  0  0  0  0  0  0  0  0  0  0  0
   -3.7375   -1.0208    0.0000 C   0  0  0  0  0  0  0  0  0  0  0  0
   -3.7375   -0.1958    0.0000 C   0  0  0  0  0  0  0  0  0  0  0  0
  2  1  2  0  0  0  0
  3  2  1  0  0  0  0
  3  5  1  0  0  0  0
  4  1  1  0  0  0  0
  5  4  2  0  0  0  0
  6 12  1  0  0  0  0
  7 10  1  0  0  0  0
  8  2  1  0  0  0  0
  9  6  3  0  0  0  0
 10  8  2  0  0  0  0
 11  7  1  0  0  0  0
 12 11  1  0  0  0  0
 13  7  2  0  0  0  0
 14  4  1  0  0  0  0
 15  5  1  0  0  0  0
 16 12  1  0  0  0  0
 17 12  1  0  0  0  0
 18 16  1  0  0  0  0
 19 17  1  0  0  0  0
 20 15  2  0  0  0  0
 20 21  1  0  0  0  0
 21 14  2  0  0  0  0
M  END
> <CdId>
2856

> <Mol Weight>
298.403

> <Formula>
C17H18N2OS

> <Click_ID>
CLK038H02 __ __ 

$$$$
