CLK041C06
 OpenBabel03181419432D

 27 29  0  0  0  0  0  0  0  0999 V2000
   -0.1459    0.5045    0.0000 C   0  0  0  0  0  0  0  0  0  0  0  0
    1.1214    0.0917    0.0000 N   0  0  0  0  0  0  0  0  0  0  0  0
    0.3377   -0.1626    0.0000 C   0  0  0  0  0  0  0  0  0  0  0  0
    1.1214    0.9172    0.0000 N   0  0  0  0  0  0  0  0  0  0  0  0
    0.3377    1.1756    0.0000 C   0  0  0  0  0  0  0  0  0  0  0  0
   -0.9713    0.5045    0.0000 C   0  0  0  0  0  0  0  0  0  0  0  0
    0.0833   -0.9463    0.0000 C   0  0  0  0  0  0  0  0  0  0  0  0
   -0.7254   -1.1173    0.0000 C   0  0  0  0  0  0  0  0  0  0  0  0
   -2.6222    1.9343    0.0000 C   0  0  0  0  0  0  0  0  0  0  0  0
   -3.0349    2.6514    0.0000 C   0  0  0  0  0  0  0  0  0  0  0  0
   -0.9797   -1.9010    0.0000 C   0  0  0  0  0  0  0  0  0  0  0  0
    1.7926    1.4049    0.0000 C   0  0  0  0  0  0  0  0  0  0  0  0
   -0.4252   -2.5180    0.0000 C   0  0  0  0  0  0  0  0  0  0  0  0
   -1.3840   -0.2084    0.0000 O   0  0  0  0  0  0  0  0  0  0  0  0
    0.6336   -1.5591    0.0000 C   0  0  0  0  0  0  0  0  0  0  0  0
    0.3794   -2.3429    0.0000 C   0  0  0  0  0  0  0  0  0  0  0  0
   -1.3840    1.2214    0.0000 N   0  0  0  0  0  0  0  0  0  0  0  0
   -1.7884   -2.0761    0.0000 O   0  0  0  0  0  0  0  0  0  0  0  0
   -2.2095    1.2214    0.0000 C   0  0  0  0  0  0  0  0  0  0  0  0
   -0.6837   -3.3017    0.0000 O   0  0  0  0  0  0  0  0  0  0  0  0
    2.5430    1.0673    0.0000 C   0  0  0  0  0  0  0  0  0  0  0  0
    1.7051    2.2262    0.0000 C   0  0  0  0  0  0  0  0  0  0  0  0
   -2.3387   -1.4633    0.0000 C   0  0  0  0  0  0  0  0  0  0  0  0
   -0.1293   -3.9146    0.0000 C   0  0  0  0  0  0  0  0  0  0  0  0
    2.3721    2.7097    0.0000 C   0  0  0  0  0  0  0  0  0  0  0  0
    3.2142    1.5550    0.0000 C   0  0  0  0  0  0  0  0  0  0  0  0
    3.1267    2.3763    0.0000 C   0  0  0  0  0  0  0  0  0  0  0  0
  2  3  2  0  0  0  0
  3  1  1  0  0  0  0
  4  5  1  0  0  0  0
  4  2  1  0  0  0  0
  5  1  2  0  0  0  0
  6  1  1  0  0  0  0
  7  3  1  0  0  0  0
  8  7  2  0  0  0  0
  9 19  1  0  0  0  0
 10  9  3  0  0  0  0
 11  8  1  0  0  0  0
 12  4  1  0  0  0  0
 13 11  2  0  0  0  0
 14  6  2  0  0  0  0
 15  7  1  0  0  0  0
 16 15  2  0  0  0  0
 16 13  1  0  0  0  0
 17  6  1  0  0  0  0
 18 11  1  0  0  0  0
 19 17  1  0  0  0  0
 20 13  1  0  0  0  0
 21 12  1  0  0  0  0
 22 12  2  0  0  0  0
 23 18  1  0  0  0  0
 24 20  1  0  0  0  0
 25 22  1  0  0  0  0
 26 21  2  0  0  0  0
 27 25  2  0  0  0  0
 27 26  1  0  0  0  0
M  END
> <CdId>
3123

> <Mol Weight>
361.3939

> <Formula>
C21H19N3O3

> <Click_ID>
CLK041C06 __ __ 

$$$$
