CLK005_D06
 OpenBabel03181419432D

 29 32  0  0  0  0  0  0  0  0999 V2000
    0.5664    0.3079    0.0000 C   0  0  3  0  0  0  0  0  0  0  0  0
    1.2847   -0.0950    0.0000 C   0  0  0  0  0  0  0  0  0  0  0  0
    0.5549    1.1327    0.0000 C   0  0  0  0  0  0  0  0  0  0  0  0
   -0.1483   -0.1102    0.0000 C   0  0  0  0  0  0  0  0  0  0  0  0
    1.9955    0.3307    0.0000 C   0  0  0  0  0  0  0  0  0  0  0  0
    1.2924   -0.9084    0.0000 C   0  0  0  0  0  0  0  0  0  0  0  0
    1.2582    1.5508    0.0000 C   0  0  0  0  0  0  0  0  0  0  0  0
   -0.1635    1.5356    0.0000 C   0  0  0  0  0  0  0  0  0  0  0  0
   -0.8666    0.2889    0.0000 C   0  0  0  0  0  0  0  0  0  0  0  0
   -0.1330   -0.9351    0.0000 C   0  0  0  0  0  0  0  0  0  0  0  0
    1.9842    1.1479    0.0000 N   0  0  0  0  0  0  0  0  0  0  0  0
    2.7177   -0.0685    0.0000 C   0  0  0  0  0  0  0  0  0  0  0  0
    2.0146   -1.3228    0.0000 C   0  0  0  0  0  0  0  0  0  0  0  0
    0.5777   -1.3456    0.0000 O   0  0  0  0  0  0  0  0  0  0  0  0
    1.2506    2.3833    0.0000 C   0  0  0  0  0  0  0  0  0  0  0  0
   -0.1748    2.3566    0.0000 C   0  0  0  0  0  0  0  0  0  0  0  0
   -0.8781    1.1175    0.0000 O   0  0  0  0  0  0  0  0  0  0  0  0
   -1.5813   -0.1368    0.0000 C   0  0  0  0  0  0  0  0  0  0  0  0
   -0.8438   -1.3646    0.0000 C   0  0  0  0  0  0  0  0  0  0  0  0
    2.6912    1.5774    0.0000 C   0  0  0  0  0  0  0  0  0  0  0  0
    2.7254   -0.9047    0.0000 C   0  0  0  0  0  0  0  0  0  0  0  0
    0.5283    2.7747    0.0000 C   0  0  0  0  0  0  0  0  0  0  0  0
   -1.5661   -0.9617    0.0000 C   0  0  0  0  0  0  0  0  0  0  0  0
   -2.2996    0.2661    0.0000 O   0  0  0  0  0  0  0  0  0  0  0  0
   -2.2768   -1.3912    0.0000 O   0  0  0  0  0  0  0  0  0  0  0  0
   -2.3111    1.0947    0.0000 C   0  0  0  0  0  0  0  0  0  0  0  0
   -2.2616   -2.2160    0.0000 C   0  0  0  0  0  0  0  0  0  0  0  0
   -2.9725   -2.6379    0.0000 C   0  0  0  0  0  0  0  0  0  0  0  0
   -2.9610   -3.4704    0.0000 C   0  0  0  0  0  0  0  0  0  0  0  0
  1  2  1  0  0  0  0
  1  3  1  0  0  0  0
  1  4  1  0  0  0  0
  2  5  2  0  0  0  0
  2  6  1  0  0  0  0
  3  7  2  0  0  0  0
  3  8  1  0  0  0  0
  4  9  1  0  0  0  0
  4 10  2  0  0  0  0
  5 11  1  0  0  0  0
  5 12  1  0  0  0  0
  6 13  1  0  0  0  0
  6 14  2  0  0  0  0
  7 15  1  0  0  0  0
  7 11  1  0  0  0  0
  8 16  1  0  0  0  0
  8 17  2  0  0  0  0
  9 18  2  0  0  0  0
 10 19  1  0  0  0  0
 11 20  1  0  0  0  0
 12 21  1  0  0  0  0
 13 21  1  0  0  0  0
 15 22  1  0  0  0  0
 16 22  1  0  0  0  0
 18 23  1  0  0  0  0
 18 24  1  0  0  0  0
 19 23  2  0  0  0  0
 23 25  1  0  0  0  0
 24 26  1  0  0  0  0
 25 27  1  0  0  0  0
 27 28  1  0  0  0  0
 28 29  3  0  0  0  0
M  END
> <CdId>
355

> <Mol Weight>
391.4596

> <Formula>
C24H25NO4

> <Click_ID>
CLK005_D06 __ __ 

$$$$
