CLK009_C08
 OpenBabel03181419432D

 14 15  0  0  0  0  0  0  0  0999 V2000
   -1.7070    1.0118    0.0000 C   0  0  0  0  0  0  0  0  0  0  0  0
   -0.9132    1.2608    0.0000 N   0  0  0  0  0  0  0  0  0  0  0  0
   -0.4358    0.6174    0.0000 O   0  0  0  0  0  0  0  0  0  0  0  0
   -1.7070    0.1868    0.0000 C   0  0  0  0  0  0  0  0  0  0  0  0
   -0.9132   -0.0831    0.0000 N   0  0  0  0  0  0  0  0  0  0  0  0
   -2.4283    1.4321    0.0000 C   0  0  0  0  0  0  0  0  0  0  0  0
   -0.9910    3.9018    0.0000 C   0  0  0  0  0  0  0  0  0  0  0  0
   -0.2646    4.3221    0.0000 C   0  0  0  0  0  0  0  0  0  0  0  0
   -2.4283    2.2571    0.0000 N   0  0  0  0  0  0  0  0  0  0  0  0
   -1.7070    2.6774    0.0000 O   0  0  0  0  0  0  0  0  0  0  0  0
   -2.4283   -0.2335    0.0000 C   0  0  0  0  0  0  0  0  0  0  0  0
   -3.1288    1.0118    0.0000 C   0  0  0  0  0  0  0  0  0  0  0  0
   -1.7070    3.5024    0.0000 C   0  0  0  0  0  0  0  0  0  0  0  0
   -3.1288    0.1868    0.0000 C   0  0  0  0  0  0  0  0  0  0  0  0
  2  1  2  0  0  0  0
  3  2  1  0  0  0  0
  4  1  1  0  0  0  0
  5  4  2  0  0  0  0
  5  3  1  0  0  0  0
  6  1  1  0  0  0  0
  7 13  1  0  0  0  0
  8  7  3  0  0  0  0
  9  6  2  0  0  0  0
 10  9  1  0  0  0  0
 11  4  1  0  0  0  0
 11 14  1  0  0  0  0
 12  6  1  0  0  0  0
 13 10  1  0  0  0  0
 14 12  1  0  0  0  0
M  END
> <CdId>
623

> <Mol Weight>
191.1867

> <Formula>
C9H9N3O2

> <Click_ID>
CLK009_C08 __ __ 

$$$$
