CLK010_B06
 OpenBabel03181419432D

 31 33  0  0  0  0  0  0  0  0999 V2000
    2.4859   -0.6734    0.0000 N    0  0  0  0  0  0  0  0  0  0  0  0
    3.1842   -1.9080    0.0000 C    0  0  0  0  0  0  0  0  0  0  0  0
    2.4817   -1.4965    0.0000 C    0  0  0  0  0  0  0  0  0  0  0  0
    3.1967   -0.2619    0.0000 C    0  0  0  0  0  0  0  0  0  0  0  0
    3.9076   -0.6776    0.0000 N    0  0  0  0  0  0  0  0  0  0  0  0
    3.9034   -1.5007    0.0000 C    0  0  0  0  0  0  0  0  0  0  0  0
    1.7709   -0.2619    0.0000 C    0  0  0  0  0  0  0  0  0  0  0  0
    3.1842   -2.7311    0.0000 C    0  0  0  0  0  0  0  0  0  0  0  0
    5.3168   -3.9824    0.0000 C    0  0  0  0  0  0  0  0  0  0  0  0
    4.6017   -4.3814    0.0000 C    0  0  0  0  0  0  0  0  0  0  0  0
    5.3292   -3.1593    0.0000 C    0  0  0  0  0  0  0  0  0  0  0  0
    3.8951   -3.1468    0.0000 C    0  0  0  0  0  0  0  0  0  0  0  0
    6.7218   -5.6659    0.0000 C    0  0  0  0  0  0  0  0  0  0  0  0
    3.1967    0.5612    0.0000 O    0  0  0  0  0  0  0  0  0  0  0  0
    7.4326   -6.0858    0.0000 C    0  0  0  0  0  0  0  0  0  0  0  0
    1.7626   -1.8998    0.0000 O    0  0  0  0  0  0  0  0  0  0  0  0
    1.7709    0.5695    0.0000 C    0  0  0  0  0  0  0  0  0  0  0  0
    1.0517   -0.6734    0.0000 C    0  0  0  0  0  0  0  0  0  0  0  0
    3.8826   -3.9699    0.0000 C    0  0  0  0  0  0  0  0  0  0  0  0
    4.6184   -2.7353    0.0000 C    0  0  0  0  0  0  0  0  0  0  0  0
    4.6142   -1.9122    0.0000 O    0  0  0  0  0  0  0  0  0  0  0  0
    0.3409   -0.2619    0.0000 C    0  0  0  0  0  0  0  0  0  0  0  0
    1.0517    0.9810    0.0000 C    0  0  0  0  0  0  0  0  0  0  0  0
    4.5893   -5.2128    0.0000 Br   0  0  0  0  0  0  0  0  0  0  0  0
    0.3409    0.5695    0.0000 C    0  0  0  0  0  0  0  0  0  0  0  0
    6.0276   -4.4064    0.0000 O    0  0  0  0  0  0  0  0  0  0  0  0
    6.0401   -2.7602    0.0000 O    0  0  0  0  0  0  0  0  0  0  0  0
    6.0151   -5.2377    0.0000 C    0  0  0  0  0  0  0  0  0  0  0  0
    1.0517    1.8041    0.0000 C    0  0  0  0  0  0  0  0  0  0  0  0
   -0.3741   -0.6734    0.0000 C    0  0  0  0  0  0  0  0  0  0  0  0
    6.0483   -1.9496    0.0000 C    0  0  0  0  0  0  0  0  0  0  0  0
  2  3  1  0  0  0  0
  2  6  1  0  0  0  0
  3  1  1  0  0  0  0
  4  1  1  0  0  0  0
  5  4  1  0  0  0  0
  6  5  1  0  0  0  0
  7  1  1  0  0  0  0
  8  2  2  0  0  0  0
  9 11  2  0  0  0  0
 10 19  2  0  0  0  0
 10  9  1  0  0  0  0
 11 20  1  0  0  0  0
 12  8  1  0  0  0  0
 13 28  1  0  0  0  0
 14  4  2  0  0  0  0
 15 13  3  0  0  0  0
 16  3  2  0  0  0  0
 17  7  2  0  0  0  0
 18  7  1  0  0  0  0
 19 12  1  0  0  0  0
 20 12  2  0  0  0  0
 21  6  2  0  0  0  0
 22 18  2  0  0  0  0
 23 17  1  0  0  0  0
 23 25  2  0  0  0  0
 24 10  1  0  0  0  0
 25 22  1  0  0  0  0
 26  9  1  0  0  0  0
 27 11  1  0  0  0  0
 28 26  1  0  0  0  0
 29 23  1  0  0  0  0
 30 22  1  0  0  0  0
 31 27  1  0  0  0  0
M  END
> <CdId>
691

> <Mol Weight>
483.311

> <Formula>
C23H19BrN2O5

> <Click_ID>
CLK010_B06 __ __ 

$$$$
