CLK007_F05
 OpenBabel03181419432D

 35 38  0  0  0  0  0  0  0  0999 V2000
   -0.7974   -0.6938    0.0000 C   0  0  3  0  0  0  0  0  0  0  0  0
   -1.5084   -1.1045    0.0000 C   0  0  0  0  0  0  0  0  0  0  0  0
   -0.0829   -1.1149    0.0000 C   0  0  0  0  0  0  0  0  0  0  0  0
   -0.7939    0.1346    0.0000 C   0  0  0  0  0  0  0  0  0  0  0  0
   -1.5187   -1.9295    0.0000 C   0  0  0  0  0  0  0  0  0  0  0  0
   -2.2229   -0.6938    0.0000 C   0  0  0  0  0  0  0  0  0  0  0  0
   -0.0829   -1.9398    0.0000 C   0  0  0  0  0  0  0  0  0  0  0  0
    0.6351   -0.7041    0.0000 C   0  0  0  0  0  0  0  0  0  0  0  0
   -0.0794    0.5384    0.0000 C   0  0  0  0  0  0  0  0  0  0  0  0
   -1.5049    0.5384    0.0000 C   0  0  0  0  0  0  0  0  0  0  0  0
   -0.8042   -2.3437    0.0000 N   0  0  0  0  0  0  0  0  0  0  0  0
   -2.2229   -2.3437    0.0000 C   0  0  0  0  0  0  0  0  0  0  0  0
   -2.9305   -1.1045    0.0000 C   0  0  0  0  0  0  0  0  0  0  0  0
   -2.2229    0.1346    0.0000 O   0  0  0  0  0  0  0  0  0  0  0  0
    0.6213   -2.3575    0.0000 C   0  0  0  0  0  0  0  0  0  0  0  0
    1.3461   -1.1183    0.0000 N   0  0  0  0  0  0  0  0  0  0  0  0
    0.6351    0.1208    0.0000 O   0  0  0  0  0  0  0  0  0  0  0  0
   -0.0691    1.3738    0.0000 C   0  0  0  0  0  0  0  0  0  0  0  0
   -1.5049    1.3635    0.0000 C   0  0  0  0  0  0  0  0  0  0  0  0
   -2.9305   -1.9295    0.0000 C   0  0  3  0  0  0  0  0  0  0  0  0
    2.0606   -0.7041    0.0000 C   0  0  0  0  0  0  0  0  0  0  0  0
   -0.7939    1.7846    0.0000 C   0  0  0  0  0  0  0  0  0  0  0  0
    0.6454    1.7777    0.0000 O   0  0  0  0  0  0  0  0  0  0  0  0
   -3.6484   -2.3437    0.0000 C   0  0  0  0  0  0  0  0  0  0  0  0
    2.0468    0.1208    0.0000 C   0  0  0  0  0  0  0  0  0  0  0  0
    2.7752   -1.1045    0.0000 N   0  0  0  0  0  0  0  0  0  0  0  0
   -0.7939    2.6095    0.0000 O   0  0  0  0  0  0  0  0  0  0  0  0
    1.3599    1.3635    0.0000 C   0  0  0  0  0  0  0  0  0  0  0  0
    2.7579    0.5384    0.0000 C   0  0  0  0  0  0  0  0  0  0  0  0
    3.4828   -0.6938    0.0000 C   0  0  0  0  0  0  0  0  0  0  0  0
   -0.0691    3.0237    0.0000 C   0  0  0  0  0  0  0  0  0  0  0  0
    3.4758    0.1346    0.0000 C   0  0  0  0  0  0  0  0  0  0  0  0
   -0.0794    3.8486    0.0000 C   0  0  0  0  0  0  0  0  0  0  0  0
    4.1870    0.5522    0.0000 C   0  0  0  0  0  0  0  0  0  0  0  0
    0.6351    4.2663    0.0000 C   0  0  0  0  0  0  0  0  0  0  0  0
  1  2  1  0  0  0  0
  1  3  1  0  0  0  0
  1  4  1  0  0  0  0
  2  5  2  0  0  0  0
  2  6  1  0  0  0  0
  3  7  2  0  0  0  0
  3  8  1  0  0  0  0
  4  9  2  0  0  0  0
  4 10  1  0  0  0  0
  5 11  1  0  0  0  0
  5 12  1  0  0  0  0
  6 13  1  0  0  0  0
  6 14  2  0  0  0  0
  7 15  1  0  0  0  0
  7 11  1  0  0  0  0
  8 16  1  0  0  0  0
  8 17  2  0  0  0  0
  9 18  1  0  0  0  0
 10 19  2  0  0  0  0
 12 20  1  0  0  0  0
 13 20  1  0  0  0  0
 16 21  1  0  0  0  0
 18 22  2  0  0  0  0
 18 23  1  0  0  0  0
 19 22  1  0  0  0  0
 20 24  1  0  0  0  0
 21 25  1  0  0  0  0
 21 26  2  0  0  0  0
 22 27  1  0  0  0  0
 23 28  1  0  0  0  0
 25 29  2  0  0  0  0
 26 30  1  0  0  0  0
 27 31  1  0  0  0  0
 29 32  1  0  0  0  0
 30 32  2  0  0  0  0
 31 33  1  0  0  0  0
 32 34  1  0  0  0  0
 33 35  3  0  0  0  0
M  END
> <CdId>
534

> <Mol Weight>
471.5476

> <Formula>
C28H29N3O4

> <Click_ID>
CLK007_F05 __ __ 

$$$$
