CLK002_G11
 OpenBabel03181419432D

 29 31  0  0  0  0  0  0  0  0999 V2000
   -1.4343    0.3936    0.0000 N   0  0  0  0  0  0  0  0  0  0  0  0
   -2.1837    0.7228    0.0000 C   0  0  0  0  0  0  0  0  0  0  0  0
   -1.2640   -0.4163    0.0000 C   0  0  0  0  0  0  0  0  0  0  0  0
   -0.7191    0.7947    0.0000 N   0  0  0  0  0  0  0  0  0  0  0  0
   -2.2632    1.5478    0.0000 C   0  0  0  0  0  0  0  0  0  0  0  0
   -2.8535    0.2422    0.0000 C   0  0  0  0  0  0  0  0  0  0  0  0
   -0.4466   -0.5072    0.0000 C   0  0  0  0  0  0  0  0  0  0  0  0
   -1.8128   -1.0294    0.0000 O   0  0  0  0  0  0  0  0  0  0  0  0
   -0.1098    0.2460    0.0000 C   0  0  0  0  0  0  0  0  0  0  0  0
   -3.0200    1.8809    0.0000 C   0  0  0  0  0  0  0  0  0  0  0  0
   -3.5991    0.5752    0.0000 C   0  0  0  0  0  0  0  0  0  0  0  0
   -0.0340   -1.2186    0.0000 C   0  0  0  0  0  0  0  0  0  0  0  0
    0.7001    0.4201    0.0000 C   0  0  0  0  0  0  0  0  0  0  0  0
   -3.6899    1.3965    0.0000 C   0  0  0  0  0  0  0  0  0  0  0  0
   -3.1033    2.6983    0.0000 C   0  0  0  0  0  0  0  0  0  0  0  0
    0.7910   -1.2186    0.0000 C   0  0  0  0  0  0  0  0  0  0  0  0
   -2.4334    3.1791    0.0000 O   0  0  0  0  0  0  0  0  0  0  0  0
   -3.8564    3.0427    0.0000 O   0  0  0  0  0  0  0  0  0  0  0  0
    1.1997   -0.5072    0.0000 C   0  0  0  0  0  0  0  0  0  0  0  0
    1.1997   -1.9339    0.0000 C   0  0  0  0  0  0  0  0  0  0  0  0
    2.0247   -0.5109    0.0000 C   0  0  0  0  0  0  0  0  0  0  0  0
    2.0247   -1.9377    0.0000 C   0  0  0  0  0  0  0  0  0  0  0  0
    2.4372   -1.2261    0.0000 C   0  0  0  0  0  0  0  0  0  0  0  0
    2.4410    0.2006    0.0000 O   0  0  0  0  0  0  0  0  0  0  0  0
    3.2585   -1.2261    0.0000 O   0  0  0  0  0  0  0  0  0  0  0  0
    3.2622    0.2006    0.0000 C   0  0  0  0  0  0  0  0  0  0  0  0
    3.6710   -1.9377    0.0000 C   0  0  0  0  0  0  0  0  0  0  0  0
    4.4922   -1.9377    0.0000 C   0  0  0  0  0  0  0  0  0  0  0  0
    5.3172   -1.9377    0.0000 C   0  0  0  0  0  0  0  0  0  0  0  0
  1  2  1  0  0  0  0
  1  3  1  0  0  0  0
  1  4  1  0  0  0  0
  2  5  1  0  0  0  0
  2  6  2  0  0  0  0
  3  7  1  0  0  0  0
  3  8  2  0  0  0  0
  4  9  2  0  0  0  0
  5 10  2  0  0  0  0
  6 11  1  0  0  0  0
  7 12  2  0  0  0  0
  7  9  1  0  0  0  0
  9 13  1  0  0  0  0
 10 14  1  0  0  0  0
 10 15  1  0  0  0  0
 11 14  2  0  0  0  0
 12 16  1  0  0  0  0
 15 17  1  0  0  0  0
 15 18  2  0  0  0  0
 16 19  2  0  0  0  0
 16 20  1  0  0  0  0
 19 21  1  0  0  0  0
 20 22  2  0  0  0  0
 21 23  2  0  0  0  0
 21 24  1  0  0  0  0
 22 23  1  0  0  0  0
 23 25  1  0  0  0  0
 24 26  1  0  0  0  0
 25 27  1  0  0  0  0
 27 28  1  0  0  0  0
 28 29  3  0  0  0  0
M  END
> <CdId>
150

> <Mol Weight>
390.3887

> <Formula>
C22H18N2O5

> <Click_ID>
CLK002_G11 __ __ 

$$$$
