CLK021_E09
 OpenBabel03181419432D

 28 29  0  0  0  0  0  0  0  0999 V2000
    6.6101    2.1988    0.0000 C   0  0  0  0  0  0  0  0  0  0  0  0
    5.8955    1.7865    0.0000 C   0  0  3  0  0  0  0  0  0  0  0  0
    7.3247    1.7865    0.0000 C   0  0  0  0  0  0  0  0  0  0  0  0
    6.6101    0.5497    0.0000 C   0  0  0  0  0  0  0  0  0  0  0  0
    7.3247    0.9620    0.0000 N   0  0  0  0  0  0  0  0  0  0  0  0
    5.8955    0.9620    0.0000 N   0  0  0  0  0  0  0  0  0  0  0  0
    6.6101    3.0233    0.0000 C   0  0  0  0  0  0  0  0  0  0  0  0
    5.1809    2.1988    0.0000 C   0  0  0  0  0  0  0  0  0  0  0  0
    5.1809    3.0233    0.0000 C   0  0  0  0  0  0  0  0  0  0  0  0
    1.6079    3.4356    0.0000 C   0  0  0  0  0  0  0  0  0  0  0  0
    0.8979    3.8479    0.0000 C   0  0  0  0  0  0  0  0  0  0  0  0
    4.4663    3.4356    0.0000 C   0  0  0  0  0  0  0  0  0  0  0  0
    6.6101   -0.2748    0.0000 O   0  0  0  0  0  0  0  0  0  0  0  0
    3.7517    3.0233    0.0000 C   0  0  0  0  0  0  0  0  0  0  0  0
    4.4663    1.7865    0.0000 C   0  0  0  0  0  0  0  0  0  0  0  0
    5.8955    3.4356    0.0000 O   0  0  0  0  0  0  0  0  0  0  0  0
    3.7517    2.1988    0.0000 C   0  0  0  0  0  0  0  0  0  0  0  0
    7.3247    3.4356    0.0000 O   0  0  0  0  0  0  0  0  0  0  0  0
    8.0302    2.1988    0.0000 C   0  0  0  0  0  0  0  0  0  0  0  0
    4.4663    4.2601    0.0000 O   0  0  0  0  0  0  0  0  0  0  0  0
    3.0371    3.4356    0.0000 O   0  0  0  0  0  0  0  0  0  0  0  0
    2.3225    3.0233    0.0000 C   0  0  0  0  0  0  0  0  0  0  0  0
    7.3247    4.2601    0.0000 C   0  0  0  0  0  0  0  0  0  0  0  0
    5.1809    4.6633    0.0000 C   0  0  0  0  0  0  0  0  0  0  0  0
    8.7448    1.7865    0.0000 C   0  0  0  0  0  0  0  0  0  0  0  0
    5.1809    5.4878    0.0000 C   0  0  0  0  0  0  0  0  0  0  0  0
    8.0302    4.6633    0.0000 C   0  0  0  0  0  0  0  0  0  0  0  0
    9.4594    2.1988    0.0000 C   0  0  0  0  0  0  0  0  0  0  0  0
  2  1  1  0  0  0  0
  3  1  2  0  0  0  0
  4  5  1  0  0  0  0
  4  6  1  0  0  0  0
  5  3  1  0  0  0  0
  6  2  1  0  0  0  0
  7  1  1  0  0  0  0
  8  2  1  0  0  0  0
  9  8  2  0  0  0  0
 10 22  1  0  0  0  0
 11 10  3  0  0  0  0
 12  9  1  0  0  0  0
 13  4  2  0  0  0  0
 14 17  1  0  0  0  0
 14 12  2  0  0  0  0
 15  8  1  0  0  0  0
 16  7  2  0  0  0  0
 17 15  2  0  0  0  0
 18  7  1  0  0  0  0
 19  3  1  0  0  0  0
 20 12  1  0  0  0  0
 21 14  1  0  0  0  0
 22 21  1  0  0  0  0
 23 18  1  0  0  0  0
 24 20  1  0  0  0  0
 25 19  1  0  0  0  0
 26 24  1  0  0  0  0
 27 23  1  0  0  0  0
 28 25  1  0  0  0  0
M  END
> <CdId>
1604

> <Mol Weight>
386.4415

> <Formula>
C21H26N2O5

> <Click_ID>
CLK021_E09 __ __ 

$$$$
