CLK010_H05
 OpenBabel03181419432D

 30 33  0  0  0  0  0  0  0  0999 V2000
    1.1542   -0.6500    0.0000 N    0  0  0  0  0  0  0  0  0  0  0  0
    1.8625   -1.8792    0.0000 C    0  0  0  0  0  0  0  0  0  0  0  0
    1.1542   -1.4750    0.0000 C    0  0  0  0  0  0  0  0  0  0  0  0
    1.8625   -0.2292    0.0000 C    0  0  0  0  0  0  0  0  0  0  0  0
    2.5792   -0.6417    0.0000 N    0  0  0  0  0  0  0  0  0  0  0  0
    2.5750   -1.4667    0.0000 C    0  0  0  0  0  0  0  0  0  0  0  0
    2.5792   -3.1167    0.0000 C    0  0  0  0  0  0  0  0  0  0  0  0
    1.8625   -2.7042    0.0000 C    0  0  0  0  0  0  0  0  0  0  0  0
    3.8875   -3.3917    0.0000 N    0  0  0  0  0  0  0  0  0  0  0  0
    0.4375   -0.2292    0.0000 C    0  0  0  0  0  0  0  0  0  0  0  0
    3.3292   -2.7792    0.0000 C    0  0  0  0  0  0  0  0  0  0  0  0
    2.6667   -3.9375    0.0000 C    0  0  0  0  0  0  0  0  0  0  0  0
    3.4667   -4.1042    0.0000 C    0  0  0  0  0  0  0  0  0  0  0  0
   -0.2833   -0.6500    0.0000 C    0  0  0  0  0  0  0  0  0  0  0  0
    5.1875   -3.9792    0.0000 C    0  0  0  0  0  0  0  0  0  0  0  0
    1.8625    0.5958    0.0000 O    0  0  0  0  0  0  0  0  0  0  0  0
    5.6292   -4.6750    0.0000 C    0  0  0  0  0  0  0  0  0  0  0  0
    0.4375   -1.8875    0.0000 O    0  0  0  0  0  0  0  0  0  0  0  0
   -0.9958   -0.2375    0.0000 C    0  0  0  0  0  0  0  0  0  0  0  0
    3.2917   -1.8875    0.0000 O    0  0  0  0  0  0  0  0  0  0  0  0
    0.4375    0.5958    0.0000 C    0  0  0  0  0  0  0  0  0  0  0  0
   -0.9958    0.5958    0.0000 C    0  0  0  0  0  0  0  0  0  0  0  0
    4.7042   -3.3125    0.0000 C    0  0  0  0  0  0  0  0  0  0  0  0
   -0.2750    1.0000    0.0000 C    0  0  0  0  0  0  0  0  0  0  0  0
   -1.7083    1.0083    0.0000 Br   0  0  0  0  0  0  0  0  0  0  0  0
    3.7250   -4.8917    0.0000 C    0  0  0  0  0  0  0  0  0  0  0  0
    2.1125   -4.5500    0.0000 C    0  0  0  0  0  0  0  0  0  0  0  0
   -1.7083   -0.6417    0.0000 C    0  0  0  0  0  0  0  0  0  0  0  0
    3.1750   -5.5042    0.0000 C    0  0  0  0  0  0  0  0  0  0  0  0
    2.3667   -5.3292    0.0000 C    0  0  0  0  0  0  0  0  0  0  0  0
  2  3  1  0  0  0  0
  3  1  1  0  0  0  0
  4  1  1  0  0  0  0
  5  4  1  0  0  0  0
  6  5  1  0  0  0  0
  6  2  1  0  0  0  0
  7  8  1  0  0  0  0
  8  2  2  0  0  0  0
  9 11  1  0  0  0  0
  9 13  1  0  0  0  0
 10  1  1  0  0  0  0
 11  7  2  0  0  0  0
 12  7  1  0  0  0  0
 13 12  1  0  0  0  0
 14 10  1  0  0  0  0
 15 23  1  0  0  0  0
 16  4  2  0  0  0  0
 17 15  3  0  0  0  0
 18  3  2  0  0  0  0
 19 14  2  0  0  0  0
 19 22  1  0  0  0  0
 20  6  2  0  0  0  0
 21 10  2  0  0  0  0
 22 24  2  0  0  0  0
 23  9  1  0  0  0  0
 24 21  1  0  0  0  0
 25 22  1  0  0  0  0
 26 13  2  0  0  0  0
 26 29  1  0  0  0  0
 27 12  2  0  0  0  0
 28 19  1  0  0  0  0
 29 30  2  0  0  0  0
 30 27  1  0  0  0  0
M  END
> <CdId>
750

> <Mol Weight>
462.295

> <Formula>
C23H16BrN3O3

> <Click_ID>
CLK010_H05 __ __ 

$$$$
