CLK045H04
 OpenBabel03181419432D

 26 28  0  0  0  0  0  0  0  0999 V2000
    1.4000   -2.0458    0.0000 S   0  0  0  0  0  0  0  0  0  0  0  0
   -0.0292    0.4292    0.0000 C   0  0  0  0  0  0  0  0  0  0  0  0
   -0.7458    0.8417    0.0000 N   0  0  0  0  0  0  0  0  0  0  0  0
    0.6833   -1.6333    0.0000 C   0  0  0  0  0  0  0  0  0  0  0  0
   -0.7458    1.6667    0.0000 C   0  0  0  0  0  0  0  0  0  0  0  0
   -0.0292   -0.3958    0.0000 C   0  0  0  0  0  0  0  0  0  0  0  0
   -1.4583    2.0792    0.0000 C   0  0  0  0  0  0  0  0  0  0  0  0
    2.8292   -3.6958    0.0000 C   0  0  0  0  0  0  0  0  0  0  0  0
    0.6833   -0.8083    0.0000 C   0  0  0  0  0  0  0  0  0  0  0  0
    3.5417   -4.1083    0.0000 C   0  0  0  0  0  0  0  0  0  0  0  0
    1.8125   -1.3292    0.0000 O   0  0  0  0  0  0  0  0  0  0  0  0
    0.9875   -2.7583    0.0000 O   0  0  0  0  0  0  0  0  0  0  0  0
    2.1125   -2.4583    0.0000 N   0  0  0  0  0  0  0  0  0  0  0  0
    0.6833    0.8417    0.0000 O   0  0  0  0  0  0  0  0  0  0  0  0
   -1.4583    2.9042    0.0000 C   0  0  0  0  0  0  0  0  0  0  0  0
    2.1125   -3.2833    0.0000 C   0  0  0  0  0  0  0  0  0  0  0  0
   -0.0292    2.0792    0.0000 C   0  0  0  0  0  0  0  0  0  0  0  0
   -0.0292   -2.0458    0.0000 C   0  0  0  0  0  0  0  0  0  0  0  0
   -0.7458   -0.8083    0.0000 C   0  0  0  0  0  0  0  0  0  0  0  0
   -0.0292    2.9042    0.0000 C   0  0  0  0  0  0  0  0  0  0  0  0
   -0.7458   -1.6333    0.0000 C   0  0  0  0  0  0  0  0  0  0  0  0
   -2.1750    1.6667    0.0000 C   0  0  0  0  0  0  0  0  0  0  0  0
   -0.7458    3.3167    0.0000 C   0  0  0  0  0  0  0  0  0  0  0  0
   -2.1750    3.3167    0.0000 C   0  0  0  0  0  0  0  0  0  0  0  0
   -2.8875    2.0792    0.0000 C   0  0  0  0  0  0  0  0  0  0  0  0
   -2.8875    2.9042    0.0000 C   0  0  0  0  0  0  0  0  0  0  0  0
  2  6  1  0  0  0  0
  3  2  1  0  0  0  0
  4  1  1  0  0  0  0
  5  3  1  0  0  0  0
  6  9  2  0  0  0  0
  7  5  2  0  0  0  0
  8 16  1  0  0  0  0
  9  4  1  0  0  0  0
 10  8  3  0  0  0  0
 11  1  2  0  0  0  0
 12  1  2  0  0  0  0
 13  1  1  0  0  0  0
 14  2  2  0  0  0  0
 15  7  1  0  0  0  0
 16 13  1  0  0  0  0
 17  5  1  0  0  0  0
 18  4  2  0  0  0  0
 19  6  1  0  0  0  0
 20 17  2  0  0  0  0
 21 18  1  0  0  0  0
 21 19  2  0  0  0  0
 22  7  1  0  0  0  0
 23 15  2  0  0  0  0
 23 20  1  0  0  0  0
 24 15  1  0  0  0  0
 25 22  1  0  0  0  0
 25 26  1  0  0  0  0
 26 24  1  0  0  0  0
M  END
> <CdId>
3432

> <Mol Weight>
368.449

> <Formula>
C20H20N2O3S

> <Click_ID>
CLK045H04 __ __ 

$$$$
