CLK049D10
 OpenBabel03181419432D

 17 18  0  0  0  0  0  0  0  0999 V2000
    0.1542   -0.6208    0.0000 C   0  0  0  0  0  0  0  0  0  0  0  0
   -1.9875    2.2667    0.0000 C   0  0  0  0  0  0  0  0  0  0  0  0
   -2.7042    2.6792    0.0000 C   0  0  0  0  0  0  0  0  0  0  0  0
    2.1750   -2.1375    0.0000 S   0  0  0  0  0  0  0  0  0  0  0  0
   -0.5583   -0.2083    0.0000 N   0  0  0  0  0  0  0  0  0  0  0  0
    0.8708   -1.8583    0.0000 C   0  0  0  0  0  0  0  0  0  0  0  0
    1.6250   -1.5250    0.0000 C   0  0  0  0  0  0  0  0  0  0  0  0
    1.7625   -2.8542    0.0000 C   0  0  0  0  0  0  0  0  0  0  0  0
    0.9542   -2.6792    0.0000 C   0  0  0  0  0  0  0  0  0  0  0  0
    0.8708   -0.2083    0.0000 O   0  0  0  0  0  0  0  0  0  0  0  0
    0.1542   -1.4458    0.0000 C   0  0  0  0  0  0  0  0  0  0  0  0
   -0.5583    0.6167    0.0000 C   0  0  0  0  0  0  0  0  0  0  0  0
   -1.2750    1.8542    0.0000 C   0  0  0  0  0  0  0  0  0  0  0  0
   -1.2750    1.0292    0.0000 C   0  0  0  0  0  0  0  0  0  0  0  0
    0.1542    1.8542    0.0000 C   0  0  0  0  0  0  0  0  0  0  0  0
    0.1542    1.0292    0.0000 C   0  0  0  0  0  0  0  0  0  0  0  0
   -0.5583    2.2667    0.0000 C   0  0  0  0  0  0  0  0  0  0  0  0
  2 13  1  0  0  0  0
  3  2  3  0  0  0  0
  4  7  1  0  0  0  0
  4  8  1  0  0  0  0
  5  1  1  0  0  0  0
  6 11  1  0  0  0  0
  7  6  2  0  0  0  0
  8  9  2  0  0  0  0
  9  6  1  0  0  0  0
 10  1  2  0  0  0  0
 11  1  1  0  0  0  0
 12  5  1  0  0  0  0
 13 14  1  0  0  0  0
 14 12  2  0  0  0  0
 15 16  2  0  0  0  0
 16 12  1  0  0  0  0
 17 13  2  0  0  0  0
 17 15  1  0  0  0  0
M  END
> <CdId>
3796

> <Mol Weight>
241.308

> <Formula>
C14H11NOS

> <Click_ID>
CLK049D10 __ __ 

$$$$
