CLK051G07
 OpenBabel03181419432D

 31 33  0  0  0  0  0  0  0  0999 V2000
   -3.0167    0.5667    0.0000 N   0  0  0  0  0  0  0  0  0  0  0  0
   -2.3042    0.9750    0.0000 C   0  0  0  0  0  0  0  0  0  0  0  0
   -1.5917    0.5625    0.0000 C   0  0  0  0  0  0  0  0  0  0  0  0
   -2.3083   -0.6750    0.0000 N   0  0  0  0  0  0  0  0  0  0  0  0
   -3.0208   -0.2625    0.0000 C   0  0  0  0  0  0  0  0  0  0  0  0
   -1.5917   -0.2625    0.0000 C   0  0  0  0  0  0  0  0  0  0  0  0
    0.4917   -0.7417    0.0000 C   0  0  0  0  0  0  0  0  0  0  0  0
   -0.8792   -0.6750    0.0000 C   0  0  0  0  0  0  0  0  0  0  0  0
    4.9125    0.0917    0.0000 C   0  0  0  0  0  0  0  0  0  0  0  0
   -0.8792    0.9750    0.0000 C   0  0  0  0  0  0  0  0  0  0  0  0
   -0.1667   -0.2625    0.0000 C   0  0  0  0  0  0  0  0  0  0  0  0
    5.5958    0.5542    0.0000 C   0  0  0  0  0  0  0  0  0  0  0  0
    2.7000   -0.1958    0.0000 C   0  0  0  0  0  0  0  0  0  0  0  0
   -2.2958    1.8000    0.0000 O   0  0  0  0  0  0  0  0  0  0  0  0
    3.4083   -0.6208    0.0000 N   0  0  0  0  0  0  0  0  0  0  0  0
    4.1667   -0.2708    0.0000 C   0  0  0  0  0  0  0  0  0  0  0  0
    1.2125   -0.3542    0.0000 O   0  0  0  0  0  0  0  0  0  0  0  0
   -0.1625    0.5625    0.0000 C   0  0  0  0  0  0  0  0  0  0  0  0
    0.5542   -1.5583    0.0000 O   0  0  0  0  0  0  0  0  0  0  0  0
    2.6125    0.6250    0.0000 O   0  0  0  0  0  0  0  0  0  0  0  0
    1.9958   -0.6208    0.0000 C   0  0  0  0  0  0  0  0  0  0  0  0
   -3.5958    1.1500    0.0000 C   0  0  0  0  0  0  0  0  0  0  0  0
   -3.6042   -0.8417    0.0000 C   0  0  0  0  0  0  0  0  0  0  0  0
    3.8417    0.4875    0.0000 C   0  0  0  0  0  0  0  0  0  0  0  0
    4.4625   -1.0417    0.0000 C   0  0  0  0  0  0  0  0  0  0  0  0
   -4.4208    1.1542    0.0000 C   0  0  0  0  0  0  0  0  0  0  0  0
   -4.4292   -0.8417    0.0000 C   0  0  0  0  0  0  0  0  0  0  0  0
    4.1750    1.2417    0.0000 C   0  0  0  0  0  0  0  0  0  0  0  0
    4.0958   -1.7792    0.0000 C   0  0  0  0  0  0  0  0  0  0  0  0
   -5.0083    0.5708    0.0000 C   0  0  0  0  0  0  0  0  0  0  0  0
   -5.0083   -0.2542    0.0000 C   0  0  0  0  0  0  0  0  0  0  0  0
  2  1  1  0  0  0  0
  3  2  1  0  0  0  0
  4  5  2  0  0  0  0
  5  1  1  0  0  0  0
  6  4  1  0  0  0  0
  6  3  2  0  0  0  0
  7 11  1  0  0  0  0
  8  6  1  0  0  0  0
  9 16  1  0  0  0  0
 10  3  1  0  0  0  0
 11  8  2  0  0  0  0
 12  9  3  0  0  0  0
 13 21  1  0  0  0  0
 14  2  2  0  0  0  0
 15 13  1  0  0  0  0
 16 15  1  0  0  0  0
 17  7  1  0  0  0  0
 18 10  2  0  0  0  0
 18 11  1  0  0  0  0
 19  7  2  0  0  0  0
 20 13  2  0  0  0  0
 21 17  1  0  0  0  0
 22  1  1  0  0  0  0
 23  5  1  0  0  0  0
 24 16  1  0  0  0  0
 25 16  1  0  0  0  0
 26 22  1  0  0  0  0
 27 23  1  0  0  0  0
 28 24  1  0  0  0  0
 29 25  1  0  0  0  0
 30 26  1  0  0  0  0
 31 27  1  0  0  0  0
 31 30  1  0  0  0  0
M  END
> <CdId>
3935

> <Mol Weight>
423.5048

> <Formula>
C24H29N3O4

> <Click_ID>
CLK051G07 __ __ 

$$$$
