CLK026_C11
 OpenBabel03181419432D

 16 18  0  0  0  0  0  0  0  0999 V2000
    0.2577   -0.2783    0.0000 C   0  0  3  0  0  0  0  0  0  0  0  0
   -0.4947    0.0275    0.0000 C   0  0  3  0  0  0  0  0  0  0  0  0
    0.2439   -1.1062    0.0000 C   0  0  3  0  0  0  0  0  0  0  0  0
    1.0547   -0.4912    0.0000 C   0  0  0  0  0  0  0  0  0  0  0  0
    0.2542    0.5497    0.0000 O   0  0  0  0  0  0  0  0  0  0  0  0
    1.8483   -0.7043    0.0000 C   0  0  0  0  0  0  0  0  0  0  0  0
   -1.2093   -1.0272    0.0000 C   0  0  3  0  0  0  0  0  0  0  0  0
   -1.0512   -1.4806    0.0000 C   0  0  3  0  0  0  0  0  0  0  0  0
    0.9585    0.9653    0.0000 C   0  0  0  0  0  0  0  0  0  0  0  0
   -1.0581   -0.6355    0.0000 C   0  0  0  0  0  0  0  0  0  0  0  0
   -0.2954   -1.7898    0.0000 C   0  0  0  0  0  0  0  0  0  0  0  0
   -1.2127   -0.2267    0.0000 C   0  0  0  0  0  0  0  0  0  0  0  0
   -0.5085   -1.2883    0.0000 C   0  0  0  0  0  0  0  0  0  0  0  0
    0.9550    1.7933    0.0000 O   0  0  0  0  0  0  0  0  0  0  0  0
   -1.8516   -1.7074    0.0000 C   0  0  0  0  0  0  0  0  0  0  0  0
    1.6799    0.5600    0.0000 C   0  0  0  0  0  0  0  0  0  0  0  0
  2  1  1  0  0  0  0
  3  1  1  0  0  0  0
  4  1  1  0  0  0  0
  5  1  1  0  0  0  0
  6  4  3  0  0  0  0
  7 13  1  0  0  0  0
  8 11  1  0  0  0  0
  9  5  1  0  0  0  0
 10  2  1  0  0  0  0
 10  8  1  0  0  0  0
 11  3  1  0  0  0  0
 12  2  1  0  0  0  0
 12  7  1  0  0  0  0
 13  3  1  0  0  0  0
 14  9  2  0  0  0  0
 15  7  1  0  0  0  0
 15  8  1  0  0  0  0
 16  9  1  0  0  0  0
M  END
> <CdId>
1966

> <Mol Weight>
218.2915

> <Formula>
C14H18O2

> <Click_ID>
CLK026_C11 __ __ 

$$$$
