CLK044A09
 OpenBabel03181419432D

 20 21  0  0  0  0  0  0  0  0999 V2000
    0.1417   -0.0375    0.0000 C   0  0  0  0  0  0  0  0  0  0  0  0
   -3.4333   -0.4500    0.0000 C   0  0  0  0  0  0  0  0  0  0  0  0
   -4.1458   -0.8625    0.0000 C   0  0  0  0  0  0  0  0  0  0  0  0
   -0.5750   -0.4500    0.0000 N   0  0  0  0  0  0  0  0  0  0  0  0
    1.5708   -0.0375    0.0000 C   0  0  0  0  0  0  0  0  0  0  0  0
    0.8542   -0.4500    0.0000 C   0  0  0  0  0  0  0  0  0  0  0  0
    0.1417    0.7875    0.0000 O   0  0  0  0  0  0  0  0  0  0  0  0
   -1.2875   -0.0375    0.0000 C   0  0  0  0  0  0  0  0  0  0  0  0
    2.2833   -0.4500    0.0000 C   0  0  0  0  0  0  0  0  0  0  0  0
   -2.7167   -0.0375    0.0000 C   0  0  0  0  0  0  0  0  0  0  0  0
   -2.0042   -0.4500    0.0000 C   0  0  0  0  0  0  0  0  0  0  0  0
    2.2833   -1.2750    0.0000 O   0  0  0  0  0  0  0  0  0  0  0  0
   -2.0042    1.2000    0.0000 C   0  0  0  0  0  0  0  0  0  0  0  0
    1.5708    0.7875    0.0000 C   0  0  0  0  0  0  0  0  0  0  0  0
   -1.2875    0.7875    0.0000 C   0  0  0  0  0  0  0  0  0  0  0  0
    3.0000   -0.0375    0.0000 C   0  0  0  0  0  0  0  0  0  0  0  0
   -2.7167    0.7875    0.0000 C   0  0  0  0  0  0  0  0  0  0  0  0
    3.0000   -1.6875    0.0000 C   0  0  0  0  0  0  0  0  0  0  0  0
    2.2833    1.2000    0.0000 C   0  0  0  0  0  0  0  0  0  0  0  0
    3.0000    0.7875    0.0000 C   0  0  0  0  0  0  0  0  0  0  0  0
  2 10  1  0  0  0  0
  3  2  3  0  0  0  0
  4  1  1  0  0  0  0
  5  6  1  0  0  0  0
  6  1  1  0  0  0  0
  7  1  2  0  0  0  0
  8  4  1  0  0  0  0
  9  5  2  0  0  0  0
 10 11  1  0  0  0  0
 11  8  2  0  0  0  0
 12  9  1  0  0  0  0
 13 15  2  0  0  0  0
 14  5  1  0  0  0  0
 15  8  1  0  0  0  0
 16  9  1  0  0  0  0
 17 10  2  0  0  0  0
 17 13  1  0  0  0  0
 18 12  1  0  0  0  0
 19 14  2  0  0  0  0
 19 20  1  0  0  0  0
 20 16  2  0  0  0  0
M  END
> <CdId>
3385

> <Mol Weight>
265.3065

> <Formula>
C17H15NO2

> <Click_ID>
CLK044A09 __ __ 

$$$$
