CLK049A05
 OpenBabel03181419432D

 21 22  0  0  0  0  0  0  0  0999 V2000
   -0.2417    0.3375    0.0000 C   0  0  0  0  0  0  0  0  0  0  0  0
    0.4750    0.7500    0.0000 N   0  0  0  0  0  0  0  0  0  0  0  0
   -0.9542    3.2250    0.0000 C   0  0  0  0  0  0  0  0  0  0  0  0
   -1.6708    3.6375    0.0000 C   0  0  0  0  0  0  0  0  0  0  0  0
   -0.2417   -0.4875    0.0000 C   0  0  0  0  0  0  0  0  0  0  0  0
   -0.9542    0.7500    0.0000 O   0  0  0  0  0  0  0  0  0  0  0  0
    0.4750    1.5750    0.0000 C   0  0  0  0  0  0  0  0  0  0  0  0
    0.4750   -0.9000    0.0000 C   0  0  0  0  0  0  0  0  0  0  0  0
   -0.9542   -0.9000    0.0000 C   0  0  0  0  0  0  0  0  0  0  0  0
    0.4750   -4.2000    0.0000 C   0  0  0  0  0  0  0  0  0  0  0  0
   -0.2417    2.8125    0.0000 C   0  0  0  0  0  0  0  0  0  0  0  0
    1.1875   -4.6125    0.0000 C   0  0  0  0  0  0  0  0  0  0  0  0
   -0.2417    1.9875    0.0000 C   0  0  0  0  0  0  0  0  0  0  0  0
   -0.2417   -2.1375    0.0000 C   0  0  0  0  0  0  0  0  0  0  0  0
    0.4750   -1.7250    0.0000 C   0  0  0  0  0  0  0  0  0  0  0  0
   -0.9542   -1.7250    0.0000 C   0  0  0  0  0  0  0  0  0  0  0  0
   -0.2417   -2.9625    0.0000 O   0  0  0  0  0  0  0  0  0  0  0  0
    1.1875    2.8125    0.0000 C   0  0  0  0  0  0  0  0  0  0  0  0
    0.4750   -3.3750    0.0000 C   0  0  0  0  0  0  0  0  0  0  0  0
    1.1875    1.9875    0.0000 C   0  0  0  0  0  0  0  0  0  0  0  0
    0.4750    3.2250    0.0000 C   0  0  0  0  0  0  0  0  0  0  0  0
  2  1  1  0  0  0  0
  3 11  1  0  0  0  0
  4  3  3  0  0  0  0
  5  1  1  0  0  0  0
  6  1  2  0  0  0  0
  7  2  1  0  0  0  0
  8  5  1  0  0  0  0
  9  5  2  0  0  0  0
 10 19  1  0  0  0  0
 11 13  1  0  0  0  0
 12 10  2  0  0  0  0
 13  7  2  0  0  0  0
 14 16  2  0  0  0  0
 15  8  2  0  0  0  0
 15 14  1  0  0  0  0
 16  9  1  0  0  0  0
 17 14  1  0  0  0  0
 18 20  2  0  0  0  0
 19 17  1  0  0  0  0
 20  7  1  0  0  0  0
 21 11  2  0  0  0  0
 21 18  1  0  0  0  0
M  END
> <CdId>
3753

> <Mol Weight>
277.3172

> <Formula>
C18H15NO2

> <Click_ID>
CLK049A05 __ __ 

$$$$
