CLK013_G07
 OpenBabel03181419432D

 25 26  0  0  0  0  0  0  0  0999 V2000
    1.5644   -0.8155    0.0000 N    0  0  0  0  0  0  0  0  0  0  0  0
    1.8223   -1.6018    0.0000 C    0  0  0  0  0  0  0  0  0  0  0  0
    2.2342   -0.3287    0.0000 C    0  0  0  0  0  0  0  0  0  0  0  0
    2.8999   -0.8155    0.0000 C    0  0  0  0  0  0  0  0  0  0  0  0
    2.6461   -1.6018    0.0000 S    0  0  0  0  0  0  0  0  0  0  0  0
    3.6862   -0.5617    0.0000 C    0  0  0  0  0  0  0  0  0  0  0  0
    4.2062    1.8597    0.0000 C    0  0  0  0  0  0  0  0  0  0  0  0
    4.8178    1.3105    0.0000 C    0  0  0  0  0  0  0  0  0  0  0  0
    3.4199    1.6101    0.0000 C    0  0  0  0  0  0  0  0  0  0  0  0
    3.8567    0.2454    0.0000 C    0  0  0  0  0  0  0  0  0  0  0  0
    0.6116    0.2454    0.0000 C    0  0  0  0  0  0  0  0  0  0  0  0
    0.3911    1.0442    0.0000 C    0  0  0  0  0  0  0  0  0  0  0  0
    1.3355   -2.2633    0.0000 O    0  0  0  0  0  0  0  0  0  0  0  0
    4.6348    0.4993    0.0000 C    0  0  0  0  0  0  0  0  0  0  0  0
    2.2259    0.4951    0.0000 O    0  0  0  0  0  0  0  0  0  0  0  0
    3.2452    0.8071    0.0000 C    0  0  0  0  0  0  0  0  0  0  0  0
    0.7863   -0.5617    0.0000 C    0  0  0  0  0  0  0  0  0  0  0  0
    5.3587    3.7277    0.0000 C    0  0  0  0  0  0  0  0  0  0  0  0
    6.1450    3.9774    0.0000 C    0  0  0  0  0  0  0  0  0  0  0  0
    5.5959    1.5685    0.0000 Br   0  0  0  0  0  0  0  0  0  0  0  0
    4.3852    2.6668    0.0000 O    0  0  0  0  0  0  0  0  0  0  0  0
    2.8208    2.1676    0.0000 O    0  0  0  0  0  0  0  0  0  0  0  0
    5.1715    2.9165    0.0000 C    0  0  0  0  0  0  0  0  0  0  0  0
    2.0345    1.9179    0.0000 C    0  0  0  0  0  0  0  0  0  0  0  0
    1.4354    2.4671    0.0000 C    0  0  0  0  0  0  0  0  0  0  0  0
  2  1  1  0  0  0  0
  3  1  1  0  0  0  0
  4  3  1  0  0  0  0
  4  5  1  0  0  0  0
  5  2  1  0  0  0  0
  6  4  2  0  0  0  0
  7  9  2  0  0  0  0
  7  8  1  0  0  0  0
  8 14  2  0  0  0  0
  9 16  1  0  0  0  0
 10  6  1  0  0  0  0
 11 17  1  0  0  0  0
 12 11  3  0  0  0  0
 13  2  2  0  0  0  0
 14 10  1  0  0  0  0
 15  3  2  0  0  0  0
 16 10  2  0  0  0  0
 17  1  1  0  0  0  0
 18 23  1  0  0  0  0
 19 18  2  0  0  0  0
 20  8  1  0  0  0  0
 21  7  1  0  0  0  0
 22  9  1  0  0  0  0
 23 21  1  0  0  0  0
 24 22  1  0  0  0  0
 25 24  1  0  0  0  0
M  END
> <CdId>
982

> <Mol Weight>
422.293

> <Formula>
C18H16BrNO4S

> <Click_ID>
CLK013_G07 __ __ 

$$$$
