CLK006_F09
 OpenBabel03181419432D

 26 28  0  0  0  0  0  0  0  0999 V2000
    5.1712  -22.2771    0.0000 C   0  0  0  0  0  0  0  0  0  0  0  0
    5.5827  -21.5662    0.0000 C   0  0  0  0  0  0  0  0  0  0  0  0
    4.3440  -22.2771    0.0000 N   0  0  0  0  0  0  0  0  0  0  0  0
    5.1712  -20.8512    0.0000 C   0  0  0  0  0  0  0  0  0  0  0  0
    4.3440  -20.8512    0.0000 N   0  0  0  0  0  0  0  0  0  0  0  0
    3.9325  -21.5662    0.0000 C   0  0  0  0  0  0  0  0  0  0  0  0
    6.4100  -21.5662    0.0000 C   0  0  3  0  0  0  0  0  0  0  0  0
    5.5827  -22.9920    0.0000 N   0  0  0  0  0  0  0  0  0  0  0  0
    6.8215  -20.8512    0.0000 C   0  0  0  0  0  0  0  0  0  0  0  0
    6.4100  -22.9920    0.0000 C   0  0  0  0  0  0  0  0  0  0  0  0
    6.8215  -22.2771    0.0000 C   0  0  0  0  0  0  0  0  0  0  0  0
    1.8706  -22.2771    0.0000 C   0  0  0  0  0  0  0  0  0  0  0  0
    1.0517  -22.2771    0.0000 C   0  0  0  0  0  0  0  0  0  0  0  0
    5.5911  -20.1321    0.0000 O   0  0  0  0  0  0  0  0  0  0  0  0
    7.6488  -20.8512    0.0000 C   0  0  0  0  0  0  0  0  0  0  0  0
    6.4100  -20.1404    0.0000 C   0  0  0  0  0  0  0  0  0  0  0  0
    6.8298  -23.7112    0.0000 O   0  0  0  0  0  0  0  0  0  0  0  0
    3.1094  -21.5662    0.0000 S   0  0  0  0  0  0  0  0  0  0  0  0
    8.0603  -20.1404    0.0000 C   0  0  0  0  0  0  0  0  0  0  0  0
    6.8215  -19.4253    0.0000 C   0  0  0  0  0  0  0  0  0  0  0  0
    7.6488  -19.4253    0.0000 C   0  0  0  0  0  0  0  0  0  0  0  0
    2.6979  -22.2771    0.0000 C   0  0  0  0  0  0  0  0  0  0  0  0
    8.0728  -21.5703    0.0000 O   0  0  0  0  0  0  0  0  0  0  0  0
    6.4017  -18.7062    0.0000 O   0  0  0  0  0  0  0  0  0  0  0  0
    8.9042  -21.5620    0.0000 C   0  0  0  0  0  0  0  0  0  0  0  0
    6.8133  -17.9871    0.0000 C   0  0  0  0  0  0  0  0  0  0  0  0
  2  1  2  0  0  0  0
  3  1  1  0  0  0  0
  4  2  1  0  0  0  0
  4  5  1  0  0  0  0
  5  6  1  0  0  0  0
  6  3  2  0  0  0  0
  7  2  1  0  0  0  0
  7 11  1  0  0  0  0
  8  1  1  0  0  0  0
  9  7  1  0  0  0  0
 10  8  1  0  0  0  0
 11 10  1  0  0  0  0
 12 22  1  0  0  0  0
 13 12  3  0  0  0  0
 14  4  2  0  0  0  0
 15  9  2  0  0  0  0
 16  9  1  0  0  0  0
 17 10  2  0  0  0  0
 18  6  1  0  0  0  0
 19 15  1  0  0  0  0
 19 21  2  0  0  0  0
 20 16  2  0  0  0  0
 21 20  1  0  0  0  0
 22 18  1  0  0  0  0
 23 15  1  0  0  0  0
 24 20  1  0  0  0  0
 25 23  1  0  0  0  0
 26 24  1  0  0  0  0
M  END
> <CdId>
458

> <Mol Weight>
371.41

> <Formula>
C18H17N3O4S

> <Click_ID>
CLK006_F09 __ __ 

$$$$
