CLK019_A07
 OpenBabel03181419432D

 25 26  0  0  0  0  0  0  0  0999 V2000
    1.1512   -0.9176    0.0000 N   0  3  0  0  0  0  0  0  0  0  0  0
    4.0209    0.7341    0.0000 C   0  0  0  0  0  0  0  0  0  0  0  0
    4.0209    1.5599    0.0000 C   0  0  0  0  0  0  0  0  0  0  0  0
    4.7341    0.3211    0.0000 C   0  0  0  0  0  0  0  0  0  0  0  0
    5.4473   -0.0918    0.0000 N   0  0  0  0  0  0  0  0  0  0  0  0
    1.8686   -0.5047    0.0000 C   0  0  0  0  0  0  0  0  0  0  0  0
    0.4672    4.4338    0.0000 C   0  0  0  0  0  0  0  0  0  0  0  0
   -0.2461    4.8467    0.0000 C   0  0  0  0  0  0  0  0  0  0  0  0
    0.4296   -0.5047    0.0000 O   0  5  0  0  0  0  0  0  0  0  0  0
    1.8769    1.9728    0.0000 C   0  0  0  0  0  0  0  0  0  0  0  0
    3.3034    0.3211    0.0000 C   0  0  0  0  0  0  0  0  0  0  0  0
    1.1512   -1.7435    0.0000 O   0  0  0  0  0  0  0  0  0  0  0  0
    3.3034    1.9728    0.0000 C   0  0  0  0  0  0  0  0  0  0  0  0
    2.5944    1.5599    0.0000 C   0  0  0  0  0  0  0  0  0  0  0  0
    1.8811    2.7862    0.0000 C   0  0  0  0  0  0  0  0  0  0  0  0
    1.8686    0.3211    0.0000 C   0  0  0  0  0  0  0  0  0  0  0  0
    2.5819   -0.9176    0.0000 C   0  0  0  0  0  0  0  0  0  0  0  0
    2.5819    0.7383    0.0000 C   0  0  0  0  0  0  0  0  0  0  0  0
    3.3034   -0.5047    0.0000 C   0  0  0  0  0  0  0  0  0  0  0  0
    2.5902    3.1991    0.0000 C   0  0  0  0  0  0  0  0  0  0  0  0
    3.3034    2.7862    0.0000 C   0  0  0  0  0  0  0  0  0  0  0  0
    1.1762    1.5724    0.0000 O   0  0  0  0  0  0  0  0  0  0  0  0
    1.1679    3.2116    0.0000 O   0  0  0  0  0  0  0  0  0  0  0  0
    1.1762    4.0167    0.0000 C   0  0  0  0  0  0  0  0  0  0  0  0
    1.1679    0.7508    0.0000 C   0  0  0  0  0  0  0  0  0  0  0  0
  2 11  1  0  0  0  0
  3  2  2  0  0  0  0
  4  2  1  0  0  0  0
  5  4  3  0  0  0  0
  6  1  1  0  0  0  0
  7 24  1  0  0  0  0
  8  7  3  0  0  0  0
  9  1  1  0  0  0  0
 10 14  1  0  0  0  0
 10 15  2  0  0  0  0
 11 19  2  0  0  0  0
 11 18  1  0  0  0  0
 12  1  2  0  0  0  0
 13  3  1  0  0  0  0
 14 13  2  0  0  0  0
 15 20  1  0  0  0  0
 16  6  1  0  0  0  0
 17  6  2  0  0  0  0
 18 16  2  0  0  0  0
 19 17  1  0  0  0  0
 20 21  2  0  0  0  0
 21 13  1  0  0  0  0
 22 10  1  0  0  0  0
 23 15  1  0  0  0  0
 24 23  1  0  0  0  0
 25 22  1  0  0  0  0
M  END
> <CdId>
1402

> <Mol Weight>
334.3255

> <Formula>
C19H14N2O4

> <Click_ID>
CLK019_A07 __ __ 

$$$$
