CLK044D11
 OpenBabel03181419432D

 24 25  0  0  0  0  0  0  0  0999 V2000
   -0.4500    1.1208    0.0000 N    0  0  0  0  0  0  0  0  0  0  0  0
   -1.1625    0.7083    0.0000 C    0  0  0  0  0  0  0  0  0  0  0  0
   -1.1625   -0.1167    0.0000 C    0  0  0  0  0  0  0  0  0  0  0  0
    0.2667    0.7083    0.0000 C    0  0  0  0  0  0  0  0  0  0  0  0
   -0.4500   -0.5292    0.0000 C    0  0  0  0  0  0  0  0  0  0  0  0
    0.2667   -0.1167    0.0000 N    0  0  0  0  0  0  0  0  0  0  0  0
    4.5542    0.7083    0.0000 C    0  0  0  0  0  0  0  0  0  0  0  0
    5.2667    0.2958    0.0000 C    0  0  0  0  0  0  0  0  0  0  0  0
   -1.8792   -0.5292    0.0000 C    0  0  0  0  0  0  0  0  0  0  0  0
    2.4083    1.1208    0.0000 C    0  0  0  0  0  0  0  0  0  0  0  0
    0.9792    1.1208    0.0000 S    0  0  0  0  0  0  0  0  0  0  0  0
   -1.8792    1.1208    0.0000 N    0  0  0  0  0  0  0  0  0  0  0  0
    2.4083    1.9458    0.0000 O    0  0  0  0  0  0  0  0  0  0  0  0
   -2.5917   -0.1167    0.0000 C    0  0  0  0  0  0  0  0  0  0  0  0
   -1.8792   -1.3542    0.0000 C    0  0  0  0  0  0  0  0  0  0  0  0
    1.6958    0.7083    0.0000 C    0  0  0  0  0  0  0  0  0  0  0  0
    3.1250    0.7083    0.0000 N    0  0  0  0  0  0  0  0  0  0  0  0
   -3.3083   -1.3542    0.0000 C    0  0  0  0  0  0  0  0  0  0  0  0
   -2.5917   -1.7667    0.0000 C    0  0  0  0  0  0  0  0  0  0  0  0
   -3.3083   -0.5292    0.0000 C    0  0  0  0  0  0  0  0  0  0  0  0
   -4.0208   -1.7667    0.0000 Cl   0  0  0  0  0  0  0  0  0  0  0  0
    3.8375    1.1208    0.0000 C    0  0  0  0  0  0  0  0  0  0  0  0
   -0.4500   -1.3542    0.0000 C    0  0  0  0  0  0  0  0  0  0  0  0
    0.2667   -1.7667    0.0000 C    0  0  0  0  0  0  0  0  0  0  0  0
  2  1  2  0  0  0  0
  3  2  1  0  0  0  0
  4  1  1  0  0  0  0
  5  3  2  0  0  0  0
  6  4  2  0  0  0  0
  6  5  1  0  0  0  0
  7 22  1  0  0  0  0
  8  7  3  0  0  0  0
  9  3  1  0  0  0  0
 10 16  1  0  0  0  0
 11  4  1  0  0  0  0
 12  2  1  0  0  0  0
 13 10  2  0  0  0  0
 14  9  1  0  0  0  0
 15  9  2  0  0  0  0
 16 11  1  0  0  0  0
 17 10  1  0  0  0  0
 18 19  2  0  0  0  0
 18 20  1  0  0  0  0
 19 15  1  0  0  0  0
 20 14  2  0  0  0  0
 21 18  1  0  0  0  0
 22 17  1  0  0  0  0
 23  5  1  0  0  0  0
 24 23  1  0  0  0  0
M  END
> <CdId>
3404

> <Mol Weight>
360.861

> <Formula>
C17H17ClN4OS

> <Click_ID>
CLK044D11 __ __ 

$$$$
