CLK006_C04
 OpenBabel03181419432D

 19 21  0  0  0  0  0  0  0  0999 V2000
    0.0206    0.3291    0.0000 C    0  0  0  0  0  0  0  0  0  0  0  0
   -0.4663   -0.3428    0.0000 N    0  0  0  0  0  0  0  0  0  0  0  0
    0.8434    0.3359    0.0000 C    0  0  0  0  0  0  0  0  0  0  0  0
   -0.4765    0.9976    0.0000 N    0  0  0  0  0  0  0  0  0  0  0  0
   -1.2513   -0.0960    0.0000 C    0  0  0  0  0  0  0  0  0  0  0  0
   -0.0514   -1.0491    0.0000 C    0  0  0  0  0  0  0  0  0  0  0  0
    1.2445    1.0491    0.0000 C    0  0  0  0  0  0  0  0  0  0  0  0
    1.2617   -0.3737    0.0000 C    0  0  0  0  0  0  0  0  0  0  0  0
   -1.2617    0.7302    0.0000 C    0  0  0  0  0  0  0  0  0  0  0  0
   -1.9678   -0.5073    0.0000 C    0  0  0  0  0  0  0  0  0  0  0  0
   -0.4628   -1.7656    0.0000 C    0  0  0  0  0  0  0  0  0  0  0  0
    2.0707    1.0593    0.0000 C    0  0  0  0  0  0  0  0  0  0  0  0
    2.0878   -0.3634    0.0000 C    0  0  0  0  0  0  0  0  0  0  0  0
   -1.9678    1.1450    0.0000 C    0  0  0  0  0  0  0  0  0  0  0  0
   -2.6810   -0.0926    0.0000 C    0  0  0  0  0  0  0  0  0  0  0  0
   -0.0514   -2.4787    0.0000 C    0  0  0  0  0  0  0  0  0  0  0  0
    2.4889    0.3463    0.0000 C    0  0  0  0  0  0  0  0  0  0  0  0
   -2.6810    0.7302    0.0000 C    0  0  0  0  0  0  0  0  0  0  0  0
    3.3083    0.3531    0.0000 Cl   0  0  0  0  0  0  0  0  0  0  0  0
  1  2  1  0  0  0  0
  1  3  1  0  0  0  0
  1  4  2  0  0  0  0
  2  5  1  0  0  0  0
  2  6  1  0  0  0  0
  3  7  1  0  0  0  0
  3  8  2  0  0  0  0
  4  9  1  0  0  0  0
  5 10  2  0  0  0  0
  5  9  1  0  0  0  0
  6 11  1  0  0  0  0
  7 12  2  0  0  0  0
  8 13  1  0  0  0  0
  9 14  2  0  0  0  0
 10 15  1  0  0  0  0
 11 16  3  0  0  0  0
 12 17  1  0  0  0  0
 13 17  2  0  0  0  0
 14 18  1  0  0  0  0
 15 18  2  0  0  0  0
 17 19  1  0  0  0  0
M  END
> <CdId>
423

> <Mol Weight>
266.725

> <Formula>
C16H11ClN2

> <Click_ID>
CLK006_C04 __ __ 

$$$$
