CLK049F03
 OpenBabel03181419432D

 23 25  0  0  0  0  0  0  0  0999 V2000
    2.9500    0.7375    0.0000 N   0  0  0  0  0  0  0  0  0  0  0  0
    2.4667    0.0708    0.0000 C   0  0  0  0  0  0  0  0  0  0  0  0
    2.4667    1.4042    0.0000 C   0  0  0  0  0  0  0  0  0  0  0  0
    1.6792    0.3250    0.0000 C   0  0  0  0  0  0  0  0  0  0  0  0
    1.6792    1.1500    0.0000 C   0  0  0  0  0  0  0  0  0  0  0  0
   -0.4625   -0.0875    0.0000 C   0  0  0  0  0  0  0  0  0  0  0  0
    0.9667   -0.0875    0.0000 C   0  0  0  0  0  0  0  0  0  0  0  0
    0.2542    0.3250    0.0000 C   0  0  0  0  0  0  0  0  0  0  0  0
   -1.1750    0.3250    0.0000 N   0  0  0  0  0  0  0  0  0  0  0  0
   -2.6042   -2.1500    0.0000 C   0  0  0  0  0  0  0  0  0  0  0  0
    0.9667    1.5625    0.0000 C   0  0  0  0  0  0  0  0  0  0  0  0
   -2.6042   -2.9750    0.0000 C   0  0  0  0  0  0  0  0  0  0  0  0
    2.7208   -0.7167    0.0000 O   0  0  0  0  0  0  0  0  0  0  0  0
    2.7208    2.1875    0.0000 O   0  0  0  0  0  0  0  0  0  0  0  0
   -0.4625   -0.9125    0.0000 O   0  0  0  0  0  0  0  0  0  0  0  0
    0.2542    1.1500    0.0000 C   0  0  0  0  0  0  0  0  0  0  0  0
   -1.8917   -0.0875    0.0000 C   0  0  0  0  0  0  0  0  0  0  0  0
    3.7750    0.7375    0.0000 C   0  0  0  0  0  0  0  0  0  0  0  0
   -2.6042   -1.3250    0.0000 C   0  0  0  0  0  0  0  0  0  0  0  0
   -1.8917   -0.9125    0.0000 C   0  0  0  0  0  0  0  0  0  0  0  0
   -3.3208   -0.0875    0.0000 C   0  0  0  0  0  0  0  0  0  0  0  0
   -2.6042    0.3250    0.0000 C   0  0  0  0  0  0  0  0  0  0  0  0
   -3.3208   -0.9125    0.0000 C   0  0  0  0  0  0  0  0  0  0  0  0
  2  1  1  0  0  0  0
  3  1  1  0  0  0  0
  4  2  1  0  0  0  0
  4  5  2  0  0  0  0
  5  3  1  0  0  0  0
  6  8  1  0  0  0  0
  7  4  1  0  0  0  0
  8  7  2  0  0  0  0
  8 16  1  0  0  0  0
  9  6  1  0  0  0  0
 10 19  1  0  0  0  0
 11  5  1  0  0  0  0
 12 10  3  0  0  0  0
 13  2  2  0  0  0  0
 14  3  2  0  0  0  0
 15  6  2  0  0  0  0
 16 11  2  0  0  0  0
 17  9  1  0  0  0  0
 18  1  1  0  0  0  0
 19 20  1  0  0  0  0
 20 17  2  0  0  0  0
 21 22  2  0  0  0  0
 22 17  1  0  0  0  0
 23 19  2  0  0  0  0
 23 21  1  0  0  0  0
M  END
> <CdId>
3742

> <Mol Weight>
304.2995

> <Formula>
C18H12N2O3

> <Click_ID>
CLK049F03 __ __ 

$$$$
