CLK005_H10
 OpenBabel03181419432D

 22 23  0  0  0  0  0  0  0  0999 V2000
    5.7917   -5.5167    0.0000 N   0  3  0  0  0  0  0  0  0  0  0  0
    4.5667   -4.7917    0.0000 C   0  0  0  0  0  0  0  0  0  0  0  0
    5.3917   -4.8000    0.0000 C   0  0  0  0  0  0  0  0  0  0  0  0
   -0.3833   -3.3167    0.0000 C   0  0  0  0  0  0  0  0  0  0  0  0
   -1.2083   -3.3125    0.0000 C   0  0  0  0  0  0  0  0  0  0  0  0
    2.0792   -4.7792    0.0000 C   0  0  0  0  0  0  0  0  0  0  0  0
    4.1542   -4.0792    0.0000 C   0  0  0  0  0  0  0  0  0  0  0  0
    1.6750   -4.0625    0.0000 C   0  0  0  0  0  0  0  0  0  0  0  0
    2.9125   -4.7875    0.0000 C   0  0  0  0  0  0  0  0  0  0  0  0
    3.3292   -4.0667    0.0000 C   0  0  0  0  0  0  0  0  0  0  0  0
    2.0917   -3.3542    0.0000 C   0  0  0  0  0  0  0  0  0  0  0  0
    5.3667   -6.2292    0.0000 C   0  0  0  0  0  0  0  0  0  0  0  0
    6.6250   -5.5167    0.0000 C   0  0  0  0  0  0  0  0  0  0  0  0
    2.9167   -3.3542    0.0000 C   0  0  0  0  0  0  0  0  0  0  0  0
    1.6542   -5.5000    0.0000 O   0  0  0  0  0  0  0  0  0  0  0  0
    0.8500   -4.0500    0.0000 O   0  0  0  0  0  0  0  0  0  0  0  0
    0.4417   -3.3292    0.0000 C   0  0  0  0  0  0  0  0  0  0  0  0
    5.8042   -4.0875    0.0000 C   0  0  0  0  0  0  0  0  0  0  0  0
    2.0625   -6.2250    0.0000 C   0  0  0  0  0  0  0  0  0  0  0  0
    7.0417   -4.8125    0.0000 C   0  0  0  0  0  0  0  0  0  0  0  0
    1.6417   -6.9292    0.0000 C   0  0  0  0  0  0  0  0  0  0  0  0
    6.6375   -4.0917    0.0000 C   0  0  0  0  0  0  0  0  0  0  0  0
  2  3  1  0  0  0  0
  3  1  1  0  0  0  0
  4 17  1  0  0  0  0
  5  4  3  0  0  0  0
  6  9  1  0  0  0  0
  7  2  2  0  0  0  0
  8 11  1  0  0  0  0
  8  6  2  0  0  0  0
  9 10  2  0  0  0  0
 10  7  1  0  0  0  0
 11 14  2  0  0  0  0
 12  1  1  0  0  0  0
 13  1  2  0  0  0  0
 14 10  1  0  0  0  0
 15  6  1  0  0  0  0
 16  8  1  0  0  0  0
 17 16  1  0  0  0  0
 18  3  2  0  0  0  0
 19 15  1  0  0  0  0
 20 13  1  0  0  0  0
 21 19  1  0  0  0  0
 22 20  2  0  0  0  0
 22 18  1  0  0  0  0
M  END
> <CdId>
399

> <Mol Weight>
294.3676

> <Formula>
C19H20NO2

> <Click_ID>
CLK005_H10 __ __ 

$$$$
