CLK023_H06
 OpenBabel03181419432D

 31 33  0  0  0  0  0  0  0  0999 V2000
    3.3760   -0.5392    0.0000 N    0  0  0  0  0  0  0  0  0  0  0  0
    2.6685   -0.9479    0.0000 C    0  0  0  0  0  0  0  0  0  0  0  0
    3.2146    0.2679    0.0000 C    0  0  0  0  0  0  0  0  0  0  0  0
    2.3938    0.3606    0.0000 C    0  0  0  0  0  0  0  0  0  0  0  0
    2.0606   -0.3881    0.0000 S    0  0  0  0  0  0  0  0  0  0  0  0
   -0.5083    1.0784    0.0000 C    0  0  0  0  0  0  0  0  0  0  0  0
    1.9850    1.0750    0.0000 C    0  0  0  0  0  0  0  0  0  0  0  0
   -0.0790    1.8065    0.0000 C    0  0  0  0  0  0  0  0  0  0  0  0
   -0.0859    0.3675    0.0000 C    0  0  0  0  0  0  0  0  0  0  0  0
   -1.3256    1.0887    0.0000 O    0  0  0  0  0  0  0  0  0  0  0  0
    1.1540    1.0750    0.0000 C    0  0  0  0  0  0  0  0  0  0  0  0
   -2.1499    2.5071    0.0000 N    0  0  0  0  0  0  0  0  0  0  0  0
    4.2140   -1.6932    0.0000 C    0  0  0  0  0  0  0  0  0  0  0  0
   -2.5689    1.7927    0.0000 C    0  0  0  0  0  0  0  0  0  0  0  0
    4.2071   -2.5105    0.0000 C    0  0  0  0  0  0  0  0  0  0  0  0
    2.5758   -1.7653    0.0000 O    0  0  0  0  0  0  0  0  0  0  0  0
    0.7453    1.7996    0.0000 C    0  0  0  0  0  0  0  0  0  0  0  0
    3.7675    0.8758    0.0000 O    0  0  0  0  0  0  0  0  0  0  0  0
    0.7418    0.3675    0.0000 C    0  0  0  0  0  0  0  0  0  0  0  0
    4.1316   -0.8723    0.0000 C    0  0  0  0  0  0  0  0  0  0  0  0
   -2.9776    1.0887    0.0000 C    0  0  0  0  0  0  0  0  0  0  0  0
   -1.7412    0.3709    0.0000 C    0  0  0  0  0  0  0  0  0  0  0  0
   -2.5689    0.3675    0.0000 C    0  0  0  0  0  0  0  0  0  0  0  0
   -0.4877    2.5140    0.0000 Cl   0  0  0  0  0  0  0  0  0  0  0  0
   -0.4946   -0.3400    0.0000 O    0  0  0  0  0  0  0  0  0  0  0  0
   -3.7950    1.0887    0.0000 C    0  0  0  0  0  0  0  0  0  0  0  0
   -2.9776   -0.3468    0.0000 C    0  0  0  0  0  0  0  0  0  0  0  0
   -0.0859   -1.0578    0.0000 C    0  0  0  0  0  0  0  0  0  0  0  0
   -0.5014   -1.7653    0.0000 C    0  0  0  0  0  0  0  0  0  0  0  0
   -4.2174    0.3812    0.0000 C    0  0  0  0  0  0  0  0  0  0  0  0
   -3.8087   -0.3400    0.0000 C    0  0  0  0  0  0  0  0  0  0  0  0
  2  1  1  0  0  0  0
  3  1  1  0  0  0  0
  4  3  1  0  0  0  0
  5  2  1  0  0  0  0
  5  4  1  0  0  0  0
  6  9  1  0  0  0  0
  7  4  2  0  0  0  0
  8 17  1  0  0  0  0
  8  6  2  0  0  0  0
  9 19  2  0  0  0  0
 10  6  1  0  0  0  0
 11  7  1  0  0  0  0
 12 14  3  0  0  0  0
 13 20  1  0  0  0  0
 14 21  1  0  0  0  0
 15 13  3  0  0  0  0
 16  2  2  0  0  0  0
 17 11  2  0  0  0  0
 18  3  2  0  0  0  0
 19 11  1  0  0  0  0
 20  1  1  0  0  0  0
 21 23  2  0  0  0  0
 22 10  1  0  0  0  0
 23 22  1  0  0  0  0
 24  8  1  0  0  0  0
 25  9  1  0  0  0  0
 26 21  1  0  0  0  0
 26 30  2  0  0  0  0
 27 23  1  0  0  0  0
 28 25  1  0  0  0  0
 29 28  1  0  0  0  0
 30 31  1  0  0  0  0
 31 27  2  0  0  0  0
M  END
> <CdId>
1771

> <Mol Weight>
452.91

> <Formula>
C23H17ClN2O4S

> <Click_ID>
CLK023_H06 __ __ 

$$$$
