CLK046G05
 OpenBabel03181419432D

 26 27  0  0  0  0  0  0  0  0999 V2000
   -0.6246   -0.0542    0.0000 C   0  0  0  0  0  0  0  0  0  0  0  0
    0.0417    0.4289    0.0000 S   0  0  0  0  0  0  0  0  0  0  0  0
   -1.4117    0.1999    0.0000 C   0  0  0  0  0  0  0  0  0  0  0  0
   -1.8946   -0.4664    0.0000 C   0  0  0  0  0  0  0  0  0  0  0  0
   -0.6246   -0.8787    0.0000 S   0  0  0  0  0  0  0  0  0  0  0  0
   -1.4117   -1.1326    0.0000 C   0  0  0  0  0  0  0  0  0  0  0  0
   -1.6657    0.9827    0.0000 C   0  0  0  0  0  0  0  0  0  0  0  0
    0.7078    0.9162    0.0000 N   0  0  0  0  0  0  0  0  0  0  0  0
   -1.6657   -1.9196    0.0000 C   0  0  0  0  0  0  0  0  0  0  0  0
    0.5247   -0.2373    0.0000 O   0  0  0  0  0  0  0  0  0  0  0  0
   -0.4455    1.0994    0.0000 O   0  0  0  0  0  0  0  0  0  0  0  0
    3.5478    1.2118    0.0000 C   0  0  0  0  0  0  0  0  0  0  0  0
    4.2142    1.6990    0.0000 C   0  0  0  0  0  0  0  0  0  0  0  0
    1.4616    0.5788    0.0000 C   0  0  0  0  0  0  0  0  0  0  0  0
   -2.4736    1.1576    0.0000 O   0  0  0  0  0  0  0  0  0  0  0  0
   -2.4736   -2.0904    0.0000 O   0  0  0  0  0  0  0  0  0  0  0  0
    2.8816    0.7288    0.0000 C   0  0  0  0  0  0  0  0  0  0  0  0
   -2.7192   -0.4664    0.0000 C   0  0  0  0  0  0  0  0  0  0  0  0
    2.1279    1.0661    0.0000 C   0  0  0  0  0  0  0  0  0  0  0  0
   -1.1119    1.5990    0.0000 O   0  0  0  0  0  0  0  0  0  0  0  0
   -1.1119   -2.5318    0.0000 O   0  0  0  0  0  0  0  0  0  0  0  0
    2.2987   -0.5746    0.0000 C   0  0  0  0  0  0  0  0  0  0  0  0
    1.5449   -0.2415    0.0000 C   0  0  0  0  0  0  0  0  0  0  0  0
    2.9690   -0.0916    0.0000 C   0  0  0  0  0  0  0  0  0  0  0  0
   -1.3700   -3.3147    0.0000 C   0  0  0  0  0  0  0  0  0  0  0  0
   -1.3700    2.3819    0.0000 C   0  0  0  0  0  0  0  0  0  0  0  0
  2  1  1  0  0  0  0
  3  1  2  0  0  0  0
  4  3  1  0  0  0  0
  4  6  2  0  0  0  0
  5  1  1  0  0  0  0
  6  5  1  0  0  0  0
  7  3  1  0  0  0  0
  8  2  1  0  0  0  0
  9  6  1  0  0  0  0
 10  2  2  0  0  0  0
 11  2  2  0  0  0  0
 12 17  1  0  0  0  0
 13 12  3  0  0  0  0
 14  8  1  0  0  0  0
 15  7  2  0  0  0  0
 16  9  2  0  0  0  0
 17 19  1  0  0  0  0
 18  4  1  0  0  0  0
 19 14  2  0  0  0  0
 20  7  1  0  0  0  0
 21  9  1  0  0  0  0
 22 23  2  0  0  0  0
 23 14  1  0  0  0  0
 24 17  2  0  0  0  0
 24 22  1  0  0  0  0
 25 21  1  0  0  0  0
 26 20  1  0  0  0  0
M  END
> <CdId>
3519

> <Mol Weight>
393.434

> <Formula>
C17H15NO6S2

> <Click_ID>
CLK046G05 __ __ 

$$$$
