CLK010_F09
 OpenBabel03181419432D

 27 28  0  0  0  0  0  0  0  0999 V2000
    1.5434   -2.7216    0.0000 C    0  0  0  0  0  0  0  0  0  0  0  0
    3.7613    0.9380    0.0000 N    0  0  0  0  0  0  0  0  0  0  0  0
    2.2642   -2.3196    0.0000 C    0  0  0  0  0  0  0  0  0  0  0  0
    0.8364   -2.2919    0.0000 C    0  0  0  0  0  0  0  0  0  0  0  0
    0.1156   -2.6893    0.0000 C    0  0  0  0  0  0  0  0  0  0  0  0
    1.5248   -3.5395    0.0000 C    0  0  0  0  0  0  0  0  0  0  0  0
    3.7474    0.1062    0.0000 C    0  0  0  0  0  0  0  0  0  0  0  0
    2.2781   -1.5018    0.0000 N    0  0  0  0  0  0  0  0  0  0  0  0
    1.4971   -4.4821    0.0000 N    0  0  0  0  0  0  0  0  0  0  0  0
   -1.2615   -0.1710    0.0000 C    0  0  0  0  0  0  0  0  0  0  0  0
    3.0266   -0.2819    0.0000 C    0  0  0  0  0  0  0  0  0  0  0  0
   -1.9638    0.2449    0.0000 C    0  0  0  0  0  0  0  0  0  0  0  0
    4.4960    1.3400    0.0000 O    0  0  0  0  0  0  0  0  0  0  0  0
    3.0543    1.3677    0.0000 O    0  0  0  0  0  0  0  0  0  0  0  0
    2.9989   -1.1090    0.0000 C    0  0  0  0  0  0  0  0  0  0  0  0
   -0.5914   -2.2595    0.0000 C    0  0  0  0  0  0  0  0  0  0  0  0
    2.9665   -2.7494    0.0000 O    0  0  0  0  0  0  0  0  0  0  0  0
    0.0970   -3.5118    0.0000 C    0  0  0  0  0  0  0  0  0  0  0  0
   -1.3169   -2.6523    0.0000 C    0  0  0  0  0  0  0  0  0  0  0  0
   -0.6330   -3.9091    0.0000 C    0  0  0  0  0  0  0  0  0  0  0  0
   -1.3308   -3.4841    0.0000 C    0  0  0  0  0  0  0  0  0  0  0  0
   -0.6469   -4.7317    0.0000 Br   0  0  0  0  0  0  0  0  0  0  0  0
   -0.5776   -1.4325    0.0000 O    0  0  0  0  0  0  0  0  0  0  0  0
   -1.2845   -1.0027    0.0000 C    0  0  0  0  0  0  0  0  0  0  0  0
    4.4497   -0.3235    0.0000 C    0  0  0  0  0  0  0  0  0  0  0  0
    4.4267   -1.1414    0.0000 C    0  0  0  0  0  0  0  0  0  0  0  0
    3.7059   -1.5387    0.0000 C    0  0  0  0  0  0  0  0  0  0  0  0
  2  7  1  0  0  0  0
  3  1  1  0  0  0  0
  4  1  2  0  0  0  0
  5  4  1  0  0  0  0
  6  1  1  0  0  0  0
  7 11  1  0  0  0  0
  8  3  1  0  0  0  0
  9  6  3  0  0  0  0
 10 24  1  0  0  0  0
 11 15  2  0  0  0  0
 12 10  3  0  0  0  0
 13  2  1  0  0  0  0
 14  2  2  0  0  0  0
 15  8  1  0  0  0  0
 16  5  1  0  0  0  0
 17  3  2  0  0  0  0
 18  5  2  0  0  0  0
 19 16  2  0  0  0  0
 20 18  1  0  0  0  0
 21 20  2  0  0  0  0
 21 19  1  0  0  0  0
 22 20  1  0  0  0  0
 23 16  1  0  0  0  0
 24 23  1  0  0  0  0
 25 26  1  0  0  0  0
 25  7  2  0  0  0  0
 26 27  2  0  0  0  0
 27 15  1  0  0  0  0
M  END
> <CdId>
734

> <Mol Weight>
426.22

> <Formula>
C19H12BrN3O4

> <Click_ID>
CLK010_F09 __ __ 

$$$$
