CLK013_E08
 OpenBabel03181419432D

 20 21  0  0  0  0  0  0  0  0999 V2000
    6.0483   -1.4623    0.0000 N    0  0  0  0  0  0  0  0  0  0  0  0
    5.9112   -2.2806    0.0000 C    0  0  0  0  0  0  0  0  0  0  0  0
    4.7273   -1.6699    0.0000 C    0  0  0  0  0  0  0  0  0  0  0  0
    5.3131   -1.0842    0.0000 C    0  0  0  0  0  0  0  0  0  0  0  0
    5.0970   -2.4052    0.0000 N    0  0  0  0  0  0  0  0  0  0  0  0
    3.9131   -1.5370    0.0000 C    0  0  0  0  0  0  0  0  0  0  0  0
    3.3897   -2.1809    0.0000 C    0  0  0  0  0  0  0  0  0  0  0  0
    6.4970   -2.8580    0.0000 S    0  0  0  0  0  0  0  0  0  0  0  0
    1.1756   -0.3863    0.0000 C    0  0  0  0  0  0  0  0  0  0  0  0
    0.8848    0.3821    0.0000 C    0  0  0  0  0  0  0  0  0  0  0  0
    5.1842   -0.2742    0.0000 O    0  0  0  0  0  0  0  0  0  0  0  0
    2.5714   -2.0480    0.0000 C    0  0  0  0  0  0  0  0  0  0  0  0
    3.6805   -2.9453    0.0000 C    0  0  0  0  0  0  0  0  0  0  0  0
    6.7794   -1.0884    0.0000 C    0  0  0  0  0  0  0  0  0  0  0  0
    2.0563   -2.6835    0.0000 C    0  0  0  0  0  0  0  0  0  0  0  0
    3.1654   -3.5933    0.0000 C    0  0  0  0  0  0  0  0  0  0  0  0
    2.3471   -3.4645    0.0000 C    0  0  0  0  0  0  0  0  0  0  0  0
    3.4562   -4.3617    0.0000 Br   0  0  0  0  0  0  0  0  0  0  0  0
    2.2848   -1.2836    0.0000 O    0  0  0  0  0  0  0  0  0  0  0  0
    1.4747   -1.1507    0.0000 C    0  0  0  0  0  0  0  0  0  0  0  0
  2  1  1  0  0  0  0
  3  4  1  0  0  0  0
  4  1  1  0  0  0  0
  5  2  1  0  0  0  0
  5  3  1  0  0  0  0
  6  3  2  0  0  0  0
  7  6  1  0  0  0  0
  8  2  2  0  0  0  0
  9 20  1  0  0  0  0
 10  9  3  0  0  0  0
 11  4  2  0  0  0  0
 12  7  2  0  0  0  0
 13  7  1  0  0  0  0
 14  1  1  0  0  0  0
 15 12  1  0  0  0  0
 16 13  2  0  0  0  0
 17 16  1  0  0  0  0
 17 15  2  0  0  0  0
 18 16  1  0  0  0  0
 19 12  1  0  0  0  0
 20 19  1  0  0  0  0
M  END
> <CdId>
963

> <Mol Weight>
351.218

> <Formula>
C14H11BrN2O2S

> <Click_ID>
CLK013_E08 __ __ 

$$$$
