CLK012_G06
 OpenBabel03181419432D

 19 20  0  0  0  0  0  0  0  0999 V2000
    1.5667   -0.8167    0.0000 N   0  0  0  0  0  0  0  0  0  0  0  0
    1.8250   -1.6042    0.0000 C   0  0  0  0  0  0  0  0  0  0  0  0
    2.2375   -0.3292    0.0000 C   0  0  0  0  0  0  0  0  0  0  0  0
    2.9042   -0.8167    0.0000 C   0  0  0  0  0  0  0  0  0  0  0  0
    2.6500   -1.6042    0.0000 S   0  0  0  0  0  0  0  0  0  0  0  0
    3.6917   -0.5625    0.0000 C   0  0  0  0  0  0  0  0  0  0  0  0
    0.6125    0.2458    0.0000 C   0  0  0  0  0  0  0  0  0  0  0  0
    0.3917    1.0458    0.0000 C   0  0  0  0  0  0  0  0  0  0  0  0
    1.3375   -2.2667    0.0000 O   0  0  0  0  0  0  0  0  0  0  0  0
    2.2292    0.4958    0.0000 O   0  0  0  0  0  0  0  0  0  0  0  0
    0.7875   -0.5625    0.0000 C   0  0  0  0  0  0  0  0  0  0  0  0
    3.8667    0.2458    0.0000 C   0  0  0  0  0  0  0  0  0  0  0  0
    4.2125    1.8500    0.0000 C   0  0  0  0  0  0  0  0  0  0  0  0
    4.3875    2.6583    0.0000 S   0  0  0  0  0  0  0  0  0  0  0  0
    3.2542    0.7958    0.0000 C   0  0  0  0  0  0  0  0  0  0  0  0
    4.6417    0.5000    0.0000 C   0  0  0  0  0  0  0  0  0  0  0  0
    3.4292    1.5958    0.0000 C   0  0  0  0  0  0  0  0  0  0  0  0
    4.8167    1.3000    0.0000 C   0  0  0  0  0  0  0  0  0  0  0  0
    5.1750    2.9083    0.0000 C   0  0  0  0  0  0  0  0  0  0  0  0
  2  1  1  0  0  0  0
  3  1  1  0  0  0  0
  4  3  1  0  0  0  0
  5  2  1  0  0  0  0
  5  4  1  0  0  0  0
  6  4  2  0  0  0  0
  7 11  1  0  0  0  0
  8  7  3  0  0  0  0
  9  2  2  0  0  0  0
 10  3  2  0  0  0  0
 11  1  1  0  0  0  0
 12  6  1  0  0  0  0
 13 18  1  0  0  0  0
 14 13  1  0  0  0  0
 15 12  2  0  0  0  0
 16 12  1  0  0  0  0
 17 15  1  0  0  0  0
 17 13  2  0  0  0  0
 18 16  2  0  0  0  0
 19 14  1  0  0  0  0
M  END
> <CdId>
901

> <Mol Weight>
289.373

> <Formula>
C14H11NO2S2

> <Click_ID>
CLK012_G06 __ __ 

$$$$
