CLK008_D02
 OpenBabel03181419432D

 19 21  0  0  0  0  0  0  0  0999 V2000
    0.0172    0.3314    0.0000 C   0  0  0  0  0  0  0  0  0  0  0  0
   -0.4626   -0.3418    0.0000 N   0  0  0  0  0  0  0  0  0  0  0  0
    0.8423    0.3383    0.0000 C   0  0  3  0  0  0  0  0  0  0  0  0
   -0.4729    1.0011    0.0000 N   0  0  0  0  0  0  0  0  0  0  0  0
   -1.2531   -0.0932    0.0000 C   0  0  0  0  0  0  0  0  0  0  0  0
   -0.0484   -1.0564    0.0000 C   0  0  0  0  0  0  0  0  0  0  0  0
    1.3221    1.0045    0.0000 C   0  0  0  0  0  0  0  0  0  0  0  0
    1.3325   -0.3314    0.0000 C   0  0  0  0  0  0  0  0  0  0  0  0
   -1.2600    0.7318    0.0000 C   0  0  0  0  0  0  0  0  0  0  0  0
   -1.9712   -0.5005    0.0000 C   0  0  0  0  0  0  0  0  0  0  0  0
   -0.4591   -1.7709    0.0000 C   0  0  0  0  0  0  0  0  0  0  0  0
    2.1126    0.7594    0.0000 C   0  0  0  0  0  0  0  0  0  0  0  0
    2.1161   -0.0691    0.0000 N   0  0  0  0  0  0  0  0  0  0  0  0
   -1.9712    1.1461    0.0000 C   0  0  0  0  0  0  0  0  0  0  0  0
   -2.6822   -0.0932    0.0000 C   0  0  0  0  0  0  0  0  0  0  0  0
   -0.0448   -2.4820    0.0000 C   0  0  0  0  0  0  0  0  0  0  0  0
    2.7754    1.2462    0.0000 O   0  0  0  0  0  0  0  0  0  0  0  0
    2.7858   -0.5523    0.0000 C   0  0  0  0  0  0  0  0  0  0  0  0
   -2.6822    0.7318    0.0000 C   0  0  0  0  0  0  0  0  0  0  0  0
  1  2  1  0  0  0  0
  1  3  1  0  0  0  0
  1  4  2  0  0  0  0
  2  5  1  0  0  0  0
  2  6  1  0  0  0  0
  3  7  1  0  0  0  0
  3  8  1  0  0  0  0
  4  9  1  0  0  0  0
  5 10  2  0  0  0  0
  5  9  1  0  0  0  0
  6 11  1  0  0  0  0
  7 12  1  0  0  0  0
  8 13  1  0  0  0  0
  9 14  2  0  0  0  0
 10 15  1  0  0  0  0
 11 16  3  0  0  0  0
 12 17  2  0  0  0  0
 12 13  1  0  0  0  0
 13 18  1  0  0  0  0
 14 19  1  0  0  0  0
 15 19  2  0  0  0  0
M  END
> <CdId>
576

> <Mol Weight>
253.2991

> <Formula>
C15H15N3O

> <Click_ID>
CLK008_D02 __ __ 

$$$$
