CLK018_F08
 OpenBabel03181419432D

 28 30  0  0  0  0  0  0  0  0999 V2000
    2.4095   -1.9973    0.0000 N    0  0  0  0  0  0  0  0  0  0  0  0
    0.9803   -1.9973    0.0000 C    0  0  0  0  0  0  0  0  0  0  0  0
    1.6949   -1.5850    0.0000 C    0  0  0  0  0  0  0  0  0  0  0  0
    2.4095   -2.8218    0.0000 C    0  0  0  0  0  0  0  0  0  0  0  0
    1.6949   -3.2341    0.0000 N    0  0  0  0  0  0  0  0  0  0  0  0
    0.9803   -2.8218    0.0000 C    0  0  0  0  0  0  0  0  0  0  0  0
    3.1241   -1.5850    0.0000 C    0  0  0  0  0  0  0  0  0  0  0  0
    0.2657   -1.5850    0.0000 C    0  0  0  0  0  0  0  0  0  0  0  0
    3.1241   -0.7604    0.0000 C    0  0  0  0  0  0  0  0  0  0  0  0
    3.8387   -0.3482    0.0000 C    0  0  0  0  0  0  0  0  0  0  0  0
   -2.5927    0.8886    0.0000 C    0  0  0  0  0  0  0  0  0  0  0  0
    3.1241   -3.2341    0.0000 O    0  0  0  0  0  0  0  0  0  0  0  0
   -3.3073    0.4764    0.0000 C    0  0  0  0  0  0  0  0  0  0  0  0
    1.6949   -0.7604    0.0000 O    0  0  0  0  0  0  0  0  0  0  0  0
    0.2657   -3.2341    0.0000 O    0  0  0  0  0  0  0  0  0  0  0  0
    3.8387   -1.9973    0.0000 C    0  0  0  0  0  0  0  0  0  0  0  0
    0.2657   -0.7604    0.0000 C    0  0  0  0  0  0  0  0  0  0  0  0
    4.5533   -0.7604    0.0000 C    0  0  0  0  0  0  0  0  0  0  0  0
    4.5533   -1.5850    0.0000 C    0  0  0  0  0  0  0  0  0  0  0  0
    3.8387    0.4764    0.0000 Cl   0  0  0  0  0  0  0  0  0  0  0  0
   -0.4489   -0.3482    0.0000 C    0  0  0  0  0  0  0  0  0  0  0  0
   -0.4489    0.4764    0.0000 C    0  0  0  0  0  0  0  0  0  0  0  0
   -1.8781    0.4764    0.0000 C    0  0  0  0  0  0  0  0  0  0  0  0
   -1.1635    0.8886    0.0000 O    0  0  0  0  0  0  0  0  0  0  0  0
    0.9803    0.4764    0.0000 C    0  0  0  0  0  0  0  0  0  0  0  0
    0.9803   -0.3482    0.0000 C    0  0  0  0  0  0  0  0  0  0  0  0
    5.2679   -0.3482    0.0000 C    0  0  0  0  0  0  0  0  0  0  0  0
    0.2657    0.8886    0.0000 C    0  0  0  0  0  0  0  0  0  0  0  0
  2  3  1  0  0  0  0
  3  1  1  0  0  0  0
  4  1  1  0  0  0  0
  5  4  1  0  0  0  0
  6  5  1  0  0  0  0
  6  2  1  0  0  0  0
  7  1  1  0  0  0  0
  8  2  2  0  0  0  0
  9  7  2  0  0  0  0
 10  9  1  0  0  0  0
 11 23  1  0  0  0  0
 12  4  2  0  0  0  0
 13 11  3  0  0  0  0
 14  3  2  0  0  0  0
 15  6  2  0  0  0  0
 16  7  1  0  0  0  0
 17  8  1  0  0  0  0
 18 19  1  0  0  0  0
 18 10  2  0  0  0  0
 19 16  2  0  0  0  0
 20 10  1  0  0  0  0
 21 17  2  0  0  0  0
 22 21  1  0  0  0  0
 23 24  1  0  0  0  0
 24 22  1  0  0  0  0
 25 26  2  0  0  0  0
 26 17  1  0  0  0  0
 27 18  1  0  0  0  0
 28 25  1  0  0  0  0
 28 22  2  0  0  0  0
M  END
> <CdId>
1373

> <Mol Weight>
394.808

> <Formula>
C21H15ClN2O4

> <Click_ID>
CLK018_F08 __ __ 

$$$$
