CLK021_H03
 OpenBabel03181419432D

 27 29  0  0  0  0  0  0  0  0999 V2000
    3.8214    2.4389    0.0000 C    0  0  3  0  0  0  0  0  0  0  0  0
    3.4861    3.1921    0.0000 C    0  0  0  0  0  0  0  0  0  0  0  0
    3.2013    1.8831    0.0000 C    0  0  0  0  0  0  0  0  0  0  0  0
    2.6640    3.1094    0.0000 N    0  0  0  0  0  0  0  0  0  0  0  0
    2.4894    2.2965    0.0000 C    0  0  0  0  0  0  0  0  0  0  0  0
    6.6874    2.4527    0.0000 N    0  0  0  0  0  0  0  0  0  0  0  0
    4.3037    1.7729    0.0000 C    0  0  0  0  0  0  0  0  0  0  0  0
    5.1028    1.9979    0.0000 C    0  0  0  0  0  0  0  0  0  0  0  0
    5.6953    1.4284    0.0000 C    0  0  0  0  0  0  0  0  0  0  0  0
    6.4945    1.6488    0.0000 C    0  0  0  0  0  0  0  0  0  0  0  0
    1.3412    3.4125    0.0000 C    0  0  0  0  0  0  0  0  0  0  0  0
    1.7775    1.8831    0.0000 C    0  0  0  0  0  0  0  0  0  0  0  0
    0.5787    3.1003    0.0000 C    0  0  0  0  0  0  0  0  0  0  0  0
    3.2013    1.0563    0.0000 C    0  0  0  0  0  0  0  0  0  0  0  0
    7.4866    2.6823    0.0000 O    0  0  0  0  0  0  0  0  0  0  0  0
    3.8994    3.9086    0.0000 O    0  0  0  0  0  0  0  0  0  0  0  0
    6.0949    3.0267    0.0000 O    0  0  0  0  0  0  0  0  0  0  0  0
    5.2406    2.5583    0.0000 O    0  0  0  0  0  0  0  0  0  0  0  0
    2.1128    3.7203    0.0000 C    0  0  0  0  0  0  0  0  0  0  0  0
    4.5379    2.8522    0.0000 O    0  0  0  0  0  0  0  0  0  0  0  0
    2.4894    0.6430    0.0000 C    0  0  0  0  0  0  0  0  0  0  0  0
    1.7775    1.0563    0.0000 C    0  0  0  0  0  0  0  0  0  0  0  0
    2.4894   -0.1838    0.0000 Br   0  0  0  0  0  0  0  0  0  0  0  0
    5.4978    0.6201    0.0000 C    0  0  0  0  0  0  0  0  0  0  0  0
    7.0870    1.0748    0.0000 C    0  0  0  0  0  0  0  0  0  0  0  0
    6.0903    0.0505    0.0000 C    0  0  0  0  0  0  0  0  0  0  0  0
    6.8895    0.2756    0.0000 C    0  0  0  0  0  0  0  0  0  0  0  0
  2  1  1  0  0  0  0
  3  1  1  0  0  0  0
  4  2  1  0  0  0  0
  4  5  1  0  0  0  0
  5  3  2  0  0  0  0
  6 10  1  0  0  0  0
  7  1  1  0  0  0  0
  8  7  1  0  0  0  0
  9  8  1  0  0  0  0
 10  9  2  0  0  0  0
 11 19  1  0  0  0  0
 12  5  1  0  0  0  0
 12 22  2  0  0  0  0
 13 11  3  0  0  0  0
 14  3  1  0  0  0  0
 15  6  1  0  0  0  0
 16  2  2  0  0  0  0
 17  6  2  0  0  0  0
 18  8  2  0  0  0  0
 19  4  1  0  0  0  0
 20  1  1  0  0  0  0
 21 14  2  0  0  0  0
 22 21  1  0  0  0  0
 23 21  1  0  0  0  0
 24  9  1  0  0  0  0
 25 10  1  0  0  0  0
 25 27  2  0  0  0  0
 26 24  2  0  0  0  0
 27 26  1  0  0  0  0
M  END
> <CdId>
1628

> <Mol Weight>
429.221

> <Formula>
C19H13BrN2O5

> <Click_ID>
CLK021_H03 __ __ 

$$$$
