CLK003_B04
 OpenBabel03181419432D

 23 25  0  0  0  0  0  0  0  0999 V2000
   -1.3697    0.1063    0.0000 C   0  0  0  0  0  0  0  0  0  0  0  0
   -0.5578    0.2428    0.0000 C   0  0  3  0  0  0  0  0  0  0  0  0
   -1.4798   -0.7171    0.0000 C   0  0  0  0  0  0  0  0  0  0  0  0
   -2.0147    0.6147    0.0000 C   0  0  0  0  0  0  0  0  0  0  0  0
   -0.1632   -0.4857    0.0000 C   0  0  0  0  0  0  0  0  0  0  0  0
    0.3794    0.8765    0.0000 C   0  0  0  0  0  0  0  0  0  0  0  0
   -0.8195    1.1915    0.0000 O   0  0  0  0  0  0  0  0  0  0  0  0
   -0.7399   -1.0776    0.0000 N   0  0  0  0  0  0  0  0  0  0  0  0
   -2.2500   -1.0244    0.0000 C   0  0  0  0  0  0  0  0  0  0  0  0
   -2.7774    0.3112    0.0000 C   0  0  0  0  0  0  0  0  0  0  0  0
    0.6526   -0.5957    0.0000 O   0  0  0  0  0  0  0  0  0  0  0  0
    1.1724    0.4629    0.0000 C   0  0  0  0  0  0  0  0  0  0  0  0
   -0.5995   -1.8895    0.0000 C   0  0  0  0  0  0  0  0  0  0  0  0
   -2.8950   -0.5161    0.0000 C   0  0  0  0  0  0  0  0  0  0  0  0
    1.8630    0.9031    0.0000 C   0  0  0  0  0  0  0  0  0  0  0  0
    1.2028   -0.2238    0.0000 O   0  0  0  0  0  0  0  0  0  0  0  0
   -1.2332   -2.4208    0.0000 C   0  0  0  0  0  0  0  0  0  0  0  0
    2.5916    0.5237    0.0000 C   0  0  0  0  0  0  0  0  0  0  0  0
    1.8326    1.7265    0.0000 C   0  0  0  0  0  0  0  0  0  0  0  0
   -1.8630   -2.9482    0.0000 C   0  0  0  0  0  0  0  0  0  0  0  0
    3.2935    0.9714    0.0000 C   0  0  0  0  0  0  0  0  0  0  0  0
    2.5232    2.1818    0.0000 C   0  0  0  0  0  0  0  0  0  0  0  0
    3.2518    1.7947    0.0000 C   0  0  0  0  0  0  0  0  0  0  0  0
  1  2  1  0  0  0  0
  1  3  2  0  0  0  0
  1  4  1  0  0  0  0
  2  5  1  0  0  0  0
  2  6  1  0  0  0  0
  2  7  1  0  0  0  0
  3  8  1  0  0  0  0
  3  9  1  0  0  0  0
  4 10  2  0  0  0  0
  5 11  2  0  0  0  0
  5  8  1  0  0  0  0
  6 12  1  0  0  0  0
  8 13  1  0  0  0  0
  9 14  2  0  0  0  0
 10 14  1  0  0  0  0
 12 15  1  0  0  0  0
 12 16  2  0  0  0  0
 13 17  1  0  0  0  0
 15 18  1  0  0  0  0
 15 19  2  0  0  0  0
 17 20  3  0  0  0  0
 18 21  2  0  0  0  0
 19 22  1  0  0  0  0
 21 23  1  0  0  0  0
 22 23  2  0  0  0  0
M  END
> <CdId>
173

> <Mol Weight>
305.3273

> <Formula>
C19H15NO3

> <Click_ID>
CLK003_B04 __ __ 

$$$$
