CLK044F06
 OpenBabel03181419432D

 21 22  0  0  0  0  0  0  0  0999 V2000
    0.4750   -1.8458    0.0000 C   0  0  0  0  0  0  0  0  0  0  0  0
   -2.3833    3.1042    0.0000 C   0  0  0  0  0  0  0  0  0  0  0  0
   -3.1000    3.5167    0.0000 C   0  0  0  0  0  0  0  0  0  0  0  0
    0.4750   -1.0208    0.0000 N   0  0  0  0  0  0  0  0  0  0  0  0
   -0.2417    0.2167    0.0000 C   0  0  0  0  0  0  0  0  0  0  0  0
   -0.9542    0.6292    0.0000 N   0  0  0  0  0  0  0  0  0  0  0  0
   -0.2417   -2.2583    0.0000 O   0  0  0  0  0  0  0  0  0  0  0  0
    1.1875   -2.2583    0.0000 C   0  0  0  0  0  0  0  0  0  0  0  0
   -0.9542    1.4542    0.0000 C   0  0  0  0  0  0  0  0  0  0  0  0
    0.4750    0.6292    0.0000 O   0  0  0  0  0  0  0  0  0  0  0  0
   -0.2417   -0.6083    0.0000 C   0  0  0  0  0  0  0  0  0  0  0  0
   -1.6708    2.6917    0.0000 C   0  0  0  0  0  0  0  0  0  0  0  0
   -1.6708    1.8667    0.0000 C   0  0  0  0  0  0  0  0  0  0  0  0
   -0.2417    2.6917    0.0000 C   0  0  0  0  0  0  0  0  0  0  0  0
   -0.2417    1.8667    0.0000 C   0  0  0  0  0  0  0  0  0  0  0  0
    1.1875   -3.0833    0.0000 C   0  0  0  0  0  0  0  0  0  0  0  0
    1.9042   -1.8458    0.0000 C   0  0  0  0  0  0  0  0  0  0  0  0
   -0.9542    3.1042    0.0000 C   0  0  0  0  0  0  0  0  0  0  0  0
    1.9042   -3.4958    0.0000 C   0  0  0  0  0  0  0  0  0  0  0  0
    2.6167   -2.2583    0.0000 C   0  0  0  0  0  0  0  0  0  0  0  0
    2.6167   -3.0833    0.0000 C   0  0  0  0  0  0  0  0  0  0  0  0
  2 12  1  0  0  0  0
  3  2  3  0  0  0  0
  4  1  1  0  0  0  0
  5 11  1  0  0  0  0
  6  5  1  0  0  0  0
  7  1  2  0  0  0  0
  8  1  1  0  0  0  0
  9  6  1  0  0  0  0
 10  5  2  0  0  0  0
 11  4  1  0  0  0  0
 12 13  1  0  0  0  0
 13  9  2  0  0  0  0
 14 15  2  0  0  0  0
 15  9  1  0  0  0  0
 16  8  1  0  0  0  0
 17  8  2  0  0  0  0
 18 12  2  0  0  0  0
 18 14  1  0  0  0  0
 19 16  2  0  0  0  0
 20 17  1  0  0  0  0
 21 20  2  0  0  0  0
 21 19  1  0  0  0  0
M  END
> <CdId>
3366

> <Mol Weight>
278.3053

> <Formula>
C17H14N2O2

> <Click_ID>
CLK044F06 __ __ 

$$$$
