CLK015_D11
 OpenBabel03181419432D

 23 24  0  0  0  0  0  0  0  0999 V2000
    1.5650   -0.8158    0.0000 N   0  0  0  0  0  0  0  0  0  0  0  0
    1.8230   -1.6024    0.0000 C   0  0  0  0  0  0  0  0  0  0  0  0
    2.9010   -0.8158    0.0000 C   0  0  0  0  0  0  0  0  0  0  0  0
    2.2350   -0.3288    0.0000 C   0  0  0  0  0  0  0  0  0  0  0  0
    2.6470   -1.6024    0.0000 S   0  0  0  0  0  0  0  0  0  0  0  0
    3.6876   -0.5619    0.0000 C   0  0  0  0  0  0  0  0  0  0  0  0
    4.6490    0.5077    0.0000 C   0  0  0  0  0  0  0  0  0  0  0  0
    3.8499    0.2455    0.0000 C   0  0  0  0  0  0  0  0  0  0  0  0
    0.6118    0.2455    0.0000 C   0  0  0  0  0  0  0  0  0  0  0  0
    0.3913    1.0446    0.0000 C   0  0  0  0  0  0  0  0  0  0  0  0
    1.3360   -2.2642    0.0000 O   0  0  0  0  0  0  0  0  0  0  0  0
    5.2608   -0.0417    0.0000 O   0  0  0  0  0  0  0  0  0  0  0  0
    2.2267    0.4952    0.0000 O   0  0  0  0  0  0  0  0  0  0  0  0
    0.7866   -0.5619    0.0000 C   0  0  0  0  0  0  0  0  0  0  0  0
    4.8196    1.3110    0.0000 C   0  0  0  0  0  0  0  0  0  0  0  0
    5.5980    1.5690    0.0000 O   0  0  0  0  0  0  0  0  0  0  0  0
    3.2381    0.7949    0.0000 C   0  0  0  0  0  0  0  0  0  0  0  0
    6.0475    0.2081    0.0000 C   0  0  0  0  0  0  0  0  0  0  0  0
    3.4212    1.6107    0.0000 C   0  0  0  0  0  0  0  0  0  0  0  0
    4.1995    1.8687    0.0000 C   0  0  0  0  0  0  0  0  0  0  0  0
    5.7728    2.3724    0.0000 C   0  0  0  0  0  0  0  0  0  0  0  0
    6.6593   -0.3413    0.0000 C   0  0  0  0  0  0  0  0  0  0  0  0
    6.2181    1.0114    0.0000 C   0  0  0  0  0  0  0  0  0  0  0  0
  2  1  1  0  0  0  0
  3  4  1  0  0  0  0
  3  5  1  0  0  0  0
  4  1  1  0  0  0  0
  5  2  1  0  0  0  0
  6  3  2  0  0  0  0
  7  8  1  0  0  0  0
  8  6  1  0  0  0  0
  9 14  1  0  0  0  0
 10  9  3  0  0  0  0
 11  2  2  0  0  0  0
 12  7  1  0  0  0  0
 13  4  2  0  0  0  0
 14  1  1  0  0  0  0
 15  7  2  0  0  0  0
 15 20  1  0  0  0  0
 16 15  1  0  0  0  0
 17  8  2  0  0  0  0
 18 12  1  0  0  0  0
 19 17  1  0  0  0  0
 20 19  2  0  0  0  0
 21 16  1  0  0  0  0
 22 18  1  0  0  0  0
 23 18  1  0  0  0  0
M  END
> <CdId>
1116

> <Mol Weight>
331.386

> <Formula>
C17H17NO4S

> <Click_ID>
CLK015_D11 __ __ 

$$$$
