CLK015_F09
 OpenBabel03181419432D

 30 32  0  0  0  0  0  0  0  0999 V2000
    5.4764   -2.8780    0.0000 N    0  0  0  0  0  0  0  0  0  0  0  0
    4.2528   -2.1493    0.0000 C    0  0  0  0  0  0  0  0  0  0  0  0
    5.0730   -2.1631    0.0000 C    0  0  0  0  0  0  0  0  0  0  0  0
    5.0593   -3.5883    0.0000 C    0  0  0  0  0  0  0  0  0  0  0  0
    4.2344   -3.5791    0.0000 N    0  0  0  0  0  0  0  0  0  0  0  0
    3.8266   -2.8596    0.0000 C    0  0  0  0  0  0  0  0  0  0  0  0
    3.8495   -1.4344    0.0000 C    0  0  0  0  0  0  0  0  0  0  0  0
    3.0246   -1.4207    0.0000 C    0  0  0  0  0  0  0  0  0  0  0  0
    6.3012   -2.8871    0.0000 C    0  0  0  0  0  0  0  0  0  0  0  0
    8.7759   -2.9192    0.0000 C    0  0  0  0  0  0  0  0  0  0  0  0
    3.0704    1.4389    0.0000 C    0  0  0  0  0  0  0  0  0  0  0  0
    5.4626   -4.3078    0.0000 O    0  0  0  0  0  0  0  0  0  0  0  0
    2.6671    2.1538    0.0000 C    0  0  0  0  0  0  0  0  0  0  0  0
    5.4901   -1.4482    0.0000 O    0  0  0  0  0  0  0  0  0  0  0  0
    3.0017   -2.8505    0.0000 O    0  0  0  0  0  0  0  0  0  0  0  0
    7.9510   -2.9055    0.0000 C    0  0  0  0  0  0  0  0  0  0  0  0
    2.6168   -0.7012    0.0000 C    0  0  0  0  0  0  0  0  0  0  0  0
    2.6030   -2.1310    0.0000 C    0  0  0  0  0  0  0  0  0  0  0  0
    9.1837   -3.6341    0.0000 O    0  0  0  0  0  0  0  0  0  0  0  0
    6.7274   -2.1768    0.0000 C    0  0  0  0  0  0  0  0  0  0  0  0
    6.7091   -3.6066    0.0000 C    0  0  0  0  0  0  0  0  0  0  0  0
    7.5523   -2.1906    0.0000 C    0  0  0  0  0  0  0  0  0  0  0  0
    7.5340   -3.6157    0.0000 C    0  0  0  0  0  0  0  0  0  0  0  0
    1.8010   -0.6874    0.0000 C    0  0  0  0  0  0  0  0  0  0  0  0
    1.7781   -2.1172    0.0000 C    0  0  0  0  0  0  0  0  0  0  0  0
    9.2021   -2.2043    0.0000 O    0  0  0  0  0  0  0  0  0  0  0  0
    1.3794   -1.3932    0.0000 C    0  0  0  0  0  0  0  0  0  0  0  0
    1.3519   -2.8230    0.0000 Cl   0  0  0  0  0  0  0  0  0  0  0  0
    3.0429    0.0091    0.0000 O    0  0  0  0  0  0  0  0  0  0  0  0
    2.6443    0.7286    0.0000 C    0  0  0  0  0  0  0  0  0  0  0  0
  2  3  1  0  0  0  0
  3  1  1  0  0  0  0
  4  1  1  0  0  0  0
  5  4  1  0  0  0  0
  6  5  1  0  0  0  0
  6  2  1  0  0  0  0
  7  2  2  0  0  0  0
  8  7  1  0  0  0  0
  9  1  1  0  0  0  0
 10 16  1  0  0  0  0
 11 30  1  0  0  0  0
 12  4  2  0  0  0  0
 13 11  3  0  0  0  0
 14  3  2  0  0  0  0
 15  6  2  0  0  0  0
 16 23  1  0  0  0  0
 17  8  1  0  0  0  0
 18  8  2  0  0  0  0
 19 10  2  0  0  0  0
 20  9  2  0  0  0  0
 21  9  1  0  0  0  0
 22 20  1  0  0  0  0
 22 16  2  0  0  0  0
 23 21  2  0  0  0  0
 24 17  2  0  0  0  0
 24 27  1  0  0  0  0
 25 18  1  0  0  0  0
 26 10  1  0  0  0  0
 27 25  2  0  0  0  0
 28 25  1  0  0  0  0
 29 17  1  0  0  0  0
 30 29  1  0  0  0  0
M  END
> <CdId>
1134

> <Mol Weight>
424.791

> <Formula>
C21H13ClN2O6

> <Click_ID>
CLK015_F09 __ __ 

$$$$
