CLK016_A04
 OpenBabel03181419432D

 28 30  0  0  0  0  0  0  0  0999 V2000
    3.4814   -1.3789    0.0000 N   0  0  0  0  0  0  0  0  0  0  0  0
    2.0522   -1.3789    0.0000 C   0  0  0  0  0  0  0  0  0  0  0  0
    2.7668   -0.9666    0.0000 C   0  0  0  0  0  0  0  0  0  0  0  0
    3.4814   -2.2034    0.0000 C   0  0  0  0  0  0  0  0  0  0  0  0
    2.7668   -2.6157    0.0000 N   0  0  0  0  0  0  0  0  0  0  0  0
    2.0522   -2.2034    0.0000 C   0  0  0  0  0  0  0  0  0  0  0  0
    4.1960   -0.9666    0.0000 C   0  0  0  0  0  0  0  0  0  0  0  0
    1.3376   -0.9666    0.0000 C   0  0  0  0  0  0  0  0  0  0  0  0
    4.1960   -0.1420    0.0000 C   0  0  0  0  0  0  0  0  0  0  0  0
   -1.5208    1.5070    0.0000 C   0  0  0  0  0  0  0  0  0  0  0  0
    4.1960   -2.6157    0.0000 O   0  0  0  0  0  0  0  0  0  0  0  0
   -2.2354    1.0948    0.0000 C   0  0  0  0  0  0  0  0  0  0  0  0
    2.7668   -0.1420    0.0000 O   0  0  0  0  0  0  0  0  0  0  0  0
    4.9106    0.2702    0.0000 C   0  0  0  0  0  0  0  0  0  0  0  0
    1.3376   -2.6157    0.0000 O   0  0  0  0  0  0  0  0  0  0  0  0
    4.9106   -1.3789    0.0000 C   0  0  0  0  0  0  0  0  0  0  0  0
    1.3376   -0.1420    0.0000 C   0  0  0  0  0  0  0  0  0  0  0  0
    5.6252   -0.1420    0.0000 C   0  0  0  0  0  0  0  0  0  0  0  0
    5.6252   -0.9666    0.0000 C   0  0  0  0  0  0  0  0  0  0  0  0
    0.6230    0.2702    0.0000 C   0  0  0  0  0  0  0  0  0  0  0  0
    0.6230    1.0948    0.0000 C   0  0  0  0  0  0  0  0  0  0  0  0
   -0.8062    1.0948    0.0000 C   0  0  0  0  0  0  0  0  0  0  0  0
   -0.0916    1.5070    0.0000 O   0  0  0  0  0  0  0  0  0  0  0  0
    2.0522    1.0948    0.0000 C   0  0  0  0  0  0  0  0  0  0  0  0
    4.9106    1.0948    0.0000 C   0  0  0  0  0  0  0  0  0  0  0  0
    2.0522    0.2702    0.0000 C   0  0  0  0  0  0  0  0  0  0  0  0
    6.3398    0.2702    0.0000 C   0  0  0  0  0  0  0  0  0  0  0  0
    1.3376    1.5070    0.0000 C   0  0  0  0  0  0  0  0  0  0  0  0
  2  3  1  0  0  0  0
  3  1  1  0  0  0  0
  4  1  1  0  0  0  0
  5  4  1  0  0  0  0
  6  5  1  0  0  0  0
  6  2  1  0  0  0  0
  7  1  1  0  0  0  0
  8  2  2  0  0  0  0
  9  7  2  0  0  0  0
 10 22  1  0  0  0  0
 11  4  2  0  0  0  0
 12 10  3  0  0  0  0
 13  3  2  0  0  0  0
 14  9  1  0  0  0  0
 15  6  2  0  0  0  0
 16  7  1  0  0  0  0
 17  8  1  0  0  0  0
 18 19  1  0  0  0  0
 18 14  2  0  0  0  0
 19 16  2  0  0  0  0
 20 17  2  0  0  0  0
 21 20  1  0  0  0  0
 22 23  1  0  0  0  0
 23 21  1  0  0  0  0
 24 26  2  0  0  0  0
 25 14  1  0  0  0  0
 26 17  1  0  0  0  0
 27 18  1  0  0  0  0
 28 24  1  0  0  0  0
 28 21  2  0  0  0  0
M  END
> <CdId>
1159

> <Mol Weight>
374.3893

> <Formula>
C22H18N2O4

> <Click_ID>
CLK016_A04 __ __ 

$$$$
