CLK012_H07
 OpenBabel03181419432D

 28 30  0  0  0  0  0  0  0  0999 V2000
    3.1325   -0.2757    0.0000 N    0  0  0  0  0  0  0  0  0  0  0  0
    2.8736    0.5137    0.0000 C    0  0  0  0  0  0  0  0  0  0  0  0
    3.9595   -0.2757    0.0000 C    0  0  0  0  0  0  0  0  0  0  0  0
    4.2143    0.5137    0.0000 C    0  0  0  0  0  0  0  0  0  0  0  0
    3.5460    0.9982    0.0000 N    0  0  0  0  0  0  0  0  0  0  0  0
    5.0037    0.7727    0.0000 C    0  0  0  0  0  0  0  0  0  0  0  0
    2.6438   -0.9440    0.0000 C    0  0  0  0  0  0  0  0  0  0  0  0
    6.6451    5.0371    0.0000 C    0  0  0  0  0  0  0  0  0  0  0  0
    6.8206    5.8390    0.0000 C    0  0  0  0  0  0  0  0  0  0  0  0
    2.0925    0.7727    0.0000 O    0  0  0  0  0  0  0  0  0  0  0  0
    4.7280    2.9320    0.0000 C    0  0  0  0  0  0  0  0  0  0  0  0
    4.4399   -0.9440    0.0000 O    0  0  0  0  0  0  0  0  0  0  0  0
    5.1666    1.5746    0.0000 C    0  0  0  0  0  0  0  0  0  0  0  0
    4.5526    2.1259    0.0000 C    0  0  0  0  0  0  0  0  0  0  0  0
    5.5049    3.1784    0.0000 C    0  0  0  0  0  0  0  0  0  0  0  0
    6.1189    2.6313    0.0000 C    0  0  0  0  0  0  0  0  0  0  0  0
    1.8211   -0.8563    0.0000 C    0  0  0  0  0  0  0  0  0  0  0  0
    5.9435    1.8252    0.0000 C    0  0  0  0  0  0  0  0  0  0  0  0
    0.1796   -0.6683    0.0000 C    0  0  0  0  0  0  0  0  0  0  0  0
    4.1266    3.4791    0.0000 O    0  0  0  0  0  0  0  0  0  0  0  0
   -0.6474   -0.5764    0.0000 Cl   0  0  0  0  0  0  0  0  0  0  0  0
    5.6886    3.9929    0.0000 O    0  0  0  0  0  0  0  0  0  0  0  0
    1.4828   -0.0919    0.0000 C    0  0  0  0  0  0  0  0  0  0  0  0
    1.3324   -1.5203    0.0000 C    0  0  0  0  0  0  0  0  0  0  0  0
    0.6683   -0.0042    0.0000 C    0  0  0  0  0  0  0  0  0  0  0  0
    0.5137   -1.4284    0.0000 C    0  0  0  0  0  0  0  0  0  0  0  0
    6.4655    4.2268    0.0000 C    0  0  0  0  0  0  0  0  0  0  0  0
    3.3497    3.2411    0.0000 C    0  0  0  0  0  0  0  0  0  0  0  0
  2  1  1  0  0  0  0
  3  1  1  0  0  0  0
  4  3  1  0  0  0  0
  5  2  1  0  0  0  0
  5  4  1  0  0  0  0
  6  4  2  0  0  0  0
  7  1  1  0  0  0  0
  8 27  1  0  0  0  0
  9  8  3  0  0  0  0
 10  2  2  0  0  0  0
 11 14  1  0  0  0  0
 12  3  2  0  0  0  0
 13  6  1  0  0  0  0
 14 13  2  0  0  0  0
 15 16  1  0  0  0  0
 15 11  2  0  0  0  0
 16 18  2  0  0  0  0
 17  7  1  0  0  0  0
 18 13  1  0  0  0  0
 19 26  1  0  0  0  0
 19 25  2  0  0  0  0
 20 11  1  0  0  0  0
 21 19  1  0  0  0  0
 22 15  1  0  0  0  0
 23 17  2  0  0  0  0
 24 17  1  0  0  0  0
 25 23  1  0  0  0  0
 26 24  2  0  0  0  0
 27 22  1  0  0  0  0
 28 20  1  0  0  0  0
M  END
> <CdId>
912

> <Mol Weight>
396.824

> <Formula>
C21H17ClN2O4

> <Click_ID>
CLK012_H07 __ __ 

$$$$
