CLK033_C03
 OpenBabel03181419432D

 26 28  0  0  0  0  0  0  0  0999 V2000
   -4.5776    2.5468    0.0000 C   0  0  0  0  0  0  0  0  0  0  0  0
   -3.8660    2.9671    0.0000 N   0  0  0  0  0  0  0  0  0  0  0  0
   -4.6692    1.7312    0.0000 N   0  0  0  0  0  0  0  0  0  0  0  0
   -5.3142    2.8922    0.0000 S   0  0  0  0  0  0  0  0  0  0  0  0
   -5.4765    1.5689    0.0000 C   0  0  0  0  0  0  0  0  0  0  0  0
   -5.8760    2.2930    0.0000 C   0  0  0  0  0  0  0  0  0  0  0  0
   -0.9863    3.8036    0.0000 N   0  3  0  0  0  0  0  0  0  0  0  0
   -3.8660    3.7953    0.0000 C   0  0  0  0  0  0  0  0  0  0  0  0
   -6.6959    2.3054    0.0000 C   0  0  0  0  0  0  0  0  0  0  0  0
   -1.7187    4.2073    0.0000 C   0  0  0  0  0  0  0  0  0  0  0  0
   -3.1544    4.2073    0.0000 C   0  0  0  0  0  0  0  0  0  0  0  0
   -4.2405    0.3496    0.0000 C   0  0  0  0  0  0  0  0  0  0  0  0
   -2.4345    3.8036    0.0000 C   0  0  0  0  0  0  0  0  0  0  0  0
   -4.4153   -0.4536    0.0000 C   0  0  0  0  0  0  0  0  0  0  0  0
   -5.9010    0.8697    0.0000 C   0  0  0  0  0  0  0  0  0  0  0  0
   -0.9946    2.9796    0.0000 O   0  5  0  0  0  0  0  0  0  0  0  0
   -0.2829    4.2115    0.0000 O   0  0  0  0  0  0  0  0  0  0  0  0
   -7.1204    1.5980    0.0000 C   0  0  0  0  0  0  0  0  0  0  0  0
   -4.5901    4.2073    0.0000 O   0  0  0  0  0  0  0  0  0  0  0  0
   -6.7084    0.8822    0.0000 C   0  0  0  0  0  0  0  0  0  0  0  0
   -4.0533    1.1611    0.0000 C   0  0  0  0  0  0  0  0  0  0  0  0
   -1.7187    5.0230    0.0000 C   0  0  0  0  0  0  0  0  0  0  0  0
   -7.0954    3.0295    0.0000 C   0  0  0  0  0  0  0  0  0  0  0  0
   -3.1461    5.0230    0.0000 C   0  0  0  0  0  0  0  0  0  0  0  0
   -2.4303    5.4433    0.0000 C   0  0  0  0  0  0  0  0  0  0  0  0
   -7.1079    0.1581    0.0000 C   0  0  0  0  0  0  0  0  0  0  0  0
  2  1  2  0  0  0  0
  3  1  1  0  0  0  0
  4  1  1  0  0  0  0
  5  3  1  0  0  0  0
  6  4  1  0  0  0  0
  6  5  2  0  0  0  0
  7 10  1  0  0  0  0
  8  2  1  0  0  0  0
  9  6  1  0  0  0  0
 10 13  1  0  0  0  0
 11  8  1  0  0  0  0
 12 21  1  0  0  0  0
 13 11  2  0  0  0  0
 14 12  3  0  0  0  0
 15  5  1  0  0  0  0
 16  7  1  0  0  0  0
 17  7  2  0  0  0  0
 18  9  2  0  0  0  0
 19  8  2  0  0  0  0
 20 15  2  0  0  0  0
 20 18  1  0  0  0  0
 21  3  1  0  0  0  0
 22 25  1  0  0  0  0
 22 10  2  0  0  0  0
 23  9  1  0  0  0  0
 24 11  1  0  0  0  0
 25 24  2  0  0  0  0
 26 20  1  0  0  0  0
M  END
> <CdId>
2507

> <Mol Weight>
365.406

> <Formula>
C19H15N3O3S

> <Click_ID>
CLK033_C03 __ __ 

$$$$
