CLK028_E09
 OpenBabel03181419432D

 29 32  0  0  0  0  0  0  0  0999 V2000
    1.9216    0.2131    0.0000 C    0  0  0  0  0  0  0  0  0  0  0  0
    2.4166   -0.4469    0.0000 C    0  0  0  0  0  0  0  0  0  0  0  0
    3.1934   -0.1753    0.0000 N    0  0  0  0  0  0  0  0  0  0  0  0
    2.3890    0.8834    0.0000 C    0  0  0  0  0  0  0  0  0  0  0  0
    3.1797    0.6462    0.0000 C    0  0  0  0  0  0  0  0  0  0  0  0
    1.1000    0.1994    0.0000 N    0  0  0  0  0  0  0  0  0  0  0  0
   -1.3990    1.5813    0.0000 C    0  0  0  0  0  0  0  0  0  0  0  0
   -1.8012    0.8559    0.0000 C    0  0  0  0  0  0  0  0  0  0  0  0
   -2.6332    0.8422    0.0000 C    0  0  0  0  0  0  0  0  0  0  0  0
    3.7985   -1.4678    0.0000 C    0  0  0  0  0  0  0  0  0  0  0  0
    0.6738    0.9075    0.0000 N    0  0  0  0  0  0  0  0  0  0  0  0
   -0.1512    0.8937    0.0000 C    0  0  0  0  0  0  0  0  0  0  0  0
    3.7193   -2.2894    0.0000 C    0  0  0  0  0  0  0  0  0  0  0  0
    2.1691   -1.2340    0.0000 O    0  0  0  0  0  0  0  0  0  0  0  0
   -0.5775    1.5950    0.0000 C    0  0  0  0  0  0  0  0  0  0  0  0
   -3.0525    1.5572    0.0000 C    0  0  0  0  0  0  0  0  0  0  0  0
    3.8707   -0.6532    0.0000 C    0  0  0  0  0  0  0  0  0  0  0  0
   -1.8253    2.2928    0.0000 C    0  0  0  0  0  0  0  0  0  0  0  0
   -0.5466    0.1718    0.0000 O    0  0  0  0  0  0  0  0  0  0  0  0
   -2.6538    2.2791    0.0000 C    0  0  0  0  0  0  0  0  0  0  0  0
   -3.8740    1.5434    0.0000 Br   0  0  0  0  0  0  0  0  0  0  0  0
    2.2103    1.6913    0.0000 C    0  0  0  0  0  0  0  0  0  0  0  0
    3.7847    1.2100    0.0000 C    0  0  0  0  0  0  0  0  0  0  0  0
   -1.3750    0.1512    0.0000 C    0  0  0  0  0  0  0  0  0  0  0  0
   -3.0319    0.1238    0.0000 C    0  0  0  0  0  0  0  0  0  0  0  0
    2.8085    2.2516    0.0000 C    0  0  0  0  0  0  0  0  0  0  0  0
    3.5956    2.0109    0.0000 C    0  0  0  0  0  0  0  0  0  0  0  0
   -1.7841   -0.5740    0.0000 C    0  0  0  0  0  0  0  0  0  0  0  0
   -2.6056   -0.5878    0.0000 C    0  0  0  0  0  0  0  0  0  0  0  0
  2  1  1  0  0  0  0
  3  2  1  0  0  0  0
  4  1  1  0  0  0  0
  5  4  2  0  0  0  0
  5  3  1  0  0  0  0
  6  1  2  0  0  0  0
  7 15  1  0  0  0  0
  8  7  1  0  0  0  0
  9  8  1  0  0  0  0
 10 17  1  0  0  0  0
 11  6  1  0  0  0  0
 12 11  1  0  0  0  0
 13 10  3  0  0  0  0
 14  2  2  0  0  0  0
 15 12  1  0  0  0  0
 16 20  2  0  0  0  0
 16  9  1  0  0  0  0
 17  3  1  0  0  0  0
 18  7  2  0  0  0  0
 19 12  2  0  0  0  0
 20 18  1  0  0  0  0
 21 16  1  0  0  0  0
 22  4  1  0  0  0  0
 23  5  1  0  0  0  0
 24  8  2  0  0  0  0
 25  9  2  0  0  0  0
 26 22  2  0  0  0  0
 27 26  1  0  0  0  0
 27 23  2  0  0  0  0
 28 24  1  0  0  0  0
 29 28  2  0  0  0  0
 29 25  1  0  0  0  0
M  END
> <CdId>
2133

> <Mol Weight>
446.296

> <Formula>
C23H16BrN3O2

> <Click_ID>
CLK028_E09 __ __ 

$$$$
