CLK012_D11
 OpenBabel03181419432D

 26 28  0  0  0  0  0  0  0  0999 V2000
    5.8411   -1.4966    0.0000 N   0  0  0  0  0  0  0  0  0  0  0  0
    5.7039   -2.3115    0.0000 C   0  0  0  0  0  0  0  0  0  0  0  0
    5.1052   -1.1142    0.0000 C   0  0  0  0  0  0  0  0  0  0  0  0
    4.5190   -1.7004    0.0000 C   0  0  0  0  0  0  0  0  0  0  0  0
    4.8890   -2.4362    0.0000 S   0  0  0  0  0  0  0  0  0  0  0  0
    3.7042   -1.5715    0.0000 C   0  0  0  0  0  0  0  0  0  0  0  0
    6.5727   -1.1225    0.0000 C   0  0  0  0  0  0  0  0  0  0  0  0
    6.2900   -2.8977    0.0000 S   0  0  0  0  0  0  0  0  0  0  0  0
    1.3761   -5.5542    0.0000 C   0  0  0  0  0  0  0  0  0  0  0  0
    0.8606   -6.1986    0.0000 C   0  0  0  0  0  0  0  0  0  0  0  0
    4.9763   -0.3035    0.0000 O   0  0  0  0  0  0  0  0  0  0  0  0
    3.1721   -2.2117    0.0000 C   0  0  0  0  0  0  0  0  0  0  0  0
    6.6143   -0.3035    0.0000 C   0  0  0  0  0  0  0  0  0  0  0  0
    2.1244   -3.5046    0.0000 C   0  0  0  0  0  0  0  0  0  0  0  0
    3.4672   -2.9850    0.0000 C   0  0  0  0  0  0  0  0  0  0  0  0
    2.3572   -2.0745    0.0000 C   0  0  0  0  0  0  0  0  0  0  0  0
    2.9476   -3.6211    0.0000 C   0  0  0  0  0  0  0  0  0  0  0  0
    1.8334   -2.7106    0.0000 C   0  0  0  0  0  0  0  0  0  0  0  0
    7.3502    0.0706    0.0000 C   0  0  0  0  0  0  0  0  0  0  0  0
    1.8957   -4.9139    0.0000 C   0  0  0  0  0  0  0  0  0  0  0  0
    1.6006   -4.1449    0.0000 O   0  0  0  0  0  0  0  0  0  0  0  0
    7.3876    0.8855    0.0000 C   0  0  0  0  0  0  0  0  0  0  0  0
    8.0361   -0.3866    0.0000 C   0  0  0  0  0  0  0  0  0  0  0  0
    8.1317    1.2555    0.0000 C   0  0  0  0  0  0  0  0  0  0  0  0
    8.7720   -0.0167    0.0000 C   0  0  0  0  0  0  0  0  0  0  0  0
    8.8177    0.8065    0.0000 C   0  0  0  0  0  0  0  0  0  0  0  0
  2  1  1  0  0  0  0
  3  1  1  0  0  0  0
  4  3  1  0  0  0  0
  5  2  1  0  0  0  0
  5  4  1  0  0  0  0
  6  4  2  0  0  0  0
  7  1  1  0  0  0  0
  8  2  2  0  0  0  0
  9 20  1  0  0  0  0
 10  9  3  0  0  0  0
 11  3  2  0  0  0  0
 12  6  1  0  0  0  0
 13  7  1  0  0  0  0
 14 18  2  0  0  0  0
 14 17  1  0  0  0  0
 15 12  1  0  0  0  0
 16 12  2  0  0  0  0
 17 15  2  0  0  0  0
 18 16  1  0  0  0  0
 19 13  1  0  0  0  0
 20 21  1  0  0  0  0
 21 14  1  0  0  0  0
 22 19  1  0  0  0  0
 23 19  2  0  0  0  0
 24 22  2  0  0  0  0
 25 23  1  0  0  0  0
 26 25  2  0  0  0  0
 26 24  1  0  0  0  0
M  END
> <CdId>
876

> <Mol Weight>
379.495

> <Formula>
C21H17NO2S2

> <Click_ID>
CLK012_D11 __ __ 

$$$$
