CLK039G02
 OpenBabel03181419432D

 18 19  0  0  0  0  0  0  0  0999 V2000
   -0.3958   -0.4333    0.0000 C   0  0  0  0  0  0  0  0  0  0  0  0
   -0.8833    0.2333    0.0000 N   0  0  0  0  0  0  0  0  0  0  0  0
   -0.8833   -1.1000    0.0000 N   0  0  0  0  0  0  0  0  0  0  0  0
   -1.6667   -0.8458    0.0000 C   0  0  0  0  0  0  0  0  0  0  0  0
   -1.6667   -0.0208    0.0000 C   0  0  0  0  0  0  0  0  0  0  0  0
    0.4292   -0.4333    0.0000 S   0  0  0  0  0  0  0  0  0  0  0  0
    3.3167    1.7083    0.0000 C   0  0  0  0  0  0  0  0  0  0  0  0
    3.7292    2.4250    0.0000 C   0  0  0  0  0  0  0  0  0  0  0  0
    1.6667    0.2792    0.0000 C   0  0  0  0  0  0  0  0  0  0  0  0
    2.0792   -0.4333    0.0000 O   0  0  0  0  0  0  0  0  0  0  0  0
    0.8417    0.2792    0.0000 C   0  0  0  0  0  0  0  0  0  0  0  0
    2.0792    0.9958    0.0000 N   0  0  0  0  0  0  0  0  0  0  0  0
   -0.6250   -1.8833    0.0000 C   0  0  0  0  0  0  0  0  0  0  0  0
    2.9042    0.9958    0.0000 C   0  0  0  0  0  0  0  0  0  0  0  0
   -2.3792   -1.2583    0.0000 C   0  0  0  0  0  0  0  0  0  0  0  0
   -2.3792    0.3917    0.0000 C   0  0  0  0  0  0  0  0  0  0  0  0
   -3.0958   -0.8458    0.0000 C   0  0  0  0  0  0  0  0  0  0  0  0
   -3.0958   -0.0208    0.0000 C   0  0  0  0  0  0  0  0  0  0  0  0
  2  1  2  0  0  0  0
  3  1  1  0  0  0  0
  4  3  1  0  0  0  0
  4  5  2  0  0  0  0
  5  2  1  0  0  0  0
  6  1  1  0  0  0  0
  7 14  1  0  0  0  0
  8  7  3  0  0  0  0
  9 11  1  0  0  0  0
 10  9  2  0  0  0  0
 11  6  1  0  0  0  0
 12  9  1  0  0  0  0
 13  3  1  0  0  0  0
 14 12  1  0  0  0  0
 15  4  1  0  0  0  0
 16  5  1  0  0  0  0
 17 15  2  0  0  0  0
 17 18  1  0  0  0  0
 18 16  2  0  0  0  0
M  END
> <CdId>
2935

> <Mol Weight>
259.327

> <Formula>
C13H13N3OS

> <Click_ID>
CLK039G02 __ __ 

$$$$
