CLK005_G04
 OpenBabel03181419432D

 22 23  0  0  0  0  0  0  0  0999 V2000
   -0.6666   -0.1891    0.0000 C   0  0  0  0  0  0  0  0  0  0  0  0
   -1.3655   -0.5920    0.0000 C   0  0  0  0  0  0  0  0  0  0  0  0
   -0.6666    0.6467    0.0000 C   0  0  0  0  0  0  0  0  0  0  0  0
    0.0547   -0.6069    0.0000 N   0  0  0  0  0  0  0  0  0  0  0  0
   -1.3655   -1.4078    0.0000 C   0  0  0  0  0  0  0  0  0  0  0  0
   -2.0719   -0.1891    0.0000 C   0  0  0  0  0  0  0  0  0  0  0  0
    0.0547    1.0596    0.0000 C   0  0  0  0  0  0  0  0  0  0  0  0
    0.7661   -0.1891    0.0000 C   0  0  0  0  0  0  0  0  0  0  0  0
   -2.0818   -1.8256    0.0000 C   0  0  0  0  0  0  0  0  0  0  0  0
   -2.7832   -0.5920    0.0000 C   0  0  0  0  0  0  0  0  0  0  0  0
    0.7661    0.6417    0.0000 C   0  0  0  0  0  0  0  0  0  0  0  0
    0.0547    1.8828    0.0000 C   0  0  0  0  0  0  0  0  0  0  0  0
    1.4974   -0.6143    0.0000 S   0  0  0  0  0  0  0  0  0  0  0  0
   -2.7832   -1.4078    0.0000 C   0  0  0  0  0  0  0  0  0  0  0  0
    1.4874    1.0596    0.0000 C   0  0  0  0  0  0  0  0  0  0  0  0
    0.8333    1.8729    0.0000 F   0  0  0  0  0  0  0  0  0  0  0  0
   -0.6044    1.8828    0.0000 F   0  0  0  0  0  0  0  0  0  0  0  0
    0.0547    2.7111    0.0000 F   0  0  0  0  0  0  0  0  0  0  0  0
    1.4874   -1.4575    0.0000 C   0  0  0  0  0  0  0  0  0  0  0  0
    2.2037    1.4700    0.0000 N   0  0  0  0  0  0  0  0  0  0  0  0
    2.2037   -1.8680    0.0000 C   0  0  0  0  0  0  0  0  0  0  0  0
    2.9201   -2.2858    0.0000 C   0  0  0  0  0  0  0  0  0  0  0  0
  1  2  1  0  0  0  0
  1  3  1  0  0  0  0
  1  4  2  0  0  0  0
  2  5  2  0  0  0  0
  2  6  1  0  0  0  0
  3  7  2  0  0  0  0
  4  8  1  0  0  0  0
  5  9  1  0  0  0  0
  6 10  2  0  0  0  0
  7 11  1  0  0  0  0
  7 12  1  0  0  0  0
  8 13  1  0  0  0  0
  8 11  2  0  0  0  0
  9 14  2  0  0  0  0
 10 14  1  0  0  0  0
 11 15  1  0  0  0  0
 12 16  1  0  0  0  0
 12 17  1  0  0  0  0
 12 18  1  0  0  0  0
 13 19  1  0  0  0  0
 15 20  3  0  0  0  0
 19 21  1  0  0  0  0
 21 22  3  0  0  0  0
M  END
> <CdId>
383

> <Mol Weight>
318.316

> <Formula>
C16H9F3N2S

> <Click_ID>
CLK005_G04 __ __ 

$$$$
