CLK006_B04
 OpenBabel03181419432D

 19 21  0  0  0  0  0  0  0  0999 V2000
    0.1474    0.4045    0.0000 C    0  0  0  0  0  0  0  0  0  0  0  0
   -0.3359   -0.2674    0.0000 N    0  0  0  0  0  0  0  0  0  0  0  0
    0.9736    0.4148    0.0000 C    0  0  0  0  0  0  0  0  0  0  0  0
   -0.3496    1.0730    0.0000 N    0  0  0  0  0  0  0  0  0  0  0  0
   -1.1244   -0.0206    0.0000 C    0  0  0  0  0  0  0  0  0  0  0  0
    0.0788   -0.9736    0.0000 C    0  0  0  0  0  0  0  0  0  0  0  0
    1.3918   -0.2982    0.0000 C    0  0  0  0  0  0  0  0  0  0  0  0
    1.3747    1.1244    0.0000 C    0  0  0  0  0  0  0  0  0  0  0  0
   -1.1312    0.8056    0.0000 C    0  0  0  0  0  0  0  0  0  0  0  0
   -1.8409   -0.4320    0.0000 C    0  0  0  0  0  0  0  0  0  0  0  0
   -0.3325   -1.6901    0.0000 C    0  0  0  0  0  0  0  0  0  0  0  0
    2.2146   -0.2880    0.0000 C    0  0  0  0  0  0  0  0  0  0  0  0
    0.9873   -1.0147    0.0000 Cl   0  0  0  0  0  0  0  0  0  0  0  0
    2.1974    1.1347    0.0000 C    0  0  0  0  0  0  0  0  0  0  0  0
   -1.8409    1.2204    0.0000 C    0  0  0  0  0  0  0  0  0  0  0  0
   -2.5540   -0.0171    0.0000 C    0  0  0  0  0  0  0  0  0  0  0  0
    0.0788   -2.4031    0.0000 C    0  0  0  0  0  0  0  0  0  0  0  0
    2.6156    0.4216    0.0000 C    0  0  0  0  0  0  0  0  0  0  0  0
   -2.5540    0.8056    0.0000 C    0  0  0  0  0  0  0  0  0  0  0  0
  1  2  1  0  0  0  0
  1  3  1  0  0  0  0
  1  4  2  0  0  0  0
  2  5  1  0  0  0  0
  2  6  1  0  0  0  0
  3  7  2  0  0  0  0
  3  8  1  0  0  0  0
  4  9  1  0  0  0  0
  5 10  2  0  0  0  0
  5  9  1  0  0  0  0
  6 11  1  0  0  0  0
  7 12  1  0  0  0  0
  7 13  1  0  0  0  0
  8 14  2  0  0  0  0
  9 15  2  0  0  0  0
 10 16  1  0  0  0  0
 11 17  3  0  0  0  0
 12 18  2  0  0  0  0
 14 18  1  0  0  0  0
 15 19  1  0  0  0  0
 16 19  2  0  0  0  0
M  END
> <CdId>
413

> <Mol Weight>
266.725

> <Formula>
C16H11ClN2

> <Click_ID>
CLK006_B04 __ __ 

$$$$
