CLK014_A10
 OpenBabel03181419432D

 25 26  0  0  0  0  0  0  0  0999 V2000
    5.4824   -0.3896    0.0000 N    0  0  0  0  0  0  0  0  0  0  0  0
    5.3498   -1.2059    0.0000 C    0  0  0  0  0  0  0  0  0  0  0  0
    4.7489   -0.0166    0.0000 C    0  0  0  0  0  0  0  0  0  0  0  0
    4.1646   -0.6009    0.0000 C    0  0  0  0  0  0  0  0  0  0  0  0
    4.5376   -1.3344    0.0000 S    0  0  0  0  0  0  0  0  0  0  0  0
    3.3566   -0.4642    0.0000 C    0  0  0  0  0  0  0  0  0  0  0  0
    1.7819   -2.3911    0.0000 C    0  0  0  0  0  0  0  0  0  0  0  0
    1.4918   -1.6079    0.0000 C    0  0  0  0  0  0  0  0  0  0  0  0
    2.6024   -2.5154    0.0000 C    0  0  0  0  0  0  0  0  0  0  0  0
    2.8262   -1.1106    0.0000 C    0  0  0  0  0  0  0  0  0  0  0  0
    5.9299   -1.7902    0.0000 S    0  0  0  0  0  0  0  0  0  0  0  0
    1.0360   -4.4423    0.0000 C    0  0  0  0  0  0  0  0  0  0  0  0
    0.5139   -5.0763    0.0000 C    0  0  0  0  0  0  0  0  0  0  0  0
    2.0057   -0.9739    0.0000 C    0  0  0  0  0  0  0  0  0  0  0  0
    4.6246    0.7915    0.0000 O    0  0  0  0  0  0  0  0  0  0  0  0
    3.1204   -1.8814    0.0000 C    0  0  0  0  0  0  0  0  0  0  0  0
    6.2159   -0.0249    0.0000 C    0  0  0  0  0  0  0  0  0  0  0  0
    0.6755   -1.4794    0.0000 Cl   0  0  0  0  0  0  0  0  0  0  0  0
    1.2598   -3.0333    0.0000 O    0  0  0  0  0  0  0  0  0  0  0  0
    2.8883   -3.2820    0.0000 O    0  0  0  0  0  0  0  0  0  0  0  0
    1.5540   -3.7959    0.0000 C    0  0  0  0  0  0  0  0  0  0  0  0
    7.6331   -0.1036    0.0000 O    0  0  0  0  0  0  0  0  0  0  0  0
    6.9038   -0.4724    0.0000 C    0  0  0  0  0  0  0  0  0  0  0  0
    3.7088   -3.4187    0.0000 C    0  0  0  0  0  0  0  0  0  0  0  0
    8.3210   -0.5512    0.0000 C    0  0  0  0  0  0  0  0  0  0  0  0
  2  1  1  0  0  0  0
  3  1  1  0  0  0  0
  4  3  1  0  0  0  0
  5  2  1  0  0  0  0
  5  4  1  0  0  0  0
  6  4  2  0  0  0  0
  7  9  1  0  0  0  0
  7  8  2  0  0  0  0
  8 14  1  0  0  0  0
  9 16  2  0  0  0  0
 10  6  1  0  0  0  0
 11  2  2  0  0  0  0
 12 21  1  0  0  0  0
 13 12  3  0  0  0  0
 14 10  2  0  0  0  0
 15  3  2  0  0  0  0
 16 10  1  0  0  0  0
 17  1  1  0  0  0  0
 18  8  1  0  0  0  0
 19  7  1  0  0  0  0
 20  9  1  0  0  0  0
 21 19  1  0  0  0  0
 22 23  1  0  0  0  0
 23 17  1  0  0  0  0
 24 20  1  0  0  0  0
 25 22  1  0  0  0  0
M  END
> <CdId>
1005

> <Mol Weight>
397.896

> <Formula>
C17H16ClNO4S2

> <Click_ID>
CLK014_A10 __ __ 

$$$$
