CLK002_A07
 OpenBabel03181419432D

 18 19  0  0  0  0  0  0  0  0999 V2000
    0.0341    0.0379    0.0000 C   0  0  3  0  0  0  0  0  0  0  0  0
   -0.1365    0.8533    0.0000 C   0  0  0  0  0  0  0  0  0  0  0  0
   -0.5764   -0.5347    0.0000 C   0  0  3  0  0  0  0  0  0  0  0  0
    0.8418   -0.2086    0.0000 O   0  0  0  0  0  0  0  0  0  0  0  0
   -0.9177    1.0997    0.0000 C   0  0  0  0  0  0  0  0  0  0  0  0
    0.4551    1.4296    0.0000 C   0  0  0  0  0  0  0  0  0  0  0  0
   -0.3792   -1.3197    0.0000 C   0  0  0  0  0  0  0  0  0  0  0  0
   -1.3993   -0.2616    0.0000 C   0  0  0  0  0  0  0  0  0  0  0  0
    1.0049   -1.0163    0.0000 C   0  0  3  0  0  0  0  0  0  0  0  0
   -1.1186    1.8999    0.0000 C   0  0  0  0  0  0  0  0  0  0  0  0
    0.2692    2.2298    0.0000 C   0  0  0  0  0  0  0  0  0  0  0  0
    0.3906   -1.5776    0.0000 C   0  0  0  0  0  0  0  0  0  0  0  0
   -1.5472    0.5347    0.0000 C   0  0  0  0  0  0  0  0  0  0  0  0
   -1.9871   -0.8115    0.0000 C   0  0  0  0  0  0  0  0  0  0  0  0
    1.7899   -1.2514    0.0000 C   0  0  0  0  0  0  0  0  0  0  0  0
    1.2286   -2.0743    0.0000 C   0  0  0  0  0  0  0  0  0  0  0  0
   -0.5195    2.4725    0.0000 C   0  0  0  0  0  0  0  0  0  0  0  0
    2.5635   -1.5017    0.0000 C   0  0  0  0  0  0  0  0  0  0  0  0
  1  2  1  0  0  0  0
  1  3  1  0  0  0  0
  1  4  1  0  0  0  0
  2  5  1  0  0  0  0
  2  6  2  0  0  0  0
  3  7  1  0  0  0  0
  3  8  1  0  0  0  0
  4  9  1  0  0  0  0
  5 10  2  0  0  0  0
  6 11  1  0  0  0  0
  7 12  1  0  0  0  0
  8 13  1  0  0  0  0
  8 14  2  0  0  0  0
  9 15  1  0  0  0  0
  9 16  1  0  0  0  0
  9 12  1  0  0  0  0
 10 17  1  0  0  0  0
 11 17  2  0  0  0  0
 15 18  3  0  0  0  0
M  END
> <CdId>
86

> <Mol Weight>
240.3401

> <Formula>
C17H20O

> <Click_ID>
CLK002_A07 __ __ 

$$$$
