CLK015_E04
 OpenBabel03181419432D

 28 30  0  0  0  0  0  0  0  0999 V2000
    2.1099   -0.2289    0.0000 N   0  0  0  0  0  0  0  0  0  0  0  0
    2.3595   -1.0154    0.0000 C   0  0  0  0  0  0  0  0  0  0  0  0
    3.4374   -0.2289    0.0000 C   0  0  0  0  0  0  0  0  0  0  0  0
    2.7715    0.2580    0.0000 C   0  0  0  0  0  0  0  0  0  0  0  0
    5.0604    1.9808    0.0000 N   0  0  0  0  0  0  0  0  0  0  0  0
    4.3945    0.8323    0.0000 C   0  0  0  0  0  0  0  0  0  0  0  0
    7.4948    4.1448    0.0000 S   0  0  0  0  0  0  0  0  0  0  0  0
    3.1835   -1.0154    0.0000 S   0  0  0  0  0  0  0  0  0  0  0  0
    4.2572    2.1598    0.0000 C   0  0  0  0  0  0  0  0  0  0  0  0
    5.1477    1.1693    0.0000 C   0  0  0  0  0  0  0  0  0  0  0  0
    4.2239    0.0250    0.0000 C   0  0  0  0  0  0  0  0  0  0  0  0
    3.8369    1.4440    0.0000 C   0  0  0  0  0  0  0  0  0  0  0  0
    6.9080    3.6287    0.0000 C   0  0  0  0  0  0  0  0  0  0  0  0
    5.6804    2.5301    0.0000 C   0  0  0  0  0  0  0  0  0  0  0  0
    0.7116   -0.5285    0.0000 C   0  0  0  0  0  0  0  0  0  0  0  0
    0.1248   -1.1111    0.0000 C   0  0  0  0  0  0  0  0  0  0  0  0
    8.2522    3.9034    0.0000 O   0  0  0  0  0  0  0  0  0  0  0  0
    7.3408    4.9230    0.0000 O   0  0  0  0  0  0  0  0  0  0  0  0
    1.8768   -1.6771    0.0000 O   0  0  0  0  0  0  0  0  0  0  0  0
    2.7715    1.0819    0.0000 O   0  0  0  0  0  0  0  0  0  0  0  0
    7.8568    3.4415    0.0000 N   0  0  0  0  0  0  0  0  0  0  0  0
    1.3275    0.0250    0.0000 C   0  0  0  0  0  0  0  0  0  0  0  0
    6.1215    3.8784    0.0000 C   0  0  0  0  0  0  0  0  0  0  0  0
    7.0703    2.8173    0.0000 C   0  0  0  0  0  0  0  0  0  0  0  0
    5.5098    3.3291    0.0000 C   0  0  0  0  0  0  0  0  0  0  0  0
    6.4586    2.2722    0.0000 C   0  0  0  0  0  0  0  0  0  0  0  0
    3.9243    2.9089    0.0000 C   0  0  0  0  0  0  0  0  0  0  0  0
    5.8594    0.7574    0.0000 C   0  0  0  0  0  0  0  0  0  0  0  0
  2  1  1  0  0  0  0
  3  4  1  0  0  0  0
  3  8  1  0  0  0  0
  4  1  1  0  0  0  0
  5 10  1  0  0  0  0
  5  9  1  0  0  0  0
  6 11  1  0  0  0  0
  7 13  1  0  0  0  0
  8  2  1  0  0  0  0
  9 12  2  0  0  0  0
 10  6  2  0  0  0  0
 11  3  2  0  0  0  0
 12  6  1  0  0  0  0
 13 24  2  0  0  0  0
 13 23  1  0  0  0  0
 14  5  1  0  0  0  0
 15 22  1  0  0  0  0
 16 15  3  0  0  0  0
 17  7  2  0  0  0  0
 18  7  2  0  0  0  0
 19  2  2  0  0  0  0
 20  4  2  0  0  0  0
 21  7  1  0  0  0  0
 22  1  1  0  0  0  0
 23 25  2  0  0  0  0
 24 26  1  0  0  0  0
 25 14  1  0  0  0  0
 26 14  2  0  0  0  0
 27  9  1  0  0  0  0
 28 10  1  0  0  0  0
M  END
> <CdId>
1119

> <Mol Weight>
415.486

> <Formula>
C19H17N3O4S2

> <Click_ID>
CLK015_E04 __ __ 

$$$$
