CLK014_A07
 OpenBabel03181419432D

 25 27  0  0  0  0  0  0  0  0999 V2000
    0.6125    0.0750    0.0000 C   0  0  0  0  0  0  0  0  0  0  0  0
    0.3542   -0.7125    0.0000 C   0  0  0  0  0  0  0  0  0  0  0  0
   -0.0583    0.5583    0.0000 C   0  0  0  0  0  0  0  0  0  0  0  0
   -0.4708   -0.7125    0.0000 C   0  0  0  0  0  0  0  0  0  0  0  0
   -0.7250    0.0750    0.0000 C   0  0  0  0  0  0  0  0  0  0  0  0
    1.4000    0.3333    0.0000 C   0  0  0  0  0  0  0  0  0  0  0  0
    1.9125    2.7583    0.0000 C   0  0  0  0  0  0  0  0  0  0  0  0
    2.5167    2.2083    0.0000 C   0  0  0  0  0  0  0  0  0  0  0  0
    1.1292    2.5083    0.0000 C   0  0  0  0  0  0  0  0  0  0  0  0
    1.5667    1.1458    0.0000 C   0  0  0  0  0  0  0  0  0  0  0  0
    3.0667    4.6167    0.0000 C   0  0  0  0  0  0  0  0  0  0  0  0
    3.2417    5.4167    0.0000 C   0  0  0  0  0  0  0  0  0  0  0  0
    2.3500    1.3958    0.0000 C   0  0  0  0  0  0  0  0  0  0  0  0
    0.9500    1.7000    0.0000 C   0  0  0  0  0  0  0  0  0  0  0  0
   -0.0583    1.3833    0.0000 O   0  0  0  0  0  0  0  0  0  0  0  0
    0.8417   -1.3792    0.0000 O   0  0  0  0  0  0  0  0  0  0  0  0
    3.3125    2.4583    0.0000 I   0  0  0  0  0  0  0  0  0  0  0  0
    2.0917    3.5708    0.0000 O   0  0  0  0  0  0  0  0  0  0  0  0
    0.5250    3.0625    0.0000 O   0  0  0  0  0  0  0  0  0  0  0  0
   -1.0208   -1.3250    0.0000 C   0  0  0  0  0  0  0  0  0  0  0  0
   -1.5250    0.2458    0.0000 C   0  0  0  0  0  0  0  0  0  0  0  0
    2.8875    3.8125    0.0000 C   0  0  0  0  0  0  0  0  0  0  0  0
   -0.2500    2.8125    0.0000 C   0  0  0  0  0  0  0  0  0  0  0  0
   -1.8250   -1.1500    0.0000 C   0  0  0  0  0  0  0  0  0  0  0  0
   -2.0833   -0.3667    0.0000 C   0  0  0  0  0  0  0  0  0  0  0  0
  2  1  1  0  0  0  0
  3  1  1  0  0  0  0
  4  2  1  0  0  0  0
  4  5  2  0  0  0  0
  5  3  1  0  0  0  0
  6  1  2  0  0  0  0
  7  9  2  0  0  0  0
  7  8  1  0  0  0  0
  8 13  2  0  0  0  0
  9 14  1  0  0  0  0
 10  6  1  0  0  0  0
 11 22  1  0  0  0  0
 12 11  3  0  0  0  0
 13 10  1  0  0  0  0
 14 10  2  0  0  0  0
 15  3  2  0  0  0  0
 16  2  2  0  0  0  0
 17  8  1  0  0  0  0
 18  7  1  0  0  0  0
 19  9  1  0  0  0  0
 20  4  1  0  0  0  0
 21  5  1  0  0  0  0
 22 18  1  0  0  0  0
 23 19  1  0  0  0  0
 24 20  2  0  0  0  0
 25 21  2  0  0  0  0
 25 24  1  0  0  0  0
M  END
> <CdId>
1002

> <Mol Weight>
444.2193

> <Formula>
C20H13IO4

> <Click_ID>
CLK014_A07 __ __ 

$$$$
