CLK021_A07
 OpenBabel03181419432D

 21 23  0  0  0  0  0  0  0  0999 V2000
    4.7182    1.9102    0.0000 C   0  0  0  0  0  0  0  0  0  0  0  0
    4.8007    2.7301    0.0000 N   0  0  0  0  0  0  0  0  0  0  0  0
    5.4741    1.5758    0.0000 N   0  0  0  0  0  0  0  0  0  0  0  0
    6.0238    2.1850    0.0000 C   0  0  0  0  0  0  0  0  0  0  0  0
    5.6115    2.9043    0.0000 C   0  0  0  0  0  0  0  0  0  0  0  0
    6.4223    0.5176    0.0000 C   0  0  0  0  0  0  0  0  0  0  0  0
    7.2147    0.2565    0.0000 C   0  0  0  0  0  0  0  0  0  0  0  0
    4.0036    1.4979    0.0000 C   0  0  0  0  0  0  0  0  0  0  0  0
    5.6390    0.7650    0.0000 C   0  0  0  0  0  0  0  0  0  0  0  0
    3.2890    1.9102    0.0000 C   0  0  0  0  0  0  0  0  0  0  0  0
    1.8598    2.7347    0.0000 C   0  0  0  0  0  0  0  0  0  0  0  0
    2.5744    1.4979    0.0000 C   0  0  0  0  0  0  0  0  0  0  0  0
    3.2890    2.7347    0.0000 C   0  0  0  0  0  0  0  0  0  0  0  0
    2.5744    3.1470    0.0000 C   0  0  0  0  0  0  0  0  0  0  0  0
    1.8598    1.9102    0.0000 C   0  0  0  0  0  0  0  0  0  0  0  0
    6.8483    2.1850    0.0000 C   0  0  0  0  0  0  0  0  0  0  0  0
    1.1452    3.1470    0.0000 O   0  0  0  0  0  0  0  0  0  0  0  0
    6.0238    3.6189    0.0000 C   0  0  0  0  0  0  0  0  0  0  0  0
    0.4306    2.7347    0.0000 C   0  0  0  0  0  0  0  0  0  0  0  0
    7.2606    2.9043    0.0000 C   0  0  0  0  0  0  0  0  0  0  0  0
    6.8483    3.6189    0.0000 C   0  0  0  0  0  0  0  0  0  0  0  0
  2  1  2  0  0  0  0
  3  1  1  0  0  0  0
  4  3  1  0  0  0  0
  5  2  1  0  0  0  0
  5  4  1  0  0  0  0
  6  9  1  0  0  0  0
  7  6  3  0  0  0  0
  8  1  1  0  0  0  0
  9  3  1  0  0  0  0
 10  8  1  0  0  0  0
 11 14  1  0  0  0  0
 12 10  2  0  0  0  0
 13 10  1  0  0  0  0
 14 13  2  0  0  0  0
 15 12  1  0  0  0  0
 15 11  2  0  0  0  0
 16  4  2  0  0  0  0
 17 11  1  0  0  0  0
 18  5  2  0  0  0  0
 19 17  1  0  0  0  0
 20 16  1  0  0  0  0
 21 18  1  0  0  0  0
 21 20  2  0  0  0  0
M  END
> <CdId>
1562

> <Mol Weight>
276.3324

> <Formula>
C18H16N2O

> <Click_ID>
CLK021_A07 __ __ 

$$$$
