CLK035_A03
 OpenBabel03181419432D

 25 27  0  0  0  0  0  0  0  0999 V2000
   -4.5848    2.5508    0.0000 C    0  0  0  0  0  0  0  0  0  0  0  0
   -3.8720    2.9717    0.0000 N    0  0  0  0  0  0  0  0  0  0  0  0
   -4.6765    1.7339    0.0000 N    0  0  0  0  0  0  0  0  0  0  0  0
   -5.3225    2.8967    0.0000 S    0  0  0  0  0  0  0  0  0  0  0  0
   -3.8720    3.8012    0.0000 C    0  0  0  0  0  0  0  0  0  0  0  0
   -3.8720    5.4434    0.0000 N    0  0  0  0  0  0  0  0  0  0  0  0
   -5.4851    1.5713    0.0000 C    0  0  0  0  0  0  0  0  0  0  0  0
   -3.1593    4.2138    0.0000 C    0  0  0  0  0  0  0  0  0  0  0  0
   -5.8852    2.2965    0.0000 C    0  0  0  0  0  0  0  0  0  0  0  0
   -3.1510    5.0308    0.0000 C    0  0  0  0  0  0  0  0  0  0  0  0
   -4.2472    0.3501    0.0000 C    0  0  0  0  0  0  0  0  0  0  0  0
   -4.4222   -0.4543    0.0000 C    0  0  0  0  0  0  0  0  0  0  0  0
   -3.8762    6.2687    0.0000 O    0  0  0  0  0  0  0  0  0  0  0  0
   -4.5848    5.0266    0.0000 O    0  0  0  0  0  0  0  0  0  0  0  0
   -5.9102    0.8711    0.0000 C    0  0  0  0  0  0  0  0  0  0  0  0
   -4.5973    4.2138    0.0000 O    0  0  0  0  0  0  0  0  0  0  0  0
   -4.0596    1.1587    0.0000 C    0  0  0  0  0  0  0  0  0  0  0  0
   -5.5101    0.1458    0.0000 Cl   0  0  0  0  0  0  0  0  0  0  0  0
   -2.4341    3.8012    0.0000 C    0  0  0  0  0  0  0  0  0  0  0  0
   -6.7063    2.3090    0.0000 C    0  0  0  0  0  0  0  0  0  0  0  0
   -2.4383    5.4434    0.0000 C    0  0  0  0  0  0  0  0  0  0  0  0
   -7.1315    1.6005    0.0000 C    0  0  0  0  0  0  0  0  0  0  0  0
   -6.7188    0.8753    0.0000 C    0  0  0  0  0  0  0  0  0  0  0  0
   -1.7214    4.2055    0.0000 C    0  0  0  0  0  0  0  0  0  0  0  0
   -1.7214    5.0308    0.0000 C    0  0  0  0  0  0  0  0  0  0  0  0
  2  1  2  0  0  0  0
  3  1  1  0  0  0  0
  4  1  1  0  0  0  0
  5  2  1  0  0  0  0
  6 10  1  0  0  0  0
  7  3  1  0  0  0  0
  8  5  1  0  0  0  0
  9  4  1  0  0  0  0
  9  7  2  0  0  0  0
 10  8  1  0  0  0  0
 11 17  1  0  0  0  0
 12 11  3  0  0  0  0
 13  6  1  0  0  0  0
 14  6  2  0  0  0  0
 15  7  1  0  0  0  0
 16  5  2  0  0  0  0
 17  3  1  0  0  0  0
 18 15  1  0  0  0  0
 19  8  2  0  0  0  0
 20  9  1  0  0  0  0
 21 10  2  0  0  0  0
 21 25  1  0  0  0  0
 22 20  2  0  0  0  0
 23 15  2  0  0  0  0
 23 22  1  0  0  0  0
 24 19  1  0  0  0  0
 25 24  2  0  0  0  0
M  END
> <CdId>
2647

> <Mol Weight>
371.798

> <Formula>
C17H10ClN3O3S

> <Click_ID>
CLK035_A03 __ __ 

$$$$
