CLK050H03
 OpenBabel03181419432D

 17 17  0  0  0  0  0  0  0  0999 V2000
    0.9625   -1.7208    0.0000 C   0  0  0  0  0  0  0  0  0  0  0  0
    1.6792   -3.7833    0.0000 C   0  0  0  0  0  0  0  0  0  0  0  0
    1.6792   -4.6083    0.0000 C   0  0  0  0  0  0  0  0  0  0  0  0
    1.6792   -1.3083    0.0000 O   0  0  0  0  0  0  0  0  0  0  0  0
    0.9625   -2.5458    0.0000 N   0  0  0  0  0  0  0  0  0  0  0  0
    0.2500   -1.3083    0.0000 N   0  0  0  0  0  0  0  0  0  0  0  0
   -0.4625    0.7542    0.0000 S   0  0  0  0  0  0  0  0  0  0  0  0
    1.6792   -2.9583    0.0000 C   0  0  0  0  0  0  0  0  0  0  0  0
   -1.1792    1.9917    0.0000 C   0  0  0  0  0  0  0  0  0  0  0  0
   -1.1792    1.1667    0.0000 C   0  0  0  0  0  0  0  0  0  0  0  0
    0.2500   -0.4833    0.0000 C   0  0  0  0  0  0  0  0  0  0  0  0
   -0.4625   -0.0708    0.0000 C   0  0  0  0  0  0  0  0  0  0  0  0
   -0.4625    2.4042    0.0000 C   0  0  0  0  0  0  0  0  0  0  0  0
   -1.8917    2.4042    0.0000 C   0  0  0  0  0  0  0  0  0  0  0  0
   -1.8917    3.2292    0.0000 C   0  0  0  0  0  0  0  0  0  0  0  0
   -0.4625    3.2292    0.0000 C   0  0  0  0  0  0  0  0  0  0  0  0
   -1.1792    3.6417    0.0000 C   0  0  0  0  0  0  0  0  0  0  0  0
  2  8  1  0  0  0  0
  3  2  3  0  0  0  0
  4  1  2  0  0  0  0
  5  1  1  0  0  0  0
  6  1  1  0  0  0  0
  7 12  1  0  0  0  0
  8  5  1  0  0  0  0
  9 10  1  0  0  0  0
 10  7  1  0  0  0  0
 11  6  1  0  0  0  0
 12 11  1  0  0  0  0
 13  9  1  0  0  0  0
 14  9  2  0  0  0  0
 15 14  1  0  0  0  0
 16 13  2  0  0  0  0
 17 15  2  0  0  0  0
 17 16  1  0  0  0  0
M  END
> <CdId>
3824

> <Mol Weight>
248.344

> <Formula>
C13H16N2OS

> <Click_ID>
CLK050H03 __ __ 

$$$$
