CLK001_H10
 OpenBabel03181419432D

 32 36  0  0  0  0  0  0  0  0999 V2000
   -1.4575   -0.5550    0.0000 C   0  0  0  0  0  0  0  0  0  0  0  0
   -0.7675   -0.1625    0.0000 C   0  0  0  0  0  0  0  0  0  0  0  0
   -2.1901   -0.1625    0.0000 C   0  0  0  0  0  0  0  0  0  0  0  0
   -0.7675   -0.9825    0.0000 C   0  0  0  0  0  0  0  0  0  0  0  0
   -2.1550   -0.9825    0.0000 C   0  0  0  0  0  0  0  0  0  0  0  0
   -0.7675    0.7075    0.0000 C   0  0  0  0  0  0  0  0  0  0  0  0
   -0.0425   -0.5550    0.0000 C   0  0  0  0  0  0  0  0  0  0  0  0
   -2.1901    0.7075    0.0000 C   0  0  0  0  0  0  0  0  0  0  0  0
   -0.7675   -1.8250    0.0000 C   0  0  0  0  0  0  0  0  0  0  0  0
   -2.1550   -1.8250    0.0000 C   0  0  0  0  0  0  0  0  0  0  0  0
   -1.4650    1.0925    0.0000 C   0  0  0  0  0  0  0  0  0  0  0  0
   -0.0425    1.0925    0.0000 N   0  0  0  0  0  0  0  0  0  0  0  0
    0.7050   -0.1625    0.0000 N   0  0  0  0  0  0  0  0  0  0  0  0
   -0.0425   -1.4050    0.0000 O   0  0  0  0  0  0  0  0  0  0  0  0
   -2.8901    1.0925    0.0000 C   0  0  0  0  0  0  0  0  0  0  0  0
   -1.4050   -2.1775    0.0000 C   0  0  0  0  0  0  0  0  0  0  0  0
   -1.4650    1.9175    0.0000 C   0  0  0  0  0  0  0  0  0  0  0  0
    0.7050    0.7075    0.0000 C   0  0  0  0  0  0  0  0  0  0  0  0
    1.4150   -0.5725    0.0000 C   0  0  0  0  0  0  0  0  0  0  0  0
   -2.8901    1.9175    0.0000 C   0  0  0  0  0  0  0  0  0  0  0  0
   -2.1901    2.3375    0.0000 C   0  0  0  0  0  0  0  0  0  0  0  0
    1.4150    1.1576    0.0000 S   0  0  0  0  0  0  0  0  0  0  0  0
    2.1476   -0.1625    0.0000 C   0  0  0  0  0  0  0  0  0  0  0  0
    1.4300   -1.3950    0.0000 C   0  0  0  0  0  0  0  0  0  0  0  0
    1.4150    2.0176    0.0000 C   0  0  0  0  0  0  0  0  0  0  0  0
    2.8726   -0.5725    0.0000 C   0  0  0  0  0  0  0  0  0  0  0  0
    2.1400   -1.8400    0.0000 C   0  0  0  0  0  0  0  0  0  0  0  0
    0.6975    2.4100    0.0000 C   0  0  0  0  0  0  0  0  0  0  0  0
    2.8651   -1.4076    0.0000 C   0  0  0  0  0  0  0  0  0  0  0  0
   -0.0075    2.8151    0.0000 C   0  0  0  0  0  0  0  0  0  0  0  0
    3.5726   -1.8150    0.0000 O   0  0  0  0  0  0  0  0  0  0  0  0
    4.2801   -1.4050    0.0000 C   0  0  0  0  0  0  0  0  0  0  0  0
  1  2  1  0  0  0  0
  1  3  1  0  0  0  0
  1  4  1  0  0  0  0
  1  5  1  0  0  0  0
  2  6  2  0  0  0  0
  2  7  1  0  0  0  0
  3  8  1  0  0  0  0
  4  9  1  0  0  0  0
  5 10  1  0  0  0  0
  6 11  1  0  0  0  0
  6 12  1  0  0  0  0
  7 13  1  0  0  0  0
  7 14  2  0  0  0  0
  8 15  2  0  0  0  0
  8 11  1  0  0  0  0
  9 16  1  0  0  0  0
 10 16  1  0  0  0  0
 11 17  2  0  0  0  0
 12 18  2  0  0  0  0
 13 19  1  0  0  0  0
 13 18  1  0  0  0  0
 15 20  1  0  0  0  0
 17 21  1  0  0  0  0
 18 22  1  0  0  0  0
 19 23  2  0  0  0  0
 19 24  1  0  0  0  0
 20 21  2  0  0  0  0
 22 25  1  0  0  0  0
 23 26  1  0  0  0  0
 24 27  2  0  0  0  0
 25 28  1  0  0  0  0
 26 29  2  0  0  0  0
 27 29  1  0  0  0  0
 28 30  3  0  0  0  0
 29 31  1  0  0  0  0
 31 32  1  0  0  0  0
M  END
> <CdId>
79

> <Mol Weight>
442.573

> <Formula>
C27H26N2O2S

> <Click_ID>
CLK001_H10 __ __ 

$$$$
