CLK021_C04
 OpenBabel03181419432D

 28 31  0  0  0  0  0  0  0  0999 V2000
    2.1312    1.7737    0.0000 C    0  0  3  0  0  0  0  0  0  0  0  0
    2.7959    1.2879    0.0000 C    0  0  0  0  0  0  0  0  0  0  0  0
    2.3834    2.5621    0.0000 C    0  0  0  0  0  0  0  0  0  0  0  0
    3.4650    1.7737    0.0000 N    0  0  0  0  0  0  0  0  0  0  0  0
    3.2084    2.5621    0.0000 C    0  0  0  0  0  0  0  0  0  0  0  0
    1.3750    2.1129    0.0000 C    0  0  0  0  0  0  0  0  0  0  0  0
    0.8021    1.5216    0.0000 C    0  0  0  0  0  0  0  0  0  0  0  0
    0.0000    1.7141    0.0000 C    0  0  0  0  0  0  0  0  0  0  0  0
   -1.3704    1.3200    0.0000 C    0  0  0  0  0  0  0  0  0  0  0  0
    4.7575    2.1679    0.0000 C    0  0  0  0  0  0  0  0  0  0  0  0
    3.6209    3.2771    0.0000 C    0  0  0  0  0  0  0  0  0  0  0  0
   -0.5729    1.1229    0.0000 C    0  0  0  0  0  0  0  0  0  0  0  0
    5.2662    2.8188    0.0000 C    0  0  0  0  0  0  0  0  0  0  0  0
    1.9709    3.2771    0.0000 C    0  0  0  0  0  0  0  0  0  0  0  0
    2.7959    0.4629    0.0000 O    0  0  0  0  0  0  0  0  0  0  0  0
   -1.6041    2.1129    0.0000 C    0  0  0  0  0  0  0  0  0  0  0  0
   -1.9479    0.7287    0.0000 O    0  0  0  0  0  0  0  0  0  0  0  0
    4.2487    1.5216    0.0000 C    0  0  0  0  0  0  0  0  0  0  0  0
   -2.4016    2.3191    0.0000 O    0  0  0  0  0  0  0  0  0  0  0  0
    1.7187    1.0587    0.0000 O    0  0  0  0  0  0  0  0  0  0  0  0
    0.9625    0.9625    0.0000 O    0  0  0  0  0  0  0  0  0  0  0  0
   -0.2291    2.5116    0.0000 C    0  0  0  0  0  0  0  0  0  0  0  0
   -1.0266    2.7087    0.0000 C    0  0  0  0  0  0  0  0  0  0  0  0
    2.3834    3.9875    0.0000 C    0  0  0  0  0  0  0  0  0  0  0  0
    3.2084    3.9875    0.0000 C    0  0  0  0  0  0  0  0  0  0  0  0
    1.9709    4.6934    0.0000 Br   0  0  0  0  0  0  0  0  0  0  0  0
   -2.7454    0.9304    0.0000 C    0  0  0  0  0  0  0  0  0  0  0  0
   -2.9791    1.7187    0.0000 C    0  0  0  0  0  0  0  0  0  0  0  0
  2  1  1  0  0  0  0
  3  1  1  0  0  0  0
  4  2  1  0  0  0  0
  4  5  1  0  0  0  0
  5  3  2  0  0  0  0
  6  1  1  0  0  0  0
  7  6  1  0  0  0  0
  8  7  1  0  0  0  0
  9 12  2  0  0  0  0
 10 18  1  0  0  0  0
 11  5  1  0  0  0  0
 11 25  2  0  0  0  0
 12  8  1  0  0  0  0
 13 10  3  0  0  0  0
 14  3  1  0  0  0  0
 15  2  2  0  0  0  0
 16 23  2  0  0  0  0
 16  9  1  0  0  0  0
 17  9  1  0  0  0  0
 18  4  1  0  0  0  0
 19 16  1  0  0  0  0
 20  1  1  0  0  0  0
 21  7  2  0  0  0  0
 22  8  2  0  0  0  0
 23 22  1  0  0  0  0
 24 14  2  0  0  0  0
 25 24  1  0  0  0  0
 26 24  1  0  0  0  0
 27 17  1  0  0  0  0
 28 19  1  0  0  0  0
 28 27  1  0  0  0  0
M  END
> <CdId>
1579

> <Mol Weight>
442.259

> <Formula>
C21H16BrNO5

> <Click_ID>
CLK021_C04 __ __ 

$$$$
