CLK012_F04
 OpenBabel03181419432D

 18 19  0  0  0  0  0  0  0  0999 V2000
    1.5583   -0.8123    0.0000 N   0  0  0  0  0  0  0  0  0  0  0  0
    1.8153   -1.5956    0.0000 C   0  0  0  0  0  0  0  0  0  0  0  0
    2.2256   -0.3274    0.0000 C   0  0  0  0  0  0  0  0  0  0  0  0
    2.8887   -0.8123    0.0000 C   0  0  0  0  0  0  0  0  0  0  0  0
    2.6359   -1.5956    0.0000 S   0  0  0  0  0  0  0  0  0  0  0  0
    3.6720   -0.5595    0.0000 C   0  0  0  0  0  0  0  0  0  0  0  0
    0.6092    0.2445    0.0000 C   0  0  0  0  0  0  0  0  0  0  0  0
    0.3896    1.0402    0.0000 C   0  0  0  0  0  0  0  0  0  0  0  0
    1.3304   -2.2546    0.0000 O   0  0  0  0  0  0  0  0  0  0  0  0
    2.2173    0.4932    0.0000 O   0  0  0  0  0  0  0  0  0  0  0  0
    0.7833   -0.5595    0.0000 C   0  0  0  0  0  0  0  0  0  0  0  0
    3.8419    0.2445    0.0000 C   0  0  0  0  0  0  0  0  0  0  0  0
    4.1693    1.8608    0.0000 C   0  0  0  0  0  0  0  0  0  0  0  0
    4.3392    2.6690    0.0000 F   0  0  0  0  0  0  0  0  0  0  0  0
    3.2202    0.7916    0.0000 C   0  0  0  0  0  0  0  0  0  0  0  0
    4.6252    0.5056    0.0000 C   0  0  0  0  0  0  0  0  0  0  0  0
    4.7910    1.3179    0.0000 C   0  0  0  0  0  0  0  0  0  0  0  0
    3.3860    1.5997    0.0000 C   0  0  0  0  0  0  0  0  0  0  0  0
  2  1  1  0  0  0  0
  3  1  1  0  0  0  0
  4  3  1  0  0  0  0
  5  2  1  0  0  0  0
  5  4  1  0  0  0  0
  6  4  2  0  0  0  0
  7 11  1  0  0  0  0
  8  7  3  0  0  0  0
  9  2  2  0  0  0  0
 10  3  2  0  0  0  0
 11  1  1  0  0  0  0
 12  6  1  0  0  0  0
 13 17  1  0  0  0  0
 13 18  2  0  0  0  0
 14 13  1  0  0  0  0
 15 12  2  0  0  0  0
 16 12  1  0  0  0  0
 17 16  2  0  0  0  0
 18 15  1  0  0  0  0
M  END
> <CdId>
889

> <Mol Weight>
261.272

> <Formula>
C13H8FNO2S

> <Click_ID>
CLK012_F04 __ __ 

$$$$
