CLK050B06
 OpenBabel03181419432D

 12 12  0  0  0  0  0  0  0  0999 V2000
    0.6213    0.0959    0.0000 C   0  0  0  0  0  0  0  0  0  0  0  0
   -0.0876   -0.3253    0.0000 C   0  0  0  0  0  0  0  0  0  0  0  0
    1.3803   -0.2252    0.0000 C   0  0  0  0  0  0  0  0  0  0  0  0
    0.6922    0.9215    0.0000 S   0  0  0  0  0  0  0  0  0  0  0  0
   -2.2393    0.0542    0.0000 C   0  0  0  0  0  0  0  0  0  0  0  0
   -2.9606    0.4587    0.0000 C   0  0  0  0  0  0  0  0  0  0  0  0
    1.4970    1.1051    0.0000 C   0  0  0  0  0  0  0  0  0  0  0  0
    1.9223    0.3961    0.0000 C   0  0  0  0  0  0  0  0  0  0  0  0
   -0.0793   -1.1509    0.0000 O   0  0  0  0  0  0  0  0  0  0  0  0
   -0.8089    0.0751    0.0000 N   0  0  0  0  0  0  0  0  0  0  0  0
   -1.5179   -0.3461    0.0000 C   0  0  0  0  0  0  0  0  0  0  0  0
    1.5637   -1.0300    0.0000 C   0  0  0  0  0  0  0  0  0  0  0  0
  2  1  1  0  0  0  0
  3  1  2  0  0  0  0
  4  1  1  0  0  0  0
  5 11  1  0  0  0  0
  6  5  3  0  0  0  0
  7  4  1  0  0  0  0
  7  8  2  0  0  0  0
  8  3  1  0  0  0  0
  9  2  2  0  0  0  0
 10  2  1  0  0  0  0
 11 10  1  0  0  0  0
 12  3  1  0  0  0  0
M  END
> <CdId>
3842

> <Mol Weight>
179.239

> <Formula>
C9H9NOS

> <Click_ID>
CLK050B06 __ __ 

$$$$
