CLK015_A06
 OpenBabel03181419432D

 21 23  0  0  0  0  0  0  0  0999 V2000
   -8.6763    3.8287    0.0000 C    0  0  0  0  0  0  0  0  0  0  0  0
   -7.9866    4.2814    0.0000 C    0  0  0  0  0  0  0  0  0  0  0  0
   -7.2868    3.8287    0.0000 N    0  0  0  0  0  0  0  0  0  0  0  0
   -7.2868    2.9950    0.0000 C    0  0  0  0  0  0  0  0  0  0  0  0
   -7.9866    2.5936    0.0000 N    0  0  0  0  0  0  0  0  0  0  0  0
   -8.6763    2.9950    0.0000 C    0  0  0  0  0  0  0  0  0  0  0  0
   -5.1151    2.5010    0.0000 C    0  0  0  0  0  0  0  0  0  0  0  0
   -4.4358    2.0583    0.0000 C    0  0  0  0  0  0  0  0  0  0  0  0
   -9.4173    4.2814    0.0000 C    0  0  0  0  0  0  0  0  0  0  0  0
   -7.9866    5.0637    0.0000 C    0  0  0  0  0  0  0  0  0  0  0  0
   -9.4173    2.5936    0.0000 C    0  0  0  0  0  0  0  0  0  0  0  0
   -6.5458    2.5524    0.0000 S    0  0  0  0  0  0  0  0  0  0  0  0
  -10.1171    3.8287    0.0000 C    0  0  0  0  0  0  0  0  0  0  0  0
  -10.1171    2.9950    0.0000 C    0  0  0  0  0  0  0  0  0  0  0  0
  -10.8581    4.2814    0.0000 Cl   0  0  0  0  0  0  0  0  0  0  0  0
   -5.8048    2.9538    0.0000 C    0  0  0  0  0  0  0  0  0  0  0  0
   -7.2868    5.5165    0.0000 C    0  0  0  0  0  0  0  0  0  0  0  0
   -8.6763    5.5165    0.0000 C    0  0  0  0  0  0  0  0  0  0  0  0
   -8.6763    6.2988    0.0000 C    0  0  0  0  0  0  0  0  0  0  0  0
   -7.2868    6.3502    0.0000 C    0  0  0  0  0  0  0  0  0  0  0  0
   -7.9866    6.7515    0.0000 C    0  0  0  0  0  0  0  0  0  0  0  0
  2  1  1  0  0  0  0
  3  2  2  0  0  0  0
  4  5  2  0  0  0  0
  4  3  1  0  0  0  0
  5  6  1  0  0  0  0
  6  1  2  0  0  0  0
  7 16  1  0  0  0  0
  8  7  3  0  0  0  0
  9  1  1  0  0  0  0
 10  2  1  0  0  0  0
 11  6  1  0  0  0  0
 11 14  2  0  0  0  0
 12  4  1  0  0  0  0
 13  9  2  0  0  0  0
 14 13  1  0  0  0  0
 15 13  1  0  0  0  0
 16 12  1  0  0  0  0
 17 10  2  0  0  0  0
 18 10  1  0  0  0  0
 19 18  2  0  0  0  0
 20 17  1  0  0  0  0
 20 21  2  0  0  0  0
 21 19  1  0  0  0  0
M  END
> <CdId>
1081

> <Mol Weight>
310.801

> <Formula>
C17H11ClN2S

> <Click_ID>
CLK015_A06 __ __ 

$$$$
