CLK020_B06
 OpenBabel03181419432D

 24 25  0  0  0  0  0  0  0  0999 V2000
    5.8896    2.5116    0.0000 C    0  0  0  0  0  0  0  0  0  0  0  0
    3.0021    1.7966    0.0000 C    0  0  0  0  0  0  0  0  0  0  0  0
    5.4771    1.7966    0.0000 C    0  0  0  0  0  0  0  0  0  0  0  0
    3.4146    1.0816    0.0000 C    0  0  0  0  0  0  0  0  0  0  0  0
    3.4146    2.5116    0.0000 C    0  0  0  0  0  0  0  0  0  0  0  0
    4.6521    1.7966    0.0000 C    0  0  0  0  0  0  0  0  0  0  0  0
    6.7146    2.5116    0.0000 C    0  0  0  0  0  0  0  0  0  0  0  0
    7.5396    2.5116    0.0000 N    0  0  0  0  0  0  0  0  0  0  0  0
    0.9396    2.5116    0.0000 C    0  0  0  0  0  0  0  0  0  0  0  0
    0.1146    2.5116    0.0000 C    0  0  0  0  0  0  0  0  0  0  0  0
    5.4771    3.2266    0.0000 C    0  0  0  0  0  0  0  0  0  0  0  0
    4.2396    1.0816    0.0000 C    0  0  0  0  0  0  0  0  0  0  0  0
    4.2396    2.5116    0.0000 C    0  0  0  0  0  0  0  0  0  0  0  0
    5.8896    3.9416    0.0000 C    0  0  0  0  0  0  0  0  0  0  0  0
    4.6521    3.2266    0.0000 C    0  0  0  0  0  0  0  0  0  0  0  0
    3.0021    0.3666    0.0000 Br   0  0  0  0  0  0  0  0  0  0  0  0
    2.1771    1.7966    0.0000 O    0  0  0  0  0  0  0  0  0  0  0  0
    4.6521    4.6429    0.0000 C    0  0  0  0  0  0  0  0  0  0  0  0
    3.0021    3.2266    0.0000 O    0  0  0  0  0  0  0  0  0  0  0  0
    4.2396    3.9416    0.0000 C    0  0  0  0  0  0  0  0  0  0  0  0
    5.4771    4.6429    0.0000 C    0  0  0  0  0  0  0  0  0  0  0  0
    4.2396    5.3625    0.0000 F    0  0  0  0  0  0  0  0  0  0  0  0
    1.7646    2.5116    0.0000 C    0  0  0  0  0  0  0  0  0  0  0  0
    3.4146    3.9416    0.0000 C    0  0  0  0  0  0  0  0  0  0  0  0
  2  5  2  0  0  0  0
  2  4  1  0  0  0  0
  3  1  2  0  0  0  0
  4 12  2  0  0  0  0
  5 13  1  0  0  0  0
  6  3  1  0  0  0  0
  7  1  1  0  0  0  0
  8  7  3  0  0  0  0
  9 23  1  0  0  0  0
 10  9  3  0  0  0  0
 11  1  1  0  0  0  0
 12  6  1  0  0  0  0
 13  6  2  0  0  0  0
 14 11  1  0  0  0  0
 15 11  2  0  0  0  0
 16  4  1  0  0  0  0
 17  2  1  0  0  0  0
 18 20  2  0  0  0  0
 18 21  1  0  0  0  0
 19  5  1  0  0  0  0
 20 15  1  0  0  0  0
 21 14  2  0  0  0  0
 22 18  1  0  0  0  0
 23 17  1  0  0  0  0
 24 19  1  0  0  0  0
M  END
> <CdId>
1491

> <Mol Weight>
386.214

> <Formula>
C19H13BrFNO2

> <Click_ID>
CLK020_B06 __ __ 

$$$$
