CLK002_A05
 OpenBabel03181419432D

 22 24  0  0  0  0  0  0  0  0999 V2000
   -0.8251    0.4943    0.0000 C   0  0  0  0  0  0  0  0  0  0  0  0
   -0.8251   -0.3308    0.0000 C   0  0  0  0  0  0  0  0  0  0  0  0
   -0.0472    0.7451    0.0000 C   0  0  0  0  0  0  0  0  0  0  0  0
   -1.5411    0.9160    0.0000 C   0  0  0  0  0  0  0  0  0  0  0  0
   -0.0472   -0.5888    0.0000 C   0  0  0  0  0  0  0  0  0  0  0  0
   -1.5411   -0.7524    0.0000 C   0  0  0  0  0  0  0  0  0  0  0  0
    0.4216    0.0909    0.0000 N   0  0  0  0  0  0  0  0  0  0  0  0
    0.2289    1.5193    0.0000 O   0  0  0  0  0  0  0  0  0  0  0  0
   -2.2607    0.5125    0.0000 C   0  0  0  0  0  0  0  0  0  0  0  0
    0.2108   -1.3630    0.0000 O   0  0  0  0  0  0  0  0  0  0  0  0
   -2.2607   -0.3489    0.0000 C   0  0  0  0  0  0  0  0  0  0  0  0
    1.2430    0.0218    0.0000 C   0  0  0  0  0  0  0  0  0  0  0  0
   -2.9732    0.9559    0.0000 N   0  3  0  0  0  0  0  0  0  0  0  0
    1.5811   -0.7306    0.0000 C   0  0  0  0  0  0  0  0  0  0  0  0
    1.7046    0.7052    0.0000 C   0  0  0  0  0  0  0  0  0  0  0  0
   -3.6964    0.5488    0.0000 O   0  0  0  0  0  0  0  0  0  0  0  0
   -2.9513    1.7592    0.0000 O   0  5  0  0  0  0  0  0  0  0  0  0
    2.4025   -0.7996    0.0000 C   0  0  0  0  0  0  0  0  0  0  0  0
    2.5079    0.6397    0.0000 C   0  0  0  0  0  0  0  0  0  0  0  0
    2.8641   -0.1127    0.0000 C   0  0  0  0  0  0  0  0  0  0  0  0
    2.7405   -1.5593    0.0000 C   0  0  0  0  0  0  0  0  0  0  0  0
    3.0749   -2.3116    0.0000 C   0  0  0  0  0  0  0  0  0  0  0  0
  1  2  2  0  0  0  0
  1  3  1  0  0  0  0
  1  4  1  0  0  0  0
  2  5  1  0  0  0  0
  2  6  1  0  0  0  0
  3  7  1  0  0  0  0
  3  8  2  0  0  0  0
  4  9  2  0  0  0  0
  5 10  2  0  0  0  0
  5  7  1  0  0  0  0
  6 11  2  0  0  0  0
  7 12  1  0  0  0  0
  9 13  1  0  0  0  0
  9 11  1  0  0  0  0
 12 14  2  0  0  0  0
 12 15  1  0  0  0  0
 13 16  2  0  0  0  0
 13 17  1  0  0  0  0
 14 18  1  0  0  0  0
 15 19  2  0  0  0  0
 18 20  2  0  0  0  0
 18 21  1  0  0  0  0
 19 20  1  0  0  0  0
 21 22  3  0  0  0  0
M  END
> <CdId>
84

> <Mol Weight>
292.2457

> <Formula>
C16H8N2O4

> <Click_ID>
CLK002_A05 __ __ 

$$$$
