CLK019_H10
 OpenBabel03181419432D

 22 22  0  0  0  0  0  0  0  0999 V2000
    5.0050    3.4879    0.0000 C    0  0  0  0  0  0  0  0  0  0  0  0
    3.7675    4.1891    0.0000 C    0  0  0  0  0  0  0  0  0  0  0  0
    4.5925    4.1891    0.0000 C    0  0  0  0  0  0  0  0  0  0  0  0
    3.3550    3.4879    0.0000 C    0  0  0  0  0  0  0  0  0  0  0  0
    4.5925    2.7729    0.0000 C    0  0  0  0  0  0  0  0  0  0  0  0
    1.2925    4.1891    0.0000 C    0  0  0  0  0  0  0  0  0  0  0  0
    3.7675    2.7729    0.0000 C    0  0  0  0  0  0  0  0  0  0  0  0
    0.4675    4.1891    0.0000 C    0  0  0  0  0  0  0  0  0  0  0  0
    5.8300    3.4879    0.0000 C    0  0  0  0  0  0  0  0  0  0  0  0
    6.2425    2.7729    0.0000 N    0  0  0  0  0  0  0  0  0  0  0  0
    5.0050    4.8996    0.0000 Br   0  0  0  0  0  0  0  0  0  0  0  0
    2.5300    3.4879    0.0000 O    0  0  0  0  0  0  0  0  0  0  0  0
    3.3550    2.0487    0.0000 O    0  0  0  0  0  0  0  0  0  0  0  0
    7.0675    2.7729    0.0000 C    0  0  0  0  0  0  0  0  0  0  0  0
    2.1175    4.1891    0.0000 C    0  0  0  0  0  0  0  0  0  0  0  0
    3.7675    1.3337    0.0000 C    0  0  0  0  0  0  0  0  0  0  0  0
    7.5487    2.0991    0.0000 C    0  0  0  0  0  0  0  0  0  0  0  0
    7.5487    3.4329    0.0000 C    0  0  0  0  0  0  0  0  0  0  0  0
    3.3550    0.6188    0.0000 C    0  0  0  0  0  0  0  0  0  0  0  0
    8.3371    3.1854    0.0000 C    0  0  0  0  0  0  0  0  0  0  0  0
    8.3371    2.3604    0.0000 C    0  0  0  0  0  0  0  0  0  0  0  0
    9.1621    0.6188    0.0000 Cl   0  0  0  0  0  0  0  0  0  0  0  0
  2  3  2  0  0  0  0
  2  4  1  0  0  0  0
  3  1  1  0  0  0  0
  4  7  2  0  0  0  0
  5  1  2  0  0  0  0
  6 15  1  0  0  0  0
  7  5  1  0  0  0  0
  8  6  3  0  0  0  0
  9  1  1  0  0  0  0
 10  9  1  0  0  0  0
 11  3  1  0  0  0  0
 12  4  1  0  0  0  0
 13  7  1  0  0  0  0
 14 10  1  0  0  0  0
 15 12  1  0  0  0  0
 16 13  1  0  0  0  0
 17 14  1  0  0  0  0
 18 14  1  0  0  0  0
 19 16  1  0  0  0  0
 20 18  1  0  0  0  0
 20 21  1  0  0  0  0
 21 17  1  0  0  0  0
M  END
> <CdId>
1475

> <Mol Weight>
388.727

> <Formula>
C17H23BrClNO2

> <Click_ID>
CLK019_H10 __ __ 

$$$$
