CLK019_F04
 OpenBabel03181419432D

 15 15  0  0  0  0  0  0  0  0999 V2000
   -0.5321   -2.6729    0.0000 N   0  3  0  0  0  0  0  0  0  0  0  0
    0.1871   -2.2614    0.0000 C   0  0  0  0  0  0  0  0  0  0  0  0
    0.8979   -1.0226    0.0000 C   0  0  0  0  0  0  0  0  0  0  0  0
    0.1871   -1.4341    0.0000 C   0  0  0  0  0  0  0  0  0  0  0  0
    3.7454   -1.0143    0.0000 C   0  0  0  0  0  0  0  0  0  0  0  0
    4.4645   -1.4217    0.0000 C   0  0  0  0  0  0  0  0  0  0  0  0
   -1.2429   -2.2614    0.0000 O   0  5  0  0  0  0  0  0  0  0  0  0
   -0.5321   -3.4960    0.0000 O   0  0  0  0  0  0  0  0  0  0  0  0
    1.6129   -1.4341    0.0000 C   0  0  0  0  0  0  0  0  0  0  0  0
    0.8979   -2.6729    0.0000 C   0  0  0  0  0  0  0  0  0  0  0  0
    0.8896   -0.1995    0.0000 C   0  0  0  0  0  0  0  0  0  0  0  0
    1.6129   -2.2614    0.0000 C   0  0  0  0  0  0  0  0  0  0  0  0
    1.6087    0.2120    0.0000 O   0  0  0  0  0  0  0  0  0  0  0  0
    2.3238   -1.0143    0.0000 O   0  0  0  0  0  0  0  0  0  0  0  0
    3.0346   -1.4259    0.0000 C   0  0  0  0  0  0  0  0  0  0  0  0
  2  1  1  0  0  0  0
  3  4  1  0  0  0  0
  3  9  2  0  0  0  0
  4  2  2  0  0  0  0
  5 15  1  0  0  0  0
  6  5  3  0  0  0  0
  7  1  1  0  0  0  0
  8  1  2  0  0  0  0
  9 12  1  0  0  0  0
 10  2  1  0  0  0  0
 11  3  1  0  0  0  0
 12 10  2  0  0  0  0
 13 11  2  0  0  0  0
 14  9  1  0  0  0  0
 15 14  1  0  0  0  0
M  END
> <CdId>
1449

> <Mol Weight>
205.1669

> <Formula>
C10H7NO4

> <Click_ID>
CLK019_F04 __ __ 

$$$$
