CLK042D10
 OpenBabel03181419432D

 29 31  0  0  0  0  0  0  0  0999 V2000
    1.3042   -0.9792    0.0000 S   0  0  0  0  0  0  0  0  0  0  0  0
    1.3042   -1.8042    0.0000 N   0  0  0  0  0  0  0  0  0  0  0  0
   -0.1250    1.4958    0.0000 C   0  0  0  0  0  0  0  0  0  0  0  0
    1.3042   -0.1542    0.0000 C   0  0  0  0  0  0  0  0  0  0  0  0
   -0.1250    2.3208    0.0000 N   0  0  0  0  0  0  0  0  0  0  0  0
   -2.9833    2.3208    0.0000 C   0  0  0  0  0  0  0  0  0  0  0  0
    0.5875    1.0833    0.0000 C   0  0  0  0  0  0  0  0  0  0  0  0
    0.4792   -0.9792    0.0000 O   0  0  0  0  0  0  0  0  0  0  0  0
    2.1292   -0.9792    0.0000 O   0  0  0  0  0  0  0  0  0  0  0  0
    0.5875    0.2583    0.0000 C   0  0  0  0  0  0  0  0  0  0  0  0
   -3.6958    1.9083    0.0000 C   0  0  0  0  0  0  0  0  0  0  0  0
    0.5875   -2.2167    0.0000 C   0  0  3  0  0  0  0  0  0  0  0  0
   -0.8417    1.0833    0.0000 O   0  0  0  0  0  0  0  0  0  0  0  0
   -0.8417    2.7333    0.0000 C   0  0  0  0  0  0  0  0  0  0  0  0
    0.5875   -3.0417    0.0000 C   0  0  0  0  0  0  0  0  0  0  0  0
   -2.2667    2.7333    0.0000 C   0  0  0  0  0  0  0  0  0  0  0  0
   -1.5542    2.3208    0.0000 C   0  0  0  0  0  0  0  0  0  0  0  0
    2.0167    0.2583    0.0000 C   0  0  0  0  0  0  0  0  0  0  0  0
    1.3042    1.4958    0.0000 C   0  0  0  0  0  0  0  0  0  0  0  0
    2.0167    1.0833    0.0000 C   0  0  0  0  0  0  0  0  0  0  0  0
   -1.5542    3.9708    0.0000 C   0  0  0  0  0  0  0  0  0  0  0  0
   -0.8417    3.5583    0.0000 C   0  0  0  0  0  0  0  0  0  0  0  0
   -0.1250   -1.8042    0.0000 C   0  0  0  0  0  0  0  0  0  0  0  0
   -2.2667    3.5583    0.0000 C   0  0  0  0  0  0  0  0  0  0  0  0
   -0.1250   -3.4542    0.0000 C   0  0  0  0  0  0  0  0  0  0  0  0
    1.3042   -3.4542    0.0000 C   0  0  0  0  0  0  0  0  0  0  0  0
    1.3042   -4.2792    0.0000 C   0  0  0  0  0  0  0  0  0  0  0  0
   -0.1250   -4.2792    0.0000 C   0  0  0  0  0  0  0  0  0  0  0  0
    0.5875   -4.6917    0.0000 C   0  0  0  0  0  0  0  0  0  0  0  0
  2  1  1  0  0  0  0
  3  7  1  0  0  0  0
  4  1  1  0  0  0  0
  5  3  1  0  0  0  0
  6 16  1  0  0  0  0
  7 10  1  0  0  0  0
  8  1  2  0  0  0  0
  9  1  2  0  0  0  0
 10  4  2  0  0  0  0
 11  6  3  0  0  0  0
 12  2  1  0  0  0  0
 13  3  2  0  0  0  0
 14  5  1  0  0  0  0
 15 12  1  0  0  0  0
 16 17  1  0  0  0  0
 17 14  2  0  0  0  0
 18  4  1  0  0  0  0
 19  7  2  0  0  0  0
 19 20  1  0  0  0  0
 20 18  2  0  0  0  0
 21 22  2  0  0  0  0
 22 14  1  0  0  0  0
 23 12  1  0  0  0  0
 24 16  2  0  0  0  0
 24 21  1  0  0  0  0
 25 15  1  0  0  0  0
 26 15  2  0  0  0  0
 27 26  1  0  0  0  0
 28 25  2  0  0  0  0
 29 27  2  0  0  0  0
 29 28  1  0  0  0  0
M  END
> <CdId>
3236

> <Mol Weight>
404.482

> <Formula>
C23H20N2O3S

> <Click_ID>
CLK042D10 __ __ 

$$$$
