CLK007_G09
 OpenBabel03181419432D

 28 30  0  0  0  0  0  0  0  0999 V2000
    2.1335    0.3688    0.0000 C   0  0  0  0  0  0  0  0  0  0  0  0
    2.0508    1.1892    0.0000 C   0  0  0  0  0  0  0  0  0  0  0  0
    1.3718    0.0310    0.0000 C   0  0  0  0  0  0  0  0  0  0  0  0
    2.8815    0.0172    0.0000 C   0  0  0  0  0  0  0  0  0  0  0  0
    1.2373    1.3684    0.0000 N   0  0  0  0  0  0  0  0  0  0  0  0
    2.7195    1.6579    0.0000 C   0  0  0  0  0  0  0  0  0  0  0  0
    0.8237    0.6514    0.0000 C   0  0  0  0  0  0  0  0  0  0  0  0
    1.1995   -0.7721    0.0000 C   0  0  0  0  0  0  0  0  0  0  0  0
    3.5501    0.5136    0.0000 C   0  0  0  0  0  0  0  0  0  0  0  0
    0.9134    2.1163    0.0000 C   0  0  0  0  0  0  0  0  0  0  0  0
    3.4606    1.3304    0.0000 C   0  0  0  0  0  0  0  0  0  0  0  0
    0.4136   -1.0236    0.0000 C   0  0  0  0  0  0  0  0  0  0  0  0
    1.3994    2.7816    0.0000 C   0  0  0  0  0  0  0  0  0  0  0  0
   -0.2516   -0.5446    0.0000 C   0  0  0  0  0  0  0  0  0  0  0  0
    0.1585   -1.8095    0.0000 S   0  0  0  0  0  0  0  0  0  0  0  0
    1.9336    3.4088    0.0000 C   0  0  0  0  0  0  0  0  0  0  0  0
   -0.9237   -1.0236    0.0000 N   0  0  0  0  0  0  0  0  0  0  0  0
   -0.2620    0.2792    0.0000 O   0  0  0  0  0  0  0  0  0  0  0  0
   -0.6652   -1.8095    0.0000 C   0  0  0  0  0  0  0  0  0  0  0  0
   -1.7026   -0.7721    0.0000 C   0  0  0  0  0  0  0  0  0  0  0  0
   -1.1512   -2.4817    0.0000 O   0  0  0  0  0  0  0  0  0  0  0  0
   -2.3231   -1.3235    0.0000 C   0  0  0  0  0  0  0  0  0  0  0  0
   -3.1020   -1.0719    0.0000 O   0  0  0  0  0  0  0  0  0  0  0  0
   -2.1473   -2.1300    0.0000 O   0  0  0  0  0  0  0  0  0  0  0  0
   -3.2744   -0.2620    0.0000 C   0  0  0  0  0  0  0  0  0  0  0  0
   -3.7224   -0.9582    0.0000 C   0  0  0  0  0  0  0  0  0  0  0  0
   -4.0603   -0.0103    0.0000 C   0  0  0  0  0  0  0  0  0  0  0  0
   -2.6609    0.2896    0.0000 C   0  0  0  0  0  0  0  0  0  0  0  0
  1  2  1  0  0  0  0
  1  3  1  0  0  0  0
  1  4  2  0  0  0  0
  2  5  1  0  0  0  0
  2  6  2  0  0  0  0
  3  7  2  0  0  0  0
  3  8  1  0  0  0  0
  4  9  1  0  0  0  0
  5 10  1  0  0  0  0
  5  7  1  0  0  0  0
  6 11  1  0  0  0  0
  8 12  2  0  0  0  0
  9 11  2  0  0  0  0
 10 13  1  0  0  0  0
 12 14  1  0  0  0  0
 12 15  1  0  0  0  0
 13 16  3  0  0  0  0
 14 17  1  0  0  0  0
 14 18  2  0  0  0  0
 15 19  1  0  0  0  0
 17 20  1  0  0  0  0
 17 19  1  0  0  0  0
 19 21  2  0  0  0  0
 20 22  1  0  0  0  0
 22 23  1  0  0  0  0
 22 24  2  0  0  0  0
 23 25  1  0  0  0  0
 25 26  1  0  0  0  0
 25 27  1  0  0  0  0
 25 28  1  0  0  0  0
M  END
> <CdId>
548

> <Mol Weight>
396.459

> <Formula>
C21H20N2O4S

> <Click_ID>
CLK007_G09 __ __ 

$$$$
