CLK016_H07
 OpenBabel03181419432D

 25 26  0  0  0  0  0  0  0  0999 V2000
    1.5645   -0.8156    0.0000 N   0  0  0  0  0  0  0  0  0  0  0  0
    1.8225   -1.6020    0.0000 C   0  0  0  0  0  0  0  0  0  0  0  0
    2.2344   -0.3287    0.0000 C   0  0  0  0  0  0  0  0  0  0  0  0
    2.9002   -0.8156    0.0000 C   0  0  0  0  0  0  0  0  0  0  0  0
    2.6463   -1.6020    0.0000 S   0  0  0  0  0  0  0  0  0  0  0  0
    3.6866   -0.5617    0.0000 C   0  0  0  0  0  0  0  0  0  0  0  0
    0.6116    0.2455    0.0000 C   0  0  0  0  0  0  0  0  0  0  0  0
    0.3912    1.0443    0.0000 C   0  0  0  0  0  0  0  0  0  0  0  0
    1.3356   -2.2635    0.0000 O   0  0  0  0  0  0  0  0  0  0  0  0
    3.4202    1.6061    0.0000 C   0  0  0  0  0  0  0  0  0  0  0  0
    2.2261    0.4951    0.0000 O   0  0  0  0  0  0  0  0  0  0  0  0
    5.3592    3.7156    0.0000 C   0  0  0  0  0  0  0  0  0  0  0  0
    4.2066    1.8599    0.0000 C   0  0  0  0  0  0  0  0  0  0  0  0
    3.8571    0.2455    0.0000 C   0  0  0  0  0  0  0  0  0  0  0  0
    0.7864   -0.5617    0.0000 C   0  0  0  0  0  0  0  0  0  0  0  0
    3.2455    0.8072    0.0000 C   0  0  0  0  0  0  0  0  0  0  0  0
    4.3856    2.6588    0.0000 O   0  0  0  0  0  0  0  0  0  0  0  0
    4.7476    4.2733    0.0000 O   0  0  0  0  0  0  0  0  0  0  0  0
    4.8183    1.3107    0.0000 C   0  0  0  0  0  0  0  0  0  0  0  0
    5.1720    2.9167    0.0000 C   0  0  0  0  0  0  0  0  0  0  0  0
    4.6352    0.4951    0.0000 C   0  0  0  0  0  0  0  0  0  0  0  0
    6.1456    3.9778    0.0000 O   0  0  0  0  0  0  0  0  0  0  0  0
    2.8211    2.1678    0.0000 O   0  0  0  0  0  0  0  0  0  0  0  0
    2.0347    1.9181    0.0000 C   0  0  0  0  0  0  0  0  0  0  0  0
    1.4272    2.4674    0.0000 C   0  0  0  0  0  0  0  0  0  0  0  0
  2  1  1  0  0  0  0
  3  1  1  0  0  0  0
  4  3  1  0  0  0  0
  5  2  1  0  0  0  0
  5  4  1  0  0  0  0
  6  4  2  0  0  0  0
  7 15  1  0  0  0  0
  8  7  3  0  0  0  0
  9  2  2  0  0  0  0
 10 16  1  0  0  0  0
 11  3  2  0  0  0  0
 12 20  1  0  0  0  0
 13 19  1  0  0  0  0
 13 10  2  0  0  0  0
 14  6  1  0  0  0  0
 15  1  1  0  0  0  0
 16 14  2  0  0  0  0
 17 13  1  0  0  0  0
 18 12  2  0  0  0  0
 19 21  2  0  0  0  0
 20 17  1  0  0  0  0
 21 14  1  0  0  0  0
 22 12  1  0  0  0  0
 23 10  1  0  0  0  0
 24 23  1  0  0  0  0
 25 24  1  0  0  0  0
M  END
> <CdId>
1232

> <Mol Weight>
361.369

> <Formula>
C17H15NO6S

> <Click_ID>
CLK016_H07 __ __ 

$$$$
