CLK020_B10
 OpenBabel03181419432D

 26 27  0  0  0  0  0  0  0  0999 V2000
    1.8375   -1.8417    0.0000 C    0  0  0  0  0  0  0  0  0  0  0  0
    3.2542   -1.8417    0.0000 N    0  0  0  0  0  0  0  0  0  0  0  0
    3.2542   -2.6667    0.0000 C    0  0  0  0  0  0  0  0  0  0  0  0
    2.5417   -1.4250    0.0000 C    0  0  0  0  0  0  0  0  0  0  0  0
    2.5417   -3.0750    0.0000 N    0  0  0  0  0  0  0  0  0  0  0  0
    1.8375   -2.6667    0.0000 C    0  0  0  0  0  0  0  0  0  0  0  0
    1.1167   -1.4292    0.0000 C    0  0  0  0  0  0  0  0  0  0  0  0
   -1.0125   -2.6750    0.0000 C    0  0  0  0  0  0  0  0  0  0  0  0
   -1.0208   -1.8542    0.0000 C    0  0  0  0  0  0  0  0  0  0  0  0
   -0.3083   -3.0875    0.0000 C    0  0  0  0  0  0  0  0  0  0  0  0
    0.4042   -1.8500    0.0000 C    0  0  0  0  0  0  0  0  0  0  0  0
    3.9750   -3.0792    0.0000 S    0  0  0  0  0  0  0  0  0  0  0  0
   -3.1708   -3.0750    0.0000 C    0  0  0  0  0  0  0  0  0  0  0  0
   -3.8833   -3.4792    0.0000 C    0  0  0  0  0  0  0  0  0  0  0  0
    2.5417   -0.6000    0.0000 O    0  0  0  0  0  0  0  0  0  0  0  0
   -0.3000   -1.4375    0.0000 C    0  0  0  0  0  0  0  0  0  0  0  0
    0.4125   -2.6750    0.0000 C    0  0  0  0  0  0  0  0  0  0  0  0
    1.1167   -3.0792    0.0000 O    0  0  0  0  0  0  0  0  0  0  0  0
    3.9750   -1.4292    0.0000 C    0  0  0  0  0  0  0  0  0  0  0  0
    3.9750   -0.6042    0.0000 C    0  0  0  0  0  0  0  0  0  0  0  0
    4.6917   -0.2000    0.0000 C    0  0  0  0  0  0  0  0  0  0  0  0
   -1.7333   -1.4417    0.0000 Br   0  0  0  0  0  0  0  0  0  0  0  0
   -1.7333   -3.0792    0.0000 O    0  0  0  0  0  0  0  0  0  0  0  0
   -0.3083   -3.9042    0.0000 O    0  0  0  0  0  0  0  0  0  0  0  0
   -2.4458   -2.6667    0.0000 C    0  0  0  0  0  0  0  0  0  0  0  0
    0.3917   -4.3125    0.0000 C    0  0  0  0  0  0  0  0  0  0  0  0
  2  4  1  0  0  0  0
  3  5  1  0  0  0  0
  3  2  1  0  0  0  0
  4  1  1  0  0  0  0
  5  6  1  0  0  0  0
  6  1  1  0  0  0  0
  7  1  2  0  0  0  0
  8 10  2  0  0  0  0
  8  9  1  0  0  0  0
  9 16  2  0  0  0  0
 10 17  1  0  0  0  0
 11  7  1  0  0  0  0
 12  3  2  0  0  0  0
 13 25  1  0  0  0  0
 14 13  3  0  0  0  0
 15  4  2  0  0  0  0
 16 11  1  0  0  0  0
 17 11  2  0  0  0  0
 18  6  2  0  0  0  0
 19  2  1  0  0  0  0
 20 19  1  0  0  0  0
 21 20  2  0  0  0  0
 22  9  1  0  0  0  0
 23  8  1  0  0  0  0
 24 10  1  0  0  0  0
 25 23  1  0  0  0  0
 26 24  1  0  0  0  0
M  END
> <CdId>
1495

> <Mol Weight>
435.292

> <Formula>
C18H15BrN2O4S

> <Click_ID>
CLK020_B10 __ __ 

$$$$
