CLK024_E03
 OpenBabel03181419432D

 24 26  0  0  0  0  0  0  0  0999 V2000
   -1.9548   -0.4673    0.0000 N   0  0  0  0  0  0  0  0  0  0  0  0
   -1.7074   -1.2539    0.0000 C   0  0  0  0  0  0  0  0  0  0  0  0
   -0.6287   -0.4673    0.0000 C   0  0  0  0  0  0  0  0  0  0  0  0
   -1.2952    0.0206    0.0000 C   0  0  0  0  0  0  0  0  0  0  0  0
    1.0822    0.9310    0.0000 N   0  0  0  0  0  0  0  0  0  0  0  0
   -0.8829   -1.2539    0.0000 S   0  0  0  0  0  0  0  0  0  0  0  0
    0.3333    0.5943    0.0000 C   0  0  0  0  0  0  0  0  0  0  0  0
    0.1581   -0.2130    0.0000 C   0  0  0  0  0  0  0  0  0  0  0  0
    1.8036    0.5188    0.0000 C   0  0  0  0  0  0  0  0  0  0  0  0
    2.5079    0.9310    0.0000 C   0  0  0  0  0  0  0  0  0  0  0  0
   -3.3564   -0.7661    0.0000 C   0  0  0  0  0  0  0  0  0  0  0  0
    0.9963    1.7486    0.0000 C   0  0  0  0  0  0  0  0  0  0  0  0
   -3.9439   -1.3501    0.0000 C   0  0  0  0  0  0  0  0  0  0  0  0
   -2.1884   -1.9170    0.0000 O   0  0  0  0  0  0  0  0  0  0  0  0
   -0.2164    1.2059    0.0000 C   0  0  0  0  0  0  0  0  0  0  0  0
   -1.2952    0.8451    0.0000 O   0  0  0  0  0  0  0  0  0  0  0  0
    0.1958    1.9205    0.0000 C   0  0  0  0  0  0  0  0  0  0  0  0
   -2.7381   -0.2130    0.0000 C   0  0  0  0  0  0  0  0  0  0  0  0
    3.2259    0.5119    0.0000 C   0  0  0  0  0  0  0  0  0  0  0  0
    1.7933   -0.3127    0.0000 C   0  0  0  0  0  0  0  0  0  0  0  0
    2.5079    1.7556    0.0000 C   0  0  0  0  0  0  0  0  0  0  0  0
    2.5079   -0.7249    0.0000 C   0  0  0  0  0  0  0  0  0  0  0  0
    3.2259   -0.3127    0.0000 C   0  0  0  0  0  0  0  0  0  0  0  0
    3.9405    0.9207    0.0000 C   0  0  0  0  0  0  0  0  0  0  0  0
  2  1  1  0  0  0  0
  3  4  1  0  0  0  0
  4  1  1  0  0  0  0
  5  7  1  0  0  0  0
  6  2  1  0  0  0  0
  6  3  1  0  0  0  0
  7  8  1  0  0  0  0
  8  3  2  0  0  0  0
  9  5  1  0  0  0  0
 10  9  1  0  0  0  0
 11 18  1  0  0  0  0
 12  5  1  0  0  0  0
 12 17  2  0  0  0  0
 13 11  3  0  0  0  0
 14  2  2  0  0  0  0
 15  7  2  0  0  0  0
 16  4  2  0  0  0  0
 17 15  1  0  0  0  0
 18  1  1  0  0  0  0
 19 10  2  0  0  0  0
 19 23  1  0  0  0  0
 20  9  2  0  0  0  0
 21 10  1  0  0  0  0
 22 20  1  0  0  0  0
 23 22  2  0  0  0  0
 24 19  1  0  0  0  0
M  END
> <CdId>
1818

> <Mol Weight>
336.408

> <Formula>
C19H16N2O2S

> <Click_ID>
CLK024_E03 __ __ 

$$$$
