CLK024_C04
 OpenBabel03181419432D

 24 25  0  0  0  0  0  0  0  0999 V2000
   -2.2535   -0.6950    0.0000 N    0  0  0  0  0  0  0  0  0  0  0  0
   -1.9439    0.0654    0.0000 C    0  0  0  0  0  0  0  0  0  0  0  0
   -1.6273   -1.2248    0.0000 C    0  0  0  0  0  0  0  0  0  0  0  0
   -0.9255   -0.7982    0.0000 C    0  0  0  0  0  0  0  0  0  0  0  0
   -1.1182    0.0035    0.0000 S    0  0  0  0  0  0  0  0  0  0  0  0
   -0.2099   -1.1938    0.0000 C    0  0  0  0  0  0  0  0  0  0  0  0
    1.9198    0.0551    0.0000 C    0  0  0  0  0  0  0  0  0  0  0  0
    1.9163   -0.7741    0.0000 C    0  0  0  0  0  0  0  0  0  0  0  0
    1.2145    0.4679    0.0000 C    0  0  0  0  0  0  0  0  0  0  0  0
    0.4920   -0.7741    0.0000 C    0  0  0  0  0  0  0  0  0  0  0  0
    3.3751    1.6686    0.0000 C    0  0  0  0  0  0  0  0  0  0  0  0
    4.0976    2.0643    0.0000 C    0  0  0  0  0  0  0  0  0  0  0  0
   -2.3911    0.7672    0.0000 O    0  0  0  0  0  0  0  0  0  0  0  0
    1.1938   -1.1870    0.0000 C    0  0  0  0  0  0  0  0  0  0  0  0
    0.4920    0.0654    0.0000 C    0  0  0  0  0  0  0  0  0  0  0  0
   -1.7030   -2.0608    0.0000 O    0  0  0  0  0  0  0  0  0  0  0  0
   -3.0689   -0.8945    0.0000 C    0  0  3  0  0  0  0  0  0  0  0  0
    2.6354   -1.2007    0.0000 Cl   0  0  0  0  0  0  0  0  0  0  0  0
    1.2145    1.2936    0.0000 Cl   0  0  0  0  0  0  0  0  0  0  0  0
    2.6354    0.4541    0.0000 O    0  0  0  0  0  0  0  0  0  0  0  0
    2.6561    1.2695    0.0000 C    0  0  0  0  0  0  0  0  0  0  0  0
   -3.2925   -1.6892    0.0000 C    0  0  0  0  0  0  0  0  0  0  0  0
   -3.6366   -0.2959    0.0000 C    0  0  0  0  0  0  0  0  0  0  0  0
   -4.1011   -1.8888    0.0000 C    0  0  0  0  0  0  0  0  0  0  0  0
  2  1  1  0  0  0  0
  3  1  1  0  0  0  0
  4  3  1  0  0  0  0
  5  2  1  0  0  0  0
  5  4  1  0  0  0  0
  6  4  2  0  0  0  0
  7  9  1  0  0  0  0
  7  8  2  0  0  0  0
  8 14  1  0  0  0  0
  9 15  2  0  0  0  0
 10  6  1  0  0  0  0
 11 21  1  0  0  0  0
 12 11  3  0  0  0  0
 13  2  2  0  0  0  0
 14 10  2  0  0  0  0
 15 10  1  0  0  0  0
 16  3  2  0  0  0  0
 17  1  1  0  0  0  0
 18  8  1  0  0  0  0
 19  9  1  0  0  0  0
 20  7  1  0  0  0  0
 21 20  1  0  0  0  0
 22 17  1  0  0  0  0
 23 17  1  0  0  0  0
 24 22  1  0  0  0  0
M  END
> <CdId>
1799

> <Mol Weight>
384.277

> <Formula>
C17H15Cl2NO3S

> <Click_ID>
CLK024_C04 __ __ 

$$$$
