CLK028_G06
 OpenBabel03181419432D

 14 14  0  0  0  0  0  0  0  0999 V2000
   -0.0035   -0.8250    0.0000 C    0  0  0  0  0  0  0  0  0  0  0  0
   -0.7116    0.4193    0.0000 C    0  0  0  0  0  0  0  0  0  0  0  0
   -0.0035    0.0000    0.0000 C    0  0  0  0  0  0  0  0  0  0  0  0
   -1.4266    0.0000    0.0000 C    0  0  0  0  0  0  0  0  0  0  0  0
    1.4300    1.6535    0.0000 C    0  0  0  0  0  0  0  0  0  0  0  0
    2.1382    2.0693    0.0000 C    0  0  0  0  0  0  0  0  0  0  0  0
   -0.7116   -1.2340    0.0000 C    0  0  0  0  0  0  0  0  0  0  0  0
   -1.4266   -0.8250    0.0000 C    0  0  0  0  0  0  0  0  0  0  0  0
    0.7150   -1.2340    0.0000 C    0  0  0  0  0  0  0  0  0  0  0  0
    0.7150   -2.0660    0.0000 O    0  0  0  0  0  0  0  0  0  0  0  0
   -0.7116    1.2410    0.0000 Br   0  0  0  0  0  0  0  0  0  0  0  0
    0.7150    0.4193    0.0000 O    0  0  0  0  0  0  0  0  0  0  0  0
   -2.1415   -1.2340    0.0000 Br   0  0  0  0  0  0  0  0  0  0  0  0
    0.7150    1.2410    0.0000 C    0  0  0  0  0  0  0  0  0  0  0  0
  2  3  2  0  0  0  0
  2  4  1  0  0  0  0
  3  1  1  0  0  0  0
  4  8  2  0  0  0  0
  5 14  1  0  0  0  0
  6  5  3  0  0  0  0
  7  1  2  0  0  0  0
  8  7  1  0  0  0  0
  9  1  1  0  0  0  0
 10  9  2  0  0  0  0
 11  2  1  0  0  0  0
 12  3  1  0  0  0  0
 13  8  1  0  0  0  0
 14 12  1  0  0  0  0
M  END
> <CdId>
2150

> <Mol Weight>
317.961

> <Formula>
C10H6Br2O2

> <Click_ID>
CLK028_G06 __ __ 

$$$$
