CLK005_G11
 OpenBabel03181419432D

 21 23  0  0  0  0  0  0  0  0999 V2000
    7.6125   -6.2792    0.0000 N   0  0  0  0  0  0  0  0  0  0  0  0
    6.2667   -6.2667    0.0000 C   0  0  0  0  0  0  0  0  0  0  0  0
    6.9292   -5.7875    0.0000 C   0  0  0  0  0  0  0  0  0  0  0  0
    7.3417   -7.0542    0.0000 C   0  0  0  0  0  0  0  0  0  0  0  0
    6.5167   -7.0542    0.0000 C   0  0  0  0  0  0  0  0  0  0  0  0
    2.9667   -4.4042    0.0000 N   0  3  0  0  0  0  0  0  0  0  0  0
    5.4792   -6.0000    0.0000 C   0  0  0  0  0  0  0  0  0  0  0  0
    8.5750   -5.2125    0.0000 C   0  0  0  0  0  0  0  0  0  0  0  0
    8.7500   -4.4167    0.0000 C   0  0  0  0  0  0  0  0  0  0  0  0
    5.3125   -5.1917    0.0000 C   0  0  0  0  0  0  0  0  0  0  0  0
    8.3917   -6.0167    0.0000 C   0  0  0  0  0  0  0  0  0  0  0  0
    3.5792   -3.8625    0.0000 C   0  0  0  0  0  0  0  0  0  0  0  0
    3.1167   -5.2167    0.0000 C   0  0  0  0  0  0  0  0  0  0  0  0
    4.5292   -4.9292    0.0000 C   0  0  0  0  0  0  0  0  0  0  0  0
    2.1792   -4.1417    0.0000 C   0  0  0  0  0  0  0  0  0  0  0  0
    3.9167   -5.4792    0.0000 C   0  0  0  0  0  0  0  0  0  0  0  0
    4.3542   -4.1167    0.0000 C   0  0  0  0  0  0  0  0  0  0  0  0
    7.7417   -7.7792    0.0000 C   0  0  0  0  0  0  0  0  0  0  0  0
    6.1042   -7.7667    0.0000 C   0  0  0  0  0  0  0  0  0  0  0  0
    6.5042   -8.4875    0.0000 C   0  0  0  0  0  0  0  0  0  0  0  0
    7.3292   -8.4917    0.0000 C   0  0  0  0  0  0  0  0  0  0  0  0
  2  3  2  0  0  0  0
  2  5  1  0  0  0  0
  3  1  1  0  0  0  0
  4  1  1  0  0  0  0
  5  4  1  0  0  0  0
  6 12  2  0  0  0  0
  6 13  1  0  0  0  0
  7  2  1  0  0  0  0
  8 11  1  0  0  0  0
  9  8  3  0  0  0  0
 10  7  2  0  0  0  0
 11  1  1  0  0  0  0
 12 17  1  0  0  0  0
 13 16  2  0  0  0  0
 14 10  1  0  0  0  0
 15  6  1  0  0  0  0
 16 14  1  0  0  0  0
 17 14  2  0  0  0  0
 18  4  2  0  0  0  0
 19  5  2  0  0  0  0
 20 21  2  0  0  0  0
 20 19  1  0  0  0  0
 21 18  1  0  0  0  0
M  END
> <CdId>
390

> <Mol Weight>
273.3517

> <Formula>
C19H17N2

> <Click_ID>
CLK005_G11 __ __ 

$$$$
