CLK046C09
 OpenBabel03181419432D

 29 31  0  0  0  0  0  0  0  0999 V2000
   -0.5667   -1.9458    0.0000 C    0  0  0  0  0  0  0  0  0  0  0  0
   -0.5667   -4.4208    0.0000 C    0  0  0  0  0  0  0  0  0  0  0  0
   -0.5667   -3.5958    0.0000 C    0  0  0  0  0  0  0  0  0  0  0  0
    0.1458   -2.3583    0.0000 N    0  0  0  0  0  0  0  0  0  0  0  0
   -0.5667   -1.1208    0.0000 N    0  0  0  0  0  0  0  0  0  0  0  0
   -0.5667    0.5292    0.0000 N    0  0  0  0  0  0  0  0  0  0  0  0
   -1.2833   -2.3583    0.0000 C    0  0  0  0  0  0  0  0  0  0  0  0
   -0.5667    1.3542    0.0000 C    0  0  0  0  0  0  0  0  0  0  0  0
   -1.2833   -3.1833    0.0000 C    0  0  0  0  0  0  0  0  0  0  0  0
    1.5750    5.0625    0.0000 C    0  0  0  0  0  0  0  0  0  0  0  0
    0.1458   -3.1833    0.0000 C    0  0  0  0  0  0  0  0  0  0  0  0
    1.5750    5.8875    0.0000 C    0  0  0  0  0  0  0  0  0  0  0  0
   -1.2833   -0.7083    0.0000 C    0  0  0  0  0  0  0  0  0  0  0  0
    0.1458   -0.7083    0.0000 C    0  0  0  0  0  0  0  0  0  0  0  0
    0.1458    0.1167    0.0000 C    0  0  0  0  0  0  0  0  0  0  0  0
   -1.2833    0.1167    0.0000 C    0  0  0  0  0  0  0  0  0  0  0  0
    0.1458    1.7667    0.0000 C    0  0  0  0  0  0  0  0  0  0  0  0
    0.1458    2.5917    0.0000 N    0  0  0  0  0  0  0  0  0  0  0  0
   -1.2833    1.7667    0.0000 O    0  0  0  0  0  0  0  0  0  0  0  0
    0.2583   -4.4208    0.0000 F    0  0  0  0  0  0  0  0  0  0  0  0
   -1.3917   -4.4208    0.0000 F    0  0  0  0  0  0  0  0  0  0  0  0
   -0.5667   -5.2458    0.0000 F    0  0  0  0  0  0  0  0  0  0  0  0
    1.5750    4.2375    0.0000 C    0  0  0  0  0  0  0  0  0  0  0  0
   -1.9958   -1.9458    0.0000 Cl   0  0  0  0  0  0  0  0  0  0  0  0
    0.8583    3.0042    0.0000 C    0  0  0  0  0  0  0  0  0  0  0  0
    0.8583    3.8292    0.0000 C    0  0  0  0  0  0  0  0  0  0  0  0
    2.2875    3.0042    0.0000 C    0  0  0  0  0  0  0  0  0  0  0  0
    2.2875    3.8292    0.0000 C    0  0  0  0  0  0  0  0  0  0  0  0
    1.5750    2.5917    0.0000 C    0  0  0  0  0  0  0  0  0  0  0  0
  2  3  1  0  0  0  0
  3  9  2  0  0  0  0
  4  1  1  0  0  0  0
  5  1  1  0  0  0  0
  6 16  1  0  0  0  0
  6 15  1  0  0  0  0
  7  1  2  0  0  0  0
  8  6  1  0  0  0  0
  9  7  1  0  0  0  0
 10 23  1  0  0  0  0
 11  4  2  0  0  0  0
 11  3  1  0  0  0  0
 12 10  3  0  0  0  0
 13  5  1  0  0  0  0
 14  5  1  0  0  0  0
 15 14  1  0  0  0  0
 16 13  1  0  0  0  0
 17  8  1  0  0  0  0
 18 17  1  0  0  0  0
 19  8  2  0  0  0  0
 20  2  1  0  0  0  0
 21  2  1  0  0  0  0
 22  2  1  0  0  0  0
 23 26  1  0  0  0  0
 24  7  1  0  0  0  0
 25 18  1  0  0  0  0
 26 25  2  0  0  0  0
 27 29  2  0  0  0  0
 28 23  2  0  0  0  0
 28 27  1  0  0  0  0
 29 25  1  0  0  0  0
M  END
> <CdId>
3547

> <Mol Weight>
422.831

> <Formula>
C20H18ClF3N4O

> <Click_ID>
CLK046C09 __ __ 

$$$$
