CLK042D05
 OpenBabel03181419432D

 17 17  0  0  0  0  0  0  0  0999 V2000
    0.2500   -2.3750    0.0000 S   0  0  0  0  0  0  0  0  0  0  0  0
   -0.4625    1.3375    0.0000 C   0  0  0  0  0  0  0  0  0  0  0  0
    0.9625    2.9875    0.0000 C   0  0  0  0  0  0  0  0  0  0  0  0
    1.6792    3.4000    0.0000 C   0  0  0  0  0  0  0  0  0  0  0  0
   -0.4625    0.5125    0.0000 C   0  0  0  0  0  0  0  0  0  0  0  0
   -0.1625   -3.0917    0.0000 O   0  0  0  0  0  0  0  0  0  0  0  0
    0.9625   -2.7875    0.0000 O   0  0  0  0  0  0  0  0  0  0  0  0
   -0.4625   -1.9625    0.0000 C   0  0  0  0  0  0  0  0  0  0  0  0
   -1.1792    1.7500    0.0000 O   0  0  0  0  0  0  0  0  0  0  0  0
    0.2500    1.7500    0.0000 N   0  0  0  0  0  0  0  0  0  0  0  0
   -1.1792    0.1000    0.0000 C   0  0  0  0  0  0  0  0  0  0  0  0
    0.2500    0.1000    0.0000 C   0  0  0  0  0  0  0  0  0  0  0  0
   -0.4625   -1.1375    0.0000 C   0  0  0  0  0  0  0  0  0  0  0  0
    0.6625   -1.6625    0.0000 C   0  0  0  0  0  0  0  0  0  0  0  0
   -1.1792   -0.7250    0.0000 C   0  0  0  0  0  0  0  0  0  0  0  0
    0.2500   -0.7250    0.0000 C   0  0  0  0  0  0  0  0  0  0  0  0
    0.2500    2.5750    0.0000 C   0  0  0  0  0  0  0  0  0  0  0  0
  2  5  1  0  0  0  0
  3 17  1  0  0  0  0
  4  3  3  0  0  0  0
  5 11  2  0  0  0  0
  5 12  1  0  0  0  0
  6  1  2  0  0  0  0
  7  1  2  0  0  0  0
  8  1  1  0  0  0  0
  9  2  2  0  0  0  0
 10  2  1  0  0  0  0
 11 15  1  0  0  0  0
 12 16  2  0  0  0  0
 13  8  1  0  0  0  0
 14  1  1  0  0  0  0
 15 13  2  0  0  0  0
 16 13  1  0  0  0  0
 17 10  1  0  0  0  0
M  END
> <CdId>
3196

> <Mol Weight>
251.302

> <Formula>
C12H13NO3S

> <Click_ID>
CLK042D05 __ __ 

$$$$
