CLK008_E04
 OpenBabel03181419432D

 27 29  0  0  0  0  0  0  0  0999 V2000
    0.0689   -1.9683    0.0000 C   0  0  0  0  0  0  0  0  0  0  0  0
    0.0757   -2.8011    0.0000 C   0  0  0  0  0  0  0  0  0  0  0  0
   -0.5678   -1.4659    0.0000 N   0  0  0  0  0  0  0  0  0  0  0  0
    0.7536   -1.5209    0.0000 O   0  0  0  0  0  0  0  0  0  0  0  0
   -0.6435   -3.2105    0.0000 C   0  0  0  0  0  0  0  0  0  0  0  0
    0.7881   -3.2105    0.0000 C   0  0  0  0  0  0  0  0  0  0  0  0
   -0.2718   -0.6917    0.0000 C   0  0  0  0  0  0  0  0  0  0  0  0
    0.5368   -0.7295    0.0000 C   0  0  0  0  0  0  0  0  0  0  0  0
   -0.6435   -4.0399    0.0000 C   0  0  0  0  0  0  0  0  0  0  0  0
    0.7777   -4.0399    0.0000 C   0  0  0  0  0  0  0  0  0  0  0  0
   -0.7295    0.0069    0.0000 C   0  0  0  0  0  0  0  0  0  0  0  0
    1.0495   -0.0722    0.0000 O   0  0  0  0  0  0  0  0  0  0  0  0
    0.0689   -4.4528    0.0000 C   0  0  0  0  0  0  0  0  0  0  0  0
   -0.3476    0.7432    0.0000 C   0  0  0  0  0  0  0  0  0  0  0  0
    0.0689   -5.2752    0.0000 F   0  0  0  0  0  0  0  0  0  0  0  0
   -0.8052    1.4418    0.0000 C   0  0  0  0  0  0  0  0  0  0  0  0
    0.4680    0.7914    0.0000 C   0  0  0  0  0  0  0  0  0  0  0  0
   -0.4301    2.1783    0.0000 C   0  0  0  0  0  0  0  0  0  0  0  0
    0.8499    1.5244    0.0000 C   0  0  0  0  0  0  0  0  0  0  0  0
    0.3923    2.2230    0.0000 C   0  0  0  0  0  0  0  0  0  0  0  0
   -0.8810    2.8595    0.0000 O   0  0  0  0  0  0  0  0  0  0  0  0
    0.7674    2.9593    0.0000 O   0  0  0  0  0  0  0  0  0  0  0  0
   -1.7033    2.8182    0.0000 C   0  0  0  0  0  0  0  0  0  0  0  0
    0.3165    3.6441    0.0000 C   0  0  0  0  0  0  0  0  0  0  0  0
   -2.1541    3.5065    0.0000 C   0  0  0  0  0  0  0  0  0  0  0  0
    0.6917    4.3737    0.0000 C   0  0  0  0  0  0  0  0  0  0  0  0
    1.5140    4.4149    0.0000 C   0  0  0  0  0  0  0  0  0  0  0  0
  1  2  1  0  0  0  0
  1  3  2  0  0  0  0
  1  4  1  0  0  0  0
  2  5  2  0  0  0  0
  2  6  1  0  0  0  0
  3  7  1  0  0  0  0
  4  8  1  0  0  0  0
  5  9  1  0  0  0  0
  6 10  2  0  0  0  0
  7 11  2  0  0  0  0
  7  8  1  0  0  0  0
  8 12  2  0  0  0  0
  9 13  2  0  0  0  0
 10 13  1  0  0  0  0
 11 14  1  0  0  0  0
 13 15  1  0  0  0  0
 14 16  1  0  0  0  0
 14 17  2  0  0  0  0
 16 18  2  0  0  0  0
 17 19  1  0  0  0  0
 18 20  1  0  0  0  0
 18 21  1  0  0  0  0
 19 20  2  0  0  0  0
 20 22  1  0  0  0  0
 21 23  1  0  0  0  0
 22 24  1  0  0  0  0
 23 25  1  0  0  0  0
 24 26  1  0  0  0  0
 26 27  3  0  0  0  0
M  END
> <CdId>
583

> <Mol Weight>
365.3544

> <Formula>
C21H16FNO4

> <Click_ID>
CLK008_E04 __ __ 

$$$$
