CLK049G02
 OpenBabel03181419432D

 19 20  0  0  0  0  0  0  0  0999 V2000
    0.3000    0.2625    0.0000 C   0  0  0  0  0  0  0  0  0  0  0  0
    1.0125    0.6750    0.0000 C   0  0  0  0  0  0  0  0  0  0  0  0
    1.7292    0.2625    0.0000 C   0  0  0  0  0  0  0  0  0  0  0  0
   -0.4167    0.6750    0.0000 N   0  0  0  0  0  0  0  0  0  0  0  0
   -1.8458   -1.8000    0.0000 C   0  0  0  0  0  0  0  0  0  0  0  0
   -1.8458   -2.6250    0.0000 C   0  0  0  0  0  0  0  0  0  0  0  0
    2.4417    0.6750    0.0000 N   0  0  0  0  0  0  0  0  0  0  0  0
    0.3000   -0.5625    0.0000 O   0  0  0  0  0  0  0  0  0  0  0  0
   -1.1292    0.2625    0.0000 C   0  0  0  0  0  0  0  0  0  0  0  0
   -1.8458   -0.9750    0.0000 C   0  0  0  0  0  0  0  0  0  0  0  0
   -1.1292   -0.5625    0.0000 C   0  0  0  0  0  0  0  0  0  0  0  0
    1.7292   -0.5625    0.0000 O   0  0  0  0  0  0  0  0  0  0  0  0
    1.0125    1.5000    0.0000 C   0  0  0  0  0  0  0  0  0  0  0  0
   -2.5583    0.2625    0.0000 C   0  0  0  0  0  0  0  0  0  0  0  0
    2.4417    1.5000    0.0000 C   0  0  0  0  0  0  0  0  0  0  0  0
   -1.8458    0.6750    0.0000 C   0  0  0  0  0  0  0  0  0  0  0  0
   -2.5583   -0.5625    0.0000 C   0  0  0  0  0  0  0  0  0  0  0  0
    2.4417   -0.9750    0.0000 C   0  0  0  0  0  0  0  0  0  0  0  0
    1.7292    1.9125    0.0000 C   0  0  0  0  0  0  0  0  0  0  0  0
  2  1  1  0  0  0  0
  3  2  2  0  0  0  0
  4  1  1  0  0  0  0
  5 10  1  0  0  0  0
  6  5  3  0  0  0  0
  7  3  1  0  0  0  0
  8  1  2  0  0  0  0
  9  4  1  0  0  0  0
 10 11  1  0  0  0  0
 11  9  2  0  0  0  0
 12  3  1  0  0  0  0
 13  2  1  0  0  0  0
 14 16  2  0  0  0  0
 15  7  2  0  0  0  0
 16  9  1  0  0  0  0
 17 10  2  0  0  0  0
 17 14  1  0  0  0  0
 18 12  1  0  0  0  0
 19 13  2  0  0  0  0
 19 15  1  0  0  0  0
M  END
> <CdId>
3735

> <Mol Weight>
252.268

> <Formula>
C15H12N2O2

> <Click_ID>
CLK049G02 __ __ 

$$$$
