CLK003_G09
 OpenBabel03181419432D

 33 36  0  0  0  0  0  0  0  0999 V2000
    0.9407   -0.3346    0.0000 C   0  0  3  0  0  0  0  0  0  0  0  0
    0.3535   -0.9134    0.0000 N   0  0  0  0  0  0  0  0  0  0  0  0
    1.7383   -0.5577    0.0000 C   0  0  0  0  0  0  0  0  0  0  0  0
    0.7386    0.4630    0.0000 C   0  0  0  0  0  0  0  0  0  0  0  0
   -0.4440   -0.6924    0.0000 C   0  0  0  0  0  0  0  0  0  0  0  0
    0.5619   -1.7088    0.0000 C   0  0  0  0  0  0  0  0  0  0  0  0
    2.3296    0.0231    0.0000 C   0  0  0  0  0  0  0  0  0  0  0  0
    1.9445   -1.3510    0.0000 C   0  0  0  0  0  0  0  0  0  0  0  0
    1.3258    1.0417    0.0000 N   0  0  0  0  0  0  0  0  0  0  0  0
   -0.0590    0.6839    0.0000 O   0  0  0  0  0  0  0  0  0  0  0  0
   -0.6503    0.1052    0.0000 C   0  0  0  0  0  0  0  0  0  0  0  0
   -1.0312   -1.2690    0.0000 C   0  0  0  0  0  0  0  0  0  0  0  0
   -0.0316   -2.2875    0.0000 C   0  0  0  0  0  0  0  0  0  0  0  0
    1.3531   -1.9298    0.0000 O   0  0  0  0  0  0  0  0  0  0  0  0
    3.1209   -0.2041    0.0000 C   0  0  0  0  0  0  0  0  0  0  0  0
    2.1234    0.8228    0.0000 F   0  0  0  0  0  0  0  0  0  0  0  0
    2.7442   -1.5720    0.0000 C   0  0  0  0  0  0  0  0  0  0  0  0
    1.1196    1.8413    0.0000 C   0  0  0  0  0  0  0  0  0  0  0  0
   -1.4436    0.3262    0.0000 C   0  0  0  0  0  0  0  0  0  0  0  0
   -1.8266   -1.0501    0.0000 C   0  0  0  0  0  0  0  0  0  0  0  0
   -0.6187   -2.8704    0.0000 C   0  0  0  0  0  0  0  0  0  0  0  0
    3.3292   -0.9975    0.0000 C   0  0  0  0  0  0  0  0  0  0  0  0
    0.3515    2.1444    0.0000 C   0  0  0  0  0  0  0  0  0  0  0  0
    1.6457    2.4811    0.0000 C   0  0  0  0  0  0  0  0  0  0  0  0
   -2.0350   -0.2525    0.0000 C   0  0  0  0  0  0  0  0  0  0  0  0
   -1.6498    1.1238    0.0000 C   0  0  0  0  0  0  0  0  0  0  0  0
    0.4019    2.9693    0.0000 C   0  0  0  0  0  0  0  0  0  0  0  0
    1.2016    3.1755    0.0000 C   0  0  0  0  0  0  0  0  0  0  0  0
   -2.8326   -0.0316    0.0000 N   0  0  0  0  0  0  0  0  0  0  0  0
   -3.4744   -0.5472    0.0000 C   0  0  0  0  0  0  0  0  0  0  0  0
   -3.1167    0.7428    0.0000 N   0  0  0  0  0  0  0  0  0  0  0  0
   -4.1626   -0.0863    0.0000 N   0  0  0  0  0  0  0  0  0  0  0  0
   -3.9437    0.7092    0.0000 N   0  0  0  0  0  0  0  0  0  0  0  0
  1  2  1  0  0  0  0
  1  3  1  0  0  0  0
  1  4  1  0  0  0  0
  2  5  1  0  0  0  0
  2  6  1  0  0  0  0
  3  7  2  0  0  0  0
  3  8  1  0  0  0  0
  4  9  1  0  0  0  0
  4 10  2  0  0  0  0
  5 11  1  0  0  0  0
  5 12  2  0  0  0  0
  6 13  1  0  0  0  0
  6 14  2  0  0  0  0
  7 15  1  0  0  0  0
  7 16  1  0  0  0  0
  8 17  2  0  0  0  0
  9 18  1  0  0  0  0
 11 19  2  0  0  0  0
 12 20  1  0  0  0  0
 13 21  3  0  0  0  0
 15 22  2  0  0  0  0
 17 22  1  0  0  0  0
 18 23  1  0  0  0  0
 18 24  1  0  0  0  0
 19 25  1  0  0  0  0
 19 26  1  0  0  0  0
 20 25  2  0  0  0  0
 23 27  1  0  0  0  0
 24 28  1  0  0  0  0
 25 29  1  0  0  0  0
 27 28  1  0  0  0  0
 29 30  1  0  0  0  0
 29 31  1  0  0  0  0
 30 32  2  0  0  0  0
 31 33  2  0  0  0  0
 32 33  1  0  0  0  0
M  END
> <CdId>
228

> <Mol Weight>
446.4768

> <Formula>
C24H23FN6O2

> <Click_ID>
CLK003_G09 __ __ 

$$$$
