CLK043C10
 OpenBabel03181419432D

 28 30  0  0  0  0  0  0  0  0999 V2000
    3.3417   -1.0125    0.0000 S   0  0  0  0  0  0  0  0  0  0  0  0
    0.4833    0.6375    0.0000 C   0  0  0  0  0  0  0  0  0  0  0  0
    2.6250   -0.6000    0.0000 C   0  0  0  0  0  0  0  0  0  0  0  0
   -3.8042    0.6375    0.0000 C   0  0  0  0  0  0  0  0  0  0  0  0
    4.7708   -2.6625    0.0000 C   0  0  0  0  0  0  0  0  0  0  0  0
    5.4833   -3.0750    0.0000 C   0  0  0  0  0  0  0  0  0  0  0  0
    3.7542   -0.3000    0.0000 O   0  0  0  0  0  0  0  0  0  0  0  0
    2.9292   -1.7292    0.0000 O   0  0  0  0  0  0  0  0  0  0  0  0
   -3.8042    1.4625    0.0000 C   0  0  0  0  0  0  0  0  0  0  0  0
    1.1958    0.2250    0.0000 C   0  0  0  0  0  0  0  0  0  0  0  0
    4.0542   -1.4250    0.0000 N   0  0  0  0  0  0  0  0  0  0  0  0
   -4.5167    0.2250    0.0000 O   0  0  0  0  0  0  0  0  0  0  0  0
   -3.0875    0.2250    0.0000 C   0  0  0  0  0  0  0  0  0  0  0  0
   -4.5167    1.8750    0.0000 O   0  0  0  0  0  0  0  0  0  0  0  0
    0.4833    1.4625    0.0000 O   0  0  0  0  0  0  0  0  0  0  0  0
    1.9125   -1.0125    0.0000 C   0  0  0  0  0  0  0  0  0  0  0  0
    2.6250    0.2250    0.0000 C   0  0  0  0  0  0  0  0  0  0  0  0
    1.1958   -0.6000    0.0000 C   0  0  0  0  0  0  0  0  0  0  0  0
    1.9125    0.6375    0.0000 C   0  0  0  0  0  0  0  0  0  0  0  0
   -0.2333    0.2250    0.0000 N   0  0  0  0  0  0  0  0  0  0  0  0
   -3.0875    1.8750    0.0000 C   0  0  0  0  0  0  0  0  0  0  0  0
   -2.3750    0.6375    0.0000 C   0  0  0  0  0  0  0  0  0  0  0  0
   -2.3750    1.4625    0.0000 C   0  0  0  0  0  0  0  0  0  0  0  0
    4.0542   -2.2500    0.0000 C   0  0  0  0  0  0  0  0  0  0  0  0
   -0.9458    0.6375    0.0000 C   0  0  0  0  0  0  0  0  0  0  0  0
   -5.2333    0.6375    0.0000 C   0  0  0  0  0  0  0  0  0  0  0  0
   -5.2333    1.4625    0.0000 C   0  0  0  0  0  0  0  0  0  0  0  0
   -1.6625    0.2250    0.0000 C   0  0  0  0  0  0  0  0  0  0  0  0
  2 10  1  0  0  0  0
  3  1  1  0  0  0  0
  4 13  1  0  0  0  0
  5 24  1  0  0  0  0
  6  5  3  0  0  0  0
  7  1  2  0  0  0  0
  8  1  2  0  0  0  0
  9  4  2  0  0  0  0
  9 21  1  0  0  0  0
 10 19  2  0  0  0  0
 11  1  1  0  0  0  0
 12  4  1  0  0  0  0
 13 22  2  0  0  0  0
 14  9  1  0  0  0  0
 15  2  2  0  0  0  0
 16  3  1  0  0  0  0
 17  3  2  0  0  0  0
 18 16  2  0  0  0  0
 18 10  1  0  0  0  0
 19 17  1  0  0  0  0
 20  2  1  0  0  0  0
 21 23  2  0  0  0  0
 22 28  1  0  0  0  0
 23 22  1  0  0  0  0
 24 11  1  0  0  0  0
 25 20  1  0  0  0  0
 26 12  1  0  0  0  0
 26 27  1  0  0  0  0
 27 14  1  0  0  0  0
 28 25  1  0  0  0  0
M  END
> <CdId>
3315

> <Mol Weight>
400.448

> <Formula>
C20H20N2O5S

> <Click_ID>
CLK043C10 __ __ 

$$$$
