CLK014_H04
 OpenBabel03181419432D

 27 28  0  0  0  0  0  0  0  0999 V2000
    1.5677   -0.8172    0.0000 N    0  0  0  0  0  0  0  0  0  0  0  0
    1.8262   -1.6052    0.0000 C    0  0  0  0  0  0  0  0  0  0  0  0
    2.2389   -0.3294    0.0000 C    0  0  0  0  0  0  0  0  0  0  0  0
    2.9061   -0.8172    0.0000 C    0  0  0  0  0  0  0  0  0  0  0  0
    2.6517   -1.6052    0.0000 S    0  0  0  0  0  0  0  0  0  0  0  0
    4.1944    1.8595    0.0000 C    0  0  0  0  0  0  0  0  0  0  0  0
    3.6941   -0.5629    0.0000 C    0  0  0  0  0  0  0  0  0  0  0  0
    4.7948    1.3091    0.0000 C    0  0  0  0  0  0  0  0  0  0  0  0
    3.4189    1.6010    0.0000 C    0  0  0  0  0  0  0  0  0  0  0  0
    3.8567    0.2460    0.0000 C    0  0  0  0  0  0  0  0  0  0  0  0
    4.3695    2.6600    0.0000 O    0  0  0  0  0  0  0  0  0  0  0  0
    0.6129    0.2460    0.0000 C    0  0  0  0  0  0  0  0  0  0  0  0
    0.3920    1.0465    0.0000 C    0  0  0  0  0  0  0  0  0  0  0  0
    1.3384   -2.2681    0.0000 O    0  0  0  0  0  0  0  0  0  0  0  0
    4.6322    0.5086    0.0000 C    0  0  0  0  0  0  0  0  0  0  0  0
    2.2306    0.4961    0.0000 O    0  0  0  0  0  0  0  0  0  0  0  0
    3.2396    0.7963    0.0000 C    0  0  0  0  0  0  0  0  0  0  0  0
    5.3326    3.7107    0.0000 C    0  0  0  0  0  0  0  0  0  0  0  0
    0.7880   -0.5629    0.0000 C    0  0  0  0  0  0  0  0  0  0  0  0
    4.7322    4.2569    0.0000 O    0  0  0  0  0  0  0  0  0  0  0  0
    5.1533    2.8977    0.0000 C    0  0  0  0  0  0  0  0  0  0  0  0
    5.5828    1.5593    0.0000 Cl   0  0  0  0  0  0  0  0  0  0  0  0
    2.8143    2.1472    0.0000 O    0  0  0  0  0  0  0  0  0  0  0  0
    6.1206    3.9608    0.0000 O    0  0  0  0  0  0  0  0  0  0  0  0
    6.2832    4.7572    0.0000 C    0  0  0  0  0  0  0  0  0  0  0  0
    2.0388    1.8970    0.0000 C    0  0  0  0  0  0  0  0  0  0  0  0
    7.0712    4.9949    0.0000 C    0  0  0  0  0  0  0  0  0  0  0  0
  2  1  1  0  0  0  0
  3  1  1  0  0  0  0
  4  3  1  0  0  0  0
  4  5  1  0  0  0  0
  5  2  1  0  0  0  0
  6  9  2  0  0  0  0
  6  8  1  0  0  0  0
  7  4  2  0  0  0  0
  8 15  2  0  0  0  0
  9 17  1  0  0  0  0
 10  7  1  0  0  0  0
 11  6  1  0  0  0  0
 12 19  1  0  0  0  0
 13 12  3  0  0  0  0
 14  2  2  0  0  0  0
 15 10  1  0  0  0  0
 16  3  2  0  0  0  0
 17 10  2  0  0  0  0
 18 21  1  0  0  0  0
 19  1  1  0  0  0  0
 20 18  2  0  0  0  0
 21 11  1  0  0  0  0
 22  8  1  0  0  0  0
 23  9  1  0  0  0  0
 24 18  1  0  0  0  0
 25 24  1  0  0  0  0
 26 23  1  0  0  0  0
 27 25  1  0  0  0  0
M  END
> <CdId>
1069

> <Mol Weight>
409.841

> <Formula>
C18H16ClNO6S

> <Click_ID>
CLK014_H04 __ __ 

$$$$
