CLK006_C08
 OpenBabel03181419432D

 22 24  0  0  0  0  0  0  0  0999 V2000
    4.9792   -5.8792    0.0000 C    0  0  0  0  0  0  0  0  0  0  0  0
    4.5000   -5.2167    0.0000 N    0  0  0  0  0  0  0  0  0  0  0  0
    4.5000   -6.5542    0.0000 N    0  0  0  0  0  0  0  0  0  0  0  0
    3.7167   -6.3000    0.0000 C    0  0  0  0  0  0  0  0  0  0  0  0
    3.7167   -5.4750    0.0000 C    0  0  0  0  0  0  0  0  0  0  0  0
    4.2000   -7.9500    0.0000 C    0  0  0  0  0  0  0  0  0  0  0  0
    7.4625   -5.8792    0.0000 C    0  0  0  0  0  0  0  0  0  0  0  0
    3.6417   -8.5542    0.0000 C    0  0  0  0  0  0  0  0  0  0  0  0
    8.2917   -5.8792    0.0000 C    0  0  0  0  0  0  0  0  0  0  0  0
    5.8042   -5.8792    0.0000 C    0  0  0  0  0  0  0  0  0  0  0  0
    7.0500   -5.1667    0.0000 C    0  0  0  0  0  0  0  0  0  0  0  0
    6.2167   -5.1667    0.0000 O    0  0  0  0  0  0  0  0  0  0  0  0
    4.7542   -7.3417    0.0000 C    0  0  0  0  0  0  0  0  0  0  0  0
    7.4625   -4.4458    0.0000 C    0  0  0  0  0  0  0  0  0  0  0  0
    8.7042   -5.1667    0.0000 C    0  0  0  0  0  0  0  0  0  0  0  0
    7.0375   -6.6000    0.0000 Cl   0  0  0  0  0  0  0  0  0  0  0  0
    8.2917   -4.4458    0.0000 C    0  0  0  0  0  0  0  0  0  0  0  0
    9.5292   -5.1667    0.0000 Cl   0  0  0  0  0  0  0  0  0  0  0  0
    3.0042   -6.7125    0.0000 C    0  0  0  0  0  0  0  0  0  0  0  0
    3.0042   -5.0625    0.0000 C    0  0  0  0  0  0  0  0  0  0  0  0
    2.2875   -6.3000    0.0000 C    0  0  0  0  0  0  0  0  0  0  0  0
    2.2875   -5.4750    0.0000 C    0  0  0  0  0  0  0  0  0  0  0  0
  2  1  2  0  0  0  0
  3  1  1  0  0  0  0
  4  3  1  0  0  0  0
  5  2  1  0  0  0  0
  5  4  1  0  0  0  0
  6 13  1  0  0  0  0
  7 11  2  0  0  0  0
  8  6  3  0  0  0  0
  9  7  1  0  0  0  0
 10  1  1  0  0  0  0
 11 12  1  0  0  0  0
 12 10  1  0  0  0  0
 13  3  1  0  0  0  0
 14 11  1  0  0  0  0
 15 17  1  0  0  0  0
 15  9  2  0  0  0  0
 16  7  1  0  0  0  0
 17 14  2  0  0  0  0
 18 15  1  0  0  0  0
 19  4  2  0  0  0  0
 20  5  2  0  0  0  0
 21 19  1  0  0  0  0
 22 20  1  0  0  0  0
 22 21  2  0  0  0  0
M  END
> <CdId>
427

> <Mol Weight>
331.196

> <Formula>
C17H12Cl2N2O

> <Click_ID>
CLK006_C08 __ __ 

$$$$
