CLK013_E11
 OpenBabel03181419432D

 29 31  0  0  0  0  0  0  0  0999 V2000
    1.5716   -0.8192    0.0000 N    0  0  0  0  0  0  0  0  0  0  0  0
    1.8307   -1.6092    0.0000 C    0  0  0  0  0  0  0  0  0  0  0  0
    2.2445   -0.3302    0.0000 C    0  0  0  0  0  0  0  0  0  0  0  0
    2.9132   -0.8192    0.0000 C    0  0  0  0  0  0  0  0  0  0  0  0
    2.6583   -1.6092    0.0000 S    0  0  0  0  0  0  0  0  0  0  0  0
    5.8933    6.0981    0.0000 N    0  0  0  0  0  0  0  0  0  0  0  0
    3.7032   -0.5643    0.0000 C    0  0  0  0  0  0  0  0  0  0  0  0
    0.6144    0.2466    0.0000 C    0  0  0  0  0  0  0  0  0  0  0  0
    5.7094    5.2956    0.0000 C    0  0  0  0  0  0  0  0  0  0  0  0
    0.3929    1.0491    0.0000 C    0  0  0  0  0  0  0  0  0  0  0  0
    4.8149    1.2915    0.0000 C    0  0  0  0  0  0  0  0  0  0  0  0
    6.6749    6.3364    0.0000 O    0  0  0  0  0  0  0  0  0  0  0  0
    1.3417   -2.2738    0.0000 O    0  0  0  0  0  0  0  0  0  0  0  0
    5.2831    6.6582    0.0000 O    0  0  0  0  0  0  0  0  0  0  0  0
    2.2361    0.4973    0.0000 O    0  0  0  0  0  0  0  0  0  0  0  0
    4.2131    1.8515    0.0000 C    0  0  0  0  0  0  0  0  0  0  0  0
    3.8662    0.2382    0.0000 C    0  0  0  0  0  0  0  0  0  0  0  0
    0.7900   -0.5643    0.0000 C    0  0  0  0  0  0  0  0  0  0  0  0
    4.6436    0.4973    0.0000 C    0  0  0  0  0  0  0  0  0  0  0  0
    4.3886    2.6540    0.0000 O    0  0  0  0  0  0  0  0  0  0  0  0
    4.9320    5.0449    0.0000 C    0  0  0  0  0  0  0  0  0  0  0  0
    6.3113    4.7314    0.0000 C    0  0  0  0  0  0  0  0  0  0  0  0
    3.4273    1.6008    0.0000 C    0  0  0  0  0  0  0  0  0  0  0  0
    5.6091    1.5423    0.0000 Br   0  0  0  0  0  0  0  0  0  0  0  0
    3.2518    0.7900    0.0000 C    0  0  0  0  0  0  0  0  0  0  0  0
    5.1786    2.8923    0.0000 C    0  0  0  0  0  0  0  0  0  0  0  0
    5.3583    3.6990    0.0000 C    0  0  0  0  0  0  0  0  0  0  0  0
    6.1357    3.9372    0.0000 C    0  0  0  0  0  0  0  0  0  0  0  0
    4.7397    4.2424    0.0000 C    0  0  0  0  0  0  0  0  0  0  0  0
  2  1  1  0  0  0  0
  3  1  1  0  0  0  0
  4  3  1  0  0  0  0
  4  5  1  0  0  0  0
  5  2  1  0  0  0  0
  6  9  1  0  0  0  0
  7  4  2  0  0  0  0
  8 18  1  0  0  0  0
  9 21  1  0  0  0  0
  9 22  2  0  0  0  0
 10  8  3  0  0  0  0
 11 19  2  0  0  0  0
 12  6  1  0  0  0  0
 13  2  2  0  0  0  0
 14  6  2  0  0  0  0
 15  3  2  0  0  0  0
 16 23  2  0  0  0  0
 16 11  1  0  0  0  0
 17  7  1  0  0  0  0
 18  1  1  0  0  0  0
 19 17  1  0  0  0  0
 20 16  1  0  0  0  0
 21 29  2  0  0  0  0
 22 28  1  0  0  0  0
 23 25  1  0  0  0  0
 24 11  1  0  0  0  0
 25 17  2  0  0  0  0
 26 20  1  0  0  0  0
 27 26  1  0  0  0  0
 28 27  2  0  0  0  0
 29 27  1  0  0  0  0
M  END
> <CdId>
966

> <Mol Weight>
473.297

> <Formula>
C20H13BrN2O5S

> <Click_ID>
CLK013_E11 __ __ 

$$$$
