CLK029_D03
 OpenBabel03181419432D

 27 29  0  0  0  0  0  0  0  0999 V2000
   -1.1750    0.9659    0.0000 C   0  0  0  0  0  0  0  0  0  0  0  0
   -1.6642    0.2969    0.0000 N   0  0  0  0  0  0  0  0  0  0  0  0
   -0.3470    0.9659    0.0000 N   0  0  0  0  0  0  0  0  0  0  0  0
   -1.6642    1.6391    0.0000 S   0  0  0  0  0  0  0  0  0  0  0  0
   -2.4545    0.5520    0.0000 C   0  0  0  0  0  0  0  0  0  0  0  0
   -2.4545    1.3799    0.0000 C   0  0  0  0  0  0  0  0  0  0  0  0
    2.0490    1.6391    0.0000 N   0  0  0  0  0  0  0  0  0  0  0  0
    2.2580    2.4337    0.0000 C   0  0  0  0  0  0  0  0  0  0  0  0
   -0.1338    1.7688    0.0000 C   0  0  0  0  0  0  0  0  0  0  0  0
   -0.6021   -0.6565    0.0000 C   0  0  0  0  0  0  0  0  0  0  0  0
   -0.0502   -0.0418    0.0000 C   0  0  0  0  0  0  0  0  0  0  0  0
    3.0526    2.6553    0.0000 O   0  0  0  0  0  0  0  0  0  0  0  0
   -1.4050   -0.4809    0.0000 C   0  0  0  0  0  0  0  0  0  0  0  0
   -0.7234    2.3542    0.0000 O   0  0  0  0  0  0  0  0  0  0  0  0
    1.6099    0.0460    0.0000 O   0  0  0  0  0  0  0  0  0  0  0  0
    0.8698    2.7933    0.0000 S   0  0  0  0  0  0  0  0  0  0  0  0
    1.6684    3.0107    0.0000 C   0  0  0  0  0  0  0  0  0  0  0  0
    0.6565    1.9904    0.0000 C   0  0  0  0  0  0  0  0  0  0  0  0
    1.2461    1.4259    0.0000 C   0  0  0  0  0  0  0  0  0  0  0  0
    2.6344    1.0621    0.0000 C   0  0  0  0  0  0  0  0  0  0  0  0
   -3.1696    0.1463    0.0000 C   0  0  0  0  0  0  0  0  0  0  0  0
   -3.1696    1.8022    0.0000 C   0  0  0  0  0  0  0  0  0  0  0  0
    2.4128    0.2634    0.0000 C   0  0  0  0  0  0  0  0  0  0  0  0
    1.0412    0.6356    0.0000 C   0  0  0  0  0  0  0  0  0  0  0  0
   -3.8763    0.5520    0.0000 C   0  0  0  0  0  0  0  0  0  0  0  0
   -3.8763    1.3799    0.0000 C   0  0  0  0  0  0  0  0  0  0  0  0
   -4.5997    1.7897    0.0000 H   0  0  0  0  0  0  0  0  0  0  0  0
  2  1  1  0  0  0  0
  3  1  2  0  0  0  0
  4  1  1  0  0  0  0
  5  2  1  0  0  0  0
  6  4  1  0  0  0  0
  6  5  2  0  0  0  0
  7  8  1  0  0  0  0
  8 17  1  0  0  0  0
  9  3  1  0  0  0  0
 10 13  1  0  0  0  0
 11 10  3  0  0  0  0
 12  8  2  0  0  0  0
 13  2  1  0  0  0  0
 14  9  2  0  0  0  0
 15 23  1  0  0  0  0
 15 24  1  0  0  0  0
 16 18  1  0  0  0  0
 17 16  1  0  0  0  0
 18  9  1  0  0  0  0
 19  7  1  0  0  0  0
 20  7  1  0  0  0  0
 21  5  1  0  0  0  0
 22  6  1  0  0  0  0
 23 20  1  0  0  0  0
 24 19  1  0  0  0  0
 25 21  2  0  0  0  0
 26 22  2  0  0  0  0
 26 25  1  0  0  0  0
 27 26  1  0  0  0  0
M  END
> <CdId>
2197

> <Mol Weight>
389.492

> <Formula>
C18H19N3O3S2

> <Click_ID>
CLK029_D03 __ __ 

$$$$
