CLK046G07
 OpenBabel03181419432D

 21 22  0  0  0  0  0  0  0  0999 V2000
   -0.5458   -0.1542    0.0000 S    0  0  0  0  0  0  0  0  0  0  0  0
   -0.5458   -0.9792    0.0000 C    0  0  0  0  0  0  0  0  0  0  0  0
   -1.2625   -1.3917    0.0000 C    0  0  0  0  0  0  0  0  0  0  0  0
    0.1667   -1.3917    0.0000 C    0  0  0  0  0  0  0  0  0  0  0  0
   -0.5458    0.6708    0.0000 N    0  0  0  0  0  0  0  0  0  0  0  0
    0.2792   -0.1542    0.0000 O    0  0  0  0  0  0  0  0  0  0  0  0
   -1.3708   -0.1542    0.0000 O    0  0  0  0  0  0  0  0  0  0  0  0
    0.1667   -2.2167    0.0000 C    0  0  0  0  0  0  0  0  0  0  0  0
   -1.2625   -2.2167    0.0000 C    0  0  0  0  0  0  0  0  0  0  0  0
    0.8833    3.1458    0.0000 C    0  0  0  0  0  0  0  0  0  0  0  0
    0.8833    3.9708    0.0000 C    0  0  0  0  0  0  0  0  0  0  0  0
   -0.5458   -2.6292    0.0000 C    0  0  0  0  0  0  0  0  0  0  0  0
    0.1667    1.0833    0.0000 C    0  0  0  0  0  0  0  0  0  0  0  0
    0.8833   -0.9792    0.0000 F    0  0  0  0  0  0  0  0  0  0  0  0
   -1.9750   -0.9792    0.0000 Br   0  0  0  0  0  0  0  0  0  0  0  0
    0.8833    2.3208    0.0000 C    0  0  0  0  0  0  0  0  0  0  0  0
    0.1667    1.9083    0.0000 C    0  0  0  0  0  0  0  0  0  0  0  0
   -0.5458   -3.4542    0.0000 F    0  0  0  0  0  0  0  0  0  0  0  0
    1.5958    1.0833    0.0000 C    0  0  0  0  0  0  0  0  0  0  0  0
    0.8833    0.6708    0.0000 C    0  0  0  0  0  0  0  0  0  0  0  0
    1.5958    1.9083    0.0000 C    0  0  0  0  0  0  0  0  0  0  0  0
  2  1  1  0  0  0  0
  3  2  2  0  0  0  0
  4  2  1  0  0  0  0
  5  1  1  0  0  0  0
  6  1  2  0  0  0  0
  7  1  2  0  0  0  0
  8  4  2  0  0  0  0
  8 12  1  0  0  0  0
  9  3  1  0  0  0  0
 10 16  1  0  0  0  0
 11 10  3  0  0  0  0
 12  9  2  0  0  0  0
 13  5  1  0  0  0  0
 14  4  1  0  0  0  0
 15  3  1  0  0  0  0
 16 17  1  0  0  0  0
 17 13  2  0  0  0  0
 18 12  1  0  0  0  0
 19 20  2  0  0  0  0
 20 13  1  0  0  0  0
 21 16  2  0  0  0  0
 21 19  1  0  0  0  0
M  END
> <CdId>
3535

> <Mol Weight>
372.185

> <Formula>
C14H8BrF2NO2S

> <Click_ID>
CLK046G07 __ __ 

$$$$
