CLK004_A10
 OpenBabel03181419432D

 29 32  0  0  0  0  0  0  0  0999 V2000
    0.9918    0.2220    0.0000 C   0  0  3  0  0  0  0  0  0  0  0  0
    0.9987   -0.6068    0.0000 C   0  0  0  0  0  0  0  0  0  0  0  0
    0.2739    0.6381    0.0000 C   0  0  0  0  0  0  0  0  0  0  0  0
    1.7062    0.6312    0.0000 C   0  0  0  0  0  0  0  0  0  0  0  0
    1.7166   -1.0196    0.0000 C   0  0  0  0  0  0  0  0  0  0  0  0
    0.2844   -1.0196    0.0000 C   0  0  0  0  0  0  0  0  0  0  0  0
   -0.4334    0.2220    0.0000 C   0  0  0  0  0  0  0  0  0  0  0  0
    0.2739    1.4669    0.0000 C   0  0  0  0  0  0  0  0  0  0  0  0
    2.4309    0.2150    0.0000 C   0  0  0  0  0  0  0  0  0  0  0  0
    1.7166    1.4600    0.0000 C   0  0  0  0  0  0  0  0  0  0  0  0
    1.7166   -1.8519    0.0000 C   0  0  0  0  0  0  0  0  0  0  0  0
    2.4240   -0.6068    0.0000 O   0  0  0  0  0  0  0  0  0  0  0  0
    0.2878   -1.8519    0.0000 C   0  0  0  0  0  0  0  0  0  0  0  0
   -1.1444    0.6381    0.0000 C   0  0  0  0  0  0  0  0  0  0  0  0
   -0.4300    1.8761    0.0000 C   0  0  0  0  0  0  0  0  0  0  0  0
    3.1488    0.6242    0.0000 N   0  0  0  0  0  0  0  0  0  0  0  0
    1.7166    2.2853    0.0000 N   0  0  0  0  0  0  0  0  0  0  0  0
    1.0023   -2.2645    0.0000 C   0  0  0  0  0  0  0  0  0  0  0  0
   -0.3295   -2.4033    0.0000 O   0  0  0  0  0  0  0  0  0  0  0  0
   -1.1582    1.4600    0.0000 C   0  0  0  0  0  0  0  0  0  0  0  0
   -1.8553    0.2289    0.0000 O   0  0  0  0  0  0  0  0  0  0  0  0
    0.8288   -3.0690    0.0000 O   0  0  0  0  0  0  0  0  0  0  0  0
    0.0104   -3.1593    0.0000 C   0  0  0  0  0  0  0  0  0  0  0  0
   -1.8657    1.8692    0.0000 O   0  0  0  0  0  0  0  0  0  0  0  0
   -1.8622   -0.5931    0.0000 C   0  0  0  0  0  0  0  0  0  0  0  0
   -2.5801    1.4669    0.0000 C   0  0  0  0  0  0  0  0  0  0  0  0
   -2.5697   -1.0091    0.0000 C   0  0  0  0  0  0  0  0  0  0  0  0
   -3.2945    1.8692    0.0000 C   0  0  0  0  0  0  0  0  0  0  0  0
   -4.0054    2.2784    0.0000 C   0  0  0  0  0  0  0  0  0  0  0  0
  1  2  1  0  0  0  0
  1  3  1  0  0  0  0
  1  4  1  0  0  0  0
  2  5  2  0  0  0  0
  2  6  1  0  0  0  0
  3  7  1  0  0  0  0
  3  8  2  0  0  0  0
  4  9  2  0  0  0  0
  4 10  1  0  0  0  0
  5 11  1  0  0  0  0
  5 12  1  0  0  0  0
  6 13  2  0  0  0  0
  7 14  2  0  0  0  0
  8 15  1  0  0  0  0
  9 16  1  0  0  0  0
  9 12  1  0  0  0  0
 10 17  3  0  0  0  0
 11 18  2  0  0  0  0
 13 19  1  0  0  0  0
 13 18  1  0  0  0  0
 14 20  1  0  0  0  0
 14 21  1  0  0  0  0
 15 20  2  0  0  0  0
 18 22  1  0  0  0  0
 19 23  1  0  0  0  0
 20 24  1  0  0  0  0
 21 25  1  0  0  0  0
 22 23  1  0  0  0  0
 24 26  1  0  0  0  0
 25 27  1  0  0  0  0
 26 28  1  0  0  0  0
 28 29  3  0  0  0  0
M  END
> <CdId>
249

> <Mol Weight>
390.3887

> <Formula>
C22H18N2O5

> <Click_ID>
CLK004_A10 __ __ 

$$$$
