CLK006_F02
 OpenBabel03181419432D

 29 32  0  0  0  0  0  0  0  0999 V2000
   -0.1864   -1.1666    0.0000 C   0  0  0  0  0  0  0  0  0  0  0  0
   -0.3141   -0.3797    0.0000 C   0  0  0  0  0  0  0  0  0  0  0  0
   -0.8906   -1.5429    0.0000 N   0  0  0  0  0  0  0  0  0  0  0  0
    0.5660   -1.5567    0.0000 N   0  0  0  0  0  0  0  0  0  0  0  0
    0.1726    0.1104    0.0000 C   0  0  3  0  0  0  0  0  0  0  0  0
   -1.1114   -0.2658    0.0000 C   0  0  0  0  0  0  0  0  0  0  0  0
   -1.0113   -2.3575    0.0000 C   0  0  0  0  0  0  0  0  0  0  0  0
   -1.4600   -0.9907    0.0000 N   0  0  0  0  0  0  0  0  0  0  0  0
    1.3427   -1.1909    0.0000 C   0  0  0  0  0  0  0  0  0  0  0  0
    0.1657    0.9457    0.0000 C   0  0  0  0  0  0  0  0  0  0  0  0
    0.9907    0.1208    0.0000 S   0  0  0  0  0  0  0  0  0  0  0  0
   -1.8363    0.1449    0.0000 C   0  0  0  0  0  0  0  0  0  0  0  0
   -1.7741   -2.6681    0.0000 C   0  0  0  0  0  0  0  0  0  0  0  0
   -0.3589   -2.8649    0.0000 C   0  0  0  0  0  0  0  0  0  0  0  0
    1.4911   -0.3901    0.0000 C   0  0  3  0  0  0  0  0  0  0  0  0
    1.9916   -1.6913    0.0000 O   0  0  0  0  0  0  0  0  0  0  0  0
   -0.5488    1.3461    0.0000 C   0  0  0  0  0  0  0  0  0  0  0  0
    0.8802    1.3599    0.0000 C   0  0  0  0  0  0  0  0  0  0  0  0
   -1.8915   -3.4827    0.0000 C   0  0  0  0  0  0  0  0  0  0  0  0
   -0.4729   -3.6829    0.0000 C   0  0  0  0  0  0  0  0  0  0  0  0
    2.2815   -0.1623    0.0000 C   0  0  0  0  0  0  0  0  0  0  0  0
   -0.5591    2.1745    0.0000 C   0  0  0  0  0  0  0  0  0  0  0  0
    0.8802    2.1849    0.0000 C   0  0  0  0  0  0  0  0  0  0  0  0
   -1.2391   -3.9936    0.0000 C   0  0  0  0  0  0  0  0  0  0  0  0
    0.1623    2.5853    0.0000 C   0  0  0  0  0  0  0  0  0  0  0  0
    0.1518    3.4240    0.0000 O   0  0  0  0  0  0  0  0  0  0  0  0
    0.8663    3.8382    0.0000 C   0  0  0  0  0  0  0  0  0  0  0  0
    0.8663    4.6631    0.0000 C   0  0  0  0  0  0  0  0  0  0  0  0
    0.8525    5.4881    0.0000 C   0  0  0  0  0  0  0  0  0  0  0  0
  1  2  2  0  0  0  0
  1  3  1  0  0  0  0
  1  4  1  0  0  0  0
  2  5  1  0  0  0  0
  2  6  1  0  0  0  0
  3  7  1  0  0  0  0
  3  8  1  0  0  0  0
  4  9  1  0  0  0  0
  5 10  1  0  0  0  0
  5 11  1  0  0  0  0
  6 12  1  0  0  0  0
  6  8  2  0  0  0  0
  7 13  2  0  0  0  0
  7 14  1  0  0  0  0
  9 15  1  0  0  0  0
  9 16  2  0  0  0  0
 10 17  1  0  0  0  0
 10 18  2  0  0  0  0
 11 15  1  0  0  0  0
 13 19  1  0  0  0  0
 14 20  2  0  0  0  0
 15 21  1  0  0  0  0
 17 22  2  0  0  0  0
 18 23  1  0  0  0  0
 19 24  2  0  0  0  0
 20 24  1  0  0  0  0
 22 25  1  0  0  0  0
 23 25  2  0  0  0  0
 25 26  1  0  0  0  0
 26 27  1  0  0  0  0
 27 28  1  0  0  0  0
 28 29  3  0  0  0  0
M  END
> <CdId>
451

> <Mol Weight>
403.497

> <Formula>
C23H21N3O2S

> <Click_ID>
CLK006_F02 __ __ 

$$$$
