CLK013_B07
 OpenBabel03181419432D

 20 21  0  0  0  0  0  0  0  0999 V2000
    1.5574   -0.8119    0.0000 N   0  0  0  0  0  0  0  0  0  0  0  0
    1.8142   -1.5947    0.0000 C   0  0  0  0  0  0  0  0  0  0  0  0
    2.2243   -0.3273    0.0000 C   0  0  0  0  0  0  0  0  0  0  0  0
    2.8870   -0.8119    0.0000 C   0  0  0  0  0  0  0  0  0  0  0  0
    2.6343   -1.5947    0.0000 S   0  0  0  0  0  0  0  0  0  0  0  0
    2.8083    2.1828    0.0000 N   0  3  0  0  0  0  0  0  0  0  0  0
    3.6699   -0.5592    0.0000 C   0  0  0  0  0  0  0  0  0  0  0  0
    3.4047    1.6236    0.0000 C   0  0  0  0  0  0  0  0  0  0  0  0
    0.6089    0.2443    0.0000 C   0  0  0  0  0  0  0  0  0  0  0  0
    0.3894    1.0396    0.0000 C   0  0  0  0  0  0  0  0  0  0  0  0
    2.9698    3.0071    0.0000 O   0  5  0  0  0  0  0  0  0  0  0  0
    1.3296   -2.2533    0.0000 O   0  0  0  0  0  0  0  0  0  0  0  0
    2.0130    1.9219    0.0000 O   0  0  0  0  0  0  0  0  0  0  0  0
    2.2160    0.4929    0.0000 O   0  0  0  0  0  0  0  0  0  0  0  0
    0.7828   -0.5592    0.0000 C   0  0  0  0  0  0  0  0  0  0  0  0
    3.8438    0.2568    0.0000 C   0  0  0  0  0  0  0  0  0  0  0  0
    3.2349    0.8077    0.0000 C   0  0  0  0  0  0  0  0  0  0  0  0
    4.2000    1.8888    0.0000 C   0  0  0  0  0  0  0  0  0  0  0  0
    4.8089    1.3254    0.0000 C   0  0  0  0  0  0  0  0  0  0  0  0
    4.6349    0.5095    0.0000 C   0  0  0  0  0  0  0  0  0  0  0  0
  2  1  1  0  0  0  0
  3  1  1  0  0  0  0
  4  3  1  0  0  0  0
  5  2  1  0  0  0  0
  5  4  1  0  0  0  0
  6  8  1  0  0  0  0
  7  4  2  0  0  0  0
  8 17  1  0  0  0  0
  9 15  1  0  0  0  0
 10  9  3  0  0  0  0
 11  6  1  0  0  0  0
 12  2  2  0  0  0  0
 13  6  2  0  0  0  0
 14  3  2  0  0  0  0
 15  1  1  0  0  0  0
 16  7  1  0  0  0  0
 17 16  2  0  0  0  0
 18 19  1  0  0  0  0
 18  8  2  0  0  0  0
 19 20  2  0  0  0  0
 20 16  1  0  0  0  0
M  END
> <CdId>
932

> <Mol Weight>
288.279

> <Formula>
C13H8N2O4S

> <Click_ID>
CLK013_B07 __ __ 

$$$$
