CLK022_A08
 OpenBabel03181419432D

 21 23  0  0  0  0  0  0  0  0999 V2000
    3.3165    1.7132    0.0000 N   0  0  0  0  0  0  0  0  0  0  0  0
    2.5698    1.3742    0.0000 C   0  0  0  0  0  0  0  0  0  0  0  0
    2.6569    0.5588    0.0000 N   0  0  0  0  0  0  0  0  0  0  0  0
    3.8753    1.0948    0.0000 C   0  0  0  0  0  0  0  0  0  0  0  0
    3.4631    0.3802    0.0000 O   0  0  0  0  0  0  0  0  0  0  0  0
    8.3050    2.2904    0.0000 C   0  0  0  0  0  0  0  0  0  0  0  0
    9.1295    2.3728    0.0000 C   0  0  0  0  0  0  0  0  0  0  0  0
    1.8552    1.7865    0.0000 C   0  0  0  0  0  0  0  0  0  0  0  0
    4.6908    1.1818    0.0000 C   0  0  0  0  0  0  0  0  0  0  0  0
    1.8552    2.6110    0.0000 N   0  0  0  0  0  0  0  0  0  0  0  0
    5.1717    0.5176    0.0000 C   0  0  0  0  0  0  0  0  0  0  0  0
    5.0297    1.9331    0.0000 C   0  0  0  0  0  0  0  0  0  0  0  0
    6.3352    1.3559    0.0000 C   0  0  0  0  0  0  0  0  0  0  0  0
    5.9963    0.6000    0.0000 C   0  0  0  0  0  0  0  0  0  0  0  0
    5.8451    2.0201    0.0000 C   0  0  0  0  0  0  0  0  0  0  0  0
    7.4896    2.1942    0.0000 C   0  0  0  0  0  0  0  0  0  0  0  0
    7.1506    1.4383    0.0000 O   0  0  0  0  0  0  0  0  0  0  0  0
    1.1406    3.0233    0.0000 C   0  0  0  0  0  0  0  0  0  0  0  0
    1.1406    1.3742    0.0000 C   0  0  0  0  0  0  0  0  0  0  0  0
    0.4260    2.6110    0.0000 C   0  0  0  0  0  0  0  0  0  0  0  0
    0.4260    1.7865    0.0000 C   0  0  0  0  0  0  0  0  0  0  0  0
  2  1  1  0  0  0  0
  3  2  2  0  0  0  0
  3  5  1  0  0  0  0
  4  1  2  0  0  0  0
  5  4  1  0  0  0  0
  6 16  1  0  0  0  0
  7  6  3  0  0  0  0
  8  2  1  0  0  0  0
  9  4  1  0  0  0  0
 10  8  2  0  0  0  0
 11  9  2  0  0  0  0
 12  9  1  0  0  0  0
 13 15  1  0  0  0  0
 14 11  1  0  0  0  0
 14 13  2  0  0  0  0
 15 12  2  0  0  0  0
 16 17  1  0  0  0  0
 17 13  1  0  0  0  0
 18 10  1  0  0  0  0
 19  8  1  0  0  0  0
 20 21  1  0  0  0  0
 20 18  2  0  0  0  0
 21 19  2  0  0  0  0
M  END
> <CdId>
1643

> <Mol Weight>
277.2774

> <Formula>
C16H11N3O2

> <Click_ID>
CLK022_A08 __ __ 

$$$$
