CLK028_G09
 OpenBabel03181419432D

 22 23  0  0  0  0  0  0  0  0999 V2000
    0.3620    0.2621    0.0000 C    0  0  0  0  0  0  0  0  0  0  0  0
    1.0689   -0.1620    0.0000 C    0  0  3  0  0  0  0  0  0  0  0  0
    1.7860    0.2517    0.0000 C    0  0  3  0  0  0  0  0  0  0  0  0
    1.7860   -1.3826    0.0000 C    0  0  3  0  0  0  0  0  0  0  0  0
    1.0689   -0.9723    0.0000 C    0  0  3  0  0  0  0  0  0  0  0  0
    0.3620   -1.3964    0.0000 C    0  0  0  0  0  0  0  0  0  0  0  0
    2.4998   -0.9723    0.0000 C    0  0  0  0  0  0  0  0  0  0  0  0
    2.4998   -0.1620    0.0000 C    0  0  0  0  0  0  0  0  0  0  0  0
    1.4585   -0.6034    0.0000 C    0  0  0  0  0  0  0  0  0  0  0  0
    0.3620    1.0827    0.0000 O    0  0  0  0  0  0  0  0  0  0  0  0
   -1.0689    1.8998    0.0000 C    0  0  0  0  0  0  0  0  0  0  0  0
   -1.7757    1.4930    0.0000 C    0  0  0  0  0  0  0  0  0  0  0  0
   -0.3552    1.4930    0.0000 C    0  0  0  0  0  0  0  0  0  0  0  0
   -0.3552   -0.1483    0.0000 O    0  0  0  0  0  0  0  0  0  0  0  0
   -0.3552   -0.9827    0.0000 O    0  0  0  0  0  0  0  0  0  0  0  0
   -1.7827   -0.9827    0.0000 C    0  0  0  0  0  0  0  0  0  0  0  0
    0.3620   -2.2068    0.0000 O    0  0  0  0  0  0  0  0  0  0  0  0
   -2.5033   -1.3964    0.0000 C    0  0  0  0  0  0  0  0  0  0  0  0
   -1.0689   -1.3964    0.0000 C    0  0  0  0  0  0  0  0  0  0  0  0
   -1.7827   -0.1620    0.0000 Cl   0  0  0  0  0  0  0  0  0  0  0  0
    0.0552    2.2102    0.0000 C    0  0  0  0  0  0  0  0  0  0  0  0
   -0.7689    0.7620    0.0000 C    0  0  0  0  0  0  0  0  0  0  0  0
  2  1  1  0  0  0  0
  3  2  1  0  0  0  0
  4  5  1  0  0  0  0
  5  2  1  0  0  0  0
  6  5  1  0  0  0  0
  7  4  1  0  0  0  0
  8  3  1  0  0  0  0
  8  7  2  0  0  0  0
  9  3  1  0  0  0  0
  9  4  1  0  0  0  0
 10  1  1  0  0  0  0
 11 13  1  0  0  0  0
 12 11  3  0  0  0  0
 13 10  1  0  0  0  0
 14  1  2  0  0  0  0
 15  6  1  0  0  0  0
 16 19  1  0  0  0  0
 17  6  2  0  0  0  0
 18 16  2  0  0  0  0
 19 15  1  0  0  0  0
 20 16  1  0  0  0  0
 21 13  1  0  0  0  0
 22 13  1  0  0  0  0
M  END
> <CdId>
2153

> <Mol Weight>
322.783

> <Formula>
C17H19ClO4

> <Click_ID>
CLK028_G09 __ __ 

$$$$
