CLK004_H10
 OpenBabel03181419432D

 24 26  0  0  0  0  0  0  0  0999 V2000
    0.7556    0.2357    0.0000 C   0  0  3  0  0  0  0  0  0  0  0  0
    1.1682   -0.4818    0.0000 C   0  0  0  0  0  0  0  0  0  0  0  0
   -0.0728    0.2357    0.0000 C   0  0  0  0  0  0  0  0  0  0  0  0
    1.1751    0.9428    0.0000 C   0  0  0  0  0  0  0  0  0  0  0  0
    2.0001   -0.4887    0.0000 C   0  0  0  0  0  0  0  0  0  0  0  0
    0.7556   -1.1959    0.0000 C   0  0  0  0  0  0  0  0  0  0  0  0
   -0.4853   -0.4679    0.0000 C   0  0  0  0  0  0  0  0  0  0  0  0
   -0.4853    0.9636    0.0000 C   0  0  0  0  0  0  0  0  0  0  0  0
    2.0001    0.9394    0.0000 C   0  0  0  0  0  0  0  0  0  0  0  0
    0.7592    1.6673    0.0000 C   0  0  0  0  0  0  0  0  0  0  0  0
    2.4056    0.2219    0.0000 O   0  0  0  0  0  0  0  0  0  0  0  0
    2.4056   -1.1959    0.0000 C   0  0  0  0  0  0  0  0  0  0  0  0
    1.1612   -1.9134    0.0000 C   0  0  0  0  0  0  0  0  0  0  0  0
   -0.0728   -1.1959    0.0000 O   0  0  0  0  0  0  0  0  0  0  0  0
   -1.3068   -0.4679    0.0000 C   0  0  0  0  0  0  0  0  0  0  0  0
   -1.2999    0.9636    0.0000 C   0  0  0  0  0  0  0  0  0  0  0  0
    2.4195    1.6534    0.0000 N   0  0  0  0  0  0  0  0  0  0  0  0
    0.3571    2.3848    0.0000 N   0  0  0  0  0  0  0  0  0  0  0  0
    2.0001   -1.9134    0.0000 C   0  0  0  0  0  0  0  0  0  0  0  0
   -1.7297    0.2461    0.0000 C   0  0  0  0  0  0  0  0  0  0  0  0
   -2.5512    0.2461    0.0000 O   0  0  0  0  0  0  0  0  0  0  0  0
   -2.9602   -0.4576    0.0000 C   0  0  0  0  0  0  0  0  0  0  0  0
   -3.7887   -0.4645    0.0000 C   0  0  0  0  0  0  0  0  0  0  0  0
   -4.6068   -0.4576    0.0000 C   0  0  0  0  0  0  0  0  0  0  0  0
  1  2  1  0  0  0  0
  1  3  1  0  0  0  0
  1  4  1  0  0  0  0
  2  5  2  0  0  0  0
  2  6  1  0  0  0  0
  3  7  1  0  0  0  0
  3  8  2  0  0  0  0
  4  9  2  0  0  0  0
  4 10  1  0  0  0  0
  5 11  1  0  0  0  0
  5 12  1  0  0  0  0
  6 13  1  0  0  0  0
  6 14  2  0  0  0  0
  7 15  2  0  0  0  0
  8 16  1  0  0  0  0
  9 17  1  0  0  0  0
  9 11  1  0  0  0  0
 10 18  3  0  0  0  0
 12 19  1  0  0  0  0
 13 19  1  0  0  0  0
 15 20  1  0  0  0  0
 16 20  2  0  0  0  0
 20 21  1  0  0  0  0
 21 22  1  0  0  0  0
 22 23  1  0  0  0  0
 23 24  3  0  0  0  0
M  END
> <CdId>
319

> <Mol Weight>
320.3419

> <Formula>
C19H16N2O3

> <Click_ID>
CLK004_H10 __ __ 

$$$$
