CLK002_F07
 OpenBabel03181419432D

 30 33  0  0  0  0  0  0  0  0999 V2000
    0.4861   -0.2609    0.0000 C   0  0  0  0  0  0  0  0  0  0  0  0
    0.5897   -1.0578    0.0000 C   0  0  0  0  0  0  0  0  0  0  0  0
    1.2293    0.0893    0.0000 C   0  0  0  0  0  0  0  0  0  0  0  0
   -0.2895    0.0893    0.0000 C   0  0  0  0  0  0  0  0  0  0  0  0
    1.3687   -1.2258    0.0000 C   0  0  0  0  0  0  0  0  0  0  0  0
   -0.0858   -1.5545    0.0000 C   0  0  0  0  0  0  0  0  0  0  0  0
    1.7796   -0.5182    0.0000 N   0  0  0  0  0  0  0  0  0  0  0  0
    1.3830    0.8935    0.0000 O   0  0  0  0  0  0  0  0  0  0  0  0
   -0.9470   -0.4145    0.0000 C   0  0  0  0  0  0  0  0  0  0  0  0
    1.7475   -1.9691    0.0000 O   0  0  0  0  0  0  0  0  0  0  0  0
   -0.8612   -1.2330    0.0000 C   0  0  0  0  0  0  0  0  0  0  0  0
    2.6124   -0.5182    0.0000 C   0  0  0  0  0  0  0  0  0  0  0  0
   -1.6903   -0.1036    0.0000 C   0  0  0  0  0  0  0  0  0  0  0  0
    3.0269    0.1715    0.0000 C   0  0  0  0  0  0  0  0  0  0  0  0
    3.0233   -1.2436    0.0000 C   0  0  0  0  0  0  0  0  0  0  0  0
   -1.8297    0.7361    0.0000 N   0  0  0  0  0  0  0  0  0  0  0  0
   -2.3121   -0.6218    0.0000 O   0  0  0  0  0  0  0  0  0  0  0  0
    3.8703    0.1680    0.0000 C   0  0  0  0  0  0  0  0  0  0  0  0
    3.8452   -1.2258    0.0000 C   0  0  0  0  0  0  0  0  0  0  0  0
   -2.6052    1.0221    0.0000 C   0  0  0  0  0  0  0  0  0  0  0  0
    4.2705   -0.5396    0.0000 C   0  0  0  0  0  0  0  0  0  0  0  0
    4.2669    0.8970    0.0000 C   0  0  0  0  0  0  0  0  0  0  0  0
   -3.2413    0.4967    0.0000 C   0  0  0  0  0  0  0  0  0  0  0  0
   -2.7624    1.8512    0.0000 C   0  0  0  0  0  0  0  0  0  0  0  0
    4.6994    1.6224    0.0000 C   0  0  0  0  0  0  0  0  0  0  0  0
   -4.0061    0.7898    0.0000 C   0  0  0  0  0  0  0  0  0  0  0  0
   -3.5272    2.1228    0.0000 C   0  0  0  0  0  0  0  0  0  0  0  0
   -4.1598    1.6046    0.0000 C   0  0  0  0  0  0  0  0  0  0  0  0
   -4.6279    0.2466    0.0000 C   0  0  0  0  0  0  0  0  0  0  0  0
   -5.2533   -0.3002    0.0000 C   0  0  0  0  0  0  0  0  0  0  0  0
  1  2  2  0  0  0  0
  1  3  1  0  0  0  0
  1  4  1  0  0  0  0
  2  5  1  0  0  0  0
  2  6  1  0  0  0  0
  3  7  1  0  0  0  0
  3  8  2  0  0  0  0
  4  9  2  0  0  0  0
  5 10  2  0  0  0  0
  5  7  1  0  0  0  0
  6 11  2  0  0  0  0
  7 12  1  0  0  0  0
  9 13  1  0  0  0  0
  9 11  1  0  0  0  0
 12 14  1  0  0  0  0
 12 15  2  0  0  0  0
 13 16  1  0  0  0  0
 13 17  2  0  0  0  0
 14 18  2  0  0  0  0
 15 19  1  0  0  0  0
 16 20  1  0  0  0  0
 18 21  1  0  0  0  0
 18 22  1  0  0  0  0
 19 21  2  0  0  0  0
 20 23  1  0  0  0  0
 20 24  2  0  0  0  0
 22 25  3  0  0  0  0
 23 26  2  0  0  0  0
 24 27  1  0  0  0  0
 26 28  1  0  0  0  0
 26 29  1  0  0  0  0
 27 28  2  0  0  0  0
 29 30  3  0  0  0  0
M  END
> <CdId>
136

> <Mol Weight>
390.3903

> <Formula>
C25H14N2O3

> <Click_ID>
CLK002_F07 __ __ 

$$$$
