CLK009_G03
 OpenBabel03181419432D

 18 18  0  0  0  0  0  0  0  0999 V2000
    4.3092   -0.7256    0.0000 C   0  0  0  0  0  0  0  0  0  0  0  0
    5.0308   -1.1287    0.0000 C   0  0  0  0  0  0  0  0  0  0  0  0
    0.0363   -0.7256    0.0000 C   0  0  0  0  0  0  0  0  0  0  0  0
    2.1808   -0.3185    0.0000 C   0  0  0  0  0  0  0  0  0  0  0  0
   -0.6973   -0.3185    0.0000 N   0  0  0  0  0  0  0  0  0  0  0  0
    0.0363   -1.5520    0.0000 O   0  0  0  0  0  0  0  0  0  0  0  0
    2.1808    0.5159    0.0000 O   0  0  0  0  0  0  0  0  0  0  0  0
   -1.4149   -0.7256    0.0000 C   0  0  0  0  0  0  0  0  0  0  0  0
    0.7538   -0.3185    0.0000 C   0  0  0  0  0  0  0  0  0  0  0  0
    1.4673   -0.7256    0.0000 C   0  0  0  0  0  0  0  0  0  0  0  0
   -2.8257   -1.5358    0.0000 C   0  0  0  0  0  0  0  0  0  0  0  0
    2.8822   -0.7256    0.0000 O   0  0  0  0  0  0  0  0  0  0  0  0
   -3.5433   -1.9027    0.0000 I   0  0  0  0  0  0  0  0  0  0  0  0
   -1.4149   -1.5520    0.0000 C   0  0  0  0  0  0  0  0  0  0  0  0
   -2.1122   -0.3185    0.0000 C   0  0  0  0  0  0  0  0  0  0  0  0
   -2.8257   -0.7417    0.0000 C   0  0  0  0  0  0  0  0  0  0  0  0
   -2.1122   -1.9632    0.0000 C   0  0  0  0  0  0  0  0  0  0  0  0
    3.5957   -0.2943    0.0000 C   0  0  0  0  0  0  0  0  0  0  0  0
  2  1  3  0  0  0  0
  3  9  1  0  0  0  0
  4 12  1  0  0  0  0
  5  3  1  0  0  0  0
  6  3  2  0  0  0  0
  7  4  2  0  0  0  0
  8  5  1  0  0  0  0
  9 10  1  0  0  0  0
 10  4  1  0  0  0  0
 11 16  1  0  0  0  0
 12 18  1  0  0  0  0
 13 11  1  0  0  0  0
 14  8  2  0  0  0  0
 15  8  1  0  0  0  0
 16 15  2  0  0  0  0
 17 14  1  0  0  0  0
 17 11  2  0  0  0  0
 18  1  1  0  0  0  0
M  END
> <CdId>
658

> <Mol Weight>
357.1438

> <Formula>
C13H12INO3

> <Click_ID>
CLK009_G03 __ __ 

$$$$
