CLK021_H10
 OpenBabel03181419432D

 19 19  0  0  0  0  0  0  0  0999 V2000
    4.9335    0.6275    0.0000 C   0  0  0  0  0  0  0  0  0  0  0  0
    6.9445    0.0412    0.0000 C   0  0  0  0  0  0  0  0  0  0  0  0
    5.6481    0.2153    0.0000 N   0  0  0  0  0  0  0  0  0  0  0  0
    7.5217   -0.5406    0.0000 C   0  0  0  0  0  0  0  0  0  0  0  0
    4.2189    0.2153    0.0000 N   0  0  0  0  0  0  0  0  0  0  0  0
    6.3536    0.6275    0.0000 C   0  0  0  0  0  0  0  0  0  0  0  0
    4.9335    1.4521    0.0000 O   0  0  0  0  0  0  0  0  0  0  0  0
    3.5043    0.6275    0.0000 C   0  0  0  0  0  0  0  0  0  0  0  0
    2.0751    1.4521    0.0000 C   0  0  0  0  0  0  0  0  0  0  0  0
    2.7897    0.2153    0.0000 C   0  0  0  0  0  0  0  0  0  0  0  0
    3.5043    1.4521    0.0000 C   0  0  0  0  0  0  0  0  0  0  0  0
    2.7897    1.8643    0.0000 C   0  0  0  0  0  0  0  0  0  0  0  0
    2.0751    0.6275    0.0000 C   0  0  0  0  0  0  0  0  0  0  0  0
    6.9857    1.1544    0.0000 C   0  0  0  0  0  0  0  0  0  0  0  0
    5.8864    1.3009    0.0000 C   0  0  0  0  0  0  0  0  0  0  0  0
    1.3605    1.8643    0.0000 C   0  0  0  0  0  0  0  0  0  0  0  0
    6.2299    2.0476    0.0000 C   0  0  0  0  0  0  0  0  0  0  0  0
    6.8483    1.9652    0.0000 C   0  0  0  0  0  0  0  0  0  0  0  0
    0.6459    1.4521    0.0000 C   0  0  0  0  0  0  0  0  0  0  0  0
  2  6  1  0  0  0  0
  3  1  1  0  0  0  0
  4  2  3  0  0  0  0
  5  1  1  0  0  0  0
  6  3  1  0  0  0  0
  7  1  2  0  0  0  0
  8  5  1  0  0  0  0
  9 12  1  0  0  0  0
  9 13  2  0  0  0  0
 10  8  2  0  0  0  0
 11  8  1  0  0  0  0
 12 11  2  0  0  0  0
 13 10  1  0  0  0  0
 14  6  1  0  0  0  0
 15  6  1  0  0  0  0
 16  9  1  0  0  0  0
 17 15  1  0  0  0  0
 18 14  1  0  0  0  0
 19 16  1  0  0  0  0
M  END
> <CdId>
1635

> <Mol Weight>
258.3587

> <Formula>
C16H22N2O

> <Click_ID>
CLK021_H10 __ __ 

$$$$
