CLK007_A02
 OpenBabel03181419432D

 35 39  0  0  0  0  0  0  0  0999 V2000
    0.0034    0.6620    0.0000 C   0  0  3  0  0  0  0  0  0  0  0  0
   -0.7102    0.2414    0.0000 C   0  0  0  0  0  0  0  0  0  0  0  0
    0.7965    0.8758    0.0000 C   0  0  0  0  0  0  0  0  0  0  0  0
    0.7171    0.2414    0.0000 C   0  0  0  0  0  0  0  0  0  0  0  0
   -0.4448    1.3482    0.0000 C   0  0  0  0  0  0  0  0  0  0  0  0
   -0.7171   -0.5827    0.0000 C   0  0  0  0  0  0  0  0  0  0  0  0
   -1.4206    0.6620    0.0000 C   0  0  0  0  0  0  0  0  0  0  0  0
    0.8413    1.6999    0.0000 C   0  0  0  0  0  0  0  0  0  0  0  0
    1.4896    0.4276    0.0000 C   0  0  0  0  0  0  0  0  0  0  0  0
    0.7171   -0.5827    0.0000 C   0  0  0  0  0  0  0  0  0  0  0  0
    1.4275   -0.1724    0.0000 C   0  0  0  0  0  0  0  0  0  0  0  0
    0.0655    1.9929    0.0000 N   0  0  0  0  0  0  0  0  0  0  0  0
   -1.0344    1.9377    0.0000 O   0  0  0  0  0  0  0  0  0  0  0  0
   -0.0034   -0.9965    0.0000 N   0  0  0  0  0  0  0  0  0  0  0  0
   -1.4206   -0.9861    0.0000 C   0  0  0  0  0  0  0  0  0  0  0  0
   -2.1343    0.2414    0.0000 C   0  0  0  0  0  0  0  0  0  0  0  0
   -2.0101    1.2482    0.0000 O   0  0  0  0  0  0  0  0  0  0  0  0
    1.5689    2.0791    0.0000 C   0  0  0  0  0  0  0  0  0  0  0  0
    2.2274    0.8033    0.0000 C   0  0  0  0  0  0  0  0  0  0  0  0
    1.4206   -0.9999    0.0000 N   0  0  0  0  0  0  0  0  0  0  0  0
    2.1412   -0.5827    0.0000 N   0  0  0  0  0  0  0  0  0  0  0  0
   -0.1448    2.7929    0.0000 C   0  0  0  0  0  0  0  0  0  0  0  0
   -0.0103   -1.8136    0.0000 C   0  0  0  0  0  0  0  0  0  0  0  0
   -2.1343   -0.5827    0.0000 C   0  0  0  0  0  0  0  0  0  0  0  0
    2.2653    1.6275    0.0000 C   0  0  0  0  0  0  0  0  0  0  0  0
    0.4345    3.3756    0.0000 C   0  0  0  0  0  0  0  0  0  0  0  0
    0.7033   -2.2343    0.0000 C   0  0  0  0  0  0  0  0  0  0  0  0
   -0.7309   -2.2205    0.0000 C   0  0  0  0  0  0  0  0  0  0  0  0
   -2.9342   -0.3621    0.0000 C   0  0  0  0  0  0  0  0  0  0  0  0
   -2.5446   -1.2965    0.0000 C   0  0  0  0  0  0  0  0  0  0  0  0
    0.2207    4.1755    0.0000 C   0  0  0  0  0  0  0  0  0  0  0  0
    0.6965   -3.0514    0.0000 C   0  0  0  0  0  0  0  0  0  0  0  0
   -0.7344   -3.0445    0.0000 C   0  0  0  0  0  0  0  0  0  0  0  0
   -0.0207   -3.4618    0.0000 C   0  0  0  0  0  0  0  0  0  0  0  0
    1.4068   -3.4618    0.0000 F   0  0  0  0  0  0  0  0  0  0  0  0
  1  2  1  0  0  0  0
  1  3  1  0  0  0  0
  1  4  1  0  0  0  0
  1  5  1  0  0  0  0
  2  6  2  0  0  0  0
  2  7  1  0  0  0  0
  3  8  2  0  0  0  0
  3  9  1  0  0  0  0
  4 10  2  0  0  0  0
  4 11  1  0  0  0  0
  5 12  1  0  0  0  0
  5 13  2  0  0  0  0
  6 14  1  0  0  0  0
  6 15  1  0  0  0  0
  7 16  1  0  0  0  0
  7 17  2  0  0  0  0
  8 18  1  0  0  0  0
  8 12  1  0  0  0  0
  9 19  2  0  0  0  0
 10 20  1  0  0  0  0
 10 14  1  0  0  0  0
 11 21  3  0  0  0  0
 12 22  1  0  0  0  0
 14 23  1  0  0  0  0
 15 24  1  0  0  0  0
 16 24  1  0  0  0  0
 18 25  2  0  0  0  0
 19 25  1  0  0  0  0
 22 26  1  0  0  0  0
 23 27  1  0  0  0  0
 23 28  2  0  0  0  0
 24 29  1  0  0  0  0
 24 30  1  0  0  0  0
 26 31  3  0  0  0  0
 27 32  2  0  0  0  0
 28 33  1  0  0  0  0
 32 34  1  0  0  0  0
 32 35  1  0  0  0  0
 33 34  2  0  0  0  0
M  END
> <CdId>
481

> <Mol Weight>
466.5062

> <Formula>
C28H23FN4O2

> <Click_ID>
CLK007_A02 __ __ 

$$$$
