CLK024_E08
 OpenBabel03181419432D

 25 26  0  0  0  0  0  0  0  0999 V2000
   -2.0300   -1.2525    0.0000 N    0  0  0  0  0  0  0  0  0  0  0  0
   -2.0438   -2.0816    0.0000 C    0  0  0  0  0  0  0  0  0  0  0  0
   -1.2455   -0.9909    0.0000 C    0  0  0  0  0  0  0  0  0  0  0  0
   -0.7639   -1.6722    0.0000 C    0  0  0  0  0  0  0  0  0  0  0  0
   -1.2593   -2.3432    0.0000 S    0  0  0  0  0  0  0  0  0  0  0  0
    1.3075    0.4542    0.0000 C    0  0  0  0  0  0  0  0  0  0  0  0
    0.0723   -1.6757    0.0000 C    0  0  0  0  0  0  0  0  0  0  0  0
    1.7204   -0.2512    0.0000 C    0  0  0  0  0  0  0  0  0  0  0  0
    0.4851    0.4542    0.0000 C    0  0  0  0  0  0  0  0  0  0  0  0
    0.4748   -0.9668    0.0000 C    0  0  0  0  0  0  0  0  0  0  0  0
    1.7273    1.1630    0.0000 O    0  0  0  0  0  0  0  0  0  0  0  0
   -3.4614   -1.0907    0.0000 C    0  0  0  0  0  0  0  0  0  0  0  0
   -4.2115   -1.4658    0.0000 C    0  0  0  0  0  0  0  0  0  0  0  0
   -2.7148   -2.5599    0.0000 O    0  0  0  0  0  0  0  0  0  0  0  0
    0.0619   -0.2443    0.0000 C    0  0  0  0  0  0  0  0  0  0  0  0
    1.2971   -0.9738    0.0000 C    0  0  0  0  0  0  0  0  0  0  0  0
   -0.9841   -0.2064    0.0000 O    0  0  0  0  0  0  0  0  0  0  0  0
    2.9728    1.8512    0.0000 C    0  0  0  0  0  0  0  0  0  0  0  0
   -2.7044   -0.7639    0.0000 C    0  0  0  0  0  0  0  0  0  0  0  0
    2.5668    2.5634    0.0000 O    0  0  0  0  0  0  0  0  0  0  0  0
    2.5496    1.1423    0.0000 C    0  0  0  0  0  0  0  0  0  0  0  0
    2.5393   -0.2546    0.0000 Br   0  0  0  0  0  0  0  0  0  0  0  0
    0.0860    1.1767    0.0000 Br   0  0  0  0  0  0  0  0  0  0  0  0
    3.7883    1.8408    0.0000 O    0  0  0  0  0  0  0  0  0  0  0  0
    4.2080    2.5461    0.0000 C    0  0  0  0  0  0  0  0  0  0  0  0
  2  1  1  0  0  0  0
  3  1  1  0  0  0  0
  4  3  1  0  0  0  0
  5  2  1  0  0  0  0
  5  4  1  0  0  0  0
  6  8  1  0  0  0  0
  7  4  2  0  0  0  0
  8 16  2  0  0  0  0
  9 15  1  0  0  0  0
  9  6  2  0  0  0  0
 10  7  1  0  0  0  0
 11  6  1  0  0  0  0
 12 19  1  0  0  0  0
 13 12  3  0  0  0  0
 14  2  2  0  0  0  0
 15 10  2  0  0  0  0
 16 10  1  0  0  0  0
 17  3  2  0  0  0  0
 18 21  1  0  0  0  0
 19  1  1  0  0  0  0
 20 18  2  0  0  0  0
 21 11  1  0  0  0  0
 22  8  1  0  0  0  0
 23  9  1  0  0  0  0
 24 18  1  0  0  0  0
 25 24  1  0  0  0  0
M  END
> <CdId>
1823

> <Mol Weight>
489.135

> <Formula>
C16H11Br2NO5S

> <Click_ID>
CLK024_E08 __ __ 

$$$$
