CLK045D03
 OpenBabel03181419432D

 33 36  0  0  0  0  0  0  0  0999 V2000
   -1.0417    0.4750    0.0000 C   0  0  0  0  0  0  0  0  0  0  0  0
   -0.3250    0.0625    0.0000 C   0  0  0  0  0  0  0  0  0  0  0  0
   -1.0417    1.3000    0.0000 C   0  0  0  0  0  0  0  0  0  0  0  0
   -1.7542    0.0625    0.0000 N   0  0  0  0  0  0  0  0  0  0  0  0
   -1.7542    1.7125    0.0000 C   0  0  0  0  0  0  0  0  0  0  0  0
   -0.3250   -0.7625    0.0000 C   0  0  0  0  0  0  0  0  0  0  0  0
    0.3875    1.3000    0.0000 N   0  0  0  0  0  0  0  0  0  0  0  0
   -2.4708    0.4750    0.0000 C   0  0  0  0  0  0  0  0  0  0  0  0
   -2.4708    1.3000    0.0000 C   0  0  0  0  0  0  0  0  0  0  0  0
   -1.7542    2.5375    0.0000 C   0  0  0  0  0  0  0  0  0  0  0  0
    0.3875    0.4750    0.0000 C   0  0  0  0  0  0  0  0  0  0  0  0
   -0.3250    1.7125    0.0000 C   0  0  0  0  0  0  0  0  0  0  0  0
    3.2458   -3.6500    0.0000 C   0  0  0  0  0  0  0  0  0  0  0  0
    3.9583   -4.0625    0.0000 C   0  0  0  0  0  0  0  0  0  0  0  0
    1.8167   -1.1750    0.0000 C   0  0  0  0  0  0  0  0  0  0  0  0
    0.3875   -1.1750    0.0000 C   0  0  0  0  0  0  0  0  0  0  0  0
    1.1042   -0.7625    0.0000 C   0  0  0  0  0  0  0  0  0  0  0  0
    1.8167   -2.0000    0.0000 C   0  0  0  0  0  0  0  0  0  0  0  0
   -2.4708    2.9542    0.0000 O   0  0  0  0  0  0  0  0  0  0  0  0
    1.1042   -2.4125    0.0000 C   0  0  0  0  0  0  0  0  0  0  0  0
   -1.0417    2.9542    0.0000 O   0  0  0  0  0  0  0  0  0  0  0  0
    0.3875   -2.0000    0.0000 C   0  0  0  0  0  0  0  0  0  0  0  0
    2.5292   -0.7625    0.0000 O   0  0  0  0  0  0  0  0  0  0  0  0
    2.5292   -2.4125    0.0000 O   0  0  0  0  0  0  0  0  0  0  0  0
    1.1042    1.7125    0.0000 C   0  0  0  0  0  0  0  0  0  0  0  0
    2.5292   -3.2375    0.0000 C   0  0  0  0  0  0  0  0  0  0  0  0
   -3.1833    1.7125    0.0000 C   0  0  0  0  0  0  0  0  0  0  0  0
   -3.1833    0.0625    0.0000 C   0  0  0  0  0  0  0  0  0  0  0  0
    2.5292    0.0625    0.0000 C   0  0  0  0  0  0  0  0  0  0  0  0
    1.8167    1.3000    0.0000 C   0  0  0  0  0  0  0  0  0  0  0  0
   -3.9000    1.3000    0.0000 C   0  0  0  0  0  0  0  0  0  0  0  0
    3.2458    0.4750    0.0000 C   0  0  0  0  0  0  0  0  0  0  0  0
   -3.9000    0.4750    0.0000 C   0  0  0  0  0  0  0  0  0  0  0  0
  2  1  1  0  0  0  0
  3  1  2  0  0  0  0
  4  1  1  0  0  0  0
  5  3  1  0  0  0  0
  6  2  2  0  0  0  0
  7 12  1  0  0  0  0
  7 11  1  0  0  0  0
  8  4  2  0  0  0  0
  8  9  1  0  0  0  0
  9  5  2  0  0  0  0
 10  5  1  0  0  0  0
 11  2  1  0  0  0  0
 12  3  1  0  0  0  0
 13 26  1  0  0  0  0
 14 13  3  0  0  0  0
 15 17  1  0  0  0  0
 16  6  1  0  0  0  0
 17 16  2  0  0  0  0
 18 20  1  0  0  0  0
 18 15  2  0  0  0  0
 19 10  2  0  0  0  0
 20 22  2  0  0  0  0
 21 10  1  0  0  0  0
 22 16  1  0  0  0  0
 23 15  1  0  0  0  0
 24 18  1  0  0  0  0
 25  7  1  0  0  0  0
 26 24  1  0  0  0  0
 27  9  1  0  0  0  0
 28  8  1  0  0  0  0
 29 23  1  0  0  0  0
 30 25  1  0  0  0  0
 31 27  2  0  0  0  0
 32 29  1  0  0  0  0
 33 28  2  0  0  0  0
 33 31  1  0  0  0  0
M  END
> <CdId>
3420

> <Mol Weight>
442.5063

> <Formula>
C27H26N2O4

> <Click_ID>
CLK045D03 __ __ 

$$$$
