CLK040B06
 OpenBabel03181419432D

 26 27  0  0  0  0  0  0  0  0999 V2000
    4.0083   -0.4750    0.0000 N   0  3  0  0  0  0  0  0  0  0  0  0
    0.4375    0.7625    0.0000 C   0  0  0  0  0  0  0  0  0  0  0  0
    3.2958   -0.0625    0.0000 C   0  0  0  0  0  0  0  0  0  0  0  0
   -4.5625   -0.4750    0.0000 C   0  0  0  0  0  0  0  0  0  0  0  0
   -5.2792   -0.8875    0.0000 C   0  0  0  0  0  0  0  0  0  0  0  0
    1.1500    1.1750    0.0000 C   0  0  0  0  0  0  0  0  0  0  0  0
    4.0083   -1.3000    0.0000 O   0  5  0  0  0  0  0  0  0  0  0  0
   -1.7042   -0.4750    0.0000 C   0  0  0  0  0  0  0  0  0  0  0  0
   -0.2750    1.1750    0.0000 C   0  0  0  0  0  0  0  0  0  0  0  0
    4.7250   -0.0625    0.0000 O   0  0  0  0  0  0  0  0  0  0  0  0
    1.8667    0.7625    0.0000 C   0  0  0  0  0  0  0  0  0  0  0  0
   -2.4208   -0.0625    0.0000 C   0  0  0  0  0  0  0  0  0  0  0  0
   -0.9917   -0.0625    0.0000 C   0  0  0  0  0  0  0  0  0  0  0  0
    1.1500    2.0000    0.0000 O   0  0  0  0  0  0  0  0  0  0  0  0
    2.5792   -0.4750    0.0000 C   0  0  0  0  0  0  0  0  0  0  0  0
    3.2958    0.7625    0.0000 C   0  0  0  0  0  0  0  0  0  0  0  0
    1.8667   -0.0625    0.0000 C   0  0  0  0  0  0  0  0  0  0  0  0
    2.5792    1.1750    0.0000 C   0  0  0  0  0  0  0  0  0  0  0  0
   -0.9917    0.7625    0.0000 C   0  0  0  0  0  0  0  0  0  0  0  0
   -2.4208    0.7625    0.0000 C   0  0  0  0  0  0  0  0  0  0  0  0
   -1.7042    1.1750    0.0000 C   0  0  0  0  0  0  0  0  0  0  0  0
   -1.7042   -1.3000    0.0000 O   0  0  0  0  0  0  0  0  0  0  0  0
   -3.1333   -0.4750    0.0000 O   0  0  0  0  0  0  0  0  0  0  0  0
   -3.8500   -0.0625    0.0000 C   0  0  0  0  0  0  0  0  0  0  0  0
   -0.9917   -1.7125    0.0000 C   0  0  0  0  0  0  0  0  0  0  0  0
   -0.9917   -2.5375    0.0000 C   0  0  0  0  0  0  0  0  0  0  0  0
  2  6  1  0  0  0  0
  3  1  1  0  0  0  0
  4 24  1  0  0  0  0
  5  4  3  0  0  0  0
  6 11  1  0  0  0  0
  7  1  1  0  0  0  0
  8 13  1  0  0  0  0
  9  2  2  0  0  0  0
 10  1  2  0  0  0  0
 11 18  2  0  0  0  0
 12 20  1  0  0  0  0
 12  8  2  0  0  0  0
 13 19  2  0  0  0  0
 14  6  2  0  0  0  0
 15  3  1  0  0  0  0
 16  3  2  0  0  0  0
 17 15  2  0  0  0  0
 17 11  1  0  0  0  0
 18 16  1  0  0  0  0
 19  9  1  0  0  0  0
 20 21  2  0  0  0  0
 21 19  1  0  0  0  0
 22  8  1  0  0  0  0
 23 12  1  0  0  0  0
 24 23  1  0  0  0  0
 25 22  1  0  0  0  0
 26 25  1  0  0  0  0
M  END
> <CdId>
3042

> <Mol Weight>
351.3527

> <Formula>
C20H17NO5

> <Click_ID>
CLK040B06 __ __ 

$$$$
