CLK013_E04
 OpenBabel03181419432D

 28 30  0  0  0  0  0  0  0  0999 V2000
    1.7375   -2.5938    0.0000 N    0  0  0  0  0  0  0  0  0  0  0  0
    2.5484   -2.4615    0.0000 C    0  0  0  0  0  0  0  0  0  0  0  0
    1.6052   -3.4047    0.0000 C    0  0  0  0  0  0  0  0  0  0  0  0
    2.3374   -3.7770    0.0000 C    0  0  0  0  0  0  0  0  0  0  0  0
    2.9207   -3.2020    0.0000 S    0  0  0  0  0  0  0  0  0  0  0  0
    1.1584   -2.0023    0.0000 C    0  0  0  0  0  0  0  0  0  0  0  0
    2.4615   -4.5961    0.0000 C    0  0  0  0  0  0  0  0  0  0  0  0
    1.3818   -1.2163    0.0000 C    0  0  0  0  0  0  0  0  0  0  0  0
    6.9666   -5.5642    0.0000 C    0  0  0  0  0  0  0  0  0  0  0  0
    7.7319   -5.8579    0.0000 C    0  0  0  0  0  0  0  0  0  0  0  0
    2.9331   -1.7293    0.0000 O    0  0  0  0  0  0  0  0  0  0  0  0
    4.6458   -4.6706    0.0000 C    0  0  0  0  0  0  0  0  0  0  0  0
    0.8729   -3.7770    0.0000 O    0  0  0  0  0  0  0  0  0  0  0  0
    3.2310   -4.8940    0.0000 C    0  0  0  0  0  0  0  0  0  0  0  0
    3.8763   -4.3810    0.0000 C    0  0  0  0  0  0  0  0  0  0  0  0
    4.7823   -5.4897    0.0000 C    0  0  0  0  0  0  0  0  0  0  0  0
    4.1328   -6.0110    0.0000 C    0  0  0  0  0  0  0  0  0  0  0  0
    0.8067   -0.6329    0.0000 C    0  0  0  0  0  0  0  0  0  0  0  0
    3.3633   -5.7131    0.0000 C    0  0  0  0  0  0  0  0  0  0  0  0
    5.2870   -4.1618    0.0000 O    0  0  0  0  0  0  0  0  0  0  0  0
    0.3641   -2.2215    0.0000 C    0  0  0  0  0  0  0  0  0  0  0  0
    1.0301    0.1572    0.0000 Cl   0  0  0  0  0  0  0  0  0  0  0  0
    5.5518   -5.7834    0.0000 O    0  0  0  0  0  0  0  0  0  0  0  0
    6.1930   -5.2663    0.0000 C    0  0  0  0  0  0  0  0  0  0  0  0
   -0.2110   -1.6300    0.0000 C    0  0  0  0  0  0  0  0  0  0  0  0
    0.0042   -0.8357    0.0000 C    0  0  0  0  0  0  0  0  0  0  0  0
    5.1546   -3.3427    0.0000 C    0  0  0  0  0  0  0  0  0  0  0  0
    5.8000   -2.8214    0.0000 C    0  0  0  0  0  0  0  0  0  0  0  0
  2  1  1  0  0  0  0
  3  1  1  0  0  0  0
  4  3  1  0  0  0  0
  5  2  1  0  0  0  0
  5  4  1  0  0  0  0
  6  1  1  0  0  0  0
  7  4  2  0  0  0  0
  8  6  2  0  0  0  0
  9 24  1  0  0  0  0
 10  9  3  0  0  0  0
 11  2  2  0  0  0  0
 12 15  2  0  0  0  0
 13  3  2  0  0  0  0
 14  7  1  0  0  0  0
 15 14  1  0  0  0  0
 16 17  2  0  0  0  0
 16 12  1  0  0  0  0
 17 19  1  0  0  0  0
 18  8  1  0  0  0  0
 19 14  2  0  0  0  0
 20 12  1  0  0  0  0
 21  6  1  0  0  0  0
 22 18  1  0  0  0  0
 23 16  1  0  0  0  0
 24 23  1  0  0  0  0
 25 21  2  0  0  0  0
 26 25  1  0  0  0  0
 26 18  2  0  0  0  0
 27 20  1  0  0  0  0
 28 27  1  0  0  0  0
M  END
> <CdId>
959

> <Mol Weight>
413.874

> <Formula>
C21H16ClNO4S

> <Click_ID>
CLK013_E04 __ __ 

$$$$
