CLK010_G06
 OpenBabel03181419432D

 27 29  0  0  0  0  0  0  0  0999 V2000
    2.8559   -0.6764    0.0000 N   0  0  0  0  0  0  0  0  0  0  0  0
    3.5616   -1.9165    0.0000 C   0  0  0  0  0  0  0  0  0  0  0  0
    2.8476   -1.5031    0.0000 C   0  0  0  0  0  0  0  0  0  0  0  0
    3.5699   -0.2630    0.0000 C   0  0  0  0  0  0  0  0  0  0  0  0
    4.2839   -0.6806    0.0000 N   0  0  0  0  0  0  0  0  0  0  0  0
    4.2755   -1.5073    0.0000 C   0  0  0  0  0  0  0  0  0  0  0  0
    3.5574   -2.7432    0.0000 C   0  0  0  0  0  0  0  0  0  0  0  0
    2.1336   -0.2630    0.0000 C   0  0  0  0  0  0  0  0  0  0  0  0
    7.0813   -5.6742    0.0000 C   0  0  0  0  0  0  0  0  0  0  0  0
    3.5699    0.5637    0.0000 O   0  0  0  0  0  0  0  0  0  0  0  0
    7.7828   -6.0918    0.0000 C   0  0  0  0  0  0  0  0  0  0  0  0
    2.1336   -1.9081    0.0000 O   0  0  0  0  0  0  0  0  0  0  0  0
    4.9895   -1.9207    0.0000 O   0  0  0  0  0  0  0  0  0  0  0  0
    4.2630   -3.1607    0.0000 C   0  0  0  0  0  0  0  0  0  0  0  0
    2.1336    0.5720    0.0000 C   0  0  0  0  0  0  0  0  0  0  0  0
    1.4154   -0.6764    0.0000 C   0  0  0  0  0  0  0  0  0  0  0  0
    5.6784   -4.0000    0.0000 C   0  0  0  0  0  0  0  0  0  0  0  0
    0.7015   -0.2630    0.0000 C   0  0  0  0  0  0  0  0  0  0  0  0
    1.4154    0.9853    0.0000 C   0  0  0  0  0  0  0  0  0  0  0  0
    0.7015    0.5720    0.0000 C   0  0  0  0  0  0  0  0  0  0  0  0
    4.2630   -3.9749    0.0000 C   0  0  0  0  0  0  0  0  0  0  0  0
    4.9895   -2.7557    0.0000 C   0  0  0  0  0  0  0  0  0  0  0  0
    5.6910   -3.1733    0.0000 C   0  0  0  0  0  0  0  0  0  0  0  0
    4.9728   -4.4008    0.0000 C   0  0  0  0  0  0  0  0  0  0  0  0
    6.3757   -5.2484    0.0000 C   0  0  0  0  0  0  0  0  0  0  0  0
    6.3882   -4.4259    0.0000 O   0  0  0  0  0  0  0  0  0  0  0  0
   -0.0208    0.9853    0.0000 C   0  0  0  0  0  0  0  0  0  0  0  0
  2  3  1  0  0  0  0
  2  6  1  0  0  0  0
  3  1  1  0  0  0  0
  4  1  1  0  0  0  0
  5  4  1  0  0  0  0
  6  5  1  0  0  0  0
  7  2  2  0  0  0  0
  8  1  1  0  0  0  0
  9 25  1  0  0  0  0
 10  4  2  0  0  0  0
 11  9  3  0  0  0  0
 12  3  2  0  0  0  0
 13  6  2  0  0  0  0
 14  7  1  0  0  0  0
 15  8  2  0  0  0  0
 16  8  1  0  0  0  0
 17 23  2  0  0  0  0
 18 16  2  0  0  0  0
 19 15  1  0  0  0  0
 19 20  2  0  0  0  0
 20 18  1  0  0  0  0
 21 14  1  0  0  0  0
 22 14  2  0  0  0  0
 23 22  1  0  0  0  0
 24 21  2  0  0  0  0
 24 17  1  0  0  0  0
 25 26  1  0  0  0  0
 26 17  1  0  0  0  0
 27 20  1  0  0  0  0
M  END
> <CdId>
741

> <Mol Weight>
360.3627

> <Formula>
C21H16N2O4

> <Click_ID>
CLK010_G06 __ __ 

$$$$
