CLK027_E10
 OpenBabel03181419432D

 18 19  0  0  0  0  0  0  0  0999 V2000
    2.1929   -1.2103    0.0000 C   0  0  0  0  0  0  0  0  0  0  0  0
    1.4792   -0.7965    0.0000 N   0  0  0  0  0  0  0  0  0  0  0  0
    2.3688   -2.0206    0.0000 N   0  0  0  0  0  0  0  0  0  0  0  0
    0.7689   -1.2103    0.0000 C   0  0  0  0  0  0  0  0  0  0  0  0
    2.9136   -0.7965    0.0000 N   0  0  0  0  0  0  0  0  0  0  0  0
    3.5308   -1.3585    0.0000 N   0  0  0  0  0  0  0  0  0  0  0  0
    3.1894   -2.1033    0.0000 C   0  0  0  0  0  0  0  0  0  0  0  0
   -2.8136    1.6930    0.0000 C   0  0  0  0  0  0  0  0  0  0  0  0
   -3.5342    2.1067    0.0000 C   0  0  0  0  0  0  0  0  0  0  0  0
    0.0414   -0.7965    0.0000 C   0  0  0  0  0  0  0  0  0  0  0  0
    0.7689   -2.0413    0.0000 O   0  0  0  0  0  0  0  0  0  0  0  0
   -0.6689   -1.2103    0.0000 C   0  0  0  0  0  0  0  0  0  0  0  0
    0.0414    0.0276    0.0000 C   0  0  0  0  0  0  0  0  0  0  0  0
   -1.3826    0.0276    0.0000 C   0  0  0  0  0  0  0  0  0  0  0  0
   -1.3826   -0.7965    0.0000 C   0  0  0  0  0  0  0  0  0  0  0  0
   -0.6689    0.4413    0.0000 C   0  0  0  0  0  0  0  0  0  0  0  0
   -2.0998    1.2792    0.0000 C   0  0  0  0  0  0  0  0  0  0  0  0
   -2.1067    0.4551    0.0000 O   0  0  0  0  0  0  0  0  0  0  0  0
  2  1  1  0  0  0  0
  3  1  1  0  0  0  0
  4  2  1  0  0  0  0
  5  1  2  0  0  0  0
  6  5  1  0  0  0  0
  7  3  1  0  0  0  0
  7  6  2  0  0  0  0
  8 17  1  0  0  0  0
  9  8  3  0  0  0  0
 10  4  1  0  0  0  0
 11  4  2  0  0  0  0
 12 10  1  0  0  0  0
 13 10  2  0  0  0  0
 14 16  2  0  0  0  0
 15 12  2  0  0  0  0
 15 14  1  0  0  0  0
 16 13  1  0  0  0  0
 17 18  1  0  0  0  0
 18 14  1  0  0  0  0
M  END
> <CdId>
2061

> <Mol Weight>
242.2334

> <Formula>
C12H10N4O2

> <Click_ID>
CLK027_E10 __ __ 

$$$$
