CLK003_D10
 OpenBabel03181419432D

 29 31  0  0  0  0  0  0  0  0999 V2000
    0.3093    0.6584    0.0000 N   0  0  0  0  0  0  0  0  0  0  0  0
   -0.5084    0.5407    0.0000 C   0  0  3  0  0  0  0  0  0  0  0  0
    0.8158    0.0057    0.0000 C   0  0  0  0  0  0  0  0  0  0  0  0
    0.6185    1.4211    0.0000 C   0  0  0  0  0  0  0  0  0  0  0  0
   -1.0188    1.1953    0.0000 C   0  0  0  0  0  0  0  0  0  0  0  0
   -0.8196   -0.2220    0.0000 C   0  0  0  0  0  0  0  0  0  0  0  0
    1.6336    0.1214    0.0000 C   0  0  0  0  0  0  0  0  0  0  0  0
    0.5066   -0.7570    0.0000 C   0  0  0  0  0  0  0  0  0  0  0  0
    1.4343    1.5368    0.0000 C   0  0  0  0  0  0  0  0  0  0  0  0
    0.1100    2.0737    0.0000 O   0  0  0  0  0  0  0  0  0  0  0  0
   -0.7911    1.9864    0.0000 C   0  0  0  0  0  0  0  0  0  0  0  0
   -1.8441    1.1611    0.0000 S   0  0  0  0  0  0  0  0  0  0  0  0
   -1.6374   -0.3396    0.0000 N   0  0  0  0  0  0  0  0  0  0  0  0
   -0.4629   -0.6735    0.0000 O   0  0  0  0  0  0  0  0  0  0  0  0
    2.1382   -0.5312    0.0000 C   0  0  0  0  0  0  0  0  0  0  0  0
    1.9428    0.8860    0.0000 O   0  0  0  0  0  0  0  0  0  0  0  0
    1.0150   -1.4078    0.0000 C   0  0  0  0  0  0  0  0  0  0  0  0
    2.2482    1.6487    0.0000 C   0  0  0  0  0  0  0  0  0  0  0  0
   -1.4723    2.4475    0.0000 C   0  0  0  0  0  0  0  0  0  0  0  0
   -2.1249    1.9371    0.0000 C   0  0  0  0  0  0  0  0  0  0  0  0
   -1.9466   -1.0985    0.0000 C   0  0  0  0  0  0  0  0  0  0  0  0
    1.8289   -1.2920    0.0000 C   0  0  0  0  0  0  0  0  0  0  0  0
    2.7567    0.9998    0.0000 C   0  0  0  0  0  0  0  0  0  0  0  0
   -1.5083   -1.7986    0.0000 C   0  0  0  0  0  0  0  0  0  0  0  0
   -2.7472   -1.2977    0.0000 C   0  0  0  0  0  0  0  0  0  0  0  0
    2.3374   -1.9428    0.0000 O   0  0  0  0  0  0  0  0  0  0  0  0
   -2.0376   -2.4323    0.0000 C   0  0  0  0  0  0  0  0  0  0  0  0
   -2.8060   -2.1174    0.0000 C   0  0  0  0  0  0  0  0  0  0  0  0
    2.0282   -2.7074    0.0000 C   0  0  0  0  0  0  0  0  0  0  0  0
  1  2  1  0  0  0  0
  1  3  1  0  0  0  0
  1  4  1  0  0  0  0
  2  5  1  0  0  0  0
  2  6  1  0  0  0  0
  3  7  2  0  0  0  0
  3  8  1  0  0  0  0
  4  9  1  0  0  0  0
  4 10  2  0  0  0  0
  5 11  2  0  0  0  0
  5 12  1  0  0  0  0
  6 13  1  0  0  0  0
  6 14  2  0  0  0  0
  7 15  1  0  0  0  0
  7 16  1  0  0  0  0
  8 17  2  0  0  0  0
  9 18  3  0  0  0  0
 11 19  1  0  0  0  0
 12 20  1  0  0  0  0
 13 21  1  0  0  0  0
 15 22  2  0  0  0  0
 16 23  1  0  0  0  0
 17 22  1  0  0  0  0
 19 20  2  0  0  0  0
 21 24  1  0  0  0  0
 21 25  1  0  0  0  0
 22 26  1  0  0  0  0
 24 27  1  0  0  0  0
 25 28  1  0  0  0  0
 26 29  1  0  0  0  0
 27 28  1  0  0  0  0
M  END
> <CdId>
199

> <Mol Weight>
412.502

> <Formula>
C22H24N2O4S

> <Click_ID>
CLK003_D10 __ __ 

$$$$
