CLK018_A02
 OpenBabel03181419432D

 31 33  0  0  0  0  0  0  0  0999 V2000
    2.8218   -1.5850    0.0000 N    0  0  0  0  0  0  0  0  0  0  0  0
    1.3926   -1.5850    0.0000 C    0  0  0  0  0  0  0  0  0  0  0  0
    2.1072   -1.1727    0.0000 C    0  0  0  0  0  0  0  0  0  0  0  0
    2.8218   -2.4095    0.0000 C    0  0  0  0  0  0  0  0  0  0  0  0
    2.1072   -2.8218    0.0000 N    0  0  0  0  0  0  0  0  0  0  0  0
    1.3926   -2.4095    0.0000 C    0  0  0  0  0  0  0  0  0  0  0  0
    5.6756    0.0641    0.0000 N    0  0  0  0  0  0  0  0  0  0  0  0
    0.6780   -1.1727    0.0000 C    0  0  0  0  0  0  0  0  0  0  0  0
   -1.4658   -2.4049    0.0000 C    0  0  0  0  0  0  0  0  0  0  0  0
   -1.4658   -1.5804    0.0000 C    0  0  0  0  0  0  0  0  0  0  0  0
   -0.7512   -2.8172    0.0000 C    0  0  0  0  0  0  0  0  0  0  0  0
    3.5364   -1.1727    0.0000 C    0  0  0  0  0  0  0  0  0  0  0  0
   -0.0366   -1.5850    0.0000 C    0  0  0  0  0  0  0  0  0  0  0  0
    4.9656   -0.3482    0.0000 C    0  0  0  0  0  0  0  0  0  0  0  0
   -2.8950   -4.0586    0.0000 C    0  0  0  0  0  0  0  0  0  0  0  0
    3.5364   -2.8218    0.0000 O    0  0  0  0  0  0  0  0  0  0  0  0
   -2.8950   -4.8832    0.0000 C    0  0  0  0  0  0  0  0  0  0  0  0
    2.1072   -0.3482    0.0000 O    0  0  0  0  0  0  0  0  0  0  0  0
    6.3902   -0.3482    0.0000 O    0  0  0  0  0  0  0  0  0  0  0  0
   -0.0366   -2.4049    0.0000 C    0  0  0  0  0  0  0  0  0  0  0  0
   -0.7512   -1.1727    0.0000 C    0  0  0  0  0  0  0  0  0  0  0  0
    5.6756    0.8886    0.0000 O    0  0  0  0  0  0  0  0  0  0  0  0
    0.6780   -2.8218    0.0000 O    0  0  0  0  0  0  0  0  0  0  0  0
    4.2510   -1.5850    0.0000 C    0  0  0  0  0  0  0  0  0  0  0  0
    3.5364   -0.3482    0.0000 C    0  0  0  0  0  0  0  0  0  0  0  0
    4.2510    0.0641    0.0000 C    0  0  0  0  0  0  0  0  0  0  0  0
    4.9656   -1.1727    0.0000 C    0  0  0  0  0  0  0  0  0  0  0  0
   -2.1804   -1.1681    0.0000 Cl   0  0  0  0  0  0  0  0  0  0  0  0
   -0.7512   -3.6417    0.0000 Cl   0  0  0  0  0  0  0  0  0  0  0  0
   -2.1804   -2.8172    0.0000 O    0  0  0  0  0  0  0  0  0  0  0  0
   -2.1804   -3.6463    0.0000 C    0  0  0  0  0  0  0  0  0  0  0  0
  2  3  1  0  0  0  0
  2  6  1  0  0  0  0
  3  1  1  0  0  0  0
  4  1  1  0  0  0  0
  5  4  1  0  0  0  0
  6  5  1  0  0  0  0
  7 14  1  0  0  0  0
  8  2  2  0  0  0  0
  9 10  1  0  0  0  0
 10 21  2  0  0  0  0
 11 20  1  0  0  0  0
 11  9  2  0  0  0  0
 12  1  1  0  0  0  0
 13  8  1  0  0  0  0
 14 26  2  0  0  0  0
 15 31  1  0  0  0  0
 16  4  2  0  0  0  0
 17 15  3  0  0  0  0
 18  3  2  0  0  0  0
 19  7  1  0  0  0  0
 20 13  2  0  0  0  0
 21 13  1  0  0  0  0
 22  7  2  0  0  0  0
 23  6  2  0  0  0  0
 24 12  1  0  0  0  0
 25 12  2  0  0  0  0
 26 25  1  0  0  0  0
 27 24  2  0  0  0  0
 27 14  1  0  0  0  0
 28 10  1  0  0  0  0
 29 11  1  0  0  0  0
 30  9  1  0  0  0  0
 31 30  1  0  0  0  0
M  END
> <CdId>
1317

> <Mol Weight>
460.224

> <Formula>
C20H11Cl2N3O6

> <Click_ID>
CLK018_A02 __ __ 

$$$$
