CLK013_A08
 OpenBabel03181419432D

 25 27  0  0  0  0  0  0  0  0999 V2000
    5.2785   -2.1987    0.0000 N    0  0  0  0  0  0  0  0  0  0  0  0
    5.1496   -3.0092    0.0000 C    0  0  0  0  0  0  0  0  0  0  0  0
    4.5428   -1.8204    0.0000 C    0  0  0  0  0  0  0  0  0  0  0  0
    3.9568   -2.4065    0.0000 C    0  0  0  0  0  0  0  0  0  0  0  0
    4.3309   -3.1421    0.0000 N    0  0  0  0  0  0  0  0  0  0  0  0
    3.1463   -2.2735    0.0000 C    0  0  0  0  0  0  0  0  0  0  0  0
    6.0141   -1.8246    0.0000 C    0  0  0  0  0  0  0  0  0  0  0  0
    5.7274   -3.5952    0.0000 S    0  0  0  0  0  0  0  0  0  0  0  0
    0.8229   -6.2593    0.0000 C    0  0  0  0  0  0  0  0  0  0  0  0
    0.2993   -6.8994    0.0000 C    0  0  0  0  0  0  0  0  0  0  0  0
    4.4181   -1.0100    0.0000 O    0  0  0  0  0  0  0  0  0  0  0  0
    2.6184   -2.9177    0.0000 C    0  0  0  0  0  0  0  0  0  0  0  0
    6.6999   -2.2818    0.0000 C    0  0  0  0  0  0  0  0  0  0  0  0
    6.0516   -1.0017    0.0000 C    0  0  0  0  0  0  0  0  0  0  0  0
    7.4813   -1.0890    0.0000 C    0  0  0  0  0  0  0  0  0  0  0  0
    1.5628   -4.2062    0.0000 C    0  0  0  0  0  0  0  0  0  0  0  0
    6.7872   -0.6359    0.0000 C    0  0  0  0  0  0  0  0  0  0  0  0
    7.4314   -1.9119    0.0000 C    0  0  0  0  0  0  0  0  0  0  0  0
    8.2211   -0.7232    0.0000 Cl   0  0  0  0  0  0  0  0  0  0  0  0
    2.9094   -3.6825    0.0000 C    0  0  0  0  0  0  0  0  0  0  0  0
    1.7955   -2.7805    0.0000 C    0  0  0  0  0  0  0  0  0  0  0  0
    2.3857   -4.3267    0.0000 C    0  0  0  0  0  0  0  0  0  0  0  0
    1.2760   -3.4206    0.0000 C    0  0  0  0  0  0  0  0  0  0  0  0
    1.3384   -5.6151    0.0000 C    0  0  0  0  0  0  0  0  0  0  0  0
    1.0474   -4.8421    0.0000 O    0  0  0  0  0  0  0  0  0  0  0  0
  2  1  1  0  0  0  0
  3  1  1  0  0  0  0
  4  3  1  0  0  0  0
  5  2  1  0  0  0  0
  5  4  1  0  0  0  0
  6  4  2  0  0  0  0
  7  1  1  0  0  0  0
  8  2  2  0  0  0  0
  9 24  1  0  0  0  0
 10  9  3  0  0  0  0
 11  3  2  0  0  0  0
 12  6  1  0  0  0  0
 13  7  2  0  0  0  0
 14  7  1  0  0  0  0
 15 17  1  0  0  0  0
 15 18  2  0  0  0  0
 16 23  2  0  0  0  0
 16 22  1  0  0  0  0
 17 14  2  0  0  0  0
 18 13  1  0  0  0  0
 19 15  1  0  0  0  0
 20 12  1  0  0  0  0
 21 12  2  0  0  0  0
 22 20  2  0  0  0  0
 23 21  1  0  0  0  0
 24 25  1  0  0  0  0
 25 16  1  0  0  0  0
M  END
> <CdId>
923

> <Mol Weight>
368.837

> <Formula>
C19H13ClN2O2S

> <Click_ID>
CLK013_A08 __ __ 

$$$$
