CLK003_E07
 OpenBabel03181419432D

 17 18  0  0  0  0  0  0  0  0999 V2000
   -0.5111   -0.3561    0.0000 C   0  0  0  0  0  0  0  0  0  0  0  0
   -0.5111    0.4567    0.0000 C   0  0  0  0  0  0  0  0  0  0  0  0
    0.2014   -0.7587    0.0000 N   0  0  0  0  0  0  0  0  0  0  0  0
   -1.2311   -0.7587    0.0000 C   0  0  0  0  0  0  0  0  0  0  0  0
    0.2014    0.8750    0.0000 C   0  0  0  0  0  0  0  0  0  0  0  0
   -1.2311    0.8750    0.0000 C   0  0  0  0  0  0  0  0  0  0  0  0
    0.9291   -0.3561    0.0000 C   0  0  0  0  0  0  0  0  0  0  0  0
   -1.9048   -0.3561    0.0000 C   0  0  0  0  0  0  0  0  0  0  0  0
    0.9291    0.4567    0.0000 N   0  0  0  0  0  0  0  0  0  0  0  0
    0.2555    1.7112    0.0000 C   0  0  0  0  0  0  0  0  0  0  0  0
   -1.9048    0.4567    0.0000 C   0  0  0  0  0  0  0  0  0  0  0  0
    1.6492   -0.8052    0.0000 S   0  0  0  0  0  0  0  0  0  0  0  0
   -2.6170    0.8750    0.0000 O   0  0  0  0  0  0  0  0  0  0  0  0
    2.3615   -0.4414    0.0000 C   0  0  0  0  0  0  0  0  0  0  0  0
   -3.4301    0.3640    0.0000 C   0  0  0  0  0  0  0  0  0  0  0  0
    3.0351   -0.8905    0.0000 C   0  0  0  0  0  0  0  0  0  0  0  0
    3.7552   -1.3704    0.0000 C   0  0  0  0  0  0  0  0  0  0  0  0
  1  2  2  0  0  0  0
  1  3  1  0  0  0  0
  1  4  1  0  0  0  0
  2  5  1  0  0  0  0
  2  6  1  0  0  0  0
  3  7  2  0  0  0  0
  4  8  2  0  0  0  0
  5  9  2  0  0  0  0
  5 10  1  0  0  0  0
  6 11  2  0  0  0  0
  7 12  1  0  0  0  0
  7  9  1  0  0  0  0
  8 11  1  0  0  0  0
 11 13  1  0  0  0  0
 12 14  1  0  0  0  0
 13 15  1  0  0  0  0
 14 16  1  0  0  0  0
 16 17  3  0  0  0  0
M  END
> <CdId>
206

> <Mol Weight>
244.312

> <Formula>
C13H12N2OS

> <Click_ID>
CLK003_E07 __ __ 

$$$$
