CLK048D10
 OpenBabel03181419432D

 18 19  0  0  0  0  0  0  0  0999 V2000
    1.5875   -0.5917    0.0000 N   0  0  0  0  0  0  0  0  0  0  0  0
    1.5875    1.0583    0.0000 N   0  0  0  0  0  0  0  0  0  0  0  0
    0.8708   -0.1792    0.0000 C   0  0  0  0  0  0  0  0  0  0  0  0
   -1.2708   -0.5917    0.0000 C   0  0  0  0  0  0  0  0  0  0  0  0
    0.8708    0.6458    0.0000 C   0  0  0  0  0  0  0  0  0  0  0  0
    2.3000   -0.1792    0.0000 C   0  0  0  0  0  0  0  0  0  0  0  0
    2.3000    0.6458    0.0000 C   0  0  0  0  0  0  0  0  0  0  0  0
   -0.5583   -0.1792    0.0000 C   0  0  0  0  0  0  0  0  0  0  0  0
   -3.4167   -0.1792    0.0000 C   0  0  0  0  0  0  0  0  0  0  0  0
    0.1583   -0.5917    0.0000 C   0  0  0  0  0  0  0  0  0  0  0  0
   -4.1292    0.2333    0.0000 C   0  0  0  0  0  0  0  0  0  0  0  0
   -1.2708   -1.4167    0.0000 O   0  0  0  0  0  0  0  0  0  0  0  0
   -0.5583    0.6458    0.0000 C   0  0  0  0  0  0  0  0  0  0  0  0
    0.1583    1.0583    0.0000 C   0  0  0  0  0  0  0  0  0  0  0  0
   -1.9875   -0.1792    0.0000 N   0  0  0  0  0  0  0  0  0  0  0  0
   -2.7000   -0.5917    0.0000 C   0  0  0  0  0  0  0  0  0  0  0  0
    3.0167    1.0583    0.0000 C   0  0  0  0  0  0  0  0  0  0  0  0
    3.0167   -0.5917    0.0000 C   0  0  0  0  0  0  0  0  0  0  0  0
  2  7  1  0  0  0  0
  3  1  2  0  0  0  0
  4  8  1  0  0  0  0
  5  3  1  0  0  0  0
  5  2  2  0  0  0  0
  6  1  1  0  0  0  0
  7  6  2  0  0  0  0
  8 10  2  0  0  0  0
  8 13  1  0  0  0  0
  9 16  1  0  0  0  0
 10  3  1  0  0  0  0
 11  9  3  0  0  0  0
 12  4  2  0  0  0  0
 13 14  2  0  0  0  0
 14  5  1  0  0  0  0
 15  4  1  0  0  0  0
 16 15  1  0  0  0  0
 17  7  1  0  0  0  0
 18  6  1  0  0  0  0
M  END
> <CdId>
3716

> <Mol Weight>
239.2725

> <Formula>
C14H13N3O

> <Click_ID>
CLK048D10 __ __ 

$$$$
