CLK023_C08
 OpenBabel03181419432D

 27 29  0  0  0  0  0  0  0  0999 V2000
   -2.7690   -2.2874    0.0000 N   0  0  0  0  0  0  0  0  0  0  0  0
   -2.5213   -3.0751    0.0000 C   0  0  0  0  0  0  0  0  0  0  0  0
   -1.4585   -2.3115    0.0000 C   0  0  0  0  0  0  0  0  0  0  0  0
   -2.1051   -1.7990    0.0000 C   0  0  0  0  0  0  0  0  0  0  0  0
   -1.6923   -3.0751    0.0000 S   0  0  0  0  0  0  0  0  0  0  0  0
   -0.6914   -2.0122    0.0000 C   0  0  0  0  0  0  0  0  0  0  0  0
   -0.2064    0.0860    0.0000 C   0  0  0  0  0  0  0  0  0  0  0  0
    0.0791   -0.6879    0.0000 O   0  0  0  0  0  0  0  0  0  0  0  0
   -0.5676   -1.2005    0.0000 C   0  0  0  0  0  0  0  0  0  0  0  0
   -1.0319    0.0481    0.0000 C   0  0  0  0  0  0  0  0  0  0  0  0
    1.4344    2.9478    0.0000 C   0  0  0  0  0  0  0  0  0  0  0  0
   -3.4913   -1.0491    0.0000 C   0  0  0  0  0  0  0  0  0  0  0  0
   -1.2589   -0.7395    0.0000 C   0  0  0  0  0  0  0  0  0  0  0  0
   -3.4947   -0.2270    0.0000 C   0  0  0  0  0  0  0  0  0  0  0  0
   -3.1164   -3.6633    0.0000 O   0  0  0  0  0  0  0  0  0  0  0  0
    0.1961    0.8049    0.0000 C   0  0  0  0  0  0  0  0  0  0  0  0
   -1.9778   -0.9768    0.0000 O   0  0  0  0  0  0  0  0  0  0  0  0
    1.0284    2.2358    0.0000 C   0  0  0  0  0  0  0  0  0  0  0  0
   -3.4913   -1.8746    0.0000 C   0  0  0  0  0  0  0  0  0  0  0  0
    1.0216    3.6633    0.0000 O   0  0  0  0  0  0  0  0  0  0  0  0
    1.0284    0.8049    0.0000 C   0  0  0  0  0  0  0  0  0  0  0  0
   -0.2167    1.5238    0.0000 C   0  0  0  0  0  0  0  0  0  0  0  0
    0.1961    2.2358    0.0000 C   0  0  0  0  0  0  0  0  0  0  0  0
    1.4412    1.5169    0.0000 C   0  0  0  0  0  0  0  0  0  0  0  0
    2.2599    2.9478    0.0000 O   0  0  0  0  0  0  0  0  0  0  0  0
    2.6727    2.2358    0.0000 C   0  0  0  0  0  0  0  0  0  0  0  0
    3.4913    2.2358    0.0000 C   0  0  0  0  0  0  0  0  0  0  0  0
  2  1  1  0  0  0  0
  3  4  1  0  0  0  0
  3  5  1  0  0  0  0
  4  1  1  0  0  0  0
  5  2  1  0  0  0  0
  6  3  2  0  0  0  0
  7  8  1  0  0  0  0
  8  9  1  0  0  0  0
  9  6  1  0  0  0  0
 10 13  1  0  0  0  0
 10  7  2  0  0  0  0
 11 18  1  0  0  0  0
 12 19  1  0  0  0  0
 13  9  2  0  0  0  0
 14 12  3  0  0  0  0
 15  2  2  0  0  0  0
 16  7  1  0  0  0  0
 17  4  2  0  0  0  0
 18 23  1  0  0  0  0
 18 24  2  0  0  0  0
 19  1  1  0  0  0  0
 20 11  2  0  0  0  0
 21 16  2  0  0  0  0
 22 16  1  0  0  0  0
 23 22  2  0  0  0  0
 24 21  1  0  0  0  0
 25 11  1  0  0  0  0
 26 25  1  0  0  0  0
 27 26  1  0  0  0  0
M  END
> <CdId>
1723

> <Mol Weight>
381.402

> <Formula>
C20H15NO5S

> <Click_ID>
CLK023_C08 __ __ 

$$$$
