CLK034_D11
 OpenBabel03181419432D

 21 22  0  0  0  0  0  0  0  0999 V2000
   -4.5810    2.5487    0.0000 C   0  0  0  0  0  0  0  0  0  0  0  0
   -3.8689    2.9693    0.0000 N   0  0  0  0  0  0  0  0  0  0  0  0
   -4.6810    1.7324    0.0000 N   0  0  0  0  0  0  0  0  0  0  0  0
   -5.3182    2.8944    0.0000 S   0  0  0  0  0  0  0  0  0  0  0  0
   -5.4848    1.5742    0.0000 C   0  0  0  0  0  0  0  0  0  0  0  0
   -5.8929    2.2947    0.0000 C   0  0  0  0  0  0  0  0  0  0  0  0
   -3.8689    3.7981    0.0000 C   0  0  0  0  0  0  0  0  0  0  0  0
   -4.2479    0.3498    0.0000 C   0  0  0  0  0  0  0  0  0  0  0  0
   -4.4311   -0.4623    0.0000 C   0  0  0  0  0  0  0  0  0  0  0  0
   -5.9096    0.8704    0.0000 C   0  0  0  0  0  0  0  0  0  0  0  0
   -4.5935    4.2021    0.0000 O   0  0  0  0  0  0  0  0  0  0  0  0
   -4.0605    1.1577    0.0000 C   0  0  0  0  0  0  0  0  0  0  0  0
   -3.1567    4.2104    0.0000 C   0  0  0  0  0  0  0  0  0  0  0  0
   -6.7009    2.3114    0.0000 C   0  0  0  0  0  0  0  0  0  0  0  0
   -5.5181    0.1374    0.0000 O   0  0  0  0  0  0  0  0  0  0  0  0
   -7.1382    1.6075    0.0000 C   0  0  0  0  0  0  0  0  0  0  0  0
   -6.7259    0.8829    0.0000 C   0  0  0  0  0  0  0  0  0  0  0  0
   -2.4446    3.7939    0.0000 C   0  0  0  0  0  0  0  0  0  0  0  0
   -3.1609    5.0267    0.0000 C   0  0  0  0  0  0  0  0  0  0  0  0
   -5.9429   -0.5664    0.0000 C   0  0  0  0  0  0  0  0  0  0  0  0
   -5.5598   -1.2786    0.0000 C   0  0  0  0  0  0  0  0  0  0  0  0
  2  1  2  0  0  0  0
  3  1  1  0  0  0  0
  4  1  1  0  0  0  0
  5  3  1  0  0  0  0
  6  4  1  0  0  0  0
  6  5  2  0  0  0  0
  7  2  1  0  0  0  0
  8 12  1  0  0  0  0
  9  8  3  0  0  0  0
 10  5  1  0  0  0  0
 11  7  2  0  0  0  0
 12  3  1  0  0  0  0
 13  7  1  0  0  0  0
 14  6  1  0  0  0  0
 15 10  1  0  0  0  0
 16 14  2  0  0  0  0
 17 10  2  0  0  0  0
 17 16  1  0  0  0  0
 18 13  1  0  0  0  0
 19 13  1  0  0  0  0
 20 15  1  0  0  0  0
 21 20  1  0  0  0  0
M  END
> <CdId>
2605

> <Mol Weight>
302.391

> <Formula>
C16H18N2O2S

> <Click_ID>
CLK034_D11 __ __ 

$$$$
