CLK042B09
 OpenBabel03181419432D

 21 22  0  0  0  0  0  0  0  0999 V2000
   -0.5458   -0.1542    0.0000 S   0  0  0  0  0  0  0  0  0  0  0  0
   -0.5458   -0.9792    0.0000 C   0  0  0  0  0  0  0  0  0  0  0  0
   -0.5458    0.6708    0.0000 N   0  0  0  0  0  0  0  0  0  0  0  0
    0.1667   -1.3917    0.0000 C   0  0  0  0  0  0  0  0  0  0  0  0
   -1.2625   -1.3917    0.0000 C   0  0  0  0  0  0  0  0  0  0  0  0
    0.2792   -0.1542    0.0000 O   0  0  0  0  0  0  0  0  0  0  0  0
   -1.3708   -0.1542    0.0000 O   0  0  0  0  0  0  0  0  0  0  0  0
    0.8833    3.1458    0.0000 C   0  0  0  0  0  0  0  0  0  0  0  0
    0.8833    3.9708    0.0000 C   0  0  0  0  0  0  0  0  0  0  0  0
    0.1667   -2.2167    0.0000 C   0  0  0  0  0  0  0  0  0  0  0  0
   -1.2625   -2.2167    0.0000 C   0  0  0  0  0  0  0  0  0  0  0  0
    0.1667    1.0833    0.0000 C   0  0  0  0  0  0  0  0  0  0  0  0
   -0.5458   -2.6292    0.0000 C   0  0  0  0  0  0  0  0  0  0  0  0
    0.8833    2.3208    0.0000 C   0  0  0  0  0  0  0  0  0  0  0  0
    0.1667    1.9083    0.0000 C   0  0  0  0  0  0  0  0  0  0  0  0
    0.8833   -0.9792    0.0000 C   0  0  0  0  0  0  0  0  0  0  0  0
   -1.9750   -0.9792    0.0000 C   0  0  0  0  0  0  0  0  0  0  0  0
    1.5958    1.0833    0.0000 C   0  0  0  0  0  0  0  0  0  0  0  0
    0.8833    0.6708    0.0000 C   0  0  0  0  0  0  0  0  0  0  0  0
   -0.5458   -3.4542    0.0000 C   0  0  0  0  0  0  0  0  0  0  0  0
    1.5958    1.9083    0.0000 C   0  0  0  0  0  0  0  0  0  0  0  0
  2  1  1  0  0  0  0
  3  1  1  0  0  0  0
  4  2  1  0  0  0  0
  5  2  2  0  0  0  0
  6  1  2  0  0  0  0
  7  1  2  0  0  0  0
  8 14  1  0  0  0  0
  9  8  3  0  0  0  0
 10  4  2  0  0  0  0
 10 13  1  0  0  0  0
 11  5  1  0  0  0  0
 12  3  1  0  0  0  0
 13 11  2  0  0  0  0
 14 15  1  0  0  0  0
 15 12  2  0  0  0  0
 16  4  1  0  0  0  0
 17  5  1  0  0  0  0
 18 19  2  0  0  0  0
 19 12  1  0  0  0  0
 20 13  1  0  0  0  0
 21 14  2  0  0  0  0
 21 18  1  0  0  0  0
M  END
> <CdId>
3226

> <Mol Weight>
299.387

> <Formula>
C17H17NO2S

> <Click_ID>
CLK042B09 __ __ 

$$$$
