CLK019_C04
 OpenBabel03181419432D

 26 28  0  0  0  0  0  0  0  0999 V2000
    3.3500   -1.0250    0.0000 C    0  0  0  0  0  0  0  0  0  0  0  0
    2.8625   -1.7000    0.0000 N    0  0  0  0  0  0  0  0  0  0  0  0
    4.1750   -1.0250    0.0000 C    0  0  0  0  0  0  0  0  0  0  0  0
    2.8667   -0.3542    0.0000 N    0  0  0  0  0  0  0  0  0  0  0  0
    4.5875   -0.3125    0.0000 C    0  0  0  0  0  0  0  0  0  0  0  0
    3.3417    1.8250    0.0000 C    0  0  0  0  0  0  0  0  0  0  0  0
    2.0667   -1.4417    0.0000 C    0  0  0  0  0  0  0  0  0  0  0  0
    4.5875   -1.7417    0.0000 C    0  0  0  0  0  0  0  0  0  0  0  0
    4.1667    1.8250    0.0000 C    0  0  0  0  0  0  0  0  0  0  0  0
    2.9292    1.1208    0.0000 C    0  0  0  0  0  0  0  0  0  0  0  0
    2.0667   -0.6125    0.0000 C    0  0  0  0  0  0  0  0  0  0  0  0
    4.1667    0.4083    0.0000 C    0  0  0  0  0  0  0  0  0  0  0  0
    5.0000   -2.4500    0.0000 N    0  0  0  0  0  0  0  0  0  0  0  0
    2.9542    3.9833    0.0000 C    0  0  0  0  0  0  0  0  0  0  0  0
    2.5417    4.6875    0.0000 C    0  0  0  0  0  0  0  0  0  0  0  0
    4.5792    1.1083    0.0000 C    0  0  0  0  0  0  0  0  0  0  0  0
    3.3417    0.4000    0.0000 C    0  0  0  0  0  0  0  0  0  0  0  0
    4.5792    2.5458    0.0000 Br   0  0  0  0  0  0  0  0  0  0  0  0
    2.9417    2.5458    0.0000 O    0  0  0  0  0  0  0  0  0  0  0  0
    2.1167    1.1250    0.0000 O    0  0  0  0  0  0  0  0  0  0  0  0
    3.3625    3.2583    0.0000 C    0  0  0  0  0  0  0  0  0  0  0  0
    1.3542   -1.8542    0.0000 C    0  0  0  0  0  0  0  0  0  0  0  0
    1.3542   -0.2000    0.0000 C    0  0  0  0  0  0  0  0  0  0  0  0
    1.7042    0.4208    0.0000 C    0  0  0  0  0  0  0  0  0  0  0  0
    0.6417   -0.6125    0.0000 C    0  0  0  0  0  0  0  0  0  0  0  0
    0.6417   -1.4417    0.0000 C    0  0  0  0  0  0  0  0  0  0  0  0
  2  1  2  0  0  0  0
  3  1  1  0  0  0  0
  4  1  1  0  0  0  0
  5  3  2  0  0  0  0
  6 10  2  0  0  0  0
  7  2  1  0  0  0  0
  8  3  1  0  0  0  0
  9 16  2  0  0  0  0
  9  6  1  0  0  0  0
 10 17  1  0  0  0  0
 11  4  1  0  0  0  0
 11  7  1  0  0  0  0
 12  5  1  0  0  0  0
 13  8  3  0  0  0  0
 14 21  1  0  0  0  0
 15 14  3  0  0  0  0
 16 12  1  0  0  0  0
 17 12  2  0  0  0  0
 18  9  1  0  0  0  0
 19  6  1  0  0  0  0
 20 10  1  0  0  0  0
 21 19  1  0  0  0  0
 22  7  2  0  0  0  0
 23 11  2  0  0  0  0
 24 20  1  0  0  0  0
 25 23  1  0  0  0  0
 25 26  2  0  0  0  0
 26 22  1  0  0  0  0
M  END
> <CdId>
1419

> <Mol Weight>
408.248

> <Formula>
C20H14BrN3O2

> <Click_ID>
CLK019_C04 __ __ 

$$$$
