CLK004_H08
 OpenBabel03181419432D

 29 31  0  0  0  0  0  0  0  0999 V2000
   -0.1317   -0.3701    0.0000 C    0  0  3  0  0  0  0  0  0  0  0  0
   -0.2258    0.4559    0.0000 N    0  0  0  0  0  0  0  0  0  0  0  0
   -0.7968   -0.8574    0.0000 C    0  0  0  0  0  0  0  0  0  0  0  0
    0.6253   -0.6964    0.0000 C    0  0  0  0  0  0  0  0  0  0  0  0
    0.4413    0.9452    0.0000 C    0  0  0  0  0  0  0  0  0  0  0  0
   -0.9829    0.7864    0.0000 C    0  0  0  0  0  0  0  0  0  0  0  0
   -0.7027   -1.6751    0.0000 C    0  0  0  0  0  0  0  0  0  0  0  0
   -1.5538   -0.5270    0.0000 C    0  0  0  0  0  0  0  0  0  0  0  0
    0.7173   -1.5141    0.0000 N    0  0  0  0  0  0  0  0  0  0  0  0
    1.0896   -0.3555    0.0000 O    0  0  0  0  0  0  0  0  0  0  0  0
    0.3493    1.7650    0.0000 C    0  0  0  0  0  0  0  0  0  0  0  0
   -1.0728    1.6061    0.0000 C    0  0  0  0  0  0  0  0  0  0  0  0
   -1.6458    0.2949    0.0000 O    0  0  0  0  0  0  0  0  0  0  0  0
   -1.3677   -2.1645    0.0000 C    0  0  0  0  0  0  0  0  0  0  0  0
   -2.2168   -1.0143    0.0000 C    0  0  0  0  0  0  0  0  0  0  0  0
    1.4743   -1.8445    0.0000 C    0  0  0  0  0  0  0  0  0  0  0  0
    1.0143    2.2565    0.0000 C    0  0  0  0  0  0  0  0  0  0  0  0
   -0.4078    2.0955    0.0000 C    0  0  0  0  0  0  0  0  0  0  0  0
   -1.1648    2.4259    0.0000 C    0  0  0  0  0  0  0  0  0  0  0  0
   -2.1247   -1.8340    0.0000 C    0  0  0  0  0  0  0  0  0  0  0  0
    2.1875   -1.4262    0.0000 C    0  0  0  0  0  0  0  0  0  0  0  0
    1.6542   -2.6497    0.0000 C    0  0  0  0  0  0  0  0  0  0  0  0
    0.9223    3.0784    0.0000 C    0  0  0  0  0  0  0  0  0  0  0  0
    1.7713    1.9282    0.0000 Cl   0  0  0  0  0  0  0  0  0  0  0  0
   -0.5019    2.9131    0.0000 C    0  0  0  0  0  0  0  0  0  0  0  0
   -2.7877   -2.3213    0.0000 Cl   0  0  0  0  0  0  0  0  0  0  0  0
    2.8023   -1.9762    0.0000 C    0  0  0  0  0  0  0  0  0  0  0  0
    2.4719   -2.7333    0.0000 C    0  0  0  0  0  0  0  0  0  0  0  0
    0.1652    3.4088    0.0000 C    0  0  0  0  0  0  0  0  0  0  0  0
  1  2  1  0  0  0  0
  1  3  1  0  0  0  0
  1  4  1  0  0  0  0
  2  5  1  0  0  0  0
  2  6  1  0  0  0  0
  3  7  2  0  0  0  0
  3  8  1  0  0  0  0
  4  9  1  0  0  0  0
  4 10  2  0  0  0  0
  5 11  1  0  0  0  0
  6 12  1  0  0  0  0
  6 13  2  0  0  0  0
  7 14  1  0  0  0  0
  8 15  2  0  0  0  0
  9 16  1  0  0  0  0
 11 17  2  0  0  0  0
 11 18  1  0  0  0  0
 12 19  3  0  0  0  0
 14 20  2  0  0  0  0
 15 20  1  0  0  0  0
 16 21  1  0  0  0  0
 16 22  1  0  0  0  0
 17 23  1  0  0  0  0
 17 24  1  0  0  0  0
 18 25  2  0  0  0  0
 20 26  1  0  0  0  0
 21 27  1  0  0  0  0
 22 28  1  0  0  0  0
 23 29  2  0  0  0  0
 25 29  1  0  0  0  0
 27 28  1  0  0  0  0
M  END
> <CdId>
317

> <Mol Weight>
429.339

> <Formula>
C23H22Cl2N2O2

> <Click_ID>
CLK004_H08 __ __ 

$$$$
