CLK007_E06
 OpenBabel03181419432D

 22 24  0  0  0  0  0  0  0  0999 V2000
    0.9739    0.1105    0.0000 C   0  0  3  0  0  0  0  0  0  0  0  0
    0.2590   -0.3005    0.0000 C   0  0  0  0  0  0  0  0  0  0  0  0
    0.9739    0.9360    0.0000 C   0  0  0  0  0  0  0  0  0  0  0  0
    1.6854   -0.2936    0.0000 C   0  0  0  0  0  0  0  0  0  0  0  0
    0.2590   -1.1189    0.0000 C   0  0  0  0  0  0  0  0  0  0  0  0
   -0.4524    0.1209    0.0000 C   0  0  0  0  0  0  0  0  0  0  0  0
    0.2590    1.3469    0.0000 C   0  0  0  0  0  0  0  0  0  0  0  0
    1.6854    1.3469    0.0000 C   0  0  0  0  0  0  0  0  0  0  0  0
    1.6854   -1.1189    0.0000 C   0  0  0  0  0  0  0  0  0  0  0  0
   -0.4524   -1.5334    0.0000 N   0  0  0  0  0  0  0  0  0  0  0  0
    0.9739   -1.5334    0.0000 N   0  0  0  0  0  0  0  0  0  0  0  0
   -1.1604   -0.3005    0.0000 N   0  0  0  0  0  0  0  0  0  0  0  0
   -0.4524    0.9463    0.0000 O   0  0  0  0  0  0  0  0  0  0  0  0
    0.2487    2.1655    0.0000 C   0  0  0  0  0  0  0  0  0  0  0  0
    1.6854    2.1724    0.0000 C   0  0  0  0  0  0  0  0  0  0  0  0
    2.4004   -1.5334    0.0000 O   0  0  0  0  0  0  0  0  0  0  0  0
   -1.1604   -1.1294    0.0000 C   0  0  0  0  0  0  0  0  0  0  0  0
    0.9705    2.5868    0.0000 C   0  0  0  0  0  0  0  0  0  0  0  0
   -1.8822   -1.5403    0.0000 S   0  0  0  0  0  0  0  0  0  0  0  0
   -2.5938   -1.1294    0.0000 C   0  0  0  0  0  0  0  0  0  0  0  0
   -2.5938   -0.3005    0.0000 C   0  0  0  0  0  0  0  0  0  0  0  0
   -3.3086    0.1105    0.0000 C   0  0  0  0  0  0  0  0  0  0  0  0
  1  2  1  0  0  0  0
  1  3  1  0  0  0  0
  1  4  1  0  0  0  0
  2  5  2  0  0  0  0
  2  6  1  0  0  0  0
  3  7  1  0  0  0  0
  3  8  2  0  0  0  0
  4  9  1  0  0  0  0
  5 10  1  0  0  0  0
  5 11  1  0  0  0  0
  6 12  1  0  0  0  0
  6 13  2  0  0  0  0
  7 14  2  0  0  0  0
  8 15  1  0  0  0  0
  9 16  2  0  0  0  0
  9 11  1  0  0  0  0
 10 17  2  0  0  0  0
 12 17  1  0  0  0  0
 14 18  1  0  0  0  0
 15 18  2  0  0  0  0
 17 19  1  0  0  0  0
 19 20  1  0  0  0  0
 20 21  1  0  0  0  0
 21 22  3  0  0  0  0
M  END
> <CdId>
525

> <Mol Weight>
311.358

> <Formula>
C16H13N3O2S

> <Click_ID>
CLK007_E06 __ __ 

$$$$
