CLK038G04
 OpenBabel03181419432D

 21 21  0  0  0  0  0  0  0  0999 V2000
   -1.7042   -0.6250    0.0000 N   0  3  0  0  0  0  0  0  0  0  0  0
   -0.9875   -0.2125    0.0000 C   0  0  0  0  0  0  0  0  0  0  0  0
   -0.9875    0.6125    0.0000 C   0  0  0  0  0  0  0  0  0  0  0  0
   -0.2750    1.8500    0.0000 C   0  0  0  0  0  0  0  0  0  0  0  0
   -0.2750    1.0250    0.0000 C   0  0  0  0  0  0  0  0  0  0  0  0
    1.1542    3.5000    0.0000 C   0  0  0  0  0  0  0  0  0  0  0  0
   -0.2750   -0.6250    0.0000 C   0  0  0  0  0  0  0  0  0  0  0  0
    1.8708    3.9125    0.0000 C   0  0  0  0  0  0  0  0  0  0  0  0
   -2.4167   -0.2125    0.0000 O   0  5  0  0  0  0  0  0  0  0  0  0
   -1.7042   -1.4500    0.0000 O   0  0  0  0  0  0  0  0  0  0  0  0
   -0.9875    2.2625    0.0000 O   0  0  0  0  0  0  0  0  0  0  0  0
    0.4417    0.6125    0.0000 C   0  0  0  0  0  0  0  0  0  0  0  0
    0.4417   -0.2125    0.0000 C   0  0  0  0  0  0  0  0  0  0  0  0
    0.4417    2.2625    0.0000 N   0  0  0  0  0  0  0  0  0  0  0  0
   -0.2750   -1.4500    0.0000 S   0  0  0  0  0  0  0  0  0  0  0  0
    0.4417    3.0875    0.0000 C   0  0  0  0  0  0  0  0  0  0  0  0
    0.4417   -1.8625    0.0000 C   0  0  0  0  0  0  0  0  0  0  0  0
    0.4417   -2.6875    0.0000 C   0  0  0  0  0  0  0  0  0  0  0  0
    1.1542   -3.1000    0.0000 C   0  0  0  0  0  0  0  0  0  0  0  0
    1.8708   -2.6875    0.0000 C   0  0  0  0  0  0  0  0  0  0  0  0
    1.1542   -3.9250    0.0000 C   0  0  0  0  0  0  0  0  0  0  0  0
  2  1  1  0  0  0  0
  3  2  1  0  0  0  0
  4  5  1  0  0  0  0
  5  3  2  0  0  0  0
  5 12  1  0  0  0  0
  6 16  1  0  0  0  0
  7  2  2  0  0  0  0
  8  6  3  0  0  0  0
  9  1  1  0  0  0  0
 10  1  2  0  0  0  0
 11  4  2  0  0  0  0
 12 13  2  0  0  0  0
 13  7  1  0  0  0  0
 14  4  1  0  0  0  0
 15  7  1  0  0  0  0
 16 14  1  0  0  0  0
 17 15  1  0  0  0  0
 18 17  1  0  0  0  0
 19 18  1  0  0  0  0
 20 19  1  0  0  0  0
 21 19  1  0  0  0  0
M  END
> <CdId>
2871

> <Mol Weight>
306.38

> <Formula>
C15H18N2O3S

> <Click_ID>
CLK038G04 __ __ 

$$$$
