CLK042A06
 OpenBabel03181419432D

 23 24  0  0  0  0  0  0  0  0999 V2000
   -0.2500   -0.1792    0.0000 S    0  0  0  0  0  0  0  0  0  0  0  0
    0.4625   -0.5917    0.0000 C    0  0  0  0  0  0  0  0  0  0  0  0
    1.1792   -2.6542    0.0000 C    0  0  0  0  0  0  0  0  0  0  0  0
   -0.9667    0.2333    0.0000 N    0  0  0  0  0  0  0  0  0  0  0  0
    0.4625   -1.4167    0.0000 C    0  0  0  0  0  0  0  0  0  0  0  0
    1.1792   -1.8292    0.0000 C    0  0  0  0  0  0  0  0  0  0  0  0
    0.1625    0.5375    0.0000 O    0  0  0  0  0  0  0  0  0  0  0  0
   -0.6625   -0.8917    0.0000 O    0  0  0  0  0  0  0  0  0  0  0  0
   -2.3958    2.7083    0.0000 C    0  0  0  0  0  0  0  0  0  0  0  0
    1.1792   -0.1792    0.0000 C    0  0  0  0  0  0  0  0  0  0  0  0
   -3.1083    3.1208    0.0000 C    0  0  0  0  0  0  0  0  0  0  0  0
   -0.9667    1.0583    0.0000 C    0  0  0  0  0  0  0  0  0  0  0  0
    1.8917   -1.4167    0.0000 C    0  0  0  0  0  0  0  0  0  0  0  0
    1.8917   -0.5917    0.0000 C    0  0  0  0  0  0  0  0  0  0  0  0
    0.3542   -2.6542    0.0000 F    0  0  0  0  0  0  0  0  0  0  0  0
    1.1792   -3.4792    0.0000 F    0  0  0  0  0  0  0  0  0  0  0  0
    2.0042   -2.6542    0.0000 F    0  0  0  0  0  0  0  0  0  0  0  0
   -1.6792    2.2958    0.0000 C    0  0  0  0  0  0  0  0  0  0  0  0
   -1.6792    1.4708    0.0000 C    0  0  0  0  0  0  0  0  0  0  0  0
    1.1792    0.6458    0.0000 Cl   0  0  0  0  0  0  0  0  0  0  0  0
   -0.2500    2.2958    0.0000 C    0  0  0  0  0  0  0  0  0  0  0  0
   -0.2500    1.4708    0.0000 C    0  0  0  0  0  0  0  0  0  0  0  0
   -0.9667    2.7083    0.0000 C    0  0  0  0  0  0  0  0  0  0  0  0
  2  1  1  0  0  0  0
  3  6  1  0  0  0  0
  4  1  1  0  0  0  0
  5  2  1  0  0  0  0
  6  5  2  0  0  0  0
  7  1  2  0  0  0  0
  8  1  2  0  0  0  0
  9 18  1  0  0  0  0
 10  2  2  0  0  0  0
 11  9  3  0  0  0  0
 12  4  1  0  0  0  0
 13  6  1  0  0  0  0
 14 10  1  0  0  0  0
 14 13  2  0  0  0  0
 15  3  1  0  0  0  0
 16  3  1  0  0  0  0
 17  3  1  0  0  0  0
 18 19  1  0  0  0  0
 19 12  2  0  0  0  0
 20 10  1  0  0  0  0
 21 22  2  0  0  0  0
 22 12  1  0  0  0  0
 23 18  2  0  0  0  0
 23 21  1  0  0  0  0
M  END
> <CdId>
3201

> <Mol Weight>
359.751

> <Formula>
C15H9ClF3NO2S

> <Click_ID>
CLK042A06 __ __ 

$$$$
