CLK011_C04
 OpenBabel03181419432D

 29 31  0  0  0  0  0  0  0  0999 V2000
    6.5153   -4.4476    0.0000 N    0  0  0  0  0  0  0  0  0  0  0  0
    5.8538   -4.9343    0.0000 C    0  0  0  0  0  0  0  0  0  0  0  0
    6.9272   -5.7207    0.0000 C    0  0  0  0  0  0  0  0  0  0  0  0
    7.1810   -4.9343    0.0000 C    0  0  0  0  0  0  0  0  0  0  0  0
    6.1034   -5.7207    0.0000 S    0  0  0  0  0  0  0  0  0  0  0  0
    5.3420   -2.5212    0.0000 C    0  0  0  0  0  0  0  0  0  0  0  0
    7.4139   -6.3822    0.0000 C    0  0  0  0  0  0  0  0  0  0  0  0
    5.9536   -1.9638    0.0000 C    0  0  0  0  0  0  0  0  0  0  0  0
    7.0769   -7.1394    0.0000 C    0  0  0  0  0  0  0  0  0  0  0  0
    5.0716   -4.6805    0.0000 N    0  0  0  0  0  0  0  0  0  0  0  0
    9.6856   -8.3001    0.0000 C    0  0  0  0  0  0  0  0  0  0  0  0
   10.5010   -8.2169    0.0000 C    0  0  0  0  0  0  0  0  0  0  0  0
    4.5557   -2.2633    0.0000 C    0  0  0  0  0  0  0  0  0  0  0  0
    5.5085   -3.3242    0.0000 C    0  0  0  0  0  0  0  0  0  0  0  0
    7.5554   -7.8051    0.0000 C    0  0  0  0  0  0  0  0  0  0  0  0
    7.9673   -4.6805    0.0000 O    0  0  0  0  0  0  0  0  0  0  0  0
    4.8969   -3.8734    0.0000 C    0  0  0  0  0  0  0  0  0  0  0  0
    6.2574   -7.2184    0.0000 C    0  0  0  0  0  0  0  0  0  0  0  0
    5.7831   -1.1608    0.0000 O    0  0  0  0  0  0  0  0  0  0  0  0
    3.9441   -2.8208    0.0000 C    0  0  0  0  0  0  0  0  0  0  0  0
    7.2184   -8.5622    0.0000 C    0  0  0  0  0  0  0  0  0  0  0  0
    5.9162   -7.9756    0.0000 C    0  0  0  0  0  0  0  0  0  0  0  0
    6.7400   -2.2217    0.0000 O    0  0  0  0  0  0  0  0  0  0  0  0
    4.1189   -3.6238    0.0000 C    0  0  0  0  0  0  0  0  0  0  0  0
    4.3852   -1.4603    0.0000 Cl   0  0  0  0  0  0  0  0  0  0  0  0
    6.3947   -8.6413    0.0000 C    0  0  0  0  0  0  0  0  0  0  0  0
    5.0924   -8.0547    0.0000 Br   0  0  0  0  0  0  0  0  0  0  0  0
    8.3792   -7.7177    0.0000 O    0  0  0  0  0  0  0  0  0  0  0  0
    8.8618   -8.3875    0.0000 C    0  0  0  0  0  0  0  0  0  0  0  0
  2  1  2  0  0  0  0
  3  4  1  0  0  0  0
  4  1  1  0  0  0  0
  5  2  1  0  0  0  0
  5  3  1  0  0  0  0
  6 14  1  0  0  0  0
  6 13  2  0  0  0  0
  7  3  2  0  0  0  0
  8  6  1  0  0  0  0
  9  7  1  0  0  0  0
 10  2  1  0  0  0  0
 11 29  1  0  0  0  0
 12 11  3  0  0  0  0
 13 20  1  0  0  0  0
 14 17  2  0  0  0  0
 15  9  2  0  0  0  0
 16  4  2  0  0  0  0
 17 10  1  0  0  0  0
 18  9  1  0  0  0  0
 19  8  2  0  0  0  0
 20 24  2  0  0  0  0
 21 15  1  0  0  0  0
 22 18  2  0  0  0  0
 23  8  1  0  0  0  0
 24 17  1  0  0  0  0
 25 13  1  0  0  0  0
 26 22  1  0  0  0  0
 26 21  2  0  0  0  0
 27 22  1  0  0  0  0
 28 15  1  0  0  0  0
 29 28  1  0  0  0  0
M  END
> <CdId>
779

> <Mol Weight>
491.742

> <Formula>
C20H12BrClN2O4S

> <Click_ID>
CLK011_C04 __ __ 

$$$$
