CLK003_E08
 OpenBabel03181419432D

 29 31  0  0  0  0  0  0  0  0999 V2000
    0.5710   -0.6184    0.0000 C   0  0  3  0  0  0  0  0  0  0  0  0
   -0.1935   -0.9220    0.0000 N   0  0  0  0  0  0  0  0  0  0  0  0
    1.2180   -1.1345    0.0000 C   0  0  0  0  0  0  0  0  0  0  0  0
    0.6962    0.1916    0.0000 C   0  0  0  0  0  0  0  0  0  0  0  0
   -0.8404   -0.4098    0.0000 C   0  0  0  0  0  0  0  0  0  0  0  0
   -0.3168   -1.7377    0.0000 C   0  0  0  0  0  0  0  0  0  0  0  0
    1.1819   -1.9597    0.0000 C   0  0  0  0  0  0  0  0  0  0  0  0
    2.0128   -0.9144    0.0000 S   0  0  0  0  0  0  0  0  0  0  0  0
    1.4627    0.4933    0.0000 N   0  0  0  0  0  0  0  0  0  0  0  0
    0.0493    0.7057    0.0000 O   0  0  0  0  0  0  0  0  0  0  0  0
   -0.7171    0.4041    0.0000 C   0  0  0  0  0  0  0  0  0  0  0  0
   -1.6087   -0.7076    0.0000 C   0  0  0  0  0  0  0  0  0  0  0  0
   -1.0851   -2.0394    0.0000 C   0  0  0  0  0  0  0  0  0  0  0  0
    0.3282   -2.2538    0.0000 O   0  0  0  0  0  0  0  0  0  0  0  0
    1.9540   -2.2481    0.0000 C   0  0  0  0  0  0  0  0  0  0  0  0
    2.4701   -1.6011    0.0000 C   0  0  0  0  0  0  0  0  0  0  0  0
    1.5879    1.3109    0.0000 C   0  0  0  0  0  0  0  0  0  0  0  0
   -1.3621    0.9201    0.0000 C   0  0  0  0  0  0  0  0  0  0  0  0
   -2.2538   -0.1973    0.0000 C   0  0  0  0  0  0  0  0  0  0  0  0
   -1.8554   -2.3429    0.0000 C   0  0  0  0  0  0  0  0  0  0  0  0
    0.9979    1.8895    0.0000 C   0  0  0  0  0  0  0  0  0  0  0  0
    2.3183    1.6903    0.0000 C   0  0  0  0  0  0  0  0  0  0  0  0
   -2.1305    0.6166    0.0000 C   0  0  0  0  0  0  0  0  0  0  0  0
   -1.2388    1.7321    0.0000 O   0  0  0  0  0  0  0  0  0  0  0  0
    1.3678    2.6256    0.0000 C   0  0  0  0  0  0  0  0  0  0  0  0
    2.1817    2.5061    0.0000 C   0  0  0  0  0  0  0  0  0  0  0  0
   -2.7774    1.1326    0.0000 O   0  0  0  0  0  0  0  0  0  0  0  0
   -0.4743    2.0375    0.0000 C   0  0  0  0  0  0  0  0  0  0  0  0
   -3.5438    0.8309    0.0000 C   0  0  0  0  0  0  0  0  0  0  0  0
  1  2  1  0  0  0  0
  1  3  1  0  0  0  0
  1  4  1  0  0  0  0
  2  5  1  0  0  0  0
  2  6  1  0  0  0  0
  3  7  2  0  0  0  0
  3  8  1  0  0  0  0
  4  9  1  0  0  0  0
  4 10  2  0  0  0  0
  5 11  1  0  0  0  0
  5 12  2  0  0  0  0
  6 13  1  0  0  0  0
  6 14  2  0  0  0  0
  7 15  1  0  0  0  0
  8 16  1  0  0  0  0
  9 17  1  0  0  0  0
 11 18  2  0  0  0  0
 12 19  1  0  0  0  0
 13 20  3  0  0  0  0
 15 16  2  0  0  0  0
 17 21  1  0  0  0  0
 17 22  1  0  0  0  0
 18 23  1  0  0  0  0
 18 24  1  0  0  0  0
 19 23  2  0  0  0  0
 21 25  1  0  0  0  0
 22 26  1  0  0  0  0
 23 27  1  0  0  0  0
 24 28  1  0  0  0  0
 25 26  1  0  0  0  0
 27 29  1  0  0  0  0
M  END
> <CdId>
207

> <Mol Weight>
412.502

> <Formula>
C22H24N2O4S

> <Click_ID>
CLK003_E08 __ __ 

$$$$
