CLK044D10
 OpenBabel03181419432D

 22 23  0  0  0  0  0  0  0  0999 V2000
   -1.3000   -1.1250    0.0000 C   0  0  0  0  0  0  0  0  0  0  0  0
    1.5583    3.8292    0.0000 C   0  0  0  0  0  0  0  0  0  0  0  0
    1.5583    4.6500    0.0000 C   0  0  0  0  0  0  0  0  0  0  0  0
   -0.5875   -0.7125    0.0000 N   0  0  0  0  0  0  0  0  0  0  0  0
    0.1292    0.5250    0.0000 C   0  0  0  0  0  0  0  0  0  0  0  0
    0.1292    1.3500    0.0000 N   0  0  0  0  0  0  0  0  0  0  0  0
   -1.3000   -1.9500    0.0000 C   0  0  0  0  0  0  0  0  0  0  0  0
   -2.0167   -0.7125    0.0000 O   0  0  0  0  0  0  0  0  0  0  0  0
    0.8417    1.7625    0.0000 C   0  0  0  0  0  0  0  0  0  0  0  0
    0.8417    0.1125    0.0000 O   0  0  0  0  0  0  0  0  0  0  0  0
   -0.5875    0.1125    0.0000 C   0  0  0  0  0  0  0  0  0  0  0  0
   -0.5875   -2.3625    0.0000 C   0  0  0  0  0  0  0  0  0  0  0  0
   -2.0167   -2.3625    0.0000 C   0  0  0  0  0  0  0  0  0  0  0  0
    1.5583    3.0000    0.0000 C   0  0  0  0  0  0  0  0  0  0  0  0
    0.8417    2.5875    0.0000 C   0  0  0  0  0  0  0  0  0  0  0  0
   -0.5875   -3.1875    0.0000 C   0  0  0  0  0  0  0  0  0  0  0  0
   -2.0167   -3.1875    0.0000 C   0  0  0  0  0  0  0  0  0  0  0  0
   -1.3000   -3.6000    0.0000 C   0  0  0  0  0  0  0  0  0  0  0  0
    2.2708    1.7625    0.0000 C   0  0  0  0  0  0  0  0  0  0  0  0
    1.5583    1.3500    0.0000 C   0  0  0  0  0  0  0  0  0  0  0  0
    2.2708    2.5875    0.0000 C   0  0  0  0  0  0  0  0  0  0  0  0
   -1.3000   -4.4250    0.0000 C   0  0  0  0  0  0  0  0  0  0  0  0
  2 14  1  0  0  0  0
  3  2  3  0  0  0  0
  4  1  1  0  0  0  0
  5 11  1  0  0  0  0
  6  5  1  0  0  0  0
  7  1  1  0  0  0  0
  8  1  2  0  0  0  0
  9  6  1  0  0  0  0
 10  5  2  0  0  0  0
 11  4  1  0  0  0  0
 12  7  1  0  0  0  0
 13  7  2  0  0  0  0
 14 15  1  0  0  0  0
 15  9  2  0  0  0  0
 16 12  2  0  0  0  0
 16 18  1  0  0  0  0
 17 13  1  0  0  0  0
 18 17  2  0  0  0  0
 19 20  2  0  0  0  0
 20  9  1  0  0  0  0
 21 14  2  0  0  0  0
 21 19  1  0  0  0  0
 22 18  1  0  0  0  0
M  END
> <CdId>
3396

> <Mol Weight>
292.3318

> <Formula>
C18H16N2O2

> <Click_ID>
CLK044D10 __ __ 

$$$$
