CLK001_F07
 OpenBabel03181419432D

 18 17  0  0  0  0  0  0  0  0999 V2000
   -0.3649   -0.3133    0.0000 C   0  0  0  0  0  0  0  0  0  0  0  0
    0.2135    0.2755    0.0000 N   0  3  0  0  0  0  0  0  0  0  0  0
   -1.1499   -0.0998    0.0000 C   0  0  3  0  0  0  0  0  0  0  0  0
    0.7953   -0.2995    0.0000 C   0  0  0  0  0  0  0  0  0  0  0  0
    0.7918    0.8538    0.0000 C   0  0  0  0  0  0  0  0  0  0  0  0
   -0.3615    0.8469    0.0000 C   0  0  0  0  0  0  0  0  0  0  0  0
   -1.7317   -0.6851    0.0000 C   0  0  0  0  0  0  0  0  0  0  0  0
   -1.3668    0.6920    0.0000 O   0  0  0  0  0  0  0  0  0  0  0  0
    1.5734   -0.0861    0.0000 C   0  0  0  0  0  0  0  0  0  0  0  0
   -2.5270   -0.4751    0.0000 O   0  0  0  0  0  0  0  0  0  0  0  0
    2.1620   -0.6713    0.0000 C   0  0  0  0  0  0  0  0  0  0  0  0
   -2.7439    0.3167    0.0000 C   0  0  0  0  0  0  0  0  0  0  0  0
    2.9470   -0.4579    0.0000 S   0  0  0  0  0  0  0  0  0  0  0  0
   -3.5426    0.5233    0.0000 C   0  0  0  0  0  0  0  0  0  0  0  0
    3.7457   -0.2410    0.0000 O   0  0  0  0  0  0  0  0  0  0  0  0
    2.7301    0.3409    0.0000 O   0  0  0  0  0  0  0  0  0  0  0  0
    3.1639   -1.2566    0.0000 O   0  5  0  0  0  0  0  0  0  0  0  0
   -4.3413    0.7367    0.0000 C   0  0  0  0  0  0  0  0  0  0  0  0
  1  2  1  0  0  0  0
  1  3  1  0  0  0  0
  2  4  1  0  0  0  0
  2  5  1  0  0  0  0
  2  6  1  0  0  0  0
  3  7  1  0  0  0  0
  3  8  1  0  0  0  0
  4  9  1  0  0  0  0
  7 10  1  0  0  0  0
  9 11  1  0  0  0  0
 10 12  1  0  0  0  0
 11 13  1  0  0  0  0
 12 14  1  0  0  0  0
 13 15  2  0  0  0  0
 13 16  2  0  0  0  0
 13 17  1  0  0  0  0
 14 18  3  0  0  0  0
M  END
> <CdId>
56

> <Mol Weight>
279.353

> <Formula>
C11H21NO5S

> <Click_ID>
CLK001_F07 __ __ 

$$$$
