CLK005_B03
 OpenBabel03181419432D

 27 28  0  0  0  0  0  0  0  0999 V2000
    0.2693   -0.9113    0.0000 C   0  0  3  0  0  0  0  0  0  0  0  0
    0.2658   -0.0932    0.0000 C   0  0  0  0  0  0  0  0  0  0  0  0
   -0.4453   -1.3325    0.0000 C   0  0  0  0  0  0  0  0  0  0  0  0
    0.9839   -1.3221    0.0000 C   0  0  0  0  0  0  0  0  0  0  0  0
    0.9804    0.3211    0.0000 C   0  0  0  0  0  0  0  0  0  0  0  0
   -0.4488    0.3175    0.0000 C   0  0  0  0  0  0  0  0  0  0  0  0
   -0.4453   -2.1576    0.0000 C   0  0  0  0  0  0  0  0  0  0  0  0
   -1.1565   -0.9182    0.0000 C   0  0  0  0  0  0  0  0  0  0  0  0
    0.9839   -2.1576    0.0000 C   0  0  0  0  0  0  0  0  0  0  0  0
    1.6949   -0.9113    0.0000 C   0  0  0  0  0  0  0  0  0  0  0  0
    0.9804    1.1461    0.0000 C   0  0  0  0  0  0  0  0  0  0  0  0
   -0.4557    1.1426    0.0000 C   0  0  0  0  0  0  0  0  0  0  0  0
    0.2693   -2.5683    0.0000 O   0  0  0  0  0  0  0  0  0  0  0  0
   -1.1599   -2.5683    0.0000 C   0  0  0  0  0  0  0  0  0  0  0  0
   -1.8744   -1.3325    0.0000 O   0  0  0  0  0  0  0  0  0  0  0  0
   -1.1565   -0.0932    0.0000 O   0  0  0  0  0  0  0  0  0  0  0  0
    1.7053   -2.5683    0.0000 N   0  0  0  0  0  0  0  0  0  0  0  0
    2.4095   -0.4936    0.0000 N   0  0  0  0  0  0  0  0  0  0  0  0
    0.2555    1.5603    0.0000 C   0  0  0  0  0  0  0  0  0  0  0  0
    1.6915    1.5603    0.0000 O   0  0  0  0  0  0  0  0  0  0  0  0
   -2.5890   -0.9182    0.0000 C   0  0  0  0  0  0  0  0  0  0  0  0
    0.2555    2.3819    0.0000 O   0  0  0  0  0  0  0  0  0  0  0  0
    1.6846    2.3854    0.0000 C   0  0  0  0  0  0  0  0  0  0  0  0
   -3.3002   -1.3325    0.0000 C   0  0  0  0  0  0  0  0  0  0  0  0
   -0.4591    2.7927    0.0000 C   0  0  0  0  0  0  0  0  0  0  0  0
   -0.4695    3.6212    0.0000 C   0  0  0  0  0  0  0  0  0  0  0  0
   -0.4695    4.4463    0.0000 C   0  0  0  0  0  0  0  0  0  0  0  0
  1  2  1  0  0  0  0
  1  3  1  0  0  0  0
  1  4  1  0  0  0  0
  2  5  2  0  0  0  0
  2  6  1  0  0  0  0
  3  7  2  0  0  0  0
  3  8  1  0  0  0  0
  4  9  2  0  0  0  0
  4 10  1  0  0  0  0
  5 11  1  0  0  0  0
  6 12  2  0  0  0  0
  7 13  1  0  0  0  0
  7 14  1  0  0  0  0
  8 15  1  0  0  0  0
  8 16  2  0  0  0  0
  9 17  1  0  0  0  0
  9 13  1  0  0  0  0
 10 18  3  0  0  0  0
 11 19  2  0  0  0  0
 11 20  1  0  0  0  0
 12 19  1  0  0  0  0
 15 21  1  0  0  0  0
 19 22  1  0  0  0  0
 20 23  1  0  0  0  0
 21 24  1  0  0  0  0
 22 25  1  0  0  0  0
 25 26  1  0  0  0  0
 26 27  3  0  0  0  0
M  END
> <CdId>
332

> <Mol Weight>
368.3832

> <Formula>
C20H20N2O5

> <Click_ID>
CLK005_B03 __ __ 

$$$$
