CLK011_H06
 OpenBabel03181419432D

 22 23  0  0  0  0  0  0  0  0999 V2000
   -2.5683   -1.0838    0.0000 C   0  0  0  0  0  0  0  0  0  0  0  0
   -3.0026   -1.7853    0.0000 C   0  0  0  0  0  0  0  0  0  0  0  0
   -2.9506   -0.3563    0.0000 N   0  0  0  0  0  0  0  0  0  0  0  0
   -2.5126    0.3526    0.0000 C   0  0  0  0  0  0  0  0  0  0  0  0
   -1.7555   -1.1134    0.0000 C   0  0  0  0  0  0  0  0  0  0  0  0
   -3.8265   -1.7704    0.0000 C   0  0  0  0  0  0  0  0  0  0  0  0
   -0.0557    0.2412    0.0000 C   0  0  0  0  0  0  0  0  0  0  0  0
    0.3823    0.9353    0.0000 C   0  0  0  0  0  0  0  0  0  0  0  0
   -4.3053   -2.4199    0.0000 O   0  0  0  0  0  0  0  0  0  0  0  0
   -1.6776    0.3303    0.0000 O   0  0  0  0  0  0  0  0  0  0  0  0
   -2.9135    1.0689    0.0000 C   0  0  0  0  0  0  0  0  0  0  0  0
   -4.2608   -1.1023    0.0000 C   0  0  0  0  0  0  0  0  0  0  0  0
   -1.3769   -1.8298    0.0000 O   0  0  0  0  0  0  0  0  0  0  0  0
   -5.0958   -2.1378    0.0000 C   0  0  0  0  0  0  0  0  0  0  0  0
   -5.0736   -1.3250    0.0000 C   0  0  0  0  0  0  0  0  0  0  0  0
   -1.3027   -0.4157    0.0000 O   0  0  0  0  0  0  0  0  0  0  0  0
   -0.4899   -0.4491    0.0000 C   0  0  0  0  0  0  0  0  0  0  0  0
   -3.7486    1.0689    0.0000 C   0  0  0  0  0  0  0  0  0  0  0  0
   -2.4904    1.8000    0.0000 C   0  0  0  0  0  0  0  0  0  0  0  0
   -4.1605    1.8000    0.0000 C   0  0  0  0  0  0  0  0  0  0  0  0
   -2.9061    2.5126    0.0000 C   0  0  0  0  0  0  0  0  0  0  0  0
   -3.7374    2.5126    0.0000 C   0  0  0  0  0  0  0  0  0  0  0  0
  2  1  2  0  0  0  0
  3  1  1  0  0  0  0
  4  3  1  0  0  0  0
  5  1  1  0  0  0  0
  6  2  1  0  0  0  0
  7 17  1  0  0  0  0
  8  7  3  0  0  0  0
  9  6  1  0  0  0  0
 10  4  2  0  0  0  0
 11  4  1  0  0  0  0
 12  6  2  0  0  0  0
 13  5  2  0  0  0  0
 14  9  1  0  0  0  0
 14 15  2  0  0  0  0
 15 12  1  0  0  0  0
 16  5  1  0  0  0  0
 17 16  1  0  0  0  0
 18 11  1  0  0  0  0
 19 11  2  0  0  0  0
 20 18  2  0  0  0  0
 20 22  1  0  0  0  0
 21 19  1  0  0  0  0
 22 21  2  0  0  0  0
M  END
> <CdId>
831

> <Mol Weight>
295.2894

> <Formula>
C17H13NO4

> <Click_ID>
CLK011_H06 __ __ 

$$$$
