CLK047F05
 OpenBabel03181419432D

 27 30  0  0  0  0  0  0  0  0999 V2000
    0.8708   -0.4417    0.0000 N   0  0  0  0  0  0  0  0  0  0  0  0
    0.8708   -2.0917    0.0000 C   0  0  0  0  0  0  0  0  0  0  0  0
    0.1583   -1.6792    0.0000 C   0  0  0  0  0  0  0  0  0  0  0  0
    1.5875   -1.6792    0.0000 C   0  0  0  0  0  0  0  0  0  0  0  0
    0.1583   -0.8542    0.0000 C   0  0  0  0  0  0  0  0  0  0  0  0
    1.5875   -0.8542    0.0000 C   0  0  0  0  0  0  0  0  0  0  0  0
    0.8708    0.3833    0.0000 C   0  0  0  0  0  0  0  0  0  0  0  0
    0.1583    0.7958    0.0000 C   0  0  0  0  0  0  0  0  0  0  0  0
   -2.7000    1.6208    0.0000 C   0  0  0  0  0  0  0  0  0  0  0  0
   -3.4167    1.2083    0.0000 C   0  0  0  0  0  0  0  0  0  0  0  0
    0.1583    1.6208    0.0000 N   0  0  0  0  0  0  0  0  0  0  0  0
    0.8708   -2.9167    0.0000 O   0  0  0  0  0  0  0  0  0  0  0  0
   -0.5583    0.3833    0.0000 O   0  0  0  0  0  0  0  0  0  0  0  0
   -0.5583    2.0333    0.0000 C   0  0  0  0  0  0  0  0  0  0  0  0
   -1.9875    2.0333    0.0000 C   0  0  0  0  0  0  0  0  0  0  0  0
   -1.2708    1.6208    0.0000 C   0  0  0  0  0  0  0  0  0  0  0  0
    2.3000   -2.0917    0.0000 C   0  0  0  0  0  0  0  0  0  0  0  0
   -0.5583   -2.0917    0.0000 C   0  0  0  0  0  0  0  0  0  0  0  0
    2.3000   -0.4417    0.0000 C   0  0  0  0  0  0  0  0  0  0  0  0
   -0.5583   -0.4417    0.0000 C   0  0  0  0  0  0  0  0  0  0  0  0
   -1.2708    3.2708    0.0000 C   0  0  0  0  0  0  0  0  0  0  0  0
   -0.5583    2.8583    0.0000 C   0  0  0  0  0  0  0  0  0  0  0  0
   -1.9875    2.8583    0.0000 C   0  0  0  0  0  0  0  0  0  0  0  0
    3.0167   -1.6792    0.0000 C   0  0  0  0  0  0  0  0  0  0  0  0
   -1.2708   -1.6792    0.0000 C   0  0  0  0  0  0  0  0  0  0  0  0
    3.0167   -0.8542    0.0000 C   0  0  0  0  0  0  0  0  0  0  0  0
   -1.2708   -0.8542    0.0000 C   0  0  0  0  0  0  0  0  0  0  0  0
  2  4  1  0  0  0  0
  2  3  1  0  0  0  0
  3  5  2  0  0  0  0
  4  6  2  0  0  0  0
  5  1  1  0  0  0  0
  6  1  1  0  0  0  0
  7  1  1  0  0  0  0
  8  7  1  0  0  0  0
  9 15  1  0  0  0  0
 10  9  3  0  0  0  0
 11  8  1  0  0  0  0
 12  2  2  0  0  0  0
 13  8  2  0  0  0  0
 14 11  1  0  0  0  0
 15 16  1  0  0  0  0
 16 14  2  0  0  0  0
 17  4  1  0  0  0  0
 18  3  1  0  0  0  0
 19  6  1  0  0  0  0
 20  5  1  0  0  0  0
 21 22  2  0  0  0  0
 22 14  1  0  0  0  0
 23 15  2  0  0  0  0
 23 21  1  0  0  0  0
 24 17  2  0  0  0  0
 25 18  2  0  0  0  0
 25 27  1  0  0  0  0
 26 19  2  0  0  0  0
 26 24  1  0  0  0  0
 27 20  2  0  0  0  0
M  END
> <CdId>
3598

> <Mol Weight>
352.3853

> <Formula>
C23H16N2O2

> <Click_ID>
CLK047F05 __ __ 

$$$$
