CLK048D08
 OpenBabel03181419432D

 22 24  0  0  0  0  0  0  0  0999 V2000
   -0.0333   -0.4292    0.0000 C   0  0  0  0  0  0  0  0  0  0  0  0
   -0.7500    0.8083    0.0000 C   0  0  0  0  0  0  0  0  0  0  0  0
    2.8250   -1.2542    0.0000 C   0  0  0  0  0  0  0  0  0  0  0  0
   -1.4625    1.2208    0.0000 C   0  0  0  0  0  0  0  0  0  0  0  0
    3.5375   -0.8417    0.0000 C   0  0  0  0  0  0  0  0  0  0  0  0
   -0.0333   -1.2542    0.0000 N   0  0  0  0  0  0  0  0  0  0  0  0
   -0.7500   -0.0167    0.0000 C   0  0  0  0  0  0  0  0  0  0  0  0
   -2.1792    0.8083    0.0000 N   0  0  0  0  0  0  0  0  0  0  0  0
    0.6792   -0.0167    0.0000 O   0  0  0  0  0  0  0  0  0  0  0  0
    0.6792   -1.6667    0.0000 C   0  0  0  0  0  0  0  0  0  0  0  0
    2.1083   -1.6667    0.0000 C   0  0  0  0  0  0  0  0  0  0  0  0
   -1.4625    2.0458    0.0000 C   0  0  0  0  0  0  0  0  0  0  0  0
    1.3958   -1.2542    0.0000 C   0  0  0  0  0  0  0  0  0  0  0  0
   -0.0333    1.2208    0.0000 C   0  0  0  0  0  0  0  0  0  0  0  0
   -0.0333    2.0458    0.0000 C   0  0  0  0  0  0  0  0  0  0  0  0
    1.3958   -2.9042    0.0000 C   0  0  0  0  0  0  0  0  0  0  0  0
   -2.8917    1.2208    0.0000 C   0  0  0  0  0  0  0  0  0  0  0  0
    0.6792   -2.4917    0.0000 C   0  0  0  0  0  0  0  0  0  0  0  0
   -0.7500    2.4583    0.0000 C   0  0  0  0  0  0  0  0  0  0  0  0
    2.1083   -2.4917    0.0000 C   0  0  0  0  0  0  0  0  0  0  0  0
   -2.1792    2.4583    0.0000 C   0  0  0  0  0  0  0  0  0  0  0  0
   -2.8917    2.0458    0.0000 C   0  0  0  0  0  0  0  0  0  0  0  0
  2  7  1  0  0  0  0
  3 11  1  0  0  0  0
  4  2  2  0  0  0  0
  5  3  3  0  0  0  0
  6  1  1  0  0  0  0
  7  1  1  0  0  0  0
  8  4  1  0  0  0  0
  9  1  2  0  0  0  0
 10  6  1  0  0  0  0
 11 13  1  0  0  0  0
 12  4  1  0  0  0  0
 13 10  2  0  0  0  0
 14  2  1  0  0  0  0
 15 14  2  0  0  0  0
 16 18  2  0  0  0  0
 17  8  2  0  0  0  0
 17 22  1  0  0  0  0
 18 10  1  0  0  0  0
 19 12  2  0  0  0  0
 19 15  1  0  0  0  0
 20 11  2  0  0  0  0
 20 16  1  0  0  0  0
 21 12  1  0  0  0  0
 22 21  2  0  0  0  0
M  END
> <CdId>
3700

> <Mol Weight>
286.3273

> <Formula>
C19H14N2O

> <Click_ID>
CLK048D08 __ __ 

$$$$
