CLK002_H02
 OpenBabel03181419432D

 18 18  0  0  0  0  0  0  0  0999 V2000
    0.0776   -0.2598    0.0000 C   0  0  0  0  0  0  0  0  0  0  0  0
   -0.6438    0.1435    0.0000 C   0  0  0  0  0  0  0  0  0  0  0  0
    0.0776   -1.0667    0.0000 C   0  0  0  0  0  0  0  0  0  0  0  0
    0.7951    0.1435    0.0000 C   0  0  0  0  0  0  0  0  0  0  0  0
   -1.3614   -0.2598    0.0000 C   0  0  0  0  0  0  0  0  0  0  0  0
   -0.6438    0.9890    0.0000 C   0  0  0  0  0  0  0  0  0  0  0  0
   -0.6438   -1.4738    0.0000 C   0  0  0  0  0  0  0  0  0  0  0  0
    0.7951   -1.5088    0.0000 C   0  0  0  0  0  0  0  0  0  0  0  0
    0.7951    0.9580    0.0000 C   0  0  0  0  0  0  0  0  0  0  0  0
   -1.3614   -1.0667    0.0000 C   0  0  0  0  0  0  0  0  0  0  0  0
   -2.0867    0.1435    0.0000 C   0  0  0  0  0  0  0  0  0  0  0  0
    1.5126    1.3575    0.0000 C   0  0  3  0  0  0  0  0  0  0  0  0
   -2.0867   -1.5088    0.0000 O   0  0  0  0  0  0  0  0  0  0  0  0
    1.9199    0.6516    0.0000 C   0  0  0  0  0  0  0  0  0  0  0  0
    2.2380    1.8035    0.0000 C   0  0  0  0  0  0  0  0  0  0  0  0
    1.0899    2.1023    0.0000 O   0  0  0  0  0  0  0  0  0  0  0  0
   -2.8043   -1.1015    0.0000 C   0  0  0  0  0  0  0  0  0  0  0  0
    2.3505   -0.0543    0.0000 C   0  0  0  0  0  0  0  0  0  0  0  0
  1  2  1  0  0  0  0
  1  3  2  0  0  0  0
  1  4  1  0  0  0  0
  2  5  2  0  0  0  0
  2  6  1  0  0  0  0
  3  7  1  0  0  0  0
  3  8  1  0  0  0  0
  4  9  1  0  0  0  0
  5 10  1  0  0  0  0
  5 11  1  0  0  0  0
  7 10  2  0  0  0  0
  9 12  1  0  0  0  0
 10 13  1  0  0  0  0
 12 14  1  0  0  0  0
 12 15  1  0  0  0  0
 12 16  1  0  0  0  0
 13 17  1  0  0  0  0
 14 18  3  0  0  0  0
M  END
> <CdId>
151

> <Mol Weight>
246.3447

> <Formula>
C16H22O2

> <Click_ID>
CLK002_H02 __ __ 

$$$$
