CLK040D07
 OpenBabel03181419432D

 26 27  0  0  0  0  0  0  0  0999 V2000
   -1.8417   -1.3458    0.0000 S   0  0  0  0  0  0  0  0  0  0  0  0
    2.4417    1.1292    0.0000 C   0  0  0  0  0  0  0  0  0  0  0  0
    1.7292    0.7167    0.0000 C   0  0  0  0  0  0  0  0  0  0  0  0
   -1.8417   -0.5208    0.0000 C   0  0  0  0  0  0  0  0  0  0  0  0
   -0.4125    1.1292    0.0000 C   0  0  0  0  0  0  0  0  0  0  0  0
    1.0167    1.1292    0.0000 N   0  0  0  0  0  0  0  0  0  0  0  0
    0.3000    0.7167    0.0000 N   0  0  0  0  0  0  0  0  0  0  0  0
   -2.5583   -3.4083    0.0000 C   0  0  0  0  0  0  0  0  0  0  0  0
   -1.1292    0.7167    0.0000 C   0  0  0  0  0  0  0  0  0  0  0  0
   -1.1292   -0.1083    0.0000 C   0  0  0  0  0  0  0  0  0  0  0  0
   -2.5583   -4.2333    0.0000 C   0  0  0  0  0  0  0  0  0  0  0  0
   -1.0167   -1.3458    0.0000 O   0  0  0  0  0  0  0  0  0  0  0  0
   -2.6667   -1.3458    0.0000 O   0  0  0  0  0  0  0  0  0  0  0  0
   -1.8417   -2.1708    0.0000 N   0  0  0  0  0  0  0  0  0  0  0  0
    3.1583    0.7167    0.0000 C   0  0  0  0  0  0  0  0  0  0  0  0
    1.7292   -0.1083    0.0000 O   0  0  0  0  0  0  0  0  0  0  0  0
   -0.4125    1.9542    0.0000 O   0  0  0  0  0  0  0  0  0  0  0  0
   -2.5583   -2.5833    0.0000 C   0  0  0  0  0  0  0  0  0  0  0  0
    3.1583   -0.1083    0.0000 O   0  0  0  0  0  0  0  0  0  0  0  0
    2.4417    1.9542    0.0000 C   0  0  0  0  0  0  0  0  0  0  0  0
   -2.5583   -0.1083    0.0000 C   0  0  0  0  0  0  0  0  0  0  0  0
   -1.8417    1.1292    0.0000 C   0  0  0  0  0  0  0  0  0  0  0  0
   -2.5583    0.7167    0.0000 C   0  0  0  0  0  0  0  0  0  0  0  0
    3.8708    1.1292    0.0000 C   0  0  0  0  0  0  0  0  0  0  0  0
    3.1583    2.3667    0.0000 C   0  0  0  0  0  0  0  0  0  0  0  0
    3.8708    1.9542    0.0000 C   0  0  0  0  0  0  0  0  0  0  0  0
  2  3  1  0  0  0  0
  3  6  1  0  0  0  0
  4  1  1  0  0  0  0
  5  9  1  0  0  0  0
  6  7  1  0  0  0  0
  7  5  1  0  0  0  0
  8 18  1  0  0  0  0
  9 10  2  0  0  0  0
 10  4  1  0  0  0  0
 11  8  3  0  0  0  0
 12  1  2  0  0  0  0
 13  1  2  0  0  0  0
 14  1  1  0  0  0  0
 15  2  2  0  0  0  0
 16  3  2  0  0  0  0
 17  5  2  0  0  0  0
 18 14  1  0  0  0  0
 19 15  1  0  0  0  0
 20  2  1  0  0  0  0
 21  4  2  0  0  0  0
 22  9  1  0  0  0  0
 23 21  1  0  0  0  0
 23 22  2  0  0  0  0
 24 15  1  0  0  0  0
 25 20  2  0  0  0  0
 25 26  1  0  0  0  0
 26 24  2  0  0  0  0
M  END
> <CdId>
3052

> <Mol Weight>
373.383

> <Formula>
C17H15N3O5S

> <Click_ID>
CLK040D07 __ __ 

$$$$
