CLK016_A09
 OpenBabel03181419432D

 29 31  0  0  0  0  0  0  0  0999 V2000
    1.5720   -0.8195    0.0000 N    0  0  0  0  0  0  0  0  0  0  0  0
    1.8312   -1.6096    0.0000 C    0  0  0  0  0  0  0  0  0  0  0  0
    2.2450   -0.3303    0.0000 C    0  0  0  0  0  0  0  0  0  0  0  0
    2.9140   -0.8195    0.0000 C    0  0  0  0  0  0  0  0  0  0  0  0
    2.6589   -1.6096    0.0000 S    0  0  0  0  0  0  0  0  0  0  0  0
    4.2058    1.8646    0.0000 C    0  0  0  0  0  0  0  0  0  0  0  0
    3.7041   -0.5644    0.0000 C    0  0  0  0  0  0  0  0  0  0  0  0
    4.8079    1.3127    0.0000 C    0  0  0  0  0  0  0  0  0  0  0  0
    3.4282    1.6012    0.0000 C    0  0  0  0  0  0  0  0  0  0  0  0
    4.3814    2.6673    0.0000 O    0  0  0  0  0  0  0  0  0  0  0  0
    3.8672    0.2466    0.0000 C    0  0  0  0  0  0  0  0  0  0  0  0
    0.6146    0.2466    0.0000 C    0  0  0  0  0  0  0  0  0  0  0  0
    0.3930    1.0493    0.0000 C    0  0  0  0  0  0  0  0  0  0  0  0
    1.3420   -2.2743    0.0000 O    0  0  0  0  0  0  0  0  0  0  0  0
    5.3472    3.7208    0.0000 C    0  0  0  0  0  0  0  0  0  0  0  0
    4.6448    0.5017    0.0000 C    0  0  0  0  0  0  0  0  0  0  0  0
    2.2367    0.4975    0.0000 O    0  0  0  0  0  0  0  0  0  0  0  0
    3.2484    0.7985    0.0000 C    0  0  0  0  0  0  0  0  0  0  0  0
    0.7902   -0.5644    0.0000 C    0  0  0  0  0  0  0  0  0  0  0  0
    5.1674    2.9056    0.0000 C    0  0  0  0  0  0  0  0  0  0  0  0
    4.7409    4.2560    0.0000 C    0  0  0  0  0  0  0  0  0  0  0  0
    5.5980    1.5510    0.0000 Cl   0  0  0  0  0  0  0  0  0  0  0  0
    2.8220    2.1530    0.0000 O    0  0  0  0  0  0  0  0  0  0  0  0
    3.9550    4.0093    0.0000 Cl   0  0  0  0  0  0  0  0  0  0  0  0
    6.1206    3.9591    0.0000 C    0  0  0  0  0  0  0  0  0  0  0  0
    4.9207    5.0587    0.0000 C    0  0  0  0  0  0  0  0  0  0  0  0
    2.0444    1.9022    0.0000 C    0  0  0  0  0  0  0  0  0  0  0  0
    6.3004    4.7451    0.0000 C    0  0  0  0  0  0  0  0  0  0  0  0
    5.7067    5.3095    0.0000 C    0  0  0  0  0  0  0  0  0  0  0  0
  2  1  1  0  0  0  0
  3  1  1  0  0  0  0
  4  3  1  0  0  0  0
  4  5  1  0  0  0  0
  5  2  1  0  0  0  0
  6  9  2  0  0  0  0
  6  8  1  0  0  0  0
  7  4  2  0  0  0  0
  8 16  2  0  0  0  0
  9 18  1  0  0  0  0
 10  6  1  0  0  0  0
 11  7  1  0  0  0  0
 12 19  1  0  0  0  0
 13 12  3  0  0  0  0
 14  2  2  0  0  0  0
 15 20  1  0  0  0  0
 16 11  1  0  0  0  0
 17  3  2  0  0  0  0
 18 11  2  0  0  0  0
 19  1  1  0  0  0  0
 20 10  1  0  0  0  0
 21 15  1  0  0  0  0
 22  8  1  0  0  0  0
 23  9  1  0  0  0  0
 24 21  1  0  0  0  0
 25 15  2  0  0  0  0
 26 21  2  0  0  0  0
 26 29  1  0  0  0  0
 27 23  1  0  0  0  0
 28 25  1  0  0  0  0
 29 28  2  0  0  0  0
M  END
> <CdId>
1164

> <Mol Weight>
448.319

> <Formula>
C21H15Cl2NO4S

> <Click_ID>
CLK016_A09 __ __ 

$$$$
