CLK021_H04
 OpenBabel03181419432D

 25 26  0  0  0  0  0  0  0  0999 V2000
    4.7274    1.7178    0.0000 N   0  3  0  0  0  0  0  0  0  0  0  0
    3.3028    4.1914    0.0000 C   0  0  0  0  0  0  0  0  0  0  0  0
    4.0128    4.6037    0.0000 C   0  0  0  0  0  0  0  0  0  0  0  0
    3.3028    3.3669    0.0000 C   0  0  0  0  0  0  0  0  0  0  0  0
    4.0128    2.1301    0.0000 C   0  0  0  0  0  0  0  0  0  0  0  0
    4.0128    5.4282    0.0000 C   0  0  0  0  0  0  0  0  0  0  0  0
    4.0128    6.2528    0.0000 N   0  0  0  0  0  0  0  0  0  0  0  0
    7.5858    5.0160    0.0000 N   0  0  0  0  0  0  0  0  0  0  0  0
    4.0128    2.9546    0.0000 C   0  0  0  0  0  0  0  0  0  0  0  0
    0.5268    3.2523    0.0000 C   0  0  0  0  0  0  0  0  0  0  0  0
    4.7274    4.1914    0.0000 C   0  0  0  0  0  0  0  0  0  0  0  0
   -0.1878    3.6646    0.0000 C   0  0  0  0  0  0  0  0  0  0  0  0
    6.8712    4.6037    0.0000 C   0  0  0  0  0  0  0  0  0  0  0  0
    4.7274    0.8933    0.0000 O   0  5  0  0  0  0  0  0  0  0  0  0
    5.4420    2.1301    0.0000 O   0  0  0  0  0  0  0  0  0  0  0  0
    2.5882    2.9546    0.0000 C   0  0  0  0  0  0  0  0  0  0  0  0
    5.4420    4.6037    0.0000 C   0  0  0  0  0  0  0  0  0  0  0  0
    3.3028    1.7178    0.0000 C   0  0  0  0  0  0  0  0  0  0  0  0
    2.5882    2.1301    0.0000 C   0  0  0  0  0  0  0  0  0  0  0  0
    6.1566    4.1914    0.0000 C   0  0  0  0  0  0  0  0  0  0  0  0
    1.8736    3.3669    0.0000 O   0  0  0  0  0  0  0  0  0  0  0  0
    1.2414    2.8401    0.0000 C   0  0  0  0  0  0  0  0  0  0  0  0
    4.7274    3.3669    0.0000 C   0  0  0  0  0  0  0  0  0  0  0  0
    5.4420    2.9546    0.0000 C   0  0  0  0  0  0  0  0  0  0  0  0
    6.1566    3.3669    0.0000 C   0  0  0  0  0  0  0  0  0  0  0  0
  2  4  1  0  0  0  0
  3  2  2  0  0  0  0
  4  9  1  0  0  0  0
  5  1  1  0  0  0  0
  6  3  1  0  0  0  0
  7  6  3  0  0  0  0
  8 13  3  0  0  0  0
  9  5  2  0  0  0  0
 10 22  1  0  0  0  0
 11  3  1  0  0  0  0
 12 10  3  0  0  0  0
 13 20  1  0  0  0  0
 14  1  1  0  0  0  0
 15  1  2  0  0  0  0
 16 19  1  0  0  0  0
 16  4  2  0  0  0  0
 17 11  2  0  0  0  0
 18  5  1  0  0  0  0
 19 18  2  0  0  0  0
 20 17  1  0  0  0  0
 21 16  1  0  0  0  0
 22 21  1  0  0  0  0
 23 11  1  0  0  0  0
 24 23  2  0  0  0  0
 25 24  1  0  0  0  0
 25 20  2  0  0  0  0
M  END
> <CdId>
1629

> <Mol Weight>
329.3089

> <Formula>
C19H11N3O3

> <Click_ID>
CLK021_H04 __ __ 

$$$$
