CLK043H06
 OpenBabel03181419432D

 23 24  0  0  0  0  0  0  0  0999 V2000
    1.3667   -1.9708    0.0000 S   0  0  0  0  0  0  0  0  0  0  0  0
    1.3667   -1.1458    0.0000 C   0  0  0  0  0  0  0  0  0  0  0  0
   -0.0625    0.5042    0.0000 C   0  0  0  0  0  0  0  0  0  0  0  0
   -0.0625    1.3292    0.0000 N   0  0  0  0  0  0  0  0  0  0  0  0
    1.3667   -2.7958    0.0000 N   0  0  0  0  0  0  0  0  0  0  0  0
    0.6500    0.0917    0.0000 C   0  0  0  0  0  0  0  0  0  0  0  0
   -2.9208    1.3292    0.0000 C   0  0  0  0  0  0  0  0  0  0  0  0
    0.6500   -0.7333    0.0000 C   0  0  0  0  0  0  0  0  0  0  0  0
    2.1917   -1.9708    0.0000 O   0  0  0  0  0  0  0  0  0  0  0  0
    0.5417   -1.9708    0.0000 O   0  0  0  0  0  0  0  0  0  0  0  0
   -3.6375    0.9167    0.0000 C   0  0  0  0  0  0  0  0  0  0  0  0
   -0.7792    0.0917    0.0000 O   0  0  0  0  0  0  0  0  0  0  0  0
   -0.7792    1.7417    0.0000 C   0  0  0  0  0  0  0  0  0  0  0  0
   -2.2083    1.7417    0.0000 C   0  0  0  0  0  0  0  0  0  0  0  0
   -1.4917    1.3292    0.0000 C   0  0  0  0  0  0  0  0  0  0  0  0
    2.0792   -0.7333    0.0000 C   0  0  0  0  0  0  0  0  0  0  0  0
    1.3667    0.5042    0.0000 C   0  0  0  0  0  0  0  0  0  0  0  0
    2.0792    0.0917    0.0000 C   0  0  0  0  0  0  0  0  0  0  0  0
   -1.4917    2.9792    0.0000 C   0  0  0  0  0  0  0  0  0  0  0  0
    2.0792   -3.2083    0.0000 C   0  0  0  0  0  0  0  0  0  0  0  0
    0.6500   -3.2083    0.0000 C   0  0  0  0  0  0  0  0  0  0  0  0
   -0.7792    2.5667    0.0000 C   0  0  0  0  0  0  0  0  0  0  0  0
   -2.2083    2.5667    0.0000 C   0  0  0  0  0  0  0  0  0  0  0  0
  2  1  1  0  0  0  0
  3  6  1  0  0  0  0
  4  3  1  0  0  0  0
  5  1  1  0  0  0  0
  6  8  1  0  0  0  0
  7 14  1  0  0  0  0
  8  2  2  0  0  0  0
  9  1  2  0  0  0  0
 10  1  2  0  0  0  0
 11  7  3  0  0  0  0
 12  3  2  0  0  0  0
 13  4  1  0  0  0  0
 14 15  1  0  0  0  0
 15 13  2  0  0  0  0
 16  2  1  0  0  0  0
 17  6  2  0  0  0  0
 17 18  1  0  0  0  0
 18 16  2  0  0  0  0
 19 22  2  0  0  0  0
 20  5  1  0  0  0  0
 21  5  1  0  0  0  0
 22 13  1  0  0  0  0
 23 14  2  0  0  0  0
 23 19  1  0  0  0  0
M  END
> <CdId>
3288

> <Mol Weight>
328.386

> <Formula>
C17H16N2O3S

> <Click_ID>
CLK043H06 __ __ 

$$$$
