CLK007_D09
 OpenBabel03181419432D

 26 27  0  0  0  0  0  0  0  0999 V2000
    0.5981   -1.1096    0.0000 C   0  0  0  0  0  0  0  0  0  0  0  0
   -0.0726   -0.6291    0.0000 C   0  0  0  0  0  0  0  0  0  0  0  0
    1.3862   -0.8607    0.0000 C   0  0  0  0  0  0  0  0  0  0  0  0
    0.3422   -1.9013    0.0000 S   0  0  0  0  0  0  0  0  0  0  0  0
   -0.7432   -1.1096    0.0000 N   0  0  0  0  0  0  0  0  0  0  0  0
   -0.0795    0.1971    0.0000 O   0  0  0  0  0  0  0  0  0  0  0  0
    1.5555   -0.0657    0.0000 C   0  0  0  0  0  0  0  0  0  0  0  0
   -0.4840   -1.9013    0.0000 C   0  0  0  0  0  0  0  0  0  0  0  0
   -1.5244   -0.8607    0.0000 C   0  0  0  0  0  0  0  0  0  0  0  0
    2.3264    0.1833    0.0000 C   0  0  0  0  0  0  0  0  0  0  0  0
    0.9471    0.4943    0.0000 C   0  0  0  0  0  0  0  0  0  0  0  0
   -0.9748   -2.5718    0.0000 O   0  0  0  0  0  0  0  0  0  0  0  0
   -2.1467   -1.4104    0.0000 C   0  0  0  0  0  0  0  0  0  0  0  0
    2.5131    0.9955    0.0000 C   0  0  0  0  0  0  0  0  0  0  0  0
    1.1304    1.2860    0.0000 C   0  0  0  0  0  0  0  0  0  0  0  0
   -2.9279   -1.1615    0.0000 O   0  0  0  0  0  0  0  0  0  0  0  0
   -1.9739   -2.2227    0.0000 O   0  0  0  0  0  0  0  0  0  0  0  0
    1.9081    1.5279    0.0000 C   0  0  0  0  0  0  0  0  0  0  0  0
   -3.1007   -0.3457    0.0000 C   0  0  0  0  0  0  0  0  0  0  0  0
    2.0879    2.3195    0.0000 O   0  0  0  0  0  0  0  0  0  0  0  0
   -3.5501   -1.0440    0.0000 C   0  0  0  0  0  0  0  0  0  0  0  0
   -3.8889   -0.0968    0.0000 C   0  0  0  0  0  0  0  0  0  0  0  0
   -2.4854    0.2039    0.0000 C   0  0  0  0  0  0  0  0  0  0  0  0
    2.8726    2.5684    0.0000 C   0  0  0  0  0  0  0  0  0  0  0  0
    3.0523    3.3600    0.0000 C   0  0  0  0  0  0  0  0  0  0  0  0
    3.2390    4.1619    0.0000 C   0  0  0  0  0  0  0  0  0  0  0  0
  1  2  1  0  0  0  0
  1  3  2  0  0  0  0
  1  4  1  0  0  0  0
  2  5  1  0  0  0  0
  2  6  2  0  0  0  0
  3  7  1  0  0  0  0
  4  8  1  0  0  0  0
  5  9  1  0  0  0  0
  5  8  1  0  0  0  0
  7 10  1  0  0  0  0
  7 11  2  0  0  0  0
  8 12  2  0  0  0  0
  9 13  1  0  0  0  0
 10 14  2  0  0  0  0
 11 15  1  0  0  0  0
 13 16  1  0  0  0  0
 13 17  2  0  0  0  0
 14 18  1  0  0  0  0
 15 18  2  0  0  0  0
 16 19  1  0  0  0  0
 18 20  1  0  0  0  0
 19 21  1  0  0  0  0
 19 22  1  0  0  0  0
 19 23  1  0  0  0  0
 20 24  1  0  0  0  0
 24 25  1  0  0  0  0
 25 26  3  0  0  0  0
M  END
> <CdId>
518

> <Mol Weight>
373.423

> <Formula>
C19H19NO5S

> <Click_ID>
CLK007_D09 __ __ 

$$$$
