CLK008_F02
 OpenBabel03181419432D

 34 38  0  0  0  0  0  0  0  0999 V2000
   -0.1587    0.7074    0.0000 C   0  0  3  0  0  0  0  0  0  0  0  0
   -0.8696    0.2933    0.0000 C   0  0  0  0  0  0  0  0  0  0  0  0
    0.6349    0.9178    0.0000 C   0  0  0  0  0  0  0  0  0  0  0  0
    0.5556    0.2933    0.0000 C   0  0  0  0  0  0  0  0  0  0  0  0
   -0.6073    1.3940    0.0000 C   0  0  0  0  0  0  0  0  0  0  0  0
   -0.8799   -0.5314    0.0000 C   0  0  0  0  0  0  0  0  0  0  0  0
   -1.5839    0.7074    0.0000 C   0  0  0  0  0  0  0  0  0  0  0  0
    0.6798    1.7426    0.0000 C   0  0  0  0  0  0  0  0  0  0  0  0
    1.3319    0.4796    0.0000 C   0  0  0  0  0  0  0  0  0  0  0  0
    0.5556   -0.5314    0.0000 C   0  0  0  0  0  0  0  0  0  0  0  0
    1.2663   -0.1208    0.0000 C   0  0  0  0  0  0  0  0  0  0  0  0
   -0.0967    2.0428    0.0000 N   0  0  0  0  0  0  0  0  0  0  0  0
   -1.1974    1.9806    0.0000 O   0  0  0  0  0  0  0  0  0  0  0  0
   -0.1656   -0.9454    0.0000 N   0  0  0  0  0  0  0  0  0  0  0  0
   -1.5839   -0.9454    0.0000 C   0  0  0  0  0  0  0  0  0  0  0  0
   -2.2981    0.2933    0.0000 C   0  0  0  0  0  0  0  0  0  0  0  0
   -2.1704    1.2940    0.0000 O   0  0  0  0  0  0  0  0  0  0  0  0
    1.4078    2.1324    0.0000 C   0  0  0  0  0  0  0  0  0  0  0  0
    2.0669    0.8558    0.0000 C   0  0  0  0  0  0  0  0  0  0  0  0
    1.2594   -0.9592    0.0000 N   0  0  0  0  0  0  0  0  0  0  0  0
    1.9806   -0.5314    0.0000 N   0  0  0  0  0  0  0  0  0  0  0  0
   -0.3174    2.8364    0.0000 C   0  0  0  0  0  0  0  0  0  0  0  0
   -0.1691   -1.7702    0.0000 C   0  0  0  0  0  0  0  0  0  0  0  0
   -2.2981   -0.5314    0.0000 C   0  0  0  0  0  0  0  0  0  0  0  0
    2.1048    1.6804    0.0000 C   0  0  0  0  0  0  0  0  0  0  0  0
    0.2588    3.4230    0.0000 C   0  0  0  0  0  0  0  0  0  0  0  0
    0.5418   -2.1843    0.0000 C   0  0  0  0  0  0  0  0  0  0  0  0
   -0.8937   -2.1704    0.0000 C   0  0  0  0  0  0  0  0  0  0  0  0
    0.0448    4.2200    0.0000 C   0  0  0  0  0  0  0  0  0  0  0  0
    0.5349   -3.0089    0.0000 C   0  0  0  0  0  0  0  0  0  0  0  0
    1.3354   -2.3947    0.0000 F   0  0  0  0  0  0  0  0  0  0  0  0
   -0.8972   -2.9951    0.0000 C   0  0  0  0  0  0  0  0  0  0  0  0
   -0.1829   -3.4230    0.0000 C   0  0  0  0  0  0  0  0  0  0  0  0
   -0.1932   -4.2476    0.0000 F   0  0  0  0  0  0  0  0  0  0  0  0
  1  2  1  0  0  0  0
  1  3  1  0  0  0  0
  1  4  1  0  0  0  0
  1  5  1  0  0  0  0
  2  6  2  0  0  0  0
  2  7  1  0  0  0  0
  3  8  2  0  0  0  0
  3  9  1  0  0  0  0
  4 10  2  0  0  0  0
  4 11  1  0  0  0  0
  5 12  1  0  0  0  0
  5 13  2  0  0  0  0
  6 14  1  0  0  0  0
  6 15  1  0  0  0  0
  7 16  1  0  0  0  0
  7 17  2  0  0  0  0
  8 18  1  0  0  0  0
  8 12  1  0  0  0  0
  9 19  2  0  0  0  0
 10 20  1  0  0  0  0
 10 14  1  0  0  0  0
 11 21  3  0  0  0  0
 12 22  1  0  0  0  0
 14 23  1  0  0  0  0
 15 24  1  0  0  0  0
 16 24  1  0  0  0  0
 18 25  2  0  0  0  0
 19 25  1  0  0  0  0
 22 26  1  0  0  0  0
 23 27  1  0  0  0  0
 23 28  2  0  0  0  0
 26 29  3  0  0  0  0
 27 30  2  0  0  0  0
 27 31  1  0  0  0  0
 28 32  1  0  0  0  0
 30 33  1  0  0  0  0
 32 33  2  0  0  0  0
 33 34  1  0  0  0  0
M  END
> <CdId>
585

> <Mol Weight>
456.4435

> <Formula>
C26H18F2N4O2

> <Click_ID>
CLK008_F02 __ __ 

$$$$
