CLK013_A10
 OpenBabel03181419432D

 16 17  0  0  0  0  0  0  0  0999 V2000
    1.5650   -0.8158    0.0000 N   0  0  0  0  0  0  0  0  0  0  0  0
    1.8230   -1.6024    0.0000 C   0  0  0  0  0  0  0  0  0  0  0  0
    2.9010   -0.8158    0.0000 C   0  0  0  0  0  0  0  0  0  0  0  0
    2.2350   -0.3288    0.0000 C   0  0  0  0  0  0  0  0  0  0  0  0
    2.6470   -1.6024    0.0000 S   0  0  0  0  0  0  0  0  0  0  0  0
    3.6876   -0.5619    0.0000 C   0  0  0  0  0  0  0  0  0  0  0  0
    3.8624    0.2372    0.0000 C   0  0  0  0  0  0  0  0  0  0  0  0
    0.6118    0.2455    0.0000 C   0  0  0  0  0  0  0  0  0  0  0  0
    0.3913    1.0446    0.0000 C   0  0  0  0  0  0  0  0  0  0  0  0
    1.3360   -2.2642    0.0000 O   0  0  0  0  0  0  0  0  0  0  0  0
    2.2267    0.4952    0.0000 O   0  0  0  0  0  0  0  0  0  0  0  0
    4.6240    0.5702    0.0000 O   0  0  0  0  0  0  0  0  0  0  0  0
    0.7866   -0.5619    0.0000 C   0  0  0  0  0  0  0  0  0  0  0  0
    3.3213    0.8573    0.0000 C   0  0  0  0  0  0  0  0  0  0  0  0
    4.5491    1.3860    0.0000 C   0  0  0  0  0  0  0  0  0  0  0  0
    3.7250    1.5566    0.0000 C   0  0  0  0  0  0  0  0  0  0  0  0
  2  1  1  0  0  0  0
  3  4  1  0  0  0  0
  4  1  1  0  0  0  0
  5  2  1  0  0  0  0
  5  3  1  0  0  0  0
  6  3  2  0  0  0  0
  7  6  1  0  0  0  0
  8 13  1  0  0  0  0
  9  8  3  0  0  0  0
 10  2  2  0  0  0  0
 11  4  2  0  0  0  0
 12  7  1  0  0  0  0
 13  1  1  0  0  0  0
 14  7  2  0  0  0  0
 15 12  1  0  0  0  0
 15 16  2  0  0  0  0
 16 14  1  0  0  0  0
M  END
> <CdId>
925

> <Mol Weight>
233.243

> <Formula>
C11H7NO3S

> <Click_ID>
CLK013_A10 __ __ 

$$$$
