CLK011_A11
 OpenBabel03181419432D

 25 27  0  0  0  0  0  0  0  0999 V2000
    2.2378   -2.4446    0.0000 N    0  0  0  0  0  0  0  0  0  0  0  0
    3.0527   -2.3123    0.0000 C    0  0  0  0  0  0  0  0  0  0  0  0
    2.1013   -3.2554    0.0000 C    0  0  0  0  0  0  0  0  0  0  0  0
    2.8335   -3.6276    0.0000 C    0  0  0  0  0  0  0  0  0  0  0  0
    3.4249   -3.0568    0.0000 S    0  0  0  0  0  0  0  0  0  0  0  0
    1.6546   -1.8614    0.0000 C    0  0  0  0  0  0  0  0  0  0  0  0
    2.9576   -4.4467    0.0000 C    0  0  0  0  0  0  0  0  0  0  0  0
    1.8780   -1.0714    0.0000 C    0  0  0  0  0  0  0  0  0  0  0  0
    7.4621   -5.4146    0.0000 C    0  0  0  0  0  0  0  0  0  0  0  0
    8.2315   -5.7124    0.0000 C    0  0  0  0  0  0  0  0  0  0  0  0
    3.4291   -1.5884    0.0000 O    0  0  0  0  0  0  0  0  0  0  0  0
    1.3692   -3.6276    0.0000 O    0  0  0  0  0  0  0  0  0  0  0  0
    3.7352   -4.7445    0.0000 C    0  0  0  0  0  0  0  0  0  0  0  0
    1.3071   -0.4840    0.0000 C    0  0  0  0  0  0  0  0  0  0  0  0
    5.2781   -5.3401    0.0000 C    0  0  0  0  0  0  0  0  0  0  0  0
    0.8686   -2.0723    0.0000 C    0  0  0  0  0  0  0  0  0  0  0  0
    1.5305    0.3061    0.0000 Cl   0  0  0  0  0  0  0  0  0  0  0  0
    4.3804   -4.2233    0.0000 C    0  0  0  0  0  0  0  0  0  0  0  0
    3.8634   -5.5635    0.0000 C    0  0  0  0  0  0  0  0  0  0  0  0
    5.1416   -4.5293    0.0000 C    0  0  0  0  0  0  0  0  0  0  0  0
    4.6328   -5.8613    0.0000 C    0  0  0  0  0  0  0  0  0  0  0  0
    6.6927   -5.1167    0.0000 C    0  0  0  0  0  0  0  0  0  0  0  0
    6.0474   -5.6379    0.0000 O    0  0  0  0  0  0  0  0  0  0  0  0
    0.2854   -1.4809    0.0000 C    0  0  0  0  0  0  0  0  0  0  0  0
    0.5088   -0.6867    0.0000 C    0  0  0  0  0  0  0  0  0  0  0  0
  2  1  1  0  0  0  0
  3  1  1  0  0  0  0
  4  3  1  0  0  0  0
  5  2  1  0  0  0  0
  5  4  1  0  0  0  0
  6  1  1  0  0  0  0
  7  4  2  0  0  0  0
  8  6  2  0  0  0  0
  9 22  1  0  0  0  0
 10  9  3  0  0  0  0
 11  2  2  0  0  0  0
 12  3  2  0  0  0  0
 13  7  1  0  0  0  0
 14  8  1  0  0  0  0
 15 21  2  0  0  0  0
 15 20  1  0  0  0  0
 16  6  1  0  0  0  0
 17 14  1  0  0  0  0
 18 13  1  0  0  0  0
 19 13  2  0  0  0  0
 20 18  2  0  0  0  0
 21 19  1  0  0  0  0
 22 23  1  0  0  0  0
 23 15  1  0  0  0  0
 24 16  2  0  0  0  0
 25 24  1  0  0  0  0
 25 14  2  0  0  0  0
M  END
> <CdId>
766

> <Mol Weight>
369.821

> <Formula>
C19H12ClNO3S

> <Click_ID>
CLK011_A11 __ __ 

$$$$
