CLK014_H07
 OpenBabel03181419432D

 20 21  0  0  0  0  0  0  0  0999 V2000
    1.5667   -0.8167    0.0000 N   0  0  0  0  0  0  0  0  0  0  0  0
    1.8250   -1.6042    0.0000 C   0  0  0  0  0  0  0  0  0  0  0  0
    2.2375   -0.3292    0.0000 C   0  0  0  0  0  0  0  0  0  0  0  0
    2.9042   -0.8167    0.0000 C   0  0  0  0  0  0  0  0  0  0  0  0
    2.6500   -1.6042    0.0000 S   0  0  0  0  0  0  0  0  0  0  0  0
    3.6917   -0.5625    0.0000 C   0  0  0  0  0  0  0  0  0  0  0  0
    0.6125    0.2458    0.0000 C   0  0  0  0  0  0  0  0  0  0  0  0
    0.3917    1.0458    0.0000 C   0  0  0  0  0  0  0  0  0  0  0  0
    1.3375   -2.2667    0.0000 O   0  0  0  0  0  0  0  0  0  0  0  0
    2.2292    0.4958    0.0000 O   0  0  0  0  0  0  0  0  0  0  0  0
    0.7875   -0.5625    0.0000 C   0  0  0  0  0  0  0  0  0  0  0  0
    3.8542    0.2375    0.0000 C   0  0  0  0  0  0  0  0  0  0  0  0
    4.2042    1.8500    0.0000 C   0  0  0  0  0  0  0  0  0  0  0  0
    4.6417    0.4958    0.0000 C   0  0  0  0  0  0  0  0  0  0  0  0
    3.2500    0.7958    0.0000 C   0  0  0  0  0  0  0  0  0  0  0  0
    3.4250    1.5958    0.0000 C   0  0  0  0  0  0  0  0  0  0  0  0
    4.8167    1.3083    0.0000 C   0  0  0  0  0  0  0  0  0  0  0  0
    4.3917    2.6583    0.0000 O   0  0  0  0  0  0  0  0  0  0  0  0
    5.1750    2.9083    0.0000 C   0  0  0  0  0  0  0  0  0  0  0  0
    5.3500    3.7083    0.0000 C   0  0  0  0  0  0  0  0  0  0  0  0
  2  1  1  0  0  0  0
  3  1  1  0  0  0  0
  4  3  1  0  0  0  0
  4  5  1  0  0  0  0
  5  2  1  0  0  0  0
  6  4  2  0  0  0  0
  7 11  1  0  0  0  0
  8  7  3  0  0  0  0
  9  2  2  0  0  0  0
 10  3  2  0  0  0  0
 11  1  1  0  0  0  0
 12  6  1  0  0  0  0
 13 16  2  0  0  0  0
 14 12  1  0  0  0  0
 15 12  2  0  0  0  0
 16 15  1  0  0  0  0
 17 14  2  0  0  0  0
 17 13  1  0  0  0  0
 18 13  1  0  0  0  0
 19 18  1  0  0  0  0
 20 19  1  0  0  0  0
M  END
> <CdId>
1072

> <Mol Weight>
287.334

> <Formula>
C15H13NO3S

> <Click_ID>
CLK014_H07 __ __ 

$$$$
