CLK026_D02
 OpenBabel03181419432D

 20 21  0  0  0  0  0  0  0  0999 V2000
    0.8569   -0.2285    0.0000 C    0  0  0  0  0  0  0  0  0  0  0  0
    1.5674    0.1892    0.0000 C    0  0  0  0  0  0  0  0  0  0  0  0
    0.1392    0.1750    0.0000 C    0  0  0  0  0  0  0  0  0  0  0  0
    1.5959   -2.2850    0.0000 C    0  0  0  0  0  0  0  0  0  0  0  0
    2.3135   -2.6884    0.0000 C    0  0  0  0  0  0  0  0  0  0  0  0
    1.5566    1.0139    0.0000 C    0  0  0  0  0  0  0  0  0  0  0  0
    0.1285    0.9997    0.0000 C    0  0  0  0  0  0  0  0  0  0  0  0
    0.8390    1.4209    0.0000 C    0  0  0  0  0  0  0  0  0  0  0  0
    0.0321    2.6920    0.0000 N    0  0  0  0  0  0  0  0  0  0  0  0
    2.2850   -0.2142    0.0000 Br   0  0  0  0  0  0  0  0  0  0  0  0
   -0.5713   -0.2392    0.0000 Br   0  0  0  0  0  0  0  0  0  0  0  0
    0.8283    2.2456    0.0000 C    0  0  0  0  0  0  0  0  0  0  0  0
    0.8676   -1.0532    0.0000 O    0  0  0  0  0  0  0  0  0  0  0  0
   -0.7354    2.2385    0.0000 C    0  0  0  0  0  0  0  0  0  0  0  0
    1.5852   -1.4603    0.0000 C    0  0  0  0  0  0  0  0  0  0  0  0
   -0.7354    1.3245    0.0000 C    0  0  0  0  0  0  0  0  0  0  0  0
   -1.5352    2.6920    0.0000 C    0  0  0  0  0  0  0  0  0  0  0  0
   -1.5352    0.8712    0.0000 C    0  0  0  0  0  0  0  0  0  0  0  0
   -2.3171    2.2314    0.0000 C    0  0  0  0  0  0  0  0  0  0  0  0
   -2.3171    1.3245    0.0000 C    0  0  0  0  0  0  0  0  0  0  0  0
  2  1  2  0  0  0  0
  3  1  1  0  0  0  0
  4 15  1  0  0  0  0
  5  4  3  0  0  0  0
  6  2  1  0  0  0  0
  7  3  2  0  0  0  0
  8  7  1  0  0  0  0
  8  6  2  0  0  0  0
  9 12  1  0  0  0  0
 10  2  1  0  0  0  0
 11  3  1  0  0  0  0
 12  8  1  0  0  0  0
 13  1  1  0  0  0  0
 14  9  1  0  0  0  0
 15 13  1  0  0  0  0
 16 14  1  0  0  0  0
 17 14  2  0  0  0  0
 18 16  2  0  0  0  0
 19 17  1  0  0  0  0
 20 19  2  0  0  0  0
 20 18  1  0  0  0  0
M  END
> <CdId>
1967

> <Mol Weight>
395.089

> <Formula>
C16H13Br2NO

> <Click_ID>
CLK026_D02 __ __ 

$$$$
