CLK018_H07
 OpenBabel03181419432D

 32 35  0  0  0  0  0  0  0  0999 V2000
    2.0290   -1.0814    0.0000 N   0  0  0  0  0  0  0  0  0  0  0  0
    2.2795   -1.8704    0.0000 C   0  0  0  0  0  0  0  0  0  0  0  0
    3.3609   -1.0814    0.0000 C   0  0  0  0  0  0  0  0  0  0  0  0
    2.6929   -0.5929    0.0000 C   0  0  0  0  0  0  0  0  0  0  0  0
    3.1062   -1.8704    0.0000 S   0  0  0  0  0  0  0  0  0  0  0  0
    4.4380   -0.7307    0.0000 C   0  0  0  0  0  0  0  0  0  0  0  0
   -1.5614   -1.4070    0.0000 N   0  3  0  0  0  0  0  0  0  0  0  0
    4.6134    0.0751    0.0000 C   0  0  0  0  0  0  0  0  0  0  0  0
    1.2442   -0.8266    0.0000 C   0  0  0  0  0  0  0  0  0  0  0  0
    5.3899    0.3340    0.0000 C   0  0  0  0  0  0  0  0  0  0  0  0
   -0.7723   -1.6700    0.0000 C   0  0  0  0  0  0  0  0  0  0  0  0
    2.7722    1.7368    0.0000 C   0  0  0  0  0  0  0  0  0  0  0  0
    2.9476    2.5426    0.0000 C   0  0  0  0  0  0  0  0  0  0  0  0
   -1.7284   -0.6012    0.0000 O   0  5  0  0  0  0  0  0  0  0  0  0
    1.7953   -2.5342    0.0000 O   0  0  0  0  0  0  0  0  0  0  0  0
    3.9997    0.6262    0.0000 C   0  0  0  0  0  0  0  0  0  0  0  0
   -2.1751   -1.9581    0.0000 O   0  0  0  0  0  0  0  0  0  0  0  0
    2.6929    0.2338    0.0000 O   0  0  0  0  0  0  0  0  0  0  0  0
   -0.1586   -1.1189    0.0000 C   0  0  0  0  0  0  0  0  0  0  0  0
    0.6262   -1.3820    0.0000 C   0  0  0  0  0  0  0  0  0  0  0  0
    5.5653    1.1356    0.0000 C   0  0  0  0  0  0  0  0  0  0  0  0
    4.1708    1.4362    0.0000 C   0  0  0  0  0  0  0  0  0  0  0  0
    4.9516    1.6909    0.0000 C   0  0  0  0  0  0  0  0  0  0  0  0
    3.2106    0.3757    0.0000 O   0  0  0  0  0  0  0  0  0  0  0  0
    2.5969    0.9352    0.0000 C   0  0  0  0  0  0  0  0  0  0  0  0
   -0.6095   -2.4716    0.0000 C   0  0  0  0  0  0  0  0  0  0  0  0
    6.0037   -0.2297    0.0000 C   0  0  0  0  0  0  0  0  0  0  0  0
    0.1796   -2.7346    0.0000 C   0  0  0  0  0  0  0  0  0  0  0  0
    0.8016   -2.1835    0.0000 C   0  0  0  0  0  0  0  0  0  0  0  0
    6.3418    1.3903    0.0000 C   0  0  0  0  0  0  0  0  0  0  0  0
    6.7885    0.0376    0.0000 C   0  0  0  0  0  0  0  0  0  0  0  0
    6.9556    0.8475    0.0000 C   0  0  0  0  0  0  0  0  0  0  0  0
  2  1  1  0  0  0  0
  3  4  1  0  0  0  0
  3  5  1  0  0  0  0
  4  1  1  0  0  0  0
  5  2  1  0  0  0  0
  6  3  2  0  0  0  0
  7 11  1  0  0  0  0
  8  6  1  0  0  0  0
  9  1  1  0  0  0  0
 10  8  1  0  0  0  0
 11 19  1  0  0  0  0
 12 25  1  0  0  0  0
 13 12  3  0  0  0  0
 14  7  1  0  0  0  0
 15  2  2  0  0  0  0
 16  8  2  0  0  0  0
 17  7  2  0  0  0  0
 18  4  2  0  0  0  0
 19 20  2  0  0  0  0
 20  9  1  0  0  0  0
 21 10  1  0  0  0  0
 21 23  1  0  0  0  0
 22 16  1  0  0  0  0
 23 22  2  0  0  0  0
 24 16  1  0  0  0  0
 25 24  1  0  0  0  0
 26 28  1  0  0  0  0
 26 11  2  0  0  0  0
 27 10  2  0  0  0  0
 28 29  2  0  0  0  0
 29 20  1  0  0  0  0
 30 21  2  0  0  0  0
 30 32  1  0  0  0  0
 31 27  1  0  0  0  0
 32 31  2  0  0  0  0
M  END
> <CdId>
1392

> <Mol Weight>
444.459

> <Formula>
C24H16N2O5S

> <Click_ID>
CLK018_H07 __ __ 

$$$$
