CLK008_A02
 OpenBabel03181419432D

 15 16  0  0  0  0  0  0  0  0999 V2000
   -0.3963   -0.1585    0.0000 C   0  0  0  0  0  0  0  0  0  0  0  0
   -1.2233   -0.1516    0.0000 C   0  0  0  0  0  0  0  0  0  0  0  0
    0.1482    0.4549    0.0000 O   0  0  0  0  0  0  0  0  0  0  0  0
    0.0138   -0.8822    0.0000 N   0  0  0  0  0  0  0  0  0  0  0  0
   -1.6334   -0.8649    0.0000 C   0  0  0  0  0  0  0  0  0  0  0  0
   -1.6334    0.5651    0.0000 C   0  0  0  0  0  0  0  0  0  0  0  0
    0.9063    0.1137    0.0000 C   0  0  0  0  0  0  0  0  0  0  0  0
    0.8133   -0.7064    0.0000 N   0  0  0  0  0  0  0  0  0  0  0  0
   -2.4570   -0.8684    0.0000 C   0  0  0  0  0  0  0  0  0  0  0  0
   -2.4570    0.5686    0.0000 C   0  0  0  0  0  0  0  0  0  0  0  0
    1.6265    0.5204    0.0000 S   0  0  0  0  0  0  0  0  0  0  0  0
   -2.8740   -0.1482    0.0000 N   0  0  0  0  0  0  0  0  0  0  0  0
    2.3399    0.1102    0.0000 C   0  0  0  0  0  0  0  0  0  0  0  0
    3.0601    0.5135    0.0000 C   0  0  0  0  0  0  0  0  0  0  0  0
    3.7699    0.9339    0.0000 C   0  0  0  0  0  0  0  0  0  0  0  0
  1  2  1  0  0  0  0
  1  3  1  0  0  0  0
  1  4  2  0  0  0  0
  2  5  1  0  0  0  0
  2  6  2  0  0  0  0
  3  7  1  0  0  0  0
  4  8  1  0  0  0  0
  5  9  2  0  0  0  0
  6 10  1  0  0  0  0
  7 11  1  0  0  0  0
  7  8  2  0  0  0  0
  9 12  1  0  0  0  0
 10 12  2  0  0  0  0
 11 13  1  0  0  0  0
 13 14  1  0  0  0  0
 14 15  3  0  0  0  0
M  END
> <CdId>
561

> <Mol Weight>
217.247

> <Formula>
C10H7N3OS

> <Click_ID>
CLK008_A02 __ __ 

$$$$
