CLK044D05
 OpenBabel03181419432D

 30 32  0  0  0  0  0  0  0  0999 V2000
    2.4750   -1.9250    0.0000 S   0  0  0  0  0  0  0  0  0  0  0  0
   -0.3833   -0.2750    0.0000 C   0  0  0  0  0  0  0  0  0  0  0  0
   -0.3833    0.5500    0.0000 N   0  0  0  0  0  0  0  0  0  0  0  0
   -1.0958    1.7875    0.0000 C   0  0  0  0  0  0  0  0  0  0  0  0
   -2.5250    1.7875    0.0000 N   0  0  0  0  0  0  0  0  0  0  0  0
   -1.8125    2.2042    0.0000 C   0  0  0  0  0  0  0  0  0  0  0  0
   -1.0958    0.9625    0.0000 C   0  0  0  0  0  0  0  0  0  0  0  0
    1.7583   -1.5125    0.0000 C   0  0  0  0  0  0  0  0  0  0  0  0
    3.9042   -3.5750    0.0000 C   0  0  0  0  0  0  0  0  0  0  0  0
    4.6167   -3.9875    0.0000 C   0  0  0  0  0  0  0  0  0  0  0  0
    2.8875   -1.2083    0.0000 O   0  0  0  0  0  0  0  0  0  0  0  0
    2.0625   -2.6375    0.0000 O   0  0  0  0  0  0  0  0  0  0  0  0
    0.3333   -0.6875    0.0000 C   0  0  0  0  0  0  0  0  0  0  0  0
    3.1875   -2.3375    0.0000 N   0  0  0  0  0  0  0  0  0  0  0  0
   -1.0958   -0.6875    0.0000 O   0  0  0  0  0  0  0  0  0  0  0  0
    1.0458   -1.9250    0.0000 C   0  0  0  0  0  0  0  0  0  0  0  0
    1.7583   -0.6875    0.0000 C   0  0  0  0  0  0  0  0  0  0  0  0
    0.3333   -1.5125    0.0000 C   0  0  0  0  0  0  0  0  0  0  0  0
    1.0458   -0.2750    0.0000 C   0  0  0  0  0  0  0  0  0  0  0  0
    3.1875   -3.1625    0.0000 C   0  0  0  0  0  0  0  0  0  0  0  0
   -2.5250    0.9625    0.0000 C   0  0  0  0  0  0  0  0  0  0  0  0
   -3.2417    2.2042    0.0000 C   0  0  0  0  0  0  0  0  0  0  0  0
   -0.3833    2.2042    0.0000 C   0  0  0  0  0  0  0  0  0  0  0  0
    0.3333    0.9625    0.0000 C   0  0  0  0  0  0  0  0  0  0  0  0
   -1.8125    3.0250    0.0000 C   0  0  0  0  0  0  0  0  0  0  0  0
   -3.9542    1.7875    0.0000 C   0  0  0  0  0  0  0  0  0  0  0  0
   -3.2417    0.5500    0.0000 C   0  0  0  0  0  0  0  0  0  0  0  0
   -0.3833    3.0250    0.0000 C   0  0  0  0  0  0  0  0  0  0  0  0
   -1.0958    3.4375    0.0000 C   0  0  0  0  0  0  0  0  0  0  0  0
   -3.9542    0.9625    0.0000 C   0  0  0  0  0  0  0  0  0  0  0  0
  2 13  1  0  0  0  0
  3  2  1  0  0  0  0
  4  7  1  0  0  0  0
  5  6  1  0  0  0  0
  6  4  2  0  0  0  0
  7  3  1  0  0  0  0
  8  1  1  0  0  0  0
  9 20  1  0  0  0  0
 10  9  3  0  0  0  0
 11  1  2  0  0  0  0
 12  1  2  0  0  0  0
 13 19  2  0  0  0  0
 14  1  1  0  0  0  0
 15  2  2  0  0  0  0
 16  8  1  0  0  0  0
 17  8  2  0  0  0  0
 18 16  2  0  0  0  0
 18 13  1  0  0  0  0
 19 17  1  0  0  0  0
 20 14  1  0  0  0  0
 21  5  1  0  0  0  0
 22  5  1  0  0  0  0
 23  4  1  0  0  0  0
 24  3  1  0  0  0  0
 25  6  1  0  0  0  0
 26 22  1  0  0  0  0
 27 21  1  0  0  0  0
 28 23  2  0  0  0  0
 29 25  2  0  0  0  0
 29 28  1  0  0  0  0
 30 27  1  0  0  0  0
 30 26  1  0  0  0  0
M  END
> <CdId>
3356

> <Mol Weight>
425.544

> <Formula>
C23H27N3O3S

> <Click_ID>
CLK044D05 __ __ 

$$$$
