CLK028_B03
 OpenBabel03181419432D

 26 28  0  0  0  0  0  0  0  0999 V2000
    1.2039    0.2958    0.0000 C   0  0  0  0  0  0  0  0  0  0  0  0
   -0.2270    0.2855    0.0000 C   0  0  0  0  0  0  0  0  0  0  0  0
    2.5421    0.2718    0.0000 N   0  0  0  0  0  0  0  0  0  0  0  0
    0.4850    0.7052    0.0000 C   0  0  0  0  0  0  0  0  0  0  0  0
    1.8920    0.7774    0.0000 C   0  0  0  0  0  0  0  0  0  0  0  0
   -0.9391    0.6914    0.0000 C   0  0  0  0  0  0  0  0  0  0  0  0
    1.4447   -0.4816    0.0000 C   0  0  0  0  0  0  0  0  0  0  0  0
    2.2669   -0.5057    0.0000 C   0  0  0  0  0  0  0  0  0  0  0  0
   -0.2270   -0.5435    0.0000 C   0  0  0  0  0  0  0  0  0  0  0  0
   -1.6580    0.2718    0.0000 N   0  0  0  0  0  0  0  0  0  0  0  0
   -0.2132   -1.3657    0.0000 N   0  0  0  0  0  0  0  0  0  0  0  0
    3.9456   -0.0551    0.0000 C   0  0  0  0  0  0  0  0  0  0  0  0
    4.5235   -0.6433    0.0000 C   0  0  0  0  0  0  0  0  0  0  0  0
   -0.9494    1.5170    0.0000 O   0  0  0  0  0  0  0  0  0  0  0  0
    3.3367    0.5160    0.0000 C   0  0  0  0  0  0  0  0  0  0  0  0
   -2.3804    0.6914    0.0000 C   0  0  0  0  0  0  0  0  0  0  0  0
   -3.8148    1.5170    0.0000 C   0  0  0  0  0  0  0  0  0  0  0  0
   -2.3804    1.5170    0.0000 C   0  0  0  0  0  0  0  0  0  0  0  0
   -3.0924    0.2718    0.0000 C   0  0  0  0  0  0  0  0  0  0  0  0
   -3.0924    1.9298    0.0000 C   0  0  0  0  0  0  0  0  0  0  0  0
   -3.8148    0.6914    0.0000 C   0  0  0  0  0  0  0  0  0  0  0  0
    2.6521   -1.2246    0.0000 C   0  0  0  0  0  0  0  0  0  0  0  0
    1.0148   -1.1764    0.0000 C   0  0  0  0  0  0  0  0  0  0  0  0
   -4.5269    1.9263    0.0000 C   0  0  0  0  0  0  0  0  0  0  0  0
    1.4069   -1.9023    0.0000 C   0  0  0  0  0  0  0  0  0  0  0  0
    2.2290   -1.9263    0.0000 C   0  0  0  0  0  0  0  0  0  0  0  0
  2  4  2  0  0  0  0
  3  5  1  0  0  0  0
  4  1  1  0  0  0  0
  5  1  2  0  0  0  0
  6  2  1  0  0  0  0
  7  1  1  0  0  0  0
  8  7  2  0  0  0  0
  8  3  1  0  0  0  0
  9  2  1  0  0  0  0
 10  6  1  0  0  0  0
 11  9  3  0  0  0  0
 12 15  1  0  0  0  0
 13 12  3  0  0  0  0
 14  6  2  0  0  0  0
 15  3  1  0  0  0  0
 16 10  1  0  0  0  0
 17 21  2  0  0  0  0
 18 16  1  0  0  0  0
 19 16  2  0  0  0  0
 20 18  2  0  0  0  0
 20 17  1  0  0  0  0
 21 19  1  0  0  0  0
 22  8  1  0  0  0  0
 23  7  1  0  0  0  0
 24 17  1  0  0  0  0
 25 23  2  0  0  0  0
 26 25  1  0  0  0  0
 26 22  2  0  0  0  0
M  END
> <CdId>
2097

> <Mol Weight>
339.3899

> <Formula>
C22H17N3O

> <Click_ID>
CLK028_B03 __ __ 

$$$$
