CLK039H03
 OpenBabel03181419432D

 17 17  0  0  0  0  0  0  0  0999 V2000
   -0.2958    1.0458    0.0000 S   0  0  0  0  0  0  0  0  0  0  0  0
   -0.2958    0.2208    0.0000 C   0  0  0  0  0  0  0  0  0  0  0  0
    0.4167    3.1083    0.0000 C   0  0  0  0  0  0  0  0  0  0  0  0
    0.4167    3.9333    0.0000 C   0  0  0  0  0  0  0  0  0  0  0  0
   -1.1208    1.0458    0.0000 O   0  0  0  0  0  0  0  0  0  0  0  0
    0.5292    1.0458    0.0000 O   0  0  0  0  0  0  0  0  0  0  0  0
    0.4167   -2.6667    0.0000 C   0  0  0  0  0  0  0  0  0  0  0  0
   -0.2958    1.8708    0.0000 N   0  0  0  0  0  0  0  0  0  0  0  0
   -0.2958   -2.2542    0.0000 N   0  0  0  0  0  0  0  0  0  0  0  0
    0.4167   -3.4917    0.0000 O   0  0  0  0  0  0  0  0  0  0  0  0
    0.4167   -0.1917    0.0000 C   0  0  0  0  0  0  0  0  0  0  0  0
   -1.0125   -0.1917    0.0000 C   0  0  0  0  0  0  0  0  0  0  0  0
   -0.2958   -1.4292    0.0000 C   0  0  0  0  0  0  0  0  0  0  0  0
    0.4167   -1.0167    0.0000 C   0  0  0  0  0  0  0  0  0  0  0  0
   -1.0125   -1.0167    0.0000 C   0  0  0  0  0  0  0  0  0  0  0  0
    0.4167    2.2833    0.0000 C   0  0  0  0  0  0  0  0  0  0  0  0
    1.1333   -2.2542    0.0000 C   0  0  0  0  0  0  0  0  0  0  0  0
  2  1  1  0  0  0  0
  3 16  1  0  0  0  0
  4  3  3  0  0  0  0
  5  1  2  0  0  0  0
  6  1  2  0  0  0  0
  7  9  1  0  0  0  0
  8  1  1  0  0  0  0
  9 13  1  0  0  0  0
 10  7  2  0  0  0  0
 11  2  1  0  0  0  0
 12  2  2  0  0  0  0
 13 15  2  0  0  0  0
 14 11  2  0  0  0  0
 14 13  1  0  0  0  0
 15 12  1  0  0  0  0
 16  8  1  0  0  0  0
 17  7  1  0  0  0  0
M  END
> <CdId>
2944

> <Mol Weight>
252.29

> <Formula>
C11H12N2O3S

> <Click_ID>
CLK039H03 __ __ 

$$$$
