CLK009_C09
 OpenBabel03181419432D

 23 24  0  0  0  0  0  0  0  0999 V2000
    2.2508   -0.3822    0.0000 S   0  0  0  0  0  0  0  0  0  0  0  0
    2.9675   -0.7857    0.0000 N   0  0  0  0  0  0  0  0  0  0  0  0
    1.5129    0.0584    0.0000 C   0  0  0  0  0  0  0  0  0  0  0  0
    3.6788   -0.3557    0.0000 N   0  0  0  0  0  0  0  0  0  0  0  0
    3.5249    2.0968    0.0000 C   0  0  0  0  0  0  0  0  0  0  0  0
    2.7870    2.4472    0.0000 C   0  0  0  0  0  0  0  0  0  0  0  0
    2.6596    0.3609    0.0000 O   0  0  0  0  0  0  0  0  0  0  0  0
    1.8474   -1.0883    0.0000 O   0  0  0  0  0  0  0  0  0  0  0  0
    5.0802   -0.3239    0.0000 C   0  0  0  0  0  0  0  0  0  0  0  0
    5.0537    0.5096    0.0000 C   0  0  0  0  0  0  0  0  0  0  0  0
    4.3954   -0.7644    0.0000 C   0  0  0  0  0  0  0  0  0  0  0  0
    0.8016   -0.3557    0.0000 C   0  0  0  0  0  0  0  0  0  0  0  0
    1.5129    0.8918    0.0000 C   0  0  0  0  0  0  0  0  0  0  0  0
    0.0850    0.0584    0.0000 C   0  0  0  0  0  0  0  0  0  0  0  0
    0.8016    1.3005    0.0000 C   0  0  0  0  0  0  0  0  0  0  0  0
    0.0850    0.8918    0.0000 C   0  0  0  0  0  0  0  0  0  0  0  0
    4.3158    0.8918    0.0000 O   0  0  0  0  0  0  0  0  0  0  0  0
    4.2680    1.7146    0.0000 C   0  0  0  0  0  0  0  0  0  0  0  0
    5.8181   -0.7061    0.0000 C   0  0  0  0  0  0  0  0  0  0  0  0
    5.7385    0.9502    0.0000 C   0  0  0  0  0  0  0  0  0  0  0  0
   -0.6794    1.3005    0.0000 C   0  0  0  0  0  0  0  0  0  0  0  0
    6.5029   -0.2548    0.0000 C   0  0  0  0  0  0  0  0  0  0  0  0
    6.4552    0.5680    0.0000 C   0  0  0  0  0  0  0  0  0  0  0  0
  2  1  1  0  0  0  0
  3  1  1  0  0  0  0
  4  2  1  0  0  0  0
  5 18  1  0  0  0  0
  6  5  3  0  0  0  0
  7  1  2  0  0  0  0
  8  1  2  0  0  0  0
  9 11  1  0  0  0  0
 10  9  1  0  0  0  0
 11  4  2  0  0  0  0
 12  3  1  0  0  0  0
 13  3  2  0  0  0  0
 14 12  2  0  0  0  0
 15 13  1  0  0  0  0
 16 15  2  0  0  0  0
 16 14  1  0  0  0  0
 17 10  1  0  0  0  0
 18 17  1  0  0  0  0
 19  9  2  0  0  0  0
 20 10  2  0  0  0  0
 21 16  1  0  0  0  0
 22 19  1  0  0  0  0
 23 22  2  0  0  0  0
 23 20  1  0  0  0  0
M  END
> <CdId>
624

> <Mol Weight>
328.386

> <Formula>
C17H16N2O3S

> <Click_ID>
CLK009_C09 __ __ 

$$$$
