CLK038H07
 OpenBabel03181419432D

 20 20  0  0  0  0  0  0  0  0999 V2000
   -0.4667    1.3000    0.0000 S   0  0  0  0  0  0  0  0  0  0  0  0
   -0.4667   -2.0000    0.0000 C   0  0  0  0  0  0  0  0  0  0  0  0
   -0.4667    0.4750    0.0000 C   0  0  0  0  0  0  0  0  0  0  0  0
    1.6750    4.1833    0.0000 N   0  0  0  0  0  0  0  0  0  0  0  0
    0.9625   -3.6500    0.0000 C   0  0  0  0  0  0  0  0  0  0  0  0
    1.6750   -4.0625    0.0000 C   0  0  0  0  0  0  0  0  0  0  0  0
    0.3583    1.3000    0.0000 O   0  0  0  0  0  0  0  0  0  0  0  0
   -1.2917    1.3000    0.0000 O   0  0  0  0  0  0  0  0  0  0  0  0
    0.9625    3.7750    0.0000 C   0  0  0  0  0  0  0  0  0  0  0  0
   -0.4667   -1.1750    0.0000 C   0  0  0  0  0  0  0  0  0  0  0  0
   -0.4667    2.1250    0.0000 N   0  0  0  0  0  0  0  0  0  0  0  0
   -1.1792   -2.4125    0.0000 O   0  0  0  0  0  0  0  0  0  0  0  0
    0.2500    0.0625    0.0000 C   0  0  0  0  0  0  0  0  0  0  0  0
   -1.1792    0.0625    0.0000 C   0  0  0  0  0  0  0  0  0  0  0  0
    0.2500   -0.7625    0.0000 C   0  0  0  0  0  0  0  0  0  0  0  0
   -1.1792   -0.7625    0.0000 C   0  0  0  0  0  0  0  0  0  0  0  0
    0.2500   -2.4125    0.0000 N   0  0  0  0  0  0  0  0  0  0  0  0
    0.2500    3.3625    0.0000 C   0  0  0  0  0  0  0  0  0  0  0  0
    0.2500   -3.2375    0.0000 C   0  0  0  0  0  0  0  0  0  0  0  0
    0.2500    2.5375    0.0000 C   0  0  0  0  0  0  0  0  0  0  0  0
  2 10  1  0  0  0  0
  3  1  1  0  0  0  0
  4  9  3  0  0  0  0
  5 19  1  0  0  0  0
  6  5  3  0  0  0  0
  7  1  2  0  0  0  0
  8  1  2  0  0  0  0
  9 18  1  0  0  0  0
 10 16  2  0  0  0  0
 11  1  1  0  0  0  0
 12  2  2  0  0  0  0
 13  3  1  0  0  0  0
 14  3  2  0  0  0  0
 15 13  2  0  0  0  0
 15 10  1  0  0  0  0
 16 14  1  0  0  0  0
 17  2  1  0  0  0  0
 18 20  1  0  0  0  0
 19 17  1  0  0  0  0
 20 11  1  0  0  0  0
M  END
> <CdId>
2896

> <Mol Weight>
291.326

> <Formula>
C13H13N3O3S

> <Click_ID>
CLK038H07 __ __ 

$$$$
