CLK001_D04
 OpenBabel03181419432D

 31 33  0  0  0  0  0  0  0  0999 V2000
   -0.6981    1.0054    0.0000 N   0  0  0  0  0  0  0  0  0  0  0  0
   -1.3582    0.5084    0.0000 C   0  0  0  0  0  0  0  0  0  0  0  0
    0.0948    0.7549    0.0000 C   0  0  0  0  0  0  0  0  0  0  0  0
   -0.7057    1.8286    0.0000 N   0  0  0  0  0  0  0  0  0  0  0  0
   -1.2633   -0.3111    0.0000 C   0  0  0  0  0  0  0  0  0  0  0  0
   -2.1169    0.8385    0.0000 C   0  0  0  0  0  0  0  0  0  0  0  0
    0.5614    1.4340    0.0000 C   0  0  0  0  0  0  0  0  0  0  0  0
    0.3604   -0.0228    0.0000 O   0  0  0  0  0  0  0  0  0  0  0  0
    0.0645    2.0904    0.0000 C   0  0  0  0  0  0  0  0  0  0  0  0
   -1.9272   -0.8081    0.0000 C   0  0  0  0  0  0  0  0  0  0  0  0
   -2.7808    0.3452    0.0000 C   0  0  0  0  0  0  0  0  0  0  0  0
    1.3847    1.4492    0.0000 C   0  0  0  0  0  0  0  0  0  0  0  0
    0.3035    2.8757    0.0000 O   0  0  0  0  0  0  0  0  0  0  0  0
   -2.6860   -0.4780    0.0000 C   0  0  0  0  0  0  0  0  0  0  0  0
    1.8020    0.7436    0.0000 C   0  0  0  0  0  0  0  0  0  0  0  0
   -3.3461   -0.9712    0.0000 C   0  0  0  0  0  0  0  0  0  0  0  0
    2.6291    0.7549    0.0000 C   0  0  0  0  0  0  0  0  0  0  0  0
    1.4037    0.0189    0.0000 C   0  0  0  0  0  0  0  0  0  0  0  0
   -4.1087   -0.6412    0.0000 O   0  0  0  0  0  0  0  0  0  0  0  0
   -3.2589   -1.7868    0.0000 O   0  0  0  0  0  0  0  0  0  0  0  0
    3.0540    0.0531    0.0000 C   0  0  0  0  0  0  0  0  0  0  0  0
    1.8324   -0.6866    0.0000 C   0  0  0  0  0  0  0  0  0  0  0  0
   -4.1959    0.1783    0.0000 C   0  0  0  0  0  0  0  0  0  0  0  0
    2.6556   -0.6753    0.0000 C   0  0  0  0  0  0  0  0  0  0  0  0
    3.8810    0.0683    0.0000 O   0  0  0  0  0  0  0  0  0  0  0  0
   -4.9622    0.5084    0.0000 C   0  0  0  0  0  0  0  0  0  0  0  0
    3.0805   -1.3771    0.0000 O   0  0  0  0  0  0  0  0  0  0  0  0
    4.3059   -0.6412    0.0000 C   0  0  0  0  0  0  0  0  0  0  0  0
    2.6822   -2.0980    0.0000 C   0  0  0  0  0  0  0  0  0  0  0  0
    1.8590   -2.1169    0.0000 C   0  0  0  0  0  0  0  0  0  0  0  0
    1.4606   -2.8340    0.0000 C   0  0  0  0  0  0  0  0  0  0  0  0
  1  2  1  0  0  0  0
  1  3  1  0  0  0  0
  1  4  1  0  0  0  0
  2  5  2  0  0  0  0
  2  6  1  0  0  0  0
  3  7  1  0  0  0  0
  3  8  2  0  0  0  0
  4  9  1  0  0  0  0
  5 10  1  0  0  0  0
  6 11  2  0  0  0  0
  7 12  2  0  0  0  0
  7  9  1  0  0  0  0
  9 13  2  0  0  0  0
 10 14  2  0  0  0  0
 11 14  1  0  0  0  0
 12 15  1  0  0  0  0
 14 16  1  0  0  0  0
 15 17  2  0  0  0  0
 15 18  1  0  0  0  0
 16 19  1  0  0  0  0
 16 20  2  0  0  0  0
 17 21  1  0  0  0  0
 18 22  2  0  0  0  0
 19 23  1  0  0  0  0
 21 24  2  0  0  0  0
 21 25  1  0  0  0  0
 22 24  1  0  0  0  0
 23 26  1  0  0  0  0
 24 27  1  0  0  0  0
 25 28  1  0  0  0  0
 27 29  1  0  0  0  0
 29 30  1  0  0  0  0
 30 31  3  0  0  0  0
M  END
> <CdId>
33

> <Mol Weight>
420.4147

> <Formula>
C23H20N2O6

> <Click_ID>
CLK001_D04 __ __ 

$$$$
