CLK033_D04
 OpenBabel03181419432D

 25 27  0  0  0  0  0  0  0  0999 V2000
   -4.5726    2.5440    0.0000 C   0  0  0  0  0  0  0  0  0  0  0  0
   -3.8618    2.9639    0.0000 N   0  0  0  0  0  0  0  0  0  0  0  0
   -4.6724    1.7293    0.0000 N   0  0  0  0  0  0  0  0  0  0  0  0
   -5.3084    2.8890    0.0000 S   0  0  0  0  0  0  0  0  0  0  0  0
   -5.4747    1.5713    0.0000 C   0  0  0  0  0  0  0  0  0  0  0  0
   -5.8820    2.2904    0.0000 C   0  0  0  0  0  0  0  0  0  0  0  0
   -3.8618    3.7911    0.0000 C   0  0  0  0  0  0  0  0  0  0  0  0
   -4.2401    0.3492    0.0000 C   0  0  0  0  0  0  0  0  0  0  0  0
   -4.4229   -0.4614    0.0000 C   0  0  0  0  0  0  0  0  0  0  0  0
   -3.1509    4.2027    0.0000 C   0  0  0  0  0  0  0  0  0  0  0  0
   -5.8987    0.8688    0.0000 C   0  0  0  0  0  0  0  0  0  0  0  0
   -4.5851    4.1944    0.0000 O   0  0  0  0  0  0  0  0  0  0  0  0
   -4.0530    1.1556    0.0000 C   0  0  0  0  0  0  0  0  0  0  0  0
   -3.1426    5.0299    0.0000 C   0  0  0  0  0  0  0  0  0  0  0  0
   -2.4401    3.7994    0.0000 C   0  0  0  0  0  0  0  0  0  0  0  0
   -1.7085    5.0175    0.0000 C   0  0  0  0  0  0  0  0  0  0  0  0
   -2.4276    5.4415    0.0000 C   0  0  0  0  0  0  0  0  0  0  0  0
   -1.7210    4.2027    0.0000 C   0  0  0  0  0  0  0  0  0  0  0  0
   -6.6885    2.3071    0.0000 C   0  0  0  0  0  0  0  0  0  0  0  0
   -0.9935    5.4290    0.0000 F   0  0  0  0  0  0  0  0  0  0  0  0
   -5.5079    0.1372    0.0000 O   0  0  0  0  0  0  0  0  0  0  0  0
   -7.1250    1.6045    0.0000 C   0  0  0  0  0  0  0  0  0  0  0  0
   -6.7135    0.8812    0.0000 C   0  0  0  0  0  0  0  0  0  0  0  0
   -5.9319   -0.5654    0.0000 C   0  0  0  0  0  0  0  0  0  0  0  0
   -5.5495   -1.2762    0.0000 C   0  0  0  0  0  0  0  0  0  0  0  0
  2  1  2  0  0  0  0
  3  1  1  0  0  0  0
  4  1  1  0  0  0  0
  5  3  1  0  0  0  0
  6  4  1  0  0  0  0
  6  5  2  0  0  0  0
  7  2  1  0  0  0  0
  8 13  1  0  0  0  0
  9  8  3  0  0  0  0
 10  7  1  0  0  0  0
 11  5  1  0  0  0  0
 12  7  2  0  0  0  0
 13  3  1  0  0  0  0
 14 10  1  0  0  0  0
 15 10  2  0  0  0  0
 16 18  2  0  0  0  0
 16 17  1  0  0  0  0
 17 14  2  0  0  0  0
 18 15  1  0  0  0  0
 19  6  1  0  0  0  0
 20 16  1  0  0  0  0
 21 11  1  0  0  0  0
 22 19  2  0  0  0  0
 23 11  2  0  0  0  0
 23 22  1  0  0  0  0
 24 21  1  0  0  0  0
 25 24  1  0  0  0  0
M  END
> <CdId>
2518

> <Mol Weight>
354.398

> <Formula>
C19H15FN2O2S

> <Click_ID>
CLK033_D04 __ __ 

$$$$
