CLK050F02
 OpenBabel03181419432D

 24 26  0  0  0  0  0  0  0  0999 V2000
    1.1833   -0.7125    0.0000 N   0  0  0  0  0  0  0  0  0  0  0  0
    1.1833    0.1125    0.0000 C   0  0  0  0  0  0  0  0  0  0  0  0
   -0.0875   -0.3000    0.0000 C   0  0  0  0  0  0  0  0  0  0  0  0
    0.4000   -0.9667    0.0000 C   0  0  0  0  0  0  0  0  0  0  0  0
    0.4000    0.3667    0.0000 S   0  0  0  0  0  0  0  0  0  0  0  0
   -0.9125   -0.3000    0.0000 C   0  0  0  0  0  0  0  0  0  0  0  0
    1.8500    0.6000    0.0000 N   0  0  0  0  0  0  0  0  0  0  0  0
   -1.3250    0.4167    0.0000 C   0  0  0  0  0  0  0  0  0  0  0  0
   -3.8000   -1.0125    0.0000 C   0  0  0  0  0  0  0  0  0  0  0  0
   -4.2125   -1.7292    0.0000 C   0  0  0  0  0  0  0  0  0  0  0  0
    0.1458   -1.7500    0.0000 O   0  0  0  0  0  0  0  0  0  0  0  0
   -2.1500    0.4167    0.0000 C   0  0  0  0  0  0  0  0  0  0  0  0
    2.6042    0.2625    0.0000 C   0  0  0  0  0  0  0  0  0  0  0  0
   -2.5625   -0.3000    0.0000 O   0  0  0  0  0  0  0  0  0  0  0  0
   -3.3875   -0.3000    0.0000 C   0  0  0  0  0  0  0  0  0  0  0  0
   -0.9125    1.1292    0.0000 C   0  0  0  0  0  0  0  0  0  0  0  0
   -2.5625    1.1292    0.0000 C   0  0  0  0  0  0  0  0  0  0  0  0
    3.2708    0.7458    0.0000 C   0  0  0  0  0  0  0  0  0  0  0  0
    2.6917   -0.5583    0.0000 C   0  0  0  0  0  0  0  0  0  0  0  0
   -1.3250    1.8458    0.0000 C   0  0  0  0  0  0  0  0  0  0  0  0
   -2.1500    1.8458    0.0000 C   0  0  0  0  0  0  0  0  0  0  0  0
    3.4458   -0.8917    0.0000 C   0  0  0  0  0  0  0  0  0  0  0  0
    4.0250    0.4125    0.0000 C   0  0  0  0  0  0  0  0  0  0  0  0
    4.1125   -0.4083    0.0000 C   0  0  0  0  0  0  0  0  0  0  0  0
  2  1  2  0  0  0  0
  3  4  1  0  0  0  0
  3  5  1  0  0  0  0
  4  1  1  0  0  0  0
  5  2  1  0  0  0  0
  6  3  2  0  0  0  0
  7  2  1  0  0  0  0
  8  6  1  0  0  0  0
  9 15  1  0  0  0  0
 10  9  3  0  0  0  0
 11  4  2  0  0  0  0
 12  8  2  0  0  0  0
 13  7  1  0  0  0  0
 14 12  1  0  0  0  0
 15 14  1  0  0  0  0
 16  8  1  0  0  0  0
 17 12  1  0  0  0  0
 18 13  1  0  0  0  0
 19 13  1  0  0  0  0
 20 16  2  0  0  0  0
 21 17  2  0  0  0  0
 21 20  1  0  0  0  0
 22 19  1  0  0  0  0
 23 18  1  0  0  0  0
 24 23  1  0  0  0  0
 24 22  1  0  0  0  0
M  END
> <CdId>
3814

> <Mol Weight>
340.439

> <Formula>
C19H20N2O2S

> <Click_ID>
CLK050F02 __ __ 

$$$$
