CLK040D11
 OpenBabel03181419432D

 19 21  0  0  0  0  0  0  0  0999 V2000
   -0.5542   -0.3125    0.0000 C   0  0  0  0  0  0  0  0  0  0  0  0
    0.2333   -0.5667    0.0000 S   0  0  0  0  0  0  0  0  0  0  0  0
   -0.5542    0.5125    0.0000 C   0  0  0  0  0  0  0  0  0  0  0  0
    0.7167    0.1000    0.0000 C   0  0  0  0  0  0  0  0  0  0  0  0
    0.2333    0.7708    0.0000 C   0  0  0  0  0  0  0  0  0  0  0  0
   -1.2667   -0.7250    0.0000 C   0  0  0  0  0  0  0  0  0  0  0  0
    1.5417    0.1000    0.0000 C   0  0  0  0  0  0  0  0  0  0  0  0
   -1.9833    0.5125    0.0000 O   0  0  0  0  0  0  0  0  0  0  0  0
    3.1917    1.5292    0.0000 C   0  0  0  0  0  0  0  0  0  0  0  0
   -1.2667    0.9250    0.0000 C   0  0  0  0  0  0  0  0  0  0  0  0
   -1.9833   -0.3125    0.0000 C   0  0  0  0  0  0  0  0  0  0  0  0
    3.6042    2.2458    0.0000 C   0  0  0  0  0  0  0  0  0  0  0  0
    1.9542   -0.6125    0.0000 O   0  0  0  0  0  0  0  0  0  0  0  0
    1.9542    0.8167    0.0000 N   0  0  0  0  0  0  0  0  0  0  0  0
    2.7792    0.8167    0.0000 C   0  0  0  0  0  0  0  0  0  0  0  0
   -1.2667   -1.5500    0.0000 C   0  0  0  0  0  0  0  0  0  0  0  0
   -2.6958   -0.7250    0.0000 C   0  0  0  0  0  0  0  0  0  0  0  0
   -1.9833   -1.9625    0.0000 C   0  0  0  0  0  0  0  0  0  0  0  0
   -2.6958   -1.5500    0.0000 C   0  0  0  0  0  0  0  0  0  0  0  0
  2  1  1  0  0  0  0
  3  1  2  0  0  0  0
  4  2  1  0  0  0  0
  5  3  1  0  0  0  0
  5  4  2  0  0  0  0
  6  1  1  0  0  0  0
  7  4  1  0  0  0  0
  8 10  1  0  0  0  0
  9 15  1  0  0  0  0
 10  3  1  0  0  0  0
 11  6  2  0  0  0  0
 11  8  1  0  0  0  0
 12  9  3  0  0  0  0
 13  7  2  0  0  0  0
 14  7  1  0  0  0  0
 15 14  1  0  0  0  0
 16  6  1  0  0  0  0
 17 11  1  0  0  0  0
 18 16  2  0  0  0  0
 18 19  1  0  0  0  0
 19 17  2  0  0  0  0
M  END
> <CdId>
3084

> <Mol Weight>
269.318

> <Formula>
C15H11NO2S

> <Click_ID>
CLK040D11 __ __ 

$$$$
