CLK042A08
 OpenBabel03181419432D

 21 22  0  0  0  0  0  0  0  0999 V2000
    0.0125    0.3995    0.0000 O   0  0  0  0  0  0  0  0  0  0  0  0
    0.4994    1.0655    0.0000 C   0  0  0  0  0  0  0  0  0  0  0  0
    0.4994   -0.2664    0.0000 C   0  0  0  0  0  0  0  0  0  0  0  0
   -1.6232   -2.1767    0.0000 C   0  0  0  0  0  0  0  0  0  0  0  0
    0.2414    1.8521    0.0000 C   0  0  0  0  0  0  0  0  0  0  0  0
    1.2819    0.8116    0.0000 C   0  0  0  0  0  0  0  0  0  0  0  0
    1.2819   -0.0125    0.0000 C   0  0  0  0  0  0  0  0  0  0  0  0
   -0.8158   -2.0060    0.0000 C   0  0  0  0  0  0  0  0  0  0  0  0
    0.2414   -1.0488    0.0000 C   0  0  0  0  0  0  0  0  0  0  0  0
    1.0905    3.8581    0.0000 C   0  0  0  0  0  0  0  0  0  0  0  0
   -0.5619   -1.2194    0.0000 C   0  0  0  0  0  0  0  0  0  0  0  0
    1.6439    4.4699    0.0000 C   0  0  0  0  0  0  0  0  0  0  0  0
   -0.5619    2.0227    0.0000 O   0  0  0  0  0  0  0  0  0  0  0  0
   -1.4526   -2.9841    0.0000 F   0  0  0  0  0  0  0  0  0  0  0  0
   -1.7938   -1.3693    0.0000 F   0  0  0  0  0  0  0  0  0  0  0  0
   -2.4306   -2.3473    0.0000 F   0  0  0  0  0  0  0  0  0  0  0  0
    0.7949    2.4639    0.0000 N   0  0  0  0  0  0  0  0  0  0  0  0
    0.5411    3.2463    0.0000 C   0  0  0  0  0  0  0  0  0  0  0  0
   -0.2664   -2.6178    0.0000 C   0  0  0  0  0  0  0  0  0  0  0  0
    0.7949   -1.6606    0.0000 C   0  0  0  0  0  0  0  0  0  0  0  0
    0.5411   -2.4472    0.0000 C   0  0  0  0  0  0  0  0  0  0  0  0
  2  1  1  0  0  0  0
  3  1  1  0  0  0  0
  4  8  1  0  0  0  0
  5  2  1  0  0  0  0
  6  2  2  0  0  0  0
  6  7  1  0  0  0  0
  7  3  2  0  0  0  0
  8 11  2  0  0  0  0
  9  3  1  0  0  0  0
 10 18  1  0  0  0  0
 11  9  1  0  0  0  0
 12 10  3  0  0  0  0
 13  5  2  0  0  0  0
 14  4  1  0  0  0  0
 15  4  1  0  0  0  0
 16  4  1  0  0  0  0
 17  5  1  0  0  0  0
 18 17  1  0  0  0  0
 19  8  1  0  0  0  0
 20  9  2  0  0  0  0
 21 20  1  0  0  0  0
 21 19  2  0  0  0  0
M  END
> <CdId>
3217

> <Mol Weight>
293.2406

> <Formula>
C15H10F3NO2

> <Click_ID>
CLK042A08 __ __ 

$$$$
