CLK034_B03
 OpenBabel03181419432D

 24 27  0  0  0  0  0  0  0  0999 V2000
   -4.5821    2.5493    0.0000 C   0  0  0  0  0  0  0  0  0  0  0  0
   -3.8698    2.9825    0.0000 N   0  0  0  0  0  0  0  0  0  0  0  0
   -5.3486    2.8701    0.0000 S   0  0  0  0  0  0  0  0  0  0  0  0
   -4.6570    1.7371    0.0000 N   0  0  0  0  0  0  0  0  0  0  0  0
   -5.8818    2.2452    0.0000 C   0  0  0  0  0  0  0  0  0  0  0  0
   -5.4569    1.5454    0.0000 C   0  0  0  0  0  0  0  0  0  0  0  0
   -3.8698    3.7990    0.0000 C   0  0  0  0  0  0  0  0  0  0  0  0
   -3.1575    4.2114    0.0000 C   0  0  0  0  0  0  0  0  0  0  0  0
   -6.7024    2.2327    0.0000 C   0  0  0  0  0  0  0  0  0  0  0  0
   -5.8443    0.8205    0.0000 C   0  0  0  0  0  0  0  0  0  0  0  0
   -3.2367    1.4621    0.0000 C   0  0  0  0  0  0  0  0  0  0  0  0
   -2.4618    1.7454    0.0000 C   0  0  0  0  0  0  0  0  0  0  0  0
   -2.3993    3.8823    0.0000 O   0  0  0  0  0  0  0  0  0  0  0  0
   -4.5821    4.2031    0.0000 O   0  0  0  0  0  0  0  0  0  0  0  0
   -3.0700    5.0403    0.0000 C   0  0  0  0  0  0  0  0  0  0  0  0
   -1.8453    4.4905    0.0000 C   0  0  0  0  0  0  0  0  0  0  0  0
   -4.0197    1.1955    0.0000 C   0  0  0  0  0  0  0  0  0  0  0  0
   -7.1023    1.5079    0.0000 C   0  0  0  0  0  0  0  0  0  0  0  0
   -2.2577    5.1986    0.0000 C   0  0  0  0  0  0  0  0  0  0  0  0
   -6.6649    0.7955    0.0000 C   0  0  0  0  0  0  0  0  0  0  0  0
   -7.1398    2.9325    0.0000 C   0  0  0  0  0  0  0  0  0  0  0  0
   -7.9146    1.4829    0.0000 C   0  0  0  0  0  0  0  0  0  0  0  0
   -7.9646    2.9117    0.0000 C   0  0  0  0  0  0  0  0  0  0  0  0
   -8.3520    2.1869    0.0000 C   0  0  0  0  0  0  0  0  0  0  0  0
  2  1  2  0  0  0  0
  3  1  1  0  0  0  0
  4  1  1  0  0  0  0
  5  3  1  0  0  0  0
  5  6  2  0  0  0  0
  6  4  1  0  0  0  0
  7  2  1  0  0  0  0
  8  7  1  0  0  0  0
  9  5  1  0  0  0  0
 10  6  1  0  0  0  0
 11 17  1  0  0  0  0
 12 11  3  0  0  0  0
 13  8  1  0  0  0  0
 14  7  2  0  0  0  0
 15  8  2  0  0  0  0
 16 13  1  0  0  0  0
 16 19  2  0  0  0  0
 17  4  1  0  0  0  0
 18  9  1  0  0  0  0
 19 15  1  0  0  0  0
 20 10  2  0  0  0  0
 20 18  1  0  0  0  0
 21  9  2  0  0  0  0
 22 18  2  0  0  0  0
 22 24  1  0  0  0  0
 23 21  1  0  0  0  0
 24 23  2  0  0  0  0
M  END
> <CdId>
2577

> <Mol Weight>
332.376

> <Formula>
C19H12N2O2S

> <Click_ID>
CLK034_B03 __ __ 

$$$$
