CLK040D08
 OpenBabel03181419432D

 17 17  0  0  0  0  0  0  0  0999 V2000
   -0.4208   -0.6292    0.0000 S   0  0  0  0  0  0  0  0  0  0  0  0
    1.0083    1.8458    0.0000 N   0  3  0  0  0  0  0  0  0  0  0  0
    0.2917   -0.2167    0.0000 C   0  0  0  0  0  0  0  0  0  0  0  0
    0.2917    0.6083    0.0000 C   0  0  0  0  0  0  0  0  0  0  0  0
    1.0083    1.0208    0.0000 C   0  0  0  0  0  0  0  0  0  0  0  0
   -2.5667   -1.0417    0.0000 C   0  0  0  0  0  0  0  0  0  0  0  0
   -3.2792   -1.4542    0.0000 C   0  0  0  0  0  0  0  0  0  0  0  0
   -0.8333    0.0875    0.0000 O   0  0  0  0  0  0  0  0  0  0  0  0
   -0.0083   -1.3417    0.0000 O   0  0  0  0  0  0  0  0  0  0  0  0
    1.7208    2.2583    0.0000 O   0  5  0  0  0  0  0  0  0  0  0  0
    0.2917    2.2583    0.0000 O   0  0  0  0  0  0  0  0  0  0  0  0
   -1.1375   -1.0417    0.0000 N   0  0  0  0  0  0  0  0  0  0  0  0
    1.0083   -0.6292    0.0000 C   0  0  0  0  0  0  0  0  0  0  0  0
    1.7208    0.6083    0.0000 C   0  0  0  0  0  0  0  0  0  0  0  0
    1.7208   -0.2167    0.0000 C   0  0  0  0  0  0  0  0  0  0  0  0
   -1.8500   -0.6292    0.0000 C   0  0  0  0  0  0  0  0  0  0  0  0
    1.0083   -1.4542    0.0000 C   0  0  0  0  0  0  0  0  0  0  0  0
  2  5  1  0  0  0  0
  3  1  1  0  0  0  0
  4  3  1  0  0  0  0
  5  4  2  0  0  0  0
  5 14  1  0  0  0  0
  6 16  1  0  0  0  0
  7  6  3  0  0  0  0
  8  1  2  0  0  0  0
  9  1  2  0  0  0  0
 10  2  1  0  0  0  0
 11  2  2  0  0  0  0
 12  1  1  0  0  0  0
 13  3  2  0  0  0  0
 14 15  2  0  0  0  0
 15 13  1  0  0  0  0
 16 12  1  0  0  0  0
 17 13  1  0  0  0  0
M  END
> <CdId>
3060

> <Mol Weight>
254.262

> <Formula>
C10H10N2O4S

> <Click_ID>
CLK040D08 __ __ 

$$$$
