CLK047D02
 OpenBabel03181419432D

 19 20  0  0  0  0  0  0  0  0999 V2000
   -0.6875   -0.5583    0.0000 C   0  0  0  0  0  0  0  0  0  0  0  0
    0.5833   -0.1458    0.0000 C   0  0  0  0  0  0  0  0  0  0  0  0
    0.1000   -0.8125    0.0000 C   0  0  0  0  0  0  0  0  0  0  0  0
   -0.6875    0.2667    0.0000 C   0  0  0  0  0  0  0  0  0  0  0  0
    0.1000    0.5208    0.0000 N   0  0  0  0  0  0  0  0  0  0  0  0
   -1.4000   -0.9708    0.0000 C   0  0  0  0  0  0  0  0  0  0  0  0
    1.4083   -0.1458    0.0000 C   0  0  0  0  0  0  0  0  0  0  0  0
   -1.4000    0.6792    0.0000 C   0  0  0  0  0  0  0  0  0  0  0  0
   -2.1167    0.2667    0.0000 C   0  0  0  0  0  0  0  0  0  0  0  0
    3.0583    1.2833    0.0000 C   0  0  0  0  0  0  0  0  0  0  0  0
   -2.1167   -0.5583    0.0000 C   0  0  0  0  0  0  0  0  0  0  0  0
    3.4708    2.0000    0.0000 C   0  0  0  0  0  0  0  0  0  0  0  0
   -1.4000   -1.7958    0.0000 O   0  0  0  0  0  0  0  0  0  0  0  0
    1.8208   -0.8583    0.0000 O   0  0  0  0  0  0  0  0  0  0  0  0
    1.8208    0.5708    0.0000 N   0  0  0  0  0  0  0  0  0  0  0  0
    0.3542   -1.5958    0.0000 C   0  0  0  0  0  0  0  0  0  0  0  0
    2.6458    0.5708    0.0000 C   0  0  0  0  0  0  0  0  0  0  0  0
   -2.9208    0.4500    0.0000 C   0  0  0  0  0  0  0  0  0  0  0  0
   -2.6750    0.8708    0.0000 C   0  0  0  0  0  0  0  0  0  0  0  0
  2  3  2  0  0  0  0
  3  1  1  0  0  0  0
  4  1  2  0  0  0  0
  5  4  1  0  0  0  0
  5  2  1  0  0  0  0
  6  1  1  0  0  0  0
  7  2  1  0  0  0  0
  8  4  1  0  0  0  0
  9  8  1  0  0  0  0
 10 17  1  0  0  0  0
 11  6  1  0  0  0  0
 11  9  1  0  0  0  0
 12 10  3  0  0  0  0
 13  6  2  0  0  0  0
 14  7  2  0  0  0  0
 15  7  1  0  0  0  0
 16  3  1  0  0  0  0
 17 15  1  0  0  0  0
 18  9  1  0  0  0  0
 19  9  1  0  0  0  0
M  END
> <CdId>
3572

> <Mol Weight>
258.3156

> <Formula>
C15H18N2O2

> <Click_ID>
CLK047D02 __ __ 

$$$$
