CLK016_G02
 OpenBabel03181419432D

 26 28  0  0  0  0  0  0  0  0999 V2000
    1.5599   -0.8132    0.0000 N    0  0  0  0  0  0  0  0  0  0  0  0
    1.8171   -1.5972    0.0000 C    0  0  0  0  0  0  0  0  0  0  0  0
    2.2278   -0.3278    0.0000 C    0  0  0  0  0  0  0  0  0  0  0  0
    2.8916   -0.8132    0.0000 C    0  0  0  0  0  0  0  0  0  0  0  0
    2.6385   -1.5972    0.0000 S    0  0  0  0  0  0  0  0  0  0  0  0
    3.6757   -0.5601    0.0000 C    0  0  0  0  0  0  0  0  0  0  0  0
    0.6098    0.2447    0.0000 C    0  0  0  0  0  0  0  0  0  0  0  0
    0.3900    1.0413    0.0000 C    0  0  0  0  0  0  0  0  0  0  0  0
    1.3317   -2.2569    0.0000 O    0  0  0  0  0  0  0  0  0  0  0  0
    2.2195    0.4937    0.0000 O    0  0  0  0  0  0  0  0  0  0  0  0
    0.7841   -0.5601    0.0000 C    0  0  0  0  0  0  0  0  0  0  0  0
    3.8375    0.2489    0.0000 C    0  0  0  0  0  0  0  0  0  0  0  0
    4.3311    2.6841    0.0000 O    0  0  0  0  0  0  0  0  0  0  0  0
    4.1694    1.8751    0.0000 C    0  0  0  0  0  0  0  0  0  0  0  0
    5.6173    5.3808    0.0000 C    0  0  0  0  0  0  0  0  0  0  0  0
    5.2812    3.7669    0.0000 C    0  0  0  0  0  0  0  0  0  0  0  0
    5.1152    2.9455    0.0000 C    0  0  0  0  0  0  0  0  0  0  0  0
    5.7749    6.1773    0.0000 Br   0  0  0  0  0  0  0  0  0  0  0  0
    3.2152    0.8048    0.0000 C    0  0  0  0  0  0  0  0  0  0  0  0
    4.6216    0.5185    0.0000 C    0  0  0  0  0  0  0  0  0  0  0  0
    4.7958    1.3275    0.0000 C    0  0  0  0  0  0  0  0  0  0  0  0
    3.3853    1.6055    0.0000 C    0  0  0  0  0  0  0  0  0  0  0  0
    6.2229    4.8207    0.0000 C    0  0  0  0  0  0  0  0  0  0  0  0
    4.8290    5.1070    0.0000 C    0  0  0  0  0  0  0  0  0  0  0  0
    4.6672    4.2980    0.0000 C    0  0  0  0  0  0  0  0  0  0  0  0
    6.0611    4.0117    0.0000 C    0  0  0  0  0  0  0  0  0  0  0  0
  2  1  1  0  0  0  0
  3  1  1  0  0  0  0
  4  3  1  0  0  0  0
  4  5  1  0  0  0  0
  5  2  1  0  0  0  0
  6  4  2  0  0  0  0
  7 11  1  0  0  0  0
  8  7  3  0  0  0  0
  9  2  2  0  0  0  0
 10  3  2  0  0  0  0
 11  1  1  0  0  0  0
 12  6  1  0  0  0  0
 13 14  1  0  0  0  0
 14 21  1  0  0  0  0
 15 23  2  0  0  0  0
 16 17  1  0  0  0  0
 17 13  1  0  0  0  0
 18 15  1  0  0  0  0
 19 12  2  0  0  0  0
 20 12  1  0  0  0  0
 21 20  2  0  0  0  0
 22 19  1  0  0  0  0
 22 14  2  0  0  0  0
 23 26  1  0  0  0  0
 24 25  2  0  0  0  0
 24 15  1  0  0  0  0
 25 16  1  0  0  0  0
 26 16  2  0  0  0  0
M  END
> <CdId>
1217

> <Mol Weight>
428.299

> <Formula>
C20H14BrNO3S

> <Click_ID>
CLK016_G02 __ __ 

$$$$
