CLK004_H04
 OpenBabel03181419432D

 20 21  0  0  0  0  0  0  0  0999 V2000
    5.4866   -6.7373    0.0000 C   0  0  0  0  0  0  0  0  0  0  0  0
    5.6951   -7.5295    0.0000 N   0  0  0  0  0  0  0  0  0  0  0  0
    7.5378   -4.6153    0.0000 C   0  0  0  0  0  0  0  0  0  0  0  0
    6.3038   -5.3115    0.0000 N   0  0  0  0  0  0  0  0  0  0  0  0
    8.3717   -4.6236    0.0000 C   0  0  0  0  0  0  0  0  0  0  0  0
    6.4914   -7.7421    0.0000 C   0  0  0  0  0  0  0  0  0  0  0  0
    5.0655   -6.0244    0.0000 C   0  0  0  0  0  0  0  0  0  0  0  0
    6.3080   -6.7290    0.0000 C   0  0  0  0  0  0  0  0  0  0  0  0
    4.7361   -7.0792    0.0000 C   0  0  0  0  0  0  0  0  0  0  0  0
    7.0667   -7.1585    0.0000 O   0  0  0  0  0  0  0  0  0  0  0  0
    5.4700   -5.3074    0.0000 C   0  0  0  0  0  0  0  0  0  0  0  0
    6.7165   -6.0119    0.0000 C   0  0  0  0  0  0  0  0  0  0  0  0
    4.6528   -7.9005    0.0000 C   0  0  0  0  0  0  0  0  0  0  0  0
    4.0732   -6.6081    0.0000 C   0  0  0  0  0  0  0  0  0  0  0  0
    6.7248   -4.6069    0.0000 C   0  0  0  0  0  0  0  0  0  0  0  0
    3.9023   -8.2466    0.0000 C   0  0  0  0  0  0  0  0  0  0  0  0
    3.3187   -6.9458    0.0000 C   0  0  0  0  0  0  0  0  0  0  0  0
    3.2394   -7.7588    0.0000 C   0  0  0  0  0  0  0  0  0  0  0  0
    6.7040   -8.5426    0.0000 C   0  0  0  0  0  0  0  0  0  0  0  0
    2.4723   -8.0881    0.0000 C   0  0  0  0  0  0  0  0  0  0  0  0
  2  1  1  0  0  0  0
  3 15  1  0  0  0  0
  4 12  1  0  0  0  0
  5  3  3  0  0  0  0
  6  2  1  0  0  0  0
  7  1  1  0  0  0  0
  8  1  1  0  0  0  0
  9  1  1  0  0  0  0
 10  6  2  0  0  0  0
 11  7  1  0  0  0  0
 11  4  1  0  0  0  0
 12  8  1  0  0  0  0
 13  9  1  0  0  0  0
 14  9  2  0  0  0  0
 15  4  1  0  0  0  0
 16 13  2  0  0  0  0
 16 18  1  0  0  0  0
 17 14  1  0  0  0  0
 18 17  2  0  0  0  0
 19  6  1  0  0  0  0
 20 18  1  0  0  0  0
M  END
> <CdId>
313

> <Mol Weight>
270.3694

> <Formula>
C17H22N2O

> <Click_ID>
CLK004_H04 __ __ 

$$$$
