CLK044G11
 OpenBabel03181419432D

 24 26  0  0  0  0  0  0  0  0999 V2000
    2.8292   -0.9083    0.0000 C   0  0  0  0  0  0  0  0  0  0  0  0
    2.8292   -0.0833    0.0000 N   0  0  0  0  0  0  0  0  0  0  0  0
    2.0458   -1.1625    0.0000 N   0  0  0  0  0  0  0  0  0  0  0  0
    1.5625   -0.4958    0.0000 C   0  0  0  0  0  0  0  0  0  0  0  0
    2.0458    0.1708    0.0000 C   0  0  0  0  0  0  0  0  0  0  0  0
    3.5458   -1.3208    0.0000 C   0  0  0  0  0  0  0  0  0  0  0  0
   -2.9750    0.2208    0.0000 C   0  0  0  0  0  0  0  0  0  0  0  0
   -4.6250    1.6500    0.0000 C   0  0  0  0  0  0  0  0  0  0  0  0
   -5.0375    2.3625    0.0000 C   0  0  0  0  0  0  0  0  0  0  0  0
    3.5458    0.3292    0.0000 C   0  0  0  0  0  0  0  0  0  0  0  0
   -2.1500    0.2208    0.0000 C   0  0  0  0  0  0  0  0  0  0  0  0
    4.2583   -0.0833    0.0000 C   0  0  0  0  0  0  0  0  0  0  0  0
    4.2583   -0.9083    0.0000 C   0  0  0  0  0  0  0  0  0  0  0  0
   -3.3875   -0.4958    0.0000 O   0  0  0  0  0  0  0  0  0  0  0  0
    0.7375   -0.4958    0.0000 C   0  0  0  0  0  0  0  0  0  0  0  0
   -3.3875    0.9333    0.0000 N   0  0  0  0  0  0  0  0  0  0  0  0
   -1.7375   -0.4958    0.0000 C   0  0  0  0  0  0  0  0  0  0  0  0
   -1.7375    0.9333    0.0000 C   0  0  0  0  0  0  0  0  0  0  0  0
    0.3250    0.2208    0.0000 O   0  0  0  0  0  0  0  0  0  0  0  0
   -0.5000    0.2208    0.0000 C   0  0  0  0  0  0  0  0  0  0  0  0
   -0.9125   -0.4958    0.0000 C   0  0  0  0  0  0  0  0  0  0  0  0
   -0.9125    0.9333    0.0000 C   0  0  0  0  0  0  0  0  0  0  0  0
   -4.2125    0.9333    0.0000 C   0  0  0  0  0  0  0  0  0  0  0  0
    3.5458   -2.1458    0.0000 C   0  0  0  0  0  0  0  0  0  0  0  0
  2  1  1  0  0  0  0
  3  1  2  0  0  0  0
  4  3  1  0  0  0  0
  4  5  2  0  0  0  0
  5  2  1  0  0  0  0
  6  1  1  0  0  0  0
  7 11  1  0  0  0  0
  8 23  1  0  0  0  0
  9  8  3  0  0  0  0
 10  2  1  0  0  0  0
 11 17  2  0  0  0  0
 11 18  1  0  0  0  0
 12 10  2  0  0  0  0
 12 13  1  0  0  0  0
 13  6  2  0  0  0  0
 14  7  2  0  0  0  0
 15  4  1  0  0  0  0
 16  7  1  0  0  0  0
 17 21  1  0  0  0  0
 18 22  2  0  0  0  0
 19 15  1  0  0  0  0
 20 19  1  0  0  0  0
 21 20  2  0  0  0  0
 22 20  1  0  0  0  0
 23 16  1  0  0  0  0
 24  6  1  0  0  0  0
M  END
> <CdId>
3407

> <Mol Weight>
319.3572

> <Formula>
C19H17N3O2

> <Click_ID>
CLK044G11 __ __ 

$$$$
