CLK052H05
 OpenBabel03181419432D

 24 26  0  0  0  0  0  0  0  0999 V2000
   -0.5708    0.0833    0.0000 C   0  0  0  0  0  0  0  0  0  0  0  0
   -1.0542    0.7500    0.0000 N   0  0  0  0  0  0  0  0  0  0  0  0
   -1.0542   -0.5875    0.0000 N   0  0  0  0  0  0  0  0  0  0  0  0
   -1.8417   -0.3292    0.0000 C   0  0  0  0  0  0  0  0  0  0  0  0
   -1.8417    0.4958    0.0000 C   0  0  0  0  0  0  0  0  0  0  0  0
    1.4917    0.7958    0.0000 C   0  0  0  0  0  0  0  0  0  0  0  0
    1.9042    0.0833    0.0000 C   0  0  0  0  0  0  0  0  0  0  0  0
   -1.3542   -1.9833    0.0000 C   0  0  0  0  0  0  0  0  0  0  0  0
   -1.9042   -2.5958    0.0000 C   0  0  0  0  0  0  0  0  0  0  0  0
    0.2542    0.0833    0.0000 C   0  0  0  0  0  0  0  0  0  0  0  0
    0.6667    0.7958    0.0000 O   0  0  0  0  0  0  0  0  0  0  0  0
    2.7292    0.0833    0.0000 C   0  0  0  0  0  0  0  0  0  0  0  0
    1.9042    1.5125    0.0000 C   0  0  0  0  0  0  0  0  0  0  0  0
   -0.8000   -1.3708    0.0000 C   0  0  0  0  0  0  0  0  0  0  0  0
    1.4917   -0.6333    0.0000 C   0  0  0  0  0  0  0  0  0  0  0  0
    3.1417    0.7958    0.0000 C   0  0  0  0  0  0  0  0  0  0  0  0
    2.7292    1.5125    0.0000 C   0  0  0  0  0  0  0  0  0  0  0  0
   -2.5542   -0.7417    0.0000 C   0  0  0  0  0  0  0  0  0  0  0  0
   -2.5542    0.9083    0.0000 C   0  0  0  0  0  0  0  0  0  0  0  0
    0.6667   -0.6333    0.0000 C   0  0  0  0  0  0  0  0  0  0  0  0
    1.9042   -1.3458    0.0000 C   0  0  0  0  0  0  0  0  0  0  0  0
    3.1417    2.2250    0.0000 C   0  0  0  0  0  0  0  0  0  0  0  0
   -3.2708   -0.3292    0.0000 C   0  0  0  0  0  0  0  0  0  0  0  0
   -3.2708    0.4958    0.0000 C   0  0  0  0  0  0  0  0  0  0  0  0
  2  1  2  0  0  0  0
  3  1  1  0  0  0  0
  4  3  1  0  0  0  0
  4  5  2  0  0  0  0
  5  2  1  0  0  0  0
  6 11  1  0  0  0  0
  7  6  2  0  0  0  0
  8 14  1  0  0  0  0
  9  8  3  0  0  0  0
 10  1  1  0  0  0  0
 11 10  1  0  0  0  0
 12  7  1  0  0  0  0
 13  6  1  0  0  0  0
 14  3  1  0  0  0  0
 15  7  1  0  0  0  0
 16 12  2  0  0  0  0
 17 13  2  0  0  0  0
 17 16  1  0  0  0  0
 18  4  1  0  0  0  0
 19  5  1  0  0  0  0
 20 15  1  0  0  0  0
 21 15  1  0  0  0  0
 22 17  1  0  0  0  0
 23 18  2  0  0  0  0
 23 24  1  0  0  0  0
 24 19  2  0  0  0  0
M  END
> <CdId>
4000

> <Mol Weight>
318.4122

> <Formula>
C21H22N2O

> <Click_ID>
CLK052H05 __ __ 

$$$$
