CLK012_F08
 OpenBabel03181419432D

 24 26  0  0  0  0  0  0  0  0999 V2000
    0.6137    0.0752    0.0000 C   0  0  0  0  0  0  0  0  0  0  0  0
    0.3549   -0.7140    0.0000 C   0  0  0  0  0  0  0  0  0  0  0  0
   -0.0584    0.5594    0.0000 C   0  0  0  0  0  0  0  0  0  0  0  0
   -0.4718   -0.7140    0.0000 C   0  0  0  0  0  0  0  0  0  0  0  0
   -0.7265    0.0752    0.0000 C   0  0  0  0  0  0  0  0  0  0  0  0
    1.4029    0.3340    0.0000 C   0  0  0  0  0  0  0  0  0  0  0  0
    3.0479    4.6136    0.0000 C   0  0  0  0  0  0  0  0  0  0  0  0
    3.2316    5.4152    0.0000 C   0  0  0  0  0  0  0  0  0  0  0  0
    1.1273    2.5051    0.0000 C   0  0  0  0  0  0  0  0  0  0  0  0
    1.5699    1.1481    0.0000 C   0  0  0  0  0  0  0  0  0  0  0  0
   -0.0584    1.3861    0.0000 O   0  0  0  0  0  0  0  0  0  0  0  0
    0.8434   -1.3820    0.0000 O   0  0  0  0  0  0  0  0  0  0  0  0
    0.9561    1.6993    0.0000 C   0  0  0  0  0  0  0  0  0  0  0  0
    1.9081    2.7514    0.0000 C   0  0  0  0  0  0  0  0  0  0  0  0
    2.5218    2.2003    0.0000 C   0  0  0  0  0  0  0  0  0  0  0  0
    2.3465    1.3903    0.0000 C   0  0  0  0  0  0  0  0  0  0  0  0
    0.5261    3.0520    0.0000 O   0  0  0  0  0  0  0  0  0  0  0  0
    2.0918    3.5655    0.0000 O   0  0  0  0  0  0  0  0  0  0  0  0
   -1.5281    0.2463    0.0000 C   0  0  0  0  0  0  0  0  0  0  0  0
   -1.0229   -1.3277    0.0000 C   0  0  0  0  0  0  0  0  0  0  0  0
    2.8725    3.8077    0.0000 C   0  0  0  0  0  0  0  0  0  0  0  0
   -0.2588    2.8057    0.0000 C   0  0  0  0  0  0  0  0  0  0  0  0
   -2.0875   -0.3674    0.0000 C   0  0  0  0  0  0  0  0  0  0  0  0
   -1.8287   -1.1523    0.0000 C   0  0  0  0  0  0  0  0  0  0  0  0
  2  1  1  0  0  0  0
  3  1  1  0  0  0  0
  4  2  1  0  0  0  0
  4  5  2  0  0  0  0
  5  3  1  0  0  0  0
  6  1  2  0  0  0  0
  7 21  1  0  0  0  0
  8  7  3  0  0  0  0
  9 13  1  0  0  0  0
 10  6  1  0  0  0  0
 11  3  2  0  0  0  0
 12  2  2  0  0  0  0
 13 10  2  0  0  0  0
 14 15  1  0  0  0  0
 14  9  2  0  0  0  0
 15 16  2  0  0  0  0
 16 10  1  0  0  0  0
 17  9  1  0  0  0  0
 18 14  1  0  0  0  0
 19  5  1  0  0  0  0
 20  4  1  0  0  0  0
 21 18  1  0  0  0  0
 22 17  1  0  0  0  0
 23 19  2  0  0  0  0
 23 24  1  0  0  0  0
 24 20  2  0  0  0  0
M  END
> <CdId>
893

> <Mol Weight>
318.3228

> <Formula>
C20H14O4

> <Click_ID>
CLK012_F08 __ __ 

$$$$
