CLK050F08
 OpenBabel03181419432D

 20 21  0  0  0  0  0  0  0  0999 V2000
    1.1278    1.7437    0.0000 N   0  0  0  0  0  0  0  0  0  0  0  0
    1.9102    1.9976    0.0000 C   0  0  0  0  0  0  0  0  0  0  0  0
    0.6409    2.4095    0.0000 C   0  0  0  0  0  0  0  0  0  0  0  0
    0.8739    0.9613    0.0000 C   0  0  0  0  0  0  0  0  0  0  0  0
   -0.3995   -2.9589    0.0000 C   0  0  0  0  0  0  0  0  0  0  0  0
   -0.1873    0.0042    0.0000 C   0  0  0  0  0  0  0  0  0  0  0  0
    0.0666    0.7907    0.0000 C   0  0  0  0  0  0  0  0  0  0  0  0
    0.1498   -3.5706    0.0000 C   0  0  0  0  0  0  0  0  0  0  0  0
   -0.9946   -0.1665    0.0000 N   0  0  0  0  0  0  0  0  0  0  0  0
    1.9102    2.8215    0.0000 C   0  0  0  0  0  0  0  0  0  0  0  0
    1.1278    3.0795    0.0000 C   0  0  0  0  0  0  0  0  0  0  0  0
   -0.1831    2.4095    0.0000 O   0  0  0  0  0  0  0  0  0  0  0  0
    2.5760    1.5148    0.0000 O   0  0  0  0  0  0  0  0  0  0  0  0
   -1.2485   -0.9488    0.0000 C   0  0  0  0  0  0  0  0  0  0  0  0
    0.3621   -0.6076    0.0000 O   0  0  0  0  0  0  0  0  0  0  0  0
   -0.9530   -2.3471    0.0000 C   0  0  0  0  0  0  0  0  0  0  0  0
   -0.6991   -1.5606    0.0000 C   0  0  0  0  0  0  0  0  0  0  0  0
   -2.3097   -1.9060    0.0000 C   0  0  0  0  0  0  0  0  0  0  0  0
   -2.0558   -1.1194    0.0000 C   0  0  0  0  0  0  0  0  0  0  0  0
   -1.7603   -2.5177    0.0000 C   0  0  0  0  0  0  0  0  0  0  0  0
  2  1  1  0  0  0  0
  3  1  1  0  0  0  0
  4  1  1  0  0  0  0
  5 16  1  0  0  0  0
  6  7  1  0  0  0  0
  7  4  1  0  0  0  0
  8  5  3  0  0  0  0
  9  6  1  0  0  0  0
 10  2  1  0  0  0  0
 11  3  1  0  0  0  0
 11 10  1  0  0  0  0
 12  3  2  0  0  0  0
 13  2  2  0  0  0  0
 14  9  1  0  0  0  0
 15  6  2  0  0  0  0
 16 17  1  0  0  0  0
 17 14  2  0  0  0  0
 18 19  2  0  0  0  0
 19 14  1  0  0  0  0
 20 16  2  0  0  0  0
 20 18  1  0  0  0  0
M  END
> <CdId>
3862

> <Mol Weight>
270.2833

> <Formula>
C15H14N2O3

> <Click_ID>
CLK050F08 __ __ 

$$$$
