CLK019_G06
 OpenBabel03181419432D

 27 28  0  0  0  0  0  0  0  0999 V2000
    1.1500   -0.9167    0.0000 N    0  0  0  0  0  0  0  0  0  0  0  0
    4.0167    1.5583    0.0000 C    0  0  0  0  0  0  0  0  0  0  0  0
    4.0167    0.7333    0.0000 C    0  0  0  0  0  0  0  0  0  0  0  0
    3.3000    1.9708    0.0000 C    0  0  0  0  0  0  0  0  0  0  0  0
    2.5917    3.2083    0.0000 C    0  0  0  0  0  0  0  0  0  0  0  0
    3.3042    2.7875    0.0000 C    0  0  0  0  0  0  0  0  0  0  0  0
    4.7292    0.3208    0.0000 C    0  0  0  0  0  0  0  0  0  0  0  0
    5.4417   -0.0917    0.0000 N    0  0  0  0  0  0  0  0  0  0  0  0
    1.8792    2.8000    0.0000 C    0  0  0  0  0  0  0  0  0  0  0  0
    2.5875    1.5625    0.0000 C    0  0  0  0  0  0  0  0  0  0  0  0
    1.8667   -0.5042    0.0000 C    0  0  0  0  0  0  0  0  0  0  0  0
    0.4625    4.4542    0.0000 C    0  0  0  0  0  0  0  0  0  0  0  0
    1.8667    1.9708    0.0000 C    0  0  0  0  0  0  0  0  0  0  0  0
   -0.2500    4.8750    0.0000 C    0  0  0  0  0  0  0  0  0  0  0  0
    0.4292   -0.5042    0.0000 O    0  0  0  0  0  0  0  0  0  0  0  0
    3.3000    0.3208    0.0000 C    0  0  0  0  0  0  0  0  0  0  0  0
    1.1500   -1.7417    0.0000 O    0  0  0  0  0  0  0  0  0  0  0  0
    1.8667    0.3208    0.0000 C    0  0  0  0  0  0  0  0  0  0  0  0
    2.5792   -0.9167    0.0000 C    0  0  0  0  0  0  0  0  0  0  0  0
    2.5792    0.7375    0.0000 C    0  0  0  0  0  0  0  0  0  0  0  0
    3.3000   -0.5042    0.0000 C    0  0  0  0  0  0  0  0  0  0  0  0
    4.0125    3.2083    0.0000 Br   0  0  0  0  0  0  0  0  0  0  0  0
    1.1667    3.2208    0.0000 O    0  0  0  0  0  0  0  0  0  0  0  0
    1.1625    1.5833    0.0000 O    0  0  0  0  0  0  0  0  0  0  0  0
    1.1667    4.0292    0.0000 C    0  0  0  0  0  0  0  0  0  0  0  0
    1.1625    0.7500    0.0000 C    0  0  0  0  0  0  0  0  0  0  0  0
    0.4542    0.3458    0.0000 C    0  0  0  0  0  0  0  0  0  0  0  0
  2  3  2  0  0  0  0
  3 16  1  0  0  0  0
  4  2  1  0  0  0  0
  5  6  2  0  0  0  0
  6  4  1  0  0  0  0
  7  3  1  0  0  0  0
  8  7  3  0  0  0  0
  9 13  2  0  0  0  0
  9  5  1  0  0  0  0
 10  4  2  0  0  0  0
 11  1  1  0  0  0  0
 12 25  1  0  0  0  0
 13 10  1  0  0  0  0
 14 12  3  0  0  0  0
 15  1  1  0  0  0  0
 16 21  2  0  0  0  0
 16 20  1  0  0  0  0
 17  1  2  0  0  0  0
 18 11  1  0  0  0  0
 19 11  2  0  0  0  0
 20 18  2  0  0  0  0
 21 19  1  0  0  0  0
 22  6  1  0  0  0  0
 23  9  1  0  0  0  0
 24 13  1  0  0  0  0
 25 23  1  0  0  0  0
 26 24  1  0  0  0  0
 27 26  1  0  0  0  0
M  END
> <CdId>
1461

> <Mol Weight>
427.248

> <Formula>
C20H15BrN2O4

> <Click_ID>
CLK019_G06 __ __ 

$$$$
