CLK037H08
 OpenBabel03181419432D

 27 28  0  0  0  0  0  0  0  0999 V2000
    1.9593    0.1834    0.0000 C    0  0  0  0  0  0  0  0  0  0  0  0
    2.3721    0.8963    0.0000 N    0  0  0  0  0  0  0  0  0  0  0  0
    1.0631    1.1756    0.0000 C    0  0  0  0  0  0  0  0  0  0  0  0
    2.2929   -0.5711    0.0000 C    0  0  0  0  0  0  0  0  0  0  0  0
    1.8177    1.5091    0.0000 C    0  0  0  0  0  0  0  0  0  0  0  0
    1.1506    0.3544    0.0000 S    0  0  0  0  0  0  0  0  0  0  0  0
   -1.7967    0.3502    0.0000 C    0  0  0  0  0  0  0  0  0  0  0  0
    0.3502    1.5883    0.0000 C    0  0  0  0  0  0  0  0  0  0  0  0
    1.8093   -1.2382    0.0000 C    0  0  0  0  0  0  0  0  0  0  0  0
   -1.7967    1.1756    0.0000 C    0  0  0  0  0  0  0  0  0  0  0  0
   -1.0798   -0.0625    0.0000 C    0  0  0  0  0  0  0  0  0  0  0  0
   -0.3669    1.1756    0.0000 C    0  0  0  0  0  0  0  0  0  0  0  0
   -3.9396   -0.0625    0.0000 C    0  0  0  0  0  0  0  0  0  0  0  0
   -4.6525   -0.4753    0.0000 C    0  0  0  0  0  0  0  0  0  0  0  0
    2.1428   -1.9928    0.0000 C    0  0  0  0  0  0  0  0  0  0  0  0
   -1.0798    1.5883    0.0000 C    0  0  0  0  0  0  0  0  0  0  0  0
   -0.3669    0.3502    0.0000 C    0  0  0  0  0  0  0  0  0  0  0  0
    1.9885    2.3179    0.0000 O    0  0  0  0  0  0  0  0  0  0  0  0
    0.9880   -1.1548    0.0000 O    0  0  0  0  0  0  0  0  0  0  0  0
   -2.5096    1.5883    0.0000 Cl   0  0  0  0  0  0  0  0  0  0  0  0
   -2.5096   -0.0625    0.0000 O    0  0  0  0  0  0  0  0  0  0  0  0
   -1.0798   -0.8880    0.0000 O    0  0  0  0  0  0  0  0  0  0  0  0
   -3.2225    0.3502    0.0000 C    0  0  0  0  0  0  0  0  0  0  0  0
    2.4805   -2.7473    0.0000 C    0  0  0  0  0  0  0  0  0  0  0  0
    2.8973   -1.6592    0.0000 C    0  0  0  0  0  0  0  0  0  0  0  0
    1.3924   -2.3304    0.0000 C    0  0  0  0  0  0  0  0  0  0  0  0
   -0.3669   -1.3007    0.0000 C    0  0  0  0  0  0  0  0  0  0  0  0
  2  1  1  0  0  0  0
  3  6  1  0  0  0  0
  4  1  2  0  0  0  0
  5  2  1  0  0  0  0
  5  3  1  0  0  0  0
  6  1  1  0  0  0  0
  7 10  1  0  0  0  0
  7 11  2  0  0  0  0
  8  3  2  0  0  0  0
  9  4  1  0  0  0  0
 10 16  2  0  0  0  0
 11 17  1  0  0  0  0
 12  8  1  0  0  0  0
 13 23  1  0  0  0  0
 14 13  3  0  0  0  0
 15  9  1  0  0  0  0
 16 12  1  0  0  0  0
 17 12  2  0  0  0  0
 18  5  2  0  0  0  0
 19  9  2  0  0  0  0
 20 10  1  0  0  0  0
 21  7  1  0  0  0  0
 22 11  1  0  0  0  0
 23 21  1  0  0  0  0
 24 15  1  0  0  0  0
 25 15  1  0  0  0  0
 26 15  1  0  0  0  0
 27 22  1  0  0  0  0
M  END
> <CdId>
2824

> <Mol Weight>
405.895

> <Formula>
C20H20ClNO4S

> <Click_ID>
CLK037H08 __ __ 

$$$$
