CLK028_H09
 OpenBabel03181419432D

 15 15  0  0  0  0  0  0  0  0999 V2000
    1.7968   -0.2177    0.0000 C   0  0  0  0  0  0  0  0  0  0  0  0
    1.0919    0.1935    0.0000 C   0  0  0  0  0  0  0  0  0  0  0  0
    1.7968   -1.0366    0.0000 C   0  0  0  0  0  0  0  0  0  0  0  0
    0.3559   -0.2177    0.0000 C   0  0  0  0  0  0  0  0  0  0  0  0
   -1.8002    0.1935    0.0000 C   0  0  0  0  0  0  0  0  0  0  0  0
   -2.5154    0.6047    0.0000 C   0  0  0  0  0  0  0  0  0  0  0  0
    2.5120   -1.4477    0.0000 O   0  0  0  0  0  0  0  0  0  0  0  0
    0.3559   -1.0712    0.0000 O   0  0  0  0  0  0  0  0  0  0  0  0
    1.0919   -1.4477    0.0000 O   0  0  0  0  0  0  0  0  0  0  0  0
   -0.3593    0.1935    0.0000 O   0  0  0  0  0  0  0  0  0  0  0  0
   -1.0849   -0.2177    0.0000 C   0  0  0  0  0  0  0  0  0  0  0  0
    1.0919    1.0401    0.0000 C   0  0  0  0  0  0  0  0  0  0  0  0
    2.5120    0.1935    0.0000 C   0  0  0  0  0  0  0  0  0  0  0  0
    2.5120    1.0401    0.0000 C   0  0  0  0  0  0  0  0  0  0  0  0
    1.7968    1.4512    0.0000 C   0  0  0  0  0  0  0  0  0  0  0  0
  2  1  2  0  0  0  0
  3  1  1  0  0  0  0
  4  2  1  0  0  0  0
  5 11  1  0  0  0  0
  6  5  3  0  0  0  0
  7  3  2  0  0  0  0
  8  4  2  0  0  0  0
  9  3  1  0  0  0  0
 10  4  1  0  0  0  0
 11 10  1  0  0  0  0
 12  2  1  0  0  0  0
 13  1  1  0  0  0  0
 14 13  2  0  0  0  0
 15 14  1  0  0  0  0
 15 12  2  0  0  0  0
M  END
> <CdId>
2163

> <Mol Weight>
204.1788

> <Formula>
C11H8O4

> <Click_ID>
CLK028_H09 __ __ 

$$$$
