CLK049E04
 OpenBabel03181419432D

 21 22  0  0  0  0  0  0  0  0999 V2000
    1.0542    0.3375    0.0000 C   0  0  0  0  0  0  0  0  0  0  0  0
    0.3375    0.7500    0.0000 N   0  0  0  0  0  0  0  0  0  0  0  0
   -0.3750    0.3375    0.0000 C   0  0  3  0  0  0  0  0  0  0  0  0
    3.1958    0.7500    0.0000 C   0  0  0  0  0  0  0  0  0  0  0  0
    3.9125    1.1625    0.0000 C   0  0  0  0  0  0  0  0  0  0  0  0
   -0.3750   -0.4875    0.0000 C   0  0  0  0  0  0  0  0  0  0  0  0
    1.0542   -0.4875    0.0000 O   0  0  0  0  0  0  0  0  0  0  0  0
   -1.0917    0.7500    0.0000 C   0  0  0  0  0  0  0  0  0  0  0  0
    1.7667    0.7500    0.0000 N   0  0  0  0  0  0  0  0  0  0  0  0
    0.3375   -0.9000    0.0000 C   0  0  0  0  0  0  0  0  0  0  0  0
   -1.0917   -0.9000    0.0000 C   0  0  0  0  0  0  0  0  0  0  0  0
    0.3375   -1.7250    0.0000 C   0  0  0  0  0  0  0  0  0  0  0  0
   -1.0917   -1.7250    0.0000 C   0  0  0  0  0  0  0  0  0  0  0  0
   -0.3750   -2.1375    0.0000 C   0  0  0  0  0  0  0  0  0  0  0  0
    2.4833    0.3375    0.0000 C   0  0  0  0  0  0  0  0  0  0  0  0
   -1.0917    1.5750    0.0000 C   0  0  0  0  0  0  0  0  0  0  0  0
   -1.8042    0.3375    0.0000 C   0  0  0  0  0  0  0  0  0  0  0  0
   -0.3750   -2.9625    0.0000 C   0  0  0  0  0  0  0  0  0  0  0  0
   -2.5208    0.7500    0.0000 C   0  0  0  0  0  0  0  0  0  0  0  0
   -1.8042    1.9875    0.0000 C   0  0  0  0  0  0  0  0  0  0  0  0
   -2.5208    1.5750    0.0000 C   0  0  0  0  0  0  0  0  0  0  0  0
  2  1  1  0  0  0  0
  3  2  1  0  0  0  0
  4 15  1  0  0  0  0
  5  4  3  0  0  0  0
  6  3  1  0  0  0  0
  7  1  2  0  0  0  0
  8  3  1  0  0  0  0
  9  1  1  0  0  0  0
 10  6  1  0  0  0  0
 11  6  2  0  0  0  0
 12 10  2  0  0  0  0
 12 14  1  0  0  0  0
 13 11  1  0  0  0  0
 14 13  2  0  0  0  0
 15  9  1  0  0  0  0
 16  8  1  0  0  0  0
 17  8  2  0  0  0  0
 18 14  1  0  0  0  0
 19 17  1  0  0  0  0
 20 16  2  0  0  0  0
 21 19  2  0  0  0  0
 21 20  1  0  0  0  0
M  END
> <CdId>
3749

> <Mol Weight>
278.3483

> <Formula>
C18H18N2O

> <Click_ID>
CLK049E04 __ __ 

$$$$
