CLK021_C10
 OpenBabel03181419432D

 19 20  0  0  0  0  0  0  0  0999 V2000
    5.2846    1.5491    0.0000 C   0  0  0  0  0  0  0  0  0  0  0  0
    4.4596    1.5491    0.0000 N   0  0  0  0  0  0  0  0  0  0  0  0
    5.6971    2.2641    0.0000 N   0  0  0  0  0  0  0  0  0  0  0  0
    0.7471    0.8341    0.0000 C   0  0  0  0  0  0  0  0  0  0  0  0
    2.8096    1.5491    0.0000 N   0  0  0  0  0  0  0  0  0  0  0  0
   -0.0779    0.8341    0.0000 C   0  0  0  0  0  0  0  0  0  0  0  0
    5.6971    0.8341    0.0000 O   0  0  0  0  0  0  0  0  0  0  0  0
    4.0471    0.8341    0.0000 C   0  0  0  0  0  0  0  0  0  0  0  0
    4.0471    2.2641    0.0000 C   0  0  0  0  0  0  0  0  0  0  0  0
    3.2221    2.2641    0.0000 C   0  0  0  0  0  0  0  0  0  0  0  0
    3.2221    0.8341    0.0000 C   0  0  0  0  0  0  0  0  0  0  0  0
    6.5221    2.2641    0.0000 C   0  0  0  0  0  0  0  0  0  0  0  0
    1.9846    1.5491    0.0000 C   0  0  0  0  0  0  0  0  0  0  0  0
    1.5721    0.8341    0.0000 C   0  0  0  0  0  0  0  0  0  0  0  0
    6.9346    1.5491    0.0000 C   0  0  0  0  0  0  0  0  0  0  0  0
    6.9346    2.9791    0.0000 C   0  0  0  0  0  0  0  0  0  0  0  0
    7.7596    1.5491    0.0000 C   0  0  0  0  0  0  0  0  0  0  0  0
    7.7596    2.9791    0.0000 C   0  0  0  0  0  0  0  0  0  0  0  0
    8.1721    2.2641    0.0000 C   0  0  0  0  0  0  0  0  0  0  0  0
  2  1  1  0  0  0  0
  3  1  1  0  0  0  0
  4 14  1  0  0  0  0
  5 10  1  0  0  0  0
  6  4  3  0  0  0  0
  7  1  2  0  0  0  0
  8  2  1  0  0  0  0
  9  2  1  0  0  0  0
 10  9  1  0  0  0  0
 11  8  1  0  0  0  0
 11  5  1  0  0  0  0
 12  3  1  0  0  0  0
 13  5  1  0  0  0  0
 14 13  1  0  0  0  0
 15 12  1  0  0  0  0
 16 12  1  0  0  0  0
 17 15  1  0  0  0  0
 17 19  1  0  0  0  0
 18 16  1  0  0  0  0
 19 18  1  0  0  0  0
M  END
> <CdId>
1585

> <Mol Weight>
263.3785

> <Formula>
C15H25N3O

> <Click_ID>
CLK021_C10 __ __ 

$$$$
