CLK009_H07
 OpenBabel03181419432D

 21 21  0  0  0  0  0  0  0  0999 V2000
    2.4424    1.5298    0.0000 Br   0  0  0  0  0  0  0  0  0  0  0  0
   -1.7002    0.0871    0.0000 N    0  0  0  0  0  0  0  0  0  0  0  0
    0.4998    0.7914    0.0000 C    0  0  3  0  0  0  0  0  0  0  0  0
   -0.0454    0.0909    0.0000 C    0  0  0  0  0  0  0  0  0  0  0  0
   -1.1019    0.8141    0.0000 C    0  0  0  0  0  0  0  0  0  0  0  0
   -0.1931    0.4658    0.0000 C    0  0  3  0  0  0  0  0  0  0  0  0
   -0.9845    0.3938    0.0000 C    0  0  3  0  0  0  0  0  0  0  0  0
   -2.3477   -0.4241    0.0000 C    0  0  0  0  0  0  0  0  0  0  0  0
   -2.9839   -0.9240    0.0000 C    0  0  0  0  0  0  0  0  0  0  0  0
   -3.5633   -1.4125    0.0000 C    0  0  0  0  0  0  0  0  0  0  0  0
    1.2762    0.3824    0.0000 C    0  0  0  0  0  0  0  0  0  0  0  0
    0.8445    1.6018    0.0000 O    0  0  0  0  0  0  0  0  0  0  0  0
    0.0493    1.2685    0.0000 C    0  0  0  0  0  0  0  0  0  0  0  0
   -1.2723   -0.3333    0.0000 C    0  0  0  0  0  0  0  0  0  0  0  0
   -1.8365   -1.0717    0.0000 C    0  0  0  0  0  0  0  0  0  0  0  0
   -2.8589    0.2234    0.0000 C    0  0  0  0  0  0  0  0  0  0  0  0
    1.8328    0.7839    0.0000 C    0  0  0  0  0  0  0  0  0  0  0  0
    1.6813   -0.3673    0.0000 C    0  0  0  0  0  0  0  0  0  0  0  0
    2.3440   -0.7270    0.0000 C    0  0  0  0  0  0  0  0  0  0  0  0
    2.5901    0.4506    0.0000 C    0  0  0  0  0  0  0  0  0  0  0  0
    2.9347   -0.2765    0.0000 C    0  0  0  0  0  0  0  0  0  0  0  0
  3  4  1  0  0  0  0
  3  6  1  0  0  0  0
  4  7  1  0  0  0  0
  5  2  1  0  0  0  0
  6  5  1  0  0  0  0
  7  2  1  0  0  0  0
  8  2  1  0  0  0  0
  9  8  1  0  0  0  0
 10  9  3  0  0  0  0
 11  3  1  0  0  0  0
 12  3  1  0  0  0  0
 13  6  1  0  0  0  0
 14  7  1  0  0  0  0
 15  8  1  0  0  0  0
 16  8  1  0  0  0  0
 17 11  2  0  0  0  0
 18 11  1  0  0  0  0
 19 18  2  0  0  0  0
 20 17  1  0  0  0  0
 21 20  2  0  0  0  0
 21 19  1  0  0  0  0
M  END
> <CdId>
672

> <Mol Weight>
352.309

> <Formula>
C18H26BrNO

> <Click_ID>
CLK009_H07 __ __ 

$$$$
