CLK016_G11
 OpenBabel03181419432D

 21 22  0  0  0  0  0  0  0  0999 V2000
    1.5650   -0.8158    0.0000 N   0  0  0  0  0  0  0  0  0  0  0  0
    1.8230   -1.6024    0.0000 C   0  0  0  0  0  0  0  0  0  0  0  0
    2.2350   -0.3288    0.0000 C   0  0  0  0  0  0  0  0  0  0  0  0
    2.9010   -0.8158    0.0000 C   0  0  0  0  0  0  0  0  0  0  0  0
    2.6470   -1.6024    0.0000 S   0  0  0  0  0  0  0  0  0  0  0  0
    2.8011    2.1559    0.0000 C   0  0  0  0  0  0  0  0  0  0  0  0
    3.6876   -0.5619    0.0000 C   0  0  0  0  0  0  0  0  0  0  0  0
    3.4212    1.6065    0.0000 C   0  0  0  0  0  0  0  0  0  0  0  0
    0.6118    0.2455    0.0000 C   0  0  0  0  0  0  0  0  0  0  0  0
    0.3913    1.0446    0.0000 C   0  0  0  0  0  0  0  0  0  0  0  0
    1.3360   -2.2642    0.0000 O   0  0  0  0  0  0  0  0  0  0  0  0
    2.2267    0.4952    0.0000 O   0  0  0  0  0  0  0  0  0  0  0  0
    0.7866   -0.5619    0.0000 C   0  0  0  0  0  0  0  0  0  0  0  0
    3.8582    0.2455    0.0000 C   0  0  0  0  0  0  0  0  0  0  0  0
    3.2506    0.7991    0.0000 C   0  0  0  0  0  0  0  0  0  0  0  0
    3.5003    2.6054    0.0000 F   0  0  0  0  0  0  0  0  0  0  0  0
    2.9759    2.9550    0.0000 F   0  0  0  0  0  0  0  0  0  0  0  0
    2.0269    1.8979    0.0000 F   0  0  0  0  0  0  0  0  0  0  0  0
    4.1995    1.8479    0.0000 C   0  0  0  0  0  0  0  0  0  0  0  0
    4.8071    1.3068    0.0000 C   0  0  0  0  0  0  0  0  0  0  0  0
    4.6365    0.5077    0.0000 C   0  0  0  0  0  0  0  0  0  0  0  0
  2  1  1  0  0  0  0
  3  1  1  0  0  0  0
  4  3  1  0  0  0  0
  4  5  1  0  0  0  0
  5  2  1  0  0  0  0
  6  8  1  0  0  0  0
  7  4  2  0  0  0  0
  8 15  1  0  0  0  0
  8 19  2  0  0  0  0
  9 13  1  0  0  0  0
 10  9  3  0  0  0  0
 11  2  2  0  0  0  0
 12  3  2  0  0  0  0
 13  1  1  0  0  0  0
 14  7  1  0  0  0  0
 15 14  2  0  0  0  0
 16  6  1  0  0  0  0
 17  6  1  0  0  0  0
 18  6  1  0  0  0  0
 19 20  1  0  0  0  0
 20 21  2  0  0  0  0
 21 14  1  0  0  0  0
M  END
> <CdId>
1226

> <Mol Weight>
311.279

> <Formula>
C14H8F3NO2S

> <Click_ID>
CLK016_G11 __ __ 

$$$$
