CLK040C03
 OpenBabel03181419432D

 22 23  0  0  0  0  0  0  0  0999 V2000
    1.7342    1.1923    0.0000 S   0  0  0  0  0  0  0  0  0  0  0  0
   -2.3595   -0.8963    0.0000 C   0  0  0  0  0  0  0  0  0  0  0  0
   -3.1434   -0.6420    0.0000 N   0  0  0  0  0  0  0  0  0  0  0  0
   -2.3595   -1.7217    0.0000 C   0  0  0  0  0  0  0  0  0  0  0  0
   -1.6926   -0.4127    0.0000 N   0  0  0  0  0  0  0  0  0  0  0  0
   -0.9380   -0.7462    0.0000 C   0  0  0  0  0  0  0  0  0  0  0  0
   -3.6311   -1.3090    0.0000 O   0  0  0  0  0  0  0  0  0  0  0  0
    1.0673    0.7087    0.0000 C   0  0  0  0  0  0  0  0  0  0  0  0
   -3.1434   -1.9760    0.0000 C   0  0  0  0  0  0  0  0  0  0  0  0
    3.8228    1.8260    0.0000 C   0  0  0  0  0  0  0  0  0  0  0  0
    4.4899    2.3137    0.0000 C   0  0  0  0  0  0  0  0  0  0  0  0
    1.2507    1.8593    0.0000 O   0  0  0  0  0  0  0  0  0  0  0  0
    2.2179    0.5253    0.0000 O   0  0  0  0  0  0  0  0  0  0  0  0
   -0.2709   -0.2626    0.0000 C   0  0  0  0  0  0  0  0  0  0  0  0
    2.4013    1.6801    0.0000 N   0  0  0  0  0  0  0  0  0  0  0  0
   -0.8504   -1.5675    0.0000 O   0  0  0  0  0  0  0  0  0  0  0  0
    1.1506   -0.1126    0.0000 C   0  0  0  0  0  0  0  0  0  0  0  0
    0.3127    1.0423    0.0000 C   0  0  0  0  0  0  0  0  0  0  0  0
    0.4836   -0.5961    0.0000 C   0  0  0  0  0  0  0  0  0  0  0  0
   -0.3544    0.5586    0.0000 C   0  0  0  0  0  0  0  0  0  0  0  0
    3.1559    1.3424    0.0000 C   0  0  0  0  0  0  0  0  0  0  0  0
   -3.3976   -2.7640    0.0000 C   0  0  0  0  0  0  0  0  0  0  0  0
  2  5  1  0  0  0  0
  3  2  2  0  0  0  0
  4  2  1  0  0  0  0
  5  6  1  0  0  0  0
  6 14  1  0  0  0  0
  7  3  1  0  0  0  0
  7  9  1  0  0  0  0
  8  1  1  0  0  0  0
  9  4  2  0  0  0  0
 10 21  1  0  0  0  0
 11 10  3  0  0  0  0
 12  1  2  0  0  0  0
 13  1  2  0  0  0  0
 14 20  2  0  0  0  0
 15  1  1  0  0  0  0
 16  6  2  0  0  0  0
 17  8  1  0  0  0  0
 18  8  2  0  0  0  0
 19 17  2  0  0  0  0
 19 14  1  0  0  0  0
 20 18  1  0  0  0  0
 21 15  1  0  0  0  0
 22  9  1  0  0  0  0
M  END
> <CdId>
3019

> <Mol Weight>
319.336

> <Formula>
C14H13N3O4S

> <Click_ID>
CLK040C03 __ __ 

$$$$
