CLK020_F06
 OpenBabel03181419432D

 19 20  0  0  0  0  0  0  0  0999 V2000
    2.4095    1.4521    0.0000 C   0  0  0  0  0  0  0  0  0  0  0  0
    1.7041    1.8643    0.0000 N   0  0  0  0  0  0  0  0  0  0  0  0
    3.1333    1.8643    0.0000 C   0  0  0  0  0  0  0  0  0  0  0  0
    0.4031    2.0293    0.0000 C   0  0  0  0  0  0  0  0  0  0  0  0
    4.5625    1.8643    0.0000 C   0  0  0  0  0  0  0  0  0  0  0  0
    3.8479    1.4521    0.0000 C   0  0  0  0  0  0  0  0  0  0  0  0
   -0.1740    2.6110    0.0000 C   0  0  0  0  0  0  0  0  0  0  0  0
    0.9895    1.4521    0.0000 C   0  0  0  0  0  0  0  0  0  0  0  0
    4.5625    2.6889    0.0000 C   0  0  0  0  0  0  0  0  0  0  0  0
    5.3458    1.6032    0.0000 O   0  0  0  0  0  0  0  0  0  0  0  0
    5.3458    2.9362    0.0000 O   0  0  0  0  0  0  0  0  0  0  0  0
    5.8314    2.2766    0.0000 C   0  0  0  0  0  0  0  0  0  0  0  0
    2.4095    0.6275    0.0000 O   0  0  0  0  0  0  0  0  0  0  0  0
    3.1333    2.6889    0.0000 C   0  0  0  0  0  0  0  0  0  0  0  0
    3.8479    3.1012    0.0000 C   0  0  0  0  0  0  0  0  0  0  0  0
    0.3573    0.9161    0.0000 C   0  0  0  0  0  0  0  0  0  0  0  0
    1.4613    0.7696    0.0000 C   0  0  0  0  0  0  0  0  0  0  0  0
   -0.4214    1.1956    0.0000 C   0  0  0  0  0  0  0  0  0  0  0  0
    1.1131    0.0229    0.0000 C   0  0  0  0  0  0  0  0  0  0  0  0
  2  1  1  0  0  0  0
  3  1  1  0  0  0  0
  4  8  1  0  0  0  0
  5  6  2  0  0  0  0
  6  3  1  0  0  0  0
  7  4  3  0  0  0  0
  8  2  1  0  0  0  0
  9 15  2  0  0  0  0
  9  5  1  0  0  0  0
 10  5  1  0  0  0  0
 11  9  1  0  0  0  0
 11 12  1  0  0  0  0
 12 10  1  0  0  0  0
 13  1  2  0  0  0  0
 14  3  2  0  0  0  0
 15 14  1  0  0  0  0
 16  8  1  0  0  0  0
 17  8  1  0  0  0  0
 18 16  1  0  0  0  0
 19 17  1  0  0  0  0
M  END
> <CdId>
1531

> <Mol Weight>
259.3004

> <Formula>
C15H17NO3

> <Click_ID>
CLK020_F06 __ __ 

$$$$
