CLK039D11
 OpenBabel03181419432D

 18 19  0  0  0  0  0  0  0  0999 V2000
    0.2167   -0.4667    0.0000 C   0  0  0  0  0  0  0  0  0  0  0  0
    0.7000   -1.1375    0.0000 N   0  0  0  0  0  0  0  0  0  0  0  0
    0.7000    0.2000    0.0000 N   0  0  0  0  0  0  0  0  0  0  0  0
    1.4875   -0.8792    0.0000 C   0  0  0  0  0  0  0  0  0  0  0  0
    1.4875   -0.0542    0.0000 C   0  0  0  0  0  0  0  0  0  0  0  0
   -3.4958    1.6750    0.0000 C   0  0  0  0  0  0  0  0  0  0  0  0
   -3.9083    2.3917    0.0000 C   0  0  0  0  0  0  0  0  0  0  0  0
   -0.6083   -0.4667    0.0000 S   0  0  0  0  0  0  0  0  0  0  0  0
   -1.8458    0.2458    0.0000 C   0  0  0  0  0  0  0  0  0  0  0  0
    2.2000   -1.2917    0.0000 C   0  0  0  0  0  0  0  0  0  0  0  0
   -2.2583   -0.4667    0.0000 O   0  0  0  0  0  0  0  0  0  0  0  0
    2.2000    0.3583    0.0000 C   0  0  0  0  0  0  0  0  0  0  0  0
   -1.0208    0.2458    0.0000 C   0  0  0  0  0  0  0  0  0  0  0  0
   -2.2583    0.9625    0.0000 N   0  0  0  0  0  0  0  0  0  0  0  0
    2.9125   -0.8792    0.0000 C   0  0  0  0  0  0  0  0  0  0  0  0
    2.9125   -0.0542    0.0000 C   0  0  0  0  0  0  0  0  0  0  0  0
   -3.0833    0.9625    0.0000 C   0  0  0  0  0  0  0  0  0  0  0  0
    3.6292   -1.2917    0.0000 C   0  0  0  0  0  0  0  0  0  0  0  0
  2  1  2  0  0  0  0
  3  1  1  0  0  0  0
  4  2  1  0  0  0  0
  4  5  2  0  0  0  0
  5  3  1  0  0  0  0
  6 17  1  0  0  0  0
  7  6  3  0  0  0  0
  8  1  1  0  0  0  0
  9 13  1  0  0  0  0
 10  4  1  0  0  0  0
 11  9  2  0  0  0  0
 12  5  1  0  0  0  0
 13  8  1  0  0  0  0
 14  9  1  0  0  0  0
 15 10  2  0  0  0  0
 16 12  2  0  0  0  0
 16 15  1  0  0  0  0
 17 14  1  0  0  0  0
 18 15  1  0  0  0  0
M  END
> <CdId>
3004

> <Mol Weight>
259.327

> <Formula>
C13H13N3OS

> <Click_ID>
CLK039D11 __ __ 

$$$$
