CLK033_H10
 OpenBabel03181419432D

 24 26  0  0  0  0  0  0  0  0999 V2000
   -4.5802    2.5483    0.0000 C    0  0  0  0  0  0  0  0  0  0  0  0
   -3.8682    2.9688    0.0000 N    0  0  0  0  0  0  0  0  0  0  0  0
   -4.6718    1.7321    0.0000 N    0  0  0  0  0  0  0  0  0  0  0  0
   -5.3172    2.8938    0.0000 S    0  0  0  0  0  0  0  0  0  0  0  0
   -5.4796    1.5697    0.0000 C    0  0  0  0  0  0  0  0  0  0  0  0
   -5.8793    2.2942    0.0000 C    0  0  0  0  0  0  0  0  0  0  0  0
   -3.8682    3.7974    0.0000 C    0  0  0  0  0  0  0  0  0  0  0  0
   -0.2706    5.8377    0.0000 N    0  0  0  0  0  0  0  0  0  0  0  0
   -4.2429    0.3498    0.0000 C    0  0  0  0  0  0  0  0  0  0  0  0
   -4.4178   -0.4539    0.0000 C    0  0  0  0  0  0  0  0  0  0  0  0
   -0.9868    5.4338    0.0000 C    0  0  0  0  0  0  0  0  0  0  0  0
   -3.1562    4.2096    0.0000 C    0  0  0  0  0  0  0  0  0  0  0  0
   -5.9043    0.8702    0.0000 C    0  0  0  0  0  0  0  0  0  0  0  0
   -4.5927    4.2096    0.0000 O    0  0  0  0  0  0  0  0  0  0  0  0
   -4.0556    1.1575    0.0000 C    0  0  0  0  0  0  0  0  0  0  0  0
   -3.1437    5.0258    0.0000 C    0  0  0  0  0  0  0  0  0  0  0  0
   -2.4317    3.8057    0.0000 C    0  0  0  0  0  0  0  0  0  0  0  0
   -1.7071    5.0258    0.0000 C    0  0  0  0  0  0  0  0  0  0  0  0
   -5.5046    0.1457    0.0000 Cl   0  0  0  0  0  0  0  0  0  0  0  0
   -2.4234    5.4380    0.0000 C    0  0  0  0  0  0  0  0  0  0  0  0
   -1.7196    4.2014    0.0000 C    0  0  0  0  0  0  0  0  0  0  0  0
   -6.6997    2.3067    0.0000 C    0  0  0  0  0  0  0  0  0  0  0  0
   -7.1244    1.5989    0.0000 C    0  0  0  0  0  0  0  0  0  0  0  0
   -6.7122    0.8744    0.0000 C    0  0  0  0  0  0  0  0  0  0  0  0
  2  1  2  0  0  0  0
  3  1  1  0  0  0  0
  4  1  1  0  0  0  0
  5  3  1  0  0  0  0
  6  4  1  0  0  0  0
  6  5  2  0  0  0  0
  7  2  1  0  0  0  0
  8 11  3  0  0  0  0
  9 15  1  0  0  0  0
 10  9  3  0  0  0  0
 11 18  1  0  0  0  0
 12  7  1  0  0  0  0
 13  5  1  0  0  0  0
 14  7  2  0  0  0  0
 15  3  1  0  0  0  0
 16 12  1  0  0  0  0
 17 12  2  0  0  0  0
 18 21  2  0  0  0  0
 18 20  1  0  0  0  0
 19 13  1  0  0  0  0
 20 16  2  0  0  0  0
 21 17  1  0  0  0  0
 22  6  1  0  0  0  0
 23 22  2  0  0  0  0
 24 13  2  0  0  0  0
 24 23  1  0  0  0  0
M  END
> <CdId>
2564

> <Mol Weight>
351.81

> <Formula>
C18H10ClN3OS

> <Click_ID>
CLK033_H10 __ __ 

$$$$
