CLK009_H02
 OpenBabel03181419432D

 13 13  0  0  0  0  0  0  0  0999 V2000
   -1.5910   -0.1805    0.0000 C   0  0  0  0  0  0  0  0  0  0  0  0
   -2.1656    0.1068    0.0000 C   0  0  0  0  0  0  0  0  0  0  0  0
   -0.5266   -0.1584    0.0000 N   0  0  0  0  0  0  0  0  0  0  0  0
   -1.1159    0.1289    0.0000 C   0  0  3  0  0  0  0  0  0  0  0  0
   -0.0294    0.1289    0.0000 C   0  0  0  0  0  0  0  0  0  0  0  0
    0.6335   -0.1768    0.0000 C   0  0  0  0  0  0  0  0  0  0  0  0
   -1.7236    1.0165    0.0000 O   0  0  0  0  0  0  0  0  0  0  0  0
   -1.1159    0.7476    0.0000 C   0  0  0  0  0  0  0  0  0  0  0  0
    0.6335   -1.0054    0.0000 C   0  0  0  0  0  0  0  0  0  0  0  0
    1.3517    0.2394    0.0000 C   0  0  0  0  0  0  0  0  0  0  0  0
    1.3517   -1.4180    0.0000 C   0  0  0  0  0  0  0  0  0  0  0  0
    2.0661   -0.1768    0.0000 C   0  0  0  0  0  0  0  0  0  0  0  0
    2.0661   -1.0054    0.0000 C   0  0  0  0  0  0  0  0  0  0  0  0
  2  1  3  0  0  0  0
  3  4  1  0  0  0  0
  4  1  1  0  0  0  0
  5  3  1  0  0  0  0
  6  5  1  0  0  0  0
  7  8  1  0  0  0  0
  8  4  1  0  0  0  0
  9  6  1  0  0  0  0
 10  6  2  0  0  0  0
 11  9  2  0  0  0  0
 12 10  1  0  0  0  0
 13 12  2  0  0  0  0
 13 11  1  0  0  0  0
M  END
> <CdId>
667

> <Mol Weight>
175.227

> <Formula>
C11H13NO

> <Click_ID>
CLK009_H02 __ __ 

$$$$
