CLK012_C06
 OpenBabel03181419432D

 25 27  0  0  0  0  0  0  0  0999 V2000
    5.3220   -1.0013    0.0000 N   0  0  0  0  0  0  0  0  0  0  0  0
    5.1891   -1.8197    0.0000 C   0  0  0  0  0  0  0  0  0  0  0  0
    4.5867   -0.6274    0.0000 C   0  0  0  0  0  0  0  0  0  0  0  0
    4.0009   -1.2090    0.0000 C   0  0  0  0  0  0  0  0  0  0  0  0
    4.3665   -1.9485    0.0000 S   0  0  0  0  0  0  0  0  0  0  0  0
    3.1824   -1.0761    0.0000 C   0  0  0  0  0  0  0  0  0  0  0  0
    6.0491   -0.6274    0.0000 C   0  0  0  0  0  0  0  0  0  0  0  0
    5.7707   -2.4055    0.0000 S   0  0  0  0  0  0  0  0  0  0  0  0
    0.8642   -5.0645    0.0000 C   0  0  0  0  0  0  0  0  0  0  0  0
    0.3407   -5.7001    0.0000 C   0  0  0  0  0  0  0  0  0  0  0  0
    4.4538    0.1870    0.0000 O   0  0  0  0  0  0  0  0  0  0  0  0
    8.1555   -1.1633    0.0000 N   0  0  0  0  0  0  0  0  0  0  0  0
    6.7429   -1.0843    0.0000 C   0  0  0  0  0  0  0  0  0  0  0  0
    2.6590   -1.7242    0.0000 C   0  0  0  0  0  0  0  0  0  0  0  0
    1.6120   -3.0080    0.0000 C   0  0  0  0  0  0  0  0  0  0  0  0
    2.9456   -2.4928    0.0000 C   0  0  0  0  0  0  0  0  0  0  0  0
    1.8364   -1.5871    0.0000 C   0  0  0  0  0  0  0  0  0  0  0  0
    2.4304   -3.1326    0.0000 C   0  0  0  0  0  0  0  0  0  0  0  0
    1.3129   -2.2227    0.0000 C   0  0  0  0  0  0  0  0  0  0  0  0
    7.4700   -0.7104    0.0000 C   0  0  0  0  0  0  0  0  0  0  0  0
    1.3752   -4.4164    0.0000 C   0  0  0  0  0  0  0  0  0  0  0  0
    1.0885   -3.6519    0.0000 O   0  0  0  0  0  0  0  0  0  0  0  0
    8.1139   -1.9859    0.0000 C   0  0  0  0  0  0  0  0  0  0  0  0
    6.6930   -1.8987    0.0000 C   0  0  0  0  0  0  0  0  0  0  0  0
    7.3786   -2.3474    0.0000 C   0  0  0  0  0  0  0  0  0  0  0  0
  2  1  1  0  0  0  0
  3  1  1  0  0  0  0
  4  3  1  0  0  0  0
  5  2  1  0  0  0  0
  5  4  1  0  0  0  0
  6  4  2  0  0  0  0
  7  1  1  0  0  0  0
  8  2  2  0  0  0  0
  9 21  1  0  0  0  0
 10  9  3  0  0  0  0
 11  3  2  0  0  0  0
 12 20  2  0  0  0  0
 13  7  1  0  0  0  0
 14  6  1  0  0  0  0
 15 19  2  0  0  0  0
 15 18  1  0  0  0  0
 16 14  1  0  0  0  0
 17 14  2  0  0  0  0
 18 16  2  0  0  0  0
 19 17  1  0  0  0  0
 20 13  1  0  0  0  0
 21 22  1  0  0  0  0
 22 15  1  0  0  0  0
 23 25  2  0  0  0  0
 23 12  1  0  0  0  0
 24 13  2  0  0  0  0
 25 24  1  0  0  0  0
M  END
> <CdId>
861

> <Mol Weight>
366.457

> <Formula>
C19H14N2O2S2

> <Click_ID>
CLK012_C06 __ __ 

$$$$
