CLK014_A05
 OpenBabel03181419432D

 27 29  0  0  0  0  0  0  0  0999 V2000
    1.9917   -1.4625    0.0000 N   0  0  0  0  0  0  0  0  0  0  0  0
    5.9500   -2.3042    0.0000 N   0  0  0  0  0  0  0  0  0  0  0  0
    5.4000   -2.9125    0.0000 C   0  0  0  0  0  0  0  0  0  0  0  0
    4.7292   -1.7542    0.0000 C   0  0  0  0  0  0  0  0  0  0  0  0
    5.5375   -1.5875    0.0000 C   0  0  0  0  0  0  0  0  0  0  0  0
    3.3292   -1.4542    0.0000 C   0  0  0  0  0  0  0  0  0  0  0  0
    2.2500   -2.2417    0.0000 C   0  0  0  0  0  0  0  0  0  0  0  0
    2.6625   -0.9750    0.0000 C   0  0  0  0  0  0  0  0  0  0  0  0
    4.6417   -2.5792    0.0000 S   0  0  0  0  0  0  0  0  0  0  0  0
    4.1167   -1.2042    0.0000 C   0  0  0  0  0  0  0  0  0  0  0  0
    3.0750   -2.2417    0.0000 C   0  0  0  0  0  0  0  0  0  0  0  0
    1.2042   -1.2042    0.0000 C   0  0  0  0  0  0  0  0  0  0  0  0
    7.1000   -3.1500    0.0000 C   0  0  0  0  0  0  0  0  0  0  0  0
    7.9167   -3.2417    0.0000 C   0  0  0  0  0  0  0  0  0  0  0  0
    5.5667   -3.7167    0.0000 O   0  0  0  0  0  0  0  0  0  0  0  0
    5.8750   -0.8375    0.0000 O   0  0  0  0  0  0  0  0  0  0  0  0
    6.7667   -2.3917    0.0000 C   0  0  0  0  0  0  0  0  0  0  0  0
    1.0417   -0.3917    0.0000 C   0  0  0  0  0  0  0  0  0  0  0  0
    0.6000   -1.7542    0.0000 C   0  0  0  0  0  0  0  0  0  0  0  0
    1.7667   -2.9125    0.0000 C   0  0  0  0  0  0  0  0  0  0  0  0
    2.6667   -0.1500    0.0000 C   0  0  0  0  0  0  0  0  0  0  0  0
   -0.3583   -0.6875    0.0000 C   0  0  0  0  0  0  0  0  0  0  0  0
    0.2542   -0.1375    0.0000 C   0  0  0  0  0  0  0  0  0  0  0  0
   -0.1833   -1.4917    0.0000 C   0  0  0  0  0  0  0  0  0  0  0  0
    0.7667   -2.5625    0.0000 C   0  0  0  0  0  0  0  0  0  0  0  0
    1.6542    0.1583    0.0000 C   0  0  0  0  0  0  0  0  0  0  0  0
    0.1542   -3.1125    0.0000 C   0  0  0  0  0  0  0  0  0  0  0  0
  2  5  1  0  0  0  0
  2  3  1  0  0  0  0
  3  9  1  0  0  0  0
  4 10  2  0  0  0  0
  5  4  1  0  0  0  0
  6  8  2  0  0  0  0
  6 11  1  0  0  0  0
  7  1  1  0  0  0  0
  8  1  1  0  0  0  0
  9  4  1  0  0  0  0
 10  6  1  0  0  0  0
 11  7  2  0  0  0  0
 12  1  1  0  0  0  0
 13 17  1  0  0  0  0
 14 13  3  0  0  0  0
 15  3  2  0  0  0  0
 16  5  2  0  0  0  0
 17  2  1  0  0  0  0
 18 12  2  0  0  0  0
 19 12  1  0  0  0  0
 20  7  1  0  0  0  0
 21  8  1  0  0  0  0
 22 24  1  0  0  0  0
 22 23  2  0  0  0  0
 23 18  1  0  0  0  0
 24 19  2  0  0  0  0
 25 19  1  0  0  0  0
 26 18  1  0  0  0  0
 27 25  1  0  0  0  0
M  END
> <CdId>
1000

> <Mol Weight>
378.487

> <Formula>
C22H22N2O2S

> <Click_ID>
CLK014_A05 __ __ 

$$$$
