CLK018_H11
 OpenBabel03181419432D

 31 33  0  0  0  0  0  0  0  0999 V2000
    5.8476   -3.2171    0.0000 N   0  0  0  0  0  0  0  0  0  0  0  0
    4.6194   -2.4930    0.0000 C   0  0  0  0  0  0  0  0  0  0  0  0
    5.4351   -2.5022    0.0000 C   0  0  0  0  0  0  0  0  0  0  0  0
    5.4214   -3.9320    0.0000 C   0  0  0  0  0  0  0  0  0  0  0  0
    4.5965   -3.9182    0.0000 N   0  0  0  0  0  0  0  0  0  0  0  0
    4.1978   -3.1942    0.0000 C   0  0  0  0  0  0  0  0  0  0  0  0
    4.2115   -1.7735    0.0000 C   0  0  0  0  0  0  0  0  0  0  0  0
    6.6724   -3.2217    0.0000 C   0  0  0  0  0  0  0  0  0  0  0  0
    9.1471   -3.2583    0.0000 C   0  0  0  0  0  0  0  0  0  0  0  0
   -0.3300   -2.4197    0.0000 C   0  0  0  0  0  0  0  0  0  0  0  0
    5.8292   -4.6515    0.0000 O   0  0  0  0  0  0  0  0  0  0  0  0
   -0.7515   -3.1254    0.0000 C   0  0  0  0  0  0  0  0  0  0  0  0
    5.8613   -1.7919    0.0000 O   0  0  0  0  0  0  0  0  0  0  0  0
    2.1631   -1.0220    0.0000 C   0  0  0  0  0  0  0  0  0  0  0  0
    3.3729   -3.1896    0.0000 O   0  0  0  0  0  0  0  0  0  0  0  0
    8.3222   -3.2492    0.0000 C   0  0  0  0  0  0  0  0  0  0  0  0
    3.3866   -1.7598    0.0000 C   0  0  0  0  0  0  0  0  0  0  0  0
    2.9880   -1.0357    0.0000 C   0  0  0  0  0  0  0  0  0  0  0  0
    1.7460   -1.7369    0.0000 C   0  0  0  0  0  0  0  0  0  0  0  0
    9.5458   -3.9778    0.0000 O   0  0  0  0  0  0  0  0  0  0  0  0
    7.0940   -2.5205    0.0000 C   0  0  0  0  0  0  0  0  0  0  0  0
    7.0711   -3.9457    0.0000 C   0  0  0  0  0  0  0  0  0  0  0  0
    7.9189   -2.5296    0.0000 C   0  0  0  0  0  0  0  0  0  0  0  0
    7.8960   -3.9595    0.0000 C   0  0  0  0  0  0  0  0  0  0  0  0
    2.1447   -2.4518    0.0000 C   0  0  0  0  0  0  0  0  0  0  0  0
    9.5687   -2.5480    0.0000 O   0  0  0  0  0  0  0  0  0  0  0  0
    2.9696   -2.4655    0.0000 C   0  0  0  0  0  0  0  0  0  0  0  0
    1.7644   -0.3071    0.0000 O   0  0  0  0  0  0  0  0  0  0  0  0
    0.9211   -1.7231    0.0000 O   0  0  0  0  0  0  0  0  0  0  0  0
    0.4949   -2.4334    0.0000 C   0  0  0  0  0  0  0  0  0  0  0  0
    2.1859    0.3987    0.0000 C   0  0  0  0  0  0  0  0  0  0  0  0
  2  3  1  0  0  0  0
  3  1  1  0  0  0  0
  4  1  1  0  0  0  0
  5  4  1  0  0  0  0
  6  5  1  0  0  0  0
  6  2  1  0  0  0  0
  7  2  2  0  0  0  0
  8  1  1  0  0  0  0
  9 16  1  0  0  0  0
 10 30  1  0  0  0  0
 11  4  2  0  0  0  0
 12 10  3  0  0  0  0
 13  3  2  0  0  0  0
 14 18  2  0  0  0  0
 15  6  2  0  0  0  0
 16 24  1  0  0  0  0
 17  7  1  0  0  0  0
 18 17  1  0  0  0  0
 19 25  2  0  0  0  0
 19 14  1  0  0  0  0
 20  9  2  0  0  0  0
 21  8  2  0  0  0  0
 22  8  1  0  0  0  0
 23 21  1  0  0  0  0
 23 16  2  0  0  0  0
 24 22  2  0  0  0  0
 25 27  1  0  0  0  0
 26  9  1  0  0  0  0
 27 17  2  0  0  0  0
 28 14  1  0  0  0  0
 29 19  1  0  0  0  0
 30 29  1  0  0  0  0
 31 28  1  0  0  0  0
M  END
> <CdId>
1396

> <Mol Weight>
420.3716

> <Formula>
C22H16N2O7

> <Click_ID>
CLK018_H11 __ __ 

$$$$
