CLK040E09
 OpenBabel03181419432D

 20 21  0  0  0  0  0  0  0  0999 V2000
    0.3750   -0.9417    0.0000 N   0  0  0  0  0  0  0  0  0  0  0  0
    1.1625   -0.6875    0.0000 C   0  0  0  0  0  0  0  0  0  0  0  0
   -0.1083   -0.2750    0.0000 C   0  0  0  0  0  0  0  0  0  0  0  0
    1.1625    0.1375    0.0000 N   0  0  0  0  0  0  0  0  0  0  0  0
    0.3750    0.3917    0.0000 N   0  0  0  0  0  0  0  0  0  0  0  0
    1.8292   -1.1750    0.0000 C   0  0  0  0  0  0  0  0  0  0  0  0
    2.5833   -0.8375    0.0000 C   0  0  0  0  0  0  0  0  0  0  0  0
   -0.9333   -0.2750    0.0000 S   0  0  0  0  0  0  0  0  0  0  0  0
   -3.8208    1.8667    0.0000 C   0  0  0  0  0  0  0  0  0  0  0  0
    2.7542   -0.0292    0.0000 S   0  0  0  0  0  0  0  0  0  0  0  0
   -4.2333    2.5833    0.0000 C   0  0  0  0  0  0  0  0  0  0  0  0
   -2.1708    0.4375    0.0000 C   0  0  0  0  0  0  0  0  0  0  0  0
    3.5750    0.0542    0.0000 C   0  0  0  0  0  0  0  0  0  0  0  0
    3.2958   -1.2500    0.0000 C   0  0  0  0  0  0  0  0  0  0  0  0
    3.9083   -0.7000    0.0000 C   0  0  0  0  0  0  0  0  0  0  0  0
   -2.5833   -0.2750    0.0000 O   0  0  0  0  0  0  0  0  0  0  0  0
   -1.3458    0.4375    0.0000 C   0  0  0  0  0  0  0  0  0  0  0  0
   -2.5833    1.1542    0.0000 N   0  0  0  0  0  0  0  0  0  0  0  0
    0.1208   -1.7292    0.0000 C   0  0  0  0  0  0  0  0  0  0  0  0
   -3.4083    1.1542    0.0000 C   0  0  0  0  0  0  0  0  0  0  0  0
  2  1  1  0  0  0  0
  3  1  1  0  0  0  0
  4  2  2  0  0  0  0
  5  3  2  0  0  0  0
  5  4  1  0  0  0  0
  6  2  1  0  0  0  0
  7  6  1  0  0  0  0
  8  3  1  0  0  0  0
  9 20  1  0  0  0  0
 10  7  1  0  0  0  0
 11  9  3  0  0  0  0
 12 17  1  0  0  0  0
 13 10  1  0  0  0  0
 13 15  2  0  0  0  0
 14  7  2  0  0  0  0
 15 14  1  0  0  0  0
 16 12  2  0  0  0  0
 17  8  1  0  0  0  0
 18 12  1  0  0  0  0
 19  1  1  0  0  0  0
 20 18  1  0  0  0  0
M  END
> <CdId>
3069

> <Mol Weight>
306.406

> <Formula>
C13H14N4OS2

> <Click_ID>
CLK040E09 __ __ 

$$$$
