CLK013_E07
 OpenBabel03181419432D

 31 33  0  0  0  0  0  0  0  0999 V2000
    1.5863   -0.8269    0.0000 N   0  0  0  0  0  0  0  0  0  0  0  0
    1.8478   -1.6243    0.0000 C   0  0  0  0  0  0  0  0  0  0  0  0
    2.2655   -0.3333    0.0000 C   0  0  0  0  0  0  0  0  0  0  0  0
    2.9405   -0.8269    0.0000 C   0  0  0  0  0  0  0  0  0  0  0  0
    2.6831   -1.6243    0.0000 S   0  0  0  0  0  0  0  0  0  0  0  0
    3.7378   -0.5695    0.0000 C   0  0  0  0  0  0  0  0  0  0  0  0
    4.2821    1.8562    0.0000 C   0  0  0  0  0  0  0  0  0  0  0  0
    3.4847    1.5947    0.0000 C   0  0  0  0  0  0  0  0  0  0  0  0
    3.9150    0.2362    0.0000 C   0  0  0  0  0  0  0  0  0  0  0  0
    4.8896    1.2993    0.0000 C   0  0  0  0  0  0  0  0  0  0  0  0
    4.4550    2.6578    0.0000 O   0  0  0  0  0  0  0  0  0  0  0  0
    0.6202    0.2489    0.0000 C   0  0  0  0  0  0  0  0  0  0  0  0
    0.3966    1.0589    0.0000 C   0  0  0  0  0  0  0  0  0  0  0  0
    1.3542   -2.2950    0.0000 O   0  0  0  0  0  0  0  0  0  0  0  0
    2.2571    0.5020    0.0000 O   0  0  0  0  0  0  0  0  0  0  0  0
    3.3075    0.7931    0.0000 C   0  0  0  0  0  0  0  0  0  0  0  0
    4.7081    0.4767    0.0000 C   0  0  0  0  0  0  0  0  0  0  0  0
    0.7973   -0.5695    0.0000 C   0  0  0  0  0  0  0  0  0  0  0  0
    6.2818    0.9829    0.0000 C   0  0  0  0  0  0  0  0  0  0  0  0
    7.0622    1.2361    0.0000 C   0  0  0  0  0  0  0  0  0  0  0  0
    5.2439    2.9067    0.0000 C   0  0  0  0  0  0  0  0  0  0  0  0
    2.8772    2.1600    0.0000 O   0  0  0  0  0  0  0  0  0  0  0  0
    5.6743    1.5398    0.0000 C   0  0  0  0  0  0  0  0  0  0  0  0
    5.4211    3.7293    0.0000 C   0  0  0  0  0  0  0  0  0  0  0  0
    2.0883    1.9195    0.0000 C   0  0  0  0  0  0  0  0  0  0  0  0
    6.2058    3.9698    0.0000 C   0  0  0  0  0  0  0  0  0  0  0  0
    4.8094    4.2694    0.0000 C   0  0  0  0  0  0  0  0  0  0  0  0
    1.4850    2.4637    0.0000 C   0  0  0  0  0  0  0  0  0  0  0  0
    6.3830    4.7757    0.0000 C   0  0  0  0  0  0  0  0  0  0  0  0
    4.9908    5.0794    0.0000 C   0  0  0  0  0  0  0  0  0  0  0  0
    5.7713    5.3283    0.0000 C   0  0  0  0  0  0  0  0  0  0  0  0
  2  1  1  0  0  0  0
  3  1  1  0  0  0  0
  4  3  1  0  0  0  0
  5  2  1  0  0  0  0
  5  4  1  0  0  0  0
  6  4  2  0  0  0  0
  7 10  1  0  0  0  0
  8 16  1  0  0  0  0
  8  7  2  0  0  0  0
  9  6  1  0  0  0  0
 10 17  2  0  0  0  0
 11  7  1  0  0  0  0
 12 18  1  0  0  0  0
 13 12  3  0  0  0  0
 14  2  2  0  0  0  0
 15  3  2  0  0  0  0
 16  9  2  0  0  0  0
 17  9  1  0  0  0  0
 18  1  1  0  0  0  0
 19 23  1  0  0  0  0
 20 19  2  0  0  0  0
 21 11  1  0  0  0  0
 22  8  1  0  0  0  0
 23 10  1  0  0  0  0
 24 21  1  0  0  0  0
 25 22  1  0  0  0  0
 26 24  1  0  0  0  0
 27 24  2  0  0  0  0
 28 25  1  0  0  0  0
 29 26  2  0  0  0  0
 30 27  1  0  0  0  0
 31 30  2  0  0  0  0
 31 29  1  0  0  0  0
M  END
> <CdId>
962

> <Mol Weight>
433.519

> <Formula>
C25H23NO4S

> <Click_ID>
CLK013_E07 __ __ 

$$$$
