CLK049H04
 OpenBabel03181419432D

 22 24  0  0  0  0  0  0  0  0999 V2000
    0.5167   -0.5250    0.0000 C   0  0  0  0  0  0  0  0  0  0  0  0
    2.6625    1.5375    0.0000 C   0  0  0  0  0  0  0  0  0  0  0  0
   -2.3417   -0.5250    0.0000 C   0  0  0  0  0  0  0  0  0  0  0  0
    2.6625    2.3625    0.0000 C   0  0  0  0  0  0  0  0  0  0  0  0
    1.2333   -0.9375    0.0000 N   0  0  0  0  0  0  0  0  0  0  0  0
   -2.3417    0.3000    0.0000 C   0  0  0  0  0  0  0  0  0  0  0  0
   -1.6250   -0.9375    0.0000 C   0  0  0  0  0  0  0  0  0  0  0  0
   -3.0542   -0.9375    0.0000 O   0  0  0  0  0  0  0  0  0  0  0  0
   -3.0542    0.7125    0.0000 O   0  0  0  0  0  0  0  0  0  0  0  0
    0.5167    0.3000    0.0000 O   0  0  0  0  0  0  0  0  0  0  0  0
   -0.9125   -0.5250    0.0000 C   0  0  0  0  0  0  0  0  0  0  0  0
    1.9458   -0.5250    0.0000 C   0  0  0  0  0  0  0  0  0  0  0  0
   -0.1958   -0.9375    0.0000 C   0  0  0  0  0  0  0  0  0  0  0  0
   -1.6250    0.7125    0.0000 C   0  0  0  0  0  0  0  0  0  0  0  0
    2.6625    0.7125    0.0000 C   0  0  0  0  0  0  0  0  0  0  0  0
    1.9458    0.3000    0.0000 C   0  0  0  0  0  0  0  0  0  0  0  0
   -0.9125    0.3000    0.0000 C   0  0  0  0  0  0  0  0  0  0  0  0
    3.3750   -0.5250    0.0000 C   0  0  0  0  0  0  0  0  0  0  0  0
   -3.7708   -0.5250    0.0000 C   0  0  0  0  0  0  0  0  0  0  0  0
   -3.7708    0.3000    0.0000 C   0  0  0  0  0  0  0  0  0  0  0  0
    2.6625   -0.9375    0.0000 C   0  0  0  0  0  0  0  0  0  0  0  0
    3.3750    0.3000    0.0000 C   0  0  0  0  0  0  0  0  0  0  0  0
  2 15  1  0  0  0  0
  3  7  1  0  0  0  0
  4  2  3  0  0  0  0
  5  1  1  0  0  0  0
  6  3  2  0  0  0  0
  6 14  1  0  0  0  0
  7 11  2  0  0  0  0
  8  3  1  0  0  0  0
  9  6  1  0  0  0  0
 10  1  2  0  0  0  0
 11 13  1  0  0  0  0
 12  5  1  0  0  0  0
 13  1  1  0  0  0  0
 14 17  2  0  0  0  0
 15 16  1  0  0  0  0
 16 12  2  0  0  0  0
 17 11  1  0  0  0  0
 18 21  2  0  0  0  0
 19  8  1  0  0  0  0
 19 20  1  0  0  0  0
 20  9  1  0  0  0  0
 21 12  1  0  0  0  0
 22 15  2  0  0  0  0
 22 18  1  0  0  0  0
M  END
> <CdId>
3752

> <Mol Weight>
293.3166

> <Formula>
C18H15NO3

> <Click_ID>
CLK049H04 __ __ 

$$$$
