CLK024_E04
 OpenBabel03181419432D

 31 33  0  0  0  0  0  0  0  0999 V2000
   -2.4566    1.4870    0.0000 N    0  0  0  0  0  0  0  0  0  0  0  0
   -2.7222    2.3013    0.0000 C    0  0  0  0  0  0  0  0  0  0  0  0
   -1.6319    1.4870    0.0000 C    0  0  0  0  0  0  0  0  0  0  0  0
   -1.3698    2.2840    0.0000 C    0  0  0  0  0  0  0  0  0  0  0  0
   -2.0322    2.7946    0.0000 S    0  0  0  0  0  0  0  0  0  0  0  0
    3.4295   -2.2322    0.0000 N    0  0  0  0  0  0  0  0  0  0  0  0
    1.2214    0.8246    0.0000 C    0  0  0  0  0  0  0  0  0  0  0  0
   -0.5762    2.5255    0.0000 C    0  0  0  0  0  0  0  0  0  0  0  0
    0.4279    0.5865    0.0000 C    0  0  0  0  0  0  0  0  0  0  0  0
    1.4008    1.6354    0.0000 C    0  0  0  0  0  0  0  0  0  0  0  0
    0.0242    1.9735    0.0000 C    0  0  0  0  0  0  0  0  0  0  0  0
    3.6158   -1.4319    0.0000 C    0  0  0  0  0  0  0  0  0  0  0  0
    1.8182    0.2622    0.0000 O    0  0  0  0  0  0  0  0  0  0  0  0
   -3.7780    0.9040    0.0000 C    0  0  0  0  0  0  0  0  0  0  0  0
   -4.5922    0.9868    0.0000 C    0  0  0  0  0  0  0  0  0  0  0  0
    2.6359   -2.4669    0.0000 O    0  0  0  0  0  0  0  0  0  0  0  0
   -3.5020    2.5601    0.0000 O    0  0  0  0  0  0  0  0  0  0  0  0
    4.0298   -2.7912    0.0000 O    0  0  0  0  0  0  0  0  0  0  0  0
   -0.1725    1.1524    0.0000 C    0  0  0  0  0  0  0  0  0  0  0  0
    0.8005    2.2115    0.0000 C    0  0  0  0  0  0  0  0  0  0  0  0
   -1.1489    0.8142    0.0000 O    0  0  0  0  0  0  0  0  0  0  0  0
   -2.9464    0.8142    0.0000 C    0  0  0  0  0  0  0  0  0  0  0  0
    3.0189   -0.8660    0.0000 C    0  0  0  0  0  0  0  0  0  0  0  0
    0.2381   -0.2105    0.0000 Br   0  0  0  0  0  0  0  0  0  0  0  0
    2.6118    0.5003    0.0000 C    0  0  0  0  0  0  0  0  0  0  0  0
    3.2087   -0.0690    0.0000 C    0  0  0  0  0  0  0  0  0  0  0  0
    2.1943    1.8976    0.0000 O    0  0  0  0  0  0  0  0  0  0  0  0
    4.4059   -1.1903    0.0000 C    0  0  0  0  0  0  0  0  0  0  0  0
    4.5888   -0.3864    0.0000 C    0  0  0  0  0  0  0  0  0  0  0  0
    3.9918    0.1760    0.0000 C    0  0  0  0  0  0  0  0  0  0  0  0
    2.8050    1.3421    0.0000 C    0  0  0  0  0  0  0  0  0  0  0  0
  2  1  1  0  0  0  0
  3  1  1  0  0  0  0
  4  3  1  0  0  0  0
  4  5  1  0  0  0  0
  5  2  1  0  0  0  0
  6 12  1  0  0  0  0
  7 10  1  0  0  0  0
  8  4  2  0  0  0  0
  9 19  1  0  0  0  0
  9  7  2  0  0  0  0
 10 20  2  0  0  0  0
 11  8  1  0  0  0  0
 12 23  1  0  0  0  0
 12 28  2  0  0  0  0
 13  7  1  0  0  0  0
 14 22  1  0  0  0  0
 15 14  3  0  0  0  0
 16  6  1  0  0  0  0
 17  2  2  0  0  0  0
 18  6  2  0  0  0  0
 19 11  2  0  0  0  0
 20 11  1  0  0  0  0
 21  3  2  0  0  0  0
 22  1  1  0  0  0  0
 23 26  2  0  0  0  0
 24  9  1  0  0  0  0
 25 13  1  0  0  0  0
 26 25  1  0  0  0  0
 27 10  1  0  0  0  0
 28 29  1  0  0  0  0
 29 30  2  0  0  0  0
 30 26  1  0  0  0  0
 31 27  1  0  0  0  0
M  END
> <CdId>
1819

> <Mol Weight>
503.323

> <Formula>
C21H15BrN2O6S

> <Click_ID>
CLK024_E04 __ __ 

$$$$
