CLK046G08
 OpenBabel03181419432D

 16 16  0  0  0  0  0  0  0  0999 V2000
   -0.0917    0.9833    0.0000 C   0  0  0  0  0  0  0  0  0  0  0  0
   -0.0917    0.1583    0.0000 C   0  0  0  0  0  0  0  0  0  0  0  0
    1.3375    2.6333    0.0000 C   0  0  0  0  0  0  0  0  0  0  0  0
    2.0500    3.0458    0.0000 C   0  0  0  0  0  0  0  0  0  0  0  0
   -0.8042   -0.2542    0.0000 C   0  0  0  0  0  0  0  0  0  0  0  0
   -0.8042   -1.0792    0.0000 C   0  0  0  0  0  0  0  0  0  0  0  0
   -0.0917   -1.4917    0.0000 C   0  0  0  0  0  0  0  0  0  0  0  0
   -0.8042    1.3958    0.0000 O   0  0  0  0  0  0  0  0  0  0  0  0
    0.6250   -0.2542    0.0000 C   0  0  0  0  0  0  0  0  0  0  0  0
    0.6250   -1.0792    0.0000 C   0  0  0  0  0  0  0  0  0  0  0  0
    0.6250    1.3958    0.0000 N   0  0  0  0  0  0  0  0  0  0  0  0
   -1.5208   -1.4917    0.0000 O   0  0  0  0  0  0  0  0  0  0  0  0
    0.6250    2.2208    0.0000 C   0  0  0  0  0  0  0  0  0  0  0  0
   -0.0917   -2.3167    0.0000 O   0  0  0  0  0  0  0  0  0  0  0  0
   -2.2333   -1.0792    0.0000 C   0  0  0  0  0  0  0  0  0  0  0  0
    0.6250   -2.7292    0.0000 C   0  0  0  0  0  0  0  0  0  0  0  0
  2  1  1  0  0  0  0
  3 13  1  0  0  0  0
  4  3  3  0  0  0  0
  5  2  2  0  0  0  0
  6  5  1  0  0  0  0
  7  6  2  0  0  0  0
  8  1  2  0  0  0  0
  9  2  1  0  0  0  0
 10  9  2  0  0  0  0
 10  7  1  0  0  0  0
 11  1  1  0  0  0  0
 12  6  1  0  0  0  0
 13 11  1  0  0  0  0
 14  7  1  0  0  0  0
 15 12  1  0  0  0  0
 16 14  1  0  0  0  0
M  END
> <CdId>
3543

> <Mol Weight>
219.2365

> <Formula>
C12H13NO3

> <Click_ID>
CLK046G08 __ __ 

$$$$
