CLK050E02
 OpenBabel03181419432D

 17 17  0  0  0  0  0  0  0  0999 V2000
   -1.3042   -0.1208    0.0000 C   0  0  0  0  0  0  0  0  0  0  0  0
    0.8375    0.2917    0.0000 C   0  0  0  0  0  0  0  0  0  0  0  0
    1.5542   -0.1208    0.0000 C   0  0  0  0  0  0  0  0  0  0  0  0
   -3.4500    0.2917    0.0000 C   0  0  0  0  0  0  0  0  0  0  0  0
   -4.1625    0.7042    0.0000 C   0  0  0  0  0  0  0  0  0  0  0  0
   -0.5917    0.2917    0.0000 N   0  0  0  0  0  0  0  0  0  0  0  0
    2.2667    0.2917    0.0000 N   0  0  0  0  0  0  0  0  0  0  0  0
    0.1250   -0.1208    0.0000 C   0  0  0  0  0  0  0  0  0  0  0  0
   -1.3042   -0.9458    0.0000 O   0  0  0  0  0  0  0  0  0  0  0  0
   -2.0208    0.2917    0.0000 N   0  0  0  0  0  0  0  0  0  0  0  0
    1.5542   -0.9458    0.0000 O   0  0  0  0  0  0  0  0  0  0  0  0
   -2.7333   -0.1208    0.0000 C   0  0  0  0  0  0  0  0  0  0  0  0
    0.8375    1.1167    0.0000 C   0  0  0  0  0  0  0  0  0  0  0  0
    2.2667    1.1167    0.0000 C   0  0  0  0  0  0  0  0  0  0  0  0
    2.2667   -1.3583    0.0000 C   0  0  0  0  0  0  0  0  0  0  0  0
    1.5542    1.5292    0.0000 C   0  0  0  0  0  0  0  0  0  0  0  0
    2.2667   -2.1833    0.0000 C   0  0  0  0  0  0  0  0  0  0  0  0
  2  8  1  0  0  0  0
  3  2  2  0  0  0  0
  4 12  1  0  0  0  0
  5  4  3  0  0  0  0
  6  1  1  0  0  0  0
  7  3  1  0  0  0  0
  8  6  1  0  0  0  0
  9  1  2  0  0  0  0
 10  1  1  0  0  0  0
 11  3  1  0  0  0  0
 12 10  1  0  0  0  0
 13  2  1  0  0  0  0
 14  7  2  0  0  0  0
 15 11  1  0  0  0  0
 16 13  2  0  0  0  0
 16 14  1  0  0  0  0
 17 15  1  0  0  0  0
M  END
> <CdId>
3813

> <Mol Weight>
233.2664

> <Formula>
C12H15N3O2

> <Click_ID>
CLK050E02 __ __ 

$$$$
