CLK029_E06
 OpenBabel03181419432D

 28 31  0  0  0  0  0  0  0  0999 V2000
   -4.7393    5.0360    0.0000 C   0  0  0  0  0  0  0  0  0  0  0  0
   -2.6458    5.4069    0.0000 N   0  0  0  0  0  0  0  0  0  0  0  0
   -5.2091    5.6789    0.0000 N   0  0  0  0  0  0  0  0  0  0  0  0
   -5.2091    4.3684    0.0000 N   0  0  0  0  0  0  0  0  0  0  0  0
   -3.9233    4.9866    0.0000 C   0  0  3  0  0  0  0  0  0  0  0  0
   -2.6458    4.5745    0.0000 C   0  0  0  0  0  0  0  0  0  0  0  0
   -2.0029    5.9098    0.0000 C   0  0  0  0  0  0  0  0  0  0  0  0
   -3.4287    5.6542    0.0000 C   0  0  0  0  0  0  0  0  0  0  0  0
   -5.9996    4.6156    0.0000 C   0  0  0  0  0  0  0  0  0  0  0  0
   -5.9996    5.4316    0.0000 C   0  0  0  0  0  0  0  0  0  0  0  0
   -3.4287    4.3189    0.0000 C   0  0  0  0  0  0  0  0  0  0  0  0
   -1.2364    5.6047    0.0000 C   0  0  0  0  0  0  0  0  0  0  0  0
   -5.4894    2.9425    0.0000 C   0  0  0  0  0  0  0  0  0  0  0  0
   -6.0334    2.3243    0.0000 C   0  0  0  0  0  0  0  0  0  0  0  0
   -2.1182    6.7174    0.0000 C   0  0  0  0  0  0  0  0  0  0  0  0
   -1.9699    4.0964    0.0000 O   0  0  0  0  0  0  0  0  0  0  0  0
   -4.9371    3.5771    0.0000 C   0  0  0  0  0  0  0  0  0  0  0  0
   -1.4753    7.2367    0.0000 C   0  0  0  0  0  0  0  0  0  0  0  0
   -0.5934    6.0993    0.0000 C   0  0  0  0  0  0  0  0  0  0  0  0
   -0.7088    6.9236    0.0000 C   0  0  0  0  0  0  0  0  0  0  0  0
   -2.8848    7.0142    0.0000 O   0  0  0  0  0  0  0  0  0  0  0  0
   -6.7010    4.1953    0.0000 C   0  0  0  0  0  0  0  0  0  0  0  0
    0.1731    5.7861    0.0000 O   0  0  0  0  0  0  0  0  0  0  0  0
   -6.7010    5.8520    0.0000 C   0  0  0  0  0  0  0  0  0  0  0  0
   -3.0167    7.8302    0.0000 C   0  0  0  0  0  0  0  0  0  0  0  0
    0.8160    6.2971    0.0000 C   0  0  0  0  0  0  0  0  0  0  0  0
   -7.4181    4.6156    0.0000 C   0  0  0  0  0  0  0  0  0  0  0  0
   -7.4181    5.4316    0.0000 C   0  0  0  0  0  0  0  0  0  0  0  0
  2  8  1  0  0  0  0
  3  1  2  0  0  0  0
  4  1  1  0  0  0  0
  5  1  1  0  0  0  0
  6 11  1  0  0  0  0
  6  2  1  0  0  0  0
  7  2  1  0  0  0  0
  8  5  1  0  0  0  0
  9  4  1  0  0  0  0
  9 10  2  0  0  0  0
 10  3  1  0  0  0  0
 11  5  1  0  0  0  0
 12  7  1  0  0  0  0
 13 17  1  0  0  0  0
 14 13  3  0  0  0  0
 15  7  2  0  0  0  0
 16  6  2  0  0  0  0
 17  4  1  0  0  0  0
 18 15  1  0  0  0  0
 19 12  2  0  0  0  0
 19 20  1  0  0  0  0
 20 18  2  0  0  0  0
 21 15  1  0  0  0  0
 22  9  1  0  0  0  0
 23 19  1  0  0  0  0
 24 10  1  0  0  0  0
 25 21  1  0  0  0  0
 26 23  1  0  0  0  0
 27 22  2  0  0  0  0
 28 24  2  0  0  0  0
 28 27  1  0  0  0  0
M  END
> <CdId>
2210

> <Mol Weight>
375.4204

> <Formula>
C22H21N3O3

> <Click_ID>
CLK029_E06 __ __ 

$$$$
