CLK025_B09
 OpenBabel03181419432D

 35 38  0  0  0  0  0  0  0  0999 V2000
    0.7942   -0.1711    0.0000 C    0  0  0  0  0  0  0  0  0  0  0  0
    0.0684    1.0544    0.0000 C    0  0  0  0  0  0  0  0  0  0  0  0
    1.4823    1.0681    0.0000 N    0  0  0  0  0  0  0  0  0  0  0  0
    0.7668    1.4652    0.0000 C    0  0  0  0  0  0  0  0  0  0  0  0
    1.4960    0.2465    0.0000 C    0  0  0  0  0  0  0  0  0  0  0  0
    0.0753    0.2294    0.0000 C    0  0  3  0  0  0  0  0  0  0  0  0
   -0.6333   -0.1917    0.0000 C    0  0  0  0  0  0  0  0  0  0  0  0
   -2.0506   -1.0373    0.0000 C    0  0  0  0  0  0  0  0  0  0  0  0
    2.1978    1.4926    0.0000 C    0  0  0  0  0  0  0  0  0  0  0  0
   -1.3351   -1.4344    0.0000 C    0  0  0  0  0  0  0  0  0  0  0  0
    0.7942   -0.9894    0.0000 C    0  0  0  0  0  0  0  0  0  0  0  0
   -0.6538    1.4515    0.0000 C    0  0  0  0  0  0  0  0  0  0  0  0
   -2.0643   -0.2054    0.0000 C    0  0  0  0  0  0  0  0  0  0  0  0
   -0.6230   -1.0167    0.0000 C    0  0  0  0  0  0  0  0  0  0  0  0
   -1.3522    0.2157    0.0000 C    0  0  0  0  0  0  0  0  0  0  0  0
    2.1841    2.3176    0.0000 C    0  0  0  0  0  0  0  0  0  0  0  0
   -3.4645   -2.6976    0.0000 C    0  0  0  0  0  0  0  0  0  0  0  0
   -3.4507   -3.5226    0.0000 C    0  0  0  0  0  0  0  0  0  0  0  0
    2.8105    2.7010    0.0000 C    0  0  0  0  0  0  0  0  0  0  0  0
   -1.3659    1.0305    0.0000 O    0  0  0  0  0  0  0  0  0  0  0  0
    0.0822   -1.4207    0.0000 O    0  0  0  0  0  0  0  0  0  0  0  0
    3.5158    2.2902    0.0000 O    0  0  0  0  0  0  0  0  0  0  0  0
    2.2115   -0.1506    0.0000 C    0  0  0  0  0  0  0  0  0  0  0  0
    0.7532    2.2937    0.0000 C    0  0  0  0  0  0  0  0  0  0  0  0
   -1.3214   -2.2594    0.0000 Br   0  0  0  0  0  0  0  0  0  0  0  0
   -2.7626   -1.4583    0.0000 O    0  0  0  0  0  0  0  0  0  0  0  0
   -2.7900    0.1917    0.0000 O    0  0  0  0  0  0  0  0  0  0  0  0
    2.8003    3.5226    0.0000 O    0  0  0  0  0  0  0  0  0  0  0  0
   -2.7489   -2.2834    0.0000 C    0  0  0  0  0  0  0  0  0  0  0  0
   -0.6607    2.2765    0.0000 C    0  0  0  0  0  0  0  0  0  0  0  0
    1.5234   -1.3933    0.0000 C    0  0  0  0  0  0  0  0  0  0  0  0
    2.2251   -0.9825    0.0000 C    0  0  0  0  0  0  0  0  0  0  0  0
    0.0411    2.6873    0.0000 C    0  0  0  0  0  0  0  0  0  0  0  0
   -2.7969    1.0167    0.0000 C    0  0  0  0  0  0  0  0  0  0  0  0
   -3.5192    1.4241    0.0000 C    0  0  0  0  0  0  0  0  0  0  0  0
  2  6  1  0  0  0  0
  3  5  1  0  0  0  0
  3  4  1  0  0  0  0
  4  2  2  0  0  0  0
  5  1  2  0  0  0  0
  6  1  1  0  0  0  0
  7  6  1  0  0  0  0
  8 13  1  0  0  0  0
  8 10  2  0  0  0  0
  9  3  1  0  0  0  0
 10 14  1  0  0  0  0
 11  1  1  0  0  0  0
 12  2  1  0  0  0  0
 13 15  2  0  0  0  0
 14  7  2  0  0  0  0
 15  7  1  0  0  0  0
 16  9  1  0  0  0  0
 17 29  1  0  0  0  0
 18 17  3  0  0  0  0
 19 16  1  0  0  0  0
 20 12  2  0  0  0  0
 21 11  2  0  0  0  0
 22 19  2  0  0  0  0
 23  5  1  0  0  0  0
 23 32  1  0  0  0  0
 24  4  1  0  0  0  0
 25 10  1  0  0  0  0
 26  8  1  0  0  0  0
 27 13  1  0  0  0  0
 28 19  1  0  0  0  0
 29 26  1  0  0  0  0
 30 12  1  0  0  0  0
 31 11  1  0  0  0  0
 32 31  1  0  0  0  0
 33 30  1  0  0  0  0
 33 24  1  0  0  0  0
 34 27  1  0  0  0  0
 35 34  1  0  0  0  0
M  END
> <CdId>
1874

> <Mol Weight>
542.418

> <Formula>
C27H28BrNO6

> <Click_ID>
CLK025_B09 __ __ 

$$$$
