CLK010_H03
 OpenBabel03181419432D

 26 28  0  0  0  0  0  0  0  0999 V2000
    1.5483   -0.7577    0.0000 N   0  0  0  0  0  0  0  0  0  0  0  0
    2.0479   -0.1423    0.0000 C   0  0  0  0  0  0  0  0  0  0  0  0
    2.8221   -0.4367    0.0000 N   0  0  0  0  0  0  0  0  0  0  0  0
   -2.8452    1.7336    0.0000 N   0  3  0  0  0  0  0  0  0  0  0  0
    1.9851   -1.4590    0.0000 C   0  0  0  0  0  0  0  0  0  0  0  0
    0.7180   -0.6981    0.0000 C   0  0  0  0  0  0  0  0  0  0  0  0
    2.7791   -1.2440    0.0000 C   0  0  0  0  0  0  0  0  0  0  0  0
    0.3606    0.0496    0.0000 C   0  0  0  0  0  0  0  0  0  0  0  0
   -2.0214    1.6674    0.0000 C   0  0  0  0  0  0  0  0  0  0  0  0
    2.1869    2.0413    0.0000 C   0  0  0  0  0  0  0  0  0  0  0  0
    1.9685    2.8353    0.0000 C   0  0  0  0  0  0  0  0  0  0  0  0
   -3.2025    2.4681    0.0000 O   0  5  0  0  0  0  0  0  0  0  0  0
   -0.4764    0.1158    0.0000 C   0  0  0  0  0  0  0  0  0  0  0  0
   -3.3018    1.0422    0.0000 O   0  0  0  0  0  0  0  0  0  0  0  0
    1.8296    0.6517    0.0000 S   0  0  0  0  0  0  0  0  0  0  0  0
    0.2515   -1.3895    0.0000 O   0  0  0  0  0  0  0  0  0  0  0  0
   -1.6641    0.9231    0.0000 C   0  0  0  0  0  0  0  0  0  0  0  0
   -0.8337    0.8602    0.0000 C   0  0  0  0  0  0  0  0  0  0  0  0
    2.4053    1.2473    0.0000 C   0  0  0  0  0  0  0  0  0  0  0  0
    1.7700   -2.2365    0.0000 C   0  0  0  0  0  0  0  0  0  0  0  0
    3.3581   -1.8296    0.0000 C   0  0  0  0  0  0  0  0  0  0  0  0
   -1.5483    2.3390    0.0000 C   0  0  0  0  0  0  0  0  0  0  0  0
   -0.7245    2.2729    0.0000 C   0  0  0  0  0  0  0  0  0  0  0  0
   -0.3540    1.5252    0.0000 C   0  0  0  0  0  0  0  0  0  0  0  0
    2.3424   -2.8320    0.0000 C   0  0  0  0  0  0  0  0  0  0  0  0
    3.1397   -2.6203    0.0000 C   0  0  0  0  0  0  0  0  0  0  0  0
  2  1  1  0  0  0  0
  3  2  2  0  0  0  0
  4  9  1  0  0  0  0
  5  1  1  0  0  0  0
  6  1  1  0  0  0  0
  7  5  1  0  0  0  0
  7  3  1  0  0  0  0
  8  6  1  0  0  0  0
  9 17  2  0  0  0  0
 10 19  1  0  0  0  0
 11 10  3  0  0  0  0
 12  4  1  0  0  0  0
 13  8  2  0  0  0  0
 14  4  2  0  0  0  0
 15  2  1  0  0  0  0
 16  6  2  0  0  0  0
 17 18  1  0  0  0  0
 18 13  1  0  0  0  0
 19 15  1  0  0  0  0
 20  5  2  0  0  0  0
 21  7  2  0  0  0  0
 22 23  2  0  0  0  0
 22  9  1  0  0  0  0
 23 24  1  0  0  0  0
 24 18  2  0  0  0  0
 25 20  1  0  0  0  0
 26 25  2  0  0  0  0
 26 21  1  0  0  0  0
M  END
> <CdId>
748

> <Mol Weight>
363.39

> <Formula>
C19H13N3O3S

> <Click_ID>
CLK010_H03 __ __ 

$$$$
