CLK046E10
 OpenBabel03181419432D

 22 23  0  0  0  0  0  0  0  0999 V2000
   -0.2957    0.5165    0.0000 N   0  0  0  0  0  0  0  0  0  0  0  0
    0.4873    0.2582    0.0000 C   0  0  0  0  0  0  0  0  0  0  0  0
   -0.7830   -0.1541    0.0000 C   0  0  0  0  0  0  0  0  0  0  0  0
    0.4873   -0.5665    0.0000 N   0  0  0  0  0  0  0  0  0  0  0  0
   -0.2957   -0.8204    0.0000 C   0  0  3  0  0  0  0  0  0  0  0  0
   -0.5540    1.2994    0.0000 C   0  0  0  0  0  0  0  0  0  0  0  0
   -0.0667   -1.6118    0.0000 C   0  0  0  0  0  0  0  0  0  0  0  0
    0.0417    4.0899    0.0000 C   0  0  0  0  0  0  0  0  0  0  0  0
   -0.2124    4.8729    0.0000 C   0  0  0  0  0  0  0  0  0  0  0  0
    0.0000    1.9117    0.0000 C   0  0  0  0  0  0  0  0  0  0  0  0
    1.1537    0.7455    0.0000 O   0  0  0  0  0  0  0  0  0  0  0  0
   -1.6076   -0.1541    0.0000 O   0  0  0  0  0  0  0  0  0  0  0  0
    0.8079    1.7409    0.0000 O   0  0  0  0  0  0  0  0  0  0  0  0
    0.7372   -1.8034    0.0000 C   0  0  0  0  0  0  0  0  0  0  0  0
   -0.6330   -2.2073    0.0000 C   0  0  0  0  0  0  0  0  0  0  0  0
   -0.2541    2.6946    0.0000 N   0  0  0  0  0  0  0  0  0  0  0  0
   -0.9496   -1.3244    0.0000 C   0  0  0  0  0  0  0  0  0  0  0  0
    0.9704   -2.5947    0.0000 C   0  0  0  0  0  0  0  0  0  0  0  0
   -0.3998   -2.9987    0.0000 C   0  0  0  0  0  0  0  0  0  0  0  0
    0.3998   -3.1944    0.0000 C   0  0  0  0  0  0  0  0  0  0  0  0
    0.2957    3.3111    0.0000 C   0  0  0  0  0  0  0  0  0  0  0  0
    0.6330   -3.9858    0.0000 C   0  0  0  0  0  0  0  0  0  0  0  0
  2  1  1  0  0  0  0
  3  1  1  0  0  0  0
  4  2  1  0  0  0  0
  4  5  1  0  0  0  0
  5  3  1  0  0  0  0
  6  1  1  0  0  0  0
  7  5  1  0  0  0  0
  8 21  1  0  0  0  0
  9  8  3  0  0  0  0
 10  6  1  0  0  0  0
 11  2  2  0  0  0  0
 12  3  2  0  0  0  0
 13 10  2  0  0  0  0
 14  7  1  0  0  0  0
 15  7  2  0  0  0  0
 16 10  1  0  0  0  0
 17  5  1  0  0  0  0
 18 14  2  0  0  0  0
 18 20  1  0  0  0  0
 19 15  1  0  0  0  0
 20 19  2  0  0  0  0
 21 16  1  0  0  0  0
 22 20  1  0  0  0  0
M  END
> <CdId>
3557

> <Mol Weight>
299.3245

> <Formula>
C16H17N3O3

> <Click_ID>
CLK046E10 __ __ 

$$$$
