CLK040D06
 OpenBabel03181419432D

 18 18  0  0  0  0  0  0  0  0999 V2000
    0.7917   -1.4167    0.0000 C   0  0  0  0  0  0  0  0  0  0  0  0
    0.0792   -0.1792    0.0000 N   0  0  0  0  0  0  0  0  0  0  0  0
    0.7917   -2.2417    0.0000 C   0  0  0  0  0  0  0  0  0  0  0  0
    0.0792   -1.0042    0.0000 C   0  0  0  0  0  0  0  0  0  0  0  0
    0.7917    0.2333    0.0000 C   0  0  0  0  0  0  0  0  0  0  0  0
    1.5042   -1.0042    0.0000 C   0  0  0  0  0  0  0  0  0  0  0  0
    1.5042   -0.1792    0.0000 C   0  0  0  0  0  0  0  0  0  0  0  0
   -0.6375    0.2333    0.0000 C   0  0  0  0  0  0  0  0  0  0  0  0
   -2.0667    2.7083    0.0000 C   0  0  0  0  0  0  0  0  0  0  0  0
   -2.7792    3.1208    0.0000 C   0  0  0  0  0  0  0  0  0  0  0  0
   -0.6375    1.0583    0.0000 C   0  0  0  0  0  0  0  0  0  0  0  0
    0.7917    1.0583    0.0000 O   0  0  0  0  0  0  0  0  0  0  0  0
    0.0792    1.4708    0.0000 O   0  0  0  0  0  0  0  0  0  0  0  0
    1.6167   -2.2417    0.0000 F   0  0  0  0  0  0  0  0  0  0  0  0
   -0.0333   -2.2417    0.0000 F   0  0  0  0  0  0  0  0  0  0  0  0
    0.7917   -3.0667    0.0000 F   0  0  0  0  0  0  0  0  0  0  0  0
   -1.3500    1.4708    0.0000 N   0  0  0  0  0  0  0  0  0  0  0  0
   -1.3500    2.2958    0.0000 C   0  0  0  0  0  0  0  0  0  0  0  0
  2  4  1  0  0  0  0
  3  1  1  0  0  0  0
  4  1  2  0  0  0  0
  5  2  1  0  0  0  0
  5  7  1  0  0  0  0
  6  1  1  0  0  0  0
  7  6  2  0  0  0  0
  8  2  1  0  0  0  0
  9 18  1  0  0  0  0
 10  9  3  0  0  0  0
 11  8  1  0  0  0  0
 12  5  2  0  0  0  0
 13 11  2  0  0  0  0
 14  3  1  0  0  0  0
 15  3  1  0  0  0  0
 16  3  1  0  0  0  0
 17 11  1  0  0  0  0
 18 17  1  0  0  0  0
M  END
> <CdId>
3044

> <Mol Weight>
258.1966

> <Formula>
C11H9F3N2O2

> <Click_ID>
CLK040D06 __ __ 

$$$$
