CLK032_D08
 OpenBabel03181419432D

 25 27  0  0  0  0  0  0  0  0999 V2000
   -1.8997    2.1628    0.0000 C   0  0  0  0  0  0  0  0  0  0  0  0
   -1.0730    2.1628    0.0000 N   0  0  0  0  0  0  0  0  0  0  0  0
   -2.3799    2.8266    0.0000 N   0  0  0  0  0  0  0  0  0  0  0  0
   -2.3799    1.4864    0.0000 S   0  0  0  0  0  0  0  0  0  0  0  0
   -3.1691    2.5636    0.0000 C   0  0  0  0  0  0  0  0  0  0  0  0
    2.6346    1.4613    0.0000 N   0  3  0  0  0  0  0  0  0  0  0  0
   -3.1648    1.7369    0.0000 C   0  0  0  0  0  0  0  0  0  0  0  0
   -0.6597    1.4488    0.0000 C   0  0  0  0  0  0  0  0  0  0  0  0
   -1.3235    3.7786    0.0000 C   0  0  0  0  0  0  0  0  0  0  0  0
    1.8079    1.4613    0.0000 C   0  0  0  0  0  0  0  0  0  0  0  0
   -0.5219    3.9540    0.0000 C   0  0  0  0  0  0  0  0  0  0  0  0
    3.0480    0.7473    0.0000 O   0  5  0  0  0  0  0  0  0  0  0  0
    0.1670    1.4488    0.0000 C   0  0  0  0  0  0  0  0  0  0  0  0
    3.0480    2.1795    0.0000 O   0  0  0  0  0  0  0  0  0  0  0  0
   -3.8830    2.9895    0.0000 C   0  0  0  0  0  0  0  0  0  0  0  0
   -1.0647    0.7265    0.0000 O   0  0  0  0  0  0  0  0  0  0  0  0
   -2.1294    3.6158    0.0000 C   0  0  0  0  0  0  0  0  0  0  0  0
    1.4029    0.7390    0.0000 C   0  0  0  0  0  0  0  0  0  0  0  0
    1.3946    2.1628    0.0000 C   0  0  0  0  0  0  0  0  0  0  0  0
    0.5804    0.7348    0.0000 C   0  0  0  0  0  0  0  0  0  0  0  0
    0.5804    2.1628    0.0000 C   0  0  0  0  0  0  0  0  0  0  0  0
   -3.8830    3.8079    0.0000 F   0  0  0  0  0  0  0  0  0  0  0  0
   -3.8830    1.3277    0.0000 C   0  0  0  0  0  0  0  0  0  0  0  0
   -4.5928    1.7369    0.0000 C   0  0  0  0  0  0  0  0  0  0  0  0
   -4.5928    2.5636    0.0000 C   0  0  0  0  0  0  0  0  0  0  0  0
  2  1  2  0  0  0  0
  3  1  1  0  0  0  0
  4  1  1  0  0  0  0
  5  3  1  0  0  0  0
  6 10  1  0  0  0  0
  7  4  1  0  0  0  0
  7  5  2  0  0  0  0
  8  2  1  0  0  0  0
  9 17  1  0  0  0  0
 10 19  1  0  0  0  0
 10 18  2  0  0  0  0
 11  9  3  0  0  0  0
 12  6  1  0  0  0  0
 13  8  1  0  0  0  0
 14  6  2  0  0  0  0
 15  5  1  0  0  0  0
 16  8  2  0  0  0  0
 17  3  1  0  0  0  0
 18 20  1  0  0  0  0
 19 21  2  0  0  0  0
 20 13  2  0  0  0  0
 21 13  1  0  0  0  0
 22 15  1  0  0  0  0
 23  7  1  0  0  0  0
 24 23  2  0  0  0  0
 24 25  1  0  0  0  0
 25 15  2  0  0  0  0
M  END
> <CdId>
2442

> <Mol Weight>
355.343

> <Formula>
C17H10FN3O3S

> <Click_ID>
CLK032_D08 __ __ 

$$$$
