CLK003_C02
 OpenBabel03181419432D

 36 39  0  0  0  0  0  0  0  0999 V2000
    0.1594    0.0076    0.0000 C   0  0  3  0  0  0  0  0  0  0  0  0
    0.1594   -0.8199    0.0000 C   0  0  0  0  0  0  0  0  0  0  0  0
    0.8694    0.4100    0.0000 C   0  0  0  0  0  0  0  0  0  0  0  0
   -0.5580    0.4176    0.0000 C   0  0  0  0  0  0  0  0  0  0  0  0
    0.8694   -1.2338    0.0000 C   0  0  0  0  0  0  0  0  0  0  0  0
   -0.5580   -1.2262    0.0000 C   0  0  0  0  0  0  0  0  0  0  0  0
    1.5754   -0.0037    0.0000 C   0  0  0  0  0  0  0  0  0  0  0  0
    0.8694    1.2338    0.0000 C   0  0  0  0  0  0  0  0  0  0  0  0
   -1.2717    0.0076    0.0000 C   0  0  0  0  0  0  0  0  0  0  0  0
   -0.5580    1.2451    0.0000 C   0  0  0  0  0  0  0  0  0  0  0  0
    1.5754   -0.8199    0.0000 N   0  0  0  0  0  0  0  0  0  0  0  0
    0.8694   -2.0576    0.0000 C   0  0  0  0  0  0  0  0  0  0  0  0
   -0.5580   -2.0576    0.0000 C   0  0  0  0  0  0  0  0  0  0  0  0
   -1.2755   -0.8162    0.0000 O   0  0  0  0  0  0  0  0  0  0  0  0
    2.2929    0.4176    0.0000 C   0  0  0  0  0  0  0  0  0  0  0  0
    1.5754    1.6437    0.0000 C   0  0  0  0  0  0  0  0  0  0  0  0
    0.1557    1.6589    0.0000 O   0  0  0  0  0  0  0  0  0  0  0  0
   -1.9892    0.4176    0.0000 C   0  0  0  0  0  0  0  0  0  0  0  0
   -1.2717    1.6589    0.0000 C   0  0  0  0  0  0  0  0  0  0  0  0
    2.2929   -1.2338    0.0000 C   0  0  0  0  0  0  0  0  0  0  0  0
    0.1557   -2.4713    0.0000 C   0  0  0  0  0  0  0  0  0  0  0  0
    2.2929    1.2299    0.0000 C   0  0  0  0  0  0  0  0  0  0  0  0
   -1.9892    1.2451    0.0000 C   0  0  0  0  0  0  0  0  0  0  0  0
   -2.7029    0.0076    0.0000 O   0  0  0  0  0  0  0  0  0  0  0  0
    2.3005   -2.0576    0.0000 C   0  0  0  0  0  0  0  0  0  0  0  0
    0.1557   -3.3064    0.0000 C   0  0  0  0  0  0  0  0  0  0  0  0
   -0.6795   -2.4713    0.0000 C   0  0  0  0  0  0  0  0  0  0  0  0
    3.0180    1.6589    0.0000 C   0  0  0  0  0  0  0  0  0  0  0  0
    1.8753    1.9512    0.0000 C   0  0  0  0  0  0  0  0  0  0  0  0
   -2.7029    1.6476    0.0000 O   0  0  0  0  0  0  0  0  0  0  0  0
   -3.4203    0.4176    0.0000 C   0  0  0  0  0  0  0  0  0  0  0  0
    1.5868   -2.4713    0.0000 O   0  0  0  0  0  0  0  0  0  0  0  0
   -2.7029    2.4751    0.0000 C   0  0  0  0  0  0  0  0  0  0  0  0
    1.5868   -3.2951    0.0000 C   0  0  0  0  0  0  0  0  0  0  0  0
   -1.9892    2.8851    0.0000 C   0  0  0  0  0  0  0  0  0  0  0  0
   -1.9892    3.7126    0.0000 C   0  0  0  0  0  0  0  0  0  0  0  0
  1  2  1  0  0  0  0
  1  3  1  0  0  0  0
  1  4  1  0  0  0  0
  2  5  2  0  0  0  0
  2  6  1  0  0  0  0
  3  7  2  0  0  0  0
  3  8  1  0  0  0  0
  4  9  1  0  0  0  0
  4 10  2  0  0  0  0
  5 11  1  0  0  0  0
  5 12  1  0  0  0  0
  6 13  1  0  0  0  0
  6 14  2  0  0  0  0
  7 15  1  0  0  0  0
  7 11  1  0  0  0  0
  8 16  1  0  0  0  0
  8 17  2  0  0  0  0
  9 18  2  0  0  0  0
 10 19  1  0  0  0  0
 11 20  1  0  0  0  0
 12 21  1  0  0  0  0
 13 21  1  0  0  0  0
 15 22  1  0  0  0  0
 16 22  1  0  0  0  0
 18 23  1  0  0  0  0
 18 24  1  0  0  0  0
 19 23  2  0  0  0  0
 20 25  1  0  0  0  0
 21 26  1  0  0  0  0
 21 27  1  0  0  0  0
 22 28  1  0  0  0  0
 22 29  1  0  0  0  0
 23 30  1  0  0  0  0
 24 31  1  0  0  0  0
 25 32  1  0  0  0  0
 30 33  1  0  0  0  0
 32 34  1  0  0  0  0
 33 35  1  0  0  0  0
 35 36  3  0  0  0  0
M  END
> <CdId>
181

> <Mol Weight>
491.6185

> <Formula>
C30H37NO5

> <Click_ID>
CLK003_C02 __ __ 

$$$$
