CLK009_D06
 OpenBabel03181419432D

 50 56  0  0  0  0  0  0  0  0999 V2000
    2.3158    0.7816    0.0000 N   0  0  0  0  0  0  0  0  0  0  0  0
   -4.1510   -0.9953    0.0000 N   0  0  0  0  0  0  0  0  0  0  0  0
    1.8255    1.4225    0.0000 C   0  0  0  0  0  0  0  0  0  0  0  0
   -3.8985   -0.2379    0.0000 C   0  0  0  0  0  0  0  0  0  0  0  0
    1.8255    0.1165    0.0000 C   0  0  0  0  0  0  0  0  0  0  0  0
   -5.0686   -0.9953    0.0000 C   0  0  0  0  0  0  0  0  0  0  0  0
   -4.5685    0.2718    0.0000 C   0  0  0  0  0  0  0  0  0  0  0  0
    1.0341    1.1798    0.0000 C   0  0  0  0  0  0  0  0  0  0  0  0
   -5.2676   -0.1602    0.0000 C   0  0  0  0  0  0  0  0  0  0  0  0
    1.0341    0.3496    0.0000 C   0  0  0  0  0  0  0  0  0  0  0  0
    3.1218    0.7816    0.0000 C   0  0  0  0  0  0  0  0  0  0  0  0
   -3.6655   -1.6362    0.0000 C   0  0  0  0  0  0  0  0  0  0  0  0
   -1.1312    1.5876    0.0000 C   0  0  0  0  0  0  0  0  0  0  0  0
   -5.3016    2.3838    0.0000 C   0  0  0  0  0  0  0  0  0  0  0  0
    0.3253    1.6118    0.0000 C   0  0  0  0  0  0  0  0  0  0  0  0
   -4.5685    1.0487    0.0000 C   0  0  0  0  0  0  0  0  0  0  0  0
   -5.3016    1.4370    0.0000 C   0  0  0  0  0  0  0  0  0  0  0  0
   -0.4029    1.1798    0.0000 C   0  0  0  0  0  0  0  0  0  0  0  0
    4.7968    2.2139    0.0000 C   0  0  0  0  0  0  0  0  0  0  0  0
   -1.5730   -2.3353    0.0000 C   0  0  0  0  0  0  0  0  0  0  0  0
   -5.9571    0.2136    0.0000 C   0  0  0  0  0  0  0  0  0  0  0  0
    0.3253   -0.0340    0.0000 C   0  0  0  0  0  0  0  0  0  0  0  0
    5.5978    2.2139    0.0000 C   0  0  0  0  0  0  0  0  0  0  0  0
   -1.2380   -1.5002    0.0000 C   0  0  0  0  0  0  0  0  0  0  0  0
   -3.1120    0.0000    0.0000 O   0  0  0  0  0  0  0  0  0  0  0  0
    2.1314    2.2090    0.0000 O   0  0  0  0  0  0  0  0  0  0  0  0
   -4.6268    2.7528    0.0000 O   0  0  0  0  0  0  0  0  0  0  0  0
   -1.8303    1.1457    0.0000 O   0  0  0  0  0  0  0  0  0  0  0  0
   -5.5589   -1.5925    0.0000 O   0  0  0  0  0  0  0  0  0  0  0  0
    2.1314   -0.6409    0.0000 O   0  0  0  0  0  0  0  0  0  0  0  0
    3.5393    1.4953    0.0000 C   0  0  0  0  0  0  0  0  0  0  0  0
   -2.8207   -1.6362    0.0000 C   0  0  0  0  0  0  0  0  0  0  0  0
   -5.9667    2.8353    0.0000 O   0  0  0  0  0  0  0  0  0  0  0  0
   -1.1312    2.4129    0.0000 O   0  0  0  0  0  0  0  0  0  0  0  0
   -0.4029    0.3496    0.0000 C   0  0  0  0  0  0  0  0  0  0  0  0
   -5.9571    1.0487    0.0000 C   0  0  0  0  0  0  0  0  0  0  0  0
    4.3453    1.4953    0.0000 C   0  0  0  0  0  0  0  0  0  0  0  0
   -2.3838   -2.3353    0.0000 C   0  0  0  0  0  0  0  0  0  0  0  0
   -3.9422    2.3255    0.0000 C   0  0  0  0  0  0  0  0  0  0  0  0
   -2.5197    1.5293    0.0000 C   0  0  0  0  0  0  0  0  0  0  0  0
    3.5393    0.0728    0.0000 C   0  0  0  0  0  0  0  0  0  0  0  0
   -4.0199   -2.3887    0.0000 C   0  0  0  0  0  0  0  0  0  0  0  0
   -3.9422    1.5099    0.0000 C   0  0  0  0  0  0  0  0  0  0  0  0
   -3.2189    1.1312    0.0000 C   0  0  0  0  0  0  0  0  0  0  0  0
   -3.2868    2.7188    0.0000 C   0  0  0  0  0  0  0  0  0  0  0  0
   -2.5197    2.2867    0.0000 C   0  0  0  0  0  0  0  0  0  0  0  0
   -3.6655   -3.0490    0.0000 C   0  0  0  0  0  0  0  0  0  0  0  0
    4.3453    0.0728    0.0000 C   0  0  0  0  0  0  0  0  0  0  0  0
    4.7968    0.7816    0.0000 C   0  0  0  0  0  0  0  0  0  0  0  0
   -2.7528   -3.0490    0.0000 C   0  0  0  0  0  0  0  0  0  0  0  0
  2  4  1  0  0  0  0
  3  1  1  0  0  0  0
  4  7  1  0  0  0  0
  5  1  1  0  0  0  0
  6  9  1  0  0  0  0
  6  2  1  0  0  0  0
  7 16  1  0  0  0  0
  8  3  1  0  0  0  0
  9 21  1  0  0  0  0
  9  7  2  0  0  0  0
 10  5  1  0  0  0  0
 10  8  1  0  0  0  0
 11  1  1  0  0  0  0
 12  2  1  0  0  0  0
 13 18  1  0  0  0  0
 14 27  1  0  0  0  0
 15  8  2  0  0  0  0
 16 17  2  0  0  0  0
 17 14  1  0  0  0  0
 18 15  1  0  0  0  0
 19 37  1  0  0  0  0
 20 38  1  0  0  0  0
 21 36  2  0  0  0  0
 22 10  2  0  0  0  0
 23 19  3  0  0  0  0
 24 20  3  0  0  0  0
 25  4  2  0  0  0  0
 26  3  2  0  0  0  0
 27 39  1  0  0  0  0
 28 13  1  0  0  0  0
 29  6  2  0  0  0  0
 30  5  2  0  0  0  0
 31 11  1  0  0  0  0
 32 12  2  0  0  0  0
 33 14  2  0  0  0  0
 34 13  2  0  0  0  0
 35 22  1  0  0  0  0
 35 18  2  0  0  0  0
 36 17  1  0  0  0  0
 37 31  2  0  0  0  0
 37 49  1  0  0  0  0
 38 32  1  0  0  0  0
 38 50  2  0  0  0  0
 39 45  1  0  0  0  0
 40 28  1  0  0  0  0
 41 11  2  0  0  0  0
 42 12  1  0  0  0  0
 43 44  1  0  0  0  0
 43 39  2  0  0  0  0
 44 40  2  0  0  0  0
 45 46  2  0  0  0  0
 46 40  1  0  0  0  0
 47 42  2  0  0  0  0
 48 41  1  0  0  0  0
 49 48  2  0  0  0  0
 50 47  1  0  0  0  0
M  END
> <CdId>
631

> <Mol Weight>
656.5954

> <Formula>
C40H20N2O8

> <Click_ID>
CLK009_D06 __ __ 

$$$$
