CLK043G09
 OpenBabel03181419432D

 29 31  0  0  0  0  0  0  0  0999 V2000
   -1.8458   -1.2542    0.0000 C   0  0  0  0  0  0  0  0  0  0  0  0
   -1.8458   -0.4292    0.0000 C   0  0  0  0  0  0  0  0  0  0  0  0
   -0.4167   -1.2542    0.0000 N   0  0  0  0  0  0  0  0  0  0  0  0
   -0.4167   -0.4292    0.0000 C   0  0  0  0  0  0  0  0  0  0  0  0
   -1.1333   -0.0167    0.0000 N   0  0  0  0  0  0  0  0  0  0  0  0
   -1.1333   -1.6667    0.0000 C   0  0  0  0  0  0  0  0  0  0  0  0
   -2.6333   -0.1750    0.0000 S   0  0  0  0  0  0  0  0  0  0  0  0
   -2.6333   -1.5083    0.0000 C   0  0  0  0  0  0  0  0  0  0  0  0
   -3.1167   -0.8417    0.0000 C   0  0  0  0  0  0  0  0  0  0  0  0
    0.2958   -0.0167    0.0000 S   0  0  0  0  0  0  0  0  0  0  0  0
    2.4417    2.8708    0.0000 C   0  0  0  0  0  0  0  0  0  0  0  0
    3.1542    3.2833    0.0000 C   0  0  0  0  0  0  0  0  0  0  0  0
   -1.1333   -2.4917    0.0000 O   0  0  0  0  0  0  0  0  0  0  0  0
    1.0125    1.2208    0.0000 C   0  0  0  0  0  0  0  0  0  0  0  0
    0.2958   -1.6667    0.0000 C   0  0  0  0  0  0  0  0  0  0  0  0
    1.0125    2.0458    0.0000 N   0  0  0  0  0  0  0  0  0  0  0  0
    1.7250    2.4583    0.0000 C   0  0  0  0  0  0  0  0  0  0  0  0
    1.7250    0.8083    0.0000 O   0  0  0  0  0  0  0  0  0  0  0  0
    0.2958    0.8083    0.0000 C   0  0  0  0  0  0  0  0  0  0  0  0
   -2.8875   -2.2917    0.0000 C   0  0  0  0  0  0  0  0  0  0  0  0
   -3.9417   -0.8417    0.0000 C   0  0  0  0  0  0  0  0  0  0  0  0
    1.3125    3.1750    0.0000 C   0  0  0  0  0  0  0  0  0  0  0  0
    2.1375    1.7458    0.0000 C   0  0  0  0  0  0  0  0  0  0  0  0
    0.3833   -2.4875    0.0000 C   0  0  0  0  0  0  0  0  0  0  0  0
    1.0500   -1.3292    0.0000 C   0  0  0  0  0  0  0  0  0  0  0  0
    1.7250    3.8875    0.0000 C   0  0  0  0  0  0  0  0  0  0  0  0
    1.7250    1.0292    0.0000 C   0  0  0  0  0  0  0  0  0  0  0  0
    1.6000   -1.9417    0.0000 C   0  0  0  0  0  0  0  0  0  0  0  0
    1.1875   -2.6583    0.0000 C   0  0  0  0  0  0  0  0  0  0  0  0
  2  1  2  0  0  0  0
  3  6  1  0  0  0  0
  4  3  1  0  0  0  0
  5  2  1  0  0  0  0
  5  4  2  0  0  0  0
  6  1  1  0  0  0  0
  7  2  1  0  0  0  0
  8  1  1  0  0  0  0
  9  8  2  0  0  0  0
  9  7  1  0  0  0  0
 10  4  1  0  0  0  0
 11 17  1  0  0  0  0
 12 11  3  0  0  0  0
 13  6  2  0  0  0  0
 14 19  1  0  0  0  0
 15  3  1  0  0  0  0
 16 14  1  0  0  0  0
 17 16  1  0  0  0  0
 18 14  2  0  0  0  0
 19 10  1  0  0  0  0
 20  8  1  0  0  0  0
 21  9  1  0  0  0  0
 22 17  1  0  0  0  0
 23 17  1  0  0  0  0
 24 15  1  0  0  0  0
 25 15  1  0  0  0  0
 26 22  1  0  0  0  0
 27 23  1  0  0  0  0
 28 25  1  0  0  0  0
 28 29  1  0  0  0  0
 29 24  1  0  0  0  0
M  END
> <CdId>
3311

> <Mol Weight>
431.615

> <Formula>
C22H29N3O2S2

> <Click_ID>
CLK043G09 __ __ 

$$$$
