CLK005_B02
 OpenBabel03181419432D

 30 33  0  0  0  0  0  0  0  0999 V2000
    0.6671    0.2578    0.0000 C   0  0  3  0  0  0  0  0  0  0  0  0
    1.3835   -0.1440    0.0000 C   0  0  0  0  0  0  0  0  0  0  0  0
    0.6520    1.0765    0.0000 C   0  0  0  0  0  0  0  0  0  0  0  0
   -0.0455   -0.1592    0.0000 C   0  0  0  0  0  0  0  0  0  0  0  0
    2.0923    0.2805    0.0000 C   0  0  0  0  0  0  0  0  0  0  0  0
    1.3911   -0.9553    0.0000 C   0  0  0  0  0  0  0  0  0  0  0  0
    1.3532    1.4935    0.0000 C   0  0  0  0  0  0  0  0  0  0  0  0
   -0.0607    1.4821    0.0000 C   0  0  0  0  0  0  0  0  0  0  0  0
   -0.7619    0.2388    0.0000 C   0  0  0  0  0  0  0  0  0  0  0  0
   -0.0341   -0.9817    0.0000 C   0  0  0  0  0  0  0  0  0  0  0  0
    2.0773    1.0955    0.0000 N   0  0  0  0  0  0  0  0  0  0  0  0
    2.8126   -0.1175    0.0000 C   0  0  0  0  0  0  0  0  0  0  0  0
    2.1113   -1.3684    0.0000 C   0  0  0  0  0  0  0  0  0  0  0  0
    0.6747   -1.3911    0.0000 O   0  0  0  0  0  0  0  0  0  0  0  0
    1.3494    2.3273    0.0000 C   0  0  0  0  0  0  0  0  0  0  0  0
   -0.0758    2.3009    0.0000 C   0  0  0  0  0  0  0  0  0  0  0  0
   -0.7771    1.0652    0.0000 O   0  0  0  0  0  0  0  0  0  0  0  0
   -1.4745   -0.1858    0.0000 C   0  0  0  0  0  0  0  0  0  0  0  0
   -0.7391   -1.4101    0.0000 C   0  0  0  0  0  0  0  0  0  0  0  0
    2.7822    1.5238    0.0000 C   0  0  0  0  0  0  0  0  0  0  0  0
    2.8201   -0.9514    0.0000 C   0  0  0  0  0  0  0  0  0  0  0  0
    0.6255    2.7178    0.0000 C   0  0  0  0  0  0  0  0  0  0  0  0
   -1.4631   -1.0121    0.0000 C   0  0  0  0  0  0  0  0  0  0  0  0
   -2.1909    0.2161    0.0000 O   0  0  0  0  0  0  0  0  0  0  0  0
   -2.1682   -1.4366    0.0000 O   0  0  0  0  0  0  0  0  0  0  0  0
   -2.2061    1.0424    0.0000 C   0  0  0  0  0  0  0  0  0  0  0  0
   -2.1530   -2.2629    0.0000 C   0  0  0  0  0  0  0  0  0  0  0  0
   -2.9339    1.4479    0.0000 C   0  0  0  0  0  0  0  0  0  0  0  0
   -2.8657   -2.6837    0.0000 C   0  0  0  0  0  0  0  0  0  0  0  0
   -2.8505   -3.5100    0.0000 C   0  0  0  0  0  0  0  0  0  0  0  0
  1  2  1  0  0  0  0
  1  3  1  0  0  0  0
  1  4  1  0  0  0  0
  2  5  2  0  0  0  0
  2  6  1  0  0  0  0
  3  7  2  0  0  0  0
  3  8  1  0  0  0  0
  4  9  1  0  0  0  0
  4 10  2  0  0  0  0
  5 11  1  0  0  0  0
  5 12  1  0  0  0  0
  6 13  1  0  0  0  0
  6 14  2  0  0  0  0
  7 15  1  0  0  0  0
  7 11  1  0  0  0  0
  8 16  1  0  0  0  0
  8 17  2  0  0  0  0
  9 18  2  0  0  0  0
 10 19  1  0  0  0  0
 11 20  1  0  0  0  0
 12 21  1  0  0  0  0
 13 21  1  0  0  0  0
 15 22  1  0  0  0  0
 16 22  1  0  0  0  0
 18 23  1  0  0  0  0
 18 24  1  0  0  0  0
 19 23  2  0  0  0  0
 23 25  1  0  0  0  0
 24 26  1  0  0  0  0
 25 27  1  0  0  0  0
 26 28  1  0  0  0  0
 27 29  1  0  0  0  0
 29 30  3  0  0  0  0
M  END
> <CdId>
331

> <Mol Weight>
405.4862

> <Formula>
C25H27NO4

> <Click_ID>
CLK005_B02 __ __ 

$$$$
