CLK039G10
 OpenBabel03181419432D

 19 20  0  0  0  0  0  0  0  0999 V2000
   -0.1167   -0.4125    0.0000 S   0  0  0  0  0  0  0  0  0  0  0  0
   -0.1167    0.4125    0.0000 N   0  0  0  0  0  0  0  0  0  0  0  0
   -0.1167   -1.2375    0.0000 C   0  0  0  0  0  0  0  0  0  0  0  0
    0.7083   -0.4125    0.0000 O   0  0  0  0  0  0  0  0  0  0  0  0
   -0.9417   -0.4125    0.0000 O   0  0  0  0  0  0  0  0  0  0  0  0
    0.6000    3.3000    0.0000 C   0  0  0  0  0  0  0  0  0  0  0  0
   -0.1167    2.0625    0.0000 N   0  0  0  0  0  0  0  0  0  0  0  0
    1.3125    3.7125    0.0000 C   0  0  0  0  0  0  0  0  0  0  0  0
    0.6000    0.8250    0.0000 C   0  0  0  0  0  0  0  0  0  0  0  0
   -0.8292    0.8250    0.0000 C   0  0  0  0  0  0  0  0  0  0  0  0
   -0.8292    1.6500    0.0000 C   0  0  0  0  0  0  0  0  0  0  0  0
    0.6000    1.6500    0.0000 C   0  0  0  0  0  0  0  0  0  0  0  0
   -0.8292   -1.6500    0.0000 C   0  0  0  0  0  0  0  0  0  0  0  0
    0.6000   -1.6500    0.0000 C   0  0  0  0  0  0  0  0  0  0  0  0
   -0.1167    2.8917    0.0000 C   0  0  0  0  0  0  0  0  0  0  0  0
   -0.1167   -2.8875    0.0000 C   0  0  0  0  0  0  0  0  0  0  0  0
    0.6000   -2.4750    0.0000 C   0  0  0  0  0  0  0  0  0  0  0  0
   -0.8292   -2.4750    0.0000 C   0  0  0  0  0  0  0  0  0  0  0  0
   -0.1167   -3.7125    0.0000 F   0  0  0  0  0  0  0  0  0  0  0  0
  2  1  1  0  0  0  0
  3  1  1  0  0  0  0
  4  1  2  0  0  0  0
  5  1  2  0  0  0  0
  6 15  1  0  0  0  0
  7 11  1  0  0  0  0
  7 12  1  0  0  0  0
  8  6  3  0  0  0  0
  9  2  1  0  0  0  0
 10  2  1  0  0  0  0
 11 10  1  0  0  0  0
 12  9  1  0  0  0  0
 13  3  2  0  0  0  0
 14  3  1  0  0  0  0
 15  7  1  0  0  0  0
 16 18  2  0  0  0  0
 17 14  2  0  0  0  0
 17 16  1  0  0  0  0
 18 13  1  0  0  0  0
 19 16  1  0  0  0  0
M  END
> <CdId>
2999

> <Mol Weight>
282.334

> <Formula>
C13H15FN2O2S

> <Click_ID>
CLK039G10 __ __ 

$$$$
