CLK041B08
 OpenBabel03181419432D

 24 25  0  0  0  0  0  0  0  0999 V2000
   -0.0083    1.9333    0.0000 N   0  0  0  0  0  0  0  0  0  0  0  0
    0.4792    1.2667    0.0000 C   0  0  0  0  0  0  0  0  0  0  0  0
    1.2625    1.5208    0.0000 N   0  0  0  0  0  0  0  0  0  0  0  0
    0.4792    2.6000    0.0000 N   0  0  0  0  0  0  0  0  0  0  0  0
    1.2625    2.3458    0.0000 N   0  0  0  0  0  0  0  0  0  0  0  0
   -0.8333    1.9333    0.0000 C   0  0  0  0  0  0  0  0  0  0  0  0
    0.2208    0.4833    0.0000 S   0  0  0  0  0  0  0  0  0  0  0  0
    0.5625   -3.1000    0.0000 C   0  0  0  0  0  0  0  0  0  0  0  0
    0.3083   -3.8833    0.0000 C   0  0  0  0  0  0  0  0  0  0  0  0
    0.5208   -0.9167    0.0000 C   0  0  0  0  0  0  0  0  0  0  0  0
    1.0708   -1.5292    0.0000 N   0  0  0  0  0  0  0  0  0  0  0  0
    0.8167   -2.3125    0.0000 C   0  0  0  0  0  0  0  0  0  0  0  0
   -1.2458    1.2208    0.0000 C   0  0  0  0  0  0  0  0  0  0  0  0
   -0.2875   -1.0875    0.0000 O   0  0  0  0  0  0  0  0  0  0  0  0
    0.7750   -0.1292    0.0000 C   0  0  0  0  0  0  0  0  0  0  0  0
   -1.2458    2.6500    0.0000 C   0  0  0  0  0  0  0  0  0  0  0  0
    0.0333   -2.0583    0.0000 C   0  0  0  0  0  0  0  0  0  0  0  0
    1.6000   -2.5667    0.0000 C   0  0  0  0  0  0  0  0  0  0  0  0
   -0.8333    0.5042    0.0000 C   0  0  0  0  0  0  0  0  0  0  0  0
   -2.0708    1.2208    0.0000 C   0  0  0  0  0  0  0  0  0  0  0  0
   -0.1375   -1.2500    0.0000 C   0  0  0  0  0  0  0  0  0  0  0  0
    1.7750   -3.3750    0.0000 C   0  0  0  0  0  0  0  0  0  0  0  0
   -2.0708    2.6500    0.0000 C   0  0  0  0  0  0  0  0  0  0  0  0
   -2.4833    1.9333    0.0000 C   0  0  0  0  0  0  0  0  0  0  0  0
  2  1  1  0  0  0  0
  3  2  2  0  0  0  0
  4  1  1  0  0  0  0
  5  4  2  0  0  0  0
  5  3  1  0  0  0  0
  6  1  1  0  0  0  0
  7  2  1  0  0  0  0
  8 12  1  0  0  0  0
  9  8  3  0  0  0  0
 10 15  1  0  0  0  0
 11 10  1  0  0  0  0
 12 11  1  0  0  0  0
 13  6  2  0  0  0  0
 14 10  2  0  0  0  0
 15  7  1  0  0  0  0
 16  6  1  0  0  0  0
 17 12  1  0  0  0  0
 18 12  1  0  0  0  0
 19 13  1  0  0  0  0
 20 13  1  0  0  0  0
 21 17  1  0  0  0  0
 22 18  1  0  0  0  0
 23 16  2  0  0  0  0
 24 20  2  0  0  0  0
 24 23  1  0  0  0  0
M  END
> <CdId>
3138

> <Mol Weight>
343.447

> <Formula>
C17H21N5OS

> <Click_ID>
CLK041B08 __ __ 

$$$$
