CLK036_F03
 OpenBabel03181419432D

 27 29  0  0  0  0  0  0  0  0999 V2000
   -0.9441    5.0371    0.0000 C   0  0  0  0  0  0  0  0  0  0  0  0
   -0.5316    4.3129    0.0000 N   0  0  0  0  0  0  0  0  0  0  0  0
   -1.7554    5.1196    0.0000 N   0  0  0  0  0  0  0  0  0  0  0  0
   -0.6004    5.7888    0.0000 S   0  0  0  0  0  0  0  0  0  0  0  0
   -1.9250    8.4059    0.0000 S   0  0  0  0  0  0  0  0  0  0  0  0
   -1.2191    6.3434    0.0000 C   0  0  0  0  0  0  0  0  0  0  0  0
   -1.9250    5.9309    0.0000 C   0  0  0  0  0  0  0  0  0  0  0  0
    0.3071    4.2991    0.0000 C   0  0  0  0  0  0  0  0  0  0  0  0
   -1.9250    7.5809    0.0000 C   0  0  0  0  0  0  0  0  0  0  0  0
   -1.2191    7.1684    0.0000 C   0  0  0  0  0  0  0  0  0  0  0  0
   -2.0304    3.7354    0.0000 C   0  0  0  0  0  0  0  0  0  0  0  0
   -2.6400    6.3434    0.0000 C   0  0  0  0  0  0  0  0  0  0  0  0
   -1.7691    2.9425    0.0000 C   0  0  0  0  0  0  0  0  0  0  0  0
    0.7196    3.5979    0.0000 C   0  0  0  0  0  0  0  0  0  0  0  0
   -2.7500    8.4059    0.0000 O   0  0  0  0  0  0  0  0  0  0  0  0
   -1.9250    9.2309    0.0000 O   0  0  0  0  0  0  0  0  0  0  0  0
    0.7196    5.0096    0.0000 O   0  0  0  0  0  0  0  0  0  0  0  0
   -2.6400    7.1684    0.0000 C   0  0  0  0  0  0  0  0  0  0  0  0
   -2.2916    4.5009    0.0000 C   0  0  0  0  0  0  0  0  0  0  0  0
    1.5446    3.5979    0.0000 C   0  0  0  0  0  0  0  0  0  0  0  0
    0.3071    2.8737    0.0000 C   0  0  0  0  0  0  0  0  0  0  0  0
   -1.1000    8.4059    0.0000 C   0  0  0  0  0  0  0  0  0  0  0  0
    1.5446    2.1587    0.0000 C   0  0  0  0  0  0  0  0  0  0  0  0
    1.9571    1.4391    0.0000 S   0  0  0  0  0  0  0  0  0  0  0  0
    0.7196    2.1587    0.0000 C   0  0  0  0  0  0  0  0  0  0  0  0
    1.9571    2.8829    0.0000 C   0  0  0  0  0  0  0  0  0  0  0  0
    2.7821    1.4254    0.0000 C   0  0  0  0  0  0  0  0  0  0  0  0
  2  1  2  0  0  0  0
  3  1  1  0  0  0  0
  4  1  1  0  0  0  0
  5  9  1  0  0  0  0
  6  4  1  0  0  0  0
  7  3  1  0  0  0  0
  7  6  2  0  0  0  0
  8  2  1  0  0  0  0
  9 10  2  0  0  0  0
 10  6  1  0  0  0  0
 11 19  1  0  0  0  0
 12  7  1  0  0  0  0
 13 11  3  0  0  0  0
 14  8  1  0  0  0  0
 15  5  2  0  0  0  0
 16  5  2  0  0  0  0
 17  8  2  0  0  0  0
 18 12  2  0  0  0  0
 18  9  1  0  0  0  0
 19  3  1  0  0  0  0
 20 14  1  0  0  0  0
 21 14  2  0  0  0  0
 22  5  1  0  0  0  0
 23 25  2  0  0  0  0
 24 23  1  0  0  0  0
 25 21  1  0  0  0  0
 26 20  2  0  0  0  0
 26 23  1  0  0  0  0
 27 24  1  0  0  0  0
M  END
> <CdId>
2755

> <Mol Weight>
416.537

> <Formula>
C19H16N2O3S3

> <Click_ID>
CLK036_F03 __ __ 

$$$$
