CLK025_D07
 OpenBabel03181419432D

 24 26  0  0  0  0  0  0  0  0999 V2000
   -0.6301    0.4375    0.0000 C    0  0  3  0  0  0  0  0  0  0  0  0
   -0.1750   -0.1960    0.0000 C    0  0  0  0  0  0  0  0  0  0  0  0
   -1.4247    0.1750    0.0000 C    0  0  0  0  0  0  0  0  0  0  0  0
   -0.6301   -0.9067    0.0000 N    0  0  0  0  0  0  0  0  0  0  0  0
   -1.4247   -0.6476    0.0000 C    0  0  0  0  0  0  0  0  0  0  0  0
    0.2100    1.2077    0.0000 C    0  0  0  0  0  0  0  0  0  0  0  0
    1.6768    1.6873    0.0000 C    0  0  0  0  0  0  0  0  0  0  0  0
    2.5030    1.6593    0.0000 S    0  0  0  0  0  0  0  0  0  0  0  0
    1.1727    1.0327    0.0000 C    0  0  0  0  0  0  0  0  0  0  0  0
    2.7760    2.4434    0.0000 C    0  0  0  0  0  0  0  0  0  0  0  0
    1.4457    2.4749    0.0000 C    0  0  0  0  0  0  0  0  0  0  0  0
    2.1214    2.9440    0.0000 C    0  0  0  0  0  0  0  0  0  0  0  0
   -0.8891   -2.3139    0.0000 C    0  0  0  0  0  0  0  0  0  0  0  0
   -2.1388   -1.0607    0.0000 C    0  0  0  0  0  0  0  0  0  0  0  0
   -1.4247   -2.9405    0.0000 C    0  0  0  0  0  0  0  0  0  0  0  0
   -2.1388    0.5916    0.0000 C    0  0  0  0  0  0  0  0  0  0  0  0
    0.6231   -0.2625    0.0000 O    0  0  0  0  0  0  0  0  0  0  0  0
   -0.3571   -1.6803    0.0000 C    0  0  0  0  0  0  0  0  0  0  0  0
   -1.0257    1.3092    0.0000 O    0  0  0  0  0  0  0  0  0  0  0  0
    1.4493    0.4516    0.0000 O    0  0  0  0  0  0  0  0  0  0  0  0
    3.5671    2.6780    0.0000 Cl   0  0  0  0  0  0  0  0  0  0  0  0
   -2.8530    0.1750    0.0000 C    0  0  0  0  0  0  0  0  0  0  0  0
   -2.8530   -0.6476    0.0000 C    0  0  0  0  0  0  0  0  0  0  0  0
   -3.5706    0.5881    0.0000 Br   0  0  0  0  0  0  0  0  0  0  0  0
  2  1  1  0  0  0  0
  3  1  1  0  0  0  0
  4  2  1  0  0  0  0
  5  3  2  0  0  0  0
  5  4  1  0  0  0  0
  6  1  1  0  0  0  0
  7  9  1  0  0  0  0
  8  7  1  0  0  0  0
  9  6  1  0  0  0  0
 10  8  1  0  0  0  0
 10 12  2  0  0  0  0
 11  7  2  0  0  0  0
 12 11  1  0  0  0  0
 13 18  1  0  0  0  0
 14  5  1  0  0  0  0
 15 13  3  0  0  0  0
 16  3  1  0  0  0  0
 17  2  2  0  0  0  0
 18  4  1  0  0  0  0
 19  1  1  0  0  0  0
 20  9  2  0  0  0  0
 21 10  1  0  0  0  0
 22 16  2  0  0  0  0
 23 22  1  0  0  0  0
 23 14  2  0  0  0  0
 24 22  1  0  0  0  0
M  END
> <CdId>
1892

> <Mol Weight>
424.696

> <Formula>
C17H11BrClNO3S

> <Click_ID>
CLK025_D07 __ __ 

$$$$
