CLK034_E03
 OpenBabel03181419432D

 28 30  0  0  0  0  0  0  0  0999 V2000
   -4.5726    2.5440    0.0000 C   0  0  0  0  0  0  0  0  0  0  0  0
   -3.8618    2.9639    0.0000 N   0  0  0  0  0  0  0  0  0  0  0  0
   -4.6724    1.7293    0.0000 N   0  0  0  0  0  0  0  0  0  0  0  0
   -5.3084    2.8890    0.0000 S   0  0  0  0  0  0  0  0  0  0  0  0
   -5.4747    1.5713    0.0000 C   0  0  0  0  0  0  0  0  0  0  0  0
   -5.8820    2.2904    0.0000 C   0  0  0  0  0  0  0  0  0  0  0  0
   -3.8618    3.7911    0.0000 C   0  0  0  0  0  0  0  0  0  0  0  0
   -3.1509    4.2027    0.0000 C   0  0  0  0  0  0  0  0  0  0  0  0
   -4.2401    0.3492    0.0000 C   0  0  0  0  0  0  0  0  0  0  0  0
   -4.4229   -0.4614    0.0000 C   0  0  0  0  0  0  0  0  0  0  0  0
   -3.1426    5.0299    0.0000 C   0  0  0  0  0  0  0  0  0  0  0  0
   -2.4276    5.4415    0.0000 C   0  0  0  0  0  0  0  0  0  0  0  0
   -5.8987    0.8688    0.0000 C   0  0  0  0  0  0  0  0  0  0  0  0
   -4.5851    4.1944    0.0000 O   0  0  0  0  0  0  0  0  0  0  0  0
   -1.7085    5.0175    0.0000 C   0  0  0  0  0  0  0  0  0  0  0  0
   -4.0530    1.1556    0.0000 C   0  0  0  0  0  0  0  0  0  0  0  0
   -2.4318    3.7994    0.0000 C   0  0  0  0  0  0  0  0  0  0  0  0
   -1.7168    4.2027    0.0000 C   0  0  0  0  0  0  0  0  0  0  0  0
   -2.4276    6.2645    0.0000 O   0  0  0  0  0  0  0  0  0  0  0  0
   -6.6885    2.3071    0.0000 C   0  0  0  0  0  0  0  0  0  0  0  0
   -5.5079    0.1372    0.0000 O   0  0  0  0  0  0  0  0  0  0  0  0
   -0.9935    5.4373    0.0000 O   0  0  0  0  0  0  0  0  0  0  0  0
   -7.1250    1.6045    0.0000 C   0  0  0  0  0  0  0  0  0  0  0  0
   -6.7135    0.8812    0.0000 C   0  0  0  0  0  0  0  0  0  0  0  0
   -5.9319   -0.5654    0.0000 C   0  0  0  0  0  0  0  0  0  0  0  0
   -3.1385    6.6761    0.0000 C   0  0  0  0  0  0  0  0  0  0  0  0
   -0.2826    5.0175    0.0000 C   0  0  0  0  0  0  0  0  0  0  0  0
   -5.5495   -1.2762    0.0000 C   0  0  0  0  0  0  0  0  0  0  0  0
  2  1  2  0  0  0  0
  3  1  1  0  0  0  0
  4  1  1  0  0  0  0
  5  3  1  0  0  0  0
  6  4  1  0  0  0  0
  6  5  2  0  0  0  0
  7  2  1  0  0  0  0
  8  7  1  0  0  0  0
  9 16  1  0  0  0  0
 10  9  3  0  0  0  0
 11  8  1  0  0  0  0
 12 11  2  0  0  0  0
 12 15  1  0  0  0  0
 13  5  1  0  0  0  0
 14  7  2  0  0  0  0
 15 18  2  0  0  0  0
 16  3  1  0  0  0  0
 17  8  2  0  0  0  0
 18 17  1  0  0  0  0
 19 12  1  0  0  0  0
 20  6  1  0  0  0  0
 21 13  1  0  0  0  0
 22 15  1  0  0  0  0
 23 20  2  0  0  0  0
 24 13  2  0  0  0  0
 24 23  1  0  0  0  0
 25 21  1  0  0  0  0
 26 19  1  0  0  0  0
 27 22  1  0  0  0  0
 28 25  1  0  0  0  0
M  END
> <CdId>
2607

> <Mol Weight>
396.459

> <Formula>
C21H20N2O4S

> <Click_ID>
CLK034_E03 __ __ 

$$$$
