CLK018_G03
 OpenBabel03181419432D

 26 27  0  0  0  0  0  0  0  0999 V2000
    2.5999    1.6228    0.0000 N   0  0  0  0  0  0  0  0  0  0  0  0
    3.3575    1.9457    0.0000 C   0  0  0  0  0  0  0  0  0  0  0  0
    2.6620    0.8031    0.0000 C   0  0  0  0  0  0  0  0  0  0  0  0
    3.4651    0.6168    0.0000 C   0  0  0  0  0  0  0  0  0  0  0  0
    3.8916    1.3123    0.0000 S   0  0  0  0  0  0  0  0  0  0  0  0
    3.7756   -0.1408    0.0000 C   0  0  0  0  0  0  0  0  0  0  0  0
    1.9044    2.0493    0.0000 C   0  0  0  0  0  0  0  0  0  0  0  0
    3.5521    2.7324    0.0000 S   0  0  0  0  0  0  0  0  0  0  0  0
    1.1923    1.6601    0.0000 C   0  0  0  0  0  0  0  0  0  0  0  0
    2.8980   -3.6308    0.0000 C   0  0  0  0  0  0  0  0  0  0  0  0
    3.7135   -3.7301    0.0000 C   0  0  0  0  0  0  0  0  0  0  0  0
    1.1716    0.8404    0.0000 C   0  0  0  0  0  0  0  0  0  0  0  0
    1.9417   -1.3455    0.0000 C   0  0  0  0  0  0  0  0  0  0  0  0
    2.0410    0.2732    0.0000 O   0  0  0  0  0  0  0  0  0  0  0  0
    3.2788   -0.7949    0.0000 C   0  0  0  0  0  0  0  0  0  0  0  0
    2.4509   -0.6955    0.0000 C   0  0  0  0  0  0  0  0  0  0  0  0
    2.2604   -2.1155    0.0000 C   0  0  0  0  0  0  0  0  0  0  0  0
    1.8754    0.4099    0.0000 O   0  0  0  0  0  0  0  0  0  0  0  0
    3.0801   -2.2232    0.0000 C   0  0  0  0  0  0  0  0  0  0  0  0
    3.5893   -1.5649    0.0000 C   0  0  0  0  0  0  0  0  0  0  0  0
    0.4513    0.4429    0.0000 O   0  0  0  0  0  0  0  0  0  0  0  0
    1.1220   -1.2420    0.0000 O   0  0  0  0  0  0  0  0  0  0  0  0
    1.7636   -2.7738    0.0000 O   0  0  0  0  0  0  0  0  0  0  0  0
    2.0783   -3.5314    0.0000 C   0  0  0  0  0  0  0  0  0  0  0  0
    0.6252   -1.8920    0.0000 C   0  0  0  0  0  0  0  0  0  0  0  0
    0.9357   -2.6578    0.0000 C   0  0  0  0  0  0  0  0  0  0  0  0
  2  1  1  0  0  0  0
  3  1  1  0  0  0  0
  4  3  1  0  0  0  0
  5  2  1  0  0  0  0
  5  4  1  0  0  0  0
  6  4  2  0  0  0  0
  7  1  1  0  0  0  0
  8  2  2  0  0  0  0
  9  7  1  0  0  0  0
 10 24  1  0  0  0  0
 11 10  3  0  0  0  0
 12  9  1  0  0  0  0
 13 16  2  0  0  0  0
 14  3  2  0  0  0  0
 15  6  1  0  0  0  0
 16 15  1  0  0  0  0
 17 19  2  0  0  0  0
 17 13  1  0  0  0  0
 18 12  2  0  0  0  0
 19 20  1  0  0  0  0
 20 15  2  0  0  0  0
 21 12  1  0  0  0  0
 22 13  1  0  0  0  0
 23 17  1  0  0  0  0
 24 23  1  0  0  0  0
 25 22  1  0  0  0  0
 26 25  1  0  0  0  0
M  END
> <CdId>
1378

> <Mol Weight>
391.461

> <Formula>
C18H17NO5S2

> <Click_ID>
CLK018_G03 __ __ 

$$$$
