CLK018_F06
 OpenBabel03181419432D

 24 26  0  0  0  0  0  0  0  0999 V2000
    4.9454   -3.5043    0.0000 C   0  0  3  0  0  0  0  0  0  0  0  0
    5.3388   -4.2317    0.0000 C   0  0  0  0  0  0  0  0  0  0  0  0
    4.7624   -4.8219    0.0000 N   0  0  0  0  0  0  0  0  0  0  0  0
    4.1357   -3.6416    0.0000 C   0  0  0  0  0  0  0  0  0  0  0  0
    4.0259   -4.4604    0.0000 C   0  0  0  0  0  0  0  0  0  0  0  0
    5.8787   -2.8730    0.0000 C   0  0  0  0  0  0  0  0  0  0  0  0
    5.6728   -5.9152    0.0000 C   0  0  0  0  0  0  0  0  0  0  0  0
    8.7882   -2.7769    0.0000 C   0  0  0  0  0  0  0  0  0  0  0  0
    6.4505   -6.1943    0.0000 C   0  0  0  0  0  0  0  0  0  0  0  0
    8.0883   -3.2252    0.0000 C   0  0  0  0  0  0  0  0  0  0  0  0
    6.1532   -4.3415    0.0000 O   0  0  0  0  0  0  0  0  0  0  0  0
    7.3609   -2.8456    0.0000 C   0  0  0  0  0  0  0  0  0  0  0  0
    9.5568   -3.0789    0.0000 O   0  0  0  0  0  0  0  0  0  0  0  0
    6.6701   -3.2848    0.0000 C   0  0  0  0  0  0  0  0  0  0  0  0
    4.9042   -5.6316    0.0000 C   0  0  0  0  0  0  0  0  0  0  0  0
    8.8385   -1.9535    0.0000 C   0  0  0  0  0  0  0  0  0  0  0  0
    4.6846   -2.5665    0.0000 O   0  0  0  0  0  0  0  0  0  0  0  0
   10.0783   -2.4476    0.0000 C   0  0  0  0  0  0  0  0  0  0  0  0
    9.6346   -1.7476    0.0000 C   0  0  0  0  0  0  0  0  0  0  0  0
    6.7021   -3.9710    0.0000 O   0  0  0  0  0  0  0  0  0  0  0  0
    3.4906   -3.1338    0.0000 C   0  0  0  0  0  0  0  0  0  0  0  0
    3.2573   -4.7670    0.0000 C   0  0  0  0  0  0  0  0  0  0  0  0
    2.7312   -3.4357    0.0000 C   0  0  0  0  0  0  0  0  0  0  0  0
    2.6123   -4.2592    0.0000 C   0  0  0  0  0  0  0  0  0  0  0  0
  2  1  1  0  0  0  0
  3  2  1  0  0  0  0
  4  1  1  0  0  0  0
  5  4  2  0  0  0  0
  5  3  1  0  0  0  0
  6  1  1  0  0  0  0
  7 15  1  0  0  0  0
  8 10  1  0  0  0  0
  9  7  3  0  0  0  0
 10 12  2  0  0  0  0
 11  2  2  0  0  0  0
 12 14  1  0  0  0  0
 13  8  1  0  0  0  0
 14  6  1  0  0  0  0
 15  3  1  0  0  0  0
 16  8  2  0  0  0  0
 17  1  1  0  0  0  0
 18 13  1  0  0  0  0
 18 19  2  0  0  0  0
 19 16  1  0  0  0  0
 20 14  2  0  0  0  0
 21  4  1  0  0  0  0
 22  5  1  0  0  0  0
 23 21  2  0  0  0  0
 24 23  1  0  0  0  0
 24 22  2  0  0  0  0
M  END
> <CdId>
1371

> <Mol Weight>
321.3267

> <Formula>
C19H15NO4

> <Click_ID>
CLK018_F06 __ __ 

$$$$
