CLK043D07
 OpenBabel03181419432D

 30 33  0  0  0  0  0  0  0  0999 V2000
   -3.4750    0.9375    0.0000 C   0  0  0  0  0  0  0  0  0  0  0  0
    3.5125   -1.1250    0.0000 S   0  0  0  0  0  0  0  0  0  0  0  0
   -2.9875    1.6042    0.0000 N   0  0  0  0  0  0  0  0  0  0  0  0
   -2.9875    0.2708    0.0000 S   0  0  0  0  0  0  0  0  0  0  0  0
   -2.2042    0.5250    0.0000 C   0  0  0  0  0  0  0  0  0  0  0  0
   -4.3000    0.9375    0.0000 N   0  0  0  0  0  0  0  0  0  0  0  0
    0.6542    0.5250    0.0000 C   0  0  0  0  0  0  0  0  0  0  0  0
   -2.2042    1.3500    0.0000 C   0  0  0  0  0  0  0  0  0  0  0  0
   -0.0625    0.1125    0.0000 N   0  0  0  0  0  0  0  0  0  0  0  0
    2.7958   -0.7125    0.0000 C   0  0  0  0  0  0  0  0  0  0  0  0
   -1.4875    0.1125    0.0000 C   0  0  0  0  0  0  0  0  0  0  0  0
    4.9417   -2.7750    0.0000 C   0  0  0  0  0  0  0  0  0  0  0  0
    5.6542   -3.1875    0.0000 C   0  0  0  0  0  0  0  0  0  0  0  0
    3.9250   -0.4125    0.0000 O   0  0  0  0  0  0  0  0  0  0  0  0
    3.1000   -1.8417    0.0000 O   0  0  0  0  0  0  0  0  0  0  0  0
    1.3667    0.1125    0.0000 C   0  0  0  0  0  0  0  0  0  0  0  0
   -0.7750    0.5250    0.0000 C   0  0  0  0  0  0  0  0  0  0  0  0
    4.2250   -1.5375    0.0000 N   0  0  0  0  0  0  0  0  0  0  0  0
    0.6542    1.3500    0.0000 O   0  0  0  0  0  0  0  0  0  0  0  0
   -1.4875    1.7625    0.0000 C   0  0  0  0  0  0  0  0  0  0  0  0
    2.0833   -1.1250    0.0000 C   0  0  0  0  0  0  0  0  0  0  0  0
    2.7958    0.1125    0.0000 C   0  0  0  0  0  0  0  0  0  0  0  0
    1.3667   -0.7125    0.0000 C   0  0  0  0  0  0  0  0  0  0  0  0
    2.0833    0.5250    0.0000 C   0  0  0  0  0  0  0  0  0  0  0  0
   -0.7750    1.3500    0.0000 C   0  0  0  0  0  0  0  0  0  0  0  0
    4.2250   -2.3625    0.0000 C   0  0  0  0  0  0  0  0  0  0  0  0
   -4.7833    0.2708    0.0000 C   0  0  0  0  0  0  0  0  0  0  0  0
   -4.7833    1.6042    0.0000 C   0  0  0  0  0  0  0  0  0  0  0  0
   -5.5667    1.3500    0.0000 C   0  0  0  0  0  0  0  0  0  0  0  0
   -5.5667    0.5250    0.0000 C   0  0  0  0  0  0  0  0  0  0  0  0
  2 10  1  0  0  0  0
  3  1  2  0  0  0  0
  4  1  1  0  0  0  0
  5  4  1  0  0  0  0
  5  8  2  0  0  0  0
  6  1  1  0  0  0  0
  7  9  1  0  0  0  0
  8  3  1  0  0  0  0
  9 17  1  0  0  0  0
 10 22  2  0  0  0  0
 10 21  1  0  0  0  0
 11  5  1  0  0  0  0
 12 26  1  0  0  0  0
 13 12  3  0  0  0  0
 14  2  2  0  0  0  0
 15  2  2  0  0  0  0
 16  7  1  0  0  0  0
 17 11  2  0  0  0  0
 18  2  1  0  0  0  0
 19  7  2  0  0  0  0
 20  8  1  0  0  0  0
 21 23  2  0  0  0  0
 22 24  1  0  0  0  0
 23 16  1  0  0  0  0
 24 16  2  0  0  0  0
 25 20  2  0  0  0  0
 25 17  1  0  0  0  0
 26 18  1  0  0  0  0
 27  6  1  0  0  0  0
 28  6  1  0  0  0  0
 29 28  1  0  0  0  0
 30 27  1  0  0  0  0
 30 29  1  0  0  0  0
M  END
> <CdId>
3292

> <Mol Weight>
440.538

> <Formula>
C21H20N4O3S2

> <Click_ID>
CLK043D07 __ __ 

$$$$
