CLK024B04
 OpenBabel03181413552D

 30 32  0  0  0  0  0  0  0  0999 V2000
   -3.4644    1.2875    0.0000 N   0  0  0  0  0  0  0  0  0  0  0  0
   -3.0283    0.5871    0.0000 C   0  0  0  0  0  0  0  0  0  0  0  0
   -2.9321    1.9090    0.0000 C   0  0  0  0  0  0  0  0  0  0  0  0
   -2.1699    1.5965    0.0000 C   0  0  0  0  0  0  0  0  0  0  0  0
   -2.2317    0.7725    0.0000 S   0  0  0  0  0  0  0  0  0  0  0  0
    4.3193   -1.9914    0.0000 N   0  3  0  0  0  0  0  0  0  0  0  0
    0.6970    0.8378    0.0000 C   0  0  0  0  0  0  0  0  0  0  0  0
   -1.4626    2.0223    0.0000 C   0  0  0  0  0  0  0  0  0  0  0  0
    0.0000    0.4017    0.0000 C   0  0  0  0  0  0  0  0  0  0  0  0
    0.6833    1.6515    0.0000 C   0  0  0  0  0  0  0  0  0  0  0  0
   -0.7485    1.6343    0.0000 C   0  0  0  0  0  0  0  0  0  0  0  0
    1.4180    0.4292    0.0000 O   0  0  0  0  0  0  0  0  0  0  0  0
   -4.6351    2.0944    0.0000 C   0  0  0  0  0  0  0  0  0  0  0  0
    3.5983   -1.5931    0.0000 C   0  0  0  0  0  0  0  0  0  0  0  0
   -5.0300    2.8188    0.0000 C   0  0  0  0  0  0  0  0  0  0  0  0
    4.3330   -2.8154    0.0000 O   0  5  0  0  0  0  0  0  0  0  0  0
   -3.3544   -0.1819    0.0000 O   0  0  0  0  0  0  0  0  0  0  0  0
   -0.0377    2.0566    0.0000 C   0  0  0  0  0  0  0  0  0  0  0  0
   -0.7245    0.8034    0.0000 C   0  0  0  0  0  0  0  0  0  0  0  0
    5.0300   -1.5691    0.0000 O   0  0  0  0  0  0  0  0  0  0  0  0
   -3.1244    2.7055    0.0000 O   0  0  0  0  0  0  0  0  0  0  0  0
   -4.2884    1.3459    0.0000 C   0  0  0  0  0  0  0  0  0  0  0  0
    2.8875   -2.0120    0.0000 C   0  0  0  0  0  0  0  0  0  0  0  0
    3.5845   -0.7657    0.0000 C   0  0  0  0  0  0  0  0  0  0  0  0
    0.0206   -0.4189    0.0000 I   0  0  0  0  0  0  0  0  0  0  0  0
    1.3940    2.0738    0.0000 I   0  0  0  0  0  0  0  0  0  0  0  0
    1.4420   -0.3982    0.0000 C   0  0  0  0  0  0  0  0  0  0  0  0
    2.1631   -0.7931    0.0000 C   0  0  0  0  0  0  0  0  0  0  0  0
    2.8635   -0.3605    0.0000 C   0  0  0  0  0  0  0  0  0  0  0  0
    2.1734   -1.6171    0.0000 C   0  0  0  0  0  0  0  0  0  0  0  0
  2  1  1  0  0  0  0
  3  1  1  0  0  0  0
  4  3  1  0  0  0  0
  5  2  1  0  0  0  0
  5  4  1  0  0  0  0
  6 14  1  0  0  0  0
  7  9  1  0  0  0  0
  8  4  2  0  0  0  0
  9 19  2  0  0  0  0
 10 18  1  0  0  0  0
 10  7  2  0  0  0  0
 11  8  1  0  0  0  0
 12  7  1  0  0  0  0
 13 22  1  0  0  0  0
 14 23  2  0  0  0  0
 15 13  3  0  0  0  0
 16  6  1  0  0  0  0
 17  2  2  0  0  0  0
 18 11  2  0  0  0  0
 19 11  1  0  0  0  0
 20  6  2  0  0  0  0
 21  3  2  0  0  0  0
 22  1  1  0  0  0  0
 23 30  1  0  0  0  0
 24 29  2  0  0  0  0
 24 14  1  0  0  0  0
 25  9  1  0  0  0  0
 26 10  1  0  0  0  0
 27 12  1  0  0  0  0
 28 27  1  0  0  0  0
 29 28  1  0  0  0  0
 30 28  2  0  0  0  0
M  END
> <Mol Weight>
646.194

> <Click ID>
CLK024_B04

> <Plant Activity>
0

> <Yeast Activity>
1 __ __ 

$$$$
