CLK003F09
 OpenBabel03181413552D

 14 15  0  0  0  0  0  0  0  0999 V2000
   -0.5092    0.0620    0.0000 C   0  0  0  0  0  0  0  0  0  0  0  0
   -0.5092    0.8858    0.0000 C   0  0  0  0  0  0  0  0  0  0  0  0
    0.2081   -0.3454    0.0000 C   0  0  0  0  0  0  0  0  0  0  0  0
   -1.2311   -0.3454    0.0000 N   0  0  0  0  0  0  0  0  0  0  0  0
    0.2081    1.2974    0.0000 C   0  0  0  0  0  0  0  0  0  0  0  0
   -1.2311    1.2974    0.0000 C   0  0  0  0  0  0  0  0  0  0  0  0
    0.9300    0.0620    0.0000 C   0  0  0  0  0  0  0  0  0  0  0  0
    0.2081   -1.1690    0.0000 S   0  0  0  0  0  0  0  0  0  0  0  0
   -1.9485    0.0620    0.0000 C   0  0  0  0  0  0  0  0  0  0  0  0
    0.9300    0.8858    0.0000 C   0  0  0  0  0  0  0  0  0  0  0  0
   -1.9485    0.8858    0.0000 C   0  0  0  0  0  0  0  0  0  0  0  0
    0.9300   -1.5810    0.0000 C   0  0  0  0  0  0  0  0  0  0  0  0
    1.6342   -1.1956    0.0000 C   0  0  0  0  0  0  0  0  0  0  0  0
    2.3294   -0.8104    0.0000 C   0  0  0  0  0  0  0  0  0  0  0  0
  1  2  1  0  0  0  0
  1  3  2  0  0  0  0
  1  4  1  0  0  0  0
  2  5  2  0  0  0  0
  2  6  1  0  0  0  0
  3  7  1  0  0  0  0
  3  8  1  0  0  0  0
  4  9  2  0  0  0  0
  5 10  1  0  0  0  0
  6 11  2  0  0  0  0
  7 10  2  0  0  0  0
  8 12  1  0  0  0  0
  9 11  1  0  0  0  0
 12 13  1  0  0  0  0
 13 14  3  0  0  0  0
M  END
> <Mol Weight>
199.272

> <Click ID>
CLK003_F09

> <Plant Activity>
0

> <Yeast Activity>
1 __ __ 

$$$$
