CLK028B04
 OpenBabel03181410112D

 25 26  0  0  0  0  0  0  0  0999 V2000
    1.4273    0.4127    0.0000 C   0  0  0  0  0  0  0  0  0  0  0  0
    2.8476    0.4127    0.0000 N   0  0  0  0  0  0  0  0  0  0  0  0
    2.8476   -0.4195    0.0000 C   0  0  0  0  0  0  0  0  0  0  0  0
    2.1357    0.8289    0.0000 C   0  0  0  0  0  0  0  0  0  0  0  0
    2.1357   -0.8254    0.0000 N   0  0  0  0  0  0  0  0  0  0  0  0
    1.4273   -0.4195    0.0000 C   0  0  0  0  0  0  0  0  0  0  0  0
    0.7050    0.8254    0.0000 C   0  0  0  0  0  0  0  0  0  0  0  0
    3.5698   -0.8322    0.0000 S   0  0  0  0  0  0  0  0  0  0  0  0
   -3.5767   -0.8322    0.0000 C   0  0  0  0  0  0  0  0  0  0  0  0
   -4.2885   -1.2449    0.0000 C   0  0  0  0  0  0  0  0  0  0  0  0
    2.1357    1.6611    0.0000 O   0  0  0  0  0  0  0  0  0  0  0  0
   -0.7187   -0.8322    0.0000 C   0  0  0  0  0  0  0  0  0  0  0  0
    0.7050   -0.8322    0.0000 O   0  0  0  0  0  0  0  0  0  0  0  0
   -0.0138    0.4127    0.0000 C   0  0  0  0  0  0  0  0  0  0  0  0
    0.0000   -0.4195    0.0000 C   0  0  0  0  0  0  0  0  0  0  0  0
   -1.4306   -0.4195    0.0000 C   0  0  0  0  0  0  0  0  0  0  0  0
    3.5698    0.8254    0.0000 C   0  0  0  0  0  0  0  0  0  0  0  0
    3.5698    1.6508    0.0000 C   0  0  0  0  0  0  0  0  0  0  0  0
   -1.4306    0.3989    0.0000 C   0  0  0  0  0  0  0  0  0  0  0  0
    4.2852    2.0600    0.0000 C   0  0  0  0  0  0  0  0  0  0  0  0
   -0.7187    0.8116    0.0000 C   0  0  0  0  0  0  0  0  0  0  0  0
   -0.7187   -1.6473    0.0000 O   0  0  0  0  0  0  0  0  0  0  0  0
   -2.1460   -0.8322    0.0000 O   0  0  0  0  0  0  0  0  0  0  0  0
   -2.8544   -0.4195    0.0000 C   0  0  0  0  0  0  0  0  0  0  0  0
   -1.4341   -2.0566    0.0000 C   0  0  0  0  0  0  0  0  0  0  0  0
  2  4  1  0  0  0  0
  3  5  1  0  0  0  0
  3  2  1  0  0  0  0
  4  1  1  0  0  0  0
  5  6  1  0  0  0  0
  6  1  1  0  0  0  0
  7  1  2  0  0  0  0
  8  3  2  0  0  0  0
  9 24  1  0  0  0  0
 10  9  3  0  0  0  0
 11  4  2  0  0  0  0
 12 15  1  0  0  0  0
 13  6  2  0  0  0  0
 14  7  1  0  0  0  0
 15 14  2  0  0  0  0
 16 19  1  0  0  0  0
 16 12  2  0  0  0  0
 17  2  1  0  0  0  0
 18 17  1  0  0  0  0
 19 21  2  0  0  0  0
 20 18  2  0  0  0  0
 21 14  1  0  0  0  0
 22 12  1  0  0  0  0
 23 16  1  0  0  0  0
 24 23  1  0  0  0  0
 25 22  1  0  0  0  0
M  END
> <Mol Weight>
356.396

> <Click ID>
CLK028_B04

> <Plant Activity>
0

> <Yeast Activity>
1 __ __ 

$$$$
