CLK020B08
 OpenBabel03181410112D

 24 26  0  0  0  0  0  0  0  0999 V2000
    4.2394   -2.4887    0.0000 C   0  0  0  0  0  0  0  0  0  0  0  0
    5.4632   -3.2174    0.0000 N   0  0  0  0  0  0  0  0  0  0  0  0
    5.0598   -2.4933    0.0000 C   0  0  0  0  0  0  0  0  0  0  0  0
    4.2211   -3.9095    0.0000 N   0  0  0  0  0  0  0  0  0  0  0  0
    3.8132   -3.1945    0.0000 C   0  0  0  0  0  0  0  0  0  0  0  0
    3.8361   -1.7646    0.0000 C   0  0  0  0  0  0  0  0  0  0  0  0
    3.0111   -1.7508    0.0000 C   0  0  0  0  0  0  0  0  0  0  0  0
    3.0570    1.0999    0.0000 C   0  0  0  0  0  0  0  0  0  0  0  0
    2.6537    1.8241    0.0000 C   0  0  0  0  0  0  0  0  0  0  0  0
    6.2607   -3.4420    0.0000 C   0  0  0  0  0  0  0  0  0  0  0  0
    5.4770   -1.7875    0.0000 O   0  0  0  0  0  0  0  0  0  0  0  0
    2.6124   -1.0358    0.0000 C   0  0  0  0  0  0  0  0  0  0  0  0
    2.9883   -3.1807    0.0000 C   0  0  0  0  0  0  0  0  0  0  0  0
    3.0295   -0.3208    0.0000 O   0  0  0  0  0  0  0  0  0  0  0  0
    2.6308    0.3941    0.0000 C   0  0  0  0  0  0  0  0  0  0  0  0
    2.5896   -2.4658    0.0000 C   0  0  0  0  0  0  0  0  0  0  0  0
    6.4623   -4.2394    0.0000 C   0  0  0  0  0  0  0  0  0  0  0  0
    6.8519   -2.8645    0.0000 C   0  0  0  0  0  0  0  0  0  0  0  0
    1.7875   -1.0221    0.0000 C   0  0  0  0  0  0  0  0  0  0  0  0
    1.7646   -2.4521    0.0000 C   0  0  0  0  0  0  0  0  0  0  0  0
    7.2507   -4.4595    0.0000 C   0  0  0  0  0  0  0  0  0  0  0  0
    7.6447   -3.0845    0.0000 C   0  0  0  0  0  0  0  0  0  0  0  0
    1.3658   -1.7325    0.0000 C   0  0  0  0  0  0  0  0  0  0  0  0
    7.8418   -3.8911    0.0000 C   0  0  0  0  0  0  0  0  0  0  0  0
  2  3  1  0  0  0  0
  3  1  1  0  0  0  0
  4  5  2  0  0  0  0
  4  2  1  0  0  0  0
  5  1  1  0  0  0  0
  6  1  2  0  0  0  0
  7  6  1  0  0  0  0
  8 15  1  0  0  0  0
  9  8  3  0  0  0  0
 10  2  1  0  0  0  0
 11  3  2  0  0  0  0
 12  7  1  0  0  0  0
 13  5  1  0  0  0  0
 14 12  1  0  0  0  0
 15 14  1  0  0  0  0
 16  7  2  0  0  0  0
 17 10  2  0  0  0  0
 18 10  1  0  0  0  0
 19 12  2  0  0  0  0
 19 23  1  0  0  0  0
 20 16  1  0  0  0  0
 21 17  1  0  0  0  0
 22 18  2  0  0  0  0
 23 20  2  0  0  0  0
 24 22  1  0  0  0  0
 24 21  2  0  0  0  0
M  END
> <Mol Weight>
316.3532

> <Click ID>
CLK020_B08

> <Plant Activity>
0

> <Yeast Activity>
1 __ __ 

$$$$
