CLK010H03
 OpenBabel03181410112D

 26 28  0  0  0  0  0  0  0  0999 V2000
    1.5484   -0.7578    0.0000 N   0  0  0  0  0  0  0  0  0  0  0  0
    2.0481   -0.1423    0.0000 C   0  0  0  0  0  0  0  0  0  0  0  0
    2.8224   -0.4367    0.0000 N   0  0  0  0  0  0  0  0  0  0  0  0
   -2.8455    1.7338    0.0000 N   0  3  0  0  0  0  0  0  0  0  0  0
    1.9853   -1.4591    0.0000 C   0  0  0  0  0  0  0  0  0  0  0  0
    0.7181   -0.6982    0.0000 C   0  0  0  0  0  0  0  0  0  0  0  0
    2.7793   -1.2441    0.0000 C   0  0  0  0  0  0  0  0  0  0  0  0
    0.3606    0.0496    0.0000 C   0  0  0  0  0  0  0  0  0  0  0  0
   -2.0216    1.6675    0.0000 C   0  0  0  0  0  0  0  0  0  0  0  0
    2.1871    2.0415    0.0000 C   0  0  0  0  0  0  0  0  0  0  0  0
    1.9687    2.8356    0.0000 C   0  0  0  0  0  0  0  0  0  0  0  0
   -3.2028    2.4683    0.0000 O   0  5  0  0  0  0  0  0  0  0  0  0
   -0.4764    0.1158    0.0000 C   0  0  0  0  0  0  0  0  0  0  0  0
   -3.3021    1.0423    0.0000 O   0  0  0  0  0  0  0  0  0  0  0  0
    1.8298    0.6518    0.0000 S   0  0  0  0  0  0  0  0  0  0  0  0
    0.2515   -1.3896    0.0000 O   0  0  0  0  0  0  0  0  0  0  0  0
   -1.6642    0.9232    0.0000 C   0  0  0  0  0  0  0  0  0  0  0  0
   -0.8338    0.8603    0.0000 C   0  0  0  0  0  0  0  0  0  0  0  0
    2.4055    1.2474    0.0000 C   0  0  0  0  0  0  0  0  0  0  0  0
    1.7702   -2.2367    0.0000 C   0  0  0  0  0  0  0  0  0  0  0  0
    3.3584   -1.8298    0.0000 C   0  0  0  0  0  0  0  0  0  0  0  0
   -1.5484    2.3392    0.0000 C   0  0  0  0  0  0  0  0  0  0  0  0
   -0.7246    2.2731    0.0000 C   0  0  0  0  0  0  0  0  0  0  0  0
   -0.3540    1.5253    0.0000 C   0  0  0  0  0  0  0  0  0  0  0  0
    2.3426   -2.8323    0.0000 C   0  0  0  0  0  0  0  0  0  0  0  0
    3.1400   -2.6205    0.0000 C   0  0  0  0  0  0  0  0  0  0  0  0
  2  1  1  0  0  0  0
  3  2  2  0  0  0  0
  4  9  1  0  0  0  0
  5  1  1  0  0  0  0
  6  1  1  0  0  0  0
  7  5  1  0  0  0  0
  7  3  1  0  0  0  0
  8  6  1  0  0  0  0
  9 17  2  0  0  0  0
 10 19  1  0  0  0  0
 11 10  3  0  0  0  0
 12  4  1  0  0  0  0
 13  8  2  0  0  0  0
 14  4  2  0  0  0  0
 15  2  1  0  0  0  0
 16  6  2  0  0  0  0
 17 18  1  0  0  0  0
 18 13  1  0  0  0  0
 19 15  1  0  0  0  0
 20  5  2  0  0  0  0
 21  7  2  0  0  0  0
 22 23  2  0  0  0  0
 22  9  1  0  0  0  0
 23 24  1  0  0  0  0
 24 18  2  0  0  0  0
 25 20  1  0  0  0  0
 26 25  2  0  0  0  0
 26 21  1  0  0  0  0
M  END
> <Mol Weight>
363.39

> <Click ID>
CLK010_H03

> <Plant Activity>
0

> <Yeast Activity>
1 __ __ 

$$$$
