CLK020G03
 OpenBabel03181410112D

 17 17  0  0  0  0  0  0  0  0999 V2000
    6.9857    2.5652    0.0000 N    0  0  0  0  0  0  0  0  0  0  0  0
    3.2753    1.8415    0.0000 C    0  0  0  0  0  0  0  0  0  0  0  0
    3.6876    1.1269    0.0000 C    0  0  0  0  0  0  0  0  0  0  0  0
    3.6876    2.5652    0.0000 C    0  0  0  0  0  0  0  0  0  0  0  0
    6.1612    2.5652    0.0000 C    0  0  0  0  0  0  0  0  0  0  0  0
    1.2139    2.5652    0.0000 C    0  0  0  0  0  0  0  0  0  0  0  0
    0.3894    2.5652    0.0000 C    0  0  0  0  0  0  0  0  0  0  0  0
    5.7489    1.8415    0.0000 C    0  0  0  0  0  0  0  0  0  0  0  0
    7.3980    3.2798    0.0000 O    0  0  0  0  0  0  0  0  0  0  0  0
    4.9244    1.8415    0.0000 C    0  0  0  0  0  0  0  0  0  0  0  0
    7.3980    1.8415    0.0000 O    0  0  0  0  0  0  0  0  0  0  0  0
    4.5121    1.1269    0.0000 C    0  0  0  0  0  0  0  0  0  0  0  0
    4.5121    2.5652    0.0000 C    0  0  0  0  0  0  0  0  0  0  0  0
    3.2753    0.4123    0.0000 Cl   0  0  0  0  0  0  0  0  0  0  0  0
    3.2753    3.2798    0.0000 Cl   0  0  0  0  0  0  0  0  0  0  0  0
    2.4508    1.8415    0.0000 O    0  0  0  0  0  0  0  0  0  0  0  0
    2.0385    2.5652    0.0000 C    0  0  0  0  0  0  0  0  0  0  0  0
  2  4  1  0  0  0  0
  3 12  1  0  0  0  0
  3  2  2  0  0  0  0
  4 13  2  0  0  0  0
  5  1  1  0  0  0  0
  6 17  1  0  0  0  0
  7  6  3  0  0  0  0
  8  5  2  0  0  0  0
  9  1  1  0  0  0  0
 10  8  1  0  0  0  0
 11  1  2  0  0  0  0
 12 10  2  0  0  0  0
 13 10  1  0  0  0  0
 14  3  1  0  0  0  0
 15  4  1  0  0  0  0
 16  2  1  0  0  0  0
 17 16  1  0  0  0  0
M  END
> <Mol Weight>
272.084

> <Click ID>
CLK020_G03

> <Plant Activity>
0

> <Yeast Activity>
1 __ __ 

$$$$
