CLK043D04
 OpenBabel03181404502D

 21 22  0  0  0  0  0  0  0  0999 V2000
    0.0333    0.1000    0.0000 C   0  0  0  0  0  0  0  0  0  0  0  0
    0.7458    0.5125    0.0000 N   0  0  0  0  0  0  0  0  0  0  0  0
    0.0333   -0.7250    0.0000 C   0  0  0  0  0  0  0  0  0  0  0  0
   -0.6833    2.9875    0.0000 C   0  0  0  0  0  0  0  0  0  0  0  0
   -1.3958    3.4000    0.0000 C   0  0  0  0  0  0  0  0  0  0  0  0
   -0.6833   -1.1375    0.0000 C   0  0  0  0  0  0  0  0  0  0  0  0
   -0.6833   -1.9625    0.0000 C   0  0  0  0  0  0  0  0  0  0  0  0
    0.0333   -2.3750    0.0000 C   0  0  0  0  0  0  0  0  0  0  0  0
   -0.6833    0.5125    0.0000 O   0  0  0  0  0  0  0  0  0  0  0  0
    0.7458    1.3375    0.0000 C   0  0  0  0  0  0  0  0  0  0  0  0
    0.7458   -1.1375    0.0000 C   0  0  0  0  0  0  0  0  0  0  0  0
    0.7458   -1.9625    0.0000 C   0  0  0  0  0  0  0  0  0  0  0  0
    0.0333    2.5750    0.0000 C   0  0  0  0  0  0  0  0  0  0  0  0
    0.0333    1.7500    0.0000 C   0  0  0  0  0  0  0  0  0  0  0  0
   -1.3958   -2.3750    0.0000 O   0  0  0  0  0  0  0  0  0  0  0  0
    0.0333   -3.2000    0.0000 O   0  0  0  0  0  0  0  0  0  0  0  0
    1.4625    2.5750    0.0000 C   0  0  0  0  0  0  0  0  0  0  0  0
    1.4625    1.7500    0.0000 C   0  0  0  0  0  0  0  0  0  0  0  0
    0.7458    2.9875    0.0000 C   0  0  0  0  0  0  0  0  0  0  0  0
   -2.1125   -1.9625    0.0000 C   0  0  0  0  0  0  0  0  0  0  0  0
    0.7458   -3.6125    0.0000 C   0  0  0  0  0  0  0  0  0  0  0  0
  2  1  1  0  0  0  0
  3  1  1  0  0  0  0
  4 13  1  0  0  0  0
  5  4  3  0  0  0  0
  6  3  2  0  0  0  0
  7  6  1  0  0  0  0
  8  7  2  0  0  0  0
  9  1  2  0  0  0  0
 10  2  1  0  0  0  0
 11  3  1  0  0  0  0
 12 11  2  0  0  0  0
 12  8  1  0  0  0  0
 13 14  1  0  0  0  0
 14 10  2  0  0  0  0
 15  7  1  0  0  0  0
 16  8  1  0  0  0  0
 17 18  2  0  0  0  0
 18 10  1  0  0  0  0
 19 13  2  0  0  0  0
 19 17  1  0  0  0  0
 20 15  1  0  0  0  0
 21 16  1  0  0  0  0
M  END
> <CdId>
3268

> <Mol Weight>
281.3059

> <Formula>
C17H15NO3

> <Click_ID>
CLK043D04 __ __ 

$$$$
