CLK026_C08
 OpenBabel03181404502D

 23 25  0  0  0  0  0  0  0  0999 V2000
   -2.5921    0.4068    0.0000 N    0  0  0  0  0  0  0  0  0  0  0  0
   -3.1437   -0.2206    0.0000 C    0  0  0  0  0  0  0  0  0  0  0  0
   -1.9166   -0.7584    0.0000 C    0  0  0  0  0  0  0  0  0  0  0  0
   -1.8304    0.0724    0.0000 C    0  0  0  0  0  0  0  0  0  0  0  0
   -2.7300   -0.9342    0.0000 S    0  0  0  0  0  0  0  0  0  0  0  0
   -1.2926   -1.3098    0.0000 C    0  0  0  0  0  0  0  0  0  0  0  0
    0.8341   -1.0583    0.0000 C    0  0  0  0  0  0  0  0  0  0  0  0
    0.1620   -1.5339    0.0000 O    0  0  0  0  0  0  0  0  0  0  0  0
   -0.5067   -1.0583    0.0000 C    0  0  0  0  0  0  0  0  0  0  0  0
    0.5481   -0.2654    0.0000 C    0  0  0  0  0  0  0  0  0  0  0  0
   -2.1544    1.7752    0.0000 C    0  0  0  0  0  0  0  0  0  0  0  0
   -0.2689   -0.2689    0.0000 C    0  0  0  0  0  0  0  0  0  0  0  0
   -1.5684    2.3716    0.0000 C    0  0  0  0  0  0  0  0  0  0  0  0
   -3.9709   -0.1310    0.0000 O    0  0  0  0  0  0  0  0  0  0  0  0
    1.6132   -1.3168    0.0000 C    0  0  0  0  0  0  0  0  0  0  0  0
   -1.1168    0.4998    0.0000 O    0  0  0  0  0  0  0  0  0  0  0  0
   -2.7679    1.2134    0.0000 C    0  0  0  0  0  0  0  0  0  0  0  0
    1.7855   -2.1234    0.0000 C    0  0  0  0  0  0  0  0  0  0  0  0
    2.2130   -0.7584    0.0000 C    0  0  0  0  0  0  0  0  0  0  0  0
    3.1782   -1.8165    0.0000 C    0  0  0  0  0  0  0  0  0  0  0  0
    2.5542   -2.3681    0.0000 C    0  0  0  0  0  0  0  0  0  0  0  0
    2.9920   -1.0169    0.0000 C    0  0  0  0  0  0  0  0  0  0  0  0
    3.9675   -2.0820    0.0000 Cl   0  0  0  0  0  0  0  0  0  0  0  0
  2  1  1  0  0  0  0
  3  4  1  0  0  0  0
  4  1  1  0  0  0  0
  5  2  1  0  0  0  0
  5  3  1  0  0  0  0
  6  3  2  0  0  0  0
  7  8  1  0  0  0  0
  8  9  1  0  0  0  0
  9  6  1  0  0  0  0
 10 12  1  0  0  0  0
 10  7  2  0  0  0  0
 11 17  1  0  0  0  0
 12  9  2  0  0  0  0
 13 11  3  0  0  0  0
 14  2  2  0  0  0  0
 15  7  1  0  0  0  0
 16  4  2  0  0  0  0
 17  1  1  0  0  0  0
 18 15  2  0  0  0  0
 19 15  1  0  0  0  0
 20 22  1  0  0  0  0
 20 21  2  0  0  0  0
 21 18  1  0  0  0  0
 22 19  2  0  0  0  0
 23 20  1  0  0  0  0
M  END
> <CdId>
1963

> <Mol Weight>
343.784

> <Formula>
C17H10ClNO3S

> <Click_ID>
CLK026_C08 __ __ 

$$$$
