CLK016_C08
 OpenBabel03181404502D

 17 18  0  0  0  0  0  0  0  0999 V2000
    1.5619   -0.8142    0.0000 N   0  0  0  0  0  0  0  0  0  0  0  0
    1.8195   -1.5993    0.0000 C   0  0  0  0  0  0  0  0  0  0  0  0
    2.8954   -0.8142    0.0000 C   0  0  0  0  0  0  0  0  0  0  0  0
    2.2307   -0.3282    0.0000 C   0  0  0  0  0  0  0  0  0  0  0  0
    2.6420   -1.5993    0.0000 S   0  0  0  0  0  0  0  0  0  0  0  0
    3.6805   -0.5608    0.0000 C   0  0  0  0  0  0  0  0  0  0  0  0
    3.8425    0.2451    0.0000 C   0  0  0  0  0  0  0  0  0  0  0  0
    4.5985    0.5857    0.0000 S   0  0  0  0  0  0  0  0  0  0  0  0
    0.6106    0.2451    0.0000 C   0  0  0  0  0  0  0  0  0  0  0  0
    4.5113    1.4040    0.0000 C   0  0  0  0  0  0  0  0  0  0  0  0
    3.2900    0.8599    0.0000 C   0  0  0  0  0  0  0  0  0  0  0  0
    0.3905    1.0426    0.0000 C   0  0  0  0  0  0  0  0  0  0  0  0
    3.7012    1.5785    0.0000 C   0  0  0  0  0  0  0  0  0  0  0  0
    1.3334   -2.2598    0.0000 O   0  0  0  0  0  0  0  0  0  0  0  0
    2.2224    0.4943    0.0000 O   0  0  0  0  0  0  0  0  0  0  0  0
    0.7851   -0.5608    0.0000 C   0  0  0  0  0  0  0  0  0  0  0  0
    5.1136    1.9565    0.0000 C   0  0  0  0  0  0  0  0  0  0  0  0
  2  1  1  0  0  0  0
  3  4  1  0  0  0  0
  3  5  1  0  0  0  0
  4  1  1  0  0  0  0
  5  2  1  0  0  0  0
  6  3  2  0  0  0  0
  7  6  1  0  0  0  0
  8  7  1  0  0  0  0
  9 16  1  0  0  0  0
 10  8  1  0  0  0  0
 10 13  2  0  0  0  0
 11  7  2  0  0  0  0
 12  9  3  0  0  0  0
 13 11  1  0  0  0  0
 14  2  2  0  0  0  0
 15  4  2  0  0  0  0
 16  1  1  0  0  0  0
 17 10  1  0  0  0  0
M  END
> <CdId>
1183

> <Mol Weight>
263.335

> <Formula>
C12H9NO2S2

> <Click_ID>
CLK016_C08 __ __ 

$$$$
