CLK039A11
 OpenBabel03181404502D

 27 28  0  0  0  0  0  0  0  0999 V2000
    1.3777   -2.1518    0.0000 C   0  0  0  0  0  0  0  0  0  0  0  0
    1.1237   -2.9342    0.0000 N   0  3  0  0  0  0  0  0  0  0  0  0
    0.8907   -1.4858    0.0000 O   0  0  0  0  0  0  0  0  0  0  0  0
    1.3777   -0.8199    0.0000 C   0  0  0  0  0  0  0  0  0  0  0  0
    1.1237   -0.0333    0.0000 C   0  0  0  0  0  0  0  0  0  0  0  0
    0.6118    1.5316    0.0000 C   0  0  0  0  0  0  0  0  0  0  0  0
    1.6731    0.5786    0.0000 N   0  0  0  0  0  0  0  0  0  0  0  0
    0.0624    0.9198    0.0000 C   0  0  0  0  0  0  0  0  0  0  0  0
    1.4192    1.3610    0.0000 C   0  0  0  0  0  0  0  0  0  0  0  0
    2.1601   -1.8979    0.0000 C   0  0  0  0  0  0  0  0  0  0  0  0
    2.1601   -1.0738    0.0000 C   0  0  0  0  0  0  0  0  0  0  0  0
   -4.0122   -0.4037    0.0000 C   0  0  0  0  0  0  0  0  0  0  0  0
   -4.5616   -1.0156    0.0000 C   0  0  0  0  0  0  0  0  0  0  0  0
    0.3163   -3.1048    0.0000 O   0  5  0  0  0  0  0  0  0  0  0  0
    1.6731   -3.5460    0.0000 O   0  0  0  0  0  0  0  0  0  0  0  0
   -2.1019    0.6493    0.0000 C   0  0  0  0  0  0  0  0  0  0  0  0
   -0.7450    1.0905    0.0000 O   0  0  0  0  0  0  0  0  0  0  0  0
    0.3163    0.1373    0.0000 O   0  0  0  0  0  0  0  0  0  0  0  0
   -0.1082    0.1124    0.0000 O   0  0  0  0  0  0  0  0  0  0  0  0
   -2.3557    1.4359    0.0000 O   0  0  0  0  0  0  0  0  0  0  0  0
   -1.2944    0.4787    0.0000 C   0  0  0  0  0  0  0  0  0  0  0  0
   -2.6553    0.0375    0.0000 N   0  0  0  0  0  0  0  0  0  0  0  0
   -3.4586    0.2081    0.0000 C   0  0  0  0  0  0  0  0  0  0  0  0
    0.3579    2.3182    0.0000 C   0  0  0  0  0  0  0  0  0  0  0  0
    1.9686    1.9728    0.0000 C   0  0  0  0  0  0  0  0  0  0  0  0
    0.9115    2.9300    0.0000 C   0  0  0  0  0  0  0  0  0  0  0  0
    1.7148    2.7594    0.0000 C   0  0  0  0  0  0  0  0  0  0  0  0
  2  1  1  0  0  0  0
  3  1  1  0  0  0  0
  4  3  1  0  0  0  0
  4 11  2  0  0  0  0
  5  4  1  0  0  0  0
  6  9  2  0  0  0  0
  7  5  1  0  0  0  0
  8  6  1  0  0  0  0
  9  7  1  0  0  0  0
 10  1  2  0  0  0  0
 11 10  1  0  0  0  0
 12 23  1  0  0  0  0
 13 12  3  0  0  0  0
 14  2  1  0  0  0  0
 15  2  2  0  0  0  0
 16 21  1  0  0  0  0
 17  8  1  0  0  0  0
 18  5  2  0  0  0  0
 19  8  2  0  0  0  0
 20 16  2  0  0  0  0
 21 17  1  0  0  0  0
 22 16  1  0  0  0  0
 23 22  1  0  0  0  0
 24  6  1  0  0  0  0
 25  9  1  0  0  0  0
 26 24  2  0  0  0  0
 26 27  1  0  0  0  0
 27 25  2  0  0  0  0
M  END
> <CdId>
3001

> <Mol Weight>
371.301

> <Formula>
C17H13N3O7

> <Click_ID>
CLK039A11 __ __ 

$$$$
