CLK009_F11
 OpenBabel03181404502D

 15 16  0  0  0  0  0  0  0  0999 V2000
   -3.5047    1.8021    0.0000 N   0  0  0  0  0  0  0  0  0  0  0  0
   -4.2069    1.3808    0.0000 C   0  0  0  0  0  0  0  0  0  0  0  0
   -3.5047    2.6154    0.0000 C   0  0  0  0  0  0  0  0  0  0  0  0
   -4.2069    3.0367    0.0000 N   0  0  0  0  0  0  0  0  0  0  0  0
   -4.9324    1.8021    0.0000 C   0  0  0  0  0  0  0  0  0  0  0  0
   -4.9324    2.6154    0.0000 C   0  0  0  0  0  0  0  0  0  0  0  0
   -2.0362    4.2420    0.0000 C   0  0  0  0  0  0  0  0  0  0  0  0
   -2.0362    5.0670    0.0000 C   0  0  0  0  0  0  0  0  0  0  0  0
   -4.1718    0.5617    0.0000 O   0  0  0  0  0  0  0  0  0  0  0  0
   -2.7675    3.0133    0.0000 S   0  0  0  0  0  0  0  0  0  0  0  0
   -5.6462    1.3808    0.0000 C   0  0  0  0  0  0  0  0  0  0  0  0
   -2.7675    3.8558    0.0000 C   0  0  0  0  0  0  0  0  0  0  0  0
   -5.6462    3.0367    0.0000 C   0  0  0  0  0  0  0  0  0  0  0  0
   -6.3484    1.8021    0.0000 C   0  0  0  0  0  0  0  0  0  0  0  0
   -6.3484    2.6154    0.0000 C   0  0  0  0  0  0  0  0  0  0  0  0
  2  1  1  0  0  0  0
  3  1  1  0  0  0  0
  4  3  2  0  0  0  0
  5  2  1  0  0  0  0
  6  4  1  0  0  0  0
  6  5  2  0  0  0  0
  7 12  1  0  0  0  0
  8  7  3  0  0  0  0
  9  2  2  0  0  0  0
 10  3  1  0  0  0  0
 11  5  1  0  0  0  0
 12 10  1  0  0  0  0
 13  6  1  0  0  0  0
 14 11  2  0  0  0  0
 15 13  2  0  0  0  0
 15 14  1  0  0  0  0
M  END
> <CdId>
656

> <Mol Weight>
216.259

> <Formula>
C11H8N2OS

> <Click_ID>
CLK009_F11 __ __ 

$$$$
