CLK047A07
 OpenBabel03181404502D

 16 17  0  0  0  0  0  0  0  0999 V2000
    0.1750    0.1583    0.0000 C   0  0  3  0  0  0  0  0  0  0  0  0
   -0.5375    0.5708    0.0000 C   0  0  0  0  0  0  0  0  0  0  0  0
    0.1750   -0.6667    0.0000 C   0  0  0  0  0  0  0  0  0  0  0  0
    1.6042   -2.3167    0.0000 C   0  0  0  0  0  0  0  0  0  0  0  0
    2.3208   -2.7292    0.0000 C   0  0  0  0  0  0  0  0  0  0  0  0
   -0.5375    1.3958    0.0000 C   0  0  0  0  0  0  0  0  0  0  0  0
   -0.5375   -1.0792    0.0000 O   0  0  0  0  0  0  0  0  0  0  0  0
    0.8917   -1.0792    0.0000 N   0  0  0  0  0  0  0  0  0  0  0  0
    0.8917   -1.9042    0.0000 C   0  0  0  0  0  0  0  0  0  0  0  0
    0.8917    0.5708    0.0000 C   0  0  0  0  0  0  0  0  0  0  0  0
   -1.2542    0.1583    0.0000 C   0  0  0  0  0  0  0  0  0  0  0  0
    0.8917    1.3958    0.0000 C   0  0  0  0  0  0  0  0  0  0  0  0
    0.1750    1.8083    0.0000 C   0  0  0  0  0  0  0  0  0  0  0  0
   -1.2542    1.8083    0.0000 C   0  0  0  0  0  0  0  0  0  0  0  0
   -1.9667    0.5708    0.0000 C   0  0  0  0  0  0  0  0  0  0  0  0
   -1.9667    1.3958    0.0000 C   0  0  0  0  0  0  0  0  0  0  0  0
  2  1  1  0  0  0  0
  3  1  1  0  0  0  0
  4  9  1  0  0  0  0
  5  4  3  0  0  0  0
  6  2  2  0  0  0  0
  7  3  2  0  0  0  0
  8  3  1  0  0  0  0
  9  8  1  0  0  0  0
 10  1  1  0  0  0  0
 11  2  1  0  0  0  0
 12 10  1  0  0  0  0
 13  6  1  0  0  0  0
 13 12  1  0  0  0  0
 14  6  1  0  0  0  0
 15 11  2  0  0  0  0
 15 16  1  0  0  0  0
 16 14  2  0  0  0  0
M  END
> <CdId>
3609

> <Mol Weight>
213.275

> <Formula>
C14H15NO

> <Click_ID>
CLK047A07 __ __ 

$$$$
