CLK020_A08
 OpenBabel03181404502D

 20 21  0  0  0  0  0  0  0  0999 V2000
   -0.4535    0.1053    0.0000 C   0  0  0  0  0  0  0  0  0  0  0  0
    0.2520   -1.1315    0.0000 N   0  0  0  0  0  0  0  0  0  0  0  0
    0.9666    0.1053    0.0000 N   0  0  0  0  0  0  0  0  0  0  0  0
   -0.4535   -0.7192    0.0000 C   0  0  0  0  0  0  0  0  0  0  0  0
    0.2520    0.5176    0.0000 C   0  0  0  0  0  0  0  0  0  0  0  0
    0.9666   -0.7192    0.0000 C   0  0  0  0  0  0  0  0  0  0  0  0
   -1.1681    0.5176    0.0000 C   0  0  0  0  0  0  0  0  0  0  0  0
   -4.0265    2.9912    0.0000 C   0  0  0  0  0  0  0  0  0  0  0  0
   -4.7411    2.5789    0.0000 C   0  0  0  0  0  0  0  0  0  0  0  0
    0.2520    1.3421    0.0000 O   0  0  0  0  0  0  0  0  0  0  0  0
   -1.1681   -1.1315    0.0000 O   0  0  0  0  0  0  0  0  0  0  0  0
    1.6812   -1.1315    0.0000 O   0  0  0  0  0  0  0  0  0  0  0  0
   -1.1681    1.3468    0.0000 C   0  0  0  0  0  0  0  0  0  0  0  0
   -1.8827    1.7590    0.0000 C   0  0  0  0  0  0  0  0  0  0  0  0
   -1.8827    2.5789    0.0000 C   0  0  0  0  0  0  0  0  0  0  0  0
   -3.3119    2.5836    0.0000 C   0  0  0  0  0  0  0  0  0  0  0  0
   -2.5973    2.9912    0.0000 O   0  0  0  0  0  0  0  0  0  0  0  0
   -0.4535    2.5789    0.0000 C   0  0  0  0  0  0  0  0  0  0  0  0
   -0.4535    1.7544    0.0000 C   0  0  0  0  0  0  0  0  0  0  0  0
   -1.1681    2.9912    0.0000 C   0  0  0  0  0  0  0  0  0  0  0  0
  2  4  1  0  0  0  0
  3  5  1  0  0  0  0
  4  1  1  0  0  0  0
  5  1  1  0  0  0  0
  6  3  1  0  0  0  0
  6  2  1  0  0  0  0
  7  1  2  0  0  0  0
  8 16  1  0  0  0  0
  9  8  3  0  0  0  0
 10  5  2  0  0  0  0
 11  4  2  0  0  0  0
 12  6  2  0  0  0  0
 13  7  1  0  0  0  0
 14 13  2  0  0  0  0
 15 14  1  0  0  0  0
 16 17  1  0  0  0  0
 17 15  1  0  0  0  0
 18 19  2  0  0  0  0
 19 13  1  0  0  0  0
 20 18  1  0  0  0  0
 20 15  2  0  0  0  0
M  END
> <CdId>
1483

> <Mol Weight>
270.2402

> <Formula>
C14H10N2O4

> <Click_ID>
CLK020_A08 __ __ 

$$$$
