CLK010_E02
 OpenBabel03181404502D

 19 20  0  0  0  0  0  0  0  0999 V2000
   -4.1994   -0.4642    0.0000 C   0  0  0  0  0  0  0  0  0  0  0  0
   -3.6481   -1.0952    0.0000 N   0  0  0  0  0  0  0  0  0  0  0  0
   -1.6246    0.9574    0.0000 C   0  0  0  0  0  0  0  0  0  0  0  0
   -4.9971   -0.6745    0.0000 C   0  0  0  0  0  0  0  0  0  0  0  0
   -1.4505    1.7986    0.0000 C   0  0  0  0  0  0  0  0  0  0  0  0
   -3.9165    0.3408    0.0000 O   0  0  0  0  0  0  0  0  0  0  0  0
   -2.8068   -0.8777    0.0000 C   0  0  0  0  0  0  0  0  0  0  0  0
   -5.5629   -0.0073    0.0000 C   0  0  0  0  0  0  0  0  0  0  0  0
   -1.7986    0.1232    0.0000 C   0  0  0  0  0  0  0  0  0  0  0  0
   -2.5602   -0.0870    0.0000 C   0  0  0  0  0  0  0  0  0  0  0  0
   -6.3535   -0.1814    0.0000 C   0  0  0  0  0  0  0  0  0  0  0  0
   -6.9119    0.4714    0.0000 O   0  0  0  0  0  0  0  0  0  0  0  0
   -5.2438   -1.4434    0.0000 C   0  0  0  0  0  0  0  0  0  0  0  0
   -6.0415   -1.6174    0.0000 C   0  0  0  0  0  0  0  0  0  0  0  0
   -1.4505   -1.2258    0.0000 C   0  0  0  0  0  0  0  0  0  0  0  0
   -2.2121   -1.4796    0.0000 C   0  0  0  0  0  0  0  0  0  0  0  0
   -1.2402   -0.4642    0.0000 C   0  0  0  0  0  0  0  0  0  0  0  0
   -6.6725   -0.9864    0.0000 C   0  0  0  0  0  0  0  0  0  0  0  0
   -7.7170    0.3408    0.0000 C   0  0  0  0  0  0  0  0  0  0  0  0
  2  1  1  0  0  0  0
  3  9  1  0  0  0  0
  4  1  1  0  0  0  0
  5  3  3  0  0  0  0
  6  1  2  0  0  0  0
  7  2  1  0  0  0  0
  8  4  1  0  0  0  0
  9 10  2  0  0  0  0
  9 17  1  0  0  0  0
 10  7  1  0  0  0  0
 11  8  2  0  0  0  0
 12 11  1  0  0  0  0
 13  4  2  0  0  0  0
 14 13  1  0  0  0  0
 15 16  1  0  0  0  0
 16  7  2  0  0  0  0
 17 15  2  0  0  0  0
 18 14  2  0  0  0  0
 18 11  1  0  0  0  0
 19 12  1  0  0  0  0
M  END
> <CdId>
717

> <Mol Weight>
251.2799

> <Formula>
C16H13NO2

> <Click_ID>
CLK010_E02 __ __ 

$$$$
