CLK024_G03
 OpenBabel03181404502D

 31 34  0  0  0  0  0  0  0  0999 V2000
    3.4847   -0.0482    0.0000 N    0  0  0  0  0  0  0  0  0  0  0  0
    3.0095    0.6163    0.0000 C    0  0  0  0  0  0  0  0  0  0  0  0
    2.2278   -0.4614    0.0000 C    0  0  0  0  0  0  0  0  0  0  0  0
    3.0095   -0.7093    0.0000 C    0  0  0  0  0  0  0  0  0  0  0  0
   -0.5130   -0.7610    0.0000 N    0  0  0  0  0  0  0  0  0  0  0  0
    0.8264   -0.7610    0.0000 C    0  0  0  0  0  0  0  0  0  0  0  0
    2.2278    0.3581    0.0000 S    0  0  0  0  0  0  0  0  0  0  0  0
    0.1618   -1.2465    0.0000 C    0  0  0  0  0  0  0  0  0  0  0  0
    1.6183   -1.0192    0.0000 C    0  0  0  0  0  0  0  0  0  0  0  0
   -0.2548    0.0275    0.0000 C    0  0  0  0  0  0  0  0  0  0  0  0
    0.5716    0.0275    0.0000 C    0  0  0  0  0  0  0  0  0  0  0  0
   -1.9076   -0.4545    0.0000 C    0  0  0  0  0  0  0  0  0  0  0  0
   -1.3016   -1.0123    0.0000 C    0  0  0  0  0  0  0  0  0  0  0  0
    4.7243    0.6853    0.0000 C    0  0  0  0  0  0  0  0  0  0  0  0
    5.1375    1.4117    0.0000 C    0  0  0  0  0  0  0  0  0  0  0  0
    3.2712    1.3980    0.0000 O    0  0  0  0  0  0  0  0  0  0  0  0
   -2.6996   -0.7093    0.0000 N    0  0  0  0  0  0  0  0  0  0  0  0
    3.2712   -1.5082    0.0000 O    0  0  0  0  0  0  0  0  0  0  0  0
    4.3214   -0.0345    0.0000 C    0  0  0  0  0  0  0  0  0  0  0  0
   -1.7286    0.3478    0.0000 O    0  0  0  0  0  0  0  0  0  0  0  0
   -3.3091   -0.1481    0.0000 C    0  0  0  0  0  0  0  0  0  0  0  0
   -4.5280    0.9572    0.0000 C    0  0  0  0  0  0  0  0  0  0  0  0
   -5.1375    1.5117    0.0000 Cl   0  0  0  0  0  0  0  0  0  0  0  0
   -4.0976   -0.4063    0.0000 C    0  0  0  0  0  0  0  0  0  0  0  0
   -3.1335    0.6543    0.0000 C    0  0  0  0  0  0  0  0  0  0  0  0
   -4.7105    0.1550    0.0000 C    0  0  0  0  0  0  0  0  0  0  0  0
   -3.7463    1.2051    0.0000 C    0  0  0  0  0  0  0  0  0  0  0  0
   -0.6646    0.7438    0.0000 C    0  0  0  0  0  0  0  0  0  0  0  0
    0.9917    0.7438    0.0000 C    0  0  0  0  0  0  0  0  0  0  0  0
    0.5785    1.4565    0.0000 C    0  0  0  0  0  0  0  0  0  0  0  0
   -0.2514    1.4565    0.0000 C    0  0  0  0  0  0  0  0  0  0  0  0
  2  1  1  0  0  0  0
  3  4  1  0  0  0  0
  4  1  1  0  0  0  0
  5  8  1  0  0  0  0
  6  9  1  0  0  0  0
  7  2  1  0  0  0  0
  7  3  1  0  0  0  0
  8  6  2  0  0  0  0
  9  3  2  0  0  0  0
 10 11  1  0  0  0  0
 10  5  1  0  0  0  0
 11  6  1  0  0  0  0
 12 13  1  0  0  0  0
 13  5  1  0  0  0  0
 14 19  1  0  0  0  0
 15 14  3  0  0  0  0
 16  2  2  0  0  0  0
 17 12  1  0  0  0  0
 18  4  2  0  0  0  0
 19  1  1  0  0  0  0
 20 12  2  0  0  0  0
 21 17  1  0  0  0  0
 22 27  2  0  0  0  0
 22 26  1  0  0  0  0
 23 22  1  0  0  0  0
 24 21  1  0  0  0  0
 25 21  2  0  0  0  0
 26 24  2  0  0  0  0
 27 25  1  0  0  0  0
 28 10  2  0  0  0  0
 29 11  2  0  0  0  0
 30 29  1  0  0  0  0
 31 30  2  0  0  0  0
 31 28  1  0  0  0  0
M  END
> <CdId>
1838

> <Mol Weight>
449.909

> <Formula>
C23H16ClN3O3S

> <Click_ID>
CLK024_G03 __ __ 

$$$$
