CLK022_G02
 OpenBabel03181404502D

 18 18  0  0  0  0  0  0  0  0999 V2000
    7.4021    1.2375    0.0000 C   0  0  0  0  0  0  0  0  0  0  0  0
    6.6871    1.6500    0.0000 N   0  0  0  0  0  0  0  0  0  0  0  0
    9.4187    1.8241    0.0000 C   0  0  0  0  0  0  0  0  0  0  0  0
    8.1171    1.6500    0.0000 N   0  0  0  0  0  0  0  0  0  0  0  0
   10.0009    2.4062    0.0000 C   0  0  0  0  0  0  0  0  0  0  0  0
    5.9721    1.2375    0.0000 C   0  0  0  0  0  0  0  0  0  0  0  0
    8.8321    1.2375    0.0000 C   0  0  0  0  0  0  0  0  0  0  0  0
    7.4021    0.4125    0.0000 O   0  0  0  0  0  0  0  0  0  0  0  0
    5.2571    1.6500    0.0000 C   0  0  0  0  0  0  0  0  0  0  0  0
    5.2571    2.4750    0.0000 F   0  0  0  0  0  0  0  0  0  0  0  0
    5.9721    0.4125    0.0000 C   0  0  0  0  0  0  0  0  0  0  0  0
    8.3600    0.5637    0.0000 C   0  0  0  0  0  0  0  0  0  0  0  0
    9.4646    0.7104    0.0000 C   0  0  0  0  0  0  0  0  0  0  0  0
    4.5421    1.2375    0.0000 C   0  0  0  0  0  0  0  0  0  0  0  0
    9.3225   -0.1009    0.0000 C   0  0  0  0  0  0  0  0  0  0  0  0
    8.7084   -0.1834    0.0000 C   0  0  0  0  0  0  0  0  0  0  0  0
    5.2571    0.0000    0.0000 C   0  0  0  0  0  0  0  0  0  0  0  0
    4.5421    0.4125    0.0000 C   0  0  0  0  0  0  0  0  0  0  0  0
  2  1  1  0  0  0  0
  3  7  1  0  0  0  0
  4  1  1  0  0  0  0
  5  3  3  0  0  0  0
  6  2  1  0  0  0  0
  7  4  1  0  0  0  0
  8  1  2  0  0  0  0
  9  6  1  0  0  0  0
 10  9  1  0  0  0  0
 11  6  2  0  0  0  0
 12  7  1  0  0  0  0
 13  7  1  0  0  0  0
 14  9  2  0  0  0  0
 14 18  1  0  0  0  0
 15 13  1  0  0  0  0
 16 12  1  0  0  0  0
 17 11  1  0  0  0  0
 18 17  2  0  0  0  0
M  END
> <CdId>
1683

> <Mol Weight>
248.296

> <Formula>
C14H17FN2O

> <Click_ID>
CLK022_G02 __ __ 

$$$$
