CLK024_B11
 OpenBabel03181404502D

 33 35  0  0  0  0  0  0  0  0999 V2000
   -0.0963   -1.9284    0.0000 N   0  0  0  0  0  0  0  0  0  0  0  0
    0.1650   -2.7189    0.0000 C   0  0  0  0  0  0  0  0  0  0  0  0
    0.5775   -1.4472    0.0000 C   0  0  0  0  0  0  0  0  0  0  0  0
    1.2443   -1.9284    0.0000 C   0  0  0  0  0  0  0  0  0  0  0  0
    0.9900   -2.7189    0.0000 S   0  0  0  0  0  0  0  0  0  0  0  0
    2.0349   -1.6774    0.0000 C   0  0  0  0  0  0  0  0  0  0  0  0
   -2.4508   -1.1653    0.0000 C   0  0  0  0  0  0  0  0  0  0  0  0
   -0.8765   -1.6774    0.0000 C   0  0  0  0  0  0  0  0  0  0  0  0
   -1.0518   -0.8731    0.0000 C   0  0  0  0  0  0  0  0  0  0  0  0
   -1.8390   -0.6119    0.0000 N   0  0  0  0  0  0  0  0  0  0  0  0
    3.6780    2.5952    0.0000 C   0  0  0  0  0  0  0  0  0  0  0  0
    3.8533    3.3927    0.0000 C   0  0  0  0  0  0  0  0  0  0  0  0
   -0.3265   -3.3927    0.0000 O   0  0  0  0  0  0  0  0  0  0  0  0
    1.7599    0.4915    0.0000 C   0  0  0  0  0  0  0  0  0  0  0  0
    0.5672   -0.6222    0.0000 O   0  0  0  0  0  0  0  0  0  0  0  0
    2.1999   -0.8731    0.0000 C   0  0  0  0  0  0  0  0  0  0  0  0
    1.5915   -0.3231    0.0000 C   0  0  0  0  0  0  0  0  0  0  0  0
    2.5368    0.7322    0.0000 C   0  0  0  0  0  0  0  0  0  0  0  0
   -0.4400   -0.3128    0.0000 O   0  0  0  0  0  0  0  0  0  0  0  0
   -2.2755   -1.9661    0.0000 C   0  0  0  0  0  0  0  0  0  0  0  0
   -3.2415   -0.9109    0.0000 C   0  0  0  0  0  0  0  0  0  0  0  0
    3.1487    0.1891    0.0000 C   0  0  0  0  0  0  0  0  0  0  0  0
    2.9767   -0.6222    0.0000 C   0  0  0  0  0  0  0  0  0  0  0  0
    1.1584    1.0347    0.0000 O   0  0  0  0  0  0  0  0  0  0  0  0
    2.7121    1.5433    0.0000 O   0  0  0  0  0  0  0  0  0  0  0  0
    3.4993    1.7943    0.0000 C   0  0  0  0  0  0  0  0  0  0  0  0
   -3.6814   -2.2687    0.0000 C   0  0  0  0  0  0  0  0  0  0  0  0
   -2.8909   -2.5265    0.0000 C   0  0  0  0  0  0  0  0  0  0  0  0
   -3.8567   -1.4609    0.0000 C   0  0  0  0  0  0  0  0  0  0  0  0
   -3.4098   -0.0997    0.0000 C   0  0  0  0  0  0  0  0  0  0  0  0
   -1.4884   -2.2171    0.0000 C   0  0  0  0  0  0  0  0  0  0  0  0
    0.3781    0.7803    0.0000 C   0  0  0  0  0  0  0  0  0  0  0  0
   -0.2337    1.3303    0.0000 C   0  0  0  0  0  0  0  0  0  0  0  0
  2  1  1  0  0  0  0
  3  1  1  0  0  0  0
  4  3  1  0  0  0  0
  4  5  1  0  0  0  0
  5  2  1  0  0  0  0
  6  4  2  0  0  0  0
  7 10  1  0  0  0  0
  8  1  1  0  0  0  0
  9  8  1  0  0  0  0
 10  9  1  0  0  0  0
 11 26  1  0  0  0  0
 12 11  3  0  0  0  0
 13  2  2  0  0  0  0
 14 17  1  0  0  0  0
 15  3  2  0  0  0  0
 16  6  1  0  0  0  0
 17 16  2  0  0  0  0
 18 22  1  0  0  0  0
 18 14  2  0  0  0  0
 19  9  2  0  0  0  0
 20  7  1  0  0  0  0
 21  7  2  0  0  0  0
 22 23  2  0  0  0  0
 23 16  1  0  0  0  0
 24 14  1  0  0  0  0
 25 18  1  0  0  0  0
 26 25  1  0  0  0  0
 27 29  2  0  0  0  0
 27 28  1  0  0  0  0
 28 20  2  0  0  0  0
 29 21  1  0  0  0  0
 30 21  1  0  0  0  0
 31 20  1  0  0  0  0
 32 24  1  0  0  0  0
 33 32  1  0  0  0  0
M  END
> <CdId>
1796

> <Mol Weight>
464.533

> <Formula>
C25H24N2O5S

> <Click_ID>
CLK024_B11 __ __ 

$$$$
