CLK019_B08
 OpenBabel03181404502D

 25 27  0  0  0  0  0  0  0  0999 V2000
    3.4064    1.8095    0.0000 C    0  0  0  0  0  0  0  0  0  0  0  0
    2.6893    2.2223    0.0000 C    0  0  0  0  0  0  0  0  0  0  0  0
    3.4148    0.3836    0.0000 C    0  0  0  0  0  0  0  0  0  0  0  0
    2.6810    3.0478    0.0000 C    0  0  0  0  0  0  0  0  0  0  0  0
    4.1319   -0.0292    0.0000 C    0  0  0  0  0  0  0  0  0  0  0  0
    4.8449   -0.4420    0.0000 N    0  0  0  0  0  0  0  0  0  0  0  0
    0.5504    0.9756    0.0000 C    0  0  0  0  0  0  0  0  0  0  0  0
   -0.1626    1.3842    0.0000 C    0  0  0  0  0  0  0  0  0  0  0  0
    1.9763    1.8012    0.0000 C    0  0  0  0  0  0  0  0  0  0  0  0
    2.7018   -0.0292    0.0000 C    0  0  0  0  0  0  0  0  0  0  0  0
    1.9680    3.4481    0.0000 C    0  0  0  0  0  0  0  0  0  0  0  0
    1.2633    2.2098    0.0000 C    0  0  0  0  0  0  0  0  0  0  0  0
    1.2550    3.0353    0.0000 C    0  0  0  0  0  0  0  0  0  0  0  0
    2.7018   -0.8673    0.0000 C    0  0  0  0  0  0  0  0  0  0  0  0
    1.9805    0.3752    0.0000 C    0  0  0  0  0  0  0  0  0  0  0  0
    1.2675   -0.8673    0.0000 C    0  0  0  0  0  0  0  0  0  0  0  0
    1.9805   -1.2800    0.0000 C    0  0  0  0  0  0  0  0  0  0  0  0
    1.2675   -0.0292    0.0000 C    0  0  0  0  0  0  0  0  0  0  0  0
    0.5546   -1.2800    0.0000 Cl   0  0  0  0  0  0  0  0  0  0  0  0
    1.9763    0.9839    0.0000 O    0  0  0  0  0  0  0  0  0  0  0  0
    1.2675    0.5629    0.0000 C    0  0  0  0  0  0  0  0  0  0  0  0
    3.4022    3.4606    0.0000 C    0  0  0  0  0  0  0  0  0  0  0  0
    1.9680    4.2570    0.0000 C    0  0  0  0  0  0  0  0  0  0  0  0
    3.3814    4.2695    0.0000 C    0  0  0  0  0  0  0  0  0  0  0  0
    2.6685    4.6698    0.0000 C    0  0  0  0  0  0  0  0  0  0  0  0
  2  1  1  0  0  0  0
  3  1  2  0  0  0  0
  4  2  1  0  0  0  0
  5  3  1  0  0  0  0
  6  5  3  0  0  0  0
  7 21  1  0  0  0  0
  8  7  3  0  0  0  0
  9  2  2  0  0  0  0
 10  3  1  0  0  0  0
 11  4  1  0  0  0  0
 12  9  1  0  0  0  0
 13 12  2  0  0  0  0
 13 11  1  0  0  0  0
 14 10  1  0  0  0  0
 15 10  2  0  0  0  0
 16 18  2  0  0  0  0
 17 14  2  0  0  0  0
 17 16  1  0  0  0  0
 18 15  1  0  0  0  0
 19 16  1  0  0  0  0
 20  9  1  0  0  0  0
 21 20  1  0  0  0  0
 22  4  2  0  0  0  0
 23 11  2  0  0  0  0
 24 22  1  0  0  0  0
 25 24  2  0  0  0  0
 25 23  1  0  0  0  0
M  END
> <CdId>
1413

> <Mol Weight>
343.806

> <Formula>
C22H14ClNO

> <Click_ID>
CLK019_B08 __ __ 

$$$$
