CLK011_E10
 OpenBabel03181404502D

 26 28  0  0  0  0  0  0  0  0999 V2000
    2.0522   -1.6400    0.0000 N   0  0  0  0  0  0  0  0  0  0  0  0
    2.7668   -1.2277    0.0000 C   0  0  0  0  0  0  0  0  0  0  0  0
    1.3376   -0.4031    0.0000 C   0  0  0  0  0  0  0  0  0  0  0  0
    1.3376   -1.2277    0.0000 C   0  0  0  0  0  0  0  0  0  0  0  0
    2.7668   -0.4031    0.0000 N   0  0  0  0  0  0  0  0  0  0  0  0
    2.0522    0.0091    0.0000 C   0  0  0  0  0  0  0  0  0  0  0  0
    0.6230    0.0091    0.0000 C   0  0  0  0  0  0  0  0  0  0  0  0
    3.4814   -1.6400    0.0000 S   0  0  0  0  0  0  0  0  0  0  0  0
   -2.9500   -2.8768    0.0000 C   0  0  0  0  0  0  0  0  0  0  0  0
    2.0522   -2.4645    0.0000 C   0  0  0  0  0  0  0  0  0  0  0  0
   -2.9500   -3.7013    0.0000 C   0  0  0  0  0  0  0  0  0  0  0  0
    0.6230   -1.6400    0.0000 O   0  0  0  0  0  0  0  0  0  0  0  0
    2.0522    0.8337    0.0000 O   0  0  0  0  0  0  0  0  0  0  0  0
   -0.0916   -0.4031    0.0000 C   0  0  0  0  0  0  0  0  0  0  0  0
   -1.5208   -1.2277    0.0000 C   0  0  0  0  0  0  0  0  0  0  0  0
   -0.8062    0.0091    0.0000 C   0  0  0  0  0  0  0  0  0  0  0  0
   -0.0916   -1.2277    0.0000 C   0  0  0  0  0  0  0  0  0  0  0  0
   -1.5208   -0.4031    0.0000 C   0  0  0  0  0  0  0  0  0  0  0  0
   -0.8062   -1.6400    0.0000 C   0  0  0  0  0  0  0  0  0  0  0  0
   -2.2354   -2.4645    0.0000 C   0  0  0  0  0  0  0  0  0  0  0  0
   -2.2354   -1.6400    0.0000 O   0  0  0  0  0  0  0  0  0  0  0  0
    2.7668   -2.8768    0.0000 C   0  0  0  0  0  0  0  0  0  0  0  0
    1.3376   -2.8768    0.0000 C   0  0  0  0  0  0  0  0  0  0  0  0
    2.7668   -3.7013    0.0000 C   0  0  0  0  0  0  0  0  0  0  0  0
    1.3376   -3.7013    0.0000 C   0  0  0  0  0  0  0  0  0  0  0  0
    2.0522   -4.1136    0.0000 C   0  0  0  0  0  0  0  0  0  0  0  0
  2  1  1  0  0  0  0
  3  4  1  0  0  0  0
  4  1  1  0  0  0  0
  5  2  1  0  0  0  0
  5  6  1  0  0  0  0
  6  3  1  0  0  0  0
  7  3  2  0  0  0  0
  8  2  2  0  0  0  0
  9 20  1  0  0  0  0
 10  1  1  0  0  0  0
 11  9  3  0  0  0  0
 12  4  2  0  0  0  0
 13  6  2  0  0  0  0
 14  7  1  0  0  0  0
 15 19  2  0  0  0  0
 16 14  1  0  0  0  0
 17 14  2  0  0  0  0
 18 16  2  0  0  0  0
 18 15  1  0  0  0  0
 19 17  1  0  0  0  0
 20 21  1  0  0  0  0
 21 15  1  0  0  0  0
 22 10  2  0  0  0  0
 23 10  1  0  0  0  0
 24 22  1  0  0  0  0
 24 26  2  0  0  0  0
 25 23  2  0  0  0  0
 26 25  1  0  0  0  0
M  END
> <CdId>
805

> <Mol Weight>
362.402

> <Formula>
C20H14N2O3S

> <Click_ID>
CLK011_E10 __ __ 

$$$$
