CLK013_A07
 OpenBabel03181404502D

 27 29  0  0  0  0  0  0  0  0999 V2000
    1.5619   -0.8142    0.0000 N    0  0  0  0  0  0  0  0  0  0  0  0
    1.8195   -1.5993    0.0000 C    0  0  0  0  0  0  0  0  0  0  0  0
    2.8954   -0.8142    0.0000 C    0  0  0  0  0  0  0  0  0  0  0  0
    2.2307   -0.3282    0.0000 C    0  0  0  0  0  0  0  0  0  0  0  0
    2.6420   -1.5993    0.0000 S    0  0  0  0  0  0  0  0  0  0  0  0
    3.6805   -0.5608    0.0000 C    0  0  0  0  0  0  0  0  0  0  0  0
    3.8508    0.2451    0.0000 C    0  0  0  0  0  0  0  0  0  0  0  0
    0.6106    0.2451    0.0000 C    0  0  0  0  0  0  0  0  0  0  0  0
    0.3905    1.0426    0.0000 C    0  0  0  0  0  0  0  0  0  0  0  0
    1.3334   -2.2598    0.0000 O    0  0  0  0  0  0  0  0  0  0  0  0
    4.6276    0.4985    0.0000 C    0  0  0  0  0  0  0  0  0  0  0  0
    6.6423   -0.3489    0.0000 C    0  0  0  0  0  0  0  0  0  0  0  0
    2.2224    0.4943    0.0000 O    0  0  0  0  0  0  0  0  0  0  0  0
    5.2383   -0.0540    0.0000 O    0  0  0  0  0  0  0  0  0  0  0  0
    0.7851   -0.5608    0.0000 C    0  0  0  0  0  0  0  0  0  0  0  0
    3.2319    0.7934    0.0000 C    0  0  0  0  0  0  0  0  0  0  0  0
    6.0234    0.1994    0.0000 C    0  0  0  0  0  0  0  0  0  0  0  0
    7.4191   -0.0914    0.0000 C    0  0  0  0  0  0  0  0  0  0  0  0
    4.8021    1.3085    0.0000 C    0  0  0  0  0  0  0  0  0  0  0  0
    3.4063    1.6034    0.0000 C    0  0  0  0  0  0  0  0  0  0  0  0
    7.5936    0.7186    0.0000 Cl   0  0  0  0  0  0  0  0  0  0  0  0
    4.1914    1.8568    0.0000 C    0  0  0  0  0  0  0  0  0  0  0  0
    2.8040    2.1559    0.0000 Br   0  0  0  0  0  0  0  0  0  0  0  0
    6.4595   -1.1507    0.0000 C    0  0  0  0  0  0  0  0  0  0  0  0
    8.0298   -0.6480    0.0000 C    0  0  0  0  0  0  0  0  0  0  0  0
    7.0785   -1.7115    0.0000 C    0  0  0  0  0  0  0  0  0  0  0  0
    7.8553   -1.4581    0.0000 C    0  0  0  0  0  0  0  0  0  0  0  0
  2  1  1  0  0  0  0
  3  4  1  0  0  0  0
  3  5  1  0  0  0  0
  4  1  1  0  0  0  0
  5  2  1  0  0  0  0
  6  3  2  0  0  0  0
  7  6  1  0  0  0  0
  8 15  1  0  0  0  0
  9  8  3  0  0  0  0
 10  2  2  0  0  0  0
 11  7  1  0  0  0  0
 12 17  1  0  0  0  0
 13  4  2  0  0  0  0
 14 11  1  0  0  0  0
 15  1  1  0  0  0  0
 16  7  2  0  0  0  0
 17 14  1  0  0  0  0
 18 12  1  0  0  0  0
 19 11  2  0  0  0  0
 19 22  1  0  0  0  0
 20 16  1  0  0  0  0
 21 18  1  0  0  0  0
 22 20  2  0  0  0  0
 23 20  1  0  0  0  0
 24 12  2  0  0  0  0
 25 18  2  0  0  0  0
 25 27  1  0  0  0  0
 26 24  1  0  0  0  0
 27 26  2  0  0  0  0
M  END
> <CdId>
922

> <Mol Weight>
462.744

> <Formula>
C20H13BrClNO3S

> <Click_ID>
CLK013_A07 __ __ 

$$$$
