CLK029_D07
 OpenBabel03181404502D

 12 12  0  0  0  0  0  0  0  0999 V2000
    2.8273    0.0746    0.0000 N   0  0  0  0  0  0  0  0  0  0  0  0
    2.8273   -0.7504    0.0000 C   0  0  0  0  0  0  0  0  0  0  0  0
    2.1184   -1.1566    0.0000 N   0  0  0  0  0  0  0  0  0  0  0  0
    2.1184    0.4933    0.0000 C   0  0  0  0  0  0  0  0  0  0  0  0
    1.4095    0.0746    0.0000 C   0  0  0  0  0  0  0  0  0  0  0  0
    1.4095   -0.7504    0.0000 C   0  0  0  0  0  0  0  0  0  0  0  0
    4.2575   -2.4003    0.0000 C   0  0  0  0  0  0  0  0  0  0  0  0
    4.2575   -3.2253    0.0000 C   0  0  0  0  0  0  0  0  0  0  0  0
    2.1184    1.3183    0.0000 O   0  0  0  0  0  0  0  0  0  0  0  0
    3.5486   -1.1608    0.0000 S   0  0  0  0  0  0  0  0  0  0  0  0
    3.5445   -1.9816    0.0000 C   0  0  0  0  0  0  0  0  0  0  0  0
    0.6965   -1.1608    0.0000 C   0  0  0  0  0  0  0  0  0  0  0  0
  2  1  1  0  0  0  0
  3  2  2  0  0  0  0
  3  6  1  0  0  0  0
  4  1  1  0  0  0  0
  5  4  1  0  0  0  0
  6  5  2  0  0  0  0
  7 11  1  0  0  0  0
  8  7  3  0  0  0  0
  9  4  2  0  0  0  0
 10  2  1  0  0  0  0
 11 10  1  0  0  0  0
 12  6  1  0  0  0  0
M  END
> <CdId>
2201

> <Mol Weight>
180.227

> <Formula>
C8H8N2OS

> <Click_ID>
CLK029_D07 __ __ 

$$$$
