CLK051D03
 OpenBabel03181404502D

 19 20  0  0  0  0  0  0  0  0999 V2000
   -0.4917    2.4458    0.0000 N   0  0  0  0  0  0  0  0  0  0  0  0
   -0.4917    1.6208    0.0000 C   0  0  0  0  0  0  0  0  0  0  0  0
   -1.1583    2.9292    0.0000 N   0  0  0  0  0  0  0  0  0  0  0  0
   -1.2042    1.2083    0.0000 N   0  0  0  0  0  0  0  0  0  0  0  0
    0.2250   -2.0917    0.0000 C   0  0  0  0  0  0  0  0  0  0  0  0
    1.6542   -3.7417    0.0000 C   0  0  0  0  0  0  0  0  0  0  0  0
    2.3667   -4.1542    0.0000 C   0  0  0  0  0  0  0  0  0  0  0  0
    0.1750    2.9292    0.0000 C   0  0  0  0  0  0  0  0  0  0  0  0
   -0.0792    3.7125    0.0000 C   0  0  0  0  0  0  0  0  0  0  0  0
    0.2250   -1.2667    0.0000 N   0  0  0  0  0  0  0  0  0  0  0  0
   -0.4917   -2.5042    0.0000 O   0  0  0  0  0  0  0  0  0  0  0  0
   -0.9042    3.7125    0.0000 C   0  0  0  0  0  0  0  0  0  0  0  0
   -0.4917   -0.0292    0.0000 C   0  0  0  0  0  0  0  0  0  0  0  0
    0.2250    1.2083    0.0000 C   0  0  0  0  0  0  0  0  0  0  0  0
    0.9375   -2.5042    0.0000 N   0  0  0  0  0  0  0  0  0  0  0  0
   -1.2042    0.3833    0.0000 C   0  0  0  0  0  0  0  0  0  0  0  0
   -0.4917   -0.8542    0.0000 C   0  0  0  0  0  0  0  0  0  0  0  0
    0.2250    0.3833    0.0000 C   0  0  0  0  0  0  0  0  0  0  0  0
    0.9375   -3.3292    0.0000 C   0  0  0  0  0  0  0  0  0  0  0  0
  2  1  1  0  0  0  0
  3  1  1  0  0  0  0
  4  2  2  0  0  0  0
  5 10  1  0  0  0  0
  6 19  1  0  0  0  0
  7  6  3  0  0  0  0
  8  1  1  0  0  0  0
  9  8  2  0  0  0  0
 10 17  1  0  0  0  0
 11  5  2  0  0  0  0
 12  3  2  0  0  0  0
 12  9  1  0  0  0  0
 13 16  2  0  0  0  0
 14  2  1  0  0  0  0
 15  5  1  0  0  0  0
 16  4  1  0  0  0  0
 17 13  1  0  0  0  0
 18 14  2  0  0  0  0
 18 13  1  0  0  0  0
 19 15  1  0  0  0  0
M  END
> <CdId>
3900

> <Mol Weight>
255.2752

> <Formula>
C13H13N5O

> <Click_ID>
CLK051D03 __ __ 

$$$$
