CLK016_E06
 OpenBabel03181404502D

 25 27  0  0  0  0  0  0  0  0999 V2000
    4.2531   -2.1495    0.0000 C    0  0  0  0  0  0  0  0  0  0  0  0
    5.4768   -2.8782    0.0000 N    0  0  0  0  0  0  0  0  0  0  0  0
    5.0734   -2.1632    0.0000 C    0  0  0  0  0  0  0  0  0  0  0  0
    4.2347   -3.5748    0.0000 N    0  0  0  0  0  0  0  0  0  0  0  0
    3.8498   -1.4345    0.0000 C    0  0  0  0  0  0  0  0  0  0  0  0
    3.8269   -2.8598    0.0000 C    0  0  0  0  0  0  0  0  0  0  0  0
    3.0248   -1.4208    0.0000 C    0  0  0  0  0  0  0  0  0  0  0  0
    3.0707    1.4390    0.0000 C    0  0  0  0  0  0  0  0  0  0  0  0
    2.6673    2.1540    0.0000 C    0  0  0  0  0  0  0  0  0  0  0  0
    6.2742   -3.1073    0.0000 C    0  0  0  0  0  0  0  0  0  0  0  0
    5.4905   -1.4483    0.0000 O    0  0  0  0  0  0  0  0  0  0  0  0
    2.6170   -0.7012    0.0000 C    0  0  0  0  0  0  0  0  0  0  0  0
    2.6032   -2.1311    0.0000 C    0  0  0  0  0  0  0  0  0  0  0  0
    1.8011   -0.6875    0.0000 C    0  0  0  0  0  0  0  0  0  0  0  0
    1.7783   -2.1174    0.0000 C    0  0  0  0  0  0  0  0  0  0  0  0
    1.3795   -1.3933    0.0000 C    0  0  0  0  0  0  0  0  0  0  0  0
    1.3520   -2.8232    0.0000 Cl   0  0  0  0  0  0  0  0  0  0  0  0
    3.0432    0.0091    0.0000 O    0  0  0  0  0  0  0  0  0  0  0  0
    3.0019   -2.8507    0.0000 C    0  0  0  0  0  0  0  0  0  0  0  0
    2.6445    0.7287    0.0000 C    0  0  0  0  0  0  0  0  0  0  0  0
    6.4759   -3.9048    0.0000 C    0  0  0  0  0  0  0  0  0  0  0  0
    6.8654   -2.5298    0.0000 C    0  0  0  0  0  0  0  0  0  0  0  0
    7.6583   -2.7545    0.0000 C    0  0  0  0  0  0  0  0  0  0  0  0
    7.2642   -4.1294    0.0000 C    0  0  0  0  0  0  0  0  0  0  0  0
    7.8554   -3.5519    0.0000 C    0  0  0  0  0  0  0  0  0  0  0  0
  2  3  1  0  0  0  0
  3  1  1  0  0  0  0
  4  6  2  0  0  0  0
  4  2  1  0  0  0  0
  5  1  2  0  0  0  0
  6  1  1  0  0  0  0
  7  5  1  0  0  0  0
  8 20  1  0  0  0  0
  9  8  3  0  0  0  0
 10  2  1  0  0  0  0
 11  3  2  0  0  0  0
 12  7  1  0  0  0  0
 13  7  2  0  0  0  0
 14 12  2  0  0  0  0
 14 16  1  0  0  0  0
 15 13  1  0  0  0  0
 16 15  2  0  0  0  0
 17 15  1  0  0  0  0
 18 12  1  0  0  0  0
 19  6  1  0  0  0  0
 20 18  1  0  0  0  0
 21 10  2  0  0  0  0
 22 10  1  0  0  0  0
 23 22  2  0  0  0  0
 24 21  1  0  0  0  0
 25 23  1  0  0  0  0
 25 24  2  0  0  0  0
M  END
> <CdId>
1201

> <Mol Weight>
350.798

> <Formula>
C20H15ClN2O2

> <Click_ID>
CLK016_E06 __ __ 

$$$$
