CLK019_C09
 OpenBabel03181404502D

 21 21  0  0  0  0  0  0  0  0999 V2000
   -0.6949   -0.3738    0.0000 C   0  0  0  0  0  0  0  0  0  0  0  0
   -0.2781   -1.0920    0.0000 N   0  0  0  0  0  0  0  0  0  0  0  0
   -2.3754    1.0875    0.0000 C   0  0  0  0  0  0  0  0  0  0  0  0
    0.5500   -1.0920    0.0000 C   0  0  0  0  0  0  0  0  0  0  0  0
    0.9561   -0.3738    0.0000 C   0  0  0  0  0  0  0  0  0  0  0  0
   -1.5195   -0.3738    0.0000 N   0  0  0  0  0  0  0  0  0  0  0  0
   -2.8074    1.8057    0.0000 C   0  0  0  0  0  0  0  0  0  0  0  0
    1.7762   -0.3738    0.0000 C   0  0  0  0  0  0  0  0  0  0  0  0
   -0.2835    0.3398    0.0000 S   0  0  0  0  0  0  0  0  0  0  0  0
   -1.9425    0.3533    0.0000 C   0  0  0  0  0  0  0  0  0  0  0  0
    0.9561   -1.8057    0.0000 C   0  0  0  0  0  0  0  0  0  0  0  0
    2.1930   -1.0920    0.0000 C   0  0  0  0  0  0  0  0  0  0  0  0
    1.7798   -1.8057    0.0000 C   0  0  0  0  0  0  0  0  0  0  0  0
    0.5456    0.3398    0.0000 O   0  0  0  0  0  0  0  0  0  0  0  0
    3.0220   -1.0920    0.0000 O   0  0  0  0  0  0  0  0  0  0  0  0
   -1.3532    0.7298    0.0000 C   0  0  0  0  0  0  0  0  0  0  0  0
   -2.6884   -0.0894    0.0000 C   0  0  0  0  0  0  0  0  0  0  0  0
    0.9561    1.0518    0.0000 C   0  0  0  0  0  0  0  0  0  0  0  0
    3.4343   -0.3685    0.0000 C   0  0  0  0  0  0  0  0  0  0  0  0
   -1.3532    1.5383    0.0000 C   0  0  0  0  0  0  0  0  0  0  0  0
   -3.4343    0.3157    0.0000 C   0  0  0  0  0  0  0  0  0  0  0  0
  2  1  1  0  0  0  0
  3 10  1  0  0  0  0
  4  2  1  0  0  0  0
  5  4  2  0  0  0  0
  6  1  1  0  0  0  0
  7  3  3  0  0  0  0
  8  5  1  0  0  0  0
  9  1  2  0  0  0  0
 10  6  1  0  0  0  0
 11  4  1  0  0  0  0
 12 13  1  0  0  0  0
 12  8  2  0  0  0  0
 13 11  2  0  0  0  0
 14  5  1  0  0  0  0
 15 12  1  0  0  0  0
 16 10  1  0  0  0  0
 17 10  1  0  0  0  0
 18 14  1  0  0  0  0
 19 15  1  0  0  0  0
 20 16  1  0  0  0  0
 21 17  1  0  0  0  0
M  END
> <CdId>
1424

> <Mol Weight>
306.423

> <Formula>
C16H22N2O2S

> <Click_ID>
CLK019_C09 __ __ 

$$$$
