CLK007_D06
 OpenBabel03181404502D

 28 31  0  0  0  0  0  0  0  0999 V2000
   -0.3658   -1.5083    0.0000 C   0  0  0  0  0  0  0  0  0  0  0  0
    0.3555   -1.0941    0.0000 C   0  0  3  0  0  0  0  0  0  0  0  0
   -1.1459   -1.2598    0.0000 C   0  0  0  0  0  0  0  0  0  0  0  0
   -0.3520   -2.3332    0.0000 C   0  0  0  0  0  0  0  0  0  0  0  0
    0.3589   -0.2693    0.0000 C   0  0  0  0  0  0  0  0  0  0  0  0
    1.0700   -1.5083    0.0000 C   0  0  0  0  0  0  0  0  0  0  0  0
   -1.4082   -0.4798    0.0000 C   0  0  0  0  0  0  0  0  0  0  0  0
   -1.6291   -1.9294    0.0000 N   0  0  0  0  0  0  0  0  0  0  0  0
   -1.1425   -2.5956    0.0000 N   0  0  0  0  0  0  0  0  0  0  0  0
    0.3555   -2.7474    0.0000 N   0  0  0  0  0  0  0  0  0  0  0  0
    1.0734    0.1415    0.0000 C   0  0  0  0  0  0  0  0  0  0  0  0
   -0.3520    0.1415    0.0000 C   0  0  0  0  0  0  0  0  0  0  0  0
    1.0700   -2.3332    0.0000 C   0  0  0  0  0  0  0  0  0  0  0  0
   -2.2193   -0.3141    0.0000 C   0  0  0  0  0  0  0  0  0  0  0  0
   -0.8594    0.1415    0.0000 C   0  0  0  0  0  0  0  0  0  0  0  0
    1.0734    0.9699    0.0000 C   0  0  0  0  0  0  0  0  0  0  0  0
   -0.3520    0.9699    0.0000 C   0  0  0  0  0  0  0  0  0  0  0  0
    1.7845   -2.7474    0.0000 O   0  0  0  0  0  0  0  0  0  0  0  0
   -2.4817    0.4694    0.0000 C   0  0  0  0  0  0  0  0  0  0  0  0
   -1.1183    0.9181    0.0000 C   0  0  0  0  0  0  0  0  0  0  0  0
    0.3589    1.3806    0.0000 C   0  0  0  0  0  0  0  0  0  0  0  0
    1.7845    1.3806    0.0000 O   0  0  0  0  0  0  0  0  0  0  0  0
   -1.9294    1.0941    0.0000 C   0  0  0  0  0  0  0  0  0  0  0  0
    0.3589    2.2090    0.0000 O   0  0  0  0  0  0  0  0  0  0  0  0
    2.4990    0.9699    0.0000 C   0  0  0  0  0  0  0  0  0  0  0  0
    1.0734    2.6197    0.0000 C   0  0  0  0  0  0  0  0  0  0  0  0
    1.0734    3.4447    0.0000 C   0  0  0  0  0  0  0  0  0  0  0  0
    1.0700    4.2731    0.0000 C   0  0  0  0  0  0  0  0  0  0  0  0
  1  2  1  0  0  0  0
  1  3  1  0  0  0  0
  1  4  2  0  0  0  0
  2  5  1  0  0  0  0
  2  6  1  0  0  0  0
  3  7  1  0  0  0  0
  3  8  2  0  0  0  0
  4  9  1  0  0  0  0
  4 10  1  0  0  0  0
  5 11  2  0  0  0  0
  5 12  1  0  0  0  0
  6 13  1  0  0  0  0
  7 14  1  0  0  0  0
  7 15  2  0  0  0  0
  8  9  1  0  0  0  0
 10 13  1  0  0  0  0
 11 16  1  0  0  0  0
 12 17  2  0  0  0  0
 13 18  2  0  0  0  0
 14 19  2  0  0  0  0
 15 20  1  0  0  0  0
 16 21  2  0  0  0  0
 16 22  1  0  0  0  0
 17 21  1  0  0  0  0
 19 23  1  0  0  0  0
 20 23  2  0  0  0  0
 21 24  1  0  0  0  0
 22 25  1  0  0  0  0
 24 26  1  0  0  0  0
 26 27  1  0  0  0  0
 27 28  3  0  0  0  0
M  END
> <CdId>
515

> <Mol Weight>
373.4046

> <Formula>
C22H19N3O3

> <Click_ID>
CLK007_D06 __ __ 

$$$$
