CLK023_D11
 OpenBabel03181404502D

 28 29  0  0  0  0  0  0  0  0999 V2000
   -0.3580    0.2066    0.0000 C    0  0  0  0  0  0  0  0  0  0  0  0
   -1.0810    0.6162    0.0000 C    0  0  0  0  0  0  0  0  0  0  0  0
    0.3546    0.6162    0.0000 C    0  0  0  0  0  0  0  0  0  0  0  0
    1.0638    0.2066    0.0000 C    0  0  0  0  0  0  0  0  0  0  0  0
   -0.3580   -0.6265    0.0000 C    0  0  0  0  0  0  0  0  0  0  0  0
    2.4994    0.1962    0.0000 C    0  0  0  0  0  0  0  0  0  0  0  0
   -1.7971    0.2066    0.0000 N    0  0  0  0  0  0  0  0  0  0  0  0
    1.7868    0.6162    0.0000 C    0  0  0  0  0  0  0  0  0  0  0  0
   -0.3683   -1.4391    0.0000 N    0  0  0  0  0  0  0  0  0  0  0  0
    2.4994   -0.6265    0.0000 C    0  0  0  0  0  0  0  0  0  0  0  0
    1.0741   -0.6265    0.0000 C    0  0  0  0  0  0  0  0  0  0  0  0
    3.9419   -2.2756    0.0000 C    0  0  0  0  0  0  0  0  0  0  0  0
    1.7868   -1.0363    0.0000 C    0  0  0  0  0  0  0  0  0  0  0  0
   -3.2258    1.8625    0.0000 C    0  0  0  0  0  0  0  0  0  0  0  0
    4.6580   -2.6888    0.0000 C    0  0  0  0  0  0  0  0  0  0  0  0
   -2.5132    1.4528    0.0000 C    0  0  0  0  0  0  0  0  0  0  0  0
   -2.5132    0.6162    0.0000 C    0  0  0  0  0  0  0  0  0  0  0  0
   -1.0810    1.4425    0.0000 O    0  0  0  0  0  0  0  0  0  0  0  0
   -3.9419    1.4528    0.0000 C    0  0  0  0  0  0  0  0  0  0  0  0
   -3.9419    0.6162    0.0000 C    0  0  0  0  0  0  0  0  0  0  0  0
    1.7971    1.4425    0.0000 Br   0  0  0  0  0  0  0  0  0  0  0  0
   -3.2258    2.6922    0.0000 Cl   0  0  0  0  0  0  0  0  0  0  0  0
   -3.2258    0.2100    0.0000 C    0  0  0  0  0  0  0  0  0  0  0  0
    3.2189   -1.0363    0.0000 O    0  0  0  0  0  0  0  0  0  0  0  0
    1.7971   -1.8659    0.0000 O    0  0  0  0  0  0  0  0  0  0  0  0
    3.2189   -1.8659    0.0000 C    0  0  0  0  0  0  0  0  0  0  0  0
   -4.6614    1.8556    0.0000 C    0  0  0  0  0  0  0  0  0  0  0  0
    1.0844   -2.2756    0.0000 C    0  0  0  0  0  0  0  0  0  0  0  0
  2  1  1  0  0  0  0
  3  1  2  0  0  0  0
  4  3  1  0  0  0  0
  5  1  1  0  0  0  0
  6  8  1  0  0  0  0
  7  2  1  0  0  0  0
  8  4  2  0  0  0  0
  9  5  3  0  0  0  0
 10 13  1  0  0  0  0
 10  6  2  0  0  0  0
 11  4  1  0  0  0  0
 12 26  1  0  0  0  0
 13 11  2  0  0  0  0
 14 16  1  0  0  0  0
 15 12  3  0  0  0  0
 16 17  2  0  0  0  0
 17  7  1  0  0  0  0
 18  2  2  0  0  0  0
 19 20  1  0  0  0  0
 19 14  2  0  0  0  0
 20 23  2  0  0  0  0
 21  8  1  0  0  0  0
 22 14  1  0  0  0  0
 23 17  1  0  0  0  0
 24 10  1  0  0  0  0
 25 13  1  0  0  0  0
 26 24  1  0  0  0  0
 27 19  1  0  0  0  0
 28 25  1  0  0  0  0
M  END
> <CdId>
1736

> <Mol Weight>
459.72

> <Formula>
C21H16BrClN2O3

> <Click_ID>
CLK023_D11 __ __ 

$$$$
