CLK042D11
 OpenBabel03181404502D

 21 22  0  0  0  0  0  0  0  0999 V2000
   -0.5792    0.3375    0.0000 N   0  0  0  0  0  0  0  0  0  0  0  0
    0.1333    0.7500    0.0000 C   0  0  0  0  0  0  0  0  0  0  0  0
    2.2792    0.3375    0.0000 C   0  0  0  0  0  0  0  0  0  0  0  0
    0.8500    0.3375    0.0000 C   0  0  0  0  0  0  0  0  0  0  0  0
    1.5625    0.7500    0.0000 C   0  0  0  0  0  0  0  0  0  0  0  0
   -2.0083   -2.9625    0.0000 C   0  0  0  0  0  0  0  0  0  0  0  0
   -0.5792   -0.4875    0.0000 C   0  0  0  0  0  0  0  0  0  0  0  0
   -2.0083   -3.7875    0.0000 C   0  0  0  0  0  0  0  0  0  0  0  0
   -1.2958   -0.9000    0.0000 C   0  0  0  0  0  0  0  0  0  0  0  0
    0.1333    1.5750    0.0000 C   0  0  0  0  0  0  0  0  0  0  0  0
    1.5625    1.5750    0.0000 C   0  0  0  0  0  0  0  0  0  0  0  0
   -2.0083   -0.4875    0.0000 O   0  0  0  0  0  0  0  0  0  0  0  0
    0.8500    1.9875    0.0000 C   0  0  0  0  0  0  0  0  0  0  0  0
    2.6917    1.0500    0.0000 F   0  0  0  0  0  0  0  0  0  0  0  0
    1.8667   -0.3792    0.0000 F   0  0  0  0  0  0  0  0  0  0  0  0
    2.9917   -0.0750    0.0000 F   0  0  0  0  0  0  0  0  0  0  0  0
   -1.2958   -1.7250    0.0000 N   0  0  0  0  0  0  0  0  0  0  0  0
   -1.2958    0.7500    0.0000 C   0  0  0  0  0  0  0  0  0  0  0  0
   -2.0083   -2.1375    0.0000 C   0  0  0  0  0  0  0  0  0  0  0  0
   -1.2958    1.5750    0.0000 C   0  0  0  0  0  0  0  0  0  0  0  0
   -0.5792    1.9875    0.0000 C   0  0  0  0  0  0  0  0  0  0  0  0
  2  1  1  0  0  0  0
  3  5  1  0  0  0  0
  4  2  1  0  0  0  0
  5  4  2  0  0  0  0
  6 19  1  0  0  0  0
  7  1  1  0  0  0  0
  8  6  3  0  0  0  0
  9  7  1  0  0  0  0
 10  2  2  0  0  0  0
 11  5  1  0  0  0  0
 12  9  2  0  0  0  0
 13 10  1  0  0  0  0
 13 11  2  0  0  0  0
 14  3  1  0  0  0  0
 15  3  1  0  0  0  0
 16  3  1  0  0  0  0
 17  9  1  0  0  0  0
 18  1  1  0  0  0  0
 19 17  1  0  0  0  0
 20 18  1  0  0  0  0
 20 21  1  0  0  0  0
 21 10  1  0  0  0  0
M  END
> <CdId>
3244

> <Mol Weight>
296.2876

> <Formula>
C15H15F3N2O

> <Click_ID>
CLK042D11 __ __ 

$$$$
