CLK033_E04
 OpenBabel03181404502D

 23 25  0  0  0  0  0  0  0  0999 V2000
   -4.5880    2.5540    0.0000 C   0  0  0  0  0  0  0  0  0  0  0  0
   -3.8560    2.9783    0.0000 N   0  0  0  0  0  0  0  0  0  0  0  0
   -4.6796    1.7304    0.0000 N   0  0  0  0  0  0  0  0  0  0  0  0
   -5.3118    2.8951    0.0000 S   0  0  0  0  0  0  0  0  0  0  0  0
   -5.4865    1.5806    0.0000 C   0  0  0  0  0  0  0  0  0  0  0  0
   -5.8858    2.3044    0.0000 C   0  0  0  0  0  0  0  0  0  0  0  0
   -3.8643    3.7936    0.0000 C   0  0  0  0  0  0  0  0  0  0  0  0
   -4.2636    0.3577    0.0000 C   0  0  0  0  0  0  0  0  0  0  0  0
   -4.4508   -0.4534    0.0000 C   0  0  0  0  0  0  0  0  0  0  0  0
   -3.1530    4.2054    0.0000 C   0  0  0  0  0  0  0  0  0  0  0  0
   -4.5756    4.2054    0.0000 O   0  0  0  0  0  0  0  0  0  0  0  0
   -5.9150    0.8818    0.0000 C   0  0  0  0  0  0  0  0  0  0  0  0
   -4.0764    1.1605    0.0000 C   0  0  0  0  0  0  0  0  0  0  0  0
   -3.1447    5.0332    0.0000 C   0  0  0  0  0  0  0  0  0  0  0  0
   -2.4417    3.8019    0.0000 C   0  0  0  0  0  0  0  0  0  0  0  0
   -1.7096    5.0207    0.0000 C   0  0  0  0  0  0  0  0  0  0  0  0
   -2.4292    5.4450    0.0000 C   0  0  0  0  0  0  0  0  0  0  0  0
   -1.7221    4.2054    0.0000 C   0  0  0  0  0  0  0  0  0  0  0  0
   -6.7012    2.3294    0.0000 C   0  0  0  0  0  0  0  0  0  0  0  0
   -0.9941    5.4325    0.0000 F   0  0  0  0  0  0  0  0  0  0  0  0
   -7.1296    1.6223    0.0000 C   0  0  0  0  0  0  0  0  0  0  0  0
   -6.7178    0.8943    0.0000 C   0  0  0  0  0  0  0  0  0  0  0  0
   -5.5240    0.1497    0.0000 C   0  0  0  0  0  0  0  0  0  0  0  0
  2  1  2  0  0  0  0
  3  1  1  0  0  0  0
  4  1  1  0  0  0  0
  5  3  1  0  0  0  0
  6  4  1  0  0  0  0
  6  5  2  0  0  0  0
  7  2  1  0  0  0  0
  8 13  1  0  0  0  0
  9  8  3  0  0  0  0
 10  7  1  0  0  0  0
 11  7  2  0  0  0  0
 12  5  1  0  0  0  0
 13  3  1  0  0  0  0
 14 10  1  0  0  0  0
 15 10  2  0  0  0  0
 16 18  2  0  0  0  0
 16 17  1  0  0  0  0
 17 14  2  0  0  0  0
 18 15  1  0  0  0  0
 19  6  1  0  0  0  0
 20 16  1  0  0  0  0
 21 19  2  0  0  0  0
 22 12  2  0  0  0  0
 22 21  1  0  0  0  0
 23 12  1  0  0  0  0
M  END
> <CdId>
2528

> <Mol Weight>
324.372

> <Formula>
C18H13FN2OS

> <Click_ID>
CLK033_E04 __ __ 

$$$$
