CLK045E09
 OpenBabel03181404502D

 25 25  0  0  0  0  0  0  0  0999 V2000
   -1.0292   -0.0958    0.0000 C   0  0  0  0  0  0  0  0  0  0  0  0
    1.8250   -3.3958    0.0000 C   0  0  0  0  0  0  0  0  0  0  0  0
    2.5417   -3.8083    0.0000 C   0  0  0  0  0  0  0  0  0  0  0  0
    0.4000   -1.7458    0.0000 C   0  0  0  0  0  0  0  0  0  0  0  0
    0.4000   -2.5708    0.0000 N   0  0  0  0  0  0  0  0  0  0  0  0
   -0.3167    4.4375    0.0000 C   0  0  0  0  0  0  0  0  0  0  0  0
   -1.0292    0.7292    0.0000 C   0  0  0  0  0  0  0  0  0  0  0  0
    1.1125   -2.9833    0.0000 C   0  0  0  0  0  0  0  0  0  0  0  0
   -0.3167   -0.5083    0.0000 O   0  0  0  0  0  0  0  0  0  0  0  0
   -1.7458   -0.5083    0.0000 O   0  0  0  0  0  0  0  0  0  0  0  0
    1.1125   -1.3333    0.0000 O   0  0  0  0  0  0  0  0  0  0  0  0
   -1.0292    4.8500    0.0000 O   0  0  0  0  0  0  0  0  0  0  0  0
   -0.3167    1.1417    0.0000 C   0  0  0  0  0  0  0  0  0  0  0  0
   -1.7458    1.1417    0.0000 C   0  0  0  0  0  0  0  0  0  0  0  0
   -0.3167   -1.3333    0.0000 C   0  0  0  0  0  0  0  0  0  0  0  0
   -1.0292    3.2042    0.0000 O   0  0  0  0  0  0  0  0  0  0  0  0
   -0.3167    3.6167    0.0000 C   0  0  0  0  0  0  0  0  0  0  0  0
    0.4000    4.8500    0.0000 N   0  0  0  0  0  0  0  0  0  0  0  0
   -1.0292    2.3792    0.0000 C   0  0  0  0  0  0  0  0  0  0  0  0
   -1.7458    1.9667    0.0000 C   0  0  0  0  0  0  0  0  0  0  0  0
   -0.3167    1.9667    0.0000 C   0  0  0  0  0  0  0  0  0  0  0  0
    1.5250   -2.2708    0.0000 C   0  0  0  0  0  0  0  0  0  0  0  0
    0.7000   -3.7000    0.0000 C   0  0  0  0  0  0  0  0  0  0  0  0
    2.3500   -2.2708    0.0000 C   0  0  0  0  0  0  0  0  0  0  0  0
   -0.1250   -3.7000    0.0000 C   0  0  0  0  0  0  0  0  0  0  0  0
  2  8  1  0  0  0  0
  3  2  3  0  0  0  0
  4 15  1  0  0  0  0
  5  4  1  0  0  0  0
  6 17  1  0  0  0  0
  7  1  1  0  0  0  0
  8  5  1  0  0  0  0
  9  1  1  0  0  0  0
 10  1  2  0  0  0  0
 11  4  2  0  0  0  0
 12  6  2  0  0  0  0
 13  7  1  0  0  0  0
 14  7  2  0  0  0  0
 15  9  1  0  0  0  0
 16 19  1  0  0  0  0
 17 16  1  0  0  0  0
 18  6  1  0  0  0  0
 19 20  2  0  0  0  0
 19 21  1  0  0  0  0
 20 14  1  0  0  0  0
 21 13  2  0  0  0  0
 22  8  1  0  0  0  0
 23  8  1  0  0  0  0
 24 22  1  0  0  0  0
 25 23  1  0  0  0  0
M  END
> <CdId>
3469

> <Mol Weight>
346.3777

> <Formula>
C18H22N2O5

> <Click_ID>
CLK045E09 __ __ 

$$$$
