CLK028_F07
 OpenBabel03181404502D

 26 28  0  0  0  0  0  0  0  0999 V2000
    1.3433    0.3676    0.0000 C    0  0  0  0  0  0  0  0  0  0  0  0
   -0.0825    0.3676    0.0000 C    0  0  0  0  0  0  0  0  0  0  0  0
    2.6488    0.0962    0.0000 N    0  0  0  0  0  0  0  0  0  0  0  0
    0.6322    0.7798    0.0000 C    0  0  0  0  0  0  0  0  0  0  0  0
    2.0991    0.7043    0.0000 C    0  0  0  0  0  0  0  0  0  0  0  0
   -0.8004    0.7798    0.0000 C    0  0  0  0  0  0  0  0  0  0  0  0
    1.4326   -0.4432    0.0000 C    0  0  0  0  0  0  0  0  0  0  0  0
    2.2365   -0.6184    0.0000 C    0  0  0  0  0  0  0  0  0  0  0  0
   -0.0825   -0.4569    0.0000 C    0  0  0  0  0  0  0  0  0  0  0  0
   -1.5151    0.3676    0.0000 N    0  0  0  0  0  0  0  0  0  0  0  0
   -0.0893   -1.2815    0.0000 N    0  0  0  0  0  0  0  0  0  0  0  0
    3.9577   -0.4776    0.0000 C    0  0  0  0  0  0  0  0  0  0  0  0
    4.3596   -1.1887    0.0000 C    0  0  0  0  0  0  0  0  0  0  0  0
   -0.8004    1.6043    0.0000 O    0  0  0  0  0  0  0  0  0  0  0  0
    3.4698    0.1855    0.0000 C    0  0  0  0  0  0  0  0  0  0  0  0
   -2.2262    0.7798    0.0000 C    0  0  0  0  0  0  0  0  0  0  0  0
   -3.6520    1.6113    0.0000 C    0  0  0  0  0  0  0  0  0  0  0  0
   -4.3631    2.0235    0.0000 Br   0  0  0  0  0  0  0  0  0  0  0  0
   -2.2262    1.6043    0.0000 C    0  0  0  0  0  0  0  0  0  0  0  0
   -2.9373    0.3676    0.0000 C    0  0  0  0  0  0  0  0  0  0  0  0
   -2.9305    2.0166    0.0000 C    0  0  0  0  0  0  0  0  0  0  0  0
   -3.6520    0.7798    0.0000 C    0  0  0  0  0  0  0  0  0  0  0  0
    2.4942   -1.4051    0.0000 C    0  0  0  0  0  0  0  0  0  0  0  0
    0.8726   -1.0513    0.0000 C    0  0  0  0  0  0  0  0  0  0  0  0
    1.9342   -2.0201    0.0000 C    0  0  0  0  0  0  0  0  0  0  0  0
    1.1234   -1.8414    0.0000 C    0  0  0  0  0  0  0  0  0  0  0  0
  2  4  2  0  0  0  0
  3  5  1  0  0  0  0
  4  1  1  0  0  0  0
  5  1  2  0  0  0  0
  6  2  1  0  0  0  0
  7  1  1  0  0  0  0
  8  7  2  0  0  0  0
  8  3  1  0  0  0  0
  9  2  1  0  0  0  0
 10  6  1  0  0  0  0
 11  9  3  0  0  0  0
 12 15  1  0  0  0  0
 13 12  3  0  0  0  0
 14  6  2  0  0  0  0
 15  3  1  0  0  0  0
 16 10  1  0  0  0  0
 17 22  1  0  0  0  0
 18 17  1  0  0  0  0
 19 16  2  0  0  0  0
 20 16  1  0  0  0  0
 21 19  1  0  0  0  0
 21 17  2  0  0  0  0
 22 20  2  0  0  0  0
 23  8  1  0  0  0  0
 24  7  1  0  0  0  0
 25 26  1  0  0  0  0
 25 23  2  0  0  0  0
 26 24  2  0  0  0  0
M  END
> <CdId>
2141

> <Mol Weight>
404.259

> <Formula>
C21H14BrN3O

> <Click_ID>
CLK028_F07 __ __ 

$$$$
