CLK018_C06
 OpenBabel03181404502D

 27 30  0  0  0  0  0  0  0  0999 V2000
    1.4272   -1.0527    0.0000 N    0  0  0  0  0  0  0  0  0  0  0  0
    1.6852   -1.8391    0.0000 C    0  0  0  0  0  0  0  0  0  0  0  0
    2.7629   -1.0527    0.0000 C    0  0  0  0  0  0  0  0  0  0  0  0
    2.0971   -0.5659    0.0000 C    0  0  0  0  0  0  0  0  0  0  0  0
    2.5007   -1.8391    0.0000 N    0  0  0  0  0  0  0  0  0  0  0  0
    3.7198    0.0083    0.0000 C    0  0  0  0  0  0  0  0  0  0  0  0
    3.5867    1.3439    0.0000 N    0  0  0  0  0  0  0  0  0  0  0  0
    3.5493   -0.7989    0.0000 C    0  0  0  0  0  0  0  0  0  0  0  0
    3.1748    0.6241    0.0000 C    0  0  0  0  0  0  0  0  0  0  0  0
    0.6491   -0.7989    0.0000 C    0  0  0  0  0  0  0  0  0  0  0  0
    4.4813    0.3453    0.0000 C    0  0  0  0  0  0  0  0  0  0  0  0
    4.3981    1.1609    0.0000 C    0  0  0  0  0  0  0  0  0  0  0  0
    0.0416   -1.3523    0.0000 C    0  0  0  0  0  0  0  0  0  0  0  0
    3.7490    2.7669    0.0000 C    0  0  0  0  0  0  0  0  0  0  0  0
    4.2815    3.3911    0.0000 C    0  0  0  0  0  0  0  0  0  0  0  0
    1.1983   -2.5007    0.0000 O    0  0  0  0  0  0  0  0  0  0  0  0
    2.0888    0.2579    0.0000 O    0  0  0  0  0  0  0  0  0  0  0  0
    3.2622    2.0929    0.0000 C    0  0  0  0  0  0  0  0  0  0  0  0
   -0.7448   -1.1027    0.0000 C    0  0  0  0  0  0  0  0  0  0  0  0
    0.4785    0.0083    0.0000 C    0  0  0  0  0  0  0  0  0  0  0  0
   -1.3564   -1.6519    0.0000 Cl   0  0  0  0  0  0  0  0  0  0  0  0
    5.0679    1.6435    0.0000 C    0  0  0  0  0  0  0  0  0  0  0  0
    5.2302   -0.0042    0.0000 C    0  0  0  0  0  0  0  0  0  0  0  0
   -0.3079    0.2579    0.0000 C    0  0  0  0  0  0  0  0  0  0  0  0
   -0.9195   -0.2913    0.0000 C    0  0  0  0  0  0  0  0  0  0  0  0
    5.8960    0.4826    0.0000 C    0  0  0  0  0  0  0  0  0  0  0  0
    5.8086    1.3065    0.0000 C    0  0  0  0  0  0  0  0  0  0  0  0
  2  1  1  0  0  0  0
  3  4  1  0  0  0  0
  3  5  1  0  0  0  0
  4  1  1  0  0  0  0
  5  2  1  0  0  0  0
  6  8  1  0  0  0  0
  7  9  1  0  0  0  0
  7 12  1  0  0  0  0
  8  3  2  0  0  0  0
  9  6  2  0  0  0  0
 10  1  1  0  0  0  0
 11  6  1  0  0  0  0
 12 11  1  0  0  0  0
 13 10  1  0  0  0  0
 14 18  1  0  0  0  0
 15 14  3  0  0  0  0
 16  2  2  0  0  0  0
 17  4  2  0  0  0  0
 18  7  1  0  0  0  0
 19 13  2  0  0  0  0
 20 10  2  0  0  0  0
 21 19  1  0  0  0  0
 22 12  2  0  0  0  0
 22 27  1  0  0  0  0
 23 11  2  0  0  0  0
 24 20  1  0  0  0  0
 25 24  2  0  0  0  0
 25 19  1  0  0  0  0
 26 23  1  0  0  0  0
 27 26  2  0  0  0  0
M  END
> <CdId>
1341

> <Mol Weight>
375.808

> <Formula>
C21H14ClN3O2

> <Click_ID>
CLK018_C06 __ __ 

$$$$
