CLK046E06
 OpenBabel03181404502D

 23 24  0  0  0  0  0  0  0  0999 V2000
   -0.1250   -0.8583    0.0000 C    0  0  0  0  0  0  0  0  0  0  0  0
   -0.1250   -3.3333    0.0000 C    0  0  0  0  0  0  0  0  0  0  0  0
   -0.1250   -2.5083    0.0000 C    0  0  0  0  0  0  0  0  0  0  0  0
    0.5875   -1.2708    0.0000 N    0  0  0  0  0  0  0  0  0  0  0  0
   -0.1250    2.4417    0.0000 C    0  0  0  0  0  0  0  0  0  0  0  0
   -0.1250    1.6167    0.0000 N    0  0  0  0  0  0  0  0  0  0  0  0
   -0.1250   -0.0333    0.0000 N    0  0  0  0  0  0  0  0  0  0  0  0
   -0.8417   -1.2708    0.0000 C    0  0  0  0  0  0  0  0  0  0  0  0
   -0.8417   -2.0958    0.0000 C    0  0  0  0  0  0  0  0  0  0  0  0
    1.3042    4.0875    0.0000 C    0  0  0  0  0  0  0  0  0  0  0  0
    0.5875   -2.0958    0.0000 C    0  0  0  0  0  0  0  0  0  0  0  0
    2.0167    4.5000    0.0000 C    0  0  0  0  0  0  0  0  0  0  0  0
   -0.8417    1.2042    0.0000 C    0  0  0  0  0  0  0  0  0  0  0  0
    0.5875    1.2042    0.0000 C    0  0  0  0  0  0  0  0  0  0  0  0
   -0.8417    0.3792    0.0000 C    0  0  0  0  0  0  0  0  0  0  0  0
    0.5875    0.3792    0.0000 C    0  0  0  0  0  0  0  0  0  0  0  0
   -0.8417    2.8542    0.0000 O    0  0  0  0  0  0  0  0  0  0  0  0
    0.5875    2.8542    0.0000 N    0  0  0  0  0  0  0  0  0  0  0  0
   -0.1250   -4.1583    0.0000 F    0  0  0  0  0  0  0  0  0  0  0  0
    0.7000   -3.3333    0.0000 F    0  0  0  0  0  0  0  0  0  0  0  0
   -0.9500   -3.3333    0.0000 F    0  0  0  0  0  0  0  0  0  0  0  0
   -1.5542   -0.8583    0.0000 Cl   0  0  0  0  0  0  0  0  0  0  0  0
    0.5875    3.6792    0.0000 C    0  0  0  0  0  0  0  0  0  0  0  0
  2  3  1  0  0  0  0
  3  9  2  0  0  0  0
  4  1  1  0  0  0  0
  5  6  1  0  0  0  0
  6 13  1  0  0  0  0
  6 14  1  0  0  0  0
  7  1  1  0  0  0  0
  8  1  2  0  0  0  0
  9  8  1  0  0  0  0
 10 23  1  0  0  0  0
 11  4  2  0  0  0  0
 11  3  1  0  0  0  0
 12 10  3  0  0  0  0
 13 15  1  0  0  0  0
 14 16  1  0  0  0  0
 15  7  1  0  0  0  0
 16  7  1  0  0  0  0
 17  5  2  0  0  0  0
 18  5  1  0  0  0  0
 19  2  1  0  0  0  0
 20  2  1  0  0  0  0
 21  2  1  0  0  0  0
 22  8  1  0  0  0  0
 23 18  1  0  0  0  0
M  END
> <CdId>
3525

> <Mol Weight>
346.735

> <Formula>
C14H14ClF3N4O

> <Click_ID>
CLK046E06 __ __ 

$$$$
