CLK019_G05
 OpenBabel03181404502D

 24 26  0  0  0  0  0  0  0  0999 V2000
    6.3486   -2.3939    0.0000 C    0  0  3  0  0  0  0  0  0  0  0  0
    6.8154   -3.0255    0.0000 C    0  0  0  0  0  0  0  0  0  0  0  0
    5.5659   -2.6502    0.0000 C    0  0  0  0  0  0  0  0  0  0  0  0
    6.3486   -3.7259    0.0000 N    0  0  0  0  0  0  0  0  0  0  0  0
    5.5659   -3.4787    0.0000 C    0  0  0  0  0  0  0  0  0  0  0  0
    7.1953   -1.6203    0.0000 C    0  0  0  0  0  0  0  0  0  0  0  0
    8.1565   -1.7897    0.0000 C    0  0  0  0  0  0  0  0  0  0  0  0
    6.0968   -5.1356    0.0000 C    0  0  0  0  0  0  0  0  0  0  0  0
    4.8472   -3.8906    0.0000 C    0  0  0  0  0  0  0  0  0  0  0  0
    5.5613   -5.7581    0.0000 C    0  0  0  0  0  0  0  0  0  0  0  0
    4.8472   -2.2291    0.0000 C    0  0  0  0  0  0  0  0  0  0  0  0
    7.6073   -3.0942    0.0000 O    0  0  0  0  0  0  0  0  0  0  0  0
    6.6232   -4.5086    0.0000 C    0  0  0  0  0  0  0  0  0  0  0  0
    5.9595   -1.5151    0.0000 O    0  0  0  0  0  0  0  0  0  0  0  0
    8.4312   -2.3756    0.0000 O    0  0  0  0  0  0  0  0  0  0  0  0
    9.6670    0.1648    0.0000 N    0  0  0  0  0  0  0  0  0  0  0  0
    8.6555   -1.1397    0.0000 C    0  0  0  0  0  0  0  0  0  0  0  0
    4.1378   -2.6502    0.0000 C    0  0  0  0  0  0  0  0  0  0  0  0
    4.1378   -3.4787    0.0000 C    0  0  0  0  0  0  0  0  0  0  0  0
    3.4191   -2.2382    0.0000 Br   0  0  0  0  0  0  0  0  0  0  0  0
    9.9737   -0.5951    0.0000 C    0  0  0  0  0  0  0  0  0  0  0  0
    8.8477    0.2746    0.0000 C    0  0  0  0  0  0  0  0  0  0  0  0
    9.4747   -1.2496    0.0000 C    0  0  0  0  0  0  0  0  0  0  0  0
    8.3396   -0.3754    0.0000 C    0  0  0  0  0  0  0  0  0  0  0  0
  2  1  1  0  0  0  0
  3  1  1  0  0  0  0
  4  2  1  0  0  0  0
  4  5  1  0  0  0  0
  5  3  2  0  0  0  0
  6  1  1  0  0  0  0
  7  6  1  0  0  0  0
  8 13  1  0  0  0  0
  9  5  1  0  0  0  0
  9 19  2  0  0  0  0
 10  8  3  0  0  0  0
 11  3  1  0  0  0  0
 12  2  2  0  0  0  0
 13  4  1  0  0  0  0
 14  1  1  0  0  0  0
 15  7  2  0  0  0  0
 16 22  2  0  0  0  0
 16 21  1  0  0  0  0
 17  7  1  0  0  0  0
 18 11  2  0  0  0  0
 19 18  1  0  0  0  0
 20 18  1  0  0  0  0
 21 23  2  0  0  0  0
 22 24  1  0  0  0  0
 23 17  1  0  0  0  0
 24 17  2  0  0  0  0
M  END
> <CdId>
1460

> <Mol Weight>
385.211

> <Formula>
C18H13BrN2O3

> <Click_ID>
CLK019_G05 __ __ 

$$$$
