CLK016_E02
 OpenBabel03181404502D

 25 27  0  0  0  0  0  0  0  0999 V2000
    1.5642   -0.8154    0.0000 N   0  0  0  0  0  0  0  0  0  0  0  0
    1.8221   -1.6016    0.0000 C   0  0  0  0  0  0  0  0  0  0  0  0
    2.8995   -0.8154    0.0000 C   0  0  0  0  0  0  0  0  0  0  0  0
    2.2339   -0.3287    0.0000 C   0  0  0  0  0  0  0  0  0  0  0  0
    4.5219    1.4060    0.0000 N   0  0  0  0  0  0  0  0  0  0  0  0
    3.8480    0.2454    0.0000 C   0  0  0  0  0  0  0  0  0  0  0  0
    2.6457   -1.6016    0.0000 S   0  0  0  0  0  0  0  0  0  0  0  0
    3.7107    1.5725    0.0000 C   0  0  0  0  0  0  0  0  0  0  0  0
    4.6093    0.5824    0.0000 C   0  0  0  0  0  0  0  0  0  0  0  0
    3.6858   -0.5616    0.0000 C   0  0  0  0  0  0  0  0  0  0  0  0
    3.2989    0.8569    0.0000 C   0  0  0  0  0  0  0  0  0  0  0  0
    5.1417    1.9552    0.0000 C   0  0  0  0  0  0  0  0  0  0  0  0
    0.6115    0.2454    0.0000 C   0  0  0  0  0  0  0  0  0  0  0  0
    0.3911    1.0441    0.0000 C   0  0  0  0  0  0  0  0  0  0  0  0
    1.3353   -2.2631    0.0000 O   0  0  0  0  0  0  0  0  0  0  0  0
    2.2256    0.4950    0.0000 O   0  0  0  0  0  0  0  0  0  0  0  0
    0.7862   -0.5616    0.0000 C   0  0  0  0  0  0  0  0  0  0  0  0
    5.9197    1.6931    0.0000 C   0  0  0  0  0  0  0  0  0  0  0  0
    4.9670    2.7456    0.0000 C   0  0  0  0  0  0  0  0  0  0  0  0
    3.3821    2.3295    0.0000 C   0  0  0  0  0  0  0  0  0  0  0  0
    6.3689    3.0409    0.0000 C   0  0  0  0  0  0  0  0  0  0  0  0
    5.3206    0.1705    0.0000 C   0  0  0  0  0  0  0  0  0  0  0  0
    6.5312    2.2339    0.0000 C   0  0  0  0  0  0  0  0  0  0  0  0
    5.5827    3.2947    0.0000 C   0  0  0  0  0  0  0  0  0  0  0  0
    6.9805    3.5900    0.0000 O   0  0  0  0  0  0  0  0  0  0  0  0
  2  1  1  0  0  0  0
  3  4  1  0  0  0  0
  3  7  1  0  0  0  0
  4  1  1  0  0  0  0
  5  9  1  0  0  0  0
  5  8  1  0  0  0  0
  6 10  1  0  0  0  0
  7  2  1  0  0  0  0
  8 11  2  0  0  0  0
  9  6  2  0  0  0  0
 10  3  2  0  0  0  0
 11  6  1  0  0  0  0
 12  5  1  0  0  0  0
 13 17  1  0  0  0  0
 14 13  3  0  0  0  0
 15  2  2  0  0  0  0
 16  4  2  0  0  0  0
 17  1  1  0  0  0  0
 18 12  2  0  0  0  0
 19 12  1  0  0  0  0
 20  8  1  0  0  0  0
 21 24  1  0  0  0  0
 22  9  1  0  0  0  0
 23 18  1  0  0  0  0
 23 21  2  0  0  0  0
 24 19  2  0  0  0  0
 25 21  1  0  0  0  0
M  END
> <CdId>
1197

> <Mol Weight>
352.407

> <Formula>
C19H16N2O3S

> <Click_ID>
CLK016_E02 __ __ 

$$$$
