CLK026_E04
 OpenBabel03181404502D

 25 27  0  0  0  0  0  0  0  0999 V2000
    0.3540   -0.2818    0.0000 C    0  0  0  0  0  0  0  0  0  0  0  0
    0.4365   -1.1031    0.0000 C    0  0  0  0  0  0  0  0  0  0  0  0
    1.1066    0.0515    0.0000 C    0  0  0  0  0  0  0  0  0  0  0  0
    1.2440   -1.2715    0.0000 N    0  0  0  0  0  0  0  0  0  0  0  0
    1.6564   -0.5567    0.0000 C    0  0  0  0  0  0  0  0  0  0  0  0
   -0.3574    0.1306    0.0000 N    0  0  0  0  0  0  0  0  0  0  0  0
   -1.7870    0.9553    0.0000 C    0  0  0  0  0  0  0  0  0  0  0  0
   -1.0722    1.3677    0.0000 C    0  0  0  0  0  0  0  0  0  0  0  0
   -0.3574    0.9553    0.0000 N    0  0  0  0  0  0  0  0  0  0  0  0
    2.3987   -2.1100    0.0000 C    0  0  0  0  0  0  0  0  0  0  0  0
    2.4674   -0.3918    0.0000 C    0  0  0  0  0  0  0  0  0  0  0  0
    3.2131   -2.1925    0.0000 C    0  0  0  0  0  0  0  0  0  0  0  0
    1.3574    0.8351    0.0000 C    0  0  0  0  0  0  0  0  0  0  0  0
   -0.1787   -1.6530    0.0000 O    0  0  0  0  0  0  0  0  0  0  0  0
   -2.5087    1.3712    0.0000 C    0  0  0  0  0  0  0  0  0  0  0  0
    1.5774   -2.0275    0.0000 C    0  0  0  0  0  0  0  0  0  0  0  0
   -1.0722    2.1925    0.0000 O    0  0  0  0  0  0  0  0  0  0  0  0
    2.1685    1.0103    0.0000 C    0  0  0  0  0  0  0  0  0  0  0  0
    2.7183    0.3952    0.0000 C    0  0  0  0  0  0  0  0  0  0  0  0
   -2.5087    2.1959    0.0000 Cl   0  0  0  0  0  0  0  0  0  0  0  0
    2.4262    1.7939    0.0000 Br   0  0  0  0  0  0  0  0  0  0  0  0
   -1.7870    0.1306    0.0000 C    0  0  0  0  0  0  0  0  0  0  0  0
   -3.2166    0.9553    0.0000 C    0  0  0  0  0  0  0  0  0  0  0  0
   -2.5087   -0.2818    0.0000 C    0  0  0  0  0  0  0  0  0  0  0  0
   -3.2166    0.1306    0.0000 C    0  0  0  0  0  0  0  0  0  0  0  0
  2  1  1  0  0  0  0
  3  1  1  0  0  0  0
  4  2  1  0  0  0  0
  5  3  2  0  0  0  0
  5  4  1  0  0  0  0
  6  1  2  0  0  0  0
  7  8  1  0  0  0  0
  8  9  1  0  0  0  0
  9  6  1  0  0  0  0
 10 16  1  0  0  0  0
 11  5  1  0  0  0  0
 12 10  3  0  0  0  0
 13  3  1  0  0  0  0
 14  2  2  0  0  0  0
 15  7  1  0  0  0  0
 16  4  1  0  0  0  0
 17  8  2  0  0  0  0
 18 13  2  0  0  0  0
 19 18  1  0  0  0  0
 19 11  2  0  0  0  0
 20 15  1  0  0  0  0
 21 18  1  0  0  0  0
 22  7  2  0  0  0  0
 23 15  2  0  0  0  0
 24 22  1  0  0  0  0
 25 24  2  0  0  0  0
 25 23  1  0  0  0  0
M  END
> <CdId>
1979

> <Mol Weight>
416.656

> <Formula>
C18H11BrClN3O2

> <Click_ID>
CLK026_E04 __ __ 

$$$$
