CLK043A02
 OpenBabel03181404502D

 28 29  0  0  0  0  0  0  0  0999 V2000
   -2.4000   -1.4125    0.0000 S    0  0  0  0  0  0  0  0  0  0  0  0
   -2.4000   -0.5875    0.0000 C    0  0  0  0  0  0  0  0  0  0  0  0
   -0.9708    1.0625    0.0000 C    0  0  0  0  0  0  0  0  0  0  0  0
    1.1708    0.6500    0.0000 C    0  0  0  0  0  0  0  0  0  0  0  0
   -0.2583    0.6500    0.0000 N    0  0  0  0  0  0  0  0  0  0  0  0
   -3.1167   -3.4750    0.0000 C    0  0  0  0  0  0  0  0  0  0  0  0
   -1.6875    0.6500    0.0000 C    0  0  0  0  0  0  0  0  0  0  0  0
   -1.6875   -0.1750    0.0000 C    0  0  0  0  0  0  0  0  0  0  0  0
   -3.1167   -4.3000    0.0000 C    0  0  0  0  0  0  0  0  0  0  0  0
   -1.5750   -1.4125    0.0000 O    0  0  0  0  0  0  0  0  0  0  0  0
   -3.2250   -1.4125    0.0000 O    0  0  0  0  0  0  0  0  0  0  0  0
    0.4583    1.0625    0.0000 N    0  0  0  0  0  0  0  0  0  0  0  0
   -2.4000   -2.2375    0.0000 N    0  0  0  0  0  0  0  0  0  0  0  0
    2.6000    0.6500    0.0000 O    0  0  0  0  0  0  0  0  0  0  0  0
   -0.9708    1.8875    0.0000 O    0  0  0  0  0  0  0  0  0  0  0  0
    1.1708   -0.1750    0.0000 O    0  0  0  0  0  0  0  0  0  0  0  0
    3.3167    1.0625    0.0000 C    0  0  0  0  0  0  0  0  0  0  0  0
    4.0292    0.6500    0.0000 C    0  0  0  0  0  0  0  0  0  0  0  0
    1.8875    1.0625    0.0000 C    0  0  0  0  0  0  0  0  0  0  0  0
    4.0292   -0.1750    0.0000 Cl   0  0  0  0  0  0  0  0  0  0  0  0
   -3.1167   -2.6500    0.0000 C    0  0  0  0  0  0  0  0  0  0  0  0
   -3.1167   -0.1750    0.0000 C    0  0  0  0  0  0  0  0  0  0  0  0
   -2.4000    1.0625    0.0000 C    0  0  0  0  0  0  0  0  0  0  0  0
   -3.1167    0.6500    0.0000 C    0  0  0  0  0  0  0  0  0  0  0  0
    3.3167    1.8875    0.0000 C    0  0  0  0  0  0  0  0  0  0  0  0
    4.7458    1.0625    0.0000 C    0  0  0  0  0  0  0  0  0  0  0  0
    4.0292    2.3000    0.0000 C    0  0  0  0  0  0  0  0  0  0  0  0
    4.7458    1.8875    0.0000 C    0  0  0  0  0  0  0  0  0  0  0  0
  2  1  1  0  0  0  0
  3  7  1  0  0  0  0
  4 12  1  0  0  0  0
  5  3  1  0  0  0  0
  6 21  1  0  0  0  0
  7  8  2  0  0  0  0
  8  2  1  0  0  0  0
  9  6  3  0  0  0  0
 10  1  2  0  0  0  0
 11  1  2  0  0  0  0
 12  5  1  0  0  0  0
 13  1  1  0  0  0  0
 14 19  1  0  0  0  0
 15  3  2  0  0  0  0
 16  4  2  0  0  0  0
 17 14  1  0  0  0  0
 18 17  2  0  0  0  0
 19  4  1  0  0  0  0
 20 18  1  0  0  0  0
 21 13  1  0  0  0  0
 22  2  2  0  0  0  0
 23  7  1  0  0  0  0
 24 22  1  0  0  0  0
 24 23  2  0  0  0  0
 25 17  1  0  0  0  0
 26 18  1  0  0  0  0
 27 25  2  0  0  0  0
 27 28  1  0  0  0  0
 28 26  2  0  0  0  0
M  END
> <CdId>
3249

> <Mol Weight>
421.855

> <Formula>
C18H16ClN3O5S

> <Click_ID>
CLK043A02 __ __ 

$$$$
