CLK008_E02
 OpenBabel03181404502D

 33 37  0  0  0  0  0  0  0  0999 V2000
   -0.1587    0.6143    0.0000 C   0  0  3  0  0  0  0  0  0  0  0  0
   -0.8698    0.2002    0.0000 C   0  0  0  0  0  0  0  0  0  0  0  0
    0.6351    0.8248    0.0000 C   0  0  0  0  0  0  0  0  0  0  0  0
    0.5557    0.2002    0.0000 C   0  0  0  0  0  0  0  0  0  0  0  0
   -0.6074    1.3012    0.0000 C   0  0  0  0  0  0  0  0  0  0  0  0
   -0.8801   -0.6247    0.0000 C   0  0  0  0  0  0  0  0  0  0  0  0
   -1.5842    0.6143    0.0000 C   0  0  0  0  0  0  0  0  0  0  0  0
    0.6799    1.6532    0.0000 C   0  0  0  0  0  0  0  0  0  0  0  0
    1.3322    0.3865    0.0000 C   0  0  0  0  0  0  0  0  0  0  0  0
    0.5557   -0.6247    0.0000 C   0  0  0  0  0  0  0  0  0  0  0  0
    1.2701   -0.2140    0.0000 C   0  0  0  0  0  0  0  0  0  0  0  0
   -0.0967    1.9534    0.0000 N   0  0  0  0  0  0  0  0  0  0  0  0
   -1.1977    1.8879    0.0000 O   0  0  0  0  0  0  0  0  0  0  0  0
   -0.1656   -1.0388    0.0000 N   0  0  0  0  0  0  0  0  0  0  0  0
   -1.5842   -1.0388    0.0000 C   0  0  0  0  0  0  0  0  0  0  0  0
   -2.2987    0.2002    0.0000 C   0  0  0  0  0  0  0  0  0  0  0  0
   -2.1709    1.2011    0.0000 O   0  0  0  0  0  0  0  0  0  0  0  0
    1.4116    2.0397    0.0000 C   0  0  0  0  0  0  0  0  0  0  0  0
    2.0709    0.7628    0.0000 C   0  0  0  0  0  0  0  0  0  0  0  0
    1.2597   -1.0492    0.0000 N   0  0  0  0  0  0  0  0  0  0  0  0
    1.9811   -0.6247    0.0000 N   0  0  0  0  0  0  0  0  0  0  0  0
   -0.3175    2.7439    0.0000 C   0  0  0  0  0  0  0  0  0  0  0  0
   -0.1692   -1.8638    0.0000 C   0  0  0  0  0  0  0  0  0  0  0  0
   -2.2987   -0.6247    0.0000 C   0  0  0  0  0  0  0  0  0  0  0  0
    2.1053    1.5876    0.0000 C   0  0  0  0  0  0  0  0  0  0  0  0
    0.2588    3.3340    0.0000 C   0  0  0  0  0  0  0  0  0  0  0  0
    0.5419   -2.2779    0.0000 C   0  0  0  0  0  0  0  0  0  0  0  0
   -0.8905   -2.2641    0.0000 C   0  0  0  0  0  0  0  0  0  0  0  0
    0.0483    4.1278    0.0000 C   0  0  0  0  0  0  0  0  0  0  0  0
    0.5350   -3.1028    0.0000 C   0  0  0  0  0  0  0  0  0  0  0  0
   -0.8974   -3.0890    0.0000 C   0  0  0  0  0  0  0  0  0  0  0  0
   -0.1830   -3.5169    0.0000 C   0  0  0  0  0  0  0  0  0  0  0  0
    1.1217   -3.6861    0.0000 F   0  0  0  0  0  0  0  0  0  0  0  0
  1  2  1  0  0  0  0
  1  3  1  0  0  0  0
  1  4  1  0  0  0  0
  1  5  1  0  0  0  0
  2  6  2  0  0  0  0
  2  7  1  0  0  0  0
  3  8  2  0  0  0  0
  3  9  1  0  0  0  0
  4 10  2  0  0  0  0
  4 11  1  0  0  0  0
  5 12  1  0  0  0  0
  5 13  2  0  0  0  0
  6 14  1  0  0  0  0
  6 15  1  0  0  0  0
  7 16  1  0  0  0  0
  7 17  2  0  0  0  0
  8 18  1  0  0  0  0
  8 12  1  0  0  0  0
  9 19  2  0  0  0  0
 10 20  1  0  0  0  0
 10 14  1  0  0  0  0
 11 21  3  0  0  0  0
 12 22  1  0  0  0  0
 14 23  1  0  0  0  0
 15 24  1  0  0  0  0
 16 24  1  0  0  0  0
 18 25  2  0  0  0  0
 19 25  1  0  0  0  0
 22 26  1  0  0  0  0
 23 27  1  0  0  0  0
 23 28  2  0  0  0  0
 26 29  3  0  0  0  0
 27 30  2  0  0  0  0
 28 31  1  0  0  0  0
 30 32  1  0  0  0  0
 30 33  1  0  0  0  0
 31 32  2  0  0  0  0
M  END
> <CdId>
581

> <Mol Weight>
438.4531

> <Formula>
C26H19FN4O2

> <Click_ID>
CLK008_E02 __ __ 

$$$$
