CLK005_A09
 OpenBabel03181404502D

 23 25  0  0  0  0  0  0  0  0999 V2000
    0.8629   -0.5624    0.0000 C    0  0  0  0  0  0  0  0  0  0  0  0
    0.9373    0.2618    0.0000 C    0  0  0  0  0  0  0  0  0  0  0  0
    0.0453   -0.7337    0.0000 C    0  0  0  0  0  0  0  0  0  0  0  0
    1.5352   -1.0406    0.0000 C    0  0  0  0  0  0  0  0  0  0  0  0
    0.1713    0.5753    0.0000 C    0  0  0  0  0  0  0  0  0  0  0  0
    1.6871    0.5914    0.0000 C    0  0  0  0  0  0  0  0  0  0  0  0
   -0.3426   -0.0194    0.0000 N    0  0  0  0  0  0  0  0  0  0  0  0
   -0.3102   -1.4867    0.0000 O    0  0  0  0  0  0  0  0  0  0  0  0
    2.2850   -0.6884    0.0000 C    0  0  0  0  0  0  0  0  0  0  0  0
    1.4641   -1.8745    0.0000 Br   0  0  0  0  0  0  0  0  0  0  0  0
   -0.0355    1.3736    0.0000 O    0  0  0  0  0  0  0  0  0  0  0  0
    2.3626    0.1228    0.0000 C    0  0  0  0  0  0  0  0  0  0  0  0
    1.7647    1.4350    0.0000 Br   0  0  0  0  0  0  0  0  0  0  0  0
   -1.1829   -0.0194    0.0000 C    0  0  0  0  0  0  0  0  0  0  0  0
    2.9637   -1.1700    0.0000 Br   0  0  0  0  0  0  0  0  0  0  0  0
    3.1253    0.4590    0.0000 Br   0  0  0  0  0  0  0  0  0  0  0  0
   -1.5804    0.6916    0.0000 C    0  0  0  0  0  0  0  0  0  0  0  0
   -1.5934   -0.7337    0.0000 C    0  0  0  0  0  0  0  0  0  0  0  0
   -2.4046    0.7045    0.0000 C    0  0  0  0  0  0  0  0  0  0  0  0
   -2.4175   -0.7208    0.0000 C    0  0  0  0  0  0  0  0  0  0  0  0
   -2.8247    0.0000    0.0000 C    0  0  0  0  0  0  0  0  0  0  0  0
   -2.8409    1.4188    0.0000 C    0  0  0  0  0  0  0  0  0  0  0  0
   -3.6683    1.4059    0.0000 C    0  0  0  0  0  0  0  0  0  0  0  0
  1  2  1  0  0  0  0
  1  3  1  0  0  0  0
  1  4  2  0  0  0  0
  2  5  1  0  0  0  0
  2  6  2  0  0  0  0
  3  7  1  0  0  0  0
  3  8  2  0  0  0  0
  4  9  1  0  0  0  0
  4 10  1  0  0  0  0
  5 11  2  0  0  0  0
  5  7  1  0  0  0  0
  6 12  1  0  0  0  0
  6 13  1  0  0  0  0
  7 14  1  0  0  0  0
  9 15  1  0  0  0  0
  9 12  2  0  0  0  0
 12 16  1  0  0  0  0
 14 17  2  0  0  0  0
 14 18  1  0  0  0  0
 17 19  1  0  0  0  0
 18 20  2  0  0  0  0
 19 21  2  0  0  0  0
 19 22  1  0  0  0  0
 20 21  1  0  0  0  0
 22 23  3  0  0  0  0
M  END
> <CdId>
328

> <Mol Weight>
562.832

> <Formula>
C16H5Br4NO2

> <Click_ID>
CLK005_A09 __ __ 

$$$$
