CLK050H05
 OpenBabel03181404502D

 13 13  0  0  0  0  0  0  0  0999 V2000
   -0.3333   -0.2500    0.0000 C   0  0  0  0  0  0  0  0  0  0  0  0
    0.3833   -0.6625    0.0000 N   0  0  0  0  0  0  0  0  0  0  0  0
   -0.3333    0.5750    0.0000 C   0  0  0  0  0  0  0  0  0  0  0  0
    1.0958    2.2250    0.0000 C   0  0  0  0  0  0  0  0  0  0  0  0
   -1.0458   -1.4875    0.0000 N   0  0  0  0  0  0  0  0  0  0  0  0
    1.8125    2.6375    0.0000 C   0  0  0  0  0  0  0  0  0  0  0  0
   -1.0458   -0.6625    0.0000 C   0  0  0  0  0  0  0  0  0  0  0  0
   -1.0458    0.9875    0.0000 O   0  0  0  0  0  0  0  0  0  0  0  0
    0.3833    0.9875    0.0000 N   0  0  0  0  0  0  0  0  0  0  0  0
    0.3833   -1.4875    0.0000 C   0  0  0  0  0  0  0  0  0  0  0  0
   -0.3333   -1.9000    0.0000 C   0  0  0  0  0  0  0  0  0  0  0  0
    0.3833    1.8125    0.0000 C   0  0  0  0  0  0  0  0  0  0  0  0
   -0.3333   -2.7250    0.0000 C   0  0  0  0  0  0  0  0  0  0  0  0
  2  1  1  0  0  0  0
  3  1  1  0  0  0  0
  4 12  1  0  0  0  0
  5  7  1  0  0  0  0
  6  4  3  0  0  0  0
  7  1  2  0  0  0  0
  8  3  2  0  0  0  0
  9  3  1  0  0  0  0
 10  2  2  0  0  0  0
 10 11  1  0  0  0  0
 11  5  2  0  0  0  0
 12  9  1  0  0  0  0
 13 11  1  0  0  0  0
M  END
> <CdId>
3840

> <Mol Weight>
175.1873

> <Formula>
C9H9N3O

> <Click_ID>
CLK050H05 __ __ 

$$$$
