CLK024_E06
 OpenBabel03181404502D

 33 36  0  0  0  0  0  0  0  0999 V2000
    0.3054    1.0157    0.0000 N   0  0  0  0  0  0  0  0  0  0  0  0
    0.0515    0.2299    0.0000 C   0  0  0  0  0  0  0  0  0  0  0  0
   -1.0294    1.0157    0.0000 C   0  0  0  0  0  0  0  0  0  0  0  0
   -0.3603    1.4961    0.0000 C   0  0  0  0  0  0  0  0  0  0  0  0
   -0.7721    0.2299    0.0000 S   0  0  0  0  0  0  0  0  0  0  0  0
   -1.8289    1.2285    0.0000 C   0  0  0  0  0  0  0  0  0  0  0  0
   -2.4157    0.6451    0.0000 C   0  0  0  0  0  0  0  0  0  0  0  0
    1.0980    1.2285    0.0000 C   0  0  0  0  0  0  0  0  0  0  0  0
    1.6780    0.6451    0.0000 C   0  0  0  0  0  0  0  0  0  0  0  0
   -3.2153    0.8682    0.0000 C   0  0  0  0  0  0  0  0  0  0  0  0
   -1.7844   -1.7294    0.0000 C   0  0  0  0  0  0  0  0  0  0  0  0
   -2.3711   -2.3162    0.0000 C   0  0  0  0  0  0  0  0  0  0  0  0
    0.4529   -0.4804    0.0000 O   0  0  0  0  0  0  0  0  0  0  0  0
   -2.2030   -0.1441    0.0000 C   0  0  0  0  0  0  0  0  0  0  0  0
    2.4741    0.8682    0.0000 N   0  0  0  0  0  0  0  0  0  0  0  0
   -0.3706    2.3197    0.0000 O   0  0  0  0  0  0  0  0  0  0  0  0
    1.4652   -0.1441    0.0000 O   0  0  0  0  0  0  0  0  0  0  0  0
   -3.8020    0.2917    0.0000 C   0  0  0  0  0  0  0  0  0  0  0  0
   -2.7897   -0.7309    0.0000 C   0  0  0  0  0  0  0  0  0  0  0  0
   -3.5892   -0.5147    0.0000 C   0  0  0  0  0  0  0  0  0  0  0  0
    3.0574    0.2814    0.0000 C   0  0  0  0  0  0  0  0  0  0  0  0
    4.2172   -0.8818    0.0000 C   0  0  0  0  0  0  0  0  0  0  0  0
   -1.4103   -0.3568    0.0000 O   0  0  0  0  0  0  0  0  0  0  0  0
    3.8466    0.4976    0.0000 C   0  0  0  0  0  0  0  0  0  0  0  0
    2.8377   -0.5147    0.0000 C   0  0  0  0  0  0  0  0  0  0  0  0
    3.4108   -1.0912    0.0000 C   0  0  0  0  0  0  0  0  0  0  0  0
    4.4300   -0.0824    0.0000 C   0  0  0  0  0  0  0  0  0  0  0  0
   -1.1976   -1.1495    0.0000 C   0  0  0  0  0  0  0  0  0  0  0  0
   -3.4177    1.6574    0.0000 C   0  0  0  0  0  0  0  0  0  0  0  0
   -4.5878    0.5044    0.0000 C   0  0  0  0  0  0  0  0  0  0  0  0
    4.7971   -1.4652    0.0000 C   0  0  0  0  0  0  0  0  0  0  0  0
   -4.2138    1.8770    0.0000 C   0  0  0  0  0  0  0  0  0  0  0  0
   -4.8006    1.2936    0.0000 C   0  0  0  0  0  0  0  0  0  0  0  0
  2  1  1  0  0  0  0
  3  4  1  0  0  0  0
  4  1  1  0  0  0  0
  5  2  1  0  0  0  0
  5  3  1  0  0  0  0
  6  3  2  0  0  0  0
  7  6  1  0  0  0  0
  8  1  1  0  0  0  0
  9  8  1  0  0  0  0
 10  7  2  0  0  0  0
 11 28  1  0  0  0  0
 12 11  3  0  0  0  0
 13  2  2  0  0  0  0
 14  7  1  0  0  0  0
 15  9  1  0  0  0  0
 16  4  2  0  0  0  0
 17  9  2  0  0  0  0
 18 10  1  0  0  0  0
 19 14  2  0  0  0  0
 20 19  1  0  0  0  0
 20 18  2  0  0  0  0
 21 15  1  0  0  0  0
 22 26  2  0  0  0  0
 22 27  1  0  0  0  0
 23 14  1  0  0  0  0
 24 21  1  0  0  0  0
 25 21  2  0  0  0  0
 26 25  1  0  0  0  0
 27 24  2  0  0  0  0
 28 23  1  0  0  0  0
 29 10  1  0  0  0  0
 30 18  1  0  0  0  0
 30 33  2  0  0  0  0
 31 22  1  0  0  0  0
 32 29  2  0  0  0  0
 33 32  1  0  0  0  0
M  END
> <CdId>
1821

> <Mol Weight>
456.513

> <Formula>
C26H20N2O4S

> <Click_ID>
CLK024_E06 __ __ 

$$$$
