CLK011_F10
 OpenBabel03181404502D

 14 14  0  0  0  0  0  0  0  0999 V2000
    1.5217    2.5544    0.0000 C    0  0  0  0  0  0  0  0  0  0  0  0
    0.8136    2.1455    0.0000 C    0  0  0  0  0  0  0  0  0  0  0  0
    2.2382    2.1455    0.0000 C    0  0  0  0  0  0  0  0  0  0  0  0
    2.2509    4.6156    0.0000 C    0  0  0  0  0  0  0  0  0  0  0  0
    2.2551    5.4418    0.0000 C    0  0  0  0  0  0  0  0  0  0  0  0
    0.8093    1.3235    0.0000 C    0  0  0  0  0  0  0  0  0  0  0  0
    2.2298    1.3151    0.0000 C    0  0  0  0  0  0  0  0  0  0  0  0
    1.5343    0.9062    0.0000 C    0  0  0  0  0  0  0  0  0  0  0  0
    0.8136   -0.3414    0.0000 O    0  0  0  0  0  0  0  0  0  0  0  0
    2.9506    2.5544    0.0000 Br   0  0  0  0  0  0  0  0  0  0  0  0
    0.1012    2.5670    0.0000 Cl   0  0  0  0  0  0  0  0  0  0  0  0
    1.5343    0.0759    0.0000 C    0  0  0  0  0  0  0  0  0  0  0  0
    1.5301    3.3847    0.0000 O    0  0  0  0  0  0  0  0  0  0  0  0
    2.2509    3.7936    0.0000 C    0  0  0  0  0  0  0  0  0  0  0  0
  2  1  2  0  0  0  0
  3  1  1  0  0  0  0
  4 14  1  0  0  0  0
  5  4  3  0  0  0  0
  6  2  1  0  0  0  0
  7  3  2  0  0  0  0
  8  7  1  0  0  0  0
  8  6  2  0  0  0  0
  9 12  2  0  0  0  0
 10  3  1  0  0  0  0
 11  2  1  0  0  0  0
 12  8  1  0  0  0  0
 13  1  1  0  0  0  0
 14 13  1  0  0  0  0
M  END
> <CdId>
815

> <Mol Weight>
273.51

> <Formula>
C10H6BrClO2

> <Click_ID>
CLK011_F10 __ __ 

$$$$
