CLK012_E04
 OpenBabel03181404502D

 31 33  0  0  0  0  0  0  0  0999 V2000
    1.5599   -0.8132    0.0000 N   0  0  0  0  0  0  0  0  0  0  0  0
    1.8171   -1.5972    0.0000 C   0  0  0  0  0  0  0  0  0  0  0  0
    2.2278   -0.3278    0.0000 C   0  0  0  0  0  0  0  0  0  0  0  0
    2.8916   -0.8132    0.0000 C   0  0  0  0  0  0  0  0  0  0  0  0
    2.6385   -1.5972    0.0000 S   0  0  0  0  0  0  0  0  0  0  0  0
    3.6757   -0.5601    0.0000 C   0  0  0  0  0  0  0  0  0  0  0  0
    0.6098    0.2447    0.0000 C   0  0  0  0  0  0  0  0  0  0  0  0
    0.3900    1.0413    0.0000 C   0  0  0  0  0  0  0  0  0  0  0  0
    5.3144    3.7337    0.0000 C   0  0  0  0  0  0  0  0  0  0  0  0
    1.3317   -2.2569    0.0000 O   0  0  0  0  0  0  0  0  0  0  0  0
    3.4102    1.6055    0.0000 C   0  0  0  0  0  0  0  0  0  0  0  0
    2.2195    0.4937    0.0000 O   0  0  0  0  0  0  0  0  0  0  0  0
    4.1942    1.8627    0.0000 C   0  0  0  0  0  0  0  0  0  0  0  0
    3.8458    0.2447    0.0000 C   0  0  0  0  0  0  0  0  0  0  0  0
    6.0985    3.9827    0.0000 N   0  0  0  0  0  0  0  0  0  0  0  0
    0.7841   -0.5601    0.0000 C   0  0  0  0  0  0  0  0  0  0  0  0
    3.2359    0.7965    0.0000 C   0  0  0  0  0  0  0  0  0  0  0  0
    4.3602    2.6717    0.0000 O   0  0  0  0  0  0  0  0  0  0  0  0
    4.7045    4.2731    0.0000 O   0  0  0  0  0  0  0  0  0  0  0  0
    4.8041    1.3151    0.0000 C   0  0  0  0  0  0  0  0  0  0  0  0
    5.1401    2.9248    0.0000 C   0  0  0  0  0  0  0  0  0  0  0  0
    6.2644    4.7834    0.0000 C   0  0  0  0  0  0  0  0  0  0  0  0
    4.6340    0.5061    0.0000 C   0  0  0  0  0  0  0  0  0  0  0  0
    6.6129    6.4013    0.0000 C   0  0  0  0  0  0  0  0  0  0  0  0
    2.8003    2.1614    0.0000 O   0  0  0  0  0  0  0  0  0  0  0  0
    6.7830    7.2103    0.0000 F   0  0  0  0  0  0  0  0  0  0  0  0
    7.0610    5.0406    0.0000 C   0  0  0  0  0  0  0  0  0  0  0  0
    5.6504    5.3310    0.0000 C   0  0  0  0  0  0  0  0  0  0  0  0
    7.2228    5.8495    0.0000 C   0  0  0  0  0  0  0  0  0  0  0  0
    5.8246    6.1400    0.0000 C   0  0  0  0  0  0  0  0  0  0  0  0
    2.0162    1.9042    0.0000 C   0  0  0  0  0  0  0  0  0  0  0  0
  2  1  1  0  0  0  0
  3  1  1  0  0  0  0
  4  3  1  0  0  0  0
  5  2  1  0  0  0  0
  5  4  1  0  0  0  0
  6  4  2  0  0  0  0
  7 16  1  0  0  0  0
  8  7  3  0  0  0  0
  9 21  1  0  0  0  0
 10  2  2  0  0  0  0
 11 17  1  0  0  0  0
 11 13  2  0  0  0  0
 12  3  2  0  0  0  0
 13 20  1  0  0  0  0
 14  6  1  0  0  0  0
 15  9  1  0  0  0  0
 16  1  1  0  0  0  0
 17 14  2  0  0  0  0
 18 13  1  0  0  0  0
 19  9  2  0  0  0  0
 20 23  2  0  0  0  0
 21 18  1  0  0  0  0
 22 15  1  0  0  0  0
 23 14  1  0  0  0  0
 24 30  2  0  0  0  0
 24 29  1  0  0  0  0
 25 11  1  0  0  0  0
 26 24  1  0  0  0  0
 27 22  1  0  0  0  0
 28 22  2  0  0  0  0
 29 27  2  0  0  0  0
 30 28  1  0  0  0  0
 31 25  1  0  0  0  0
M  END
> <CdId>
879

> <Mol Weight>
440.444

> <Formula>
C22H17FN2O5S

> <Click_ID>
CLK012_E04 __ __ 

$$$$
