CLK048F08
 OpenBabel03181404502D

 22 24  0  0  0  0  0  0  0  0999 V2000
   -0.2292   -0.7292    0.0000 C   0  0  0  0  0  0  0  0  0  0  0  0
   -0.2292   -1.5542    0.0000 N   0  0  0  0  0  0  0  0  0  0  0  0
   -0.9458   -1.9667    0.0000 C   0  0  0  0  0  0  0  0  0  0  0  0
    0.4833   -0.3167    0.0000 C   0  0  0  0  0  0  0  0  0  0  0  0
   -0.9458   -0.3167    0.0000 C   0  0  0  0  0  0  0  0  0  0  0  0
   -1.6583   -0.7292    0.0000 C   0  0  0  0  0  0  0  0  0  0  0  0
   -1.6583   -1.5542    0.0000 C   0  0  0  0  0  0  0  0  0  0  0  0
    0.4833    0.5083    0.0000 N   0  0  0  0  0  0  0  0  0  0  0  0
    1.9125    2.9833    0.0000 C   0  0  0  0  0  0  0  0  0  0  0  0
    1.9125    3.8083    0.0000 C   0  0  0  0  0  0  0  0  0  0  0  0
   -0.9458   -2.7917    0.0000 O   0  0  0  0  0  0  0  0  0  0  0  0
    1.2000   -0.7292    0.0000 O   0  0  0  0  0  0  0  0  0  0  0  0
    1.2000    0.9208    0.0000 C   0  0  0  0  0  0  0  0  0  0  0  0
    1.9125    2.1583    0.0000 C   0  0  0  0  0  0  0  0  0  0  0  0
    1.2000    1.7458    0.0000 C   0  0  0  0  0  0  0  0  0  0  0  0
   -2.3708   -0.3167    0.0000 C   0  0  0  0  0  0  0  0  0  0  0  0
   -2.3708   -1.9667    0.0000 C   0  0  0  0  0  0  0  0  0  0  0  0
    2.6292    0.9208    0.0000 C   0  0  0  0  0  0  0  0  0  0  0  0
    1.9125    0.5083    0.0000 C   0  0  0  0  0  0  0  0  0  0  0  0
    2.6292    1.7458    0.0000 C   0  0  0  0  0  0  0  0  0  0  0  0
   -3.0875   -0.7292    0.0000 C   0  0  0  0  0  0  0  0  0  0  0  0
   -3.0875   -1.5542    0.0000 C   0  0  0  0  0  0  0  0  0  0  0  0
  2  1  1  0  0  0  0
  3  2  1  0  0  0  0
  4  1  1  0  0  0  0
  5  1  2  0  0  0  0
  6  5  1  0  0  0  0
  7  3  1  0  0  0  0
  7  6  2  0  0  0  0
  8  4  1  0  0  0  0
  9 14  1  0  0  0  0
 10  9  3  0  0  0  0
 11  3  2  0  0  0  0
 12  4  2  0  0  0  0
 13  8  1  0  0  0  0
 14 15  1  0  0  0  0
 15 13  2  0  0  0  0
 16  6  1  0  0  0  0
 17  7  1  0  0  0  0
 18 19  2  0  0  0  0
 19 13  1  0  0  0  0
 20 14  2  0  0  0  0
 20 18  1  0  0  0  0
 21 16  2  0  0  0  0
 22 17  2  0  0  0  0
 22 21  1  0  0  0  0
M  END
> <CdId>
3702

> <Mol Weight>
288.3001

> <Formula>
C18H12N2O2

> <Click_ID>
CLK048F08 __ __ 

$$$$
