CLK024_D07
 OpenBabel03181404502D

 21 22  0  0  0  0  0  0  0  0999 V2000
   -1.1509   -1.3364    0.0000 N   0  0  0  0  0  0  0  0  0  0  0  0
   -0.8864   -2.1128    0.0000 C   0  0  0  0  0  0  0  0  0  0  0  0
   -0.5119   -0.8383    0.0000 C   0  0  0  0  0  0  0  0  0  0  0  0
    0.1752   -1.3124    0.0000 C   0  0  0  0  0  0  0  0  0  0  0  0
   -0.0618   -2.0957    0.0000 S   0  0  0  0  0  0  0  0  0  0  0  0
    0.8864   -0.8898    0.0000 C   0  0  0  0  0  0  0  0  0  0  0  0
    0.8726    1.5837    0.0000 C   0  0  0  0  0  0  0  0  0  0  0  0
    0.1614    1.1715    0.0000 C   0  0  0  0  0  0  0  0  0  0  0  0
    1.5872    1.1715    0.0000 C   0  0  0  0  0  0  0  0  0  0  0  0
    0.8726   -0.0687    0.0000 C   0  0  0  0  0  0  0  0  0  0  0  0
   -2.0854   -0.1237    0.0000 C   0  0  0  0  0  0  0  0  0  0  0  0
   -2.3018    0.6734    0.0000 C   0  0  0  0  0  0  0  0  0  0  0  0
   -1.2986   -2.8240    0.0000 O   0  0  0  0  0  0  0  0  0  0  0  0
    0.1614    0.3436    0.0000 C   0  0  0  0  0  0  0  0  0  0  0  0
    1.5872    0.3504    0.0000 C   0  0  0  0  0  0  0  0  0  0  0  0
   -0.5153   -0.0138    0.0000 O   0  0  0  0  0  0  0  0  0  0  0  0
   -1.8723   -0.9241    0.0000 C   0  0  0  0  0  0  0  0  0  0  0  0
   -0.5497    1.5837    0.0000 I   0  0  0  0  0  0  0  0  0  0  0  0
    2.2983    1.5940    0.0000 I   0  0  0  0  0  0  0  0  0  0  0  0
    0.8726    2.4186    0.0000 O   0  0  0  0  0  0  0  0  0  0  0  0
    1.5872    2.8274    0.0000 C   0  0  0  0  0  0  0  0  0  0  0  0
  2  1  1  0  0  0  0
  3  1  1  0  0  0  0
  4  3  1  0  0  0  0
  4  5  1  0  0  0  0
  5  2  1  0  0  0  0
  6  4  2  0  0  0  0
  7  9  1  0  0  0  0
  8 14  1  0  0  0  0
  8  7  2  0  0  0  0
  9 15  2  0  0  0  0
 10  6  1  0  0  0  0
 11 17  1  0  0  0  0
 12 11  3  0  0  0  0
 13  2  2  0  0  0  0
 14 10  2  0  0  0  0
 15 10  1  0  0  0  0
 16  3  2  0  0  0  0
 17  1  1  0  0  0  0
 18  8  1  0  0  0  0
 19  9  1  0  0  0  0
 20  7  1  0  0  0  0
 21 20  1  0  0  0  0
M  END
> <CdId>
1812

> <Mol Weight>
525.1

> <Formula>
C14H9I2NO3S

> <Click_ID>
CLK024_D07 __ __ 

$$$$
