CLK045D07
 OpenBabel03181404502D

 26 29  0  0  0  0  0  0  0  0999 V2000
   -0.3334    0.0333    0.0000 C   0  0  0  0  0  0  0  0  0  0  0  0
    0.1500   -0.6335    0.0000 N   0  0  0  0  0  0  0  0  0  0  0  0
   -0.3334   -1.3003    0.0000 N   0  0  0  0  0  0  0  0  0  0  0  0
   -1.1211   -0.2209    0.0000 C   0  0  0  0  0  0  0  0  0  0  0  0
   -1.1211   -1.0461    0.0000 C   0  0  0  0  0  0  0  0  0  0  0  0
   -0.0792    0.8169    0.0000 C   0  0  0  0  0  0  0  0  0  0  0  0
    0.7294    0.9920    0.0000 N   0  0  0  0  0  0  0  0  0  0  0  0
   -0.0792   -2.0880    0.0000 C   0  0  0  0  0  0  0  0  0  0  0  0
    0.1333    3.7885    0.0000 C   0  0  0  0  0  0  0  0  0  0  0  0
   -0.4168    4.3969    0.0000 C   0  0  0  0  0  0  0  0  0  0  0  0
   -0.6335    1.4337    0.0000 O   0  0  0  0  0  0  0  0  0  0  0  0
    0.9836    1.7755    0.0000 C   0  0  0  0  0  0  0  0  0  0  0  0
   -0.6335   -2.7007    0.0000 C   0  0  0  0  0  0  0  0  0  0  0  0
    0.7294   -2.2589    0.0000 C   0  0  0  0  0  0  0  0  0  0  0  0
    0.6877    3.1716    0.0000 C   0  0  0  0  0  0  0  0  0  0  0  0
   -1.9047    0.0333    0.0000 C   0  0  0  0  0  0  0  0  0  0  0  0
   -1.9047   -1.3003    0.0000 C   0  0  0  0  0  0  0  0  0  0  0  0
    0.4293    2.3881    0.0000 C   0  0  0  0  0  0  0  0  0  0  0  0
    0.4293   -3.6551    0.0000 C   0  0  0  0  0  0  0  0  0  0  0  0
   -0.3751   -3.4842    0.0000 C   0  0  0  0  0  0  0  0  0  0  0  0
    0.9836   -3.0425    0.0000 C   0  0  0  0  0  0  0  0  0  0  0  0
    0.6877   -4.4386    0.0000 F   0  0  0  0  0  0  0  0  0  0  0  0
   -2.3881   -0.6335    0.0000 C   0  0  0  0  0  0  0  0  0  0  0  0
    2.0463    2.7299    0.0000 C   0  0  0  0  0  0  0  0  0  0  0  0
    1.7922    1.9463    0.0000 C   0  0  0  0  0  0  0  0  0  0  0  0
    1.4921    3.3467    0.0000 C   0  0  0  0  0  0  0  0  0  0  0  0
  2  1  2  0  0  0  0
  3  2  1  0  0  0  0
  4  1  1  0  0  0  0
  5  4  2  0  0  0  0
  5  3  1  0  0  0  0
  6  1  1  0  0  0  0
  7  6  1  0  0  0  0
  8  3  1  0  0  0  0
  9 15  1  0  0  0  0
 10  9  3  0  0  0  0
 11  6  2  0  0  0  0
 12  7  1  0  0  0  0
 13  8  2  0  0  0  0
 14  8  1  0  0  0  0
 15 18  1  0  0  0  0
 16  4  1  0  0  0  0
 17  5  1  0  0  0  0
 17 23  1  0  0  0  0
 18 12  2  0  0  0  0
 19 20  2  0  0  0  0
 20 13  1  0  0  0  0
 21 14  2  0  0  0  0
 21 19  1  0  0  0  0
 22 19  1  0  0  0  0
 23 16  1  0  0  0  0
 24 25  2  0  0  0  0
 25 12  1  0  0  0  0
 26 15  2  0  0  0  0
 26 24  1  0  0  0  0
M  END
> <CdId>
3452

> <Mol Weight>
345.3696

> <Formula>
C21H16FN3O

> <Click_ID>
CLK045D07 __ __ 

$$$$
