CLK046E03
 OpenBabel03181404502D

 27 29  0  0  0  0  0  0  0  0999 V2000
   -0.4542   -1.0000    0.0000 C   0  0  0  0  0  0  0  0  0  0  0  0
   -0.4542   -0.1750    0.0000 C   0  0  0  0  0  0  0  0  0  0  0  0
    0.2625    0.2375    0.0000 N   0  0  0  0  0  0  0  0  0  0  0  0
    0.2625   -1.4125    0.0000 C   0  0  0  0  0  0  0  0  0  0  0  0
    0.9750   -1.0000    0.0000 N   0  0  0  0  0  0  0  0  0  0  0  0
    0.9750   -0.1750    0.0000 C   0  0  0  0  0  0  0  0  0  0  0  0
   -1.2375   -1.2542    0.0000 C   0  0  0  0  0  0  0  0  0  0  0  0
   -1.2375    0.0833    0.0000 S   0  0  0  0  0  0  0  0  0  0  0  0
   -1.7208   -0.5875    0.0000 C   0  0  0  0  0  0  0  0  0  0  0  0
    1.6917    0.2375    0.0000 S   0  0  0  0  0  0  0  0  0  0  0  0
    3.1208    3.5375    0.0000 C   0  0  0  0  0  0  0  0  0  0  0  0
    3.1208    4.3583    0.0000 C   0  0  0  0  0  0  0  0  0  0  0  0
    0.2625   -2.2375    0.0000 O   0  0  0  0  0  0  0  0  0  0  0  0
    2.4042    1.4750    0.0000 C   0  0  0  0  0  0  0  0  0  0  0  0
   -2.5458   -0.5875    0.0000 C   0  0  0  0  0  0  0  0  0  0  0  0
    3.1208    1.0625    0.0000 O   0  0  0  0  0  0  0  0  0  0  0  0
    1.6917   -1.4125    0.0000 C   0  0  0  0  0  0  0  0  0  0  0  0
    1.6917    1.0625    0.0000 C   0  0  0  0  0  0  0  0  0  0  0  0
    2.4042    2.3000    0.0000 N   0  0  0  0  0  0  0  0  0  0  0  0
   -1.4917   -2.0375    0.0000 C   0  0  0  0  0  0  0  0  0  0  0  0
    3.1208    2.7125    0.0000 C   0  0  0  0  0  0  0  0  0  0  0  0
   -2.9583    0.1292    0.0000 C   0  0  0  0  0  0  0  0  0  0  0  0
   -2.9583   -1.3000    0.0000 C   0  0  0  0  0  0  0  0  0  0  0  0
    1.6917   -2.2375    0.0000 C   0  0  0  0  0  0  0  0  0  0  0  0
   -3.7833   -1.3000    0.0000 C   0  0  0  0  0  0  0  0  0  0  0  0
   -3.7833    0.1292    0.0000 C   0  0  0  0  0  0  0  0  0  0  0  0
   -4.1958   -0.5875    0.0000 C   0  0  0  0  0  0  0  0  0  0  0  0
  2  1  2  0  0  0  0
  3  2  1  0  0  0  0
  3  6  2  0  0  0  0
  4  1  1  0  0  0  0
  5  4  1  0  0  0  0
  6  5  1  0  0  0  0
  7  1  1  0  0  0  0
  8  2  1  0  0  0  0
  9  7  2  0  0  0  0
  9  8  1  0  0  0  0
 10  6  1  0  0  0  0
 11 21  1  0  0  0  0
 12 11  3  0  0  0  0
 13  4  2  0  0  0  0
 14 18  1  0  0  0  0
 15  9  1  0  0  0  0
 16 14  2  0  0  0  0
 17  5  1  0  0  0  0
 18 10  1  0  0  0  0
 19 14  1  0  0  0  0
 20  7  1  0  0  0  0
 21 19  1  0  0  0  0
 22 15  1  0  0  0  0
 23 15  2  0  0  0  0
 24 17  1  0  0  0  0
 25 23  1  0  0  0  0
 26 22  2  0  0  0  0
 27 25  2  0  0  0  0
 27 26  1  0  0  0  0
M  END
> <CdId>
3501

> <Mol Weight>
397.514

> <Formula>
C20H19N3O2S2

> <Click_ID>
CLK046E03 __ __ 

$$$$
