CLK039H09
 OpenBabel03181404502D

 25 26  0  0  0  0  0  0  0  0999 V2000
   -1.4583    1.8333    0.0000 S    0  0  0  0  0  0  0  0  0  0  0  0
   -0.0292   -0.6417    0.0000 C    0  0  0  0  0  0  0  0  0  0  0  0
   -0.7458    1.4208    0.0000 C    0  0  0  0  0  0  0  0  0  0  0  0
    0.6833   -1.0542    0.0000 O    0  0  0  0  0  0  0  0  0  0  0  0
    1.4000   -2.2917    0.0000 C    0  0  0  0  0  0  0  0  0  0  0  0
    0.6833   -1.8792    0.0000 C    0  0  3  0  0  0  0  0  0  0  0  0
   -0.0292    0.1833    0.0000 C    0  0  0  0  0  0  0  0  0  0  0  0
   -2.8875    3.4833    0.0000 C    0  0  0  0  0  0  0  0  0  0  0  0
   -0.7458    0.5958    0.0000 C    0  0  0  0  0  0  0  0  0  0  0  0
   -3.6042    3.8958    0.0000 C    0  0  0  0  0  0  0  0  0  0  0  0
   -1.0458    2.5500    0.0000 O    0  0  0  0  0  0  0  0  0  0  0  0
   -1.8708    1.1208    0.0000 O    0  0  0  0  0  0  0  0  0  0  0  0
   -2.1750    2.2458    0.0000 N    0  0  0  0  0  0  0  0  0  0  0  0
    2.1125   -1.8792    0.0000 C    0  0  0  0  0  0  0  0  0  0  0  0
   -0.7458   -1.0542    0.0000 O    0  0  0  0  0  0  0  0  0  0  0  0
    2.1125   -1.0542    0.0000 Cl   0  0  0  0  0  0  0  0  0  0  0  0
   -2.1750    3.0708    0.0000 C    0  0  0  0  0  0  0  0  0  0  0  0
    1.4000   -3.1167    0.0000 C    0  0  0  0  0  0  0  0  0  0  0  0
   -0.0292    1.8333    0.0000 C    0  0  0  0  0  0  0  0  0  0  0  0
    0.6833    0.5958    0.0000 C    0  0  0  0  0  0  0  0  0  0  0  0
    0.6833    1.4208    0.0000 C    0  0  0  0  0  0  0  0  0  0  0  0
   -0.0292   -2.2917    0.0000 C    0  0  0  0  0  0  0  0  0  0  0  0
    2.8292   -2.2917    0.0000 C    0  0  0  0  0  0  0  0  0  0  0  0
    2.1125   -3.5292    0.0000 C    0  0  0  0  0  0  0  0  0  0  0  0
    2.8292   -3.1167    0.0000 C    0  0  0  0  0  0  0  0  0  0  0  0
  2  7  1  0  0  0  0
  3  1  1  0  0  0  0
  4  2  1  0  0  0  0
  5  6  1  0  0  0  0
  6  4  1  0  0  0  0
  7  9  2  0  0  0  0
  8 17  1  0  0  0  0
  9  3  1  0  0  0  0
 10  8  3  0  0  0  0
 11  1  2  0  0  0  0
 12  1  2  0  0  0  0
 13  1  1  0  0  0  0
 14  5  2  0  0  0  0
 15  2  2  0  0  0  0
 16 14  1  0  0  0  0
 17 13  1  0  0  0  0
 18  5  1  0  0  0  0
 19  3  2  0  0  0  0
 20  7  1  0  0  0  0
 21 19  1  0  0  0  0
 21 20  2  0  0  0  0
 22  6  1  0  0  0  0
 23 14  1  0  0  0  0
 24 18  2  0  0  0  0
 25 23  2  0  0  0  0
 25 24  1  0  0  0  0
M  END
> <CdId>
2992

> <Mol Weight>
377.842

> <Formula>
C18H16ClNO4S

> <Click_ID>
CLK039H09 __ __ 

$$$$
