CLK040B05
 OpenBabel03181404502D

 21 22  0  0  0  0  0  0  0  0999 V2000
    0.6363   -0.4325    0.0000 N   0  0  0  0  0  0  0  0  0  0  0  0
    1.4179   -0.1747    0.0000 C   0  0  0  0  0  0  0  0  0  0  0  0
    0.1497    0.2288    0.0000 C   0  0  0  0  0  0  0  0  0  0  0  0
    1.4138    0.6445    0.0000 N   0  0  0  0  0  0  0  0  0  0  0  0
    0.6280    0.9106    0.0000 C   0  0  0  0  0  0  0  0  0  0  0  0
    0.3286   -1.1976    0.0000 C   0  0  0  0  0  0  0  0  0  0  0  0
   -1.8006   -3.2185    0.0000 C   0  0  0  0  0  0  0  0  0  0  0  0
   -2.0376   -4.0044    0.0000 C   0  0  0  0  0  0  0  0  0  0  0  0
   -0.4824   -1.3555    0.0000 C   0  0  0  0  0  0  0  0  0  0  0  0
    2.0667   -0.6820    0.0000 O   0  0  0  0  0  0  0  0  0  0  0  0
   -0.6737    0.1747    0.0000 O   0  0  0  0  0  0  0  0  0  0  0  0
   -1.1477   -0.8732    0.0000 O   0  0  0  0  0  0  0  0  0  0  0  0
   -0.7319   -2.1415    0.0000 N   0  0  0  0  0  0  0  0  0  0  0  0
   -0.1996    0.9855    0.0000 C   0  0  0  0  0  0  0  0  0  0  0  0
    1.2475    1.4554    0.0000 C   0  0  0  0  0  0  0  0  0  0  0  0
   -1.4970   -2.4492    0.0000 C   0  0  0  0  0  0  0  0  0  0  0  0
   -0.7361    1.6093    0.0000 C   0  0  0  0  0  0  0  0  0  0  0  0
    1.3098    2.2787    0.0000 C   0  0  0  0  0  0  0  0  0  0  0  0
   -0.6695    2.4283    0.0000 C   0  0  0  0  0  0  0  0  0  0  0  0
    0.7777    2.9024    0.0000 C   0  0  0  0  0  0  0  0  0  0  0  0
   -0.0457    2.9648    0.0000 C   0  0  0  0  0  0  0  0  0  0  0  0
  2  1  1  0  0  0  0
  3  1  1  0  0  0  0
  4  2  1  0  0  0  0
  5  3  1  0  0  0  0
  5  4  1  0  0  0  0
  6  1  1  0  0  0  0
  7 16  1  0  0  0  0
  8  7  3  0  0  0  0
  9  6  1  0  0  0  0
 10  2  2  0  0  0  0
 11  3  2  0  0  0  0
 12  9  2  0  0  0  0
 13  9  1  0  0  0  0
 14  5  1  0  0  0  0
 15  5  1  0  0  0  0
 16 13  1  0  0  0  0
 17 14  1  0  0  0  0
 18 15  1  0  0  0  0
 19 17  1  0  0  0  0
 20 18  1  0  0  0  0
 21 19  1  0  0  0  0
 21 20  1  0  0  0  0
M  END
> <CdId>
3034

> <Mol Weight>
291.3455

> <Formula>
C15H21N3O3

> <Click_ID>
CLK040B05 __ __ 

$$$$
