CLK003_C06
 OpenBabel03181404502D

 26 28  0  0  0  0  0  0  0  0999 V2000
    1.5670    0.9285    0.0000 C   0  0  0  0  0  0  0  0  0  0  0  0
    1.1183    1.6153    0.0000 C   0  0  0  0  0  0  0  0  0  0  0  0
    1.0562    0.2831    0.0000 C   0  0  0  0  0  0  0  0  0  0  0  0
    2.3920    0.9664    0.0000 C   0  0  0  0  0  0  0  0  0  0  0  0
    0.3244    1.4047    0.0000 N   0  0  0  0  0  0  0  0  0  0  0  0
    1.4911    2.3470    0.0000 C   0  0  0  0  0  0  0  0  0  0  0  0
    0.2796    0.5764    0.0000 C   0  0  0  0  0  0  0  0  0  0  0  0
    1.2667   -0.5108    0.0000 C   0  0  0  0  0  0  0  0  0  0  0  0
    2.7681    1.7050    0.0000 C   0  0  0  0  0  0  0  0  0  0  0  0
   -0.3210    1.9225    0.0000 C   0  0  0  0  0  0  0  0  0  0  0  0
    2.3194    2.3920    0.0000 C   0  0  0  0  0  0  0  0  0  0  0  0
    0.6869   -1.0976    0.0000 C   0  0  0  0  0  0  0  0  0  0  0  0
   -0.1830    2.7336    0.0000 C   0  0  0  0  0  0  0  0  0  0  0  0
   -0.1104   -0.8939    0.0000 C   0  0  0  0  0  0  0  0  0  0  0  0
    0.9009   -1.8984    0.0000 C   0  0  0  0  0  0  0  0  0  0  0  0
   -0.0103    3.5379    0.0000 C   0  0  0  0  0  0  0  0  0  0  0  0
   -0.6973   -1.4807    0.0000 N   0  0  0  0  0  0  0  0  0  0  0  0
   -0.3348   -0.0967    0.0000 O   0  0  0  0  0  0  0  0  0  0  0  0
    1.1114   -2.6957    0.0000 N   0  0  0  0  0  0  0  0  0  0  0  0
   -1.5221   -1.4738    0.0000 C   0  0  0  0  0  0  0  0  0  0  0  0
   -1.9363   -2.1952    0.0000 C   0  0  0  0  0  0  0  0  0  0  0  0
   -1.9259   -0.7559    0.0000 C   0  0  0  0  0  0  0  0  0  0  0  0
   -2.7750   -2.1883    0.0000 C   0  0  0  0  0  0  0  0  0  0  0  0
   -1.5255   -2.9131    0.0000 C   0  0  0  0  0  0  0  0  0  0  0  0
   -2.7612   -0.7490    0.0000 C   0  0  0  0  0  0  0  0  0  0  0  0
   -3.1789   -1.4600    0.0000 C   0  0  0  0  0  0  0  0  0  0  0  0
  1  2  1  0  0  0  0
  1  3  1  0  0  0  0
  1  4  2  0  0  0  0
  2  5  1  0  0  0  0
  2  6  2  0  0  0  0
  3  7  2  0  0  0  0
  3  8  1  0  0  0  0
  4  9  1  0  0  0  0
  5 10  1  0  0  0  0
  5  7  1  0  0  0  0
  6 11  1  0  0  0  0
  8 12  2  0  0  0  0
  9 11  2  0  0  0  0
 10 13  1  0  0  0  0
 12 14  1  0  0  0  0
 12 15  1  0  0  0  0
 13 16  3  0  0  0  0
 14 17  1  0  0  0  0
 14 18  2  0  0  0  0
 15 19  3  0  0  0  0
 17 20  1  0  0  0  0
 20 21  2  0  0  0  0
 20 22  1  0  0  0  0
 21 23  1  0  0  0  0
 21 24  1  0  0  0  0
 22 25  2  0  0  0  0
 23 26  2  0  0  0  0
 25 26  1  0  0  0  0
M  END
> <CdId>
185

> <Mol Weight>
339.3899

> <Formula>
C22H17N3O

> <Click_ID>
CLK003_C06 __ __ 

$$$$
