CLK044B10
 OpenBabel03181404502D

 27 28  0  0  0  0  0  0  0  0999 V2000
   -1.6958    2.3833    0.0000 S   0  0  0  0  0  0  0  0  0  0  0  0
    1.8750   -3.8042    0.0000 C   0  0  0  0  0  0  0  0  0  0  0  0
   -0.9792    1.9708    0.0000 C   0  0  0  0  0  0  0  0  0  0  0  0
   -0.2667   -0.0917    0.0000 C   0  0  0  0  0  0  0  0  0  0  0  0
    1.8750   -2.9792    0.0000 C   0  0  0  0  0  0  0  0  0  0  0  0
   -3.1250    4.0292    0.0000 C   0  0  0  0  0  0  0  0  0  0  0  0
   -0.2667    0.7333    0.0000 C   0  0  0  0  0  0  0  0  0  0  0  0
   -0.9792    1.1458    0.0000 C   0  0  0  0  0  0  0  0  0  0  0  0
   -3.8375    4.4417    0.0000 C   0  0  0  0  0  0  0  0  0  0  0  0
   -2.1083    1.6708    0.0000 O   0  0  0  0  0  0  0  0  0  0  0  0
   -1.2833    3.1000    0.0000 O   0  0  0  0  0  0  0  0  0  0  0  0
   -2.4083    2.7958    0.0000 N   0  0  0  0  0  0  0  0  0  0  0  0
    0.4458   -0.5042    0.0000 O   0  0  0  0  0  0  0  0  0  0  0  0
    1.1625   -2.5667    0.0000 C   0  0  0  0  0  0  0  0  0  0  0  0
   -0.9792   -0.5042    0.0000 O   0  0  0  0  0  0  0  0  0  0  0  0
    1.8750   -4.6292    0.0000 F   0  0  0  0  0  0  0  0  0  0  0  0
    2.7000   -3.8042    0.0000 F   0  0  0  0  0  0  0  0  0  0  0  0
    1.0500   -3.8042    0.0000 F   0  0  0  0  0  0  0  0  0  0  0  0
    0.4458   -1.3292    0.0000 C   0  0  0  0  0  0  0  0  0  0  0  0
    1.1625   -1.7417    0.0000 C   0  0  0  0  0  0  0  0  0  0  0  0
   -2.4083    3.6208    0.0000 C   0  0  0  0  0  0  0  0  0  0  0  0
   -0.2667    2.3833    0.0000 C   0  0  0  0  0  0  0  0  0  0  0  0
    2.5917   -2.5667    0.0000 C   0  0  0  0  0  0  0  0  0  0  0  0
    0.4458    1.1458    0.0000 C   0  0  0  0  0  0  0  0  0  0  0  0
    0.4458    1.9708    0.0000 C   0  0  0  0  0  0  0  0  0  0  0  0
    2.5917   -1.7417    0.0000 C   0  0  0  0  0  0  0  0  0  0  0  0
    1.8750   -1.3292    0.0000 C   0  0  0  0  0  0  0  0  0  0  0  0
  2  5  1  0  0  0  0
  3  1  1  0  0  0  0
  4  7  1  0  0  0  0
  5 14  2  0  0  0  0
  6 21  1  0  0  0  0
  7  8  2  0  0  0  0
  8  3  1  0  0  0  0
  9  6  3  0  0  0  0
 10  1  2  0  0  0  0
 11  1  2  0  0  0  0
 12  1  1  0  0  0  0
 13  4  1  0  0  0  0
 14 20  1  0  0  0  0
 15  4  2  0  0  0  0
 16  2  1  0  0  0  0
 17  2  1  0  0  0  0
 18  2  1  0  0  0  0
 19 13  1  0  0  0  0
 20 19  1  0  0  0  0
 21 12  1  0  0  0  0
 22  3  2  0  0  0  0
 23  5  1  0  0  0  0
 24  7  1  0  0  0  0
 25 22  1  0  0  0  0
 25 24  2  0  0  0  0
 26 27  1  0  0  0  0
 26 23  2  0  0  0  0
 27 20  2  0  0  0  0
M  END
> <CdId>
3394

> <Mol Weight>
397.368

> <Formula>
C18H14F3NO4S

> <Click_ID>
CLK044B10 __ __ 

$$$$
