CLK031_D10
 OpenBabel03181404502D

 34 36  0  0  0  0  0  0  0  0999 V2000
   -1.1635    2.3854    0.0000 C   0  0  0  0  0  0  0  0  0  0  0  0
   -0.3378    2.3771    0.0000 N   0  0  0  0  0  0  0  0  0  0  0  0
   -4.5873    3.2153    0.0000 S   0  0  0  0  0  0  0  0  0  0  0  0
   -1.6472    1.7223    0.0000 N   0  0  0  0  0  0  0  0  0  0  0  0
   -1.6472    3.0526    0.0000 S   0  0  0  0  0  0  0  0  0  0  0  0
   -2.4354    2.7982    0.0000 C   0  0  0  0  0  0  0  0  0  0  0  0
   -2.4354    1.9726    0.0000 C   0  0  0  0  0  0  0  0  0  0  0  0
    0.0751    3.0902    0.0000 C   0  0  0  0  0  0  0  0  0  0  0  0
   -3.8616    2.7982    0.0000 C   0  0  0  0  0  0  0  0  0  0  0  0
    0.9008    3.0902    0.0000 C   0  0  0  0  0  0  0  0  0  0  0  0
    2.5439    3.0860    0.0000 C   0  0  0  0  0  0  0  0  0  0  0  0
   -3.1486    3.2111    0.0000 C   0  0  0  0  0  0  0  0  0  0  0  0
    2.1436    3.7991    0.0000 C   0  0  0  0  0  0  0  0  0  0  0  0
    2.1436    2.3646    0.0000 C   0  0  0  0  0  0  0  0  0  0  0  0
    1.3136    3.8033    0.0000 C   0  0  0  0  0  0  0  0  0  0  0  0
    1.3136    2.3729    0.0000 C   0  0  0  0  0  0  0  0  0  0  0  0
   -1.9475    0.3211    0.0000 C   0  0  0  0  0  0  0  0  0  0  0  0
   -3.1486    1.5596    0.0000 C   0  0  0  0  0  0  0  0  0  0  0  0
   -2.4980   -0.2919    0.0000 C   0  0  0  0  0  0  0  0  0  0  0  0
   -4.1494    3.9117    0.0000 O   0  0  0  0  0  0  0  0  0  0  0  0
   -5.0252    2.5105    0.0000 O   0  0  0  0  0  0  0  0  0  0  0  0
   -5.2879    3.6490    0.0000 N   0  0  0  0  0  0  0  0  0  0  0  0
   -0.3378    3.8033    0.0000 O   0  0  0  0  0  0  0  0  0  0  0  0
   -3.8616    1.9726    0.0000 C   0  0  0  0  0  0  0  0  0  0  0  0
   -1.3970    0.9341    0.0000 C   0  0  0  0  0  0  0  0  0  0  0  0
    3.3822    3.0860    0.0000 O   0  0  0  0  0  0  0  0  0  0  0  0
    2.5647    4.5165    0.0000 O   0  0  0  0  0  0  0  0  0  0  0  0
    2.5564    1.6472    0.0000 O   0  0  0  0  0  0  0  0  0  0  0  0
    3.8033    3.7991    0.0000 C   0  0  0  0  0  0  0  0  0  0  0  0
    3.3947    4.5082    0.0000 C   0  0  0  0  0  0  0  0  0  0  0  0
    2.1311    0.9341    0.0000 C   0  0  0  0  0  0  0  0  0  0  0  0
    4.6290    3.7991    0.0000 C   0  0  0  0  0  0  0  0  0  0  0  0
    3.8075    5.2212    0.0000 C   0  0  0  0  0  0  0  0  0  0  0  0
    2.5564    0.2210    0.0000 C   0  0  0  0  0  0  0  0  0  0  0  0
  2  1  2  0  0  0  0
  3  9  1  0  0  0  0
  4  1  1  0  0  0  0
  5  1  1  0  0  0  0
  6  5  1  0  0  0  0
  6  7  2  0  0  0  0
  7  4  1  0  0  0  0
  8  2  1  0  0  0  0
  9 12  2  0  0  0  0
  9 24  1  0  0  0  0
 10  8  1  0  0  0  0
 11 14  1  0  0  0  0
 12  6  1  0  0  0  0
 13 15  1  0  0  0  0
 13 11  2  0  0  0  0
 14 16  2  0  0  0  0
 15 10  2  0  0  0  0
 16 10  1  0  0  0  0
 17 25  1  0  0  0  0
 18  7  1  0  0  0  0
 19 17  3  0  0  0  0
 20  3  2  0  0  0  0
 21  3  2  0  0  0  0
 22  3  1  0  0  0  0
 23  8  2  0  0  0  0
 24 18  2  0  0  0  0
 25  4  1  0  0  0  0
 26 11  1  0  0  0  0
 27 13  1  0  0  0  0
 28 14  1  0  0  0  0
 29 26  1  0  0  0  0
 30 27  1  0  0  0  0
 31 28  1  0  0  0  0
 32 29  1  0  0  0  0
 33 30  1  0  0  0  0
 34 31  1  0  0  0  0
M  END
> <CdId>
2364

> <Mol Weight>
503.591

> <Formula>
C23H25N3O6S2

> <Click_ID>
CLK031_D10 __ __ 

$$$$
