CLK016_E05
 OpenBabel03181404502D

 24 26  0  0  0  0  0  0  0  0999 V2000
    1.5614   -0.8139    0.0000 N   0  0  0  0  0  0  0  0  0  0  0  0
    1.8188   -1.5988    0.0000 C   0  0  0  0  0  0  0  0  0  0  0  0
    2.8944   -0.8139    0.0000 C   0  0  0  0  0  0  0  0  0  0  0  0
    3.7124    1.5779    0.0000 N   0  0  0  0  0  0  0  0  0  0  0  0
    2.2299   -0.3281    0.0000 C   0  0  0  0  0  0  0  0  0  0  0  0
    3.8536    0.2450    0.0000 C   0  0  0  0  0  0  0  0  0  0  0  0
    2.6410   -1.5988    0.0000 S   0  0  0  0  0  0  0  0  0  0  0  0
    3.3013    0.8596    0.0000 C   0  0  0  0  0  0  0  0  0  0  0  0
    3.6792   -0.5606    0.0000 C   0  0  0  0  0  0  0  0  0  0  0  0
    4.5221    1.4035    0.0000 C   0  0  0  0  0  0  0  0  0  0  0  0
    4.6011    0.5813    0.0000 C   0  0  0  0  0  0  0  0  0  0  0  0
    0.6104    0.2450    0.0000 C   0  0  0  0  0  0  0  0  0  0  0  0
    0.3904    1.0423    0.0000 C   0  0  0  0  0  0  0  0  0  0  0  0
    1.3330   -2.2590    0.0000 O   0  0  0  0  0  0  0  0  0  0  0  0
    2.2217    0.4941    0.0000 O   0  0  0  0  0  0  0  0  0  0  0  0
    0.7848   -0.5606    0.0000 C   0  0  0  0  0  0  0  0  0  0  0  0
    3.3760    2.3254    0.0000 C   0  0  3  0  0  0  0  0  0  0  0  0
    5.1866    1.8894    0.0000 C   0  0  0  0  0  0  0  0  0  0  0  0
    5.3485    0.2325    0.0000 C   0  0  0  0  0  0  0  0  0  0  0  0
    2.8445    2.9981    0.0000 C   0  0  0  0  0  0  0  0  0  0  0  0
    3.8536    2.9981    0.0000 C   0  0  0  0  0  0  0  0  0  0  0  0
    5.9465    1.5448    0.0000 C   0  0  0  0  0  0  0  0  0  0  0  0
    6.0337    0.7184    0.0000 C   0  0  0  0  0  0  0  0  0  0  0  0
    2.0223    2.8735    0.0000 C   0  0  0  0  0  0  0  0  0  0  0  0
  2  1  1  0  0  0  0
  3  5  1  0  0  0  0
  3  7  1  0  0  0  0
  4  8  1  0  0  0  0
  4 10  1  0  0  0  0
  5  1  1  0  0  0  0
  6  9  1  0  0  0  0
  7  2  1  0  0  0  0
  8  6  2  0  0  0  0
  9  3  2  0  0  0  0
 10 11  2  0  0  0  0
 11  6  1  0  0  0  0
 12 16  1  0  0  0  0
 13 12  3  0  0  0  0
 14  2  2  0  0  0  0
 15  5  2  0  0  0  0
 16  1  1  0  0  0  0
 17  4  1  0  0  0  0
 18 10  1  0  0  0  0
 18 22  2  0  0  0  0
 19 11  1  0  0  0  0
 20 17  1  0  0  0  0
 21 17  1  0  0  0  0
 22 23  1  0  0  0  0
 23 19  2  0  0  0  0
 24 20  1  0  0  0  0
M  END
> <CdId>
1200

> <Mol Weight>
338.423

> <Formula>
C19H18N2O2S

> <Click_ID>
CLK016_E05 __ __ 

$$$$
