CLK023_A09
 OpenBabel03181404502D

 20 21  0  0  0  0  0  0  0  0999 V2000
   -1.6224    0.0584    0.0000 N   0  0  0  0  0  0  0  0  0  0  0  0
   -2.0314   -0.6634    0.0000 C   0  0  0  0  0  0  0  0  0  0  0  0
   -0.7218   -0.9349    0.0000 C   0  0  0  0  0  0  0  0  0  0  0  0
   -0.8112   -0.1134    0.0000 C   0  0  0  0  0  0  0  0  0  0  0  0
   -1.4814   -1.2718    0.0000 S   0  0  0  0  0  0  0  0  0  0  0  0
   -0.0068   -1.3474    0.0000 C   0  0  0  0  0  0  0  0  0  0  0  0
    0.7047   -0.9349    0.0000 C   0  0  0  0  0  0  0  0  0  0  0  0
   -1.4814    1.4746    0.0000 C   0  0  0  0  0  0  0  0  0  0  0  0
   -1.0312    2.1758    0.0000 C   0  0  0  0  0  0  0  0  0  0  0  0
    1.4162   -1.3405    0.0000 C   0  0  0  0  0  0  0  0  0  0  0  0
   -2.8461   -0.7493    0.0000 O   0  0  0  0  0  0  0  0  0  0  0  0
   -0.2062    0.4469    0.0000 O   0  0  0  0  0  0  0  0  0  0  0  0
   -1.9558    0.8112    0.0000 C   0  0  0  0  0  0  0  0  0  0  0  0
    2.1311   -0.9212    0.0000 C   0  0  0  0  0  0  0  0  0  0  0  0
    0.6944   -0.1134    0.0000 C   0  0  0  0  0  0  0  0  0  0  0  0
    2.1380   -0.1100    0.0000 C   0  0  0  0  0  0  0  0  0  0  0  0
    1.4196    0.2956    0.0000 C   0  0  0  0  0  0  0  0  0  0  0  0
    2.8426    0.3025    0.0000 O   0  0  0  0  0  0  0  0  0  0  0  0
    1.4059   -2.1723    0.0000 C   0  0  0  0  0  0  0  0  0  0  0  0
    2.8392    1.1343    0.0000 C   0  0  0  0  0  0  0  0  0  0  0  0
  2  1  1  0  0  0  0
  3  4  1  0  0  0  0
  4  1  1  0  0  0  0
  5  2  1  0  0  0  0
  5  3  1  0  0  0  0
  6  3  2  0  0  0  0
  7  6  1  0  0  0  0
  8 13  1  0  0  0  0
  9  8  3  0  0  0  0
 10  7  2  0  0  0  0
 11  2  2  0  0  0  0
 12  4  2  0  0  0  0
 13  1  1  0  0  0  0
 14 10  1  0  0  0  0
 15  7  1  0  0  0  0
 16 17  1  0  0  0  0
 16 14  2  0  0  0  0
 17 15  2  0  0  0  0
 18 16  1  0  0  0  0
 19 10  1  0  0  0  0
 20 18  1  0  0  0  0
M  END
> <CdId>
1704

> <Mol Weight>
287.334

> <Formula>
C15H13NO3S

> <Click_ID>
CLK023_A09 __ __ 

$$$$
