CLK049F08
 OpenBabel03181404502D

 21 22  0  0  0  0  0  0  0  0999 V2000
   -0.9542   -3.3750    0.0000 N   0  3  0  0  0  0  0  0  0  0  0  0
   -0.2417    0.3375    0.0000 C   0  0  0  0  0  0  0  0  0  0  0  0
    1.1875    3.6375    0.0000 C   0  0  0  0  0  0  0  0  0  0  0  0
   -0.9542   -2.5500    0.0000 C   0  0  0  0  0  0  0  0  0  0  0  0
   -0.2417    1.1625    0.0000 N   0  0  0  0  0  0  0  0  0  0  0  0
    1.1875    4.4583    0.0000 C   0  0  0  0  0  0  0  0  0  0  0  0
   -0.9542   -0.0750    0.0000 N   0  0  0  0  0  0  0  0  0  0  0  0
   -1.6708   -3.7875    0.0000 O   0  5  0  0  0  0  0  0  0  0  0  0
   -0.2417   -3.7875    0.0000 O   0  0  0  0  0  0  0  0  0  0  0  0
    0.4750   -0.0750    0.0000 O   0  0  0  0  0  0  0  0  0  0  0  0
    0.4750    1.5750    0.0000 C   0  0  0  0  0  0  0  0  0  0  0  0
   -0.2417   -2.1375    0.0000 C   0  0  0  0  0  0  0  0  0  0  0  0
   -1.6708   -2.1375    0.0000 C   0  0  0  0  0  0  0  0  0  0  0  0
    1.1875    2.8125    0.0000 C   0  0  0  0  0  0  0  0  0  0  0  0
   -0.9542   -0.9000    0.0000 C   0  0  0  0  0  0  0  0  0  0  0  0
    0.4750    2.4000    0.0000 C   0  0  0  0  0  0  0  0  0  0  0  0
   -1.6708   -1.3125    0.0000 C   0  0  0  0  0  0  0  0  0  0  0  0
   -0.2417   -1.3125    0.0000 C   0  0  0  0  0  0  0  0  0  0  0  0
    1.9042    1.5750    0.0000 C   0  0  0  0  0  0  0  0  0  0  0  0
    1.1875    1.1625    0.0000 C   0  0  0  0  0  0  0  0  0  0  0  0
    1.9042    2.4000    0.0000 C   0  0  0  0  0  0  0  0  0  0  0  0
  2  7  1  0  0  0  0
  3 14  1  0  0  0  0
  4  1  1  0  0  0  0
  5  2  1  0  0  0  0
  6  3  3  0  0  0  0
  7 15  1  0  0  0  0
  8  1  1  0  0  0  0
  9  1  2  0  0  0  0
 10  2  2  0  0  0  0
 11  5  1  0  0  0  0
 12  4  1  0  0  0  0
 13  4  2  0  0  0  0
 14 16  1  0  0  0  0
 15 17  2  0  0  0  0
 15 18  1  0  0  0  0
 16 11  2  0  0  0  0
 17 13  1  0  0  0  0
 18 12  2  0  0  0  0
 19 20  2  0  0  0  0
 20 11  1  0  0  0  0
 21 14  2  0  0  0  0
 21 19  1  0  0  0  0
M  END
> <CdId>
3782

> <Mol Weight>
281.2661

> <Formula>
C15H11N3O3

> <Click_ID>
CLK049F08 __ __ 

$$$$
