CLK024_G04
 OpenBabel03181404502D

 18 19  0  0  0  0  0  0  0  0999 V2000
   -0.8111   -0.5487    0.0000 N   0  0  0  0  0  0  0  0  0  0  0  0
   -0.8248   -1.3805    0.0000 C   0  0  0  0  0  0  0  0  0  0  0  0
   -0.0242   -0.3003    0.0000 C   0  0  0  0  0  0  0  0  0  0  0  0
    0.4487   -0.9732    0.0000 C   0  0  0  0  0  0  0  0  0  0  0  0
   -0.0379   -1.6428    0.0000 S   0  0  0  0  0  0  0  0  0  0  0  0
    1.2873   -0.9871    0.0000 C   0  0  0  0  0  0  0  0  0  0  0  0
   -2.2329   -0.3866    0.0000 C   0  0  0  0  0  0  0  0  0  0  0  0
   -2.9819   -0.7593    0.0000 C   0  0  0  0  0  0  0  0  0  0  0  0
   -1.4978   -1.8568    0.0000 O   0  0  0  0  0  0  0  0  0  0  0  0
    0.2381    0.4866    0.0000 O   0  0  0  0  0  0  0  0  0  0  0  0
   -1.4771   -0.0586    0.0000 C   0  0  0  0  0  0  0  0  0  0  0  0
    1.7118   -0.2692    0.0000 C   0  0  0  0  0  0  0  0  0  0  0  0
    2.5435    1.1596    0.0000 C   0  0  0  0  0  0  0  0  0  0  0  0
    2.9784    1.8602    0.0000 I   0  0  0  0  0  0  0  0  0  0  0  0
    1.2873    0.4624    0.0000 C   0  0  0  0  0  0  0  0  0  0  0  0
    2.5332   -0.2692    0.0000 C   0  0  0  0  0  0  0  0  0  0  0  0
    1.7187    1.1596    0.0000 C   0  0  0  0  0  0  0  0  0  0  0  0
    2.9473    0.4349    0.0000 C   0  0  0  0  0  0  0  0  0  0  0  0
  2  1  1  0  0  0  0
  3  1  1  0  0  0  0
  4  3  1  0  0  0  0
  5  2  1  0  0  0  0
  5  4  1  0  0  0  0
  6  4  2  0  0  0  0
  7 11  1  0  0  0  0
  8  7  3  0  0  0  0
  9  2  2  0  0  0  0
 10  3  2  0  0  0  0
 11  1  1  0  0  0  0
 12  6  1  0  0  0  0
 13 18  2  0  0  0  0
 14 13  1  0  0  0  0
 15 12  1  0  0  0  0
 16 12  2  0  0  0  0
 17 15  2  0  0  0  0
 17 13  1  0  0  0  0
 18 16  1  0  0  0  0
M  END
> <CdId>
1839

> <Mol Weight>
369.178

> <Formula>
C13H8INO2S

> <Click_ID>
CLK024_G04 __ __ 

$$$$
