CLK035_A07
 OpenBabel03181404502D

 32 34  0  0  0  0  0  0  0  0999 V2000
   -4.5958    2.5583    0.0000 C   0  0  0  0  0  0  0  0  0  0  0  0
   -1.0083    5.4375    0.0000 S   0  0  0  0  0  0  0  0  0  0  0  0
   -3.8625    2.9833    0.0000 N   0  0  0  0  0  0  0  0  0  0  0  0
   -4.6833    1.7333    0.0000 N   0  0  0  0  0  0  0  0  0  0  0  0
   -5.3208    2.8958    0.0000 S   0  0  0  0  0  0  0  0  0  0  0  0
   -5.4875    1.5833    0.0000 C   0  0  0  0  0  0  0  0  0  0  0  0
   -5.8958    2.3000    0.0000 C   0  0  0  0  0  0  0  0  0  0  0  0
   -3.8708    3.8000    0.0000 C   0  0  0  0  0  0  0  0  0  0  0  0
   -1.7125    5.0292    0.0000 C   0  0  0  0  0  0  0  0  0  0  0  0
   -0.5958    4.7167    0.0000 N   0  0  0  0  0  0  0  0  0  0  0  0
   -4.2583    0.3583    0.0000 C   0  0  0  0  0  0  0  0  0  0  0  0
   -0.2833    5.8417    0.0000 O   0  0  0  0  0  0  0  0  0  0  0  0
   -1.4083    6.1542    0.0000 O   0  0  0  0  0  0  0  0  0  0  0  0
   -4.4458   -0.4542    0.0000 C   0  0  0  0  0  0  0  0  0  0  0  0
   -3.1583    4.2125    0.0000 C   0  0  0  0  0  0  0  0  0  0  0  0
   -5.9208    0.8833    0.0000 C   0  0  0  0  0  0  0  0  0  0  0  0
   -4.5833    4.2167    0.0000 O   0  0  0  0  0  0  0  0  0  0  0  0
   -4.0708    1.1625    0.0000 C   0  0  0  0  0  0  0  0  0  0  0  0
   -1.7208    4.2000    0.0000 C   0  0  0  0  0  0  0  0  0  0  0  0
   -2.4458    5.4500    0.0000 C   0  0  0  0  0  0  0  0  0  0  0  0
   -2.4458    3.8000    0.0000 C   0  0  0  0  0  0  0  0  0  0  0  0
   -3.1583    5.0292    0.0000 C   0  0  0  0  0  0  0  0  0  0  0  0
   -6.7042    2.3208    0.0000 C   0  0  0  0  0  0  0  0  0  0  0  0
   -5.5208    0.1458    0.0000 O   0  0  0  0  0  0  0  0  0  0  0  0
   -7.1417    1.6208    0.0000 C   0  0  0  0  0  0  0  0  0  0  0  0
    0.2375    4.7167    0.0000 C   0  0  0  0  0  0  0  0  0  0  0  0
   -1.0083    4.0042    0.0000 C   0  0  0  0  0  0  0  0  0  0  0  0
   -6.7292    0.8875    0.0000 C   0  0  0  0  0  0  0  0  0  0  0  0
   -5.9583   -0.5542    0.0000 C   0  0  0  0  0  0  0  0  0  0  0  0
    0.6500    5.4292    0.0000 C   0  0  0  0  0  0  0  0  0  0  0  0
    1.4750    5.4292    0.0000 C   0  0  0  0  0  0  0  0  0  0  0  0
    1.8875    6.1417    0.0000 C   0  0  0  0  0  0  0  0  0  0  0  0
  2  9  1  0  0  0  0
  3  1  2  0  0  0  0
  4  1  1  0  0  0  0
  5  1  1  0  0  0  0
  6  4  1  0  0  0  0
  7  5  1  0  0  0  0
  7  6  2  0  0  0  0
  8  3  1  0  0  0  0
  9 20  1  0  0  0  0
  9 19  2  0  0  0  0
 10  2  1  0  0  0  0
 11 18  1  0  0  0  0
 12  2  2  0  0  0  0
 13  2  2  0  0  0  0
 14 11  3  0  0  0  0
 15  8  1  0  0  0  0
 16  6  1  0  0  0  0
 17  8  2  0  0  0  0
 18  4  1  0  0  0  0
 19 21  1  0  0  0  0
 20 22  2  0  0  0  0
 21 15  2  0  0  0  0
 22 15  1  0  0  0  0
 23  7  1  0  0  0  0
 24 16  1  0  0  0  0
 25 23  2  0  0  0  0
 26 10  1  0  0  0  0
 27 10  1  0  0  0  0
 28 16  2  0  0  0  0
 28 25  1  0  0  0  0
 29 24  1  0  0  0  0
 30 26  1  0  0  0  0
 31 30  1  0  0  0  0
 32 31  1  0  0  0  0
M  END
> <CdId>
2651

> <Mol Weight>
471.592

> <Formula>
C23H25N3O4S2

> <Click_ID>
CLK035_A07 __ __ 

$$$$
