CLK022_E08
 OpenBabel03181404502D

 19 20  0  0  0  0  0  0  0  0999 V2000
    3.7584    1.3016    0.0000 C   0  0  0  0  0  0  0  0  0  0  0  0
    3.3459    2.0166    0.0000 N   0  0  0  0  0  0  0  0  0  0  0  0
    8.2959    2.0166    0.0000 C   0  0  0  0  0  0  0  0  0  0  0  0
    9.1209    2.0166    0.0000 C   0  0  0  0  0  0  0  0  0  0  0  0
    4.5834    1.3016    0.0000 C   0  0  0  0  0  0  0  0  0  0  0  0
    3.3459    0.5866    0.0000 O   0  0  0  0  0  0  0  0  0  0  0  0
    0.8709    2.0166    0.0000 N   0  0  0  0  0  0  0  0  0  0  0  0
    2.5209    2.0166    0.0000 C   0  0  0  0  0  0  0  0  0  0  0  0
    4.9959    0.5866    0.0000 C   0  0  0  0  0  0  0  0  0  0  0  0
    4.9959    2.0166    0.0000 C   0  0  0  0  0  0  0  0  0  0  0  0
    6.2334    1.3016    0.0000 C   0  0  0  0  0  0  0  0  0  0  0  0
    5.8209    0.5866    0.0000 C   0  0  0  0  0  0  0  0  0  0  0  0
    5.8209    2.0166    0.0000 C   0  0  0  0  0  0  0  0  0  0  0  0
    2.1084    1.3016    0.0000 C   0  0  0  0  0  0  0  0  0  0  0  0
    2.1084    2.7316    0.0000 C   0  0  0  0  0  0  0  0  0  0  0  0
    7.4709    2.0166    0.0000 C   0  0  0  0  0  0  0  0  0  0  0  0
    7.0584    1.3016    0.0000 O   0  0  0  0  0  0  0  0  0  0  0  0
    1.2834    2.7316    0.0000 C   0  0  0  0  0  0  0  0  0  0  0  0
    1.2834    1.3016    0.0000 C   0  0  0  0  0  0  0  0  0  0  0  0
  2  1  1  0  0  0  0
  3 16  1  0  0  0  0
  4  3  3  0  0  0  0
  5  1  1  0  0  0  0
  6  1  2  0  0  0  0
  7 18  2  0  0  0  0
  8  2  1  0  0  0  0
  9  5  2  0  0  0  0
 10  5  1  0  0  0  0
 11 13  1  0  0  0  0
 12  9  1  0  0  0  0
 12 11  2  0  0  0  0
 13 10  2  0  0  0  0
 14  8  1  0  0  0  0
 15  8  2  0  0  0  0
 16 17  1  0  0  0  0
 17 11  1  0  0  0  0
 18 15  1  0  0  0  0
 19 14  2  0  0  0  0
 19  7  1  0  0  0  0
M  END
> <CdId>
1675

> <Mol Weight>
252.268

> <Formula>
C15H12N2O2

> <Click_ID>
CLK022_E08 __ __ 

$$$$
