CLK050D10
 OpenBabel03181404502D

 21 23  0  0  0  0  0  0  0  0999 V2000
   -0.5863   -0.0457    0.0000 C   0  0  0  0  0  0  0  0  0  0  0  0
   -0.4616    2.4035    0.0000 C   0  0  0  0  0  0  0  0  0  0  0  0
   -0.7069    0.8109    0.0000 C   0  0  3  0  0  0  0  0  0  0  0  0
   -1.0313    2.2747    0.0000 C   0  0  3  0  0  0  0  0  0  0  0  0
    0.2662    1.8131    0.0000 C   0  0  3  0  0  0  0  0  0  0  0  0
    0.0332   -0.6155    0.0000 N   0  0  0  0  0  0  0  0  0  0  0  0
    1.6051   -3.0772    0.0000 C   0  0  0  0  0  0  0  0  0  0  0  0
   -1.3016    1.4222    0.0000 C   0  0  0  0  0  0  0  0  0  0  0  0
    0.0624    1.0313    0.0000 C   0  0  0  0  0  0  0  0  0  0  0  0
    2.3162   -3.4889    0.0000 C   0  0  0  0  0  0  0  0  0  0  0  0
   -1.2226   -0.5821    0.0000 O   0  0  0  0  0  0  0  0  0  0  0  0
   -0.8483    3.1479    0.0000 O   0  0  0  0  0  0  0  0  0  0  0  0
    0.1747   -1.4346    0.0000 C   0  0  0  0  0  0  0  0  0  0  0  0
    0.8857   -2.6739    0.0000 C   0  0  0  0  0  0  0  0  0  0  0  0
    0.8899   -1.8505    0.0000 C   0  0  0  0  0  0  0  0  0  0  0  0
    0.8151    2.3786    0.0000 C   0  0  0  0  0  0  0  0  0  0  0  0
   -0.4533    3.0190    0.0000 C   0  0  0  0  0  0  0  0  0  0  0  0
    0.4283    3.1021    0.0000 C   0  0  0  0  0  0  0  0  0  0  0  0
   -0.5406   -2.6697    0.0000 C   0  0  0  0  0  0  0  0  0  0  0  0
   -0.5406   -1.8463    0.0000 C   0  0  0  0  0  0  0  0  0  0  0  0
    0.1747   -3.0856    0.0000 C   0  0  0  0  0  0  0  0  0  0  0  0
  2  4  1  0  0  0  0
  2  5  1  0  0  0  0
  3  1  1  0  0  0  0
  4  8  1  0  0  0  0
  5  9  1  0  0  0  0
  6  1  1  0  0  0  0
  7 14  1  0  0  0  0
  8  3  1  0  0  0  0
  9  3  1  0  0  0  0
 10  7  3  0  0  0  0
 11  1  2  0  0  0  0
 12  2  2  0  0  0  0
 13  6  1  0  0  0  0
 14 15  1  0  0  0  0
 15 13  2  0  0  0  0
 16  5  1  0  0  0  0
 17  4  1  0  0  0  0
 18 17  1  0  0  0  0
 18 16  1  0  0  0  0
 19 20  2  0  0  0  0
 20 13  1  0  0  0  0
 21 14  2  0  0  0  0
 21 19  1  0  0  0  0
M  END
> <CdId>
3876

> <Mol Weight>
281.349

> <Formula>
C18H19NO2

> <Click_ID>
CLK050D10 __ __ 

$$$$
