CLK005_D09
 OpenBabel03181404502D

 34 37  0  0  0  0  0  0  0  0999 V2000
   -1.3674    1.7424    0.0000 C   0  0  0  0  0  0  0  0  0  0  0  0
   -1.3674    0.9167    0.0000 N   0  0  0  0  0  0  0  0  0  0  0  0
   -0.6515    2.1553    0.0000 C   0  0  0  0  0  0  0  0  0  0  0  0
   -2.0871    2.1667    0.0000 N   0  0  0  0  0  0  0  0  0  0  0  0
   -2.8106    0.9167    0.0000 C   0  0  0  0  0  0  0  0  0  0  0  0
   -0.7917    0.3333    0.0000 C   0  0  0  0  0  0  0  0  0  0  0  0
   -0.5720    2.9772    0.0000 C   0  0  0  0  0  0  0  0  0  0  0  0
    0.0985    1.8258    0.0000 N   0  0  0  0  0  0  0  0  0  0  0  0
   -2.8106    1.7424    0.0000 C   0  0  0  0  0  0  0  0  0  0  0  0
   -3.5227    0.5076    0.0000 C   0  0  0  0  0  0  0  0  0  0  0  0
   -1.0000   -0.4621    0.0000 C   0  0  0  0  0  0  0  0  0  0  0  0
    0.2386    3.1440    0.0000 N   0  0  0  0  0  0  0  0  0  0  0  0
   -1.1780    3.5265    0.0000 N   0  0  0  0  0  0  0  0  0  0  0  0
    0.6515    2.4280    0.0000 O   0  0  0  0  0  0  0  0  0  0  0  0
   -3.5227    2.1591    0.0000 C   0  0  0  0  0  0  0  0  0  0  0  0
   -4.2386    0.9167    0.0000 C   0  0  0  0  0  0  0  0  0  0  0  0
   -0.4205   -1.0454    0.0000 N   0  0  0  0  0  0  0  0  0  0  0  0
   -1.7955   -0.6743    0.0000 O   0  0  0  0  0  0  0  0  0  0  0  0
   -4.2386    1.7424    0.0000 C   0  0  0  0  0  0  0  0  0  0  0  0
   -0.6288   -1.8410    0.0000 N   0  0  0  0  0  0  0  0  0  0  0  0
   -0.0492   -2.4167    0.0000 C   0  0  0  0  0  0  0  0  0  0  0  0
    0.7462   -2.2083    0.0000 C   0  0  0  0  0  0  0  0  0  0  0  0
    0.9659   -1.4129    0.0000 C   0  0  0  0  0  0  0  0  0  0  0  0
    1.3333   -2.7878    0.0000 C   0  0  0  0  0  0  0  0  0  0  0  0
    1.7652   -1.1970    0.0000 C   0  0  0  0  0  0  0  0  0  0  0  0
    2.1288   -2.5796    0.0000 C   0  0  0  0  0  0  0  0  0  0  0  0
    2.3409   -1.7879    0.0000 C   0  0  0  0  0  0  0  0  0  0  0  0
    1.9773   -0.4015    0.0000 O   0  0  0  0  0  0  0  0  0  0  0  0
    2.7122   -3.1591    0.0000 I   0  0  0  0  0  0  0  0  0  0  0  0
    3.1364   -1.5758    0.0000 O   0  0  0  0  0  0  0  0  0  0  0  0
    1.3940    0.1781    0.0000 C   0  0  0  0  0  0  0  0  0  0  0  0
    3.7235   -2.1591    0.0000 C   0  0  0  0  0  0  0  0  0  0  0  0
    4.5190   -1.9394    0.0000 C   0  0  0  0  0  0  0  0  0  0  0  0
    5.3144   -1.7311    0.0000 C   0  0  0  0  0  0  0  0  0  0  0  0
  1  2  1  0  0  0  0
  1  3  1  0  0  0  0
  1  4  2  0  0  0  0
  2  5  1  0  0  0  0
  2  6  1  0  0  0  0
  3  7  1  0  0  0  0
  3  8  2  0  0  0  0
  4  9  1  0  0  0  0
  5 10  1  0  0  0  0
  5  9  2  0  0  0  0
  6 11  1  0  0  0  0
  7 12  2  0  0  0  0
  7 13  1  0  0  0  0
  8 14  1  0  0  0  0
  9 15  1  0  0  0  0
 10 16  2  0  0  0  0
 11 17  1  0  0  0  0
 11 18  2  0  0  0  0
 12 14  1  0  0  0  0
 15 19  2  0  0  0  0
 16 19  1  0  0  0  0
 17 20  1  0  0  0  0
 20 21  2  0  0  0  0
 21 22  1  0  0  0  0
 22 23  1  0  0  0  0
 22 24  2  0  0  0  0
 23 25  2  0  0  0  0
 24 26  1  0  0  0  0
 25 27  1  0  0  0  0
 25 28  1  0  0  0  0
 26 29  1  0  0  0  0
 26 27  2  0  0  0  0
 27 30  1  0  0  0  0
 28 31  1  0  0  0  0
 30 32  1  0  0  0  0
 32 33  1  0  0  0  0
 33 34  3  0  0  0  0
M  END
> <CdId>
358

> <Mol Weight>
571.3273

> <Formula>
C22H18IN7O4

> <Click_ID>
CLK005_D09 __ __ 

$$$$
