CLK023_F04
 OpenBabel03181404502D

 16 17  0  0  0  0  0  0  0  0999 V2000
    0.6565   -0.4160    0.0000 S   0  0  0  0  0  0  0  0  0  0  0  0
    0.6565    0.4090    0.0000 C   0  0  0  0  0  0  0  0  0  0  0  0
   -0.0550    0.8215    0.0000 C   0  0  0  0  0  0  0  0  0  0  0  0
   -0.0619   -1.6500    0.0000 C   0  0  0  0  0  0  0  0  0  0  0  0
   -0.7734   -2.0557    0.0000 C   0  0  0  0  0  0  0  0  0  0  0  0
   -0.1650   -0.4160    0.0000 O   0  0  0  0  0  0  0  0  0  0  0  0
    1.4815   -0.4160    0.0000 O   0  0  0  0  0  0  0  0  0  0  0  0
   -0.7666    0.4090    0.0000 N   0  0  0  0  0  0  0  0  0  0  0  0
    0.6565   -1.2410    0.0000 C   0  0  0  0  0  0  0  0  0  0  0  0
   -0.0550    1.6465    0.0000 C   0  0  0  0  0  0  0  0  0  0  0  0
    1.3750    0.8215    0.0000 C   0  0  0  0  0  0  0  0  0  0  0  0
    1.3750    1.6465    0.0000 C   0  0  0  0  0  0  0  0  0  0  0  0
   -1.4850    0.8215    0.0000 C   0  0  0  0  0  0  0  0  0  0  0  0
    0.6565    2.0590    0.0000 C   0  0  0  0  0  0  0  0  0  0  0  0
   -0.7666    2.0590    0.0000 C   0  0  0  0  0  0  0  0  0  0  0  0
   -1.4850    1.6465    0.0000 C   0  0  0  0  0  0  0  0  0  0  0  0
  2  1  1  0  0  0  0
  3  2  1  0  0  0  0
  4  9  1  0  0  0  0
  5  4  3  0  0  0  0
  6  1  2  0  0  0  0
  7  1  2  0  0  0  0
  8  3  2  0  0  0  0
  9  1  1  0  0  0  0
 10  3  1  0  0  0  0
 10 14  1  0  0  0  0
 11  2  2  0  0  0  0
 12 11  1  0  0  0  0
 13  8  1  0  0  0  0
 14 12  2  0  0  0  0
 15 10  2  0  0  0  0
 16 15  1  0  0  0  0
 16 13  2  0  0  0  0
M  END
> <CdId>
1749

> <Mol Weight>
231.27

> <Formula>
C12H9NO2S

> <Click_ID>
CLK023_F04 __ __ 

$$$$
