CLK032_D02
 OpenBabel03181404502D

 26 28  0  0  0  0  0  0  0  0999 V2000
   -1.1636    2.3855    0.0000 C    0  0  0  0  0  0  0  0  0  0  0  0
   -0.3378    2.3772    0.0000 N    0  0  0  0  0  0  0  0  0  0  0  0
   -1.6473    1.7224    0.0000 N    0  0  0  0  0  0  0  0  0  0  0  0
   -1.6473    3.0529    0.0000 S    0  0  0  0  0  0  0  0  0  0  0  0
   -2.4356    2.7984    0.0000 C    0  0  0  0  0  0  0  0  0  0  0  0
   -2.4356    1.9727    0.0000 C    0  0  0  0  0  0  0  0  0  0  0  0
    0.0751    3.0904    0.0000 C    0  0  0  0  0  0  0  0  0  0  0  0
   -3.1488    3.2113    0.0000 C    0  0  0  0  0  0  0  0  0  0  0  0
   -1.9476    0.3211    0.0000 C    0  0  0  0  0  0  0  0  0  0  0  0
    0.9008    3.0904    0.0000 C    0  0  0  0  0  0  0  0  0  0  0  0
   -2.4981   -0.2920    0.0000 C    0  0  0  0  0  0  0  0  0  0  0  0
   -3.1488    1.5598    0.0000 C    0  0  0  0  0  0  0  0  0  0  0  0
   -5.2925    2.8026    0.0000 C    0  0  0  0  0  0  0  0  0  0  0  0
   -4.5876    3.2155    0.0000 N    0  0  0  0  0  0  0  0  0  0  0  0
   -3.8619    2.7984    0.0000 C    0  0  0  0  0  0  0  0  0  0  0  0
   -0.3378    3.8036    0.0000 O    0  0  0  0  0  0  0  0  0  0  0  0
    1.3179    2.3772    0.0000 C    0  0  0  0  0  0  0  0  0  0  0  0
   -1.3971    0.9342    0.0000 C    0  0  0  0  0  0  0  0  0  0  0  0
   -6.0056    3.2155    0.0000 O    0  0  0  0  0  0  0  0  0  0  0  0
   -3.8619    1.9727    0.0000 C    0  0  0  0  0  0  0  0  0  0  0  0
    2.1437    2.3730    0.0000 C    0  0  0  0  0  0  0  0  0  0  0  0
    2.5649    1.6473    0.0000 Cl   0  0  0  0  0  0  0  0  0  0  0  0
    1.3179    3.8036    0.0000 C    0  0  0  0  0  0  0  0  0  0  0  0
    2.1437    3.7994    0.0000 C    0  0  0  0  0  0  0  0  0  0  0  0
   -5.3008    1.9769    0.0000 C    0  0  0  0  0  0  0  0  0  0  0  0
    2.5566    3.0862    0.0000 C    0  0  0  0  0  0  0  0  0  0  0  0
  2  1  2  0  0  0  0
  3  1  1  0  0  0  0
  4  1  1  0  0  0  0
  5  4  1  0  0  0  0
  5  6  2  0  0  0  0
  6  3  1  0  0  0  0
  7  2  1  0  0  0  0
  8  5  1  0  0  0  0
  9 18  1  0  0  0  0
 10  7  1  0  0  0  0
 11  9  3  0  0  0  0
 12  6  1  0  0  0  0
 13 14  1  0  0  0  0
 14 15  1  0  0  0  0
 15  8  2  0  0  0  0
 15 20  1  0  0  0  0
 16  7  2  0  0  0  0
 17 10  2  0  0  0  0
 18  3  1  0  0  0  0
 19 13  2  0  0  0  0
 20 12  2  0  0  0  0
 21 17  1  0  0  0  0
 21 26  2  0  0  0  0
 22 21  1  0  0  0  0
 23 10  1  0  0  0  0
 24 23  2  0  0  0  0
 25 13  1  0  0  0  0
 26 24  1  0  0  0  0
M  END
> <CdId>
2436

> <Mol Weight>
383.851

> <Formula>
C19H14ClN3O2S

> <Click_ID>
CLK032_D02 __ __ 

$$$$
