CLK022_D05
 OpenBabel03181404502D

 20 21  0  0  0  0  0  0  0  0999 V2000
    3.2569    0.9161    0.0000 C   0  0  0  0  0  0  0  0  0  0  0  0
    2.8447    1.6307    0.0000 N   0  0  0  0  0  0  0  0  0  0  0  0
    7.7919    0.2015    0.0000 C   0  0  0  0  0  0  0  0  0  0  0  0
    2.0201    1.6307    0.0000 C   0  0  0  0  0  0  0  0  0  0  0  0
    8.6165    0.2015    0.0000 C   0  0  0  0  0  0  0  0  0  0  0  0
    4.0815    0.9161    0.0000 C   0  0  0  0  0  0  0  0  0  0  0  0
    2.8447    0.2015    0.0000 O   0  0  0  0  0  0  0  0  0  0  0  0
    1.6079    2.3453    0.0000 C   0  0  0  0  0  0  0  0  0  0  0  0
    4.4938    0.2015    0.0000 C   0  0  0  0  0  0  0  0  0  0  0  0
    4.4938    1.6307    0.0000 C   0  0  0  0  0  0  0  0  0  0  0  0
    2.0201    3.0599    0.0000 F   0  0  0  0  0  0  0  0  0  0  0  0
    5.7306    0.9161    0.0000 C   0  0  0  0  0  0  0  0  0  0  0  0
    5.3183    1.6307    0.0000 C   0  0  0  0  0  0  0  0  0  0  0  0
    5.3183    0.2015    0.0000 C   0  0  0  0  0  0  0  0  0  0  0  0
    6.9674    0.2015    0.0000 C   0  0  0  0  0  0  0  0  0  0  0  0
    6.5551    0.9161    0.0000 O   0  0  0  0  0  0  0  0  0  0  0  0
    1.6079    0.9161    0.0000 C   0  0  0  0  0  0  0  0  0  0  0  0
    0.7833    2.3453    0.0000 C   0  0  0  0  0  0  0  0  0  0  0  0
    0.7833    0.9161    0.0000 C   0  0  0  0  0  0  0  0  0  0  0  0
    0.3710    1.6307    0.0000 C   0  0  0  0  0  0  0  0  0  0  0  0
  2  1  1  0  0  0  0
  3 15  1  0  0  0  0
  4  2  1  0  0  0  0
  5  3  3  0  0  0  0
  6  1  1  0  0  0  0
  7  1  2  0  0  0  0
  8  4  1  0  0  0  0
  9  6  2  0  0  0  0
 10  6  1  0  0  0  0
 11  8  1  0  0  0  0
 12 13  1  0  0  0  0
 12 14  2  0  0  0  0
 13 10  2  0  0  0  0
 14  9  1  0  0  0  0
 15 16  1  0  0  0  0
 16 12  1  0  0  0  0
 17  4  2  0  0  0  0
 18  8  2  0  0  0  0
 19 17  1  0  0  0  0
 20 19  2  0  0  0  0
 20 18  1  0  0  0  0
M  END
> <CdId>
1664

> <Mol Weight>
269.2704

> <Formula>
C16H12FNO2

> <Click_ID>
CLK022_D05 __ __ 

$$$$
