CLK048D11
 OpenBabel03181404502D

 14 14  0  0  0  0  0  0  0  0999 V2000
    0.3542    0.1500    0.0000 C   0  0  0  0  0  0  0  0  0  0  0  0
   -0.3583   -0.2625    0.0000 C   0  0  0  0  0  0  0  0  0  0  0  0
   -2.5042    0.1500    0.0000 C   0  0  0  0  0  0  0  0  0  0  0  0
   -3.2167    0.5625    0.0000 C   0  0  0  0  0  0  0  0  0  0  0  0
    1.0708   -0.2625    0.0000 C   0  0  0  0  0  0  0  0  0  0  0  0
   -0.3583   -1.0875    0.0000 O   0  0  0  0  0  0  0  0  0  0  0  0
   -1.0750    0.1500    0.0000 N   0  0  0  0  0  0  0  0  0  0  0  0
   -1.7875   -0.2625    0.0000 C   0  0  0  0  0  0  0  0  0  0  0  0
    0.3542    0.9750    0.0000 C   0  0  0  0  0  0  0  0  0  0  0  0
    1.0708   -1.0875    0.0000 O   0  0  0  0  0  0  0  0  0  0  0  0
    1.7833    0.1500    0.0000 C   0  0  0  0  0  0  0  0  0  0  0  0
    1.7833   -1.5000    0.0000 C   0  0  0  0  0  0  0  0  0  0  0  0
    1.0708    1.3875    0.0000 C   0  0  0  0  0  0  0  0  0  0  0  0
    1.7833    0.9750    0.0000 C   0  0  0  0  0  0  0  0  0  0  0  0
  2  1  1  0  0  0  0
  3  8  1  0  0  0  0
  4  3  3  0  0  0  0
  5  1  2  0  0  0  0
  6  2  2  0  0  0  0
  7  2  1  0  0  0  0
  8  7  1  0  0  0  0
  9  1  1  0  0  0  0
 10  5  1  0  0  0  0
 11  5  1  0  0  0  0
 12 10  1  0  0  0  0
 13  9  2  0  0  0  0
 13 14  1  0  0  0  0
 14 11  2  0  0  0  0
M  END
> <CdId>
3724

> <Mol Weight>
189.2105

> <Formula>
C11H11NO2

> <Click_ID>
CLK048D11 __ __ 

$$$$
