CLK005_C08
 OpenBabel03181404502D

 32 34  0  0  0  0  0  0  0  0999 V2000
    0.2883   -1.3175    0.0000 C   0  0  3  0  0  0  0  0  0  0  0  0
    0.7048   -0.6047    0.0000 C   0  0  0  0  0  0  0  0  0  0  0  0
   -0.5245   -1.3175    0.0000 C   0  0  0  0  0  0  0  0  0  0  0  0
    0.6928   -2.0302    0.0000 N   0  0  0  0  0  0  0  0  0  0  0  0
    1.5216   -0.6047    0.0000 C   0  0  0  0  0  0  0  0  0  0  0  0
    0.2883    0.1042    0.0000 C   0  0  0  0  0  0  0  0  0  0  0  0
   -0.9370   -0.5926    0.0000 C   0  0  0  0  0  0  0  0  0  0  0  0
   -0.9450   -2.0382    0.0000 C   0  0  0  0  0  0  0  0  0  0  0  0
    0.2883   -2.7390    0.0000 C   0  0  0  0  0  0  0  0  0  0  0  0
    1.9421    0.1122    0.0000 C   0  0  0  0  0  0  0  0  0  0  0  0
    0.7048    0.8329    0.0000 C   0  0  0  0  0  0  0  0  0  0  0  0
   -1.7579   -0.6047    0.0000 N   0  0  0  0  0  0  0  0  0  0  0  0
   -0.5245    0.1201    0.0000 O   0  0  0  0  0  0  0  0  0  0  0  0
   -0.5245   -2.7390    0.0000 N   0  0  0  0  0  0  0  0  0  0  0  0
   -1.7739   -2.0422    0.0000 C   0  0  0  0  0  0  0  0  0  0  0  0
    0.7048   -3.4638    0.0000 O   0  0  0  0  0  0  0  0  0  0  0  0
    1.5296    0.8209    0.0000 C   0  0  0  0  0  0  0  0  0  0  0  0
    2.7790    0.1201    0.0000 O   0  0  0  0  0  0  0  0  0  0  0  0
   -2.1663    0.1122    0.0000 C   0  0  0  0  0  0  0  0  0  0  0  0
    1.9421    1.5337    0.0000 O   0  0  0  0  0  0  0  0  0  0  0  0
    3.1874    0.8449    0.0000 C   0  0  0  0  0  0  0  0  0  0  0  0
   -2.9913    0.1042    0.0000 C   0  0  0  0  0  0  0  0  0  0  0  0
   -1.7579    0.8329    0.0000 C   0  0  0  0  0  0  0  0  0  0  0  0
    2.7630    1.5337    0.0000 C   0  0  0  0  0  0  0  0  0  0  0  0
    4.0044    0.8449    0.0000 C   0  0  0  0  0  0  0  0  0  0  0  0
   -3.4037    0.8209    0.0000 C   0  0  0  0  0  0  0  0  0  0  0  0
   -2.1663    1.5296    0.0000 C   0  0  0  0  0  0  0  0  0  0  0  0
    3.1755    2.2545    0.0000 C   0  0  0  0  0  0  0  0  0  0  0  0
   -2.9913    1.5417    0.0000 C   0  0  0  0  0  0  0  0  0  0  0  0
   -4.2286    0.8209    0.0000 C   0  0  0  0  0  0  0  0  0  0  0  0
    3.5839    2.9632    0.0000 C   0  0  0  0  0  0  0  0  0  0  0  0
   -3.3997    2.2545    0.0000 C   0  0  0  0  0  0  0  0  0  0  0  0
  1  2  1  0  0  0  0
  1  3  1  0  0  0  0
  1  4  1  0  0  0  0
  2  5  2  0  0  0  0
  2  6  1  0  0  0  0
  3  7  1  0  0  0  0
  3  8  2  0  0  0  0
  4  9  1  0  0  0  0
  5 10  1  0  0  0  0
  6 11  2  0  0  0  0
  7 12  1  0  0  0  0
  7 13  2  0  0  0  0
  8 14  1  0  0  0  0
  8 15  1  0  0  0  0
  9 16  2  0  0  0  0
  9 14  1  0  0  0  0
 10 17  2  0  0  0  0
 10 18  1  0  0  0  0
 11 17  1  0  0  0  0
 12 19  1  0  0  0  0
 17 20  1  0  0  0  0
 18 21  1  0  0  0  0
 19 22  1  0  0  0  0
 19 23  2  0  0  0  0
 20 24  1  0  0  0  0
 21 25  1  0  0  0  0
 22 26  2  0  0  0  0
 23 27  1  0  0  0  0
 24 28  1  0  0  0  0
 26 29  1  0  0  0  0
 26 30  1  0  0  0  0
 27 29  2  0  0  0  0
 28 31  3  0  0  0  0
 29 32  1  0  0  0  0
M  END
> <CdId>
347

> <Mol Weight>
433.4996

> <Formula>
C25H27N3O4

> <Click_ID>
CLK005_C08 __ __ 

$$$$
