CLK042E05
 OpenBabel03181404502D

 24 25  0  0  0  0  0  0  0  0999 V2000
    0.4750   -2.2000    0.0000 S   0  0  0  0  0  0  0  0  0  0  0  0
   -0.2417   -0.1375    0.0000 C   0  0  0  0  0  0  0  0  0  0  0  0
    0.4750    0.2750    0.0000 C   0  0  0  0  0  0  0  0  0  0  0  0
    0.4750   -1.3750    0.0000 C   0  0  0  0  0  0  0  0  0  0  0  0
   -0.2417   -0.9625    0.0000 C   0  0  0  0  0  0  0  0  0  0  0  0
   -0.9542    0.2750    0.0000 C   0  0  0  0  0  0  0  0  0  0  0  0
    0.4750    1.1000    0.0000 N   0  0  0  0  0  0  0  0  0  0  0  0
    0.4750   -3.0250    0.0000 N   0  0  0  0  0  0  0  0  0  0  0  0
    1.3000   -2.2000    0.0000 O   0  0  0  0  0  0  0  0  0  0  0  0
   -0.3500   -2.2000    0.0000 O   0  0  0  0  0  0  0  0  0  0  0  0
   -1.6708    2.3375    0.0000 C   0  0  0  0  0  0  0  0  0  0  0  0
    1.1875   -0.1375    0.0000 C   0  0  0  0  0  0  0  0  0  0  0  0
   -1.6708    3.1667    0.0000 C   0  0  0  0  0  0  0  0  0  0  0  0
    1.1875   -0.9625    0.0000 C   0  0  0  0  0  0  0  0  0  0  0  0
   -1.6708   -0.1375    0.0000 O   0  0  0  0  0  0  0  0  0  0  0  0
   -0.9542    1.1000    0.0000 N   0  0  0  0  0  0  0  0  0  0  0  0
   -1.6708    1.5125    0.0000 C   0  0  0  0  0  0  0  0  0  0  0  0
    1.1875    1.5125    0.0000 C   0  0  0  0  0  0  0  0  0  0  0  0
   -0.2417    1.5125    0.0000 C   0  0  0  0  0  0  0  0  0  0  0  0
    1.1875   -3.4375    0.0000 C   0  0  0  0  0  0  0  0  0  0  0  0
   -0.2417   -3.4375    0.0000 C   0  0  0  0  0  0  0  0  0  0  0  0
   -0.2417    2.3375    0.0000 C   0  0  0  0  0  0  0  0  0  0  0  0
    1.1875    2.3375    0.0000 C   0  0  0  0  0  0  0  0  0  0  0  0
    0.4750    2.7500    0.0000 C   0  0  0  0  0  0  0  0  0  0  0  0
  2  5  1  0  0  0  0
  3  2  2  0  0  0  0
  3 12  1  0  0  0  0
  4  1  1  0  0  0  0
  5  4  2  0  0  0  0
  6  2  1  0  0  0  0
  7  3  1  0  0  0  0
  8  1  1  0  0  0  0
  9  1  2  0  0  0  0
 10  1  2  0  0  0  0
 11 17  1  0  0  0  0
 12 14  2  0  0  0  0
 13 11  3  0  0  0  0
 14  4  1  0  0  0  0
 15  6  2  0  0  0  0
 16  6  1  0  0  0  0
 17 16  1  0  0  0  0
 18  7  1  0  0  0  0
 19  7  1  0  0  0  0
 20  8  1  0  0  0  0
 21  8  1  0  0  0  0
 22 19  1  0  0  0  0
 23 18  1  0  0  0  0
 24 22  1  0  0  0  0
 24 23  1  0  0  0  0
M  END
> <CdId>
3197

> <Mol Weight>
349.448

> <Formula>
C17H23N3O3S

> <Click_ID>
CLK042E05 __ __ 

$$$$
