CLK007_C08
 OpenBabel03181404502D

 26 29  0  0  0  0  0  0  0  0999 V2000
   -0.1626   -0.5740    0.0000 C   0  0  0  0  0  0  0  0  0  0  0  0
    0.5498   -0.1626    0.0000 C   0  0  3  0  0  0  0  0  0  0  0  0
   -0.1626   -1.3936    0.0000 C   0  0  0  0  0  0  0  0  0  0  0  0
   -0.8783   -0.1521    0.0000 C   0  0  0  0  0  0  0  0  0  0  0  0
    0.5498    0.6640    0.0000 C   0  0  0  0  0  0  0  0  0  0  0  0
    1.2656   -0.5671    0.0000 C   0  0  0  0  0  0  0  0  0  0  0  0
   -0.8783   -1.8084    0.0000 N   0  0  0  0  0  0  0  0  0  0  0  0
    0.5498   -1.8084    0.0000 N   0  0  0  0  0  0  0  0  0  0  0  0
   -1.5837   -0.5740    0.0000 N   0  0  0  0  0  0  0  0  0  0  0  0
   -0.8783    0.6743    0.0000 O   0  0  0  0  0  0  0  0  0  0  0  0
    1.2656    1.0789    0.0000 C   0  0  0  0  0  0  0  0  0  0  0  0
   -0.1626    1.0754    0.0000 C   0  0  0  0  0  0  0  0  0  0  0  0
    1.2656   -1.3936    0.0000 C   0  0  0  0  0  0  0  0  0  0  0  0
   -1.5837   -1.4039    0.0000 C   0  0  0  0  0  0  0  0  0  0  0  0
    1.2621    1.9053    0.0000 C   0  0  0  0  0  0  0  0  0  0  0  0
    1.9814    0.6743    0.0000 C   0  0  0  0  0  0  0  0  0  0  0  0
   -0.1764    1.8950    0.0000 C   0  0  0  0  0  0  0  0  0  0  0  0
    1.9814   -1.8084    0.0000 O   0  0  0  0  0  0  0  0  0  0  0  0
   -2.3064   -1.8154    0.0000 S   0  0  0  0  0  0  0  0  0  0  0  0
    0.5463    2.3168    0.0000 C   0  0  0  0  0  0  0  0  0  0  0  0
    1.9676    2.3203    0.0000 C   0  0  0  0  0  0  0  0  0  0  0  0
    2.6937    1.0858    0.0000 C   0  0  0  0  0  0  0  0  0  0  0  0
   -3.0222   -1.4039    0.0000 C   0  0  0  0  0  0  0  0  0  0  0  0
    2.6834    1.9156    0.0000 C   0  0  0  0  0  0  0  0  0  0  0  0
   -3.0222   -0.5740    0.0000 C   0  0  0  0  0  0  0  0  0  0  0  0
   -3.7345   -0.1626    0.0000 C   0  0  0  0  0  0  0  0  0  0  0  0
  1  2  1  0  0  0  0
  1  3  2  0  0  0  0
  1  4  1  0  0  0  0
  2  5  1  0  0  0  0
  2  6  1  0  0  0  0
  3  7  1  0  0  0  0
  3  8  1  0  0  0  0
  4  9  1  0  0  0  0
  4 10  2  0  0  0  0
  5 11  2  0  0  0  0
  5 12  1  0  0  0  0
  6 13  1  0  0  0  0
  7 14  2  0  0  0  0
  8 13  1  0  0  0  0
  9 14  1  0  0  0  0
 11 15  1  0  0  0  0
 11 16  1  0  0  0  0
 12 17  2  0  0  0  0
 13 18  2  0  0  0  0
 14 19  1  0  0  0  0
 15 20  2  0  0  0  0
 15 21  1  0  0  0  0
 16 22  2  0  0  0  0
 17 20  1  0  0  0  0
 19 23  1  0  0  0  0
 21 24  2  0  0  0  0
 22 24  1  0  0  0  0
 23 25  1  0  0  0  0
 25 26  3  0  0  0  0
M  END
> <CdId>
507

> <Mol Weight>
361.417

> <Formula>
C20H15N3O2S

> <Click_ID>
CLK007_C08 __ __ 

$$$$
