CLK034_D04
 OpenBabel03181404502D

 24 26  0  0  0  0  0  0  0  0999 V2000
   -4.6053    2.5636    0.0000 C   0  0  0  0  0  0  0  0  0  0  0  0
   -3.8705    2.9895    0.0000 N   0  0  0  0  0  0  0  0  0  0  0  0
   -4.6972    1.7369    0.0000 N   0  0  0  0  0  0  0  0  0  0  0  0
   -1.8496    4.5010    0.0000 C   0  0  0  0  0  0  0  0  0  0  0  0
   -5.3318    2.9060    0.0000 S   0  0  0  0  0  0  0  0  0  0  0  0
   -1.0146    4.4259    0.0000 N   0  3  0  0  0  0  0  0  0  0  0  0
   -3.8788    3.8079    0.0000 C   0  0  0  0  0  0  0  0  0  0  0  0
   -2.4008    3.8913    0.0000 O   0  0  0  0  0  0  0  0  0  0  0  0
   -3.1648    4.2212    0.0000 C   0  0  0  0  0  0  0  0  0  0  0  0
   -5.5072    1.5866    0.0000 C   0  0  0  0  0  0  0  0  0  0  0  0
   -5.9080    2.3131    0.0000 C   0  0  0  0  0  0  0  0  0  0  0  0
   -2.2755    5.2025    0.0000 C   0  0  0  0  0  0  0  0  0  0  0  0
   -3.0772    5.0271    0.0000 C   0  0  0  0  0  0  0  0  0  0  0  0
   -4.2797    0.3590    0.0000 C   0  0  0  0  0  0  0  0  0  0  0  0
   -4.4675   -0.4551    0.0000 C   0  0  0  0  0  0  0  0  0  0  0  0
   -0.6639    3.6784    0.0000 O   0  5  0  0  0  0  0  0  0  0  0  0
   -0.5386    5.1023    0.0000 O   0  0  0  0  0  0  0  0  0  0  0  0
   -4.5928    4.2212    0.0000 O   0  0  0  0  0  0  0  0  0  0  0  0
   -5.9373    0.8851    0.0000 C   0  0  0  0  0  0  0  0  0  0  0  0
   -4.0918    1.1649    0.0000 C   0  0  0  0  0  0  0  0  0  0  0  0
   -6.7264    2.3381    0.0000 C   0  0  0  0  0  0  0  0  0  0  0  0
   -7.1565    1.6284    0.0000 C   0  0  0  0  0  0  0  0  0  0  0  0
   -6.7431    0.8977    0.0000 C   0  0  0  0  0  0  0  0  0  0  0  0
   -5.5448    0.1503    0.0000 C   0  0  0  0  0  0  0  0  0  0  0  0
  2  1  2  0  0  0  0
  3  1  1  0  0  0  0
  4  8  1  0  0  0  0
  4 12  2  0  0  0  0
  5  1  1  0  0  0  0
  6  4  1  0  0  0  0
  7  2  1  0  0  0  0
  8  9  1  0  0  0  0
  9  7  1  0  0  0  0
 10  3  1  0  0  0  0
 11  5  1  0  0  0  0
 11 10  2  0  0  0  0
 12 13  1  0  0  0  0
 13  9  2  0  0  0  0
 14 20  1  0  0  0  0
 15 14  3  0  0  0  0
 16  6  1  0  0  0  0
 17  6  2  0  0  0  0
 18  7  2  0  0  0  0
 19 10  1  0  0  0  0
 20  3  1  0  0  0  0
 21 11  1  0  0  0  0
 22 21  2  0  0  0  0
 23 19  2  0  0  0  0
 23 22  1  0  0  0  0
 24 19  1  0  0  0  0
M  END
> <CdId>
2598

> <Mol Weight>
341.341

> <Formula>
C16H11N3O4S

> <Click_ID>
CLK034_D04 __ __ 

$$$$
