CLK040A10
 OpenBabel03181404502D

 26 26  0  0  0  0  0  0  0  0999 V2000
    0.3542    0.4292    0.0000 S   0  0  0  0  0  0  0  0  0  0  0  0
    0.3542   -0.3958    0.0000 N   0  0  0  0  0  0  0  0  0  0  0  0
   -0.3583   -0.8083    0.0000 C   0  0  0  0  0  0  0  0  0  0  0  0
   -0.3583   -1.6333    0.0000 C   0  0  0  0  0  0  0  0  0  0  0  0
    0.3542    1.2542    0.0000 C   0  0  0  0  0  0  0  0  0  0  0  0
   -1.0750   -3.6958    0.0000 C   0  0  0  0  0  0  0  0  0  0  0  0
    1.1792    0.4292    0.0000 O   0  0  0  0  0  0  0  0  0  0  0  0
   -0.4708    0.4292    0.0000 O   0  0  0  0  0  0  0  0  0  0  0  0
   -1.0750   -4.5208    0.0000 C   0  0  0  0  0  0  0  0  0  0  0  0
   -1.0750   -2.0458    0.0000 N   0  0  0  0  0  0  0  0  0  0  0  0
    1.0708    4.1375    0.0000 C   0  0  0  0  0  0  0  0  0  0  0  0
   -1.0750   -2.8708    0.0000 C   0  0  0  0  0  0  0  0  0  0  0  0
    0.3542    3.7292    0.0000 N   0  0  0  0  0  0  0  0  0  0  0  0
    0.3542   -2.0458    0.0000 O   0  0  0  0  0  0  0  0  0  0  0  0
    1.7833    3.7292    0.0000 O   0  0  0  0  0  0  0  0  0  0  0  0
    1.0708    1.6667    0.0000 C   0  0  0  0  0  0  0  0  0  0  0  0
   -0.3583    1.6667    0.0000 C   0  0  0  0  0  0  0  0  0  0  0  0
    0.3542    2.9042    0.0000 C   0  0  0  0  0  0  0  0  0  0  0  0
   -0.3583    2.4917    0.0000 C   0  0  0  0  0  0  0  0  0  0  0  0
    1.0708    2.4917    0.0000 C   0  0  0  0  0  0  0  0  0  0  0  0
    1.0708   -0.8083    0.0000 C   0  0  0  0  0  0  0  0  0  0  0  0
    1.0708    4.9625    0.0000 C   0  0  0  0  0  0  0  0  0  0  0  0
   -1.9000   -2.8708    0.0000 C   0  0  0  0  0  0  0  0  0  0  0  0
   -0.2500   -2.8708    0.0000 C   0  0  0  0  0  0  0  0  0  0  0  0
   -2.3125   -2.1542    0.0000 C   0  0  0  0  0  0  0  0  0  0  0  0
    0.1625   -3.5833    0.0000 C   0  0  0  0  0  0  0  0  0  0  0  0
  2  1  1  0  0  0  0
  3  2  1  0  0  0  0
  4  3  1  0  0  0  0
  5  1  1  0  0  0  0
  6 12  1  0  0  0  0
  7  1  2  0  0  0  0
  8  1  2  0  0  0  0
  9  6  3  0  0  0  0
 10  4  1  0  0  0  0
 11 13  1  0  0  0  0
 12 10  1  0  0  0  0
 13 18  1  0  0  0  0
 14  4  2  0  0  0  0
 15 11  2  0  0  0  0
 16  5  1  0  0  0  0
 17  5  2  0  0  0  0
 18 19  2  0  0  0  0
 18 20  1  0  0  0  0
 19 17  1  0  0  0  0
 20 16  2  0  0  0  0
 21  2  1  0  0  0  0
 22 11  1  0  0  0  0
 23 12  1  0  0  0  0
 24 12  1  0  0  0  0
 25 23  1  0  0  0  0
 26 24  1  0  0  0  0
M  END
> <CdId>
3073

> <Mol Weight>
379.474

> <Formula>
C18H25N3O4S

> <Click_ID>
CLK040A10 __ __ 

$$$$
