CLK009_E11
 OpenBabel03181404502D

 21 23  0  0  0  0  0  0  0  0999 V2000
   -3.9122    2.0956    0.0000 N   0  0  0  0  0  0  0  0  0  0  0  0
   -3.9122    2.9208    0.0000 C   0  0  0  0  0  0  0  0  0  0  0  0
   -4.6246    1.7038    0.0000 C   0  0  0  0  0  0  0  0  0  0  0  0
   -4.6246    3.3482    0.0000 N   0  0  0  0  0  0  0  0  0  0  0  0
   -5.3370    2.0956    0.0000 C   0  0  0  0  0  0  0  0  0  0  0  0
   -5.3370    2.9208    0.0000 C   0  0  0  0  0  0  0  0  0  0  0  0
   -2.4518    4.6068    0.0000 C   0  0  0  0  0  0  0  0  0  0  0  0
   -1.7394    5.0342    0.0000 C   0  0  0  0  0  0  0  0  0  0  0  0
   -4.6246    0.8727    0.0000 O   0  0  0  0  0  0  0  0  0  0  0  0
   -3.2058    1.6859    0.0000 C   0  0  0  0  0  0  0  0  0  0  0  0
   -3.1642    3.3779    0.0000 S   0  0  0  0  0  0  0  0  0  0  0  0
   -6.0494    1.7038    0.0000 C   0  0  0  0  0  0  0  0  0  0  0  0
   -3.1642    4.2149    0.0000 C   0  0  0  0  0  0  0  0  0  0  0  0
   -6.0494    3.3482    0.0000 C   0  0  0  0  0  0  0  0  0  0  0  0
   -3.2058    0.8549    0.0000 C   0  0  0  0  0  0  0  0  0  0  0  0
   -2.4934    2.0837    0.0000 C   0  0  0  0  0  0  0  0  0  0  0  0
   -6.7617    2.0956    0.0000 C   0  0  0  0  0  0  0  0  0  0  0  0
   -6.7617    2.9208    0.0000 C   0  0  0  0  0  0  0  0  0  0  0  0
   -2.5230    0.4452    0.0000 C   0  0  0  0  0  0  0  0  0  0  0  0
   -1.7810    1.6681    0.0000 C   0  0  0  0  0  0  0  0  0  0  0  0
   -1.7988    0.8489    0.0000 C   0  0  0  0  0  0  0  0  0  0  0  0
  2  1  1  0  0  0  0
  3  1  1  0  0  0  0
  4  2  2  0  0  0  0
  5  3  1  0  0  0  0
  6  5  2  0  0  0  0
  6  4  1  0  0  0  0
  7 13  1  0  0  0  0
  8  7  3  0  0  0  0
  9  3  2  0  0  0  0
 10  1  1  0  0  0  0
 11  2  1  0  0  0  0
 12  5  1  0  0  0  0
 13 11  1  0  0  0  0
 14  6  1  0  0  0  0
 14 18  2  0  0  0  0
 15 10  1  0  0  0  0
 16 10  1  0  0  0  0
 17 12  2  0  0  0  0
 18 17  1  0  0  0  0
 19 15  1  0  0  0  0
 19 21  1  0  0  0  0
 20 16  1  0  0  0  0
 21 20  1  0  0  0  0
M  END
> <CdId>
646

> <Mol Weight>
298.403

> <Formula>
C17H18N2OS

> <Click_ID>
CLK009_E11 __ __ 

$$$$
