CLK002_G06
 OpenBabel03181404502D

 15 16  0  0  0  0  0  0  0  0999 V2000
   -0.1036   -0.0034    0.0000 C   0  0  0  0  0  0  0  0  0  0  0  0
   -0.1036    0.8326    0.0000 C   0  0  0  0  0  0  0  0  0  0  0  0
    0.6184   -0.4215    0.0000 N   0  0  0  0  0  0  0  0  0  0  0  0
   -0.8154   -0.4077    0.0000 C   0  0  0  0  0  0  0  0  0  0  0  0
    1.3475    0.8326    0.0000 C   0  0  0  0  0  0  0  0  0  0  0  0
   -0.8154    1.2439    0.0000 C   0  0  0  0  0  0  0  0  0  0  0  0
    1.3475   -0.0034    0.0000 C   0  0  0  0  0  0  0  0  0  0  0  0
    0.6184   -1.2473    0.0000 C   0  0  0  0  0  0  0  0  0  0  0  0
   -1.5306    0.0034    0.0000 C   0  0  0  0  0  0  0  0  0  0  0  0
    2.0593    1.2473    0.0000 O   0  0  0  0  0  0  0  0  0  0  0  0
   -1.5306    0.8326    0.0000 C   0  0  0  0  0  0  0  0  0  0  0  0
    2.0593   -0.4180    0.0000 O   0  0  0  0  0  0  0  0  0  0  0  0
   -0.0933   -1.6619    0.0000 C   0  0  0  0  0  0  0  0  0  0  0  0
   -2.2458    1.2439    0.0000 C   0  0  0  0  0  0  0  0  0  0  0  0
   -0.8154   -2.0696    0.0000 C   0  0  0  0  0  0  0  0  0  0  0  0
  1  2  1  0  0  0  0
  1  3  1  0  0  0  0
  1  4  2  0  0  0  0
  2  5  1  0  0  0  0
  2  6  2  0  0  0  0
  3  7  1  0  0  0  0
  3  8  1  0  0  0  0
  4  9  1  0  0  0  0
  5 10  2  0  0  0  0
  5  7  1  0  0  0  0
  6 11  1  0  0  0  0
  7 12  2  0  0  0  0
  8 13  1  0  0  0  0
  9 11  2  0  0  0  0
 11 14  1  0  0  0  0
 13 15  3  0  0  0  0
M  END
> <CdId>
145

> <Mol Weight>
199.2054

> <Formula>
C12H9NO2

> <Click_ID>
CLK002_G06 __ __ 

$$$$
