CLK011_D08
 OpenBabel03181404502D

 28 30  0  0  0  0  0  0  0  0999 V2000
    2.5332   -0.7467    0.0000 N    0  0  0  0  0  0  0  0  0  0  0  0
    1.2964   -0.0321    0.0000 C    0  0  0  0  0  0  0  0  0  0  0  0
    1.7087   -0.7467    0.0000 C    0  0  0  0  0  0  0  0  0  0  0  0
    2.9455   -0.0321    0.0000 C    0  0  0  0  0  0  0  0  0  0  0  0
    2.5332    0.6825    0.0000 N    0  0  0  0  0  0  0  0  0  0  0  0
    1.7087    0.6825    0.0000 C    0  0  0  0  0  0  0  0  0  0  0  0
    0.4719   -0.0321    0.0000 C    0  0  0  0  0  0  0  0  0  0  0  0
    2.9409   -1.4613    0.0000 C    0  0  0  0  0  0  0  0  0  0  0  0
    0.0596   -0.7467    0.0000 C    0  0  0  0  0  0  0  0  0  0  0  0
   -2.4140    0.6825    0.0000 C    0  0  0  0  0  0  0  0  0  0  0  0
    3.7700   -0.0321    0.0000 O    0  0  0  0  0  0  0  0  0  0  0  0
    1.2964   -1.4613    0.0000 O    0  0  0  0  0  0  0  0  0  0  0  0
   -3.2386    0.6825    0.0000 C    0  0  0  0  0  0  0  0  0  0  0  0
    1.2964    1.3971    0.0000 O    0  0  0  0  0  0  0  0  0  0  0  0
   -0.7696   -0.7467    0.0000 C    0  0  0  0  0  0  0  0  0  0  0  0
    3.7654   -1.4613    0.0000 C    0  0  0  0  0  0  0  0  0  0  0  0
    0.4672   -1.4613    0.0000 C    0  0  0  0  0  0  0  0  0  0  0  0
   -1.1772   -1.4613    0.0000 C    0  0  0  0  0  0  0  0  0  0  0  0
    0.0550   -2.1759    0.0000 C    0  0  0  0  0  0  0  0  0  0  0  0
    4.1777   -0.7467    0.0000 F    0  0  0  0  0  0  0  0  0  0  0  0
   -0.7696   -2.1759    0.0000 C    0  0  0  0  0  0  0  0  0  0  0  0
    0.4672   -2.8905    0.0000 Cl   0  0  0  0  0  0  0  0  0  0  0  0
   -1.1772   -0.0321    0.0000 O    0  0  0  0  0  0  0  0  0  0  0  0
   -2.0018   -0.0321    0.0000 C    0  0  0  0  0  0  0  0  0  0  0  0
    2.5286   -2.1759    0.0000 C    0  0  0  0  0  0  0  0  0  0  0  0
    4.1777   -2.1759    0.0000 C    0  0  0  0  0  0  0  0  0  0  0  0
    2.9409   -2.8905    0.0000 C    0  0  0  0  0  0  0  0  0  0  0  0
    3.7654   -2.8905    0.0000 C    0  0  0  0  0  0  0  0  0  0  0  0
  2  3  1  0  0  0  0
  3  1  1  0  0  0  0
  4  1  1  0  0  0  0
  5  4  1  0  0  0  0
  6  5  1  0  0  0  0
  6  2  1  0  0  0  0
  7  2  2  0  0  0  0
  8  1  1  0  0  0  0
  9  7  1  0  0  0  0
 10 24  1  0  0  0  0
 11  4  2  0  0  0  0
 12  3  2  0  0  0  0
 13 10  3  0  0  0  0
 14  6  2  0  0  0  0
 15  9  1  0  0  0  0
 16  8  2  0  0  0  0
 17  9  2  0  0  0  0
 18 15  2  0  0  0  0
 18 21  1  0  0  0  0
 19 17  1  0  0  0  0
 20 16  1  0  0  0  0
 21 19  2  0  0  0  0
 22 19  1  0  0  0  0
 23 15  1  0  0  0  0
 24 23  1  0  0  0  0
 25  8  1  0  0  0  0
 26 16  1  0  0  0  0
 26 28  2  0  0  0  0
 27 25  2  0  0  0  0
 28 27  1  0  0  0  0
M  END
> <CdId>
793

> <Mol Weight>
398.772

> <Formula>
C20H12ClFN2O4

> <Click_ID>
CLK011_D08 __ __ 

$$$$
