CLK021_A06
 OpenBabel03181404502D

 27 29  0  0  0  0  0  0  0  0999 V2000
    5.1305    4.0356    0.0000 C   0  0  0  0  0  0  0  0  0  0  0  0
    5.4191    3.2523    0.0000 C   0  0  0  0  0  0  0  0  0  0  0  0
    4.3197    4.1731    0.0000 C   0  0  0  0  0  0  0  0  0  0  0  0
    6.2437    3.2523    0.0000 C   0  0  0  0  0  0  0  0  0  0  0  0
    4.0449    4.9381    0.0000 C   0  0  0  0  0  0  0  0  0  0  0  0
    3.7563    5.7168    0.0000 N   0  0  0  0  0  0  0  0  0  0  0  0
    1.8003    2.0567    0.0000 C   0  0  0  0  0  0  0  0  0  0  0  0
    4.7595    1.1772    0.0000 C   0  0  0  0  0  0  0  0  0  0  0  0
    5.4741    0.7650    0.0000 C   0  0  0  0  0  0  0  0  0  0  0  0
    3.6876    3.6417    0.0000 C   0  0  0  0  0  0  0  0  0  0  0  0
    5.0068    2.5377    0.0000 C   0  0  0  0  0  0  0  0  0  0  0  0
    2.4324    2.5789    0.0000 C   0  0  0  0  0  0  0  0  0  0  0  0
    1.0216    2.3316    0.0000 O   0  0  0  0  0  0  0  0  0  0  0  0
    6.6559    2.5377    0.0000 C   0  0  0  0  0  0  0  0  0  0  0  0
    3.8387    2.8263    0.0000 C   0  0  0  0  0  0  0  0  0  0  0  0
    2.9180    3.9257    0.0000 C   0  0  0  0  0  0  0  0  0  0  0  0
    3.2066    2.3041    0.0000 C   0  0  0  0  0  0  0  0  0  0  0  0
    2.2859    3.3944    0.0000 C   0  0  0  0  0  0  0  0  0  0  0  0
    5.4191    1.8231    0.0000 C   0  0  0  0  0  0  0  0  0  0  0  0
    6.2437    1.8231    0.0000 C   0  0  0  0  0  0  0  0  0  0  0  0
    1.9423    1.2368    0.0000 O   0  0  0  0  0  0  0  0  0  0  0  0
    4.1960    2.4003    0.0000 O   0  0  0  0  0  0  0  0  0  0  0  0
    4.0449    1.5895    0.0000 C   0  0  0  0  0  0  0  0  0  0  0  0
    6.6559    3.9669    0.0000 C   0  0  0  0  0  0  0  0  0  0  0  0
    7.4805    2.5377    0.0000 C   0  0  0  0  0  0  0  0  0  0  0  0
    7.4805    3.9669    0.0000 C   0  0  0  0  0  0  0  0  0  0  0  0
    7.8927    3.2523    0.0000 C   0  0  0  0  0  0  0  0  0  0  0  0
  2  1  1  0  0  0  0
  3  1  2  0  0  0  0
  4  2  1  0  0  0  0
  5  3  1  0  0  0  0
  6  5  3  0  0  0  0
  7 12  1  0  0  0  0
  8 23  1  0  0  0  0
  9  8  3  0  0  0  0
 10  3  1  0  0  0  0
 11  2  2  0  0  0  0
 12 18  1  0  0  0  0
 12 17  2  0  0  0  0
 13  7  2  0  0  0  0
 14  4  1  0  0  0  0
 15 10  2  0  0  0  0
 16 10  1  0  0  0  0
 17 15  1  0  0  0  0
 18 16  2  0  0  0  0
 19 11  1  0  0  0  0
 20 19  2  0  0  0  0
 20 14  1  0  0  0  0
 21  7  1  0  0  0  0
 22 11  1  0  0  0  0
 23 22  1  0  0  0  0
 24  4  2  0  0  0  0
 25 14  2  0  0  0  0
 26 24  1  0  0  0  0
 27 26  2  0  0  0  0
 27 25  1  0  0  0  0
M  END
> <CdId>
1561

> <Mol Weight>
353.3701

> <Formula>
C23H15NO3

> <Click_ID>
CLK021_A06 __ __ 

$$$$
