CLK019_D02
 OpenBabel03181404502D

 34 37  0  0  0  0  0  0  0  0999 V2000
    5.3159   -8.9338    0.0000 C   0  0  0  0  0  0  0  0  0  0  0  0
    4.5055   -8.9338    0.0000 C   0  0  0  0  0  0  0  0  0  0  0  0
    5.7356   -9.6573    0.0000 C   0  0  3  0  0  0  0  0  0  0  0  0
    4.5055  -10.3664    0.0000 C   0  0  0  0  0  0  0  0  0  0  0  0
    4.0858   -9.6573    0.0000 N   0  0  0  0  0  0  0  0  0  0  0  0
    5.3304  -10.3520    0.0000 N   0  0  0  0  0  0  0  0  0  0  0  0
    5.7356   -8.2247    0.0000 C   0  0  0  0  0  0  0  0  0  0  0  0
    6.5604   -9.6429    0.0000 C   0  0  0  0  0  0  0  0  0  0  0  0
    6.9801  -10.3520    0.0000 C   0  0  0  0  0  0  0  0  0  0  0  0
   10.2892  -10.3181    0.0000 C   0  0  0  0  0  0  0  0  0  0  0  0
   11.1189  -10.3085    0.0000 C   0  0  0  0  0  0  0  0  0  0  0  0
    7.8146  -10.3471    0.0000 C   0  0  0  0  0  0  0  0  0  0  0  0
    4.1003  -11.0755    0.0000 S   0  0  0  0  0  0  0  0  0  0  0  0
    3.9556   -8.3260    0.0000 C   0  0  0  0  0  0  0  0  0  0  0  0
    6.5460   -8.2247    0.0000 O   0  0  0  0  0  0  0  0  0  0  0  0
    8.2102   -9.6284    0.0000 C   0  0  0  0  0  0  0  0  0  0  0  0
    5.4317   -7.4577    0.0000 C   0  0  0  0  0  0  0  0  0  0  0  0
    6.9656   -8.9193    0.0000 C   0  0  0  0  0  0  0  0  0  0  0  0
    7.8001   -8.9048    0.0000 C   0  0  0  0  0  0  0  0  0  0  0  0
    8.2391  -11.0562    0.0000 O   0  0  0  0  0  0  0  0  0  0  0  0
    9.0447   -9.6139    0.0000 O   0  0  0  0  0  0  0  0  0  0  0  0
    9.4547  -10.3230    0.0000 C   0  0  0  0  0  0  0  0  0  0  0  0
    4.2161   -7.5445    0.0000 C   0  0  0  0  0  0  0  0  0  0  0  0
    3.1596   -8.4851    0.0000 C   0  0  0  0  0  0  0  0  0  0  0  0
    4.6357   -7.3419    0.0000 C   0  0  0  0  0  0  0  0  0  0  0  0
    5.9526   -6.8209    0.0000 C   0  0  0  0  0  0  0  0  0  0  0  0
    9.0736  -11.0417    0.0000 C   0  0  0  0  0  0  0  0  0  0  0  0
    9.4981  -11.7508    0.0000 C   0  0  0  0  0  0  0  0  0  0  0  0
    5.6487   -6.0539    0.0000 C   0  0  0  0  0  0  0  0  0  0  0  0
    4.3318   -6.5749    0.0000 C   0  0  0  0  0  0  0  0  0  0  0  0
    2.6097   -7.8629    0.0000 C   0  0  0  0  0  0  0  0  0  0  0  0
    3.6806   -6.9222    0.0000 C   0  0  0  0  0  0  0  0  0  0  0  0
    4.8383   -5.9382    0.0000 C   0  0  0  0  0  0  0  0  0  0  0  0
    2.8847   -7.0814    0.0000 C   0  0  0  0  0  0  0  0  0  0  0  0
  2  1  2  0  0  0  0
  3  1  1  0  0  0  0
  4  6  1  0  0  0  0
  5  2  1  0  0  0  0
  5  4  1  0  0  0  0
  6  3  1  0  0  0  0
  7  1  1  0  0  0  0
  8  3  1  0  0  0  0
  9  8  2  0  0  0  0
 10 22  1  0  0  0  0
 11 10  3  0  0  0  0
 12  9  1  0  0  0  0
 12 16  2  0  0  0  0
 13  4  2  0  0  0  0
 14  2  1  0  0  0  0
 15  7  2  0  0  0  0
 16 19  1  0  0  0  0
 17  7  1  0  0  0  0
 18  8  1  0  0  0  0
 19 18  2  0  0  0  0
 20 12  1  0  0  0  0
 21 16  1  0  0  0  0
 22 21  1  0  0  0  0
 23 14  2  0  0  0  0
 24 14  1  0  0  0  0
 25 17  1  0  0  0  0
 26 17  2  0  0  0  0
 27 20  1  0  0  0  0
 28 27  1  0  0  0  0
 29 26  1  0  0  0  0
 30 25  2  0  0  0  0
 30 33  1  0  0  0  0
 31 24  2  0  0  0  0
 32 23  1  0  0  0  0
 32 34  2  0  0  0  0
 33 29  2  0  0  0  0
 34 31  1  0  0  0  0
M  END
> <CdId>
1427

> <Mol Weight>
468.567

> <Formula>
C28H24N2O3S

> <Click_ID>
CLK019_D02 __ __ 

$$$$
