CLK017_C02
 OpenBabel03181404502D

 27 30  0  0  0  0  0  0  0  0999 V2000
    2.7835   -2.5221    0.0000 C   0  0  0  0  0  0  0  0  0  0  0  0
    2.0544   -1.2978    0.0000 C   0  0  0  0  0  0  0  0  0  0  0  0
    2.7560   -0.8804    0.0000 C   0  0  0  0  0  0  0  0  0  0  0  0
    3.4943   -2.0957    0.0000 C   0  0  0  0  0  0  0  0  0  0  0  0
    3.4805   -1.2794    0.0000 N   0  0  0  0  0  0  0  0  0  0  0  0
    2.0682   -2.1186    0.0000 C   0  0  3  0  0  0  0  0  0  0  0  0
    0.7888   -2.8798    0.0000 C   0  0  0  0  0  0  0  0  0  0  0  0
    1.3390   -0.8942    0.0000 C   0  0  0  0  0  0  0  0  0  0  0  0
    2.7927   -3.3338    0.0000 C   0  0  0  0  0  0  0  0  0  0  0  0
   -0.6832   -0.4173    0.0000 C   0  0  0  0  0  0  0  0  0  0  0  0
   -1.3986   -0.0184    0.0000 C   0  0  0  0  0  0  0  0  0  0  0  0
    0.0688   -2.4762    0.0000 C   0  0  0  0  0  0  0  0  0  0  0  0
    2.0773   -3.7694    0.0000 O   0  0  0  0  0  0  0  0  0  0  0  0
    0.6237   -1.3115    0.0000 O   0  0  0  0  0  0  0  0  0  0  0  0
    4.2142   -2.4946    0.0000 C   0  0  0  0  0  0  0  0  0  0  0  0
    2.7514   -0.0459    0.0000 C   0  0  0  0  0  0  0  0  0  0  0  0
    4.1867   -0.8529    0.0000 C   0  0  0  0  0  0  0  0  0  0  0  0
    0.0596   -1.6508    0.0000 O   0  0  0  0  0  0  0  0  0  0  0  0
   -0.6695   -1.2427    0.0000 C   0  0  0  0  0  0  0  0  0  0  0  0
    0.8025   -3.7052    0.0000 C   0  0  0  0  0  0  0  0  0  0  0  0
    1.3253   -0.0734    0.0000 C   0  0  0  0  0  0  0  0  0  0  0  0
    3.5126   -3.7465    0.0000 C   0  0  0  0  0  0  0  0  0  0  0  0
    2.0269    0.3439    0.0000 C   0  0  0  0  0  0  0  0  0  0  0  0
    4.2234   -3.3292    0.0000 C   0  0  0  0  0  0  0  0  0  0  0  0
   -0.6420   -2.8936    0.0000 C   0  0  0  0  0  0  0  0  0  0  0  0
    0.0963   -4.1317    0.0000 C   0  0  0  0  0  0  0  0  0  0  0  0
   -0.6282   -3.7281    0.0000 C   0  0  0  0  0  0  0  0  0  0  0  0
  2  6  1  0  0  0  0
  3  2  2  0  0  0  0
  3  5  1  0  0  0  0
  4  1  2  0  0  0  0
  5  4  1  0  0  0  0
  6  1  1  0  0  0  0
  7  6  1  0  0  0  0
  8  2  1  0  0  0  0
  9  1  1  0  0  0  0
 10 19  1  0  0  0  0
 11 10  3  0  0  0  0
 12  7  1  0  0  0  0
 13  9  2  0  0  0  0
 14  8  2  0  0  0  0
 15  4  1  0  0  0  0
 16  3  1  0  0  0  0
 16 23  1  0  0  0  0
 17  5  1  0  0  0  0
 18 12  1  0  0  0  0
 19 18  1  0  0  0  0
 20  7  2  0  0  0  0
 21  8  1  0  0  0  0
 22  9  1  0  0  0  0
 23 21  1  0  0  0  0
 24 22  1  0  0  0  0
 24 15  1  0  0  0  0
 25 12  2  0  0  0  0
 26 20  1  0  0  0  0
 27 26  2  0  0  0  0
 27 25  1  0  0  0  0
M  END
> <CdId>
1257

> <Mol Weight>
361.4336

> <Formula>
C23H23NO3

> <Click_ID>
CLK017_C02 __ __ 

$$$$
