CLK016_B10
 OpenBabel03181404502D

 22 24  0  0  0  0  0  0  0  0999 V2000
    1.5641   -0.8154    0.0000 N   0  0  0  0  0  0  0  0  0  0  0  0
    1.8220   -1.6016    0.0000 C   0  0  0  0  0  0  0  0  0  0  0  0
    2.8994   -0.8154    0.0000 C   0  0  0  0  0  0  0  0  0  0  0  0
    2.2338   -0.3287    0.0000 C   0  0  0  0  0  0  0  0  0  0  0  0
    2.6456   -1.6016    0.0000 S   0  0  0  0  0  0  0  0  0  0  0  0
    3.6856   -0.5616    0.0000 C   0  0  0  0  0  0  0  0  0  0  0  0
    3.8478    0.2454    0.0000 C   0  0  0  0  0  0  0  0  0  0  0  0
    4.6091    0.5865    0.0000 N   0  0  0  0  0  0  0  0  0  0  0  0
    0.6115    0.2454    0.0000 C   0  0  0  0  0  0  0  0  0  0  0  0
    0.3911    1.0441    0.0000 C   0  0  0  0  0  0  0  0  0  0  0  0
    4.5175    1.4060    0.0000 C   0  0  0  0  0  0  0  0  0  0  0  0
    1.3353   -2.2630    0.0000 O   0  0  0  0  0  0  0  0  0  0  0  0
    3.2988    0.8611    0.0000 C   0  0  0  0  0  0  0  0  0  0  0  0
    2.2255    0.4950    0.0000 O   0  0  0  0  0  0  0  0  0  0  0  0
    3.7064    1.5807    0.0000 C   0  0  0  0  0  0  0  0  0  0  0  0
    5.3287    0.1830    0.0000 C   0  0  0  0  0  0  0  0  0  0  0  0
    0.7862   -0.5616    0.0000 C   0  0  0  0  0  0  0  0  0  0  0  0
    6.0317    0.5948    0.0000 C   0  0  0  0  0  0  0  0  0  0  0  0
    5.3204   -0.6489    0.0000 C   0  0  0  0  0  0  0  0  0  0  0  0
    6.7431    0.1830    0.0000 C   0  0  0  0  0  0  0  0  0  0  0  0
    6.0317   -1.0525    0.0000 C   0  0  0  0  0  0  0  0  0  0  0  0
    6.7514   -0.6406    0.0000 C   0  0  0  0  0  0  0  0  0  0  0  0
  2  1  1  0  0  0  0
  3  4  1  0  0  0  0
  3  5  1  0  0  0  0
  4  1  1  0  0  0  0
  5  2  1  0  0  0  0
  6  3  2  0  0  0  0
  7  6  1  0  0  0  0
  8  7  1  0  0  0  0
  9 17  1  0  0  0  0
 10  9  3  0  0  0  0
 11  8  1  0  0  0  0
 11 15  2  0  0  0  0
 12  2  2  0  0  0  0
 13  7  2  0  0  0  0
 14  4  2  0  0  0  0
 15 13  1  0  0  0  0
 16  8  1  0  0  0  0
 17  1  1  0  0  0  0
 18 16  1  0  0  0  0
 19 16  2  0  0  0  0
 20 18  2  0  0  0  0
 20 22  1  0  0  0  0
 21 19  1  0  0  0  0
 22 21  2  0  0  0  0
M  END
> <CdId>
1175

> <Mol Weight>
308.354

> <Formula>
C17H12N2O2S

> <Click_ID>
CLK016_B10 __ __ 

$$$$
