CLK037F07
 OpenBabel03181404502D

 27 27  0  0  0  0  0  0  0  0999 V2000
    6.0167    0.3583    0.0000 C    0  0  0  0  0  0  0  0  0  0  0  0
    5.6042   -0.3542    0.0000 C    0  0  0  0  0  0  0  0  0  0  0  0
   -0.4458    0.8875    0.0000 C    0  0  0  0  0  0  0  0  0  0  0  0
   -3.3042    0.8875    0.0000 C    0  0  0  0  0  0  0  0  0  0  0  0
   -4.0167    0.4750    0.0000 C    0  0  0  0  0  0  0  0  0  0  0  0
   -1.1583    1.3000    0.0000 C    0  0  0  0  0  0  0  0  0  0  0  0
    0.2708    1.3000    0.0000 C    0  0  0  0  0  0  0  0  0  0  0  0
    6.8417    0.3583    0.0000 O    0  0  0  0  0  0  0  0  0  0  0  0
    6.0167   -1.0708    0.0000 O    0  0  0  0  0  0  0  0  0  0  0  0
   -1.1583    2.1250    0.0000 C    0  0  0  0  0  0  0  0  0  0  0  0
    0.2708   -0.3500    0.0000 N    0  0  0  0  0  0  0  0  0  0  0  0
    0.2708    2.1250    0.0000 C    0  0  0  0  0  0  0  0  0  0  0  0
    5.6042    1.0750    0.0000 O    0  0  0  0  0  0  0  0  0  0  0  0
    4.7792   -0.3542    0.0000 O    0  0  0  0  0  0  0  0  0  0  0  0
   -0.4458    0.0625    0.0000 C    0  0  0  0  0  0  0  0  0  0  0  0
   -0.4458    2.5375    0.0000 C    0  0  0  0  0  0  0  0  0  0  0  0
    0.9833   -1.5875    0.0000 C    0  0  0  0  0  0  0  0  0  0  0  0
    0.9833    2.5375    0.0000 Br   0  0  0  0  0  0  0  0  0  0  0  0
    2.4125   -2.4125    0.0000 C    0  0  0  0  0  0  0  0  0  0  0  0
   -1.8750    0.8875    0.0000 O    0  0  0  0  0  0  0  0  0  0  0  0
    2.4125   -1.5875    0.0000 C    0  0  0  0  0  0  0  0  0  0  0  0
    1.7000   -2.8250    0.0000 C    0  0  0  0  0  0  0  0  0  0  0  0
    0.9833   -2.4125    0.0000 C    0  0  0  0  0  0  0  0  0  0  0  0
    1.7000   -1.1750    0.0000 C    0  0  0  0  0  0  0  0  0  0  0  0
   -2.5875    1.3000    0.0000 C    0  0  0  0  0  0  0  0  0  0  0  0
    0.2708   -1.1750    0.0000 C    0  0  0  0  0  0  0  0  0  0  0  0
    3.1292   -2.8250    0.0000 C    0  0  0  0  0  0  0  0  0  0  0  0
  2  1  1  0  0  0  0
  4 25  1  0  0  0  0
  5  4  3  0  0  0  0
  6  3  2  0  0  0  0
  7  3  1  0  0  0  0
  8  1  2  0  0  0  0
  9  2  2  0  0  0  0
 10  6  1  0  0  0  0
 11 15  1  0  0  0  0
 12  7  2  0  0  0  0
 13  1  1  0  0  0  0
 14  2  1  0  0  0  0
 15  3  1  0  0  0  0
 16 10  2  0  0  0  0
 16 12  1  0  0  0  0
 17 26  1  0  0  0  0
 18 12  1  0  0  0  0
 19 21  1  0  0  0  0
 20  6  1  0  0  0  0
 21 24  2  0  0  0  0
 22 23  1  0  0  0  0
 22 19  2  0  0  0  0
 23 17  2  0  0  0  0
 24 17  1  0  0  0  0
 25 20  1  0  0  0  0
 26 11  1  0  0  0  0
 27 19  1  0  0  0  0
M  END
> <CdId>
2814

> <Mol Weight>
434.281

> <Formula>
C20H20BrNO5

> <Click_ID>
CLK037F07 __ __ 

$$$$
