CLK051A07
 OpenBabel03181404502D

 18 19  0  0  0  0  0  0  0  0999 V2000
    1.1917    0.5958    0.0000 C   0  0  0  0  0  0  0  0  0  0  0  0
    1.1917   -0.2292    0.0000 C   0  0  0  0  0  0  0  0  0  0  0  0
    1.9792    0.8542    0.0000 N   0  0  0  0  0  0  0  0  0  0  0  0
    2.4625    0.1833    0.0000 N   0  0  0  0  0  0  0  0  0  0  0  0
    0.4792    1.0083    0.0000 N   0  0  0  0  0  0  0  0  0  0  0  0
   -0.2375   -0.2292    0.0000 C   0  0  0  0  0  0  0  0  0  0  0  0
    1.9792   -0.4833    0.0000 C   0  0  0  0  0  0  0  0  0  0  0  0
    0.4792   -0.6417    0.0000 C   0  0  0  0  0  0  0  0  0  0  0  0
   -0.2375    0.5958    0.0000 C   0  0  0  0  0  0  0  0  0  0  0  0
   -0.9500   -0.6417    0.0000 C   0  0  0  0  0  0  0  0  0  0  0  0
   -3.0917   -0.2292    0.0000 C   0  0  0  0  0  0  0  0  0  0  0  0
   -3.8083    0.1833    0.0000 C   0  0  0  0  0  0  0  0  0  0  0  0
   -0.9500   -1.4667    0.0000 O   0  0  0  0  0  0  0  0  0  0  0  0
   -1.6625   -0.2292    0.0000 N   0  0  0  0  0  0  0  0  0  0  0  0
    2.2333    1.6375    0.0000 C   0  0  0  0  0  0  0  0  0  0  0  0
   -2.3792   -0.6417    0.0000 C   0  0  0  0  0  0  0  0  0  0  0  0
    2.2333   -1.2667    0.0000 C   0  0  0  0  0  0  0  0  0  0  0  0
   -0.9500    1.0083    0.0000 C   0  0  0  0  0  0  0  0  0  0  0  0
  2  1  2  0  0  0  0
  3  1  1  0  0  0  0
  4  3  1  0  0  0  0
  4  7  2  0  0  0  0
  5  1  1  0  0  0  0
  6  8  2  0  0  0  0
  6  9  1  0  0  0  0
  7  2  1  0  0  0  0
  8  2  1  0  0  0  0
  9  5  2  0  0  0  0
 10  6  1  0  0  0  0
 11 16  1  0  0  0  0
 12 11  3  0  0  0  0
 13 10  2  0  0  0  0
 14 10  1  0  0  0  0
 15  3  1  0  0  0  0
 16 14  1  0  0  0  0
 17  7  1  0  0  0  0
 18  9  1  0  0  0  0
M  END
> <CdId>
3929

> <Mol Weight>
242.2765

> <Formula>
C13H14N4O

> <Click_ID>
CLK051A07 __ __ 

$$$$
