CLK003_E04
 OpenBabel03181404502D

 26 28  0  0  0  0  0  0  0  0999 V2000
    1.6613    0.8720    0.0000 C    0  0  0  0  0  0  0  0  0  0  0  0
    1.1477    0.2240    0.0000 C    0  0  0  0  0  0  0  0  0  0  0  0
    1.2097    1.5578    0.0000 C    0  0  0  0  0  0  0  0  0  0  0  0
    2.4850    0.9099    0.0000 C    0  0  0  0  0  0  0  0  0  0  0  0
    0.3722    0.5204    0.0000 C    0  0  0  0  0  0  0  0  0  0  0  0
    1.3614   -0.5652    0.0000 C    0  0  0  0  0  0  0  0  0  0  0  0
    0.4205    1.3441    0.0000 N    0  0  0  0  0  0  0  0  0  0  0  0
    1.5854    2.2886    0.0000 C    0  0  0  0  0  0  0  0  0  0  0  0
    2.8607    1.6440    0.0000 C    0  0  0  0  0  0  0  0  0  0  0  0
    0.7824   -1.1546    0.0000 C    0  0  0  0  0  0  0  0  0  0  0  0
   -0.2275    1.8612    0.0000 C    0  0  0  0  0  0  0  0  0  0  0  0
    2.4091    2.3334    0.0000 C    0  0  0  0  0  0  0  0  0  0  0  0
   -0.0138   -0.9478    0.0000 C    0  0  0  0  0  0  0  0  0  0  0  0
    0.9926   -1.9543    0.0000 C    0  0  0  0  0  0  0  0  0  0  0  0
   -0.0897    2.6746    0.0000 C    0  0  0  0  0  0  0  0  0  0  0  0
   -0.5997   -1.5372    0.0000 N    0  0  0  0  0  0  0  0  0  0  0  0
   -0.2378   -0.1551    0.0000 O    0  0  0  0  0  0  0  0  0  0  0  0
    1.2063   -2.7470    0.0000 N    0  0  0  0  0  0  0  0  0  0  0  0
    0.0862    3.4776    0.0000 C    0  0  0  0  0  0  0  0  0  0  0  0
   -1.4269   -1.5269    0.0000 C    0  0  0  0  0  0  0  0  0  0  0  0
   -1.8301   -0.8099    0.0000 C    0  0  0  0  0  0  0  0  0  0  0  0
   -1.8370   -2.2472    0.0000 C    0  0  0  0  0  0  0  0  0  0  0  0
   -2.6608   -0.8030    0.0000 C    0  0  0  0  0  0  0  0  0  0  0  0
   -2.6746   -2.2403    0.0000 C    0  0  0  0  0  0  0  0  0  0  0  0
   -3.0778   -1.5165    0.0000 C    0  0  0  0  0  0  0  0  0  0  0  0
   -3.9050   -1.5027    0.0000 Cl   0  0  0  0  0  0  0  0  0  0  0  0
  1  2  1  0  0  0  0
  1  3  1  0  0  0  0
  1  4  2  0  0  0  0
  2  5  2  0  0  0  0
  2  6  1  0  0  0  0
  3  7  1  0  0  0  0
  3  8  2  0  0  0  0
  4  9  1  0  0  0  0
  5  7  1  0  0  0  0
  6 10  2  0  0  0  0
  7 11  1  0  0  0  0
  8 12  1  0  0  0  0
  9 12  2  0  0  0  0
 10 13  1  0  0  0  0
 10 14  1  0  0  0  0
 11 15  1  0  0  0  0
 13 16  1  0  0  0  0
 13 17  2  0  0  0  0
 14 18  3  0  0  0  0
 15 19  3  0  0  0  0
 16 20  1  0  0  0  0
 20 21  1  0  0  0  0
 20 22  2  0  0  0  0
 21 23  2  0  0  0  0
 22 24  1  0  0  0  0
 23 25  1  0  0  0  0
 24 25  2  0  0  0  0
 25 26  1  0  0  0  0
M  END
> <CdId>
203

> <Mol Weight>
359.808

> <Formula>
C21H14ClN3O

> <Click_ID>
CLK003_E04 __ __ 

$$$$
