CLK012_F09
 OpenBabel03181404502D

 28 30  0  0  0  0  0  0  0  0999 V2000
    0.2172    1.1400    0.0000 N    0  0  0  0  0  0  0  0  0  0  0  0
    0.4677    0.3508    0.0000 C    0  0  0  0  0  0  0  0  0  0  0  0
    0.8811    1.6243    0.0000 C    0  0  0  0  0  0  0  0  0  0  0  0
    1.5534    1.1400    0.0000 C    0  0  0  0  0  0  0  0  0  0  0  0
    1.2945    0.3508    0.0000 N    0  0  0  0  0  0  0  0  0  0  0  0
    2.3426    1.3989    0.0000 C    0  0  0  0  0  0  0  0  0  0  0  0
    2.8354    3.8083    0.0000 C    0  0  0  0  0  0  0  0  0  0  0  0
    3.4492    3.2654    0.0000 C    0  0  0  0  0  0  0  0  0  0  0  0
    2.0670    3.5578    0.0000 C    0  0  0  0  0  0  0  0  0  0  0  0
    2.5097    2.2006    0.0000 C    0  0  0  0  0  0  0  0  0  0  0  0
   -0.5763    1.3989    0.0000 C    0  0  0  0  0  0  0  0  0  0  0  0
    3.9879    5.6624    0.0000 C    0  0  0  0  0  0  0  0  0  0  0  0
    4.1633    6.4641    0.0000 C    0  0  0  0  0  0  0  0  0  0  0  0
   -0.0208   -0.3174    0.0000 O    0  0  0  0  0  0  0  0  0  0  0  0
    0.8811    2.4512    0.0000 O    0  0  0  0  0  0  0  0  0  0  0  0
    1.8916    2.7518    0.0000 C    0  0  0  0  0  0  0  0  0  0  0  0
    3.2822    2.4512    0.0000 C    0  0  0  0  0  0  0  0  0  0  0  0
    4.2342    3.5077    0.0000 Cl   0  0  0  0  0  0  0  0  0  0  0  0
    1.4574    4.1007    0.0000 Cl   0  0  0  0  0  0  0  0  0  0  0  0
   -1.1901    0.8477    0.0000 C    0  0  0  0  0  0  0  0  0  0  0  0
    3.0233    4.6017    0.0000 O    0  0  0  0  0  0  0  0  0  0  0  0
   -2.4261   -0.2548    0.0000 C    0  0  0  0  0  0  0  0  0  0  0  0
   -3.0399   -0.8060    0.0000 Br   0  0  0  0  0  0  0  0  0  0  0  0
   -1.0230    0.0334    0.0000 C    0  0  0  0  0  0  0  0  0  0  0  0
   -1.9793    1.0982    0.0000 C    0  0  0  0  0  0  0  0  0  0  0  0
   -1.6369   -0.5178    0.0000 C    0  0  0  0  0  0  0  0  0  0  0  0
   -2.5890    0.5512    0.0000 C    0  0  0  0  0  0  0  0  0  0  0  0
    3.8083    4.8523    0.0000 C    0  0  0  0  0  0  0  0  0  0  0  0
  2  1  1  0  0  0  0
  3  1  1  0  0  0  0
  4  3  1  0  0  0  0
  5  2  1  0  0  0  0
  5  4  1  0  0  0  0
  6  4  2  0  0  0  0
  7  8  1  0  0  0  0
  8 17  2  0  0  0  0
  9 16  1  0  0  0  0
  9  7  2  0  0  0  0
 10  6  1  0  0  0  0
 11  1  1  0  0  0  0
 12 28  1  0  0  0  0
 13 12  3  0  0  0  0
 14  2  2  0  0  0  0
 15  3  2  0  0  0  0
 16 10  2  0  0  0  0
 17 10  1  0  0  0  0
 18  8  1  0  0  0  0
 19  9  1  0  0  0  0
 20 11  1  0  0  0  0
 21  7  1  0  0  0  0
 22 27  2  0  0  0  0
 23 22  1  0  0  0  0
 24 20  1  0  0  0  0
 25 20  2  0  0  0  0
 26 24  2  0  0  0  0
 26 22  1  0  0  0  0
 27 25  1  0  0  0  0
 28 21  1  0  0  0  0
M  END
> <CdId>
894

> <Mol Weight>
480.139

> <Formula>
C20H13BrCl2N2O3

> <Click_ID>
CLK012_F09 __ __ 

$$$$
