CLK012_D03
 OpenBabel03181404502D

 20 21  0  0  0  0  0  0  0  0999 V2000
    1.5591   -0.8128    0.0000 N    0  0  0  0  0  0  0  0  0  0  0  0
    1.8162   -1.5964    0.0000 C    0  0  0  0  0  0  0  0  0  0  0  0
    2.2267   -0.3276    0.0000 C    0  0  0  0  0  0  0  0  0  0  0  0
    2.8902   -0.8128    0.0000 C    0  0  0  0  0  0  0  0  0  0  0  0
    2.6372   -1.5964    0.0000 S    0  0  0  0  0  0  0  0  0  0  0  0
    3.6739   -0.5598    0.0000 C    0  0  0  0  0  0  0  0  0  0  0  0
    4.2046    1.8618    0.0000 C    0  0  0  0  0  0  0  0  0  0  0  0
    4.8141    1.3144    0.0000 C    0  0  0  0  0  0  0  0  0  0  0  0
    3.4126    1.6254    0.0000 C    0  0  0  0  0  0  0  0  0  0  0  0
    3.8480    0.2571    0.0000 C    0  0  0  0  0  0  0  0  0  0  0  0
    0.6095    0.2446    0.0000 C    0  0  0  0  0  0  0  0  0  0  0  0
    0.3898    1.0407    0.0000 C    0  0  0  0  0  0  0  0  0  0  0  0
    1.3310   -2.2557    0.0000 O    0  0  0  0  0  0  0  0  0  0  0  0
    3.2385    0.8086    0.0000 C    0  0  0  0  0  0  0  0  0  0  0  0
    4.6400    0.5058    0.0000 C    0  0  0  0  0  0  0  0  0  0  0  0
    2.2184    0.4934    0.0000 O    0  0  0  0  0  0  0  0  0  0  0  0
    0.7837   -0.5598    0.0000 C    0  0  0  0  0  0  0  0  0  0  0  0
    5.6020    1.5632    0.0000 Cl   0  0  0  0  0  0  0  0  0  0  0  0
    2.8238    2.1852    0.0000 Cl   0  0  0  0  0  0  0  0  0  0  0  0
    4.3954    2.6745    0.0000 O    0  0  0  0  0  0  0  0  0  0  0  0
  2  1  1  0  0  0  0
  3  1  1  0  0  0  0
  4  3  1  0  0  0  0
  5  2  1  0  0  0  0
  5  4  1  0  0  0  0
  6  4  2  0  0  0  0
  7  8  1  0  0  0  0
  8 15  2  0  0  0  0
  9 14  1  0  0  0  0
  9  7  2  0  0  0  0
 10  6  1  0  0  0  0
 11 17  1  0  0  0  0
 12 11  3  0  0  0  0
 13  2  2  0  0  0  0
 14 10  2  0  0  0  0
 15 10  1  0  0  0  0
 16  3  2  0  0  0  0
 17  1  1  0  0  0  0
 18  8  1  0  0  0  0
 19  9  1  0  0  0  0
 20  7  1  0  0  0  0
M  END
> <CdId>
868

> <Mol Weight>
328.171

> <Formula>
C13H7Cl2NO3S

> <Click_ID>
CLK012_D03 __ __ 

$$$$
