CLK005_A08
 OpenBabel03181404502D

 24 25  0  0  0  0  0  0  0  0999 V2000
    0.3917   -0.9036    0.0000 C   0  0  3  0  0  0  0  0  0  0  0  0
    0.3883   -0.0825    0.0000 C   0  0  0  0  0  0  0  0  0  0  0  0
   -0.3229   -1.3228    0.0000 C   0  0  0  0  0  0  0  0  0  0  0  0
    1.1097   -1.3228    0.0000 N   0  0  0  0  0  0  0  0  0  0  0  0
    1.1029    0.3298    0.0000 C   0  0  0  0  0  0  0  0  0  0  0  0
   -0.3298    0.3229    0.0000 C   0  0  0  0  0  0  0  0  0  0  0  0
   -0.3229   -2.1474    0.0000 C   0  0  0  0  0  0  0  0  0  0  0  0
   -1.0410   -0.9105    0.0000 C   0  0  0  0  0  0  0  0  0  0  0  0
    1.1097   -2.1474    0.0000 C   0  0  0  0  0  0  0  0  0  0  0  0
    1.0994    1.1510    0.0000 C   0  0  0  0  0  0  0  0  0  0  0  0
   -0.3333    1.1441    0.0000 C   0  0  0  0  0  0  0  0  0  0  0  0
    0.3917   -2.5597    0.0000 N   0  0  0  0  0  0  0  0  0  0  0  0
   -1.0410   -2.5597    0.0000 C   0  0  0  0  0  0  0  0  0  0  0  0
   -1.7488   -1.3262    0.0000 O   0  0  0  0  0  0  0  0  0  0  0  0
   -1.0410   -0.0825    0.0000 O   0  0  0  0  0  0  0  0  0  0  0  0
    1.8243   -2.5597    0.0000 O   0  0  0  0  0  0  0  0  0  0  0  0
    0.3814    1.5667    0.0000 C   0  0  0  0  0  0  0  0  0  0  0  0
    1.8106    1.5633    0.0000 O   0  0  0  0  0  0  0  0  0  0  0  0
   -2.4738   -0.9105    0.0000 C   0  0  0  0  0  0  0  0  0  0  0  0
    0.3814    2.3879    0.0000 O   0  0  0  0  0  0  0  0  0  0  0  0
    1.8106    2.3879    0.0000 C   0  0  0  0  0  0  0  0  0  0  0  0
   -0.3333    2.8001    0.0000 C   0  0  0  0  0  0  0  0  0  0  0  0
   -1.0514    2.3844    0.0000 C   0  0  0  0  0  0  0  0  0  0  0  0
   -1.7626    2.7967    0.0000 C   0  0  0  0  0  0  0  0  0  0  0  0
  1  2  1  0  0  0  0
  1  3  1  0  0  0  0
  1  4  1  0  0  0  0
  2  5  2  0  0  0  0
  2  6  1  0  0  0  0
  3  7  2  0  0  0  0
  3  8  1  0  0  0  0
  4  9  1  0  0  0  0
  5 10  1  0  0  0  0
  6 11  2  0  0  0  0
  7 12  1  0  0  0  0
  7 13  1  0  0  0  0
  8 14  1  0  0  0  0
  8 15  2  0  0  0  0
  9 16  2  0  0  0  0
  9 12  1  0  0  0  0
 10 17  2  0  0  0  0
 10 18  1  0  0  0  0
 11 17  1  0  0  0  0
 14 19  1  0  0  0  0
 17 20  1  0  0  0  0
 18 21  1  0  0  0  0
 20 22  1  0  0  0  0
 22 23  1  0  0  0  0
 23 24  3  0  0  0  0
M  END
> <CdId>
327

> <Mol Weight>
330.3352

> <Formula>
C17H18N2O5

> <Click_ID>
CLK005_A08 __ __ 

$$$$
