CLK049D09
 OpenBabel03181404502D

 18 18  0  0  0  0  0  0  0  0999 V2000
   -2.0250    2.7750    0.0000 C   0  0  0  0  0  0  0  0  0  0  0  0
    0.1167   -0.1125    0.0000 C   0  0  0  0  0  0  0  0  0  0  0  0
   -2.7417    3.1875    0.0000 C   0  0  0  0  0  0  0  0  0  0  0  0
   -0.5958    0.3000    0.0000 N   0  0  0  0  0  0  0  0  0  0  0  0
    1.5458   -3.4125    0.0000 C   0  0  0  0  0  0  0  0  0  0  0  0
    0.1167   -0.9375    0.0000 C   0  0  0  0  0  0  0  0  0  0  0  0
   -0.5958    1.1250    0.0000 C   0  0  0  0  0  0  0  0  0  0  0  0
    0.8333    0.3000    0.0000 O   0  0  0  0  0  0  0  0  0  0  0  0
    2.2583   -3.8250    0.0000 O   0  0  0  0  0  0  0  0  0  0  0  0
   -1.3125    2.3625    0.0000 C   0  0  0  0  0  0  0  0  0  0  0  0
    0.8333   -3.8250    0.0000 N   0  0  0  0  0  0  0  0  0  0  0  0
   -1.3125    1.5375    0.0000 C   0  0  0  0  0  0  0  0  0  0  0  0
    0.8333   -2.1750    0.0000 S   0  0  0  0  0  0  0  0  0  0  0  0
    1.5458   -2.5875    0.0000 C   0  0  0  0  0  0  0  0  0  0  0  0
    0.8333   -1.3500    0.0000 C   0  0  0  0  0  0  0  0  0  0  0  0
    0.1167    2.3625    0.0000 C   0  0  0  0  0  0  0  0  0  0  0  0
    0.1167    1.5375    0.0000 C   0  0  0  0  0  0  0  0  0  0  0  0
   -0.5958    2.7750    0.0000 C   0  0  0  0  0  0  0  0  0  0  0  0
  2  4  1  0  0  0  0
  3  1  3  0  0  0  0
  4  7  1  0  0  0  0
  5 14  1  0  0  0  0
  6  2  1  0  0  0  0
  7 12  2  0  0  0  0
  8  2  2  0  0  0  0
  9  5  2  0  0  0  0
 10  1  1  0  0  0  0
 11  5  1  0  0  0  0
 12 10  1  0  0  0  0
 13 15  1  0  0  0  0
 14 13  1  0  0  0  0
 15  6  1  0  0  0  0
 16 18  1  0  0  0  0
 16 17  2  0  0  0  0
 17  7  1  0  0  0  0
 18 10  2  0  0  0  0
M  END
> <CdId>
3788

> <Mol Weight>
262.327

> <Formula>
C13H14N2O2S

> <Click_ID>
CLK049D09 __ __ 

$$$$
