CLK042E03
 OpenBabel03181404502D

 26 28  0  0  0  0  0  0  0  0999 V2000
   -0.8833    0.0000    0.0000 C    0  0  0  0  0  0  0  0  0  0  0  0
   -1.5958    0.4125    0.0000 C    0  0  0  0  0  0  0  0  0  0  0  0
   -0.1667    0.4125    0.0000 C    0  0  0  0  0  0  0  0  0  0  0  0
   -1.5958    1.2375    0.0000 N    0  0  0  0  0  0  0  0  0  0  0  0
   -0.8833    1.6500    0.0000 N    0  0  0  0  0  0  0  0  0  0  0  0
   -0.1667    1.2375    0.0000 C    0  0  0  0  0  0  0  0  0  0  0  0
    0.5458    0.0000    0.0000 N    0  0  0  0  0  0  0  0  0  0  0  0
    2.6917   -1.2375    0.0000 C    0  0  0  0  0  0  0  0  0  0  0  0
    1.9750   -0.8250    0.0000 N    0  0  0  0  0  0  0  0  0  0  0  0
    3.4042   -3.3000    0.0000 C    0  0  0  0  0  0  0  0  0  0  0  0
    3.4042   -4.1250    0.0000 C    0  0  0  0  0  0  0  0  0  0  0  0
   -2.3083    0.0000    0.0000 O    0  0  0  0  0  0  0  0  0  0  0  0
   -2.3083    1.6500    0.0000 C    0  0  0  0  0  0  0  0  0  0  0  0
   -0.8833   -0.8250    0.0000 Cl   0  0  0  0  0  0  0  0  0  0  0  0
    1.2625    0.4125    0.0000 C    0  0  0  0  0  0  0  0  0  0  0  0
    0.5458   -0.8250    0.0000 C    0  0  0  0  0  0  0  0  0  0  0  0
    1.2625   -1.2375    0.0000 C    0  0  0  0  0  0  0  0  0  0  0  0
    1.9750    0.0000    0.0000 C    0  0  0  0  0  0  0  0  0  0  0  0
    3.4042   -0.8250    0.0000 O    0  0  0  0  0  0  0  0  0  0  0  0
    2.6917   -2.0625    0.0000 N    0  0  0  0  0  0  0  0  0  0  0  0
    3.4042   -2.4750    0.0000 C    0  0  0  0  0  0  0  0  0  0  0  0
   -2.3083    2.4750    0.0000 C    0  0  0  0  0  0  0  0  0  0  0  0
   -3.0250    1.2375    0.0000 C    0  0  0  0  0  0  0  0  0  0  0  0
   -3.7375    1.6500    0.0000 C    0  0  0  0  0  0  0  0  0  0  0  0
   -3.0250    2.8917    0.0000 C    0  0  0  0  0  0  0  0  0  0  0  0
   -3.7375    2.4750    0.0000 C    0  0  0  0  0  0  0  0  0  0  0  0
  2  1  1  0  0  0  0
  3  1  2  0  0  0  0
  4  2  1  0  0  0  0
  5  4  1  0  0  0  0
  5  6  2  0  0  0  0
  6  3  1  0  0  0  0
  7  3  1  0  0  0  0
  8  9  1  0  0  0  0
  9 18  1  0  0  0  0
  9 17  1  0  0  0  0
 10 21  1  0  0  0  0
 11 10  3  0  0  0  0
 12  2  2  0  0  0  0
 13  4  1  0  0  0  0
 14  1  1  0  0  0  0
 15  7  1  0  0  0  0
 16  7  1  0  0  0  0
 17 16  1  0  0  0  0
 18 15  1  0  0  0  0
 19  8  2  0  0  0  0
 20  8  1  0  0  0  0
 21 20  1  0  0  0  0
 22 13  1  0  0  0  0
 23 13  2  0  0  0  0
 24 23  1  0  0  0  0
 25 22  2  0  0  0  0
 26 24  2  0  0  0  0
 26 25  1  0  0  0  0
M  END
> <CdId>
3181

> <Mol Weight>
371.821

> <Formula>
C18H18ClN5O2

> <Click_ID>
CLK042E03 __ __ 

$$$$
