CLK028_H11
 OpenBabel03181404502D

 21 22  0  0  0  0  0  0  0  0999 V2000
    0.3504   -0.4303    0.0000 C   0  0  0  0  0  0  0  0  0  0  0  0
   -3.9623    1.2456    0.0000 C   0  0  0  0  0  0  0  0  0  0  0  0
   -4.6909    1.6689    0.0000 C   0  0  0  0  0  0  0  0  0  0  0  0
   -0.3608   -0.0243    0.0000 C   0  0  0  0  0  0  0  0  0  0  0  0
    3.2615   -0.4199    0.0000 C   0  0  0  0  0  0  0  0  0  0  0  0
    0.3366   -1.3358    0.0000 O   0  0  0  0  0  0  0  0  0  0  0  0
    1.1415    0.0139    0.0000 N   0  0  0  0  0  0  0  0  0  0  0  0
    3.2511   -1.2456    0.0000 C   0  0  0  0  0  0  0  0  0  0  0  0
   -0.3608    0.8119    0.0000 C   0  0  0  0  0  0  0  0  0  0  0  0
   -1.0756   -0.4303    0.0000 C   0  0  0  0  0  0  0  0  0  0  0  0
   -1.7799    0.8119    0.0000 C   0  0  0  0  0  0  0  0  0  0  0  0
   -1.0617    1.2178    0.0000 C   0  0  0  0  0  0  0  0  0  0  0  0
   -1.7903   -0.0139    0.0000 C   0  0  0  0  0  0  0  0  0  0  0  0
    1.8320   -0.3955    0.0000 C   0  0  0  0  0  0  0  0  0  0  0  0
   -3.2337    0.8258    0.0000 C   0  0  0  0  0  0  0  0  0  0  0  0
   -2.5016    1.2387    0.0000 O   0  0  0  0  0  0  0  0  0  0  0  0
    2.5641    0.0000    0.0000 C   0  0  0  0  0  0  0  0  0  0  0  0
    3.9831   -0.0243    0.0000 C   0  0  0  0  0  0  0  0  0  0  0  0
    3.9589   -1.6654    0.0000 C   0  0  0  0  0  0  0  0  0  0  0  0
    4.6875   -0.4441    0.0000 C   0  0  0  0  0  0  0  0  0  0  0  0
    4.6701   -1.2699    0.0000 C   0  0  0  0  0  0  0  0  0  0  0  0
  2 15  1  0  0  0  0
  3  2  3  0  0  0  0
  4  1  1  0  0  0  0
  5 17  1  0  0  0  0
  6  1  2  0  0  0  0
  7  1  1  0  0  0  0
  8  5  2  0  0  0  0
  9  4  2  0  0  0  0
 10  4  1  0  0  0  0
 11 13  1  0  0  0  0
 12  9  1  0  0  0  0
 12 11  2  0  0  0  0
 13 10  2  0  0  0  0
 14  7  1  0  0  0  0
 15 16  1  0  0  0  0
 16 11  1  0  0  0  0
 17 14  1  0  0  0  0
 18  5  1  0  0  0  0
 19  8  1  0  0  0  0
 19 21  1  0  0  0  0
 20 18  1  0  0  0  0
 21 20  1  0  0  0  0
M  END
> <CdId>
2165

> <Mol Weight>
283.3648

> <Formula>
C18H21NO2

> <Click_ID>
CLK028_H11 __ __ 

$$$$
