CLK052E05
 OpenBabel03181404502D

 24 27  0  0  0  0  0  0  0  0999 V2000
   -0.5208    0.3958    0.0000 C   0  0  0  0  0  0  0  0  0  0  0  0
   -1.3042    0.6500    0.0000 C   0  0  0  0  0  0  0  0  0  0  0  0
   -1.3042    1.4750    0.0000 C   0  0  0  0  0  0  0  0  0  0  0  0
   -0.5208    1.7292    0.0000 O   0  0  0  0  0  0  0  0  0  0  0  0
   -0.0375    1.0625    0.0000 C   0  0  0  0  0  0  0  0  0  0  0  0
   -2.0208    0.2375    0.0000 C   0  0  0  0  0  0  0  0  0  0  0  0
    0.5417   -0.5625    0.0000 C   0  0  0  0  0  0  0  0  0  0  0  0
    3.5125   -0.4625    0.0000 C   0  0  0  0  0  0  0  0  0  0  0  0
   -2.7333    0.6500    0.0000 C   0  0  0  0  0  0  0  0  0  0  0  0
   -2.0208    1.8875    0.0000 C   0  0  0  0  0  0  0  0  0  0  0  0
   -2.7333    1.4750    0.0000 C   0  0  0  0  0  0  0  0  0  0  0  0
   -0.2667   -0.3917    0.0000 C   0  0  0  0  0  0  0  0  0  0  0  0
    4.0667    0.1500    0.0000 C   0  0  0  0  0  0  0  0  0  0  0  0
    0.7958   -1.3458    0.0000 N   0  0  0  0  0  0  0  0  0  0  0  0
    1.0917    0.0500    0.0000 O   0  0  0  0  0  0  0  0  0  0  0  0
    1.6042   -1.5167    0.0000 C   0  0  0  0  0  0  0  0  0  0  0  0
    2.9625   -1.0750    0.0000 C   0  0  0  0  0  0  0  0  0  0  0  0
    2.1542   -0.9042    0.0000 C   0  0  0  0  0  0  0  0  0  0  0  0
   -3.5208    0.3958    0.0000 C   0  0  0  0  0  0  0  0  0  0  0  0
   -3.5208    1.7292    0.0000 C   0  0  0  0  0  0  0  0  0  0  0  0
   -4.0042    1.0625    0.0000 C   0  0  0  0  0  0  0  0  0  0  0  0
    2.6625   -2.4750    0.0000 C   0  0  0  0  0  0  0  0  0  0  0  0
    1.8583   -2.3042    0.0000 C   0  0  0  0  0  0  0  0  0  0  0  0
    3.2167   -1.8625    0.0000 C   0  0  0  0  0  0  0  0  0  0  0  0
  2  1  1  0  0  0  0
  3  2  2  0  0  0  0
  3  4  1  0  0  0  0
  4  5  1  0  0  0  0
  5  1  2  0  0  0  0
  6  2  1  0  0  0  0
  7 12  1  0  0  0  0
  8 17  1  0  0  0  0
  9  6  2  0  0  0  0
  9 11  1  0  0  0  0
 10  3  1  0  0  0  0
 11 10  2  0  0  0  0
 12  1  1  0  0  0  0
 13  8  3  0  0  0  0
 14  7  1  0  0  0  0
 15  7  2  0  0  0  0
 16 14  1  0  0  0  0
 17 18  1  0  0  0  0
 18 16  2  0  0  0  0
 19  9  1  0  0  0  0
 20 11  1  0  0  0  0
 21 19  1  0  0  0  0
 21 20  1  0  0  0  0
 22 23  2  0  0  0  0
 23 16  1  0  0  0  0
 24 17  2  0  0  0  0
 24 22  1  0  0  0  0
M  END
> <CdId>
3997

> <Mol Weight>
315.3652

> <Formula>
C21H17NO2

> <Click_ID>
CLK052E05 __ __ 

$$$$
