CLK009_H04
 OpenBabel03181404502D

 20 20  0  0  0  0  0  0  0  0999 V2000
    3.0814    2.3645    0.0000 N   0  0  0  0  0  0  0  0  0  0  0  0
    5.9189   -0.0074    0.0000 C   0  0  0  0  0  0  0  0  0  0  0  0
    5.9189   -0.8646    0.0000 C   0  0  0  0  0  0  0  0  0  0  0  0
    2.3720    1.9433    0.0000 C   0  0  0  0  0  0  0  0  0  0  0  0
    3.7760    1.9730    0.0000 C   0  0  0  0  0  0  0  0  0  0  0  0
    6.6283    2.0395    0.0000 C   0  0  0  0  0  0  0  0  0  0  0  0
    1.6626    2.3645    0.0000 C   0  0  0  0  0  0  0  0  0  0  0  0
    3.7760    1.1527    0.0000 O   0  0  0  0  0  0  0  0  0  0  0  0
    7.3008    2.4754    0.0000 O   0  0  0  0  0  0  0  0  0  0  0  0
    6.6283    1.2340    0.0000 O   0  0  0  0  0  0  0  0  0  0  0  0
    1.6626    3.1848    0.0000 O   0  0  0  0  0  0  0  0  0  0  0  0
    5.9189    0.8349    0.0000 C   0  0  0  0  0  0  0  0  0  0  0  0
    4.4632    2.3942    0.0000 C   0  0  0  0  0  0  0  0  0  0  0  0
    5.8820    2.4310    0.0000 C   0  0  0  0  0  0  0  0  0  0  0  0
    5.2095    2.0099    0.0000 C   0  0  0  0  0  0  0  0  0  0  0  0
    2.3720    1.1231    0.0000 C   0  0  0  0  0  0  0  0  0  0  0  0
    0.9532    1.9433    0.0000 C   0  0  0  0  0  0  0  0  0  0  0  0
    0.9532    3.6060    0.0000 C   0  0  0  0  0  0  0  0  0  0  0  0
    1.6626    0.7019    0.0000 C   0  0  0  0  0  0  0  0  0  0  0  0
    0.9532    1.1231    0.0000 C   0  0  0  0  0  0  0  0  0  0  0  0
  2 12  1  0  0  0  0
  3  2  3  0  0  0  0
  4  1  1  0  0  0  0
  5  1  1  0  0  0  0
  6 14  1  0  0  0  0
  7  4  2  0  0  0  0
  8  5  2  0  0  0  0
  9  6  2  0  0  0  0
 10  6  1  0  0  0  0
 11  7  1  0  0  0  0
 12 10  1  0  0  0  0
 13  5  1  0  0  0  0
 14 15  1  0  0  0  0
 15 13  1  0  0  0  0
 16  4  1  0  0  0  0
 17  7  1  0  0  0  0
 17 20  2  0  0  0  0
 18 11  1  0  0  0  0
 19 16  2  0  0  0  0
 20 19  1  0  0  0  0
M  END
> <CdId>
669

> <Mol Weight>
275.2998

> <Formula>
C15H17NO4

> <Click_ID>
CLK009_H04 __ __ 

$$$$
