CLK041A08
 OpenBabel03181404502D

 22 22  0  0  0  0  0  0  0  0999 V2000
   -1.3667   -1.5750    0.0000 S   0  0  0  0  0  0  0  0  0  0  0  0
   -0.6500   -1.1625    0.0000 C   0  0  0  0  0  0  0  0  0  0  0  0
   -2.0792   -1.9875    0.0000 N   0  0  0  0  0  0  0  0  0  0  0  0
   -1.7792   -0.8583    0.0000 O   0  0  0  0  0  0  0  0  0  0  0  0
   -0.9542   -2.2875    0.0000 O   0  0  0  0  0  0  0  0  0  0  0  0
    2.2083    3.7917    0.0000 C   0  0  0  0  0  0  0  0  0  0  0  0
    0.0625   -1.5750    0.0000 C   0  0  0  0  0  0  0  0  0  0  0  0
    2.9208    4.2000    0.0000 C   0  0  0  0  0  0  0  0  0  0  0  0
    0.7792    2.1417    0.0000 C   0  0  0  0  0  0  0  0  0  0  0  0
   -0.6500   -0.3375    0.0000 C   0  0  0  0  0  0  0  0  0  0  0  0
    0.7792    1.3125    0.0000 C   0  0  0  0  0  0  0  0  0  0  0  0
    0.0625    0.9000    0.0000 C   0  0  0  0  0  0  0  0  0  0  0  0
    0.0625    2.5500    0.0000 O   0  0  0  0  0  0  0  0  0  0  0  0
    0.0625    0.0750    0.0000 C   0  0  0  0  0  0  0  0  0  0  0  0
    0.7792   -1.1625    0.0000 C   0  0  0  0  0  0  0  0  0  0  0  0
    1.4917    2.5500    0.0000 N   0  0  0  0  0  0  0  0  0  0  0  0
    0.7792   -0.3375    0.0000 C   0  0  0  0  0  0  0  0  0  0  0  0
    1.4917    3.3750    0.0000 C   0  0  0  0  0  0  0  0  0  0  0  0
    0.0625   -2.4000    0.0000 O   0  0  0  0  0  0  0  0  0  0  0  0
   -2.0792   -2.8125    0.0000 C   0  0  0  0  0  0  0  0  0  0  0  0
   -2.7958   -1.5750    0.0000 C   0  0  0  0  0  0  0  0  0  0  0  0
    0.7792   -2.8125    0.0000 C   0  0  0  0  0  0  0  0  0  0  0  0
  2  1  1  0  0  0  0
  3  1  1  0  0  0  0
  4  1  2  0  0  0  0
  5  1  2  0  0  0  0
  6 18  1  0  0  0  0
  7  2  2  0  0  0  0
  8  6  3  0  0  0  0
  9 11  1  0  0  0  0
 10  2  1  0  0  0  0
 11 12  2  0  0  0  0
 12 14  1  0  0  0  0
 13  9  2  0  0  0  0
 14 10  2  0  0  0  0
 14 17  1  0  0  0  0
 15  7  1  0  0  0  0
 16  9  1  0  0  0  0
 17 15  2  0  0  0  0
 18 16  1  0  0  0  0
 19  7  1  0  0  0  0
 20  3  1  0  0  0  0
 21  3  1  0  0  0  0
 22 19  1  0  0  0  0
M  END
> <CdId>
3137

> <Mol Weight>
322.379

> <Formula>
C15H18N2O4S

> <Click_ID>
CLK041A08 __ __ 

$$$$
