CLK018_E03
 OpenBabel03181404502D

 19 21  0  0  0  0  0  0  0  0999 V2000
   -5.8111    1.1197    0.0000 C    0  0  0  0  0  0  0  0  0  0  0  0
   -5.0024    1.0731    0.0000 C    0  0  0  0  0  0  0  0  0  0  0  0
   -6.3865    0.5546    0.0000 S    0  0  0  0  0  0  0  0  0  0  0  0
   -6.1688    1.8662    0.0000 C    0  0  0  0  0  0  0  0  0  0  0  0
   -4.4944    0.4510    0.0000 O    0  0  0  0  0  0  0  0  0  0  0  0
   -4.5411    1.7677    0.0000 N    0  0  0  0  0  0  0  0  0  0  0  0
   -3.7738    1.5499    0.0000 N    0  0  0  0  0  0  0  0  0  0  0  0
   -3.7480    0.7465    0.0000 C    0  0  0  0  0  0  0  0  0  0  0  0
   -6.9827    1.7418    0.0000 C    0  0  0  0  0  0  0  0  0  0  0  0
   -7.1174    0.9279    0.0000 C    0  0  0  0  0  0  0  0  0  0  0  0
   -1.6329    0.2280    0.0000 C    0  0  0  0  0  0  0  0  0  0  0  0
   -0.9590   -0.2488    0.0000 C    0  0  0  0  0  0  0  0  0  0  0  0
   -5.7955    2.5919    0.0000 Cl   0  0  0  0  0  0  0  0  0  0  0  0
   -3.0481    0.3058    0.0000 S    0  0  0  0  0  0  0  0  0  0  0  0
   -2.3016    0.6790    0.0000 C    0  0  0  0  0  0  0  0  0  0  0  0
   -7.6255    2.2653    0.0000 C    0  0  0  0  0  0  0  0  0  0  0  0
   -7.8744    0.6221    0.0000 C    0  0  0  0  0  0  0  0  0  0  0  0
   -8.3979    1.9698    0.0000 C    0  0  0  0  0  0  0  0  0  0  0  0
   -8.5120    1.1456    0.0000 C    0  0  0  0  0  0  0  0  0  0  0  0
  2  1  1  0  0  0  0
  3  1  1  0  0  0  0
  4  1  2  0  0  0  0
  5  2  1  0  0  0  0
  6  2  2  0  0  0  0
  7  6  1  0  0  0  0
  8  5  1  0  0  0  0
  8  7  2  0  0  0  0
  9  4  1  0  0  0  0
  9 10  2  0  0  0  0
 10  3  1  0  0  0  0
 11 15  1  0  0  0  0
 12 11  3  0  0  0  0
 13  4  1  0  0  0  0
 14  8  1  0  0  0  0
 15 14  1  0  0  0  0
 16  9  1  0  0  0  0
 17 10  1  0  0  0  0
 18 16  2  0  0  0  0
 18 19  1  0  0  0  0
 19 17  2  0  0  0  0
M  END
> <CdId>
1358

> <Mol Weight>
306.79

> <Formula>
C13H7ClN2OS2

> <Click_ID>
CLK018_E03 __ __ 

$$$$
