CLK046C07
 OpenBabel03181404502D

 24 26  0  0  0  0  0  0  0  0999 V2000
    3.2125    1.6708    0.0000 C   0  0  0  0  0  0  0  0  0  0  0  0
   -1.7875   -0.3917    0.0000 C   0  0  0  0  0  0  0  0  0  0  0  0
    3.2125    2.4958    0.0000 C   0  0  0  0  0  0  0  0  0  0  0  0
   -2.5042   -0.8042    0.0000 C   0  0  0  0  0  0  0  0  0  0  0  0
   -3.2167   -0.3917    0.0000 C   0  0  0  0  0  0  0  0  0  0  0  0
    1.0708   -0.3917    0.0000 C   0  0  0  0  0  0  0  0  0  0  0  0
   -1.0750   -0.8042    0.0000 C   0  0  0  0  0  0  0  0  0  0  0  0
    1.7833   -0.8042    0.0000 N   0  0  0  0  0  0  0  0  0  0  0  0
   -3.2167    0.4333    0.0000 C   0  0  0  0  0  0  0  0  0  0  0  0
   -1.7875    0.4333    0.0000 C   0  0  0  0  0  0  0  0  0  0  0  0
    2.4958   -0.3917    0.0000 C   0  0  0  0  0  0  0  0  0  0  0  0
    1.0708    0.4333    0.0000 O   0  0  0  0  0  0  0  0  0  0  0  0
   -1.0750   -1.6292    0.0000 O   0  0  0  0  0  0  0  0  0  0  0  0
   -2.5042    0.8458    0.0000 C   0  0  0  0  0  0  0  0  0  0  0  0
   -0.3583   -0.3917    0.0000 C   0  0  0  0  0  0  0  0  0  0  0  0
    3.2125    0.8458    0.0000 C   0  0  0  0  0  0  0  0  0  0  0  0
    0.3542   -0.8042    0.0000 C   0  0  0  0  0  0  0  0  0  0  0  0
    2.4958    0.4333    0.0000 C   0  0  0  0  0  0  0  0  0  0  0  0
   -4.0042   -0.6500    0.0000 C   0  0  0  0  0  0  0  0  0  0  0  0
   -4.4875    0.0208    0.0000 C   0  0  0  0  0  0  0  0  0  0  0  0
    3.9250   -0.3917    0.0000 C   0  0  0  0  0  0  0  0  0  0  0  0
   -4.0042    0.6875    0.0000 C   0  0  0  0  0  0  0  0  0  0  0  0
    3.2125   -0.8042    0.0000 C   0  0  0  0  0  0  0  0  0  0  0  0
    3.9250    0.4333    0.0000 C   0  0  0  0  0  0  0  0  0  0  0  0
  2  7  1  0  0  0  0
  3  1  3  0  0  0  0
  4  2  2  0  0  0  0
  5  4  1  0  0  0  0
  6  8  1  0  0  0  0
  7 15  1  0  0  0  0
  8 11  1  0  0  0  0
  9  5  2  0  0  0  0
  9 14  1  0  0  0  0
 10  2  1  0  0  0  0
 11 18  2  0  0  0  0
 12  6  2  0  0  0  0
 13  7  2  0  0  0  0
 14 10  2  0  0  0  0
 15 17  1  0  0  0  0
 16  1  1  0  0  0  0
 17  6  1  0  0  0  0
 18 16  1  0  0  0  0
 19  5  1  0  0  0  0
 20 19  1  0  0  0  0
 20 22  1  0  0  0  0
 21 24  1  0  0  0  0
 21 23  2  0  0  0  0
 22  9  1  0  0  0  0
 23 11  1  0  0  0  0
 24 16  2  0  0  0  0
M  END
> <CdId>
3531

> <Mol Weight>
317.3811

> <Formula>
C21H19NO2

> <Click_ID>
CLK046C07 __ __ 

$$$$
