CLK012_H11
 OpenBabel03181404502D

 21 22  0  0  0  0  0  0  0  0999 V2000
    1.5644   -0.8155    0.0000 N   0  0  0  0  0  0  0  0  0  0  0  0
    1.8223   -1.6018    0.0000 C   0  0  0  0  0  0  0  0  0  0  0  0
    2.2342   -0.3287    0.0000 C   0  0  0  0  0  0  0  0  0  0  0  0
    2.8999   -0.8155    0.0000 C   0  0  0  0  0  0  0  0  0  0  0  0
    2.6461   -1.6018    0.0000 S   0  0  0  0  0  0  0  0  0  0  0  0
    3.6862   -0.5617    0.0000 C   0  0  0  0  0  0  0  0  0  0  0  0
    0.6116    0.2454    0.0000 C   0  0  0  0  0  0  0  0  0  0  0  0
    0.3911    1.0442    0.0000 C   0  0  0  0  0  0  0  0  0  0  0  0
    1.3355   -2.2633    0.0000 O   0  0  0  0  0  0  0  0  0  0  0  0
    2.2259    0.4951    0.0000 O   0  0  0  0  0  0  0  0  0  0  0  0
    0.7863   -0.5617    0.0000 C   0  0  0  0  0  0  0  0  0  0  0  0
    3.8567    0.2454    0.0000 C   0  0  0  0  0  0  0  0  0  0  0  0
    4.3852    2.6668    0.0000 O   0  0  0  0  0  0  0  0  0  0  0  0
    4.2104    1.8597    0.0000 C   0  0  0  0  0  0  0  0  0  0  0  0
    3.2494    0.8071    0.0000 C   0  0  0  0  0  0  0  0  0  0  0  0
    4.6473    0.5075    0.0000 C   0  0  0  0  0  0  0  0  0  0  0  0
    3.4241    1.6101    0.0000 C   0  0  0  0  0  0  0  0  0  0  0  0
    4.8220    1.3105    0.0000 C   0  0  0  0  0  0  0  0  0  0  0  0
    4.5724    3.4781    0.0000 C   0  0  0  0  0  0  0  0  0  0  0  0
    5.3670    3.7028    0.0000 C   0  0  0  0  0  0  0  0  0  0  0  0
    3.9733    4.0357    0.0000 C   0  0  0  0  0  0  0  0  0  0  0  0
  2  1  1  0  0  0  0
  3  1  1  0  0  0  0
  4  3  1  0  0  0  0
  4  5  1  0  0  0  0
  5  2  1  0  0  0  0
  6  4  2  0  0  0  0
  7 11  1  0  0  0  0
  8  7  3  0  0  0  0
  9  2  2  0  0  0  0
 10  3  2  0  0  0  0
 11  1  1  0  0  0  0
 12  6  1  0  0  0  0
 13 14  1  0  0  0  0
 14 18  1  0  0  0  0
 14 17  2  0  0  0  0
 15 12  2  0  0  0  0
 16 12  1  0  0  0  0
 17 15  1  0  0  0  0
 18 16  2  0  0  0  0
 19 13  1  0  0  0  0
 20 19  1  0  0  0  0
 21 19  1  0  0  0  0
M  END
> <CdId>
916

> <Mol Weight>
301.36

> <Formula>
C16H15NO3S

> <Click_ID>
CLK012_H11 __ __ 

$$$$
