CLK007_B09
 OpenBabel03181404502D

 27 29  0  0  0  0  0  0  0  0999 V2000
   -0.1271   -1.9855    0.0000 C    0  0  0  0  0  0  0  0  0  0  0  0
   -0.1202   -2.8133    0.0000 C    0  0  0  0  0  0  0  0  0  0  0  0
   -0.7626   -1.4840    0.0000 N    0  0  0  0  0  0  0  0  0  0  0  0
    0.5565   -1.5355    0.0000 O    0  0  0  0  0  0  0  0  0  0  0  0
    0.5908   -3.2255    0.0000 C    0  0  0  0  0  0  0  0  0  0  0  0
   -0.8382   -3.2255    0.0000 C    0  0  0  0  0  0  0  0  0  0  0  0
   -0.4672   -0.7111    0.0000 C    0  0  0  0  0  0  0  0  0  0  0  0
    0.3435   -0.7488    0.0000 C    0  0  0  0  0  0  0  0  0  0  0  0
    0.5840   -4.0534    0.0000 C    0  0  0  0  0  0  0  0  0  0  0  0
    1.3053   -2.8133    0.0000 F    0  0  0  0  0  0  0  0  0  0  0  0
   -0.8382   -4.0534    0.0000 C    0  0  0  0  0  0  0  0  0  0  0  0
   -0.9240   -0.0137    0.0000 C    0  0  0  0  0  0  0  0  0  0  0  0
    0.8519   -0.0927    0.0000 O    0  0  0  0  0  0  0  0  0  0  0  0
   -0.1271   -4.4621    0.0000 C    0  0  0  0  0  0  0  0  0  0  0  0
   -0.5427    0.7213    0.0000 C    0  0  0  0  0  0  0  0  0  0  0  0
   -0.9996    1.4186    0.0000 C    0  0  0  0  0  0  0  0  0  0  0  0
    0.2714    0.7729    0.0000 C    0  0  0  0  0  0  0  0  0  0  0  0
   -0.6252    2.1538    0.0000 C    0  0  0  0  0  0  0  0  0  0  0  0
    0.6527    1.5011    0.0000 C    0  0  0  0  0  0  0  0  0  0  0  0
    0.1958    2.1984    0.0000 C    0  0  0  0  0  0  0  0  0  0  0  0
   -1.0718    2.8339    0.0000 O    0  0  0  0  0  0  0  0  0  0  0  0
    1.4736    1.5389    0.0000 Cl   0  0  0  0  0  0  0  0  0  0  0  0
    0.5702    2.9335    0.0000 O    0  0  0  0  0  0  0  0  0  0  0  0
   -1.8961    2.7927    0.0000 C    0  0  0  0  0  0  0  0  0  0  0  0
    0.1236    3.6171    0.0000 C    0  0  0  0  0  0  0  0  0  0  0  0
    0.4947    4.3454    0.0000 C    0  0  0  0  0  0  0  0  0  0  0  0
    1.3190    4.3865    0.0000 C    0  0  0  0  0  0  0  0  0  0  0  0
  1  2  1  0  0  0  0
  1  3  2  0  0  0  0
  1  4  1  0  0  0  0
  2  5  1  0  0  0  0
  2  6  2  0  0  0  0
  3  7  1  0  0  0  0
  4  8  1  0  0  0  0
  5  9  2  0  0  0  0
  5 10  1  0  0  0  0
  6 11  1  0  0  0  0
  7 12  2  0  0  0  0
  7  8  1  0  0  0  0
  8 13  2  0  0  0  0
  9 14  1  0  0  0  0
 11 14  2  0  0  0  0
 12 15  1  0  0  0  0
 15 16  1  0  0  0  0
 15 17  2  0  0  0  0
 16 18  2  0  0  0  0
 17 19  1  0  0  0  0
 18 20  1  0  0  0  0
 18 21  1  0  0  0  0
 19 22  1  0  0  0  0
 19 20  2  0  0  0  0
 20 23  1  0  0  0  0
 21 24  1  0  0  0  0
 23 25  1  0  0  0  0
 25 26  1  0  0  0  0
 26 27  3  0  0  0  0
M  END
> <CdId>
498

> <Mol Weight>
385.773

> <Formula>
C20H13ClFNO4

> <Click_ID>
CLK007_B09 __ __ 

$$$$
