CLK047G02
 OpenBabel03181404502D

 14 14  0  0  0  0  0  0  0  0999 V2000
   -0.3583    0.7958    0.0000 C   0  0  0  0  0  0  0  0  0  0  0  0
    1.0708    2.4458    0.0000 C   0  0  0  0  0  0  0  0  0  0  0  0
    1.7833    2.8583    0.0000 C   0  0  0  0  0  0  0  0  0  0  0  0
   -0.3583   -0.0292    0.0000 C   0  0  0  0  0  0  0  0  0  0  0  0
   -1.0750    1.2083    0.0000 O   0  0  0  0  0  0  0  0  0  0  0  0
    0.3542    1.2083    0.0000 N   0  0  0  0  0  0  0  0  0  0  0  0
   -1.0750   -0.4417    0.0000 C   0  0  0  0  0  0  0  0  0  0  0  0
    0.3542   -0.4417    0.0000 C   0  0  0  0  0  0  0  0  0  0  0  0
   -0.3583   -1.6792    0.0000 C   0  0  0  0  0  0  0  0  0  0  0  0
   -1.0750   -1.2667    0.0000 C   0  0  0  0  0  0  0  0  0  0  0  0
    0.3542   -1.2667    0.0000 C   0  0  0  0  0  0  0  0  0  0  0  0
    0.3542    2.0333    0.0000 C   0  0  0  0  0  0  0  0  0  0  0  0
   -0.3583   -2.5042    0.0000 O   0  0  0  0  0  0  0  0  0  0  0  0
    0.3542   -2.9167    0.0000 C   0  0  0  0  0  0  0  0  0  0  0  0
  2 12  1  0  0  0  0
  3  2  3  0  0  0  0
  4  1  1  0  0  0  0
  5  1  2  0  0  0  0
  6  1  1  0  0  0  0
  7  4  2  0  0  0  0
  8  4  1  0  0  0  0
  9 10  2  0  0  0  0
 10  7  1  0  0  0  0
 11  8  2  0  0  0  0
 11  9  1  0  0  0  0
 12  6  1  0  0  0  0
 13  9  1  0  0  0  0
 14 13  1  0  0  0  0
M  END
> <CdId>
3575

> <Mol Weight>
189.2105

> <Formula>
C11H11NO2

> <Click_ID>
CLK047G02 __ __ 

$$$$
