CLK007_B03
 OpenBabel03181404502D

 34 38  0  0  0  0  0  0  0  0999 V2000
   -0.1968    0.6627    0.0000 C    0  0  3  0  0  0  0  0  0  0  0  0
   -0.9111    0.2519    0.0000 C    0  0  0  0  0  0  0  0  0  0  0  0
    0.5936    0.8767    0.0000 C    0  0  0  0  0  0  0  0  0  0  0  0
    0.5143    0.2519    0.0000 C    0  0  0  0  0  0  0  0  0  0  0  0
   -0.6489    1.3529    0.0000 C    0  0  0  0  0  0  0  0  0  0  0  0
   -0.9215   -0.5764    0.0000 C    0  0  0  0  0  0  0  0  0  0  0  0
   -1.6256    0.6627    0.0000 C    0  0  0  0  0  0  0  0  0  0  0  0
    0.6385    1.7015    0.0000 C    0  0  0  0  0  0  0  0  0  0  0  0
    1.2909    0.4383    0.0000 C    0  0  0  0  0  0  0  0  0  0  0  0
    0.5143   -0.5764    0.0000 C    0  0  0  0  0  0  0  0  0  0  0  0
    1.2287   -0.1622    0.0000 C    0  0  0  0  0  0  0  0  0  0  0  0
   -0.1346    2.0018    0.0000 N    0  0  0  0  0  0  0  0  0  0  0  0
   -1.2356    1.9396    0.0000 O    0  0  0  0  0  0  0  0  0  0  0  0
   -0.2071   -0.9871    0.0000 N    0  0  0  0  0  0  0  0  0  0  0  0
   -1.6256   -0.9871    0.0000 C    0  0  0  0  0  0  0  0  0  0  0  0
   -2.3366    0.2519    0.0000 C    0  0  0  0  0  0  0  0  0  0  0  0
   -2.2123    1.2528    0.0000 O    0  0  0  0  0  0  0  0  0  0  0  0
    1.3702    2.0881    0.0000 C    0  0  0  0  0  0  0  0  0  0  0  0
    2.0294    0.8145    0.0000 C    0  0  0  0  0  0  0  0  0  0  0  0
    1.2183   -1.0009    0.0000 N    0  0  0  0  0  0  0  0  0  0  0  0
    1.9396   -0.5764    0.0000 N    0  0  0  0  0  0  0  0  0  0  0  0
   -0.3555    2.7956    0.0000 C    0  0  0  0  0  0  0  0  0  0  0  0
   -0.2105   -1.8154    0.0000 C    0  0  0  0  0  0  0  0  0  0  0  0
   -2.3366   -0.5764    0.0000 C    0  0  0  0  0  0  0  0  0  0  0  0
    2.0673    1.6394    0.0000 C    0  0  0  0  0  0  0  0  0  0  0  0
    0.2174    3.3823    0.0000 C    0  0  0  0  0  0  0  0  0  0  0  0
    0.5039   -2.2261    0.0000 C    0  0  0  0  0  0  0  0  0  0  0  0
   -0.9318   -2.2158    0.0000 C    0  0  0  0  0  0  0  0  0  0  0  0
    0.0069    4.1796    0.0000 C    0  0  0  0  0  0  0  0  0  0  0  0
    0.4935   -3.0510    0.0000 C    0  0  0  0  0  0  0  0  0  0  0  0
    1.2183   -1.8154    0.0000 C    0  0  0  0  0  0  0  0  0  0  0  0
   -0.9353   -3.0406    0.0000 C    0  0  0  0  0  0  0  0  0  0  0  0
   -0.2243   -3.4652    0.0000 C    0  0  0  0  0  0  0  0  0  0  0  0
    1.2080   -3.4652    0.0000 Cl   0  0  0  0  0  0  0  0  0  0  0  0
  1  2  1  0  0  0  0
  1  3  1  0  0  0  0
  1  4  1  0  0  0  0
  1  5  1  0  0  0  0
  2  6  2  0  0  0  0
  2  7  1  0  0  0  0
  3  8  2  0  0  0  0
  3  9  1  0  0  0  0
  4 10  2  0  0  0  0
  4 11  1  0  0  0  0
  5 12  1  0  0  0  0
  5 13  2  0  0  0  0
  6 14  1  0  0  0  0
  6 15  1  0  0  0  0
  7 16  1  0  0  0  0
  7 17  2  0  0  0  0
  8 18  1  0  0  0  0
  8 12  1  0  0  0  0
  9 19  2  0  0  0  0
 10 20  1  0  0  0  0
 10 14  1  0  0  0  0
 11 21  3  0  0  0  0
 12 22  1  0  0  0  0
 14 23  1  0  0  0  0
 15 24  1  0  0  0  0
 16 24  1  0  0  0  0
 18 25  2  0  0  0  0
 19 25  1  0  0  0  0
 22 26  1  0  0  0  0
 23 27  1  0  0  0  0
 23 28  2  0  0  0  0
 26 29  3  0  0  0  0
 27 30  2  0  0  0  0
 27 31  1  0  0  0  0
 28 32  1  0  0  0  0
 30 33  1  0  0  0  0
 30 34  1  0  0  0  0
 32 33  2  0  0  0  0
M  END
> <CdId>
492

> <Mol Weight>
468.934

> <Formula>
C27H21ClN4O2

> <Click_ID>
CLK007_B03 __ __ 

$$$$
