CLK038C08
 OpenBabel03181404502D

 19 20  0  0  0  0  0  0  0  0999 V2000
   -0.1917   -0.0625    0.0000 N   0  0  0  0  0  0  0  0  0  0  0  0
   -0.1917    0.7625    0.0000 N   0  0  0  0  0  0  0  0  0  0  0  0
   -0.9042   -0.4750    0.0000 C   0  0  0  0  0  0  0  0  0  0  0  0
   -0.9042    1.1750    0.0000 C   0  0  0  0  0  0  0  0  0  0  0  0
   -0.9042   -1.3000    0.0000 C   0  0  0  0  0  0  0  0  0  0  0  0
    0.5250   -2.9500    0.0000 C   0  0  0  0  0  0  0  0  0  0  0  0
    1.2375   -3.3625    0.0000 C   0  0  0  0  0  0  0  0  0  0  0  0
    0.5250    1.1750    0.0000 C   0  0  0  0  0  0  0  0  0  0  0  0
   -1.6208   -0.0625    0.0000 C   0  0  0  0  0  0  0  0  0  0  0  0
   -1.6208    0.7625    0.0000 C   0  0  0  0  0  0  0  0  0  0  0  0
   -0.9042    2.0000    0.0000 O   0  0  0  0  0  0  0  0  0  0  0  0
   -1.6208   -1.7125    0.0000 O   0  0  0  0  0  0  0  0  0  0  0  0
   -0.1917   -1.7125    0.0000 N   0  0  0  0  0  0  0  0  0  0  0  0
   -0.1917   -2.5375    0.0000 C   0  0  0  0  0  0  0  0  0  0  0  0
    1.2375    0.7625    0.0000 C   0  0  0  0  0  0  0  0  0  0  0  0
    0.5250    2.0000    0.0000 C   0  0  0  0  0  0  0  0  0  0  0  0
    1.2375    2.4125    0.0000 C   0  0  0  0  0  0  0  0  0  0  0  0
    1.9542    1.1750    0.0000 C   0  0  0  0  0  0  0  0  0  0  0  0
    1.9542    2.0000    0.0000 C   0  0  0  0  0  0  0  0  0  0  0  0
  2  1  1  0  0  0  0
  3  1  2  0  0  0  0
  4  2  1  0  0  0  0
  5  3  1  0  0  0  0
  6 14  1  0  0  0  0
  7  6  3  0  0  0  0
  8  2  1  0  0  0  0
  9  3  1  0  0  0  0
  9 10  1  0  0  0  0
 10  4  1  0  0  0  0
 11  4  2  0  0  0  0
 12  5  2  0  0  0  0
 13  5  1  0  0  0  0
 14 13  1  0  0  0  0
 15  8  1  0  0  0  0
 16  8  2  0  0  0  0
 17 16  1  0  0  0  0
 18 15  2  0  0  0  0
 19 17  2  0  0  0  0
 19 18  1  0  0  0  0
M  END
> <CdId>
2899

> <Mol Weight>
255.2719

> <Formula>
C14H13N3O2

> <Click_ID>
CLK038C08 __ __ 

$$$$
