CLK047G04
 OpenBabel03181404502D

 13 13  0  0  0  0  0  0  0  0999 V2000
    0.3878   -0.1501    0.0000 C   0  0  0  0  0  0  0  0  0  0  0  0
    1.1466   -0.4753    0.0000 S   0  0  0  0  0  0  0  0  0  0  0  0
    0.4628    0.6713    0.0000 C   0  0  0  0  0  0  0  0  0  0  0  0
    1.6887    0.1459    0.0000 C   0  0  0  0  0  0  0  0  0  0  0  0
    1.2676    0.8548    0.0000 C   0  0  0  0  0  0  0  0  0  0  0  0
   -0.3210   -0.5712    0.0000 C   0  0  0  0  0  0  0  0  0  0  0  0
   -2.4725   -0.1918    0.0000 C   0  0  0  0  0  0  0  0  0  0  0  0
   -3.1939    0.2126    0.0000 C   0  0  0  0  0  0  0  0  0  0  0  0
   -0.3085   -1.3968    0.0000 O   0  0  0  0  0  0  0  0  0  0  0  0
   -1.0424   -0.1709    0.0000 N   0  0  0  0  0  0  0  0  0  0  0  0
   -1.7512   -0.5921    0.0000 C   0  0  0  0  0  0  0  0  0  0  0  0
    2.5142    0.0751    0.0000 C   0  0  0  0  0  0  0  0  0  0  0  0
    1.5928    1.6136    0.0000 C   0  0  0  0  0  0  0  0  0  0  0  0
  2  1  1  0  0  0  0
  3  1  2  0  0  0  0
  4  2  1  0  0  0  0
  4  5  2  0  0  0  0
  5  3  1  0  0  0  0
  6  1  1  0  0  0  0
  7 11  1  0  0  0  0
  8  7  3  0  0  0  0
  9  6  2  0  0  0  0
 10  6  1  0  0  0  0
 11 10  1  0  0  0  0
 12  4  1  0  0  0  0
 13  5  1  0  0  0  0
M  END
> <CdId>
3591

> <Mol Weight>
193.265

> <Formula>
C10H11NOS

> <Click_ID>
CLK047G04 __ __ 

$$$$
