CLK045B11
 OpenBabel03181404502D

 30 33  0  0  0  0  0  0  0  0999 V2000
   -0.3208   -0.0500    0.0000 N   0  0  0  0  0  0  0  0  0  0  0  0
   -1.7500   -0.0500    0.0000 C   0  0  0  0  0  0  0  0  0  0  0  0
   -1.7500    0.7750    0.0000 C   0  0  0  0  0  0  0  0  0  0  0  0
   -0.3208    0.7750    0.0000 C   0  0  0  0  0  0  0  0  0  0  0  0
   -1.0375    1.1875    0.0000 N   0  0  0  0  0  0  0  0  0  0  0  0
   -1.0375   -0.4625    0.0000 C   0  0  0  0  0  0  0  0  0  0  0  0
   -2.5333    1.0333    0.0000 S   0  0  0  0  0  0  0  0  0  0  0  0
   -2.5333   -0.3042    0.0000 C   0  0  0  0  0  0  0  0  0  0  0  0
   -3.0208    0.3625    0.0000 C   0  0  0  0  0  0  0  0  0  0  0  0
    0.3917   -0.4625    0.0000 C   0  0  0  0  0  0  0  0  0  0  0  0
    0.3917    1.1875    0.0000 S   0  0  0  0  0  0  0  0  0  0  0  0
    3.9667    0.7750    0.0000 C   0  0  0  0  0  0  0  0  0  0  0  0
    4.6792    0.3625    0.0000 C   0  0  0  0  0  0  0  0  0  0  0  0
   -1.0375   -1.2875    0.0000 O   0  0  0  0  0  0  0  0  0  0  0  0
    1.8208    1.1875    0.0000 C   0  0  0  0  0  0  0  0  0  0  0  0
    1.1083   -0.0500    0.0000 C   0  0  0  0  0  0  0  0  0  0  0  0
    0.3917   -1.2875    0.0000 C   0  0  0  0  0  0  0  0  0  0  0  0
    1.8208    2.0125    0.0000 O   0  0  0  0  0  0  0  0  0  0  0  0
    1.1083   -1.7000    0.0000 C   0  0  0  0  0  0  0  0  0  0  0  0
    1.8208   -0.4625    0.0000 C   0  0  0  0  0  0  0  0  0  0  0  0
    1.1083    0.7750    0.0000 C   0  0  0  0  0  0  0  0  0  0  0  0
    2.5375    0.7750    0.0000 N   0  0  0  0  0  0  0  0  0  0  0  0
    1.8208   -1.2875    0.0000 C   0  0  0  0  0  0  0  0  0  0  0  0
   -2.8708   -1.0583    0.0000 C   0  0  0  0  0  0  0  0  0  0  0  0
   -3.8417    0.2792    0.0000 C   0  0  0  0  0  0  0  0  0  0  0  0
    3.2500    1.1875    0.0000 C   0  0  0  0  0  0  0  0  0  0  0  0
    2.5375   -0.0500    0.0000 C   0  0  0  0  0  0  0  0  0  0  0  0
    1.1083   -2.5250    0.0000 C   0  0  0  0  0  0  0  0  0  0  0  0
   -3.6917   -1.1417    0.0000 C   0  0  0  0  0  0  0  0  0  0  0  0
   -4.1750   -0.4750    0.0000 C   0  0  0  0  0  0  0  0  0  0  0  0
  2  6  1  0  0  0  0
  3  2  2  0  0  0  0
  3  5  1  0  0  0  0
  4  1  1  0  0  0  0
  5  4  2  0  0  0  0
  6  1  1  0  0  0  0
  7  3  1  0  0  0  0
  8  2  1  0  0  0  0
  9  8  2  0  0  0  0
  9  7  1  0  0  0  0
 10  1  1  0  0  0  0
 11  4  1  0  0  0  0
 12 26  1  0  0  0  0
 13 12  3  0  0  0  0
 14  6  2  0  0  0  0
 15 21  1  0  0  0  0
 16 10  2  0  0  0  0
 17 10  1  0  0  0  0
 18 15  2  0  0  0  0
 19 17  2  0  0  0  0
 20 16  1  0  0  0  0
 20 23  2  0  0  0  0
 21 11  1  0  0  0  0
 22 15  1  0  0  0  0
 23 19  1  0  0  0  0
 24  8  1  0  0  0  0
 25  9  1  0  0  0  0
 26 22  1  0  0  0  0
 27 20  1  0  0  0  0
 28 19  1  0  0  0  0
 29 24  1  0  0  0  0
 29 30  1  0  0  0  0
 30 25  1  0  0  0  0
M  END
> <CdId>
3482

> <Mol Weight>
437.578

> <Formula>
C23H23N3O2S2

> <Click_ID>
CLK045B11 __ __ 

$$$$
