CLK052A04
 OpenBabel03181404502D

 24 25  0  0  0  0  0  0  0  0999 V2000
    2.1125    0.4333    0.0000 C   0  0  0  0  0  0  0  0  0  0  0  0
    2.8250    0.8458    0.0000 C   0  0  0  0  0  0  0  0  0  0  0  0
   -4.3167   -0.8042    0.0000 C   0  0  0  0  0  0  0  0  0  0  0  0
   -5.0333   -1.2167    0.0000 C   0  0  0  0  0  0  0  0  0  0  0  0
    0.6833    0.4333    0.0000 N   0  0  0  0  0  0  0  0  0  0  0  0
   -1.4625   -0.8042    0.0000 C   0  0  0  0  0  0  0  0  0  0  0  0
    1.3958    0.8458    0.0000 N   0  0  0  0  0  0  0  0  0  0  0  0
   -2.1750   -0.3917    0.0000 C   0  0  0  0  0  0  0  0  0  0  0  0
    2.1125   -0.3917    0.0000 O   0  0  0  0  0  0  0  0  0  0  0  0
   -0.7458   -0.3917    0.0000 C   0  0  0  0  0  0  0  0  0  0  0  0
    3.5417    2.0833    0.0000 N   0  0  0  0  0  0  0  0  0  0  0  0
   -2.1750    0.4333    0.0000 C   0  0  0  0  0  0  0  0  0  0  0  0
   -0.0333    0.8458    0.0000 C   0  0  0  0  0  0  0  0  0  0  0  0
   -0.7458    0.4333    0.0000 C   0  0  0  0  0  0  0  0  0  0  0  0
    2.8250    1.6708    0.0000 C   0  0  0  0  0  0  0  0  0  0  0  0
   -1.4625    0.8458    0.0000 C   0  0  0  0  0  0  0  0  0  0  0  0
   -1.4625   -1.6292    0.0000 O   0  0  0  0  0  0  0  0  0  0  0  0
   -2.8917   -0.8042    0.0000 O   0  0  0  0  0  0  0  0  0  0  0  0
   -3.6042   -0.3917    0.0000 C   0  0  0  0  0  0  0  0  0  0  0  0
    3.5417    0.4333    0.0000 C   0  0  0  0  0  0  0  0  0  0  0  0
    4.2542    1.6708    0.0000 C   0  0  0  0  0  0  0  0  0  0  0  0
   -0.7458   -2.0417    0.0000 C   0  0  0  0  0  0  0  0  0  0  0  0
    4.2542    0.8458    0.0000 C   0  0  0  0  0  0  0  0  0  0  0  0
   -0.7458   -2.8667    0.0000 C   0  0  0  0  0  0  0  0  0  0  0  0
  2  1  1  0  0  0  0
  3 19  1  0  0  0  0
  4  3  3  0  0  0  0
  5  7  1  0  0  0  0
  6 10  1  0  0  0  0
  7  1  1  0  0  0  0
  8 12  1  0  0  0  0
  8  6  2  0  0  0  0
  9  1  2  0  0  0  0
 10 14  2  0  0  0  0
 11 15  1  0  0  0  0
 12 16  2  0  0  0  0
 13  5  2  0  0  0  0
 14 13  1  0  0  0  0
 15  2  2  0  0  0  0
 16 14  1  0  0  0  0
 17  6  1  0  0  0  0
 18  8  1  0  0  0  0
 19 18  1  0  0  0  0
 20  2  1  0  0  0  0
 21 11  2  0  0  0  0
 21 23  1  0  0  0  0
 22 17  1  0  0  0  0
 23 20  2  0  0  0  0
 24 22  1  0  0  0  0
M  END
> <CdId>
3985

> <Mol Weight>
323.3459

> <Formula>
C18H17N3O3

> <Click_ID>
CLK052A04 __ __ 

$$$$
