CLK013_G06
 OpenBabel03181404502D

 24 25  0  0  0  0  0  0  0  0999 V2000
    2.6128    0.4202    0.0000 N   0  0  0  0  0  0  0  0  0  0  0  0
    2.8707   -0.3662    0.0000 C   0  0  0  0  0  0  0  0  0  0  0  0
    3.9483    0.4202    0.0000 C   0  0  0  0  0  0  0  0  0  0  0  0
    3.2826    0.8987    0.0000 C   0  0  0  0  0  0  0  0  0  0  0  0
    3.6945   -0.3662    0.0000 N   0  0  0  0  0  0  0  0  0  0  0  0
    4.7346    0.6698    0.0000 C   0  0  0  0  0  0  0  0  0  0  0  0
    4.4683    2.8416    0.0000 C   0  0  0  0  0  0  0  0  0  0  0  0
    5.2547    3.0912    0.0000 C   0  0  0  0  0  0  0  0  0  0  0  0
    4.9052    1.4811    0.0000 C   0  0  0  0  0  0  0  0  0  0  0  0
    5.8663    2.5295    0.0000 C   0  0  0  0  0  0  0  0  0  0  0  0
    6.4154    4.9426    0.0000 C   0  0  0  0  0  0  0  0  0  0  0  0
    6.5902    5.7539    0.0000 C   0  0  0  0  0  0  0  0  0  0  0  0
    4.2936    2.0345    0.0000 C   0  0  0  0  0  0  0  0  0  0  0  0
    5.6915    1.7307    0.0000 C   0  0  0  0  0  0  0  0  0  0  0  0
    2.3757   -1.0360    0.0000 O   0  0  0  0  0  0  0  0  0  0  0  0
    3.2743    1.7224    0.0000 O   0  0  0  0  0  0  0  0  0  0  0  0
    7.2642    2.2425    0.0000 C   0  0  0  0  0  0  0  0  0  0  0  0
    8.0422    2.4963    0.0000 C   0  0  0  0  0  0  0  0  0  0  0  0
    3.8692    3.4032    0.0000 O   0  0  0  0  0  0  0  0  0  0  0  0
    5.4419    3.8942    0.0000 O   0  0  0  0  0  0  0  0  0  0  0  0
    6.6443    2.7958    0.0000 C   0  0  0  0  0  0  0  0  0  0  0  0
    6.2324    4.1355    0.0000 C   0  0  0  0  0  0  0  0  0  0  0  0
    3.0871    3.1453    0.0000 C   0  0  0  0  0  0  0  0  0  0  0  0
    2.4838    3.7028    0.0000 C   0  0  0  0  0  0  0  0  0  0  0  0
  2  1  1  0  0  0  0
  3  4  1  0  0  0  0
  4  1  1  0  0  0  0
  5  2  1  0  0  0  0
  5  3  1  0  0  0  0
  6  3  2  0  0  0  0
  7 13  1  0  0  0  0
  7  8  2  0  0  0  0
  8 10  1  0  0  0  0
  9  6  1  0  0  0  0
 10 14  2  0  0  0  0
 11 22  1  0  0  0  0
 12 11  3  0  0  0  0
 13  9  2  0  0  0  0
 14  9  1  0  0  0  0
 15  2  2  0  0  0  0
 16  4  2  0  0  0  0
 17 21  1  0  0  0  0
 18 17  2  0  0  0  0
 19  7  1  0  0  0  0
 20  8  1  0  0  0  0
 21 10  1  0  0  0  0
 22 20  1  0  0  0  0
 23 19  1  0  0  0  0
 24 23  1  0  0  0  0
M  END
> <CdId>
981

> <Mol Weight>
326.3465

> <Formula>
C18H18N2O4

> <Click_ID>
CLK013_G06 __ __ 

$$$$
