CLK043F10
 OpenBabel03181404502D

 23 25  0  0  0  0  0  0  0  0999 V2000
   -1.5542    0.5292    0.0000 N   0  0  0  0  0  0  0  0  0  0  0  0
   -0.8417    0.9417    0.0000 C   0  0  0  0  0  0  0  0  0  0  0  0
   -0.1250    0.5292    0.0000 C   0  0  0  0  0  0  0  0  0  0  0  0
   -0.8417   -0.7083    0.0000 N   0  0  0  0  0  0  0  0  0  0  0  0
   -1.5542   -0.2958    0.0000 C   0  0  0  0  0  0  0  0  0  0  0  0
   -0.1250   -0.2958    0.0000 C   0  0  0  0  0  0  0  0  0  0  0  0
    1.9708   -0.7792    0.0000 C   0  0  0  0  0  0  0  0  0  0  0  0
    0.5875   -0.7083    0.0000 C   0  0  0  0  0  0  0  0  0  0  0  0
    0.5875    0.9417    0.0000 C   0  0  0  0  0  0  0  0  0  0  0  0
    1.3042   -0.2958    0.0000 C   0  0  0  0  0  0  0  0  0  0  0  0
    4.2333   -0.2875    0.0000 C   0  0  0  0  0  0  0  0  0  0  0  0
    4.9417    0.1375    0.0000 C   0  0  0  0  0  0  0  0  0  0  0  0
   -0.8333    1.7667    0.0000 O   0  0  0  0  0  0  0  0  0  0  0  0
    1.3042    0.5292    0.0000 C   0  0  0  0  0  0  0  0  0  0  0  0
    2.0208   -1.6042    0.0000 O   0  0  0  0  0  0  0  0  0  0  0  0
    2.7000   -0.3917    0.0000 N   0  0  0  0  0  0  0  0  0  0  0  0
   -2.1375    1.1125    0.0000 C   0  0  0  0  0  0  0  0  0  0  0  0
   -2.1375   -0.8792    0.0000 C   0  0  0  0  0  0  0  0  0  0  0  0
    3.4875   -0.6375    0.0000 C   0  0  0  0  0  0  0  0  0  0  0  0
   -2.9625    1.1125    0.0000 C   0  0  0  0  0  0  0  0  0  0  0  0
   -2.9625   -0.8792    0.0000 C   0  0  0  0  0  0  0  0  0  0  0  0
   -3.5458    0.5292    0.0000 C   0  0  0  0  0  0  0  0  0  0  0  0
   -3.5458   -0.2958    0.0000 C   0  0  0  0  0  0  0  0  0  0  0  0
  2  1  1  0  0  0  0
  3  2  1  0  0  0  0
  4  5  2  0  0  0  0
  5  1  1  0  0  0  0
  6  4  1  0  0  0  0
  6  3  2  0  0  0  0
  7 10  1  0  0  0  0
  8  6  1  0  0  0  0
  9  3  1  0  0  0  0
 10  8  2  0  0  0  0
 11 19  1  0  0  0  0
 12 11  3  0  0  0  0
 13  2  2  0  0  0  0
 14  9  2  0  0  0  0
 14 10  1  0  0  0  0
 15  7  2  0  0  0  0
 16  7  1  0  0  0  0
 17  1  1  0  0  0  0
 18  5  1  0  0  0  0
 19 16  1  0  0  0  0
 20 17  1  0  0  0  0
 21 18  1  0  0  0  0
 22 20  1  0  0  0  0
 23 21  1  0  0  0  0
 23 22  1  0  0  0  0
M  END
> <CdId>
3318

> <Mol Weight>
309.3624

> <Formula>
C18H19N3O2

> <Click_ID>
CLK043F10 __ __ 

$$$$
