CLK047A04
 OpenBabel03181404502D

 15 16  0  0  0  0  0  0  0  0999 V2000
    0.0708    0.1917    0.0000 C   0  0  0  0  0  0  0  0  0  0  0  0
   -0.7125    0.4500    0.0000 C   0  0  0  0  0  0  0  0  0  0  0  0
    0.5583    0.8625    0.0000 C   0  0  0  0  0  0  0  0  0  0  0  0
    0.0708    1.5292    0.0000 S   0  0  0  0  0  0  0  0  0  0  0  0
    0.3292   -0.5917    0.0000 C   0  0  0  0  0  0  0  0  0  0  0  0
   -0.7125    1.2750    0.0000 C   0  0  0  0  0  0  0  0  0  0  0  0
    2.1958   -1.7208    0.0000 C   0  0  0  0  0  0  0  0  0  0  0  0
    3.0042   -1.8917    0.0000 C   0  0  0  0  0  0  0  0  0  0  0  0
   -0.2250   -1.2042    0.0000 O   0  0  0  0  0  0  0  0  0  0  0  0
    1.1333   -0.7625    0.0000 N   0  0  0  0  0  0  0  0  0  0  0  0
   -1.4250    0.0375    0.0000 C   0  0  0  0  0  0  0  0  0  0  0  0
    1.3875   -1.5458    0.0000 C   0  0  0  0  0  0  0  0  0  0  0  0
   -1.4250    1.6875    0.0000 C   0  0  0  0  0  0  0  0  0  0  0  0
   -2.1417    0.4500    0.0000 C   0  0  0  0  0  0  0  0  0  0  0  0
   -2.1417    1.2750    0.0000 C   0  0  0  0  0  0  0  0  0  0  0  0
  2  1  1  0  0  0  0
  3  1  2  0  0  0  0
  4  3  1  0  0  0  0
  5  1  1  0  0  0  0
  6  2  2  0  0  0  0
  6  4  1  0  0  0  0
  7 12  1  0  0  0  0
  8  7  3  0  0  0  0
  9  5  2  0  0  0  0
 10  5  1  0  0  0  0
 11  2  1  0  0  0  0
 12 10  1  0  0  0  0
 13  6  1  0  0  0  0
 14 11  1  0  0  0  0
 14 15  1  0  0  0  0
 15 13  1  0  0  0  0
M  END
> <CdId>
3585

> <Mol Weight>
219.303

> <Formula>
C12H13NOS

> <Click_ID>
CLK047A04 __ __ 

$$$$
