CLK034_C09
 OpenBabel03181404502D

 26 28  0  0  0  0  0  0  0  0999 V2000
   -4.5918    2.5561    0.0000 C   0  0  0  0  0  0  0  0  0  0  0  0
   -3.8592    2.9807    0.0000 N   0  0  0  0  0  0  0  0  0  0  0  0
   -4.6834    1.7318    0.0000 N   0  0  0  0  0  0  0  0  0  0  0  0
   -5.3162    2.8975    0.0000 S   0  0  0  0  0  0  0  0  0  0  0  0
   -5.4911    1.5819    0.0000 C   0  0  0  0  0  0  0  0  0  0  0  0
   -5.8907    2.3064    0.0000 C   0  0  0  0  0  0  0  0  0  0  0  0
   -3.8675    3.7968    0.0000 C   0  0  0  0  0  0  0  0  0  0  0  0
   -0.9867    5.4453    0.0000 C   0  0  0  0  0  0  0  0  0  0  0  0
   -4.2671    0.3580    0.0000 C   0  0  0  0  0  0  0  0  0  0  0  0
   -4.4544   -0.4538    0.0000 C   0  0  0  0  0  0  0  0  0  0  0  0
   -3.1556    4.2089    0.0000 C   0  0  0  0  0  0  0  0  0  0  0  0
   -1.7193    5.0373    0.0000 C   0  0  0  0  0  0  0  0  0  0  0  0
   -4.5793    4.2089    0.0000 O   0  0  0  0  0  0  0  0  0  0  0  0
   -5.9199    0.8826    0.0000 C   0  0  0  0  0  0  0  0  0  0  0  0
   -0.2830    5.0206    0.0000 O   0  0  0  0  0  0  0  0  0  0  0  0
   -4.0798    1.1615    0.0000 C   0  0  0  0  0  0  0  0  0  0  0  0
   -3.1556    5.0248    0.0000 C   0  0  0  0  0  0  0  0  0  0  0  0
   -2.4437    3.8051    0.0000 C   0  0  0  0  0  0  0  0  0  0  0  0
   -2.4312    5.4370    0.0000 C   0  0  0  0  0  0  0  0  0  0  0  0
   -1.7235    4.2006    0.0000 C   0  0  0  0  0  0  0  0  0  0  0  0
   -0.9950    6.2613    0.0000 O   0  0  0  0  0  0  0  0  0  0  0  0
   -6.7068    2.3313    0.0000 C   0  0  0  0  0  0  0  0  0  0  0  0
   -7.1356    1.6236    0.0000 C   0  0  0  0  0  0  0  0  0  0  0  0
   -6.7234    0.8951    0.0000 C   0  0  0  0  0  0  0  0  0  0  0  0
   -5.5285    0.1499    0.0000 C   0  0  0  0  0  0  0  0  0  0  0  0
   -1.7068    6.6943    0.0000 C   0  0  0  0  0  0  0  0  0  0  0  0
  2  1  2  0  0  0  0
  3  1  1  0  0  0  0
  4  1  1  0  0  0  0
  5  3  1  0  0  0  0
  6  4  1  0  0  0  0
  6  5  2  0  0  0  0
  7  2  1  0  0  0  0
  8 12  1  0  0  0  0
  9 16  1  0  0  0  0
 10  9  3  0  0  0  0
 11  7  1  0  0  0  0
 12 20  2  0  0  0  0
 12 19  1  0  0  0  0
 13  7  2  0  0  0  0
 14  5  1  0  0  0  0
 15  8  2  0  0  0  0
 16  3  1  0  0  0  0
 17 11  1  0  0  0  0
 18 11  2  0  0  0  0
 19 17  2  0  0  0  0
 20 18  1  0  0  0  0
 21  8  1  0  0  0  0
 22  6  1  0  0  0  0
 23 22  2  0  0  0  0
 24 14  2  0  0  0  0
 24 23  1  0  0  0  0
 25 14  1  0  0  0  0
 26 21  1  0  0  0  0
M  END
> <CdId>
2593

> <Mol Weight>
364.418

> <Formula>
C20H16N2O3S

> <Click_ID>
CLK034_C09 __ __ 

$$$$
