CLK041G10
 OpenBabel03181404502D

 32 34  0  0  0  0  0  0  0  0999 V2000
   -0.4251    4.0927    0.0000 S   0  0  0  0  0  0  0  0  0  0  0  0
    0.3001   -0.4376    0.0000 C   0  0  0  0  0  0  0  0  0  0  0  0
   -0.1708   -5.5264    0.0000 S   0  0  0  0  0  0  0  0  0  0  0  0
   -0.1875   -1.1045    0.0000 N   0  0  0  0  0  0  0  0  0  0  0  0
    0.0458    0.3459    0.0000 N   0  0  0  0  0  0  0  0  0  0  0  0
    0.3001   -1.7755    0.0000 C   0  0  0  0  0  0  0  0  0  0  0  0
    0.5960    0.9585    0.0000 C   0  0  0  0  0  0  0  0  0  0  0  0
    1.0836   -0.6919    0.0000 S   0  0  0  0  0  0  0  0  0  0  0  0
    1.0836   -1.5171    0.0000 C   0  0  0  0  0  0  0  0  0  0  0  0
   -0.1708    3.3133    0.0000 C   0  0  0  0  0  0  0  0  0  0  0  0
   -0.7210   -4.9138    0.0000 N   0  0  0  0  0  0  0  0  0  0  0  0
   -0.3834    6.2766    0.0000 C   0  0  0  0  0  0  0  0  0  0  0  0
   -0.6377    7.0643    0.0000 C   0  0  0  0  0  0  0  0  0  0  0  0
    0.3626    4.3511    0.0000 O   0  0  0  0  0  0  0  0  0  0  0  0
   -1.2086    3.8427    0.0000 O   0  0  0  0  0  0  0  0  0  0  0  0
    0.3418    1.7462    0.0000 C   0  0  0  0  0  0  0  0  0  0  0  0
    0.0458   -2.5590    0.0000 C   0  0  0  0  0  0  0  0  0  0  0  0
   -0.7835   -6.0808    0.0000 O   0  0  0  0  0  0  0  0  0  0  0  0
    0.3834   -6.1391    0.0000 O   0  0  0  0  0  0  0  0  0  0  0  0
   -0.6794    4.8804    0.0000 N   0  0  0  0  0  0  0  0  0  0  0  0
    1.4046    0.7877    0.0000 O   0  0  0  0  0  0  0  0  0  0  0  0
   -0.7210    2.7007    0.0000 C   0  0  0  0  0  0  0  0  0  0  0  0
    0.6377    3.1425    0.0000 C   0  0  0  0  0  0  0  0  0  0  0  0
   -0.4668    1.9172    0.0000 C   0  0  0  0  0  0  0  0  0  0  0  0
    0.8919    2.3589    0.0000 C   0  0  0  0  0  0  0  0  0  0  0  0
    0.5960   -3.1716    0.0000 C   0  0  0  0  0  0  0  0  0  0  0  0
   -0.7627   -2.7299    0.0000 C   0  0  0  0  0  0  0  0  0  0  0  0
   -0.4668   -4.1303    0.0000 C   0  0  0  0  0  0  0  0  0  0  0  0
    0.4459   -4.9763    0.0000 C   0  0  0  0  0  0  0  0  0  0  0  0
    0.3418   -3.9552    0.0000 C   0  0  0  0  0  0  0  0  0  0  0  0
   -1.0170   -3.5134    0.0000 C   0  0  0  0  0  0  0  0  0  0  0  0
   -0.1250    5.4931    0.0000 C   0  0  0  0  0  0  0  0  0  0  0  0
  2  5  1  0  0  0  0
  3 11  1  0  0  0  0
  4  2  2  0  0  0  0
  5  7  1  0  0  0  0
  6  4  1  0  0  0  0
  7 16  1  0  0  0  0
  8  2  1  0  0  0  0
  9  8  1  0  0  0  0
  9  6  2  0  0  0  0
 10  1  1  0  0  0  0
 11 28  1  0  0  0  0
 12 32  1  0  0  0  0
 13 12  3  0  0  0  0
 14  1  2  0  0  0  0
 15  1  2  0  0  0  0
 16 24  2  0  0  0  0
 17  6  1  0  0  0  0
 18  3  2  0  0  0  0
 19  3  2  0  0  0  0
 20  1  1  0  0  0  0
 21  7  2  0  0  0  0
 22 10  2  0  0  0  0
 23 10  1  0  0  0  0
 24 22  1  0  0  0  0
 25 23  2  0  0  0  0
 25 16  1  0  0  0  0
 26 17  1  0  0  0  0
 27 17  2  0  0  0  0
 28 31  2  0  0  0  0
 29  3  1  0  0  0  0
 30 26  2  0  0  0  0
 30 28  1  0  0  0  0
 31 27  1  0  0  0  0
 32 20  1  0  0  0  0
M  END
> <CdId>
3159

> <Mol Weight>
490.576

> <Formula>
C20H18N4O5S3

> <Click_ID>
CLK041G10 __ __ 

$$$$
