CLK033_D08
 OpenBabel03181404502D

 32 35  0  0  0  0  0  0  0  0999 V2000
   -4.5932    2.5568    0.0000 C   0  0  0  0  0  0  0  0  0  0  0  0
   -0.9994    5.4469    0.0000 S   0  0  0  0  0  0  0  0  0  0  0  0
   -3.8603    2.9816    0.0000 N   0  0  0  0  0  0  0  0  0  0  0  0
   -4.6806    1.7323    0.0000 N   0  0  0  0  0  0  0  0  0  0  0  0
   -5.3177    2.8941    0.0000 S   0  0  0  0  0  0  0  0  0  0  0  0
   -5.4844    1.5824    0.0000 C   0  0  0  0  0  0  0  0  0  0  0  0
   -5.8924    2.2987    0.0000 C   0  0  0  0  0  0  0  0  0  0  0  0
   -0.2831    5.8508    0.0000 N   0  0  0  0  0  0  0  0  0  0  0  0
   -3.8686    3.7978    0.0000 C   0  0  0  0  0  0  0  0  0  0  0  0
   -1.7198    5.0263    0.0000 C   0  0  0  0  0  0  0  0  0  0  0  0
   -4.2559    0.3581    0.0000 C   0  0  0  0  0  0  0  0  0  0  0  0
   -0.5872    4.7265    0.0000 O   0  0  0  0  0  0  0  0  0  0  0  0
   -1.4117    6.1632    0.0000 O   0  0  0  0  0  0  0  0  0  0  0  0
   -4.4433   -0.4539    0.0000 C   0  0  0  0  0  0  0  0  0  0  0  0
   -3.1565    4.2101    0.0000 C   0  0  0  0  0  0  0  0  0  0  0  0
   -5.9174    0.8828    0.0000 C   0  0  0  0  0  0  0  0  0  0  0  0
   -4.5807    4.2143    0.0000 O   0  0  0  0  0  0  0  0  0  0  0  0
   -4.0685    1.1618    0.0000 C   0  0  0  0  0  0  0  0  0  0  0  0
   -1.7240    4.2018    0.0000 C   0  0  0  0  0  0  0  0  0  0  0  0
   -2.4361    5.4469    0.0000 C   0  0  0  0  0  0  0  0  0  0  0  0
   -2.4361    3.8061    0.0000 C   0  0  0  0  0  0  0  0  0  0  0  0
   -3.1565    5.0263    0.0000 C   0  0  0  0  0  0  0  0  0  0  0  0
    1.1535    6.6879    0.0000 O   0  0  0  0  0  0  0  0  0  0  0  0
   -0.2831    6.6879    0.0000 C   0  0  0  0  0  0  0  0  0  0  0  0
    0.4290    5.4511    0.0000 C   0  0  0  0  0  0  0  0  0  0  0  0
   -6.7004    2.3195    0.0000 C   0  0  0  0  0  0  0  0  0  0  0  0
   -5.5176    0.1457    0.0000 O   0  0  0  0  0  0  0  0  0  0  0  0
    1.1493    5.8633    0.0000 C   0  0  0  0  0  0  0  0  0  0  0  0
    0.4372    7.1001    0.0000 C   0  0  0  0  0  0  0  0  0  0  0  0
   -7.1376    1.6199    0.0000 C   0  0  0  0  0  0  0  0  0  0  0  0
   -6.7253    0.8870    0.0000 C   0  0  0  0  0  0  0  0  0  0  0  0
   -5.9549   -0.5539    0.0000 C   0  0  0  0  0  0  0  0  0  0  0  0
  2 10  1  0  0  0  0
  3  1  2  0  0  0  0
  4  1  1  0  0  0  0
  5  1  1  0  0  0  0
  6  4  1  0  0  0  0
  7  5  1  0  0  0  0
  7  6  2  0  0  0  0
  8  2  1  0  0  0  0
  9  3  1  0  0  0  0
 10 20  1  0  0  0  0
 10 19  2  0  0  0  0
 11 18  1  0  0  0  0
 12  2  2  0  0  0  0
 13  2  2  0  0  0  0
 14 11  3  0  0  0  0
 15  9  1  0  0  0  0
 16  6  1  0  0  0  0
 17  9  2  0  0  0  0
 18  4  1  0  0  0  0
 19 21  1  0  0  0  0
 20 22  2  0  0  0  0
 21 15  2  0  0  0  0
 22 15  1  0  0  0  0
 23 28  1  0  0  0  0
 23 29  1  0  0  0  0
 24  8  1  0  0  0  0
 25  8  1  0  0  0  0
 26  7  1  0  0  0  0
 27 16  1  0  0  0  0
 28 25  1  0  0  0  0
 29 24  1  0  0  0  0
 30 26  2  0  0  0  0
 31 16  2  0  0  0  0
 31 30  1  0  0  0  0
 32 27  1  0  0  0  0
M  END
> <CdId>
2522

> <Mol Weight>
471.549

> <Formula>
C22H21N3O5S2

> <Click_ID>
CLK033_D08 __ __ 

$$$$
