CLK007_D10
 OpenBabel03181404502D

 27 29  0  0  0  0  0  0  0  0999 V2000
    0.7940   -0.3659    0.0000 C   0  0  3  0  0  0  0  0  0  0  0  0
    0.0794   -0.7802    0.0000 C   0  0  0  0  0  0  0  0  0  0  0  0
    0.7940    0.4591    0.0000 C   0  0  0  0  0  0  0  0  0  0  0  0
    1.5085   -0.7732    0.0000 C   0  0  0  0  0  0  0  0  0  0  0  0
    0.0794   -1.5983    0.0000 C   0  0  0  0  0  0  0  0  0  0  0  0
   -0.6317   -0.3590    0.0000 C   0  0  0  0  0  0  0  0  0  0  0  0
    1.5085    0.8699    0.0000 C   0  0  0  0  0  0  0  0  0  0  0  0
    0.0794    0.8664    0.0000 C   0  0  0  0  0  0  0  0  0  0  0  0
    1.5085   -1.5983    0.0000 C   0  0  0  0  0  0  0  0  0  0  0  0
   -0.6317   -2.0125    0.0000 N   0  0  0  0  0  0  0  0  0  0  0  0
    0.7940   -2.0125    0.0000 N   0  0  0  0  0  0  0  0  0  0  0  0
   -1.3394   -0.7802    0.0000 N   0  0  0  0  0  0  0  0  0  0  0  0
   -0.6317    0.4660    0.0000 O   0  0  0  0  0  0  0  0  0  0  0  0
    1.5016    1.6985    0.0000 C   0  0  0  0  0  0  0  0  0  0  0  0
    0.0691    1.6846    0.0000 C   0  0  0  0  0  0  0  0  0  0  0  0
    2.2196   -2.0125    0.0000 O   0  0  0  0  0  0  0  0  0  0  0  0
   -1.3394   -1.6052    0.0000 C   0  0  0  0  0  0  0  0  0  0  0  0
    0.7906    2.1057    0.0000 C   0  0  0  0  0  0  0  0  0  0  0  0
    2.2196    2.1092    0.0000 O   0  0  0  0  0  0  0  0  0  0  0  0
   -0.6386    2.0920    0.0000 O   0  0  0  0  0  0  0  0  0  0  0  0
   -2.0608   -2.0194    0.0000 S   0  0  0  0  0  0  0  0  0  0  0  0
    0.7802    2.9308    0.0000 O   0  0  0  0  0  0  0  0  0  0  0  0
    2.9342    1.6985    0.0000 C   0  0  0  0  0  0  0  0  0  0  0  0
   -1.3601    1.6811    0.0000 C   0  0  0  0  0  0  0  0  0  0  0  0
   -2.7720   -1.6052    0.0000 C   0  0  0  0  0  0  0  0  0  0  0  0
   -2.7720   -0.7802    0.0000 C   0  0  0  0  0  0  0  0  0  0  0  0
   -3.4866   -0.3659    0.0000 C   0  0  0  0  0  0  0  0  0  0  0  0
  1  2  1  0  0  0  0
  1  3  1  0  0  0  0
  1  4  1  0  0  0  0
  2  5  2  0  0  0  0
  2  6  1  0  0  0  0
  3  7  2  0  0  0  0
  3  8  1  0  0  0  0
  4  9  1  0  0  0  0
  5 10  1  0  0  0  0
  5 11  1  0  0  0  0
  6 12  1  0  0  0  0
  6 13  2  0  0  0  0
  7 14  1  0  0  0  0
  8 15  2  0  0  0  0
  9 16  2  0  0  0  0
  9 11  1  0  0  0  0
 10 17  2  0  0  0  0
 12 17  1  0  0  0  0
 14 18  2  0  0  0  0
 14 19  1  0  0  0  0
 15 20  1  0  0  0  0
 15 18  1  0  0  0  0
 17 21  1  0  0  0  0
 18 22  1  0  0  0  0
 19 23  1  0  0  0  0
 20 24  1  0  0  0  0
 21 25  1  0  0  0  0
 25 26  1  0  0  0  0
 26 27  3  0  0  0  0
M  END
> <CdId>
519

> <Mol Weight>
387.41

> <Formula>
C18H17N3O5S

> <Click_ID>
CLK007_D10 __ __ 

$$$$
