CLK014_B04
 OpenBabel03181404502D

 25 27  0  0  0  0  0  0  0  0999 V2000
    6.5716   -6.9844    0.0000 C   0  0  0  0  0  0  0  0  0  0  0  0
    7.4598   -5.9962    0.0000 N   0  0  0  0  0  0  0  0  0  0  0  0
    6.6550   -6.1588    0.0000 C   0  0  0  0  0  0  0  0  0  0  0  0
    7.8726   -6.7092    0.0000 N   0  0  0  0  0  0  0  0  0  0  0  0
    7.3222   -7.3180    0.0000 C   0  0  0  0  0  0  0  0  0  0  0  0
    5.8544   -7.3972    0.0000 C   0  0  0  0  0  0  0  0  0  0  0  0
    7.8058   -5.2414    0.0000 C   0  0  0  0  0  0  0  0  0  0  0  0
    2.9939   -9.8741    0.0000 C   0  0  0  0  0  0  0  0  0  0  0  0
    2.2809  -10.2827    0.0000 C   0  0  0  0  0  0  0  0  0  0  0  0
    6.0462   -5.6084    0.0000 O   0  0  0  0  0  0  0  0  0  0  0  0
    5.8586   -8.2229    0.0000 C   0  0  0  0  0  0  0  0  0  0  0  0
    7.3222   -4.5659    0.0000 C   0  0  0  0  0  0  0  0  0  0  0  0
    8.6232   -5.1456    0.0000 C   0  0  0  0  0  0  0  0  0  0  0  0
    5.1456   -8.6440    0.0000 C   0  0  0  0  0  0  0  0  0  0  0  0
    8.4814   -3.7320    0.0000 C   0  0  0  0  0  0  0  0  0  0  0  0
    7.6599   -3.8071    0.0000 C   0  0  0  0  0  0  0  0  0  0  0  0
    8.9609   -4.4033    0.0000 C   0  0  0  0  0  0  0  0  0  0  0  0
    5.1456   -9.4696    0.0000 C   0  0  0  0  0  0  0  0  0  0  0  0
    8.8191   -2.9772    0.0000 I   0  0  0  0  0  0  0  0  0  0  0  0
    7.4973   -8.1228    0.0000 C   0  0  0  0  0  0  0  0  0  0  0  0
    3.7153   -9.4613    0.0000 C   0  0  0  0  0  0  0  0  0  0  0  0
    4.4283   -9.8824    0.0000 O   0  0  0  0  0  0  0  0  0  0  0  0
    6.5716   -9.4696    0.0000 C   0  0  0  0  0  0  0  0  0  0  0  0
    6.5716   -8.6357    0.0000 C   0  0  0  0  0  0  0  0  0  0  0  0
    5.8586   -9.8824    0.0000 C   0  0  0  0  0  0  0  0  0  0  0  0
  2  3  1  0  0  0  0
  3  1  1  0  0  0  0
  4  5  2  0  0  0  0
  4  2  1  0  0  0  0
  5  1  1  0  0  0  0
  6  1  2  0  0  0  0
  7  2  1  0  0  0  0
  8 21  1  0  0  0  0
  9  8  3  0  0  0  0
 10  3  2  0  0  0  0
 11  6  1  0  0  0  0
 12  7  1  0  0  0  0
 13  7  2  0  0  0  0
 14 11  1  0  0  0  0
 15 17  2  0  0  0  0
 16 12  2  0  0  0  0
 16 15  1  0  0  0  0
 17 13  1  0  0  0  0
 18 14  2  0  0  0  0
 18 25  1  0  0  0  0
 19 15  1  0  0  0  0
 20  5  1  0  0  0  0
 21 22  1  0  0  0  0
 22 18  1  0  0  0  0
 23 24  1  0  0  0  0
 24 11  2  0  0  0  0
 25 23  2  0  0  0  0
M  END
> <CdId>
1009

> <Mol Weight>
442.2498

> <Formula>
C20H15IN2O2

> <Click_ID>
CLK014_B04 __ __ 

$$$$
