CLK021_G04
 OpenBabel03181404502D

 23 24  0  0  0  0  0  0  0  0999 V2000
    3.2569    1.6857    0.0000 C    0  0  0  0  0  0  0  0  0  0  0  0
    2.5423    1.2734    0.0000 C    0  0  0  0  0  0  0  0  0  0  0  0
    3.2569    2.5102    0.0000 C    0  0  0  0  0  0  0  0  0  0  0  0
    2.5423    0.4489    0.0000 C    0  0  0  0  0  0  0  0  0  0  0  0
    2.5423   -0.3757    0.0000 N    0  0  0  0  0  0  0  0  0  0  0  0
   -1.0307    3.3348    0.0000 N    0  0  0  0  0  0  0  0  0  0  0  0
    6.1062    2.5102    0.0000 C    0  0  0  0  0  0  0  0  0  0  0  0
    6.8208    2.0980    0.0000 C    0  0  0  0  0  0  0  0  0  0  0  0
   -0.3161    2.9225    0.0000 C    0  0  0  0  0  0  0  0  0  0  0  0
    1.8277    1.6857    0.0000 C    0  0  0  0  0  0  0  0  0  0  0  0
    3.9715    2.9225    0.0000 C    0  0  0  0  0  0  0  0  0  0  0  0
    2.5423    2.9225    0.0000 C    0  0  0  0  0  0  0  0  0  0  0  0
    1.8277    2.5102    0.0000 C    0  0  0  0  0  0  0  0  0  0  0  0
    1.1131    1.2734    0.0000 C    0  0  0  0  0  0  0  0  0  0  0  0
    3.9715    3.7470    0.0000 C    0  0  0  0  0  0  0  0  0  0  0  0
    0.3985    2.5102    0.0000 C    0  0  0  0  0  0  0  0  0  0  0  0
    2.5423    3.7470    0.0000 C    0  0  0  0  0  0  0  0  0  0  0  0
    1.1131    2.9225    0.0000 C    0  0  0  0  0  0  0  0  0  0  0  0
    0.3985    1.6857    0.0000 C    0  0  0  0  0  0  0  0  0  0  0  0
    3.2569    4.1593    0.0000 C    0  0  0  0  0  0  0  0  0  0  0  0
    1.8277    4.1593    0.0000 Br   0  0  0  0  0  0  0  0  0  0  0  0
    4.6770    2.5102    0.0000 O    0  0  0  0  0  0  0  0  0  0  0  0
    5.3916    2.9225    0.0000 C    0  0  0  0  0  0  0  0  0  0  0  0
  2  1  2  0  0  0  0
  3  1  1  0  0  0  0
  4  2  1  0  0  0  0
  5  4  3  0  0  0  0
  6  9  3  0  0  0  0
  7 23  1  0  0  0  0
  8  7  3  0  0  0  0
  9 16  1  0  0  0  0
 10  2  1  0  0  0  0
 11  3  2  0  0  0  0
 12  3  1  0  0  0  0
 13 10  2  0  0  0  0
 14 10  1  0  0  0  0
 15 11  1  0  0  0  0
 15 20  2  0  0  0  0
 16 19  1  0  0  0  0
 16 18  2  0  0  0  0
 17 12  2  0  0  0  0
 18 13  1  0  0  0  0
 19 14  2  0  0  0  0
 20 17  1  0  0  0  0
 21 17  1  0  0  0  0
 22 11  1  0  0  0  0
 23 22  1  0  0  0  0
M  END
> <CdId>
1619

> <Mol Weight>
363.207

> <Formula>
C19H11BrN2O

> <Click_ID>
CLK021_G04 __ __ 

$$$$
