CLK019_B09
 OpenBabel03181404502D

 20 20  0  0  0  0  0  0  0  0999 V2000
   -0.4891   -0.3827    0.0000 C   0  0  0  0  0  0  0  0  0  0  0  0
   -2.1616    1.0728    0.0000 C   0  0  0  0  0  0  0  0  0  0  0  0
   -1.3090   -0.3827    0.0000 N   0  0  0  0  0  0  0  0  0  0  0  0
   -0.0779   -1.0779    0.0000 N   0  0  0  0  0  0  0  0  0  0  0  0
   -2.5912    1.7872    0.0000 C   0  0  0  0  0  0  0  0  0  0  0  0
    1.9782   -0.3526    0.0000 C   0  0  0  0  0  0  0  0  0  0  0  0
   -1.7311    0.3409    0.0000 C   0  0  0  0  0  0  0  0  0  0  0  0
    2.3944    0.3559    0.0000 C   0  0  0  0  0  0  0  0  0  0  0  0
   -0.0829    0.3308    0.0000 O   0  0  0  0  0  0  0  0  0  0  0  0
    1.1432   -0.3677    0.0000 C   0  0  0  0  0  0  0  0  0  0  0  0
    0.7420   -1.0779    0.0000 C   0  0  0  0  0  0  0  0  0  0  0  0
    3.2160    0.3559    0.0000 O   0  0  0  0  0  0  0  0  0  0  0  0
    2.3894   -1.0678    0.0000 C   0  0  0  0  0  0  0  0  0  0  0  0
    1.9849   -1.7772    0.0000 C   0  0  0  0  0  0  0  0  0  0  0  0
    1.1683   -1.7872    0.0000 C   0  0  0  0  0  0  0  0  0  0  0  0
    1.9782    1.0737    0.0000 C   0  0  0  0  0  0  0  0  0  0  0  0
   -2.4731   -0.0988    0.0000 C   0  0  0  0  0  0  0  0  0  0  0  0
   -1.1449    0.7161    0.0000 C   0  0  0  0  0  0  0  0  0  0  0  0
   -3.2160    0.3032    0.0000 C   0  0  0  0  0  0  0  0  0  0  0  0
   -1.1449    1.5209    0.0000 C   0  0  0  0  0  0  0  0  0  0  0  0
  2  7  1  0  0  0  0
  3  1  1  0  0  0  0
  4  1  1  0  0  0  0
  5  2  3  0  0  0  0
  6 10  1  0  0  0  0
  6 13  2  0  0  0  0
  7  3  1  0  0  0  0
  8  6  1  0  0  0  0
  9  1  2  0  0  0  0
 10 11  2  0  0  0  0
 11  4  1  0  0  0  0
 12  8  2  0  0  0  0
 13 14  1  0  0  0  0
 14 15  2  0  0  0  0
 15 11  1  0  0  0  0
 16  8  1  0  0  0  0
 17  7  1  0  0  0  0
 18  7  1  0  0  0  0
 19 17  1  0  0  0  0
 20 18  1  0  0  0  0
M  END
> <CdId>
1414

> <Mol Weight>
272.3422

> <Formula>
C16H20N2O2

> <Click_ID>
CLK019_B09 __ __ 

$$$$
