CLK042F10
 OpenBabel03181404502D

 30 32  0  0  0  0  0  0  0  0999 V2000
    1.4250    0.6083    0.0000 C   0  0  0  0  0  0  0  0  0  0  0  0
   -2.8583   -1.0417    0.0000 C   0  0  0  0  0  0  0  0  0  0  0  0
   -3.5750   -0.6292    0.0000 N   0  0  0  0  0  0  0  0  0  0  0  0
    2.1417    0.1958    0.0000 N   0  0  0  0  0  0  0  0  0  0  0  0
    0.7125    0.1958    0.0000 C   0  0  0  0  0  0  0  0  0  0  0  0
    3.5708    2.6708    0.0000 C   0  0  0  0  0  0  0  0  0  0  0  0
    3.5708    3.4958    0.0000 C   0  0  0  0  0  0  0  0  0  0  0  0
    0.7125   -0.6292    0.0000 C   0  0  0  0  0  0  0  0  0  0  0  0
    0.0000   -1.0417    0.0000 C   0  0  0  0  0  0  0  0  0  0  0  0
   -0.7167   -0.6292    0.0000 C   0  0  0  0  0  0  0  0  0  0  0  0
   -1.4292   -1.0417    0.0000 O   0  0  0  0  0  0  0  0  0  0  0  0
   -2.1458   -0.6292    0.0000 C   0  0  0  0  0  0  0  0  0  0  0  0
    1.4250    1.4333    0.0000 O   0  0  0  0  0  0  0  0  0  0  0  0
    2.8542    0.6083    0.0000 C   0  0  0  0  0  0  0  0  0  0  0  0
   -2.8583   -1.8667    0.0000 O   0  0  0  0  0  0  0  0  0  0  0  0
    0.0000    0.6083    0.0000 C   0  0  0  0  0  0  0  0  0  0  0  0
   -0.7167    0.1958    0.0000 C   0  0  0  0  0  0  0  0  0  0  0  0
   -5.0042    0.1958    0.0000 O   0  0  0  0  0  0  0  0  0  0  0  0
    3.5708    1.8458    0.0000 C   0  0  0  0  0  0  0  0  0  0  0  0
    2.8542    1.4333    0.0000 C   0  0  0  0  0  0  0  0  0  0  0  0
    0.0000   -1.8667    0.0000 O   0  0  0  0  0  0  0  0  0  0  0  0
   -3.5750    0.1958    0.0000 C   0  0  0  0  0  0  0  0  0  0  0  0
   -4.2875   -1.0417    0.0000 C   0  0  0  0  0  0  0  0  0  0  0  0
    4.2833    0.6083    0.0000 C   0  0  0  0  0  0  0  0  0  0  0  0
    3.5708    0.1958    0.0000 C   0  0  0  0  0  0  0  0  0  0  0  0
   -5.0042   -0.6292    0.0000 C   0  0  0  0  0  0  0  0  0  0  0  0
   -4.2875    0.6083    0.0000 C   0  0  0  0  0  0  0  0  0  0  0  0
    4.2833    1.4333    0.0000 C   0  0  0  0  0  0  0  0  0  0  0  0
    0.7125   -2.2792    0.0000 C   0  0  0  0  0  0  0  0  0  0  0  0
    0.7125   -3.1042    0.0000 C   0  0  0  0  0  0  0  0  0  0  0  0
  2 12  1  0  0  0  0
  3  2  1  0  0  0  0
  4  1  1  0  0  0  0
  5  1  1  0  0  0  0
  6 19  1  0  0  0  0
  7  6  3  0  0  0  0
  8  5  2  0  0  0  0
  9  8  1  0  0  0  0
 10 17  1  0  0  0  0
 10  9  2  0  0  0  0
 11 10  1  0  0  0  0
 12 11  1  0  0  0  0
 13  1  2  0  0  0  0
 14  4  1  0  0  0  0
 15  2  2  0  0  0  0
 16  5  1  0  0  0  0
 17 16  2  0  0  0  0
 18 26  1  0  0  0  0
 18 27  1  0  0  0  0
 19 20  1  0  0  0  0
 20 14  2  0  0  0  0
 21  9  1  0  0  0  0
 22  3  1  0  0  0  0
 23  3  1  0  0  0  0
 24 25  2  0  0  0  0
 25 14  1  0  0  0  0
 26 23  1  0  0  0  0
 27 22  1  0  0  0  0
 28 19  2  0  0  0  0
 28 24  1  0  0  0  0
 29 21  1  0  0  0  0
 30 29  1  0  0  0  0
M  END
> <CdId>
3238

> <Mol Weight>
408.4471

> <Formula>
C23H24N2O5

> <Click_ID>
CLK042F10 __ __ 

$$$$
