CLK024_C03
 OpenBabel03181404502D

 25 26  0  0  0  0  0  0  0  0999 V2000
   -2.0219   -1.2529    0.0000 N    0  0  0  0  0  0  0  0  0  0  0  0
   -2.0356   -2.0837    0.0000 C    0  0  0  0  0  0  0  0  0  0  0  0
   -1.2393   -0.9921    0.0000 C    0  0  0  0  0  0  0  0  0  0  0  0
   -0.7552   -1.6649    0.0000 C    0  0  0  0  0  0  0  0  0  0  0  0
   -1.2426   -2.3342    0.0000 S    0  0  0  0  0  0  0  0  0  0  0  0
    1.3113    0.4531    0.0000 C    0  0  0  0  0  0  0  0  0  0  0  0
    0.0789   -1.6752    0.0000 C    0  0  0  0  0  0  0  0  0  0  0  0
    1.7198   -0.2472    0.0000 C    0  0  0  0  0  0  0  0  0  0  0  0
    0.4909    0.4531    0.0000 C    0  0  0  0  0  0  0  0  0  0  0  0
    0.4840   -0.9680    0.0000 C    0  0  0  0  0  0  0  0  0  0  0  0
    1.7198    1.1602    0.0000 O    0  0  0  0  0  0  0  0  0  0  0  0
   -3.4499   -1.1019    0.0000 C    0  0  0  0  0  0  0  0  0  0  0  0
   -4.1982   -1.4658    0.0000 C    0  0  0  0  0  0  0  0  0  0  0  0
   -2.6981   -2.5574    0.0000 O    0  0  0  0  0  0  0  0  0  0  0  0
    0.0652   -0.2472    0.0000 C    0  0  0  0  0  0  0  0  0  0  0  0
    1.2976   -0.9680    0.0000 C    0  0  0  0  0  0  0  0  0  0  0  0
   -0.9783   -0.2094    0.0000 O    0  0  0  0  0  0  0  0  0  0  0  0
    2.9624    1.8468    0.0000 C    0  0  0  0  0  0  0  0  0  0  0  0
   -2.6913   -0.7655    0.0000 C    0  0  0  0  0  0  0  0  0  0  0  0
    2.5643    2.5608    0.0000 O    0  0  0  0  0  0  0  0  0  0  0  0
    2.5471    1.1466    0.0000 C    0  0  0  0  0  0  0  0  0  0  0  0
    2.5402   -0.2472    0.0000 Br   0  0  0  0  0  0  0  0  0  0  0  0
    0.0858    1.1740    0.0000 Cl   0  0  0  0  0  0  0  0  0  0  0  0
    3.7829    1.8399    0.0000 O    0  0  0  0  0  0  0  0  0  0  0  0
    4.1949    2.5505    0.0000 C    0  0  0  0  0  0  0  0  0  0  0  0
  2  1  1  0  0  0  0
  3  1  1  0  0  0  0
  4  3  1  0  0  0  0
  5  2  1  0  0  0  0
  5  4  1  0  0  0  0
  6  8  1  0  0  0  0
  7  4  2  0  0  0  0
  8 16  2  0  0  0  0
  9 15  1  0  0  0  0
  9  6  2  0  0  0  0
 10  7  1  0  0  0  0
 11  6  1  0  0  0  0
 12 19  1  0  0  0  0
 13 12  3  0  0  0  0
 14  2  2  0  0  0  0
 15 10  2  0  0  0  0
 16 10  1  0  0  0  0
 17  3  2  0  0  0  0
 18 21  1  0  0  0  0
 19  1  1  0  0  0  0
 20 18  2  0  0  0  0
 21 11  1  0  0  0  0
 22  8  1  0  0  0  0
 23  9  1  0  0  0  0
 24 18  1  0  0  0  0
 25 24  1  0  0  0  0
M  END
> <CdId>
1798

> <Mol Weight>
444.684

> <Formula>
C16H11BrClNO5S

> <Click_ID>
CLK024_C03 __ __ 

$$$$
