CLK007_C02
 OpenBabel03181404502D

 33 37  0  0  0  0  0  0  0  0999 V2000
   -0.1623    0.5591    0.0000 C   0  0  3  0  0  0  0  0  0  0  0  0
   -0.8732    0.1449    0.0000 C   0  0  0  0  0  0  0  0  0  0  0  0
    0.6316    0.7697    0.0000 C   0  0  0  0  0  0  0  0  0  0  0  0
    0.5522    0.1449    0.0000 C   0  0  0  0  0  0  0  0  0  0  0  0
   -0.6109    1.2460    0.0000 C   0  0  0  0  0  0  0  0  0  0  0  0
   -0.8836   -0.6799    0.0000 C   0  0  0  0  0  0  0  0  0  0  0  0
   -1.5877    0.5591    0.0000 C   0  0  0  0  0  0  0  0  0  0  0  0
    0.6765    1.5981    0.0000 C   0  0  0  0  0  0  0  0  0  0  0  0
    1.3288    0.3313    0.0000 C   0  0  0  0  0  0  0  0  0  0  0  0
    0.5522   -0.6799    0.0000 C   0  0  0  0  0  0  0  0  0  0  0  0
    1.2633   -0.2693    0.0000 C   0  0  0  0  0  0  0  0  0  0  0  0
   -0.1001    1.8984    0.0000 N   0  0  0  0  0  0  0  0  0  0  0  0
   -1.2011    1.8327    0.0000 O   0  0  0  0  0  0  0  0  0  0  0  0
   -0.1692   -1.0941    0.0000 N   0  0  0  0  0  0  0  0  0  0  0  0
   -1.5877   -1.0941    0.0000 C   0  0  0  0  0  0  0  0  0  0  0  0
   -2.3022    0.1449    0.0000 C   0  0  0  0  0  0  0  0  0  0  0  0
   -2.1744    1.1459    0.0000 O   0  0  0  0  0  0  0  0  0  0  0  0
    1.4047    1.9847    0.0000 C   0  0  0  0  0  0  0  0  0  0  0  0
    2.0640    0.7076    0.0000 C   0  0  0  0  0  0  0  0  0  0  0  0
    1.2564   -1.1044    0.0000 N   0  0  0  0  0  0  0  0  0  0  0  0
    1.9777   -0.6799    0.0000 N   0  0  0  0  0  0  0  0  0  0  0  0
   -0.3210    2.6887    0.0000 C   0  0  0  0  0  0  0  0  0  0  0  0
   -0.1726   -1.9190    0.0000 C   0  0  0  0  0  0  0  0  0  0  0  0
   -2.3022   -0.6799    0.0000 C   0  0  0  0  0  0  0  0  0  0  0  0
    2.1020    1.5324    0.0000 C   0  0  0  0  0  0  0  0  0  0  0  0
    0.2554    3.2790    0.0000 C   0  0  0  0  0  0  0  0  0  0  0  0
    0.5384   -2.3332    0.0000 C   0  0  0  0  0  0  0  0  0  0  0  0
   -0.8974   -2.3194    0.0000 C   0  0  0  0  0  0  0  0  0  0  0  0
    0.0414    4.0728    0.0000 C   0  0  0  0  0  0  0  0  0  0  0  0
    0.5315   -3.1582    0.0000 C   0  0  0  0  0  0  0  0  0  0  0  0
    1.2564   -1.9190    0.0000 C   0  0  0  0  0  0  0  0  0  0  0  0
   -0.9008   -3.1443    0.0000 C   0  0  0  0  0  0  0  0  0  0  0  0
   -0.1864   -3.5723    0.0000 C   0  0  0  0  0  0  0  0  0  0  0  0
  1  2  1  0  0  0  0
  1  3  1  0  0  0  0
  1  4  1  0  0  0  0
  1  5  1  0  0  0  0
  2  6  2  0  0  0  0
  2  7  1  0  0  0  0
  3  8  2  0  0  0  0
  3  9  1  0  0  0  0
  4 10  2  0  0  0  0
  4 11  1  0  0  0  0
  5 12  1  0  0  0  0
  5 13  2  0  0  0  0
  6 14  1  0  0  0  0
  6 15  1  0  0  0  0
  7 16  1  0  0  0  0
  7 17  2  0  0  0  0
  8 18  1  0  0  0  0
  8 12  1  0  0  0  0
  9 19  2  0  0  0  0
 10 20  1  0  0  0  0
 10 14  1  0  0  0  0
 11 21  3  0  0  0  0
 12 22  1  0  0  0  0
 14 23  1  0  0  0  0
 15 24  1  0  0  0  0
 16 24  1  0  0  0  0
 18 25  2  0  0  0  0
 19 25  1  0  0  0  0
 22 26  1  0  0  0  0
 23 27  1  0  0  0  0
 23 28  2  0  0  0  0
 26 29  3  0  0  0  0
 27 30  2  0  0  0  0
 27 31  1  0  0  0  0
 28 32  1  0  0  0  0
 30 33  1  0  0  0  0
 32 33  2  0  0  0  0
M  END
> <CdId>
501

> <Mol Weight>
434.4892

> <Formula>
C27H22N4O2

> <Click_ID>
CLK007_C02 __ __ 

$$$$
