CLK009_A04
 OpenBabel03181404502D

 23 24  0  0  0  0  0  0  0  0999 V2000
   -1.5839   -0.2424    0.0000 C    0  0  0  0  0  0  0  0  0  0  0  0
   -0.8687   -0.6465    0.0000 N    0  0  0  0  0  0  0  0  0  0  0  0
   -2.2991   -0.6667    0.0000 C    0  0  0  0  0  0  0  0  0  0  0  0
   -3.0021   -0.2586    0.0000 C    0  0  0  0  0  0  0  0  0  0  0  0
   -3.0021    0.5778    0.0000 C    0  0  0  0  0  0  0  0  0  0  0  0
   -0.1455   -0.2424    0.0000 C    0  0  0  0  0  0  0  0  0  0  0  0
    0.5697   -0.6465    0.0000 C    0  0  0  0  0  0  0  0  0  0  0  0
   -4.4123    2.2263    0.0000 C    0  0  0  0  0  0  0  0  0  0  0  0
   -5.1356    2.6304    0.0000 C    0  0  0  0  0  0  0  0  0  0  0  0
    1.2890   -0.2424    0.0000 C    0  0  0  0  0  0  0  0  0  0  0  0
   -1.5839    0.5940    0.0000 O    0  0  0  0  0  0  0  0  0  0  0  0
   -2.2789    1.0020    0.0000 O    0  0  0  0  0  0  0  0  0  0  0  0
   -0.1455    0.5940    0.0000 C    0  0  0  0  0  0  0  0  0  0  0  0
    1.2890    0.5940    0.0000 C    0  0  0  0  0  0  0  0  0  0  0  0
    0.5697   -1.4829    0.0000 Cl   0  0  0  0  0  0  0  0  0  0  0  0
   -3.7173    0.9819    0.0000 O    0  0  0  0  0  0  0  0  0  0  0  0
    0.5697    1.0020    0.0000 C    0  0  0  0  0  0  0  0  0  0  0  0
    2.0243    1.0182    0.0000 Cl   0  0  0  0  0  0  0  0  0  0  0  0
   -3.7173    1.8142    0.0000 C    0  0  0  0  0  0  0  0  0  0  0  0
   -2.2991   -1.4829    0.0000 C    0  0  0  0  0  0  0  0  0  0  0  0
   -3.7173   -0.6667    0.0000 C    0  0  0  0  0  0  0  0  0  0  0  0
   -3.7173   -1.5031    0.0000 C    0  0  0  0  0  0  0  0  0  0  0  0
   -3.0021   -1.8910    0.0000 C    0  0  0  0  0  0  0  0  0  0  0  0
  2  1  1  0  0  0  0
  3  1  1  0  0  0  0
  4  3  2  0  0  0  0
  5  4  1  0  0  0  0
  6  2  1  0  0  0  0
  7  6  2  0  0  0  0
  8 19  1  0  0  0  0
  9  8  3  0  0  0  0
 10  7  1  0  0  0  0
 11  1  2  0  0  0  0
 12  5  2  0  0  0  0
 13  6  1  0  0  0  0
 14 17  1  0  0  0  0
 14 10  2  0  0  0  0
 15  7  1  0  0  0  0
 16  5  1  0  0  0  0
 17 13  2  0  0  0  0
 18 14  1  0  0  0  0
 19 16  1  0  0  0  0
 20  3  1  0  0  0  0
 21  4  1  0  0  0  0
 22 23  1  0  0  0  0
 22 21  2  0  0  0  0
 23 20  2  0  0  0  0
M  END
> <CdId>
599

> <Mol Weight>
348.18

> <Formula>
C17H11Cl2NO3

> <Click_ID>
CLK009_A04 __ __ 

$$$$
