CLK033_F07
 OpenBabel03181404502D

 28 30  0  0  0  0  0  0  0  0999 V2000
   -4.6184    2.5709    0.0000 C   0  0  0  0  0  0  0  0  0  0  0  0
   -3.8815    2.9980    0.0000 N   0  0  0  0  0  0  0  0  0  0  0  0
   -4.7106    1.7418    0.0000 N   0  0  0  0  0  0  0  0  0  0  0  0
   -5.3470    2.9143    0.0000 S   0  0  0  0  0  0  0  0  0  0  0  0
   -3.8899    3.8187    0.0000 C   0  0  0  0  0  0  0  0  0  0  0  0
   -5.5229    1.5911    0.0000 C   0  0  0  0  0  0  0  0  0  0  0  0
   -5.9248    2.3197    0.0000 C   0  0  0  0  0  0  0  0  0  0  0  0
   -3.1739    4.2332    0.0000 C   0  0  0  0  0  0  0  0  0  0  0  0
   -1.7544    5.0414    0.0000 C   0  0  0  0  0  0  0  0  0  0  0  0
   -2.4578    5.4559    0.0000 C   0  0  0  0  0  0  0  0  0  0  0  0
   -1.7544    4.2332    0.0000 C   0  0  0  0  0  0  0  0  0  0  0  0
   -2.4704    3.8271    0.0000 C   0  0  0  0  0  0  0  0  0  0  0  0
   -3.1739    5.0497    0.0000 C   0  0  0  0  0  0  0  0  0  0  0  0
   -4.2918    0.3601    0.0000 C   0  0  0  0  0  0  0  0  0  0  0  0
   -4.4803   -0.4564    0.0000 C   0  0  0  0  0  0  0  0  0  0  0  0
   -4.6059    4.2332    0.0000 O   0  0  0  0  0  0  0  0  0  0  0  0
   -5.9542    0.8876    0.0000 C   0  0  0  0  0  0  0  0  0  0  0  0
   -4.1034    1.1682    0.0000 C   0  0  0  0  0  0  0  0  0  0  0  0
   -1.0384    5.4434    0.0000 O   0  0  0  0  0  0  0  0  0  0  0  0
   -2.4621    6.2808    0.0000 O   0  0  0  0  0  0  0  0  0  0  0  0
   -1.0509    3.8271    0.0000 O   0  0  0  0  0  0  0  0  0  0  0  0
   -6.7456    2.3448    0.0000 C   0  0  0  0  0  0  0  0  0  0  0  0
   -7.1769    1.6330    0.0000 C   0  0  0  0  0  0  0  0  0  0  0  0
   -6.7623    0.9002    0.0000 C   0  0  0  0  0  0  0  0  0  0  0  0
   -5.5605    0.1507    0.0000 C   0  0  0  0  0  0  0  0  0  0  0  0
   -0.1340    5.1293    0.0000 C   0  0  0  0  0  0  0  0  0  0  0  0
   -1.7544    6.6870    0.0000 C   0  0  0  0  0  0  0  0  0  0  0  0
   -1.0509    3.0106    0.0000 C   0  0  0  0  0  0  0  0  0  0  0  0
  2  1  2  0  0  0  0
  3  1  1  0  0  0  0
  4  1  1  0  0  0  0
  5  2  1  0  0  0  0
  6  3  1  0  0  0  0
  7  4  1  0  0  0  0
  7  6  2  0  0  0  0
  8  5  1  0  0  0  0
  9 10  1  0  0  0  0
  9 11  2  0  0  0  0
 10 13  2  0  0  0  0
 11 12  1  0  0  0  0
 12  8  2  0  0  0  0
 13  8  1  0  0  0  0
 14 18  1  0  0  0  0
 15 14  3  0  0  0  0
 16  5  2  0  0  0  0
 17  6  1  0  0  0  0
 18  3  1  0  0  0  0
 19  9  1  0  0  0  0
 20 10  1  0  0  0  0
 21 11  1  0  0  0  0
 22  7  1  0  0  0  0
 23 22  2  0  0  0  0
 24 17  2  0  0  0  0
 24 23  1  0  0  0  0
 25 17  1  0  0  0  0
 26 19  1  0  0  0  0
 27 20  1  0  0  0  0
 28 21  1  0  0  0  0
M  END
> <CdId>
2541

> <Mol Weight>
396.459

> <Formula>
C21H20N2O4S

> <Click_ID>
CLK033_F07 __ __ 

$$$$
