CLK003_E05
 OpenBabel03181404502D

 26 29  0  0  0  0  0  0  0  0999 V2000
   -1.0142    0.8969    0.0000 N   0  0  0  0  0  0  0  0  0  0  0  0
   -1.0142    1.7296    0.0000 C   0  0  0  0  0  0  0  0  0  0  0  0
   -2.4524    0.8969    0.0000 C   0  0  0  0  0  0  0  0  0  0  0  0
   -0.3028    0.4882    0.0000 C   0  0  0  0  0  0  0  0  0  0  0  0
   -1.7371    2.1459    0.0000 N   0  0  0  0  0  0  0  0  0  0  0  0
    0.4163    1.7296    0.0000 S   0  0  0  0  0  0  0  0  0  0  0  0
   -2.4524    1.7296    0.0000 C   0  0  0  0  0  0  0  0  0  0  0  0
   -3.1676    0.4882    0.0000 C   0  0  0  0  0  0  0  0  0  0  0  0
    0.4163    0.8969    0.0000 C   0  0  0  0  0  0  0  0  0  0  0  0
   -0.3028   -0.3368    0.0000 O   0  0  0  0  0  0  0  0  0  0  0  0
   -3.1676    2.1420    0.0000 C   0  0  0  0  0  0  0  0  0  0  0  0
   -3.8792    0.8969    0.0000 C   0  0  0  0  0  0  0  0  0  0  0  0
    1.1315    0.4882    0.0000 C   0  0  0  0  0  0  0  0  0  0  0  0
   -3.8792    1.7296    0.0000 C   0  0  0  0  0  0  0  0  0  0  0  0
    1.1315   -0.3368    0.0000 C   0  0  0  0  0  0  0  0  0  0  0  0
    1.8431   -0.7494    0.0000 C   0  0  0  0  0  0  0  0  0  0  0  0
    0.4163   -0.7380    0.0000 C   0  0  0  0  0  0  0  0  0  0  0  0
    1.8431   -1.5705    0.0000 C   0  0  0  0  0  0  0  0  0  0  0  0
    2.5583   -0.3368    0.0000 O   0  0  0  0  0  0  0  0  0  0  0  0
    0.4163   -1.5705    0.0000 C   0  0  0  0  0  0  0  0  0  0  0  0
    1.1315   -1.9831    0.0000 C   0  0  0  0  0  0  0  0  0  0  0  0
    2.5583   -1.9831    0.0000 I   0  0  0  0  0  0  0  0  0  0  0  0
    3.2661   -0.7380    0.0000 C   0  0  0  0  0  0  0  0  0  0  0  0
   -0.2952   -1.9718    0.0000 I   0  0  0  0  0  0  0  0  0  0  0  0
    3.2698   -1.5630    0.0000 C   0  0  0  0  0  0  0  0  0  0  0  0
    3.2698   -2.3842    0.0000 C   0  0  0  0  0  0  0  0  0  0  0  0
  1  2  1  0  0  0  0
  1  3  1  0  0  0  0
  1  4  1  0  0  0  0
  2  5  2  0  0  0  0
  2  6  1  0  0  0  0
  3  7  2  0  0  0  0
  3  8  1  0  0  0  0
  4  9  1  0  0  0  0
  4 10  2  0  0  0  0
  5  7  1  0  0  0  0
  6  9  1  0  0  0  0
  7 11  1  0  0  0  0
  8 12  2  0  0  0  0
  9 13  2  0  0  0  0
 11 14  2  0  0  0  0
 12 14  1  0  0  0  0
 13 15  1  0  0  0  0
 15 16  1  0  0  0  0
 15 17  2  0  0  0  0
 16 18  2  0  0  0  0
 16 19  1  0  0  0  0
 17 20  1  0  0  0  0
 18 21  1  0  0  0  0
 18 22  1  0  0  0  0
 19 23  1  0  0  0  0
 20 24  1  0  0  0  0
 20 21  2  0  0  0  0
 23 25  1  0  0  0  0
 25 26  3  0  0  0  0
M  END
> <CdId>
204

> <Mol Weight>
584.169

> <Formula>
C19H10I2N2O2S

> <Click_ID>
CLK003_E05 __ __ 

$$$$
