CLK052E02
 OpenBabel03181404502D

 21 23  0  0  0  0  0  0  0  0999 V2000
   -0.6542    0.4250    0.0000 C   0  0  0  0  0  0  0  0  0  0  0  0
   -1.4375    0.1708    0.0000 C   0  0  0  0  0  0  0  0  0  0  0  0
    0.0625    0.0125    0.0000 C   0  0  0  0  0  0  0  0  0  0  0  0
   -1.9250    0.8375    0.0000 O   0  0  0  0  0  0  0  0  0  0  0  0
   -1.4375    1.5042    0.0000 N   0  0  0  0  0  0  0  0  0  0  0  0
    0.7750    0.4250    0.0000 C   0  0  0  0  0  0  0  0  0  0  0  0
   -0.6542    1.2500    0.0000 C   0  0  0  0  0  0  0  0  0  0  0  0
    1.4917    0.0125    0.0000 C   0  0  0  0  0  0  0  0  0  0  0  0
    0.7750    1.2500    0.0000 C   0  0  0  0  0  0  0  0  0  0  0  0
    0.0625    1.6625    0.0000 C   0  0  0  0  0  0  0  0  0  0  0  0
    3.6333    0.4250    0.0000 C   0  0  0  0  0  0  0  0  0  0  0  0
    4.3458    0.8375    0.0000 C   0  0  0  0  0  0  0  0  0  0  0  0
   -1.6917   -0.6125    0.0000 C   0  0  0  0  0  0  0  0  0  0  0  0
    1.4917   -0.8125    0.0000 O   0  0  0  0  0  0  0  0  0  0  0  0
    2.2042    0.4250    0.0000 N   0  0  0  0  0  0  0  0  0  0  0  0
    2.9167    0.0125    0.0000 C   0  0  0  0  0  0  0  0  0  0  0  0
   -2.5000   -0.7875    0.0000 C   0  0  0  0  0  0  0  0  0  0  0  0
   -1.1417   -1.2292    0.0000 C   0  0  0  0  0  0  0  0  0  0  0  0
   -1.3958   -2.0125    0.0000 C   0  0  0  0  0  0  0  0  0  0  0  0
   -2.7542   -1.5708    0.0000 C   0  0  0  0  0  0  0  0  0  0  0  0
   -2.2042   -2.1833    0.0000 C   0  0  0  0  0  0  0  0  0  0  0  0
  2  1  2  0  0  0  0
  3  1  1  0  0  0  0
  4  2  1  0  0  0  0
  4  5  1  0  0  0  0
  5  7  2  0  0  0  0
  6  3  2  0  0  0  0
  7  1  1  0  0  0  0
  8  6  1  0  0  0  0
  9  6  1  0  0  0  0
 10  7  1  0  0  0  0
 10  9  2  0  0  0  0
 11 16  1  0  0  0  0
 12 11  3  0  0  0  0
 13  2  1  0  0  0  0
 14  8  2  0  0  0  0
 15  8  1  0  0  0  0
 16 15  1  0  0  0  0
 17 13  1  0  0  0  0
 18 13  2  0  0  0  0
 19 18  1  0  0  0  0
 20 17  2  0  0  0  0
 21 19  2  0  0  0  0
 21 20  1  0  0  0  0
M  END
> <CdId>
3973

> <Mol Weight>
276.2894

> <Formula>
C17H12N2O2

> <Click_ID>
CLK052E02 __ __ 

$$$$
