CLK014_D07
 OpenBabel03181404502D

 27 29  0  0  0  0  0  0  0  0999 V2000
    1.5645   -0.8156    0.0000 N   0  0  0  0  0  0  0  0  0  0  0  0
    1.8225   -1.6020    0.0000 C   0  0  0  0  0  0  0  0  0  0  0  0
    2.9002   -0.8156    0.0000 C   0  0  0  0  0  0  0  0  0  0  0  0
    2.2344   -0.3287    0.0000 C   0  0  0  0  0  0  0  0  0  0  0  0
    5.5215   -1.6519    0.0000 N   0  0  0  0  0  0  0  0  0  0  0  0
    4.2982   -1.1110    0.0000 C   0  0  0  0  0  0  0  0  0  0  0  0
    2.6463   -1.6020    0.0000 S   0  0  0  0  0  0  0  0  0  0  0  0
    4.9598   -2.2635    0.0000 C   0  0  0  0  0  0  0  0  0  0  0  0
    5.1096   -0.9404    0.0000 C   0  0  0  0  0  0  0  0  0  0  0  0
    8.7920   -2.0389    0.0000 N   0  3  0  0  0  0  0  0  0  0  0  0
    3.6866   -0.5617    0.0000 C   0  0  0  0  0  0  0  0  0  0  0  0
    4.2191   -1.9265    0.0000 C   0  0  0  0  0  0  0  0  0  0  0  0
    6.3412   -1.7476    0.0000 C   0  0  0  0  0  0  0  0  0  0  0  0
    0.6116    0.2455    0.0000 C   0  0  0  0  0  0  0  0  0  0  0  0
    7.9764   -1.9515    0.0000 C   0  0  0  0  0  0  0  0  0  0  0  0
    0.3912    1.0443    0.0000 C   0  0  0  0  0  0  0  0  0  0  0  0
    9.1248   -2.8003    0.0000 O   0  5  0  0  0  0  0  0  0  0  0  0
    1.3356   -2.2635    0.0000 O   0  0  0  0  0  0  0  0  0  0  0  0
    9.2871   -1.3856    0.0000 O   0  0  0  0  0  0  0  0  0  0  0  0
    2.2261    0.4951    0.0000 O   0  0  0  0  0  0  0  0  0  0  0  0
    0.7864   -0.5617    0.0000 C   0  0  0  0  0  0  0  0  0  0  0  0
    6.6657   -2.5132    0.0000 C   0  0  0  0  0  0  0  0  0  0  0  0
    6.8322   -1.0902    0.0000 C   0  0  0  0  0  0  0  0  0  0  0  0
    7.4813   -2.6089    0.0000 C   0  0  0  0  0  0  0  0  0  0  0  0
    7.6518   -1.1858    0.0000 C   0  0  0  0  0  0  0  0  0  0  0  0
    5.1304   -3.0707    0.0000 C   0  0  0  0  0  0  0  0  0  0  0  0
    5.4466   -0.1872    0.0000 C   0  0  0  0  0  0  0  0  0  0  0  0
  2  1  1  0  0  0  0
  3  4  1  0  0  0  0
  3  7  1  0  0  0  0
  4  1  1  0  0  0  0
  5  9  1  0  0  0  0
  5  8  1  0  0  0  0
  6 11  1  0  0  0  0
  7  2  1  0  0  0  0
  8 12  2  0  0  0  0
  9  6  2  0  0  0  0
 10 15  1  0  0  0  0
 11  3  2  0  0  0  0
 12  6  1  0  0  0  0
 13  5  1  0  0  0  0
 14 21  1  0  0  0  0
 15 25  1  0  0  0  0
 16 14  3  0  0  0  0
 17 10  1  0  0  0  0
 18  2  2  0  0  0  0
 19 10  2  0  0  0  0
 20  4  2  0  0  0  0
 21  1  1  0  0  0  0
 22 13  2  0  0  0  0
 23 13  1  0  0  0  0
 24 22  1  0  0  0  0
 24 15  2  0  0  0  0
 25 23  2  0  0  0  0
 26  8  1  0  0  0  0
 27  9  1  0  0  0  0
M  END
> <CdId>
1032

> <Mol Weight>
381.405

> <Formula>
C19H15N3O4S

> <Click_ID>
CLK014_D07 __ __ 

$$$$
