CLK010_B04
 OpenBabel03181404502D

 22 24  0  0  0  0  0  0  0  0999 V2000
   -1.1170   -0.2198    0.0000 N   0  0  0  0  0  0  0  0  0  0  0  0
   -0.7828   -0.9605    0.0000 C   0  0  0  0  0  0  0  0  0  0  0  0
   -1.3880   -1.5175    0.0000 N   0  0  0  0  0  0  0  0  0  0  0  0
   -1.9300   -0.3101    0.0000 C   0  0  0  0  0  0  0  0  0  0  0  0
   -0.7106    0.5058    0.0000 C   0  0  0  0  0  0  0  0  0  0  0  0
   -2.0956   -1.1110    0.0000 C   0  0  0  0  0  0  0  0  0  0  0  0
    0.1114    0.5058    0.0000 C   0  0  0  0  0  0  0  0  0  0  0  0
    1.3399    1.2285    0.0000 C   0  0  0  0  0  0  0  0  0  0  0  0
    1.1050   -2.0956    0.0000 C   0  0  0  0  0  0  0  0  0  0  0  0
    0.5269    1.2164    0.0000 C   0  0  0  0  0  0  0  0  0  0  0  0
    1.9149   -2.2672    0.0000 C   0  0  0  0  0  0  0  0  0  0  0  0
    1.8909    1.8396    0.0000 S   0  0  0  0  0  0  0  0  0  0  0  0
    0.0392   -1.1412    0.0000 S   0  0  0  0  0  0  0  0  0  0  0  0
   -1.1170    1.2254    0.0000 O   0  0  0  0  0  0  0  0  0  0  0  0
    2.6496    1.5054    0.0000 C   0  0  0  0  0  0  0  0  0  0  0  0
    1.7614    0.5149    0.0000 C   0  0  0  0  0  0  0  0  0  0  0  0
    2.5683    0.6865    0.0000 C   0  0  0  0  0  0  0  0  0  0  0  0
    0.2921   -1.9149    0.0000 C   0  0  0  0  0  0  0  0  0  0  0  0
   -2.5532    0.2408    0.0000 C   0  0  0  0  0  0  0  0  0  0  0  0
   -2.8875   -1.3760    0.0000 C   0  0  0  0  0  0  0  0  0  0  0  0
   -3.3331   -0.0121    0.0000 C   0  0  0  0  0  0  0  0  0  0  0  0
   -3.5137   -0.8310    0.0000 C   0  0  0  0  0  0  0  0  0  0  0  0
  2  1  1  0  0  0  0
  3  2  2  0  0  0  0
  3  6  1  0  0  0  0
  4  1  1  0  0  0  0
  5  1  1  0  0  0  0
  6  4  1  0  0  0  0
  7  5  1  0  0  0  0
  8 10  1  0  0  0  0
  9 18  1  0  0  0  0
 10  7  2  0  0  0  0
 11  9  3  0  0  0  0
 12  8  1  0  0  0  0
 13  2  1  0  0  0  0
 14  5  2  0  0  0  0
 15 12  1  0  0  0  0
 16  8  2  0  0  0  0
 17 16  1  0  0  0  0
 17 15  2  0  0  0  0
 18 13  1  0  0  0  0
 19  4  2  0  0  0  0
 20  6  2  0  0  0  0
 20 22  1  0  0  0  0
 21 19  1  0  0  0  0
 22 21  2  0  0  0  0
M  END
> <CdId>
689

> <Mol Weight>
324.42

> <Formula>
C17H12N2OS2

> <Click_ID>
CLK010_B04 __ __ 

$$$$
