CLK040E03
 OpenBabel03181404502D

 16 16  0  0  0  0  0  0  0  0999 V2000
    1.6500    3.0167    0.0000 C    0  0  0  0  0  0  0  0  0  0  0  0
   -1.2083   -1.9333    0.0000 C    0  0  0  0  0  0  0  0  0  0  0  0
    2.3667    3.4292    0.0000 C    0  0  0  0  0  0  0  0  0  0  0  0
   -1.2083   -1.1083    0.0000 C    0  0  0  0  0  0  0  0  0  0  0  0
    0.2208    1.3667    0.0000 C    0  0  0  0  0  0  0  0  0  0  0  0
   -0.4917   -2.3458    0.0000 C    0  0  0  0  0  0  0  0  0  0  0  0
   -0.4917    1.7792    0.0000 O    0  0  0  0  0  0  0  0  0  0  0  0
   -0.4917   -0.6958    0.0000 C    0  0  0  0  0  0  0  0  0  0  0  0
    0.2208   -1.9333    0.0000 C    0  0  0  0  0  0  0  0  0  0  0  0
    0.9375    1.7792    0.0000 N    0  0  0  0  0  0  0  0  0  0  0  0
   -0.4917    0.1292    0.0000 O    0  0  0  0  0  0  0  0  0  0  0  0
    0.2208    0.5417    0.0000 C    0  0  0  0  0  0  0  0  0  0  0  0
   -1.9208   -2.3458    0.0000 Cl   0  0  0  0  0  0  0  0  0  0  0  0
   -0.4917   -3.1708    0.0000 F    0  0  0  0  0  0  0  0  0  0  0  0
    0.2208   -1.1083    0.0000 C    0  0  0  0  0  0  0  0  0  0  0  0
    0.9375    2.6042    0.0000 C    0  0  0  0  0  0  0  0  0  0  0  0
  2  4  1  0  0  0  0
  3  1  3  0  0  0  0
  4  8  2  0  0  0  0
  5 10  1  0  0  0  0
  6  2  2  0  0  0  0
  7  5  2  0  0  0  0
  8 11  1  0  0  0  0
  9 15  2  0  0  0  0
  9  6  1  0  0  0  0
 10 16  1  0  0  0  0
 11 12  1  0  0  0  0
 12  5  1  0  0  0  0
 13  2  1  0  0  0  0
 14  6  1  0  0  0  0
 15  8  1  0  0  0  0
 16  1  1  0  0  0  0
M  END
> <CdId>
3021

> <Mol Weight>
241.646

> <Formula>
C11H9ClFNO2

> <Click_ID>
CLK040E03 __ __ 

$$$$
