CLK024_B10
 OpenBabel03181404502D

 28 30  0  0  0  0  0  0  0  0999 V2000
   -2.3024   -0.7917    0.0000 C   0  0  0  0  0  0  0  0  0  0  0  0
   -1.9326   -1.5626    0.0000 N   0  0  0  0  0  0  0  0  0  0  0  0
   -0.9438   -0.6984    0.0000 C   0  0  0  0  0  0  0  0  0  0  0  0
   -1.0925   -1.4900    0.0000 C   0  0  0  0  0  0  0  0  0  0  0  0
   -1.6352   -0.2178    0.0000 S   0  0  0  0  0  0  0  0  0  0  0  0
    1.7874   -1.9083    0.0000 C   0  0  0  0  0  0  0  0  0  0  0  0
   -0.1832   -0.3803    0.0000 C   0  0  0  0  0  0  0  0  0  0  0  0
   -3.1771   -0.6292    0.0000 N   0  0  0  0  0  0  0  0  0  0  0  0
    1.0233   -2.2195    0.0000 C   0  0  0  0  0  0  0  0  0  0  0  0
    1.9014   -1.0786    0.0000 C   0  0  0  0  0  0  0  0  0  0  0  0
    0.4771   -0.8919    0.0000 C   0  0  0  0  0  0  0  0  0  0  0  0
    3.8547   -2.5997    0.0000 C   0  0  0  0  0  0  0  0  0  0  0  0
    4.5081   -3.0976    0.0000 C   0  0  0  0  0  0  0  0  0  0  0  0
    0.3665   -1.7148    0.0000 C   0  0  0  0  0  0  0  0  0  0  0  0
    1.2480   -0.5739    0.0000 C   0  0  0  0  0  0  0  0  0  0  0  0
   -0.6361   -2.1504    0.0000 O   0  0  0  0  0  0  0  0  0  0  0  0
   -3.4398    0.1487    0.0000 C   0  0  0  0  0  0  0  0  0  0  0  0
    2.6620   -0.7640    0.0000 I   0  0  0  0  0  0  0  0  0  0  0  0
    0.9023   -3.0353    0.0000 I   0  0  0  0  0  0  0  0  0  0  0  0
    2.4373   -2.4096    0.0000 O   0  0  0  0  0  0  0  0  0  0  0  0
   -3.9757    1.7044    0.0000 C   0  0  0  0  0  0  0  0  0  0  0  0
   -2.9075    0.7675    0.0000 C   0  0  0  0  0  0  0  0  0  0  0  0
   -4.2384    0.3008    0.0000 C   0  0  0  0  0  0  0  0  0  0  0  0
   -4.5115    1.0683    0.0000 C   0  0  0  0  0  0  0  0  0  0  0  0
   -3.1771    1.5557    0.0000 C   0  0  0  0  0  0  0  0  0  0  0  0
    3.2082   -2.0950    0.0000 C   0  0  0  0  0  0  0  0  0  0  0  0
   -4.2488    2.4788    0.0000 O   0  0  0  0  0  0  0  0  0  0  0  0
   -3.7129    3.1010    0.0000 C   0  0  0  0  0  0  0  0  0  0  0  0
  2  1  1  0  0  0  0
  3  5  1  0  0  0  0
  3  4  1  0  0  0  0
  4  2  1  0  0  0  0
  5  1  1  0  0  0  0
  6 10  1  0  0  0  0
  7  3  2  0  0  0  0
  8  1  2  0  0  0  0
  9 14  1  0  0  0  0
  9  6  2  0  0  0  0
 10 15  2  0  0  0  0
 11  7  1  0  0  0  0
 12 26  1  0  0  0  0
 13 12  3  0  0  0  0
 14 11  2  0  0  0  0
 15 11  1  0  0  0  0
 16  4  2  0  0  0  0
 17  8  1  0  0  0  0
 18 10  1  0  0  0  0
 19  9  1  0  0  0  0
 20  6  1  0  0  0  0
 21 24  1  0  0  0  0
 22 17  2  0  0  0  0
 23 17  1  0  0  0  0
 24 23  2  0  0  0  0
 25 22  1  0  0  0  0
 25 21  2  0  0  0  0
 26 20  1  0  0  0  0
 27 21  1  0  0  0  0
 28 27  1  0  0  0  0
M  END
> <CdId>
1795

> <Mol Weight>
616.211

> <Formula>
C20H14I2N2O3S

> <Click_ID>
CLK024_B10 __ __ 

$$$$
