CLK021_F02
 OpenBabel03181404502D

 28 30  0  0  0  0  0  0  0  0999 V2000
    1.8288    4.7025    0.0000 C    0  0  0  0  0  0  0  0  0  0  0  0
    1.4896    3.9554    0.0000 N    0  0  0  0  0  0  0  0  0  0  0  0
    1.4163    5.4129    0.0000 C    0  0  0  0  0  0  0  0  0  0  0  0
    2.6446    4.6109    0.0000 N    0  0  0  0  0  0  0  0  0  0  0  0
    2.1084    3.4054    0.0000 C    0  0  0  0  0  0  0  0  0  0  0  0
    1.8288    6.1234    0.0000 C    0  0  0  0  0  0  0  0  0  0  0  0
    4.3037    6.1234    0.0000 C    0  0  0  0  0  0  0  0  0  0  0  0
    2.8234    3.8179    0.0000 C    0  0  0  0  0  0  0  0  0  0  0  0
    0.5912    5.4129    0.0000 C    0  0  0  0  0  0  0  0  0  0  0  0
    3.8912    6.8384    0.0000 C    0  0  0  0  0  0  0  0  0  0  0  0
    3.8912    5.4129    0.0000 C    0  0  0  0  0  0  0  0  0  0  0  0
    2.6538    6.1234    0.0000 C    0  0  0  0  0  0  0  0  0  0  0  0
   -0.2338    5.4129    0.0000 N    0  0  0  0  0  0  0  0  0  0  0  0
    6.3662    5.4129    0.0000 C    0  0  0  0  0  0  0  0  0  0  0  0
    2.1084    2.5804    0.0000 C    0  0  0  0  0  0  0  0  0  0  0  0
    7.1912    5.4129    0.0000 C    0  0  0  0  0  0  0  0  0  0  0  0
    3.0662    6.8384    0.0000 C    0  0  0  0  0  0  0  0  0  0  0  0
    3.0662    5.4129    0.0000 C    0  0  0  0  0  0  0  0  0  0  0  0
    3.5384    3.4054    0.0000 C    0  0  0  0  0  0  0  0  0  0  0  0
    2.8234    2.1679    0.0000 C    0  0  0  0  0  0  0  0  0  0  0  0
    4.3037    7.5534    0.0000 Br   0  0  0  0  0  0  0  0  0  0  0  0
    5.1287    6.1234    0.0000 O    0  0  0  0  0  0  0  0  0  0  0  0
    4.3037    4.7025    0.0000 O    0  0  0  0  0  0  0  0  0  0  0  0
    3.5384    2.5804    0.0000 C    0  0  0  0  0  0  0  0  0  0  0  0
    5.5412    5.4129    0.0000 C    0  0  0  0  0  0  0  0  0  0  0  0
    2.8234    1.3429    0.0000 O    0  0  0  0  0  0  0  0  0  0  0  0
    3.8912    3.9966    0.0000 C    0  0  0  0  0  0  0  0  0  0  0  0
    3.5384    0.9304    0.0000 C    0  0  0  0  0  0  0  0  0  0  0  0
  2  1  2  0  0  0  0
  3  1  1  0  0  0  0
  4  1  1  0  0  0  0
  5  2  1  0  0  0  0
  5  8  1  0  0  0  0
  6  3  2  0  0  0  0
  7 11  2  0  0  0  0
  7 10  1  0  0  0  0
  8  4  1  0  0  0  0
  9  3  1  0  0  0  0
 10 17  2  0  0  0  0
 11 18  1  0  0  0  0
 12  6  1  0  0  0  0
 13  9  3  0  0  0  0
 14 25  1  0  0  0  0
 15  5  2  0  0  0  0
 16 14  3  0  0  0  0
 17 12  1  0  0  0  0
 18 12  2  0  0  0  0
 19  8  2  0  0  0  0
 20 15  1  0  0  0  0
 20 24  2  0  0  0  0
 21 10  1  0  0  0  0
 22  7  1  0  0  0  0
 23 11  1  0  0  0  0
 24 19  1  0  0  0  0
 25 22  1  0  0  0  0
 26 20  1  0  0  0  0
 27 23  1  0  0  0  0
 28 26  1  0  0  0  0
M  END
> <CdId>
1607

> <Mol Weight>
438.274

> <Formula>
C21H16BrN3O3

> <Click_ID>
CLK021_F02 __ __ 

$$$$
