CLK005_B10
 OpenBabel03181404502D

 24 26  0  0  0  0  0  0  0  0999 V2000
    2.2220    0.1354    0.0000 C   0  0  0  0  0  0  0  0  0  0  0  0
    2.9805   -0.1890    0.0000 N   0  0  0  0  0  0  0  0  0  0  0  0
    1.5630   -0.3652    0.0000 C   0  0  0  0  0  0  0  0  0  0  0  0
    2.1198    0.9450    0.0000 C   0  0  0  0  0  0  0  0  0  0  0  0
    3.1721   -0.9884    0.0000 C   0  0  0  0  0  0  0  0  0  0  0  0
    3.6905    0.2349    0.0000 C   0  0  0  0  0  0  0  0  0  0  0  0
    0.8020   -0.0434    0.0000 C   0  0  0  0  0  0  0  0  0  0  0  0
    1.3561    1.2693    0.0000 C   0  0  0  0  0  0  0  0  0  0  0  0
    3.9944   -1.0625    0.0000 C   0  0  0  0  0  0  0  0  0  0  0  0
    2.6306   -1.6192    0.0000 O   0  0  0  0  0  0  0  0  0  0  0  0
    4.3162   -0.2988    0.0000 C   0  0  0  0  0  0  0  0  0  0  0  0
    0.6998    0.7738    0.0000 C   0  0  0  0  0  0  0  0  0  0  0  0
   -0.0613    1.0905    0.0000 C   0  0  0  0  0  0  0  0  0  0  0  0
   -0.7228    0.5950    0.0000 N   0  0  0  0  0  0  0  0  0  0  0  0
   -1.4813    0.9169    0.0000 C   0  0  0  0  0  0  0  0  0  0  0  0
   -2.1428    0.4137    0.0000 C   0  0  0  0  0  0  0  0  0  0  0  0
   -1.5834    1.7367    0.0000 O   0  0  0  0  0  0  0  0  0  0  0  0
   -2.9013    0.7381    0.0000 C   0  0  0  0  0  0  0  0  0  0  0  0
   -2.0380   -0.4010    0.0000 C   0  0  0  0  0  0  0  0  0  0  0  0
   -3.5602    0.2400    0.0000 C   0  0  0  0  0  0  0  0  0  0  0  0
   -2.6995   -0.8990    0.0000 C   0  0  0  0  0  0  0  0  0  0  0  0
   -3.4581   -0.5747    0.0000 C   0  0  0  0  0  0  0  0  0  0  0  0
   -4.1196   -1.0752    0.0000 C   0  0  0  0  0  0  0  0  0  0  0  0
   -4.7759   -1.5732    0.0000 C   0  0  0  0  0  0  0  0  0  0  0  0
  1  2  1  0  0  0  0
  1  3  2  0  0  0  0
  1  4  1  0  0  0  0
  2  5  1  0  0  0  0
  2  6  1  0  0  0  0
  3  7  1  0  0  0  0
  4  8  2  0  0  0  0
  5  9  1  0  0  0  0
  5 10  2  0  0  0  0
  6 11  1  0  0  0  0
  7 12  2  0  0  0  0
  8 12  1  0  0  0  0
  9 11  1  0  0  0  0
 12 13  1  0  0  0  0
 13 14  1  0  0  0  0
 14 15  1  0  0  0  0
 15 16  1  0  0  0  0
 15 17  2  0  0  0  0
 16 18  1  0  0  0  0
 16 19  2  0  0  0  0
 18 20  2  0  0  0  0
 19 21  1  0  0  0  0
 20 22  1  0  0  0  0
 21 22  2  0  0  0  0
 22 23  1  0  0  0  0
 23 24  3  0  0  0  0
M  END
> <CdId>
339

> <Mol Weight>
318.3691

> <Formula>
C20H18N2O2

> <Click_ID>
CLK005_B10 __ __ 

$$$$
