CLK035_B11
 OpenBabel03181404502D

 28 30  0  0  0  0  0  0  0  0999 V2000
   -0.5474    2.1941    0.0000 C   0  0  0  0  0  0  0  0  0  0  0  0
    0.2424    2.4531    0.0000 N   0  0  0  0  0  0  0  0  0  0  0  0
   -0.8024    1.4042    0.0000 N   0  0  0  0  0  0  0  0  0  0  0  0
   -1.2161    2.6788    0.0000 S   0  0  0  0  0  0  0  0  0  0  0  0
   -1.6299    1.4042    0.0000 C   0  0  0  0  0  0  0  0  0  0  0  0
   -1.8806    2.1898    0.0000 C   0  0  0  0  0  0  0  0  0  0  0  0
    3.2263    2.6579    0.0000 N   0  3  0  0  0  0  0  0  0  0  0  0
    0.4179    3.2555    0.0000 C   0  0  0  0  0  0  0  0  0  0  0  0
   -2.1773    0.7982    0.0000 C   0  0  0  0  0  0  0  0  0  0  0  0
   -2.6913    2.3654    0.0000 C   0  0  0  0  0  0  0  0  0  0  0  0
    2.5995    3.2179    0.0000 C   0  0  0  0  0  0  0  0  0  0  0  0
   -2.9797    0.9654    0.0000 C   0  0  0  0  0  0  0  0  0  0  0  0
   -3.2430    1.7510    0.0000 C   0  0  0  0  0  0  0  0  0  0  0  0
    1.1953    3.5105    0.0000 C   0  0  0  0  0  0  0  0  0  0  0  0
    0.4932    0.8233    0.0000 C   0  0  0  0  0  0  0  0  0  0  0  0
    1.8096    2.9672    0.0000 C   0  0  0  0  0  0  0  0  0  0  0  0
    0.8400    1.5755    0.0000 C   0  0  0  0  0  0  0  0  0  0  0  0
    3.0508    1.8513    0.0000 O   0  5  0  0  0  0  0  0  0  0  0  0
    4.0037    2.9296    0.0000 O   0  0  0  0  0  0  0  0  0  0  0  0
   -0.1964    3.8114    0.0000 O   0  0  0  0  0  0  0  0  0  0  0  0
   -0.3218    0.7397    0.0000 C   0  0  0  0  0  0  0  0  0  0  0  0
   -3.5314    0.3468    0.0000 O   0  0  0  0  0  0  0  0  0  0  0  0
   -4.0454    1.9266    0.0000 O   0  0  0  0  0  0  0  0  0  0  0  0
    2.7708    4.0120    0.0000 C   0  0  0  0  0  0  0  0  0  0  0  0
    1.3708    4.3046    0.0000 C   0  0  0  0  0  0  0  0  0  0  0  0
    2.1607    4.5679    0.0000 C   0  0  0  0  0  0  0  0  0  0  0  0
   -4.5970    1.3122    0.0000 C   0  0  0  0  0  0  0  0  0  0  0  0
   -3.2806   -0.4388    0.0000 C   0  0  0  0  0  0  0  0  0  0  0  0
  2  1  2  0  0  0  0
  3  1  1  0  0  0  0
  4  1  1  0  0  0  0
  5  3  1  0  0  0  0
  6  4  1  0  0  0  0
  6  5  2  0  0  0  0
  7 11  1  0  0  0  0
  8  2  1  0  0  0  0
  9  5  1  0  0  0  0
 10  6  1  0  0  0  0
 11 16  1  0  0  0  0
 11 24  2  0  0  0  0
 12  9  2  0  0  0  0
 12 13  1  0  0  0  0
 13 10  2  0  0  0  0
 14  8  1  0  0  0  0
 15 21  1  0  0  0  0
 16 14  2  0  0  0  0
 17 15  3  0  0  0  0
 18  7  1  0  0  0  0
 19  7  2  0  0  0  0
 20  8  2  0  0  0  0
 21  3  1  0  0  0  0
 22 12  1  0  0  0  0
 23 13  1  0  0  0  0
 24 26  1  0  0  0  0
 25 14  1  0  0  0  0
 26 25  2  0  0  0  0
 27 23  1  0  0  0  0
 28 22  1  0  0  0  0
M  END
> <CdId>
2665

> <Mol Weight>
397.405

> <Formula>
C19H15N3O5S

> <Click_ID>
CLK035_B11 __ __ 

$$$$
