CLK015_H11
 OpenBabel03181404502D

 14 14  0  0  0  0  0  0  0  0999 V2000
   -0.3300   -1.7094    0.0000 C    0  0  0  0  0  0  0  0  0  0  0  0
   -0.7515   -2.4105    0.0000 C    0  0  0  0  0  0  0  0  0  0  0  0
    2.1447   -1.7460    0.0000 C    0  0  0  0  0  0  0  0  0  0  0  0
    1.7460   -1.0220    0.0000 C    0  0  0  0  0  0  0  0  0  0  0  0
    4.6194   -1.7781    0.0000 N    0  0  0  0  0  0  0  0  0  0  0  0
    2.9696   -1.7598    0.0000 C    0  0  0  0  0  0  0  0  0  0  0  0
    2.1631   -0.3162    0.0000 C    0  0  0  0  0  0  0  0  0  0  0  0
    3.3866   -1.0495    0.0000 C    0  0  0  0  0  0  0  0  0  0  0  0
    4.2115   -1.0632    0.0000 C    0  0  0  0  0  0  0  0  0  0  0  0
    1.7231   -2.4518    0.0000 Br   0  0  0  0  0  0  0  0  0  0  0  0
    5.4305   -1.8194    0.0000 O    0  0  0  0  0  0  0  0  0  0  0  0
    2.9880   -0.3300    0.0000 C    0  0  0  0  0  0  0  0  0  0  0  0
    0.9211   -1.0082    0.0000 O    0  0  0  0  0  0  0  0  0  0  0  0
    0.4949   -1.7231    0.0000 C    0  0  0  0  0  0  0  0  0  0  0  0
  2  1  3  0  0  0  0
  3  4  2  0  0  0  0
  4 13  1  0  0  0  0
  5  9  2  0  0  0  0
  6  3  1  0  0  0  0
  6  8  2  0  0  0  0
  7  4  1  0  0  0  0
  8 12  1  0  0  0  0
  9  8  1  0  0  0  0
 10  3  1  0  0  0  0
 11  5  1  0  0  0  0
 12  7  2  0  0  0  0
 13 14  1  0  0  0  0
 14  1  1  0  0  0  0
M  END
> <CdId>
1156

> <Mol Weight>
254.08

> <Formula>
C10H8BrNO2

> <Click_ID>
CLK015_H11 __ __ 

$$$$
