CLK011_D03
 OpenBabel03181404502D

 32 34  0  0  0  0  0  0  0  0999 V2000
    1.0292   -0.3667    0.0000 N    0  0  0  0  0  0  0  0  0  0  0  0
    1.7375   -1.6042    0.0000 C    0  0  0  0  0  0  0  0  0  0  0  0
    1.0292   -1.1917    0.0000 C    0  0  0  0  0  0  0  0  0  0  0  0
    1.7375    0.0458    0.0000 C    0  0  0  0  0  0  0  0  0  0  0  0
    2.4417   -0.3667    0.0000 N    0  0  0  0  0  0  0  0  0  0  0  0
    2.4417   -1.1917    0.0000 C    0  0  0  0  0  0  0  0  0  0  0  0
    1.7375   -2.4292    0.0000 C    0  0  0  0  0  0  0  0  0  0  0  0
    0.3125    0.0458    0.0000 C    0  0  0  0  0  0  0  0  0  0  0  0
    2.4542   -2.8375    0.0000 C    0  0  0  0  0  0  0  0  0  0  0  0
    3.8792   -2.8375    0.0000 C    0  0  0  0  0  0  0  0  0  0  0  0
    3.8792   -3.6667    0.0000 C    0  0  0  0  0  0  0  0  0  0  0  0
    3.1625   -4.0667    0.0000 C    0  0  0  0  0  0  0  0  0  0  0  0
    5.2917   -5.3250    0.0000 C    0  0  0  0  0  0  0  0  0  0  0  0
    1.7375    0.8708    0.0000 O    0  0  0  0  0  0  0  0  0  0  0  0
    6.0042   -5.7417    0.0000 C    0  0  0  0  0  0  0  0  0  0  0  0
    0.3125   -1.6042    0.0000 O    0  0  0  0  0  0  0  0  0  0  0  0
    3.1667   -2.4292    0.0000 C    0  0  0  0  0  0  0  0  0  0  0  0
    2.4417   -3.6667    0.0000 C    0  0  0  0  0  0  0  0  0  0  0  0
    3.1667   -1.6042    0.0000 O    0  0  0  0  0  0  0  0  0  0  0  0
   -0.4000   -0.3667    0.0000 C    0  0  0  0  0  0  0  0  0  0  0  0
    0.3125    0.8708    0.0000 C    0  0  0  0  0  0  0  0  0  0  0  0
    2.4667   -5.3042    0.0000 C    0  0  0  0  0  0  0  0  0  0  0  0
    2.4667   -6.1292    0.0000 C    0  0  0  0  0  0  0  0  0  0  0  0
   -1.1208    0.8708    0.0000 C    0  0  0  0  0  0  0  0  0  0  0  0
    4.5917   -2.4417    0.0000 O    0  0  0  0  0  0  0  0  0  0  0  0
    4.5875   -4.0792    0.0000 O    0  0  0  0  0  0  0  0  0  0  0  0
   -1.1208    0.0458    0.0000 C    0  0  0  0  0  0  0  0  0  0  0  0
   -0.4000    1.2833    0.0000 C    0  0  0  0  0  0  0  0  0  0  0  0
    3.1750   -4.8917    0.0000 C    0  0  0  0  0  0  0  0  0  0  0  0
   -1.8333    1.2833    0.0000 Br   0  0  0  0  0  0  0  0  0  0  0  0
    4.5792   -4.9042    0.0000 C    0  0  0  0  0  0  0  0  0  0  0  0
    4.5917   -1.6167    0.0000 C    0  0  0  0  0  0  0  0  0  0  0  0
  2  3  1  0  0  0  0
  2  6  1  0  0  0  0
  3  1  1  0  0  0  0
  4  1  1  0  0  0  0
  5  4  1  0  0  0  0
  6  5  1  0  0  0  0
  7  2  2  0  0  0  0
  8  1  1  0  0  0  0
  9  7  1  0  0  0  0
 10 17  1  0  0  0  0
 10 11  2  0  0  0  0
 11 12  1  0  0  0  0
 12 18  2  0  0  0  0
 13 31  1  0  0  0  0
 14  4  2  0  0  0  0
 15 13  3  0  0  0  0
 16  3  2  0  0  0  0
 17  9  2  0  0  0  0
 18  9  1  0  0  0  0
 19  6  2  0  0  0  0
 20  8  1  0  0  0  0
 21  8  2  0  0  0  0
 22 29  1  0  0  0  0
 23 22  2  0  0  0  0
 24 28  2  0  0  0  0
 25 10  1  0  0  0  0
 26 11  1  0  0  0  0
 27 20  2  0  0  0  0
 27 24  1  0  0  0  0
 28 21  1  0  0  0  0
 29 12  1  0  0  0  0
 30 24  1  0  0  0  0
 31 26  1  0  0  0  0
 32 25  1  0  0  0  0
M  END
> <CdId>
788

> <Mol Weight>
495.322

> <Formula>
C24H19BrN2O5

> <Click_ID>
CLK011_D03 __ __ 

$$$$
