CLK050B04
 OpenBabel03181404502D

 21 22  0  0  0  0  0  0  0  0999 V2000
   -1.4042   -0.0583    0.0000 C   0  0  0  0  0  0  0  0  0  0  0  0
   -2.1917    0.1958    0.0000 C   0  0  0  0  0  0  0  0  0  0  0  0
   -1.4042   -0.8833    0.0000 S   0  0  0  0  0  0  0  0  0  0  0  0
   -0.7375    0.4292    0.0000 N   0  0  0  0  0  0  0  0  0  0  0  0
   -2.6750   -0.4708    0.0000 C   0  0  0  0  0  0  0  0  0  0  0  0
   -2.1917   -1.1375    0.0000 C   0  0  0  0  0  0  0  0  0  0  0  0
    0.0167    0.0917    0.0000 C   0  0  0  0  0  0  0  0  0  0  0  0
   -2.4458    0.9833    0.0000 C   0  0  0  0  0  0  0  0  0  0  0  0
   -2.7000    1.7667    0.0000 N   0  0  0  0  0  0  0  0  0  0  0  0
    3.5250    0.8750    0.0000 C   0  0  0  0  0  0  0  0  0  0  0  0
    0.6833    0.5750    0.0000 N   0  0  0  0  0  0  0  0  0  0  0  0
    4.1917    1.3583    0.0000 C   0  0  0  0  0  0  0  0  0  0  0  0
    0.1000   -0.7292    0.0000 O   0  0  0  0  0  0  0  0  0  0  0  0
    1.4375    0.2417    0.0000 C   0  0  0  0  0  0  0  0  0  0  0  0
    2.8583    0.3917    0.0000 C   0  0  0  0  0  0  0  0  0  0  0  0
    2.1042    0.7250    0.0000 C   0  0  0  0  0  0  0  0  0  0  0  0
   -3.5000   -0.4708    0.0000 C   0  0  0  0  0  0  0  0  0  0  0  0
   -2.4458   -1.9208    0.0000 C   0  0  0  0  0  0  0  0  0  0  0  0
    2.2750   -0.9167    0.0000 C   0  0  0  0  0  0  0  0  0  0  0  0
    1.5208   -0.5792    0.0000 C   0  0  0  0  0  0  0  0  0  0  0  0
    2.9417   -0.4292    0.0000 C   0  0  0  0  0  0  0  0  0  0  0  0
  2  1  2  0  0  0  0
  3  1  1  0  0  0  0
  4  1  1  0  0  0  0
  5  2  1  0  0  0  0
  5  6  2  0  0  0  0
  6  3  1  0  0  0  0
  7  4  1  0  0  0  0
  8  2  1  0  0  0  0
  9  8  3  0  0  0  0
 10 15  1  0  0  0  0
 11  7  1  0  0  0  0
 12 10  3  0  0  0  0
 13  7  2  0  0  0  0
 14 11  1  0  0  0  0
 15 16  1  0  0  0  0
 16 14  2  0  0  0  0
 17  5  1  0  0  0  0
 18  6  1  0  0  0  0
 19 20  2  0  0  0  0
 20 14  1  0  0  0  0
 21 15  2  0  0  0  0
 21 19  1  0  0  0  0
M  END
> <CdId>
3826

> <Mol Weight>
295.359

> <Formula>
C16H13N3OS

> <Click_ID>
CLK050B04 __ __ 

$$$$
