CLK021_D03
 OpenBabel03181404502D

 25 26  0  0  0  0  0  0  0  0999 V2000
    5.9309    2.5162    0.0000 C    0  0  0  0  0  0  0  0  0  0  0  0
    3.0434    1.8012    0.0000 C    0  0  0  0  0  0  0  0  0  0  0  0
    5.5184    1.8012    0.0000 C    0  0  0  0  0  0  0  0  0  0  0  0
    3.4559    1.0954    0.0000 C    0  0  0  0  0  0  0  0  0  0  0  0
    3.4559    2.5162    0.0000 C    0  0  0  0  0  0  0  0  0  0  0  0
    4.6934    1.8012    0.0000 C    0  0  0  0  0  0  0  0  0  0  0  0
    6.7559    2.5162    0.0000 C    0  0  0  0  0  0  0  0  0  0  0  0
    7.5809    2.5162    0.0000 N    0  0  0  0  0  0  0  0  0  0  0  0
    0.9809    2.5162    0.0000 C    0  0  0  0  0  0  0  0  0  0  0  0
    0.1559    2.5162    0.0000 C    0  0  0  0  0  0  0  0  0  0  0  0
    5.5184    3.2312    0.0000 C    0  0  0  0  0  0  0  0  0  0  0  0
    4.2809    1.0954    0.0000 C    0  0  0  0  0  0  0  0  0  0  0  0
    4.2809    2.5162    0.0000 C    0  0  0  0  0  0  0  0  0  0  0  0
    5.9309    3.9462    0.0000 C    0  0  0  0  0  0  0  0  0  0  0  0
    4.6934    3.2312    0.0000 C    0  0  0  0  0  0  0  0  0  0  0  0
    3.0434    0.3804    0.0000 Cl   0  0  0  0  0  0  0  0  0  0  0  0
    2.2184    1.8012    0.0000 O    0  0  0  0  0  0  0  0  0  0  0  0
    4.6934    4.6521    0.0000 C    0  0  0  0  0  0  0  0  0  0  0  0
    3.0434    3.2312    0.0000 O    0  0  0  0  0  0  0  0  0  0  0  0
    4.2809    3.9462    0.0000 C    0  0  0  0  0  0  0  0  0  0  0  0
    5.5184    4.6521    0.0000 C    0  0  0  0  0  0  0  0  0  0  0  0
    4.2809    5.3671    0.0000 Br   0  0  0  0  0  0  0  0  0  0  0  0
    1.8059    2.5162    0.0000 C    0  0  0  0  0  0  0  0  0  0  0  0
    3.4559    3.9462    0.0000 C    0  0  0  0  0  0  0  0  0  0  0  0
    3.0434    4.6521    0.0000 C    0  0  0  0  0  0  0  0  0  0  0  0
  2  5  1  0  0  0  0
  2  4  2  0  0  0  0
  3  1  2  0  0  0  0
  4 12  1  0  0  0  0
  5 13  2  0  0  0  0
  6  3  1  0  0  0  0
  7  1  1  0  0  0  0
  8  7  3  0  0  0  0
  9 23  1  0  0  0  0
 10  9  3  0  0  0  0
 11  1  1  0  0  0  0
 12  6  2  0  0  0  0
 13  6  1  0  0  0  0
 14 11  1  0  0  0  0
 15 11  2  0  0  0  0
 16  4  1  0  0  0  0
 17  2  1  0  0  0  0
 18 20  2  0  0  0  0
 19  5  1  0  0  0  0
 20 15  1  0  0  0  0
 21 14  2  0  0  0  0
 21 18  1  0  0  0  0
 22 18  1  0  0  0  0
 23 17  1  0  0  0  0
 24 19  1  0  0  0  0
 25 24  1  0  0  0  0
M  END
> <CdId>
1588

> <Mol Weight>
416.696

> <Formula>
C20H15BrClNO2

> <Click_ID>
CLK021_D03 __ __ 

$$$$
