CLK037C10
 OpenBabel03181404502D

 28 29  0  0  0  0  0  0  0  0999 V2000
    1.2750    3.0083    0.0000 S   0  0  0  0  0  0  0  0  0  0  0  0
    1.2750    2.1833    0.0000 C   0  0  0  0  0  0  0  0  0  0  0  0
   -0.1542    0.5333    0.0000 C   0  0  0  0  0  0  0  0  0  0  0  0
    1.9875    5.0667    0.0000 C   0  0  0  0  0  0  0  0  0  0  0  0
    0.5583    0.9458    0.0000 C   0  0  0  0  0  0  0  0  0  0  0  0
    0.5583    1.7708    0.0000 C   0  0  0  0  0  0  0  0  0  0  0  0
    1.9875    5.8917    0.0000 C   0  0  0  0  0  0  0  0  0  0  0  0
    0.4500    3.0083    0.0000 O   0  0  0  0  0  0  0  0  0  0  0  0
    2.1000    3.0083    0.0000 O   0  0  0  0  0  0  0  0  0  0  0  0
   -0.8708   -1.5292    0.0000 C   0  0  0  0  0  0  0  0  0  0  0  0
   -1.5833   -1.9417    0.0000 N   0  0  0  0  0  0  0  0  0  0  0  0
   -2.3000   -4.0042    0.0000 C   0  0  0  0  0  0  0  0  0  0  0  0
    1.2750    3.8333    0.0000 N   0  0  0  0  0  0  0  0  0  0  0  0
   -0.1542   -0.2917    0.0000 O   0  0  0  0  0  0  0  0  0  0  0  0
   -1.5833   -2.7667    0.0000 C   0  0  0  0  0  0  0  0  0  0  0  0
   -2.3000   -3.1792    0.0000 C   0  0  0  0  0  0  0  0  0  0  0  0
   -1.5833   -4.4167    0.0000 C   0  0  0  0  0  0  0  0  0  0  0  0
   -0.8708    0.9458    0.0000 O   0  0  0  0  0  0  0  0  0  0  0  0
   -0.1542   -1.9417    0.0000 O   0  0  0  0  0  0  0  0  0  0  0  0
   -0.8708   -4.0042    0.0000 C   0  0  0  0  0  0  0  0  0  0  0  0
   -0.8708   -0.7042    0.0000 C   0  0  0  0  0  0  0  0  0  0  0  0
   -0.8708   -3.1792    0.0000 C   0  0  0  0  0  0  0  0  0  0  0  0
    1.9875    4.2417    0.0000 C   0  0  0  0  0  0  0  0  0  0  0  0
    1.9875    1.7708    0.0000 C   0  0  0  0  0  0  0  0  0  0  0  0
    1.2750    0.5333    0.0000 C   0  0  0  0  0  0  0  0  0  0  0  0
    1.9875    0.9458    0.0000 C   0  0  0  0  0  0  0  0  0  0  0  0
   -3.0125   -4.4167    0.0000 C   0  0  0  0  0  0  0  0  0  0  0  0
   -1.5833   -5.2417    0.0000 C   0  0  0  0  0  0  0  0  0  0  0  0
  2  1  1  0  0  0  0
  3  5  1  0  0  0  0
  4 23  1  0  0  0  0
  5  6  2  0  0  0  0
  6  2  1  0  0  0  0
  7  4  3  0  0  0  0
  8  1  2  0  0  0  0
  9  1  2  0  0  0  0
 10 21  1  0  0  0  0
 11 10  1  0  0  0  0
 12 16  1  0  0  0  0
 13  1  1  0  0  0  0
 14  3  1  0  0  0  0
 15 11  1  0  0  0  0
 16 15  2  0  0  0  0
 17 12  2  0  0  0  0
 18  3  2  0  0  0  0
 19 10  2  0  0  0  0
 20 22  2  0  0  0  0
 20 17  1  0  0  0  0
 21 14  1  0  0  0  0
 22 15  1  0  0  0  0
 23 13  1  0  0  0  0
 24  2  2  0  0  0  0
 25  5  1  0  0  0  0
 26 24  1  0  0  0  0
 26 25  2  0  0  0  0
 27 12  1  0  0  0  0
 28 17  1  0  0  0  0
M  END
> <CdId>
2835

> <Mol Weight>
400.448

> <Formula>
C20H20N2O5S

> <Click_ID>
CLK037C10 __ __ 

$$$$
