CLK009_E08
 OpenBabel03181404502D

 17 17  0  0  0  0  0  0  0  0999 V2000
   -2.5164   -0.2750    0.0000 N   0  3  0  0  0  0  0  0  0  0  0  0
   -2.1024    0.4347    0.0000 C   0  0  0  0  0  0  0  0  0  0  0  0
    2.8151   -0.9847    0.0000 C   0  0  0  0  0  0  0  0  0  0  0  0
    3.2409   -1.6944    0.0000 C   0  0  0  0  0  0  0  0  0  0  0  0
    0.3667    0.4347    0.0000 C   0  0  0  0  0  0  0  0  0  0  0  0
    1.1917    0.4347    0.0000 C   0  0  0  0  0  0  0  0  0  0  0  0
   -3.3325   -0.2602    0.0000 O   0  5  0  0  0  0  0  0  0  0  0  0
   -2.1024   -0.9699    0.0000 O   0  0  0  0  0  0  0  0  0  0  0  0
   -0.0355    1.1502    0.0000 C   0  0  0  0  0  0  0  0  0  0  0  0
   -1.2774    0.4347    0.0000 C   0  0  0  0  0  0  0  0  0  0  0  0
    1.6086    1.1502    0.0000 O   0  0  0  0  0  0  0  0  0  0  0  0
   -0.8605    1.1502    0.0000 C   0  0  0  0  0  0  0  0  0  0  0  0
    1.5968   -0.2750    0.0000 O   0  0  0  0  0  0  0  0  0  0  0  0
    2.4129   -0.2750    0.0000 C   0  0  0  0  0  0  0  0  0  0  0  0
   -2.5075    1.1502    0.0000 C   0  0  0  0  0  0  0  0  0  0  0  0
   -2.0906    1.8688    0.0000 C   0  0  0  0  0  0  0  0  0  0  0  0
   -1.2656    1.8688    0.0000 C   0  0  0  0  0  0  0  0  0  0  0  0
  2  1  1  0  0  0  0
  3 14  1  0  0  0  0
  4  3  3  0  0  0  0
  5  9  2  0  0  0  0
  6  5  1  0  0  0  0
  7  1  1  0  0  0  0
  8  1  2  0  0  0  0
  9 12  1  0  0  0  0
 10  2  2  0  0  0  0
 11  6  2  0  0  0  0
 12 10  1  0  0  0  0
 12 17  2  0  0  0  0
 13  6  1  0  0  0  0
 14 13  1  0  0  0  0
 15  2  1  0  0  0  0
 16 15  2  0  0  0  0
 17 16  1  0  0  0  0
M  END
> <CdId>
643

> <Mol Weight>
231.2042

> <Formula>
C12H9NO4

> <Click_ID>
CLK009_E08 __ __ 

$$$$
