CLK042E09
 OpenBabel03181404502D

 23 24  0  0  0  0  0  0  0  0999 V2000
    0.8125    0.3292    0.0000 N   0  0  0  0  0  0  0  0  0  0  0  0
    1.5292    0.7417    0.0000 C   0  0  0  0  0  0  0  0  0  0  0  0
    0.1000   -0.9083    0.0000 C   0  0  0  0  0  0  0  0  0  0  0  0
    0.1000    1.5667    0.0000 C   0  0  0  0  0  0  0  0  0  0  0  0
    0.1000    0.7417    0.0000 C   0  0  0  0  0  0  0  0  0  0  0  0
   -1.3292   -2.5583    0.0000 C   0  0  0  0  0  0  0  0  0  0  0  0
    1.9417    1.4583    0.0000 C   0  0  0  0  0  0  0  0  0  0  0  0
    2.3542    0.7417    0.0000 C   0  0  0  0  0  0  0  0  0  0  0  0
   -2.0458   -2.9708    0.0000 C   0  0  0  0  0  0  0  0  0  0  0  0
    0.8125   -0.4958    0.0000 C   0  0  0  0  0  0  0  0  0  0  0  0
    0.1000   -1.7333    0.0000 N   0  0  0  0  0  0  0  0  0  0  0  0
   -0.6167   -2.1458    0.0000 C   0  0  0  0  0  0  0  0  0  0  0  0
   -0.6167    1.9792    0.0000 C   0  0  0  0  0  0  0  0  0  0  0  0
   -0.6167   -0.4958    0.0000 O   0  0  0  0  0  0  0  0  0  0  0  0
   -1.3292    1.5667    0.0000 F   0  0  0  0  0  0  0  0  0  0  0  0
    0.8125    1.9792    0.0000 C   0  0  0  0  0  0  0  0  0  0  0  0
   -1.0292   -1.4292    0.0000 C   0  0  0  0  0  0  0  0  0  0  0  0
   -0.2042   -2.8583    0.0000 C   0  0  0  0  0  0  0  0  0  0  0  0
   -0.6167    2.8042    0.0000 C   0  0  0  0  0  0  0  0  0  0  0  0
   -0.6167   -3.5750    0.0000 C   0  0  0  0  0  0  0  0  0  0  0  0
   -0.6167   -0.7167    0.0000 C   0  0  0  0  0  0  0  0  0  0  0  0
    0.8125    2.8042    0.0000 C   0  0  0  0  0  0  0  0  0  0  0  0
    0.1000    3.2167    0.0000 C   0  0  0  0  0  0  0  0  0  0  0  0
  2  1  1  0  0  0  0
  3 10  1  0  0  0  0
  4  5  1  0  0  0  0
  5  1  1  0  0  0  0
  6 12  1  0  0  0  0
  7  2  1  0  0  0  0
  7  8  1  0  0  0  0
  8  2  1  0  0  0  0
  9  6  3  0  0  0  0
 10  1  1  0  0  0  0
 11  3  1  0  0  0  0
 12 11  1  0  0  0  0
 13  4  2  0  0  0  0
 14  3  2  0  0  0  0
 15 13  1  0  0  0  0
 16  4  1  0  0  0  0
 17 12  1  0  0  0  0
 18 12  1  0  0  0  0
 19 13  1  0  0  0  0
 20 18  1  0  0  0  0
 21 17  1  0  0  0  0
 22 16  2  0  0  0  0
 23 19  2  0  0  0  0
 23 22  1  0  0  0  0
M  END
> <CdId>
3229

> <Mol Weight>
316.413

> <Formula>
C19H25FN2O

> <Click_ID>
CLK042E09 __ __ 

$$$$
