CLK049D05
 OpenBabel03181404502D

 16 16  0  0  0  0  0  0  0  0999 V2000
   -0.4500    1.2917    0.0000 C   0  0  0  0  0  0  0  0  0  0  0  0
    0.9792    2.9417    0.0000 C   0  0  0  0  0  0  0  0  0  0  0  0
    1.6958    3.3542    0.0000 C   0  0  0  0  0  0  0  0  0  0  0  0
   -0.4500    0.4667    0.0000 C   0  0  0  0  0  0  0  0  0  0  0  0
   -1.1625    1.7042    0.0000 O   0  0  0  0  0  0  0  0  0  0  0  0
    0.2667    1.7042    0.0000 N   0  0  0  0  0  0  0  0  0  0  0  0
   -1.1625    0.0542    0.0000 C   0  0  0  0  0  0  0  0  0  0  0  0
    0.2667    0.0542    0.0000 C   0  0  0  0  0  0  0  0  0  0  0  0
    0.2667   -3.2458    0.0000 C   0  0  0  0  0  0  0  0  0  0  0  0
    0.9792   -3.6583    0.0000 C   0  0  0  0  0  0  0  0  0  0  0  0
   -0.4500   -1.1833    0.0000 C   0  0  0  0  0  0  0  0  0  0  0  0
   -1.1625   -0.7708    0.0000 C   0  0  0  0  0  0  0  0  0  0  0  0
    0.2667   -0.7708    0.0000 C   0  0  0  0  0  0  0  0  0  0  0  0
    0.2667    2.5292    0.0000 C   0  0  0  0  0  0  0  0  0  0  0  0
   -0.4500   -2.0083    0.0000 O   0  0  0  0  0  0  0  0  0  0  0  0
    0.2667   -2.4208    0.0000 C   0  0  0  0  0  0  0  0  0  0  0  0
  2 14  1  0  0  0  0
  3  2  3  0  0  0  0
  4  1  1  0  0  0  0
  5  1  2  0  0  0  0
  6  1  1  0  0  0  0
  7  4  2  0  0  0  0
  8  4  1  0  0  0  0
  9 16  1  0  0  0  0
 10  9  2  0  0  0  0
 11 12  2  0  0  0  0
 12  7  1  0  0  0  0
 13  8  2  0  0  0  0
 13 11  1  0  0  0  0
 14  6  1  0  0  0  0
 15 11  1  0  0  0  0
 16 15  1  0  0  0  0
M  END
> <CdId>
3756

> <Mol Weight>
215.2478

> <Formula>
C13H13NO2

> <Click_ID>
CLK049D05 __ __ 

$$$$
