CLK021_D09
 OpenBabel03181404502D

 26 28  0  0  0  0  0  0  0  0999 V2000
    2.2263    1.7819    0.0000 C   0  0  3  0  0  0  0  0  0  0  0  0
    2.8905    1.2918    0.0000 C   0  0  0  0  0  0  0  0  0  0  0  0
    3.5593    1.7819    0.0000 N   0  0  0  0  0  0  0  0  0  0  0  0
    2.4782    2.5652    0.0000 C   0  0  0  0  0  0  0  0  0  0  0  0
    3.3028    2.5652    0.0000 C   0  0  0  0  0  0  0  0  0  0  0  0
    1.4704    2.1117    0.0000 C   0  0  0  0  0  0  0  0  0  0  0  0
    0.1008    1.7178    0.0000 C   0  0  0  0  0  0  0  0  0  0  0  0
    0.8979    1.5208    0.0000 C   0  0  0  0  0  0  0  0  0  0  0  0
   -0.4764    1.1223    0.0000 C   0  0  0  0  0  0  0  0  0  0  0  0
   -0.1328    2.5102    0.0000 C   0  0  0  0  0  0  0  0  0  0  0  0
    4.8511    2.1713    0.0000 C   0  0  0  0  0  0  0  0  0  0  0  0
   -1.2734    1.3284    0.0000 C   0  0  0  0  0  0  0  0  0  0  0  0
   -0.9299    2.7164    0.0000 C   0  0  0  0  0  0  0  0  0  0  0  0
    5.3595    2.8263    0.0000 C   0  0  0  0  0  0  0  0  0  0  0  0
   -1.5070    2.1163    0.0000 C   0  0  0  0  0  0  0  0  0  0  0  0
    2.8905    0.4672    0.0000 O   0  0  0  0  0  0  0  0  0  0  0  0
    1.0582    0.9620    0.0000 O   0  0  0  0  0  0  0  0  0  0  0  0
    4.3426    1.5208    0.0000 C   0  0  0  0  0  0  0  0  0  0  0  0
    1.8140    1.0673    0.0000 O   0  0  0  0  0  0  0  0  0  0  0  0
    2.0660    3.2798    0.0000 C   0  0  0  0  0  0  0  0  0  0  0  0
    3.7151    3.2798    0.0000 C   0  0  0  0  0  0  0  0  0  0  0  0
    0.4444    3.1012    0.0000 C   0  0  0  0  0  0  0  0  0  0  0  0
   -1.8506    0.7375    0.0000 C   0  0  0  0  0  0  0  0  0  0  0  0
   -2.3041    2.3178    0.0000 C   0  0  0  0  0  0  0  0  0  0  0  0
    2.4782    3.9944    0.0000 C   0  0  0  0  0  0  0  0  0  0  0  0
    3.3028    3.9944    0.0000 C   0  0  0  0  0  0  0  0  0  0  0  0
  2  1  1  0  0  0  0
  3  2  1  0  0  0  0
  3  5  1  0  0  0  0
  4  1  1  0  0  0  0
  5  4  2  0  0  0  0
  6  1  1  0  0  0  0
  7  8  1  0  0  0  0
  8  6  1  0  0  0  0
  9  7  1  0  0  0  0
 10  7  2  0  0  0  0
 11 18  1  0  0  0  0
 12  9  2  0  0  0  0
 13 10  1  0  0  0  0
 14 11  3  0  0  0  0
 15 13  2  0  0  0  0
 15 12  1  0  0  0  0
 16  2  2  0  0  0  0
 17  8  2  0  0  0  0
 18  3  1  0  0  0  0
 19  1  1  0  0  0  0
 20  4  1  0  0  0  0
 21  5  1  0  0  0  0
 21 26  2  0  0  0  0
 22 10  1  0  0  0  0
 23 12  1  0  0  0  0
 24 15  1  0  0  0  0
 25 20  2  0  0  0  0
 26 25  1  0  0  0  0
M  END
> <CdId>
1594

> <Mol Weight>
347.407

> <Formula>
C22H21NO3

> <Click_ID>
CLK021_D09 __ __ 

$$$$
