CLK028_G07
 OpenBabel03181404502D

 14 14  0  0  0  0  0  0  0  0999 V2000
   -0.7116    0.6187    0.0000 C    0  0  0  0  0  0  0  0  0  0  0  0
    0.0035    0.2062    0.0000 C    0  0  0  0  0  0  0  0  0  0  0  0
   -0.7081    1.4437    0.0000 C    0  0  0  0  0  0  0  0  0  0  0  0
   -2.1450   -1.0278    0.0000 C    0  0  0  0  0  0  0  0  0  0  0  0
   -2.1450   -1.8528    0.0000 C    0  0  0  0  0  0  0  0  0  0  0  0
    0.7184    0.6187    0.0000 C    0  0  0  0  0  0  0  0  0  0  0  0
    0.0068    1.8562    0.0000 C    0  0  0  0  0  0  0  0  0  0  0  0
    0.7184    1.4437    0.0000 C    0  0  0  0  0  0  0  0  0  0  0  0
    2.1415    1.4437    0.0000 O    0  0  0  0  0  0  0  0  0  0  0  0
    0.0035   -0.6187    0.0000 Br   0  0  0  0  0  0  0  0  0  0  0  0
   -1.4231    1.8562    0.0000 Br   0  0  0  0  0  0  0  0  0  0  0  0
    1.4266    1.8562    0.0000 C    0  0  0  0  0  0  0  0  0  0  0  0
   -1.4300    0.2062    0.0000 O    0  0  0  0  0  0  0  0  0  0  0  0
   -1.4300   -0.6153    0.0000 C    0  0  0  0  0  0  0  0  0  0  0  0
  2  1  2  0  0  0  0
  3  1  1  0  0  0  0
  4 14  1  0  0  0  0
  5  4  3  0  0  0  0
  6  2  1  0  0  0  0
  7  3  2  0  0  0  0
  8  7  1  0  0  0  0
  8  6  2  0  0  0  0
  9 12  2  0  0  0  0
 10  2  1  0  0  0  0
 11  3  1  0  0  0  0
 12  8  1  0  0  0  0
 13  1  1  0  0  0  0
 14 13  1  0  0  0  0
M  END
> <CdId>
2151

> <Mol Weight>
317.961

> <Formula>
C10H6Br2O2

> <Click_ID>
CLK028_G07 __ __ 

$$$$
