CLK038G10
 OpenBabel03181404502D

 19 20  0  0  0  0  0  0  0  0999 V2000
    0.8042    0.5083    0.0000 C   0  0  0  0  0  0  0  0  0  0  0  0
    0.3208   -0.1583    0.0000 C   0  0  0  0  0  0  0  0  0  0  0  0
   -0.4625    0.0958    0.0000 C   0  0  0  0  0  0  0  0  0  0  0  0
   -0.4625    0.9208    0.0000 C   0  0  0  0  0  0  0  0  0  0  0  0
    0.3208    1.1750    0.0000 S   0  0  0  0  0  0  0  0  0  0  0  0
   -1.1792   -0.3167    0.0000 C   0  0  0  0  0  0  0  0  0  0  0  0
   -1.1792    1.3333    0.0000 N   0  0  0  0  0  0  0  0  0  0  0  0
    1.6292    0.5083    0.0000 C   0  0  0  0  0  0  0  0  0  0  0  0
   -1.8917    0.0958    0.0000 N   0  0  0  0  0  0  0  0  0  0  0  0
   -1.8917   -2.3792    0.0000 C   0  0  0  0  0  0  0  0  0  0  0  0
   -1.8917   -3.2042    0.0000 C   0  0  0  0  0  0  0  0  0  0  0  0
   -1.8917    0.9208    0.0000 C   0  0  0  0  0  0  0  0  0  0  0  0
    2.0417   -0.2042    0.0000 O   0  0  0  0  0  0  0  0  0  0  0  0
   -1.1792   -1.1417    0.0000 N   0  0  0  0  0  0  0  0  0  0  0  0
    0.5750   -0.9417    0.0000 C   0  0  0  0  0  0  0  0  0  0  0  0
    2.0417    1.2208    0.0000 O   0  0  0  0  0  0  0  0  0  0  0  0
   -1.8917   -1.5542    0.0000 C   0  0  0  0  0  0  0  0  0  0  0  0
    2.8667    1.2208    0.0000 C   0  0  0  0  0  0  0  0  0  0  0  0
    3.2792    1.9375    0.0000 C   0  0  0  0  0  0  0  0  0  0  0  0
  2  1  2  0  0  0  0
  3  2  1  0  0  0  0
  3  4  2  0  0  0  0
  4  5  1  0  0  0  0
  5  1  1  0  0  0  0
  6  3  1  0  0  0  0
  7  4  1  0  0  0  0
  8  1  1  0  0  0  0
  9  6  2  0  0  0  0
  9 12  1  0  0  0  0
 10 17  1  0  0  0  0
 11 10  3  0  0  0  0
 12  7  2  0  0  0  0
 13  8  2  0  0  0  0
 14  6  1  0  0  0  0
 15  2  1  0  0  0  0
 16  8  1  0  0  0  0
 17 14  1  0  0  0  0
 18 16  1  0  0  0  0
 19 18  1  0  0  0  0
M  END
> <CdId>
2919

> <Mol Weight>
275.326

> <Formula>
C13H13N3O2S

> <Click_ID>
CLK038G10 __ __ 

$$$$
