CLK019_H05
 OpenBabel03181404502D

 21 22  0  0  0  0  0  0  0  0999 V2000
   -0.2973   -2.7445    0.0000 C    0  0  0  0  0  0  0  0  0  0  0  0
   -0.7227   -3.4489    0.0000 C    0  0  0  0  0  0  0  0  0  0  0  0
    2.2002   -1.3585    0.0000 C    0  0  0  0  0  0  0  0  0  0  0  0
    4.6702   -2.8863    0.0000 N    0  0  0  0  0  0  0  0  0  0  0  0
    1.7748   -2.0630    0.0000 C    0  0  0  0  0  0  0  0  0  0  0  0
    5.5759   -2.9091    0.0000 C    0  0  0  0  0  0  0  0  0  0  0  0
    3.0235   -1.3722    0.0000 C    0  0  0  0  0  0  0  0  0  0  0  0
    6.0104   -3.7097    0.0000 C    0  0  0  0  0  0  0  0  0  0  0  0
    2.1727   -2.7856    0.0000 C    0  0  0  0  0  0  0  0  0  0  0  0
    3.4215   -2.0904    0.0000 C    0  0  0  0  0  0  0  0  0  0  0  0
    4.2448   -2.1041    0.0000 C    0  0  0  0  0  0  0  0  0  0  0  0
    5.5759   -4.4095    0.0000 Cl   0  0  0  0  0  0  0  0  0  0  0  0
    2.9961   -2.7994    0.0000 C    0  0  0  0  0  0  0  0  0  0  0  0
    1.7976   -0.6358    0.0000 O    0  0  0  0  0  0  0  0  0  0  0  0
    0.9515   -2.0492    0.0000 O    0  0  0  0  0  0  0  0  0  0  0  0
    0.5261   -2.7582    0.0000 C    0  0  0  0  0  0  0  0  0  0  0  0
    6.0562   -2.1407    0.0000 C    0  0  0  0  0  0  0  0  0  0  0  0
    6.9161   -3.7325    0.0000 C    0  0  0  0  0  0  0  0  0  0  0  0
    2.2139    0.0640    0.0000 C    0  0  0  0  0  0  0  0  0  0  0  0
    7.3873   -2.9640    0.0000 C    0  0  0  0  0  0  0  0  0  0  0  0
    6.9619   -2.1681    0.0000 C    0  0  0  0  0  0  0  0  0  0  0  0
  2  1  3  0  0  0  0
  3  5  1  0  0  0  0
  4 11  1  0  0  0  0
  5 15  1  0  0  0  0
  6  4  1  0  0  0  0
  7  3  2  0  0  0  0
  8  6  2  0  0  0  0
  9  5  2  0  0  0  0
 10 13  2  0  0  0  0
 10  7  1  0  0  0  0
 11 10  1  0  0  0  0
 12  8  1  0  0  0  0
 13  9  1  0  0  0  0
 14  3  1  0  0  0  0
 15 16  1  0  0  0  0
 16  1  1  0  0  0  0
 17  6  1  0  0  0  0
 18  8  1  0  0  0  0
 18 20  2  0  0  0  0
 19 14  1  0  0  0  0
 20 21  1  0  0  0  0
 21 17  2  0  0  0  0
M  END
> <CdId>
1470

> <Mol Weight>
301.767

> <Formula>
C17H16ClNO2

> <Click_ID>
CLK019_H05 __ __ 

$$$$
