CLK044E03
 OpenBabel03181404502D

 29 31  0  0  0  0  0  0  0  0999 V2000
    1.0583    2.8333    0.0000 S   0  0  0  0  0  0  0  0  0  0  0  0
   -1.0875   -3.3542    0.0000 C   0  0  0  0  0  0  0  0  0  0  0  0
   -0.3708   -2.9417    0.0000 N   0  0  0  0  0  0  0  0  0  0  0  0
   -0.3708   -2.1167    0.0000 C   0  0  0  0  0  0  0  0  0  0  0  0
   -1.0875   -1.7042    0.0000 N   0  0  0  0  0  0  0  0  0  0  0  0
   -1.8000   -2.9417    0.0000 C   0  0  0  0  0  0  0  0  0  0  0  0
    1.0583   -0.4667    0.0000 C   0  0  0  0  0  0  0  0  0  0  0  0
   -1.8000   -2.1167    0.0000 C   0  0  0  0  0  0  0  0  0  0  0  0
    0.3417   -0.8792    0.0000 N   0  0  0  0  0  0  0  0  0  0  0  0
    1.0583    2.0083    0.0000 C   0  0  0  0  0  0  0  0  0  0  0  0
    0.3417   -1.7042    0.0000 C   0  0  0  0  0  0  0  0  0  0  0  0
    1.7708    4.8917    0.0000 C   0  0  0  0  0  0  0  0  0  0  0  0
    1.7708    5.7167    0.0000 C   0  0  0  0  0  0  0  0  0  0  0  0
    0.2333    2.8333    0.0000 O   0  0  0  0  0  0  0  0  0  0  0  0
    1.8833    2.8333    0.0000 O   0  0  0  0  0  0  0  0  0  0  0  0
    1.0583    0.3583    0.0000 C   0  0  0  0  0  0  0  0  0  0  0  0
    1.0583    3.6583    0.0000 N   0  0  0  0  0  0  0  0  0  0  0  0
   -1.0875   -4.1792    0.0000 O   0  0  0  0  0  0  0  0  0  0  0  0
    1.7708   -0.8792    0.0000 O   0  0  0  0  0  0  0  0  0  0  0  0
    1.7708    1.5958    0.0000 C   0  0  0  0  0  0  0  0  0  0  0  0
    0.3417    1.5958    0.0000 C   0  0  0  0  0  0  0  0  0  0  0  0
    1.7708    0.7708    0.0000 C   0  0  0  0  0  0  0  0  0  0  0  0
    0.3417    0.7708    0.0000 C   0  0  0  0  0  0  0  0  0  0  0  0
    1.7708    4.0667    0.0000 C   0  0  0  0  0  0  0  0  0  0  0  0
   -2.5167   -3.3542    0.0000 C   0  0  0  0  0  0  0  0  0  0  0  0
   -0.3708   -0.4667    0.0000 C   0  0  0  0  0  0  0  0  0  0  0  0
   -2.5167   -1.7042    0.0000 C   0  0  0  0  0  0  0  0  0  0  0  0
   -3.2292   -2.9417    0.0000 C   0  0  0  0  0  0  0  0  0  0  0  0
   -3.2292   -2.1167    0.0000 C   0  0  0  0  0  0  0  0  0  0  0  0
  2  3  1  0  0  0  0
  3  4  1  0  0  0  0
  4 11  1  0  0  0  0
  5  4  2  0  0  0  0
  6  2  1  0  0  0  0
  6  8  2  0  0  0  0
  7 16  1  0  0  0  0
  8  5  1  0  0  0  0
  9  7  1  0  0  0  0
 10  1  1  0  0  0  0
 11  9  1  0  0  0  0
 12 24  1  0  0  0  0
 13 12  3  0  0  0  0
 14  1  2  0  0  0  0
 15  1  2  0  0  0  0
 16 23  2  0  0  0  0
 17  1  1  0  0  0  0
 18  2  2  0  0  0  0
 19  7  2  0  0  0  0
 20 10  1  0  0  0  0
 21 10  2  0  0  0  0
 22 20  2  0  0  0  0
 22 16  1  0  0  0  0
 23 21  1  0  0  0  0
 24 17  1  0  0  0  0
 25  6  1  0  0  0  0
 26  9  1  0  0  0  0
 27  8  1  0  0  0  0
 28 25  2  0  0  0  0
 28 29  1  0  0  0  0
 29 27  2  0  0  0  0
M  END
> <CdId>
3341

> <Mol Weight>
410.446

> <Formula>
C20H18N4O4S

> <Click_ID>
CLK044E03 __ __ 

$$$$
