CLK041F06
 OpenBabel03181404502D

 24 25  0  0  0  0  0  0  0  0999 V2000
   -0.4251    1.1585    0.0000 O   0  0  0  0  0  0  0  0  0  0  0  0
    0.0583    1.8253    0.0000 C   0  0  0  0  0  0  0  0  0  0  0  0
    0.8459    1.5710    0.0000 N   0  0  0  0  0  0  0  0  0  0  0  0
    0.0583    0.4876    0.0000 C   0  0  0  0  0  0  0  0  0  0  0  0
    0.8459    0.7459    0.0000 N   0  0  0  0  0  0  0  0  0  0  0  0
    0.1417   -3.8755    0.0000 C   0  0  0  0  0  0  0  0  0  0  0  0
   -0.1125   -4.6590    0.0000 C   0  0  0  0  0  0  0  0  0  0  0  0
   -0.1958    2.6087    0.0000 C   0  0  0  0  0  0  0  0  0  0  0  0
    0.1000   -1.6919    0.0000 C   0  0  0  0  0  0  0  0  0  0  0  0
    0.6543   -2.3045    0.0000 N   0  0  0  0  0  0  0  0  0  0  0  0
   -0.1958   -0.2958    0.0000 S   0  0  0  0  0  0  0  0  0  0  0  0
    0.4001   -3.0921    0.0000 C   0  0  0  0  0  0  0  0  0  0  0  0
   -0.7043   -1.8670    0.0000 O   0  0  0  0  0  0  0  0  0  0  0  0
    0.3584    3.2213    0.0000 C   0  0  0  0  0  0  0  0  0  0  0  0
   -1.0043    2.7796    0.0000 C   0  0  0  0  0  0  0  0  0  0  0  0
    0.3584   -0.9084    0.0000 C   0  0  0  0  0  0  0  0  0  0  0  0
   -0.7043    4.1756    0.0000 C   0  0  0  0  0  0  0  0  0  0  0  0
   -1.2585    3.5672    0.0000 C   0  0  0  0  0  0  0  0  0  0  0  0
    0.1000    4.0048    0.0000 C   0  0  0  0  0  0  0  0  0  0  0  0
   -0.9626    4.9590    0.0000 F   0  0  0  0  0  0  0  0  0  0  0  0
   -0.3876   -2.8379    0.0000 C   0  0  0  0  0  0  0  0  0  0  0  0
    1.1835   -3.3463    0.0000 C   0  0  0  0  0  0  0  0  0  0  0  0
   -0.5584   -2.0295    0.0000 C   0  0  0  0  0  0  0  0  0  0  0  0
    1.3544   -4.1548    0.0000 C   0  0  0  0  0  0  0  0  0  0  0  0
  2  1  1  0  0  0  0
  3  2  2  0  0  0  0
  3  5  1  0  0  0  0
  4  1  1  0  0  0  0
  5  4  2  0  0  0  0
  6 12  1  0  0  0  0
  7  6  3  0  0  0  0
  8  2  1  0  0  0  0
  9 16  1  0  0  0  0
 10  9  1  0  0  0  0
 11  4  1  0  0  0  0
 12 10  1  0  0  0  0
 13  9  2  0  0  0  0
 14  8  1  0  0  0  0
 15  8  2  0  0  0  0
 16 11  1  0  0  0  0
 17 18  2  0  0  0  0
 17 19  1  0  0  0  0
 18 15  1  0  0  0  0
 19 14  2  0  0  0  0
 20 17  1  0  0  0  0
 21 12  1  0  0  0  0
 22 12  1  0  0  0  0
 23 21  1  0  0  0  0
 24 22  1  0  0  0  0
M  END
> <CdId>
3126

> <Mol Weight>
347.407

> <Formula>
C17H18FN3O2S

> <Click_ID>
CLK041F06 __ __ 

$$$$
