CLK001_B05
 OpenBabel03181404502D

 28 31  0  0  0  0  0  0  0  0999 V2000
   -0.3848   -0.3236    0.0000 N   0  0  0  0  0  0  0  0  0  0  0  0
    0.3279    0.0918    0.0000 N   0  0  0  0  0  0  0  0  0  0  0  0
   -1.0976    0.0918    0.0000 C   0  0  3  0  0  0  0  0  0  0  0  0
   -0.3848   -1.1283    0.0000 C   0  0  0  0  0  0  0  0  0  0  0  0
    0.3279    0.8965    0.0000 C   0  0  3  0  0  0  0  0  0  0  0  0
    1.0583   -0.2886    0.0000 C   0  0  0  0  0  0  0  0  0  0  0  0
   -1.0976    0.9270    0.0000 C   0  0  0  0  0  0  0  0  0  0  0  0
   -1.8017   -0.3236    0.0000 C   0  0  0  0  0  0  0  0  0  0  0  0
   -1.5130   -1.1501    0.0000 C   0  0  0  0  0  0  0  0  0  0  0  0
    0.3279   -1.5436    0.0000 C   0  0  0  0  0  0  0  0  0  0  0  0
   -0.8527   -2.0160    0.0000 O   0  0  0  0  0  0  0  0  0  0  0  0
   -0.3848    1.3075    0.0000 C   0  0  0  0  0  0  0  0  0  0  0  0
    1.0888    1.3075    0.0000 C   0  0  3  0  0  0  0  0  0  0  0  0
    1.0583   -1.1283    0.0000 C   0  0  0  0  0  0  0  0  0  0  0  0
    2.2564   -0.6035    0.0000 O   0  0  0  0  0  0  0  0  0  0  0  0
   -1.8017    1.3075    0.0000 C   0  0  0  0  0  0  0  0  0  0  0  0
   -2.5145    0.0918    0.0000 C   0  0  0  0  0  0  0  0  0  0  0  0
    0.3279   -2.3395    0.0000 C   0  0  0  0  0  0  0  0  0  0  0  0
    1.7711    1.7054    0.0000 C   0  0  0  0  0  0  0  0  0  0  0  0
    0.5903    2.0203    0.0000 C   0  0  0  0  0  0  0  0  0  0  0  0
    1.6268    0.5466    0.0000 O   0  0  0  0  0  0  0  0  0  0  0  0
    1.7711   -1.5436    0.0000 C   0  0  0  0  0  0  0  0  0  0  0  0
   -2.5145    0.8965    0.0000 C   0  0  0  0  0  0  0  0  0  0  0  0
   -1.3119    2.0991    0.0000 C   0  0  0  0  0  0  0  0  0  0  0  0
   -2.1602    2.0991    0.0000 C   0  0  0  0  0  0  0  0  0  0  0  0
    1.0583   -2.7594    0.0000 C   0  0  0  0  0  0  0  0  0  0  0  0
    2.4838    2.0991    0.0000 C   0  0  0  0  0  0  0  0  0  0  0  0
    1.7711   -2.3395    0.0000 C   0  0  0  0  0  0  0  0  0  0  0  0
  1  2  1  0  0  0  0
  1  3  1  0  0  0  0
  1  4  1  0  0  0  0
  2  5  1  0  0  0  0
  2  6  1  0  0  0  0
  3  7  1  0  0  0  0
  3  8  1  0  0  0  0
  3  9  1  0  0  0  0
  4 10  1  0  0  0  0
  4 11  2  0  0  0  0
  5 12  1  0  0  0  0
  5 13  1  0  0  0  0
  6 14  1  0  0  0  0
  6 15  2  0  0  0  0
  7 16  1  0  0  0  0
  7 12  2  0  0  0  0
  8 17  1  0  0  0  0
 10 18  1  0  0  0  0
 10 14  2  0  0  0  0
 13 19  1  0  0  0  0
 13 20  1  0  0  0  0
 13 21  1  0  0  0  0
 14 22  1  0  0  0  0
 16 23  1  0  0  0  0
 16 24  1  0  0  0  0
 16 25  1  0  0  0  0
 17 23  1  0  0  0  0
 18 26  2  0  0  0  0
 19 27  3  0  0  0  0
 22 28  2  0  0  0  0
 26 28  1  0  0  0  0
M  END
> <CdId>
14

> <Mol Weight>
378.4641

> <Formula>
C23H26N2O3

> <Click_ID>
CLK001_B05 __ __ 

$$$$
