CLK025_H10
 OpenBabel03181404502D

 24 26  0  0  0  0  0  0  0  0999 V2000
   -1.5040    0.7159    0.0000 C    0  0  0  0  0  0  0  0  0  0  0  0
   -0.8363    1.2046    0.0000 C    0  0  0  0  0  0  0  0  0  0  0  0
   -1.0876    1.9893    0.0000 N    0  0  0  0  0  0  0  0  0  0  0  0
   -2.1648    1.2046    0.0000 C    0  0  0  0  0  0  0  0  0  0  0  0
   -1.5040   -0.1067    0.0000 C    0  0  0  0  0  0  0  0  0  0  0  0
   -1.9102    1.9893    0.0000 C    0  0  0  0  0  0  0  0  0  0  0  0
    0.6608   -1.3526    0.0000 C    0  0  0  0  0  0  0  0  0  0  0  0
   -0.0757   -1.7656    0.0000 C    0  0  0  0  0  0  0  0  0  0  0  0
    0.6470   -0.5266    0.0000 C    0  0  0  0  0  0  0  0  0  0  0  0
   -0.7779   -0.5197    0.0000 C    0  0  0  0  0  0  0  0  0  0  0  0
    2.8050   -1.7656    0.0000 C    0  0  0  0  0  0  0  0  0  0  0  0
    3.5174   -2.1855    0.0000 C    0  0  0  0  0  0  0  0  0  0  0  0
   -0.7882   -1.3526    0.0000 C    0  0  0  0  0  0  0  0  0  0  0  0
   -0.0654   -0.1067    0.0000 C    0  0  0  0  0  0  0  0  0  0  0  0
   -0.0516    0.9464    0.0000 O    0  0  0  0  0  0  0  0  0  0  0  0
   -0.0757   -2.5881    0.0000 Br   0  0  0  0  0  0  0  0  0  0  0  0
    1.3698   -1.7656    0.0000 O    0  0  0  0  0  0  0  0  0  0  0  0
    1.3595   -0.1136    0.0000 O    0  0  0  0  0  0  0  0  0  0  0  0
    2.0822   -1.3526    0.0000 C    0  0  0  0  0  0  0  0  0  0  0  0
   -2.9702    1.0290    0.0000 C    0  0  0  0  0  0  0  0  0  0  0  0
   -2.4609    2.5916    0.0000 C    0  0  0  0  0  0  0  0  0  0  0  0
    1.3664    0.7159    0.0000 C    0  0  0  0  0  0  0  0  0  0  0  0
   -3.5209    1.6417    0.0000 C    0  0  0  0  0  0  0  0  0  0  0  0
   -3.2696    2.4264    0.0000 C    0  0  0  0  0  0  0  0  0  0  0  0
  2  1  1  0  0  0  0
  3  2  1  0  0  0  0
  3  6  1  0  0  0  0
  4  1  1  0  0  0  0
  5  1  2  0  0  0  0
  6  4  2  0  0  0  0
  7  9  1  0  0  0  0
  8 13  1  0  0  0  0
  8  7  2  0  0  0  0
  9 14  2  0  0  0  0
 10  5  1  0  0  0  0
 11 19  1  0  0  0  0
 12 11  3  0  0  0  0
 13 10  2  0  0  0  0
 14 10  1  0  0  0  0
 15  2  2  0  0  0  0
 16  8  1  0  0  0  0
 17  7  1  0  0  0  0
 18  9  1  0  0  0  0
 19 17  1  0  0  0  0
 20  4  1  0  0  0  0
 21  6  1  0  0  0  0
 21 24  2  0  0  0  0
 22 18  1  0  0  0  0
 23 20  2  0  0  0  0
 24 23  1  0  0  0  0
M  END
> <CdId>
1935

> <Mol Weight>
384.223

> <Formula>
C19H14BrNO3

> <Click_ID>
CLK025_H10 __ __ 

$$$$
