CLK014_E08
 OpenBabel03181404502D

 29 31  0  0  0  0  0  0  0  0999 V2000
    1.5645   -0.8156    0.0000 N   0  0  0  0  0  0  0  0  0  0  0  0
    1.8225   -1.6020    0.0000 C   0  0  0  0  0  0  0  0  0  0  0  0
    2.2344   -0.3287    0.0000 C   0  0  0  0  0  0  0  0  0  0  0  0
    2.9002   -0.8156    0.0000 C   0  0  0  0  0  0  0  0  0  0  0  0
    2.6463   -1.6020    0.0000 S   0  0  0  0  0  0  0  0  0  0  0  0
    3.6866   -0.5617    0.0000 C   0  0  0  0  0  0  0  0  0  0  0  0
    0.6116    0.2455    0.0000 C   0  0  0  0  0  0  0  0  0  0  0  0
    0.3912    1.0443    0.0000 C   0  0  0  0  0  0  0  0  0  0  0  0
    1.3356   -2.2635    0.0000 O   0  0  0  0  0  0  0  0  0  0  0  0
    4.8100    1.2982    0.0000 C   0  0  0  0  0  0  0  0  0  0  0  0
    2.2261    0.4951    0.0000 O   0  0  0  0  0  0  0  0  0  0  0  0
    4.1984    1.8682    0.0000 C   0  0  0  0  0  0  0  0  0  0  0  0
    3.8571    0.2455    0.0000 C   0  0  0  0  0  0  0  0  0  0  0  0
    0.7864   -0.5617    0.0000 C   0  0  0  0  0  0  0  0  0  0  0  0
    4.6352    0.4951    0.0000 C   0  0  0  0  0  0  0  0  0  0  0  0
    4.3689    2.6671    0.0000 O   0  0  0  0  0  0  0  0  0  0  0  0
    3.4119    1.6061    0.0000 C   0  0  0  0  0  0  0  0  0  0  0  0
    3.2497    0.7947    0.0000 C   0  0  0  0  0  0  0  0  0  0  0  0
    5.1470    2.9167    0.0000 C   0  0  0  0  0  0  0  0  0  0  0  0
    4.7184    4.2691    0.0000 C   0  0  0  0  0  0  0  0  0  0  0  0
    4.8932    5.0721    0.0000 C   0  0  0  0  0  0  0  0  0  0  0  0
    5.3218    3.7281    0.0000 C   0  0  0  0  0  0  0  0  0  0  0  0
    5.5839    1.5478    0.0000 O   0  0  0  0  0  0  0  0  0  0  0  0
    4.2733    5.6297    0.0000 F   0  0  0  0  0  0  0  0  0  0  0  0
    6.2830    4.7726    0.0000 C   0  0  0  0  0  0  0  0  0  0  0  0
    5.6713    5.3218    0.0000 C   0  0  0  0  0  0  0  0  0  0  0  0
    6.1165    3.9778    0.0000 C   0  0  0  0  0  0  0  0  0  0  0  0
    5.7587    2.3675    0.0000 C   0  0  0  0  0  0  0  0  0  0  0  0
    6.5451    2.6172    0.0000 C   0  0  0  0  0  0  0  0  0  0  0  0
  2  1  1  0  0  0  0
  3  1  1  0  0  0  0
  4  3  1  0  0  0  0
  4  5  1  0  0  0  0
  5  2  1  0  0  0  0
  6  4  2  0  0  0  0
  7 14  1  0  0  0  0
  8  7  3  0  0  0  0
  9  2  2  0  0  0  0
 10 15  1  0  0  0  0
 10 12  2  0  0  0  0
 11  3  2  0  0  0  0
 12 17  1  0  0  0  0
 13  6  1  0  0  0  0
 14  1  1  0  0  0  0
 15 13  2  0  0  0  0
 16 12  1  0  0  0  0
 17 18  2  0  0  0  0
 18 13  1  0  0  0  0
 19 16  1  0  0  0  0
 20 22  1  0  0  0  0
 21 20  2  0  0  0  0
 21 26  1  0  0  0  0
 22 19  1  0  0  0  0
 23 10  1  0  0  0  0
 24 21  1  0  0  0  0
 25 27  1  0  0  0  0
 26 25  2  0  0  0  0
 27 22  2  0  0  0  0
 28 23  1  0  0  0  0
 29 28  1  0  0  0  0
M  END
> <CdId>
1043

> <Mol Weight>
411.446

> <Formula>
C22H18FNO4S

> <Click_ID>
CLK014_E08 __ __ 

$$$$
