CLK008_A05
 OpenBabel03181404502D

 25 26  0  0  0  0  0  0  0  0999 V2000
   -1.3093   -1.6254    0.0000 N   0  0  0  0  0  0  0  0  0  0  0  0
   -0.6355   -1.1391    0.0000 C   0  0  0  0  0  0  0  0  0  0  0  0
   -1.0489   -2.4173    0.0000 C   0  0  0  0  0  0  0  0  0  0  0  0
   -2.0943   -1.3649    0.0000 C   0  0  0  0  0  0  0  0  0  0  0  0
    0.0382   -1.6254    0.0000 C   0  0  0  0  0  0  0  0  0  0  0  0
   -0.6425   -0.3091    0.0000 O   0  0  0  0  0  0  0  0  0  0  0  0
   -0.2188   -2.4173    0.0000 N   0  0  0  0  0  0  0  0  0  0  0  0
   -1.5420   -3.0911    0.0000 O   0  0  0  0  0  0  0  0  0  0  0  0
   -2.2714   -0.5592    0.0000 C   0  0  0  0  0  0  0  0  0  0  0  0
    0.8300   -1.3649    0.0000 C   0  0  0  0  0  0  0  0  0  0  0  0
   -1.6532    0.0000    0.0000 O   0  0  0  0  0  0  0  0  0  0  0  0
   -3.0597   -0.2952    0.0000 O   0  0  0  0  0  0  0  0  0  0  0  0
    0.9933   -0.5592    0.0000 C   0  0  0  0  0  0  0  0  0  0  0  0
    0.3856   -0.0069    0.0000 C   0  0  0  0  0  0  0  0  0  0  0  0
    1.7748   -0.3091    0.0000 C   0  0  0  0  0  0  0  0  0  0  0  0
    0.5522    0.8127    0.0000 C   0  0  0  0  0  0  0  0  0  0  0  0
    1.9484    0.5036    0.0000 C   0  0  0  0  0  0  0  0  0  0  0  0
    1.3336    1.0523    0.0000 C   0  0  0  0  0  0  0  0  0  0  0  0
   -0.0521    1.3545    0.0000 O   0  0  0  0  0  0  0  0  0  0  0  0
    1.5108    1.8685    0.0000 O   0  0  0  0  0  0  0  0  0  0  0  0
   -0.8370    1.1010    0.0000 C   0  0  0  0  0  0  0  0  0  0  0  0
    2.2992    2.1151    0.0000 C   0  0  0  0  0  0  0  0  0  0  0  0
   -1.4482    1.6566    0.0000 C   0  0  0  0  0  0  0  0  0  0  0  0
    2.4798    2.9105    0.0000 C   0  0  0  0  0  0  0  0  0  0  0  0
    2.6569    3.7162    0.0000 C   0  0  0  0  0  0  0  0  0  0  0  0
  1  2  1  0  0  0  0
  1  3  1  0  0  0  0
  1  4  1  0  0  0  0
  2  5  1  0  0  0  0
  2  6  2  0  0  0  0
  3  7  1  0  0  0  0
  3  8  2  0  0  0  0
  4  9  1  0  0  0  0
  5 10  2  0  0  0  0
  5  7  1  0  0  0  0
  9 11  1  0  0  0  0
  9 12  2  0  0  0  0
 10 13  1  0  0  0  0
 13 14  2  0  0  0  0
 13 15  1  0  0  0  0
 14 16  1  0  0  0  0
 15 17  2  0  0  0  0
 16 18  2  0  0  0  0
 16 19  1  0  0  0  0
 17 18  1  0  0  0  0
 18 20  1  0  0  0  0
 19 21  1  0  0  0  0
 20 22  1  0  0  0  0
 21 23  1  0  0  0  0
 22 24  1  0  0  0  0
 24 25  3  0  0  0  0
M  END
> <CdId>
564

> <Mol Weight>
344.3187

> <Formula>
C17H16N2O6

> <Click_ID>
CLK008_A05 __ __ 

$$$$
