CLK021_E06
 OpenBabel03181404502D

 25 25  0  0  0  0  0  0  0  0999 V2000
    9.9162   -8.4321    0.0000 Cl   0  0  0  0  0  0  0  0  0  0  0  0
    7.2382   -5.4597    0.0000 C    0  0  0  0  0  0  0  0  0  0  0  0
    5.9987   -6.1686    0.0000 C    0  0  0  0  0  0  0  0  0  0  0  0
    6.4091   -5.4597    0.0000 C    0  0  0  0  0  0  0  0  0  0  0  0
    7.6527   -6.1686    0.0000 C    0  0  0  0  0  0  0  0  0  0  0  0
    6.4091   -6.8817    0.0000 C    0  0  0  0  0  0  0  0  0  0  0  0
    9.7172   -5.4597    0.0000 C    0  0  0  0  0  0  0  0  0  0  0  0
    7.2382   -6.8817    0.0000 C    0  0  0  0  0  0  0  0  0  0  0  0
   10.5381   -5.4597    0.0000 C    0  0  0  0  0  0  0  0  0  0  0  0
    5.9987   -4.7426    0.0000 Br   0  0  0  0  0  0  0  0  0  0  0  0
    8.4736   -6.1686    0.0000 O    0  0  0  0  0  0  0  0  0  0  0  0
    7.6527   -7.5988    0.0000 O    0  0  0  0  0  0  0  0  0  0  0  0
    4.7633   -6.8817    0.0000 N    0  0  0  0  0  0  0  0  0  0  0  0
    5.1778   -6.1686    0.0000 C    0  0  0  0  0  0  0  0  0  0  0  0
    8.8922   -5.4597    0.0000 C    0  0  0  0  0  0  0  0  0  0  0  0
    2.6988   -7.5988    0.0000 C    0  0  0  0  0  0  0  0  0  0  0  0
    3.9342   -6.8817    0.0000 C    0  0  0  0  0  0  0  0  0  0  0  0
    3.5238   -7.5988    0.0000 C    0  0  0  0  0  0  0  0  0  0  0  0
    7.2382   -8.3119    0.0000 C    0  0  0  0  0  0  0  0  0  0  0  0
    2.2884   -8.3119    0.0000 C    0  0  0  0  0  0  0  0  0  0  0  0
    2.2884   -6.8817    0.0000 C    0  0  0  0  0  0  0  0  0  0  0  0
    7.6527   -9.0290    0.0000 C    0  0  0  0  0  0  0  0  0  0  0  0
    1.4593   -6.8817    0.0000 C    0  0  0  0  0  0  0  0  0  0  0  0
    1.4593   -8.3119    0.0000 C    0  0  0  0  0  0  0  0  0  0  0  0
    1.0489   -7.5988    0.0000 C    0  0  0  0  0  0  0  0  0  0  0  0
  3  4  1  0  0  0  0
  4  2  2  0  0  0  0
  5  2  1  0  0  0  0
  6  8  1  0  0  0  0
  6  3  2  0  0  0  0
  7 15  1  0  0  0  0
  8  5  2  0  0  0  0
  9  7  3  0  0  0  0
 10  4  1  0  0  0  0
 11  5  1  0  0  0  0
 12  8  1  0  0  0  0
 13 14  1  0  0  0  0
 14  3  1  0  0  0  0
 15 11  1  0  0  0  0
 16 18  1  0  0  0  0
 17 13  1  0  0  0  0
 18 17  1  0  0  0  0
 19 12  1  0  0  0  0
 20 16  2  0  0  0  0
 21 16  1  0  0  0  0
 22 19  1  0  0  0  0
 23 21  2  0  0  0  0
 23 25  1  0  0  0  0
 24 20  1  0  0  0  0
 25 24  2  0  0  0  0
M  END
> <CdId>
1601

> <Mol Weight>
424.759

> <Formula>
C20H23BrClNO2

> <Click_ID>
CLK021_E06 __ __ 

$$$$
