CLK027_H06
 OpenBabel03181404502D

 29 30  0  0  0  0  0  0  0  0999 V2000
    0.7116   -0.8215    0.0000 C    0  0  0  0  0  0  0  0  0  0  0  0
    0.7184   -1.6465    0.0000 C    0  0  0  0  0  0  0  0  0  0  0  0
   -0.7047   -3.2932    0.0000 C    0  0  0  0  0  0  0  0  0  0  0  0
    0.0000   -2.0590    0.0000 N    0  0  0  0  0  0  0  0  0  0  0  0
    0.0000   -0.4090    0.0000 C    0  0  0  0  0  0  0  0  0  0  0  0
    0.0000    2.0693    0.0000 C    0  0  0  0  0  0  0  0  0  0  0  0
    0.0068   -2.8807    0.0000 C    0  0  0  0  0  0  0  0  0  0  0  0
   -1.4163   -2.8807    0.0000 C    0  0  0  0  0  0  0  0  0  0  0  0
    1.4231   -0.4057    0.0000 C    0  0  0  0  0  0  0  0  0  0  0  0
    0.7116    1.6568    0.0000 C    0  0  0  0  0  0  0  0  0  0  0  0
   -0.7184    1.6638    0.0000 C    0  0  0  0  0  0  0  0  0  0  0  0
    0.0000    0.4160    0.0000 C    0  0  0  0  0  0  0  0  0  0  0  0
    2.1347    0.0172    0.0000 N    0  0  0  0  0  0  0  0  0  0  0  0
    0.7184    4.1182    0.0000 C    0  0  0  0  0  0  0  0  0  0  0  0
    1.4334    4.5307    0.0000 C    0  0  0  0  0  0  0  0  0  0  0  0
    0.7116    0.8285    0.0000 C    0  0  0  0  0  0  0  0  0  0  0  0
   -0.7184    0.8285    0.0000 C    0  0  0  0  0  0  0  0  0  0  0  0
    1.4300   -2.0522    0.0000 O    0  0  0  0  0  0  0  0  0  0  0  0
   -1.4163   -2.0590    0.0000 O    0  0  0  0  0  0  0  0  0  0  0  0
    1.4231    2.0660    0.0000 Cl   0  0  0  0  0  0  0  0  0  0  0  0
    0.0000    2.8943    0.0000 O    0  0  0  0  0  0  0  0  0  0  0  0
   -2.1382   -3.2932    0.0000 O    0  0  0  0  0  0  0  0  0  0  0  0
   -1.4300    2.0763    0.0000 O    0  0  0  0  0  0  0  0  0  0  0  0
   -0.7047   -4.1182    0.0000 C    0  0  0  0  0  0  0  0  0  0  0  0
    0.7184    3.3035    0.0000 C    0  0  0  0  0  0  0  0  0  0  0  0
    0.7219   -3.2932    0.0000 C    0  0  0  0  0  0  0  0  0  0  0  0
   -1.4300    2.9013    0.0000 C    0  0  0  0  0  0  0  0  0  0  0  0
    0.0068   -4.5307    0.0000 C    0  0  0  0  0  0  0  0  0  0  0  0
    0.7219   -4.1182    0.0000 C    0  0  0  0  0  0  0  0  0  0  0  0
  2  1  1  0  0  0  0
  3  7  1  0  0  0  0
  4  2  1  0  0  0  0
  5  1  2  0  0  0  0
  6 11  2  0  0  0  0
  7  4  1  0  0  0  0
  8  3  1  0  0  0  0
  9  1  1  0  0  0  0
 10 16  2  0  0  0  0
 10  6  1  0  0  0  0
 11 17  1  0  0  0  0
 12  5  1  0  0  0  0
 13  9  3  0  0  0  0
 14 25  1  0  0  0  0
 15 14  3  0  0  0  0
 16 12  1  0  0  0  0
 17 12  2  0  0  0  0
 18  2  2  0  0  0  0
 19  8  2  0  0  0  0
 20 10  1  0  0  0  0
 21  6  1  0  0  0  0
 22  8  1  0  0  0  0
 23 11  1  0  0  0  0
 24  3  2  0  0  0  0
 24 28  1  0  0  0  0
 25 21  1  0  0  0  0
 26  7  2  0  0  0  0
 27 23  1  0  0  0  0
 28 29  2  0  0  0  0
 29 26  1  0  0  0  0
M  END
> <CdId>
2082

> <Mol Weight>
410.807

> <Formula>
C21H15ClN2O5

> <Click_ID>
CLK027_H06 __ __ 

$$$$
