CLK044F07
 OpenBabel03181404502D

 16 16  0  0  0  0  0  0  0  0999 V2000
    0.8917   -1.0792    0.0000 N    0  0  0  0  0  0  0  0  0  0  0  0
    0.1750    0.1583    0.0000 C    0  0  0  0  0  0  0  0  0  0  0  0
    0.8917   -0.2542    0.0000 C    0  0  0  0  0  0  0  0  0  0  0  0
   -0.5375   -0.2542    0.0000 C    0  0  0  0  0  0  0  0  0  0  0  0
    1.6042    0.1583    0.0000 C    0  0  0  0  0  0  0  0  0  0  0  0
    0.1750    0.9833    0.0000 C    0  0  0  0  0  0  0  0  0  0  0  0
   -2.6833    0.1583    0.0000 C    0  0  0  0  0  0  0  0  0  0  0  0
   -3.3958    0.5708    0.0000 C    0  0  0  0  0  0  0  0  0  0  0  0
    0.1750   -1.4917    0.0000 O    0  0  0  0  0  0  0  0  0  0  0  0
    1.6042   -1.4917    0.0000 O    0  0  0  0  0  0  0  0  0  0  0  0
   -0.5375   -1.0792    0.0000 O    0  0  0  0  0  0  0  0  0  0  0  0
   -1.2542    0.1583    0.0000 N    0  0  0  0  0  0  0  0  0  0  0  0
    1.6042    0.9833    0.0000 C    0  0  0  0  0  0  0  0  0  0  0  0
    0.8917    1.3958    0.0000 C    0  0  0  0  0  0  0  0  0  0  0  0
    2.3208    1.3958    0.0000 Cl   0  0  0  0  0  0  0  0  0  0  0  0
   -1.9667   -0.2542    0.0000 C    0  0  0  0  0  0  0  0  0  0  0  0
  2  3  2  0  0  0  0
  3  1  1  0  0  0  0
  4  2  1  0  0  0  0
  5  3  1  0  0  0  0
  6  2  1  0  0  0  0
  7 16  1  0  0  0  0
  8  7  3  0  0  0  0
  9  1  1  0  0  0  0
 10  1  2  0  0  0  0
 11  4  2  0  0  0  0
 12  4  1  0  0  0  0
 13  5  2  0  0  0  0
 14  6  2  0  0  0  0
 14 13  1  0  0  0  0
 15 13  1  0  0  0  0
 16 12  1  0  0  0  0
M  END
> <CdId>
3374

> <Mol Weight>
238.627

> <Formula>
C10H7ClN2O3

> <Click_ID>
CLK044F07 __ __ 

$$$$
