CLK051A08
 OpenBabel03181404502D

 22 23  0  0  0  0  0  0  0  0999 V2000
   -1.3248   -0.9499    0.0000 N   0  0  0  0  0  0  0  0  0  0  0  0
   -1.8080   -0.2833    0.0000 C   0  0  0  0  0  0  0  0  0  0  0  0
   -0.5374   -0.6957    0.0000 C   0  0  0  0  0  0  0  0  0  0  0  0
   -0.5374    0.1292    0.0000 C   0  0  0  0  0  0  0  0  0  0  0  0
   -1.3248    0.3874    0.0000 S   0  0  0  0  0  0  0  0  0  0  0  0
    0.1292    0.6166    0.0000 C   0  0  0  0  0  0  0  0  0  0  0  0
   -1.5790   -1.7330    0.0000 C   0  0  0  0  0  0  0  0  0  0  0  0
   -2.6329   -0.2833    0.0000 S   0  0  0  0  0  0  0  0  0  0  0  0
    0.8832    0.2792    0.0000 C   0  0  0  0  0  0  0  0  0  0  0  0
    2.0455    2.8913    0.0000 C   0  0  0  0  0  0  0  0  0  0  0  0
    1.9580    3.7119    0.0000 C   0  0  0  0  0  0  0  0  0  0  0  0
   -2.3871   -1.9039    0.0000 C   0  0  0  0  0  0  0  0  0  0  0  0
    0.1292   -1.1790    0.0000 O   0  0  0  0  0  0  0  0  0  0  0  0
    1.5498    0.7666    0.0000 C   0  0  0  0  0  0  0  0  0  0  0  0
   -2.6413   -2.6913    0.0000 O   0  0  0  0  0  0  0  0  0  0  0  0
   -2.9371   -1.2915    0.0000 O   0  0  0  0  0  0  0  0  0  0  0  0
    1.4623    1.5831    0.0000 O   0  0  0  0  0  0  0  0  0  0  0  0
    2.1289    2.0705    0.0000 C   0  0  0  0  0  0  0  0  0  0  0  0
    0.9666   -0.5416    0.0000 C   0  0  0  0  0  0  0  0  0  0  0  0
    2.3038    0.4291    0.0000 C   0  0  0  0  0  0  0  0  0  0  0  0
    1.7205   -0.8749    0.0000 C   0  0  0  0  0  0  0  0  0  0  0  0
    2.3871   -0.3916    0.0000 C   0  0  0  0  0  0  0  0  0  0  0  0
  2  1  1  0  0  0  0
  3  1  1  0  0  0  0
  4  3  1  0  0  0  0
  5  2  1  0  0  0  0
  5  4  1  0  0  0  0
  6  4  2  0  0  0  0
  7  1  1  0  0  0  0
  8  2  2  0  0  0  0
  9  6  1  0  0  0  0
 10 18  1  0  0  0  0
 11 10  3  0  0  0  0
 12  7  1  0  0  0  0
 13  3  2  0  0  0  0
 14  9  2  0  0  0  0
 15 12  2  0  0  0  0
 16 12  1  0  0  0  0
 17 14  1  0  0  0  0
 18 17  1  0  0  0  0
 19  9  1  0  0  0  0
 20 14  1  0  0  0  0
 21 19  2  0  0  0  0
 22 20  2  0  0  0  0
 22 21  1  0  0  0  0
M  END
> <CdId>
3937

> <Mol Weight>
333.382

> <Formula>
C15H11NO4S2

> <Click_ID>
CLK051A08 __ __ 

$$$$
