CLK015_H08
 OpenBabel03181404502D

 29 31  0  0  0  0  0  0  0  0999 V2000
    1.5644   -0.8155    0.0000 N   0  0  0  0  0  0  0  0  0  0  0  0
    1.8223   -1.6018    0.0000 C   0  0  0  0  0  0  0  0  0  0  0  0
    2.2342   -0.3287    0.0000 C   0  0  0  0  0  0  0  0  0  0  0  0
    2.8999   -0.8155    0.0000 C   0  0  0  0  0  0  0  0  0  0  0  0
    2.6461   -1.6018    0.0000 S   0  0  0  0  0  0  0  0  0  0  0  0
    3.6862   -0.5617    0.0000 C   0  0  0  0  0  0  0  0  0  0  0  0
    0.6116    0.2454    0.0000 C   0  0  0  0  0  0  0  0  0  0  0  0
    0.3911    1.0442    0.0000 C   0  0  0  0  0  0  0  0  0  0  0  0
    1.3355   -2.2633    0.0000 O   0  0  0  0  0  0  0  0  0  0  0  0
    3.3991    1.6059    0.0000 C   0  0  0  0  0  0  0  0  0  0  0  0
    2.2259    0.4951    0.0000 O   0  0  0  0  0  0  0  0  0  0  0  0
    4.1855    1.8555    0.0000 C   0  0  0  0  0  0  0  0  0  0  0  0
    3.8567    0.2496    0.0000 C   0  0  0  0  0  0  0  0  0  0  0  0
    0.7863   -0.5617    0.0000 C   0  0  0  0  0  0  0  0  0  0  0  0
    3.2452    0.7988    0.0000 C   0  0  0  0  0  0  0  0  0  0  0  0
    4.3602    2.6668    0.0000 O   0  0  0  0  0  0  0  0  0  0  0  0
    4.7970    1.3188    0.0000 C   0  0  0  0  0  0  0  0  0  0  0  0
    4.6306    0.5075    0.0000 C   0  0  0  0  0  0  0  0  0  0  0  0
    5.1423    2.9206    0.0000 C   0  0  0  0  0  0  0  0  0  0  0  0
    5.6333    5.3337    0.0000 C   0  0  0  0  0  0  0  0  0  0  0  0
    5.3046    3.7402    0.0000 C   0  0  0  0  0  0  0  0  0  0  0  0
    2.7875    2.1551    0.0000 O   0  0  0  0  0  0  0  0  0  0  0  0
    5.8038    6.1408    0.0000 F   0  0  0  0  0  0  0  0  0  0  0  0
    4.8470    5.0841    0.0000 C   0  0  0  0  0  0  0  0  0  0  0  0
    6.2449    4.7846    0.0000 C   0  0  0  0  0  0  0  0  0  0  0  0
    6.0909    3.9899    0.0000 C   0  0  0  0  0  0  0  0  0  0  0  0
    4.6930    4.2728    0.0000 C   0  0  0  0  0  0  0  0  0  0  0  0
    2.0012    1.8972    0.0000 C   0  0  0  0  0  0  0  0  0  0  0  0
    1.3896    2.4422    0.0000 C   0  0  0  0  0  0  0  0  0  0  0  0
  2  1  1  0  0  0  0
  3  1  1  0  0  0  0
  4  3  1  0  0  0  0
  4  5  1  0  0  0  0
  5  2  1  0  0  0  0
  6  4  2  0  0  0  0
  7 14  1  0  0  0  0
  8  7  3  0  0  0  0
  9  2  2  0  0  0  0
 10 15  1  0  0  0  0
 10 12  2  0  0  0  0
 11  3  2  0  0  0  0
 12 17  1  0  0  0  0
 13  6  1  0  0  0  0
 14  1  1  0  0  0  0
 15 13  2  0  0  0  0
 16 12  1  0  0  0  0
 17 18  2  0  0  0  0
 18 13  1  0  0  0  0
 19 16  1  0  0  0  0
 20 24  2  0  0  0  0
 21 19  1  0  0  0  0
 22 10  1  0  0  0  0
 23 20  1  0  0  0  0
 24 27  1  0  0  0  0
 25 26  2  0  0  0  0
 25 20  1  0  0  0  0
 26 21  1  0  0  0  0
 27 21  2  0  0  0  0
 28 22  1  0  0  0  0
 29 28  1  0  0  0  0
M  END
> <CdId>
1153

> <Mol Weight>
411.446

> <Formula>
C22H18FNO4S

> <Click_ID>
CLK015_H08 __ __ 

$$$$
