CLK032_D03
 OpenBabel03181404502D

 27 29  0  0  0  0  0  0  0  0999 V2000
   -1.1648    2.3879    0.0000 C   0  0  0  0  0  0  0  0  0  0  0  0
   -1.6490    1.7241    0.0000 N   0  0  0  0  0  0  0  0  0  0  0  0
   -0.3381    2.3796    0.0000 N   0  0  0  0  0  0  0  0  0  0  0  0
   -1.6490    3.0559    0.0000 S   0  0  0  0  0  0  0  0  0  0  0  0
   -2.4381    2.8013    0.0000 C   0  0  0  0  0  0  0  0  0  0  0  0
   -2.4381    1.9746    0.0000 C   0  0  0  0  0  0  0  0  0  0  0  0
    0.0751    3.0935    0.0000 C   0  0  0  0  0  0  0  0  0  0  0  0
   -3.1519    3.2145    0.0000 C   0  0  0  0  0  0  0  0  0  0  0  0
   -1.9496    0.3214    0.0000 C   0  0  0  0  0  0  0  0  0  0  0  0
   -2.5007   -0.2922    0.0000 C   0  0  0  0  0  0  0  0  0  0  0  0
    0.9018    3.0935    0.0000 C   0  0  0  0  0  0  0  0  0  0  0  0
   -3.1519    1.5613    0.0000 C   0  0  0  0  0  0  0  0  0  0  0  0
   -5.2978    2.8055    0.0000 C   0  0  0  0  0  0  0  0  0  0  0  0
   -4.5922    3.2188    0.0000 N   0  0  0  0  0  0  0  0  0  0  0  0
    1.3193    3.8157    0.0000 C   0  0  0  0  0  0  0  0  0  0  0  0
   -3.8658    2.8013    0.0000 C   0  0  0  0  0  0  0  0  0  0  0  0
   -1.3985    0.9352    0.0000 C   0  0  0  0  0  0  0  0  0  0  0  0
   -0.3381    3.8074    0.0000 O   0  0  0  0  0  0  0  0  0  0  0  0
   -6.0117    3.2188    0.0000 O   0  0  0  0  0  0  0  0  0  0  0  0
   -3.8658    1.9746    0.0000 C   0  0  0  0  0  0  0  0  0  0  0  0
    2.1458    3.8157    0.0000 C   0  0  0  0  0  0  0  0  0  0  0  0
   -5.3061    1.9788    0.0000 C   0  0  0  0  0  0  0  0  0  0  0  0
    2.5592    4.5213    0.0000 C   0  0  0  0  0  0  0  0  0  0  0  0
    2.5592    3.0935    0.0000 C   0  0  0  0  0  0  0  0  0  0  0  0
    3.3941    4.5255    0.0000 C   0  0  0  0  0  0  0  0  0  0  0  0
    3.3941    3.1018    0.0000 C   0  0  0  0  0  0  0  0  0  0  0  0
    3.8074    3.8157    0.0000 C   0  0  0  0  0  0  0  0  0  0  0  0
  2  1  1  0  0  0  0
  3  1  2  0  0  0  0
  4  1  1  0  0  0  0
  5  4  1  0  0  0  0
  5  6  2  0  0  0  0
  6  2  1  0  0  0  0
  7  3  1  0  0  0  0
  8  5  1  0  0  0  0
  9 17  1  0  0  0  0
 10  9  3  0  0  0  0
 11  7  1  0  0  0  0
 12  6  1  0  0  0  0
 13 14  1  0  0  0  0
 14 16  1  0  0  0  0
 15 11  2  0  0  0  0
 16  8  2  0  0  0  0
 16 20  1  0  0  0  0
 17  2  1  0  0  0  0
 18  7  2  0  0  0  0
 19 13  2  0  0  0  0
 20 12  2  0  0  0  0
 21 15  1  0  0  0  0
 22 13  1  0  0  0  0
 23 21  1  0  0  0  0
 24 21  2  0  0  0  0
 25 23  2  0  0  0  0
 25 27  1  0  0  0  0
 26 24  1  0  0  0  0
 27 26  2  0  0  0  0
M  END
> <CdId>
2437

> <Mol Weight>
375.444

> <Formula>
C21H17N3O2S

> <Click_ID>
CLK032_D03 __ __ 

$$$$
