CLK041D06
 OpenBabel03181404502D

 28 30  0  0  0  0  0  0  0  0999 V2000
   -1.5958   -0.1042    0.0000 C   0  0  0  0  0  0  0  0  0  0  0  0
   -2.0792    0.5667    0.0000 N   0  0  0  0  0  0  0  0  0  0  0  0
    2.9417    0.6125    0.0000 S   0  0  0  0  0  0  0  0  0  0  0  0
   -2.0792   -0.7708    0.0000 N   0  0  0  0  0  0  0  0  0  0  0  0
   -0.7708   -0.1042    0.0000 N   0  0  0  0  0  0  0  0  0  0  0  0
   -0.3583    0.6125    0.0000 C   0  0  0  0  0  0  0  0  0  0  0  0
   -2.8625   -0.5167    0.0000 C   0  0  0  0  0  0  0  0  0  0  0  0
   -2.8625    0.3083    0.0000 C   0  0  0  0  0  0  0  0  0  0  0  0
    2.1167    0.6125    0.0000 C   0  0  0  0  0  0  0  0  0  0  0  0
    5.0042   -0.1042    0.0000 C   0  0  0  0  0  0  0  0  0  0  0  0
    5.8292   -0.1042    0.0000 C   0  0  0  0  0  0  0  0  0  0  0  0
    2.9417   -0.2125    0.0000 O   0  0  0  0  0  0  0  0  0  0  0  0
    2.9417    1.4375    0.0000 O   0  0  0  0  0  0  0  0  0  0  0  0
    0.4667    0.6125    0.0000 C   0  0  0  0  0  0  0  0  0  0  0  0
    3.7667    0.6125    0.0000 N   0  0  0  0  0  0  0  0  0  0  0  0
   -0.7708    1.3250    0.0000 O   0  0  0  0  0  0  0  0  0  0  0  0
    1.7042    1.3250    0.0000 C   0  0  0  0  0  0  0  0  0  0  0  0
    1.7042   -0.1042    0.0000 C   0  0  0  0  0  0  0  0  0  0  0  0
    0.8792    1.3250    0.0000 C   0  0  0  0  0  0  0  0  0  0  0  0
    0.8792   -0.1042    0.0000 C   0  0  0  0  0  0  0  0  0  0  0  0
   -1.8250   -1.5542    0.0000 C   0  0  0  0  0  0  0  0  0  0  0  0
    4.1792   -0.1042    0.0000 C   0  0  0  0  0  0  0  0  0  0  0  0
   -3.5792   -0.9292    0.0000 C   0  0  0  0  0  0  0  0  0  0  0  0
   -3.5792    0.7208    0.0000 C   0  0  0  0  0  0  0  0  0  0  0  0
   -2.3750   -2.1667    0.0000 C   0  0  0  0  0  0  0  0  0  0  0  0
   -4.2917   -0.5167    0.0000 C   0  0  0  0  0  0  0  0  0  0  0  0
   -4.2917    0.3083    0.0000 C   0  0  0  0  0  0  0  0  0  0  0  0
   -2.1208   -2.9500    0.0000 C   0  0  0  0  0  0  0  0  0  0  0  0
  2  1  2  0  0  0  0
  3  9  1  0  0  0  0
  4  1  1  0  0  0  0
  5  1  1  0  0  0  0
  6  5  1  0  0  0  0
  7  4  1  0  0  0  0
  7  8  2  0  0  0  0
  8  2  1  0  0  0  0
  9 17  2  0  0  0  0
  9 18  1  0  0  0  0
 10 22  1  0  0  0  0
 11 10  3  0  0  0  0
 12  3  2  0  0  0  0
 13  3  2  0  0  0  0
 14  6  1  0  0  0  0
 15  3  1  0  0  0  0
 16  6  2  0  0  0  0
 17 19  1  0  0  0  0
 18 20  2  0  0  0  0
 19 14  2  0  0  0  0
 20 14  1  0  0  0  0
 21  4  1  0  0  0  0
 22 15  1  0  0  0  0
 23  7  1  0  0  0  0
 24  8  1  0  0  0  0
 25 21  1  0  0  0  0
 26 23  2  0  0  0  0
 26 27  1  0  0  0  0
 27 24  2  0  0  0  0
 28 25  1  0  0  0  0
M  END
> <CdId>
3124

> <Mol Weight>
396.463

> <Formula>
C20H20N4O3S

> <Click_ID>
CLK041D06 __ __ 

$$$$
