CLK023_F09
 OpenBabel03181404502D

 30 33  0  0  0  0  0  0  0  0999 V2000
   -0.6324   -0.8352    0.0000 C   0  0  0  0  0  0  0  0  0  0  0  0
   -0.1375   -1.4951    0.0000 N   0  0  0  0  0  0  0  0  0  0  0  0
    0.6290   -0.4090    0.0000 C   0  0  0  0  0  0  0  0  0  0  0  0
    0.6428   -1.2339    0.0000 C   0  0  0  0  0  0  0  0  0  0  0  0
   -0.1581   -0.1684    0.0000 S   0  0  0  0  0  0  0  0  0  0  0  0
    1.2029    0.9039    0.0000 C   0  0  0  0  0  0  0  0  0  0  0  0
    0.6531    2.1275    0.0000 N   0  0  0  0  0  0  0  0  0  0  0  0
    1.2923    0.0790    0.0000 C   0  0  0  0  0  0  0  0  0  0  0  0
    0.4881    1.3164    0.0000 C   0  0  0  0  0  0  0  0  0  0  0  0
   -1.4573   -0.8455    0.0000 N   0  0  0  0  0  0  0  0  0  0  0  0
    1.8182    1.4573    0.0000 C   0  0  0  0  0  0  0  0  0  0  0  0
    1.4745    2.2169    0.0000 C   0  0  0  0  0  0  0  0  0  0  0  0
    0.3506    3.5092    0.0000 C   0  0  0  0  0  0  0  0  0  0  0  0
    0.6496    4.2826    0.0000 C   0  0  0  0  0  0  0  0  0  0  0  0
    1.3130   -1.7151    0.0000 O   0  0  0  0  0  0  0  0  0  0  0  0
    0.0996    2.7393    0.0000 C   0  0  0  0  0  0  0  0  0  0  0  0
   -0.3815   -2.2822    0.0000 C   0  0  0  0  0  0  0  0  0  0  0  0
   -1.8835   -0.1340    0.0000 C   0  0  0  0  0  0  0  0  0  0  0  0
    1.9556    2.8906    0.0000 C   0  0  0  0  0  0  0  0  0  0  0  0
    2.6431    1.3714    0.0000 C   0  0  0  0  0  0  0  0  0  0  0  0
   -0.0687   -3.6776    0.0000 O   0  0  0  0  0  0  0  0  0  0  0  0
    0.1753   -2.8906    0.0000 C   0  0  0  0  0  0  0  0  0  0  0  0
   -1.4710    0.5706    0.0000 C   0  0  0  0  0  0  0  0  0  0  0  0
   -2.6947   -0.1478    0.0000 C   0  0  0  0  0  0  0  0  0  0  0  0
    0.4881   -4.2826    0.0000 C   0  0  0  0  0  0  0  0  0  0  0  0
    3.1174    2.0519    0.0000 C   0  0  0  0  0  0  0  0  0  0  0  0
    2.7737    2.8046    0.0000 C   0  0  0  0  0  0  0  0  0  0  0  0
   -3.1208    0.5671    0.0000 C   0  0  0  0  0  0  0  0  0  0  0  0
   -1.8835    1.2820    0.0000 C   0  0  0  0  0  0  0  0  0  0  0  0
   -2.7083    1.2786    0.0000 C   0  0  0  0  0  0  0  0  0  0  0  0
  2  1  1  0  0  0  0
  3  5  1  0  0  0  0
  3  4  1  0  0  0  0
  4  2  1  0  0  0  0
  5  1  1  0  0  0  0
  6  8  1  0  0  0  0
  7  9  1  0  0  0  0
  7 12  1  0  0  0  0
  8  3  2  0  0  0  0
  9  6  2  0  0  0  0
 10  1  2  0  0  0  0
 11  6  1  0  0  0  0
 12 11  1  0  0  0  0
 13 16  1  0  0  0  0
 14 13  3  0  0  0  0
 15  4  2  0  0  0  0
 16  7  1  0  0  0  0
 17  2  1  0  0  0  0
 18 10  1  0  0  0  0
 19 12  2  0  0  0  0
 19 27  1  0  0  0  0
 20 11  2  0  0  0  0
 21 22  1  0  0  0  0
 22 17  1  0  0  0  0
 23 18  2  0  0  0  0
 24 18  1  0  0  0  0
 25 21  1  0  0  0  0
 26 20  1  0  0  0  0
 27 26  2  0  0  0  0
 28 24  2  0  0  0  0
 29 23  1  0  0  0  0
 30 28  1  0  0  0  0
 30 29  2  0  0  0  0
M  END
> <CdId>
1754

> <Mol Weight>
415.507

> <Formula>
C24H21N3O2S

> <Click_ID>
CLK023_F09 __ __ 

$$$$
