CLK014_H09
 OpenBabel03181404502D

 20 21  0  0  0  0  0  0  0  0999 V2000
    1.5650   -0.8158    0.0000 N   0  0  0  0  0  0  0  0  0  0  0  0
    1.8230   -1.6024    0.0000 C   0  0  0  0  0  0  0  0  0  0  0  0
    2.9010   -0.8158    0.0000 C   0  0  0  0  0  0  0  0  0  0  0  0
    2.2350   -0.3288    0.0000 C   0  0  0  0  0  0  0  0  0  0  0  0
    2.6470   -1.6024    0.0000 S   0  0  0  0  0  0  0  0  0  0  0  0
    3.6876   -0.5619    0.0000 C   0  0  0  0  0  0  0  0  0  0  0  0
    0.6118    0.2455    0.0000 C   0  0  0  0  0  0  0  0  0  0  0  0
    3.8499    0.2455    0.0000 C   0  0  0  0  0  0  0  0  0  0  0  0
    0.3913    1.0446    0.0000 C   0  0  0  0  0  0  0  0  0  0  0  0
    1.3360   -2.2642    0.0000 O   0  0  0  0  0  0  0  0  0  0  0  0
    2.2267    0.4952    0.0000 O   0  0  0  0  0  0  0  0  0  0  0  0
    0.7866   -0.5619    0.0000 C   0  0  0  0  0  0  0  0  0  0  0  0
    4.6323    0.4952    0.0000 C   0  0  0  0  0  0  0  0  0  0  0  0
    5.2359   -0.0499    0.0000 O   0  0  0  0  0  0  0  0  0  0  0  0
    3.2339    0.7949    0.0000 C   0  0  0  0  0  0  0  0  0  0  0  0
    4.7988    1.3068    0.0000 C   0  0  0  0  0  0  0  0  0  0  0  0
    6.0225    0.2081    0.0000 C   0  0  0  0  0  0  0  0  0  0  0  0
    6.6343   -0.3413    0.0000 C   0  0  0  0  0  0  0  0  0  0  0  0
    3.4004    1.5982    0.0000 C   0  0  0  0  0  0  0  0  0  0  0  0
    4.1870    1.8562    0.0000 C   0  0  0  0  0  0  0  0  0  0  0  0
  2  1  1  0  0  0  0
  3  4  1  0  0  0  0
  4  1  1  0  0  0  0
  5  2  1  0  0  0  0
  5  3  1  0  0  0  0
  6  3  2  0  0  0  0
  7 12  1  0  0  0  0
  8  6  1  0  0  0  0
  9  7  3  0  0  0  0
 10  2  2  0  0  0  0
 11  4  2  0  0  0  0
 12  1  1  0  0  0  0
 13  8  1  0  0  0  0
 14 13  1  0  0  0  0
 15  8  2  0  0  0  0
 16 13  2  0  0  0  0
 17 14  1  0  0  0  0
 18 17  1  0  0  0  0
 19 15  1  0  0  0  0
 20 19  2  0  0  0  0
 20 16  1  0  0  0  0
M  END
> <CdId>
1074

> <Mol Weight>
287.334

> <Formula>
C15H13NO3S

> <Click_ID>
CLK014_H09 __ __ 

$$$$
