CLK017_F10
 OpenBabel03181404502D

 22 24  0  0  0  0  0  0  0  0999 V2000
    5.7928   -2.6376    0.0000 N   0  0  0  0  0  0  0  0  0  0  0  0
    5.3829   -3.3457    0.0000 C   0  0  0  0  0  0  0  0  0  0  0  0
    4.4885   -2.3519    0.0000 C   0  0  0  0  0  0  0  0  0  0  0  0
    5.2462   -2.0248    0.0000 C   0  0  0  0  0  0  0  0  0  0  0  0
    4.5755   -3.1718    0.0000 S   0  0  0  0  0  0  0  0  0  0  0  0
    3.7763   -1.9420    0.0000 C   0  0  0  0  0  0  0  0  0  0  0  0
    3.0600   -2.3519    0.0000 C   0  0  0  0  0  0  0  0  0  0  0  0
    1.6315   -2.3519    0.0000 C   0  0  0  0  0  0  0  0  0  0  0  0
    1.6315   -3.1800    0.0000 C   0  0  0  0  0  0  0  0  0  0  0  0
    2.3478   -3.5941    0.0000 C   0  0  0  0  0  0  0  0  0  0  0  0
    2.3395   -1.9420    0.0000 C   0  0  0  0  0  0  0  0  0  0  0  0
    3.0600   -3.1800    0.0000 C   0  0  0  0  0  0  0  0  0  0  0  0
    7.0929   -3.2215    0.0000 C   0  0  0  0  0  0  0  0  0  0  0  0
    7.4946   -3.9295    0.0000 C   0  0  0  0  0  0  0  0  0  0  0  0
    5.7059   -4.1034    0.0000 O   0  0  0  0  0  0  0  0  0  0  0  0
    1.0186   -3.7266    0.0000 O   0  0  0  0  0  0  0  0  0  0  0  0
    2.1738   -4.3974    0.0000 O   0  0  0  0  0  0  0  0  0  0  0  0
    5.4201   -1.2174    0.0000 O   0  0  0  0  0  0  0  0  0  0  0  0
    6.6127   -2.5507    0.0000 C   0  0  0  0  0  0  0  0  0  0  0  0
    1.3540   -4.4761    0.0000 C   0  0  0  0  0  0  0  0  0  0  0  0
    2.3395   -1.1222    0.0000 O   0  0  0  0  0  0  0  0  0  0  0  0
    1.6315   -0.7122    0.0000 C   0  0  0  0  0  0  0  0  0  0  0  0
  2  1  1  0  0  0  0
  3  4  1  0  0  0  0
  4  1  1  0  0  0  0
  5  2  1  0  0  0  0
  5  3  1  0  0  0  0
  6  3  2  0  0  0  0
  7  6  1  0  0  0  0
  8 11  1  0  0  0  0
  8  9  2  0  0  0  0
  9 10  1  0  0  0  0
 10 12  2  0  0  0  0
 11  7  2  0  0  0  0
 12  7  1  0  0  0  0
 13 19  1  0  0  0  0
 14 13  3  0  0  0  0
 15  2  2  0  0  0  0
 16  9  1  0  0  0  0
 16 20  1  0  0  0  0
 17 10  1  0  0  0  0
 18  4  2  0  0  0  0
 19  1  1  0  0  0  0
 20 17  1  0  0  0  0
 21 11  1  0  0  0  0
 22 21  1  0  0  0  0
M  END
> <CdId>
1295

> <Mol Weight>
317.317

> <Formula>
C15H11NO5S

> <Click_ID>
CLK017_F10 __ __ 

$$$$
