CLK023_D10
 OpenBabel03181404502D

 24 26  0  0  0  0  0  0  0  0999 V2000
    0.9016    1.5279    0.0000 N   0  0  0  0  0  0  0  0  0  0  0  0
    1.3076    0.8190    0.0000 C   0  0  0  0  0  0  0  0  0  0  0  0
   -0.0069    0.5403    0.0000 C   0  0  0  0  0  0  0  0  0  0  0  0
    0.0929    1.3592    0.0000 C   0  0  0  0  0  0  0  0  0  0  0  0
    0.7536    0.2065    0.0000 S   0  0  0  0  0  0  0  0  0  0  0  0
   -0.7158    0.1307    0.0000 C   0  0  0  0  0  0  0  0  0  0  0  0
   -0.7192   -0.7020    0.0000 C   0  0  0  0  0  0  0  0  0  0  0  0
   -1.4488   -1.1115    0.0000 C   0  0  0  0  0  0  0  0  0  0  0  0
    2.0544    2.3676    0.0000 C   0  0  0  0  0  0  0  0  0  0  0  0
    2.8734    2.3538    0.0000 C   0  0  0  0  0  0  0  0  0  0  0  0
    2.1266    0.7261    0.0000 O   0  0  0  0  0  0  0  0  0  0  0  0
   -0.0069   -1.1115    0.0000 C   0  0  0  0  0  0  0  0  0  0  0  0
   -0.5196    1.9202    0.0000 O   0  0  0  0  0  0  0  0  0  0  0  0
    1.2388    2.2815    0.0000 C   0  0  0  0  0  0  0  0  0  0  0  0
   -1.4488   -1.9340    0.0000 C   0  0  0  0  0  0  0  0  0  0  0  0
   -0.0103   -1.9408    0.0000 C   0  0  0  0  0  0  0  0  0  0  0  0
   -0.7261   -2.3641    0.0000 C   0  0  0  0  0  0  0  0  0  0  0  0
    0.7020   -0.7020    0.0000 O   0  0  0  0  0  0  0  0  0  0  0  0
   -2.1576   -0.6985    0.0000 C   0  0  0  0  0  0  0  0  0  0  0  0
   -2.1576   -2.3572    0.0000 C   0  0  0  0  0  0  0  0  0  0  0  0
    1.4109   -1.1218    0.0000 C   0  0  0  0  0  0  0  0  0  0  0  0
   -2.8699   -1.1081    0.0000 C   0  0  0  0  0  0  0  0  0  0  0  0
    2.1266   -0.7123    0.0000 C   0  0  0  0  0  0  0  0  0  0  0  0
   -2.8768   -1.9340    0.0000 C   0  0  0  0  0  0  0  0  0  0  0  0
  2  1  1  0  0  0  0
  3  4  1  0  0  0  0
  4  1  1  0  0  0  0
  5  2  1  0  0  0  0
  5  3  1  0  0  0  0
  6  3  2  0  0  0  0
  7  6  1  0  0  0  0
  8  7  2  0  0  0  0
  9 14  1  0  0  0  0
 10  9  3  0  0  0  0
 11  2  2  0  0  0  0
 12  7  1  0  0  0  0
 13  4  2  0  0  0  0
 14  1  1  0  0  0  0
 15  8  1  0  0  0  0
 15 17  2  0  0  0  0
 16 12  2  0  0  0  0
 17 16  1  0  0  0  0
 18 12  1  0  0  0  0
 19  8  1  0  0  0  0
 20 15  1  0  0  0  0
 20 24  2  0  0  0  0
 21 18  1  0  0  0  0
 22 19  2  0  0  0  0
 23 21  1  0  0  0  0
 24 22  1  0  0  0  0
M  END
> <CdId>
1735

> <Mol Weight>
337.392

> <Formula>
C19H15NO3S

> <Click_ID>
CLK023_D10 __ __ 

$$$$
