CLK051G10
 OpenBabel03181404502D

 16 16  0  0  0  0  0  0  0  0999 V2000
   -0.0917   -0.3083    0.0000 C   0  0  0  0  0  0  0  0  0  0  0  0
   -0.8042    0.1042    0.0000 C   0  0  0  0  0  0  0  0  0  0  0  0
   -1.5208    2.1667    0.0000 C   0  0  0  0  0  0  0  0  0  0  0  0
   -1.5208    2.9917    0.0000 C   0  0  0  0  0  0  0  0  0  0  0  0
    0.6250    0.1042    0.0000 C   0  0  0  0  0  0  0  0  0  0  0  0
   -0.0917   -1.1333    0.0000 C   0  0  0  0  0  0  0  0  0  0  0  0
   -1.5208   -0.3083    0.0000 O   0  0  0  0  0  0  0  0  0  0  0  0
   -0.8042    0.9292    0.0000 N   0  0  0  0  0  0  0  0  0  0  0  0
    1.3375   -0.3083    0.0000 C   0  0  0  0  0  0  0  0  0  0  0  0
    0.6250   -1.5458    0.0000 C   0  0  0  0  0  0  0  0  0  0  0  0
    1.3375   -1.1333    0.0000 C   0  0  0  0  0  0  0  0  0  0  0  0
   -1.5208    1.3417    0.0000 C   0  0  0  0  0  0  0  0  0  0  0  0
    0.6250    0.9292    0.0000 O   0  0  0  0  0  0  0  0  0  0  0  0
    0.6250   -2.3708    0.0000 O   0  0  0  0  0  0  0  0  0  0  0  0
    1.3375    1.3417    0.0000 C   0  0  0  0  0  0  0  0  0  0  0  0
    1.3375   -2.7833    0.0000 C   0  0  0  0  0  0  0  0  0  0  0  0
  2  1  1  0  0  0  0
  3 12  1  0  0  0  0
  4  3  3  0  0  0  0
  5  1  2  0  0  0  0
  6  1  1  0  0  0  0
  7  2  2  0  0  0  0
  8  2  1  0  0  0  0
  9  5  1  0  0  0  0
  9 11  2  0  0  0  0
 10  6  2  0  0  0  0
 11 10  1  0  0  0  0
 12  8  1  0  0  0  0
 13  5  1  0  0  0  0
 14 10  1  0  0  0  0
 15 13  1  0  0  0  0
 16 14  1  0  0  0  0
M  END
> <CdId>
3959

> <Mol Weight>
219.2365

> <Formula>
C12H13NO3

> <Click_ID>
CLK051G10 __ __ 

$$$$
