CLK035_C04
 OpenBabel03181404502D

 26 28  0  0  0  0  0  0  0  0999 V2000
   -4.5837    2.5502    0.0000 C   0  0  0  0  0  0  0  0  0  0  0  0
   -3.8712    2.9711    0.0000 N   0  0  0  0  0  0  0  0  0  0  0  0
   -4.6837    1.7335    0.0000 N   0  0  0  0  0  0  0  0  0  0  0  0
   -3.8712    3.8004    0.0000 C   0  0  0  0  0  0  0  0  0  0  0  0
   -5.3213    2.8961    0.0000 S   0  0  0  0  0  0  0  0  0  0  0  0
   -5.4880    1.5751    0.0000 C   0  0  0  0  0  0  0  0  0  0  0  0
   -3.1586    4.2129    0.0000 C   0  0  0  0  0  0  0  0  0  0  0  0
   -5.8964    2.2960    0.0000 C   0  0  0  0  0  0  0  0  0  0  0  0
   -4.2504    0.3500    0.0000 C   0  0  0  0  0  0  0  0  0  0  0  0
   -4.4337   -0.4625    0.0000 C   0  0  0  0  0  0  0  0  0  0  0  0
   -4.5962    4.2046    0.0000 O   0  0  0  0  0  0  0  0  0  0  0  0
   -2.4377    3.7962    0.0000 C   0  0  0  0  0  0  0  0  0  0  0  0
   -3.1586    5.0297    0.0000 C   0  0  0  0  0  0  0  0  0  0  0  0
   -5.9131    0.8709    0.0000 C   0  0  0  0  0  0  0  0  0  0  0  0
   -4.0629    1.1584    0.0000 C   0  0  0  0  0  0  0  0  0  0  0  0
   -2.4460    2.9836    0.0000 F   0  0  0  0  0  0  0  0  0  0  0  0
   -3.8754    5.4380    0.0000 F   0  0  0  0  0  0  0  0  0  0  0  0
   -6.7048    2.3127    0.0000 C   0  0  0  0  0  0  0  0  0  0  0  0
   -5.5213    0.1375    0.0000 O   0  0  0  0  0  0  0  0  0  0  0  0
   -7.1424    1.6085    0.0000 C   0  0  0  0  0  0  0  0  0  0  0  0
   -1.7252    5.0297    0.0000 C   0  0  0  0  0  0  0  0  0  0  0  0
   -1.7252    4.2046    0.0000 C   0  0  0  0  0  0  0  0  0  0  0  0
   -2.4460    5.4422    0.0000 C   0  0  0  0  0  0  0  0  0  0  0  0
   -6.7298    0.8834    0.0000 C   0  0  0  0  0  0  0  0  0  0  0  0
   -5.9464   -0.5668    0.0000 C   0  0  0  0  0  0  0  0  0  0  0  0
   -5.5630   -1.2793    0.0000 C   0  0  0  0  0  0  0  0  0  0  0  0
  2  1  2  0  0  0  0
  3  1  1  0  0  0  0
  4  2  1  0  0  0  0
  5  1  1  0  0  0  0
  6  3  1  0  0  0  0
  7  4  1  0  0  0  0
  8  5  1  0  0  0  0
  8  6  2  0  0  0  0
  9 15  1  0  0  0  0
 10  9  3  0  0  0  0
 11  4  2  0  0  0  0
 12  7  2  0  0  0  0
 13  7  1  0  0  0  0
 14  6  1  0  0  0  0
 15  3  1  0  0  0  0
 16 12  1  0  0  0  0
 17 13  1  0  0  0  0
 18  8  1  0  0  0  0
 19 14  1  0  0  0  0
 20 18  2  0  0  0  0
 21 23  1  0  0  0  0
 21 22  2  0  0  0  0
 22 12  1  0  0  0  0
 23 13  2  0  0  0  0
 24 14  2  0  0  0  0
 24 20  1  0  0  0  0
 25 19  1  0  0  0  0
 26 25  1  0  0  0  0
M  END
> <CdId>
2668

> <Mol Weight>
372.388

> <Formula>
C19H14F2N2O2S

> <Click_ID>
CLK035_C04 __ __ 

$$$$
