CLK020_D09
 OpenBabel03181404502D

 29 30  0  0  0  0  0  0  0  0999 V2000
    1.8375   -1.8417    0.0000 C   0  0  0  0  0  0  0  0  0  0  0  0
    3.2542   -1.8417    0.0000 N   0  0  0  0  0  0  0  0  0  0  0  0
    3.2542   -2.6667    0.0000 C   0  0  0  0  0  0  0  0  0  0  0  0
    2.5417   -1.4250    0.0000 C   0  0  0  0  0  0  0  0  0  0  0  0
    2.5417   -3.0750    0.0000 N   0  0  0  0  0  0  0  0  0  0  0  0
    1.8375   -2.6667    0.0000 C   0  0  0  0  0  0  0  0  0  0  0  0
    1.1167   -1.4292    0.0000 C   0  0  0  0  0  0  0  0  0  0  0  0
    0.4042   -1.8417    0.0000 C   0  0  0  0  0  0  0  0  0  0  0  0
   -0.3125   -3.0875    0.0000 C   0  0  0  0  0  0  0  0  0  0  0  0
   -1.0333   -2.6667    0.0000 C   0  0  0  0  0  0  0  0  0  0  0  0
   -1.0250   -1.8417    0.0000 C   0  0  0  0  0  0  0  0  0  0  0  0
    3.9750   -3.0792    0.0000 S   0  0  0  0  0  0  0  0  0  0  0  0
   -3.1875   -3.0625    0.0000 C   0  0  0  0  0  0  0  0  0  0  0  0
   -3.9083   -3.4792    0.0000 C   0  0  0  0  0  0  0  0  0  0  0  0
    2.5417   -0.6000    0.0000 O   0  0  0  0  0  0  0  0  0  0  0  0
    0.4042   -2.6750    0.0000 C   0  0  0  0  0  0  0  0  0  0  0  0
   -0.3083   -1.4292    0.0000 C   0  0  0  0  0  0  0  0  0  0  0  0
    1.1167   -3.0792    0.0000 O   0  0  0  0  0  0  0  0  0  0  0  0
    3.9750   -1.4292    0.0000 C   0  0  0  0  0  0  0  0  0  0  0  0
    3.9750   -0.6042    0.0000 C   0  0  0  0  0  0  0  0  0  0  0  0
   -1.7583   -0.6125    0.0000 C   0  0  0  0  0  0  0  0  0  0  0  0
    4.6917   -0.2000    0.0000 C   0  0  0  0  0  0  0  0  0  0  0  0
   -2.4708   -0.2042    0.0000 C   0  0  0  0  0  0  0  0  0  0  0  0
   -0.3250   -3.9042    0.0000 O   0  0  0  0  0  0  0  0  0  0  0  0
   -1.7500   -3.0792    0.0000 O   0  0  0  0  0  0  0  0  0  0  0  0
   -1.7458   -1.4417    0.0000 C   0  0  0  0  0  0  0  0  0  0  0  0
   -2.4708   -2.6542    0.0000 C   0  0  0  0  0  0  0  0  0  0  0  0
    0.3875   -4.3167    0.0000 C   0  0  0  0  0  0  0  0  0  0  0  0
    0.3792   -5.1417    0.0000 C   0  0  0  0  0  0  0  0  0  0  0  0
  2  4  1  0  0  0  0
  2  3  1  0  0  0  0
  3  5  1  0  0  0  0
  4  1  1  0  0  0  0
  5  6  1  0  0  0  0
  6  1  1  0  0  0  0
  7  1  2  0  0  0  0
  8  7  1  0  0  0  0
  9 16  1  0  0  0  0
  9 10  2  0  0  0  0
 10 11  1  0  0  0  0
 11 17  2  0  0  0  0
 12  3  2  0  0  0  0
 13 27  1  0  0  0  0
 14 13  3  0  0  0  0
 15  4  2  0  0  0  0
 16  8  2  0  0  0  0
 17  8  1  0  0  0  0
 18  6  2  0  0  0  0
 19  2  1  0  0  0  0
 20 19  1  0  0  0  0
 21 26  1  0  0  0  0
 22 20  2  0  0  0  0
 23 21  2  0  0  0  0
 24  9  1  0  0  0  0
 25 10  1  0  0  0  0
 26 11  1  0  0  0  0
 27 25  1  0  0  0  0
 28 24  1  0  0  0  0
 29 28  1  0  0  0  0
M  END
> <CdId>
1514

> <Mol Weight>
410.486

> <Formula>
C22H22N2O4S

> <Click_ID>
CLK020_D09 __ __ 

$$$$
