CLK041G02
 OpenBabel03181404502D

 21 23  0  0  0  0  0  0  0  0999 V2000
    0.2747    0.8782    0.0000 C   0  0  0  0  0  0  0  0  0  0  0  0
    0.7574    1.5482    0.0000 C   0  0  0  0  0  0  0  0  0  0  0  0
    0.2747    2.2142    0.0000 N   0  0  0  0  0  0  0  0  0  0  0  0
    0.5286    0.0957    0.0000 C   0  0  0  0  0  0  0  0  0  0  0  0
   -0.5119    1.1362    0.0000 C   0  0  0  0  0  0  0  0  0  0  0  0
   -0.5119    1.9603    0.0000 C   0  0  0  0  0  0  0  0  0  0  0  0
   -0.0250   -0.5161    0.0000 C   0  0  0  0  0  0  0  0  0  0  0  0
    2.0976   -2.4264    0.0000 C   0  0  0  0  0  0  0  0  0  0  0  0
    2.9050   -2.5970    0.0000 C   0  0  0  0  0  0  0  0  0  0  0  0
    1.5815    1.5482    0.0000 O   0  0  0  0  0  0  0  0  0  0  0  0
    0.2330   -1.2985    0.0000 C   0  0  0  0  0  0  0  0  0  0  0  0
    1.0363   -1.4691    0.0000 O   0  0  0  0  0  0  0  0  0  0  0  0
    1.2902   -2.2557    0.0000 C   0  0  0  0  0  0  0  0  0  0  0  0
   -1.2236    0.7242    0.0000 C   0  0  0  0  0  0  0  0  0  0  0  0
   -1.2236    2.3723    0.0000 C   0  0  0  0  0  0  0  0  0  0  0  0
   -0.8283   -0.3454    0.0000 C   0  0  0  0  0  0  0  0  0  0  0  0
   -0.3204   -1.9103    0.0000 C   0  0  0  0  0  0  0  0  0  0  0  0
   -1.9395    1.1362    0.0000 C   0  0  0  0  0  0  0  0  0  0  0  0
   -1.9395    1.9603    0.0000 C   0  0  0  0  0  0  0  0  0  0  0  0
   -1.3817   -0.9572    0.0000 C   0  0  0  0  0  0  0  0  0  0  0  0
   -1.1279   -1.7397    0.0000 C   0  0  0  0  0  0  0  0  0  0  0  0
  2  1  1  0  0  0  0
  3  2  1  0  0  0  0
  4  1  2  0  0  0  0
  5  1  1  0  0  0  0
  6  5  2  0  0  0  0
  6  3  1  0  0  0  0
  7  4  1  0  0  0  0
  8 13  1  0  0  0  0
  9  8  3  0  0  0  0
 10  2  2  0  0  0  0
 11  7  2  0  0  0  0
 12 11  1  0  0  0  0
 13 12  1  0  0  0  0
 14  5  1  0  0  0  0
 15  6  1  0  0  0  0
 16  7  1  0  0  0  0
 17 11  1  0  0  0  0
 18 14  2  0  0  0  0
 18 19  1  0  0  0  0
 19 15  2  0  0  0  0
 20 16  2  0  0  0  0
 21 17  2  0  0  0  0
 21 20  1  0  0  0  0
M  END
> <CdId>
3095

> <Mol Weight>
275.3013

> <Formula>
C18H13NO2

> <Click_ID>
CLK041G02 __ __ 

$$$$
