CLK001_F06
 OpenBabel03181404502D

 20 20  0  0  0  0  0  0  0  0999 V2000
   -0.5026    0.1497    0.0000 C   0  0  0  0  0  0  0  0  0  0  0  0
   -1.3430    0.1497    0.0000 N   0  0  0  0  0  0  0  0  0  0  0  0
   -0.0998   -0.5678    0.0000 N   0  0  0  0  0  0  0  0  0  0  0  0
   -0.0998    0.8595    0.0000 N   0  0  0  0  0  0  0  0  0  0  0  0
   -1.7459    0.8595    0.0000 C   0  0  0  0  0  0  0  0  0  0  0  0
   -1.7459   -0.5678    0.0000 C   0  0  0  0  0  0  0  0  0  0  0  0
    0.7482   -0.5678    0.0000 C   0  0  0  0  0  0  0  0  0  0  0  0
    0.7482    0.8595    0.0000 C   0  0  0  0  0  0  0  0  0  0  0  0
   -2.5901    0.8595    0.0000 C   0  0  0  0  0  0  0  0  0  0  0  0
   -2.1718   -1.2969    0.0000 N   0  0  0  0  0  0  0  0  0  0  0  0
    1.1473    0.1497    0.0000 N   0  0  0  0  0  0  0  0  0  0  0  0
    1.1665   -1.2969    0.0000 N   0  0  0  0  0  0  0  0  0  0  0  0
    1.1665    1.5963    0.0000 N   0  0  0  0  0  0  0  0  0  0  0  0
   -3.4151    0.8595    0.0000 C   0  0  0  0  0  0  0  0  0  0  0  0
    0.7482   -2.0337    0.0000 C   0  0  0  0  0  0  0  0  0  0  0  0
    2.0375    1.5963    0.0000 C   0  0  0  0  0  0  0  0  0  0  0  0
   -0.0768   -2.0337    0.0000 C   0  0  0  0  0  0  0  0  0  0  0  0
    1.1665   -2.7704    0.0000 C   0  0  0  0  0  0  0  0  0  0  0  0
    2.4404    0.8787    0.0000 C   0  0  0  0  0  0  0  0  0  0  0  0
    2.4404    2.3061    0.0000 C   0  0  0  0  0  0  0  0  0  0  0  0
  1  2  1  0  0  0  0
  1  3  2  0  0  0  0
  1  4  1  0  0  0  0
  2  5  1  0  0  0  0
  2  6  1  0  0  0  0
  3  7  1  0  0  0  0
  4  8  2  0  0  0  0
  5  9  1  0  0  0  0
  6 10  3  0  0  0  0
  7 11  2  0  0  0  0
  7 12  1  0  0  0  0
  8 13  1  0  0  0  0
  8 11  1  0  0  0  0
  9 14  3  0  0  0  0
 12 15  1  0  0  0  0
 13 16  1  0  0  0  0
 15 17  1  0  0  0  0
 15 18  1  0  0  0  0
 16 19  1  0  0  0  0
 16 20  1  0  0  0  0
M  END
> <CdId>
55

> <Mol Weight>
273.3369

> <Formula>
C13H19N7

> <Click_ID>
CLK001_F06 __ __ 

$$$$
