CLK006_C09
 OpenBabel03181404502D

 24 26  0  0  0  0  0  0  0  0999 V2000
    0.0587   -0.4488    0.0000 C    0  0  0  0  0  0  0  0  0  0  0  0
    0.7732   -0.0345    0.0000 C    0  0  3  0  0  0  0  0  0  0  0  0
    0.0587   -1.2669    0.0000 C    0  0  0  0  0  0  0  0  0  0  0  0
   -0.6524   -0.0276    0.0000 C    0  0  0  0  0  0  0  0  0  0  0  0
    0.7732    0.7906    0.0000 C    0  0  0  0  0  0  0  0  0  0  0  0
    1.4844   -0.4419    0.0000 C    0  0  0  0  0  0  0  0  0  0  0  0
   -0.6524   -1.6777    0.0000 N    0  0  0  0  0  0  0  0  0  0  0  0
    0.7732   -1.6777    0.0000 N    0  0  0  0  0  0  0  0  0  0  0  0
   -1.3601   -0.4488    0.0000 N    0  0  0  0  0  0  0  0  0  0  0  0
   -0.6524    0.7975    0.0000 O    0  0  0  0  0  0  0  0  0  0  0  0
    1.4844    1.1979    0.0000 C    0  0  0  0  0  0  0  0  0  0  0  0
    0.0587    1.1979    0.0000 C    0  0  0  0  0  0  0  0  0  0  0  0
    1.4844   -1.2669    0.0000 C    0  0  0  0  0  0  0  0  0  0  0  0
   -1.3601   -1.2738    0.0000 C    0  0  0  0  0  0  0  0  0  0  0  0
    1.4844    2.0263    0.0000 C    0  0  0  0  0  0  0  0  0  0  0  0
    2.1990    0.7871    0.0000 Cl   0  0  0  0  0  0  0  0  0  0  0  0
    0.0484    2.0160    0.0000 C    0  0  0  0  0  0  0  0  0  0  0  0
    2.1990   -1.6777    0.0000 O    0  0  0  0  0  0  0  0  0  0  0  0
   -2.0816   -1.6880    0.0000 S    0  0  0  0  0  0  0  0  0  0  0  0
    0.7698    2.4372    0.0000 C    0  0  0  0  0  0  0  0  0  0  0  0
    2.1990    2.4406    0.0000 Cl   0  0  0  0  0  0  0  0  0  0  0  0
   -2.7927   -1.2738    0.0000 C    0  0  0  0  0  0  0  0  0  0  0  0
   -2.7927   -0.4488    0.0000 C    0  0  0  0  0  0  0  0  0  0  0  0
   -3.5072   -0.0345    0.0000 C    0  0  0  0  0  0  0  0  0  0  0  0
  1  2  1  0  0  0  0
  1  3  2  0  0  0  0
  1  4  1  0  0  0  0
  2  5  1  0  0  0  0
  2  6  1  0  0  0  0
  3  7  1  0  0  0  0
  3  8  1  0  0  0  0
  4  9  1  0  0  0  0
  4 10  2  0  0  0  0
  5 11  2  0  0  0  0
  5 12  1  0  0  0  0
  6 13  1  0  0  0  0
  7 14  2  0  0  0  0
  8 13  1  0  0  0  0
  9 14  1  0  0  0  0
 11 15  1  0  0  0  0
 11 16  1  0  0  0  0
 12 17  2  0  0  0  0
 13 18  2  0  0  0  0
 14 19  1  0  0  0  0
 15 20  2  0  0  0  0
 15 21  1  0  0  0  0
 17 20  1  0  0  0  0
 19 22  1  0  0  0  0
 22 23  1  0  0  0  0
 23 24  3  0  0  0  0
M  END
> <CdId>
428

> <Mol Weight>
380.248

> <Formula>
C16H11Cl2N3O2S

> <Click_ID>
CLK006_C09 __ __ 

$$$$
