CLK014_C08
 OpenBabel03181404502D

 32 34  0  0  0  0  0  0  0  0999 V2000
    1.5619   -0.8142    0.0000 N    0  0  0  0  0  0  0  0  0  0  0  0
    1.8195   -1.5993    0.0000 C    0  0  0  0  0  0  0  0  0  0  0  0
    2.2307   -0.3282    0.0000 C    0  0  0  0  0  0  0  0  0  0  0  0
    2.8954   -0.8142    0.0000 C    0  0  0  0  0  0  0  0  0  0  0  0
    2.6420   -1.5993    0.0000 S    0  0  0  0  0  0  0  0  0  0  0  0
    4.1914    1.8651    0.0000 C    0  0  0  0  0  0  0  0  0  0  0  0
    3.6805   -0.5608    0.0000 C    0  0  0  0  0  0  0  0  0  0  0  0
    4.8104    1.3085    0.0000 C    0  0  0  0  0  0  0  0  0  0  0  0
    3.4063    1.6159    0.0000 C    0  0  0  0  0  0  0  0  0  0  0  0
    3.8425    0.2451    0.0000 C    0  0  0  0  0  0  0  0  0  0  0  0
    7.0535    5.0471    0.0000 C    0  0  0  0  0  0  0  0  0  0  0  0
    4.3617    2.6752    0.0000 O    0  0  0  0  0  0  0  0  0  0  0  0
    0.6106    0.2451    0.0000 C    0  0  0  0  0  0  0  0  0  0  0  0
    0.3905    1.0426    0.0000 C    0  0  0  0  0  0  0  0  0  0  0  0
    6.2601    4.7896    0.0000 C    0  0  0  0  0  0  0  0  0  0  0  0
    1.3334   -2.2598    0.0000 O    0  0  0  0  0  0  0  0  0  0  0  0
    4.6401    0.5068    0.0000 C    0  0  0  0  0  0  0  0  0  0  0  0
    2.2224    0.4943    0.0000 O    0  0  0  0  0  0  0  0  0  0  0  0
    3.2319    0.7976    0.0000 C    0  0  0  0  0  0  0  0  0  0  0  0
    0.7851   -0.5608    0.0000 C    0  0  0  0  0  0  0  0  0  0  0  0
    6.1064    3.9837    0.0000 C    0  0  0  0  0  0  0  0  0  0  0  0
    7.2197    5.8572    0.0000 O    0  0  0  0  0  0  0  0  0  0  0  0
    5.5955    1.5660    0.0000 Cl   0  0  0  0  0  0  0  0  0  0  0  0
    5.1386    2.9244    0.0000 C    0  0  0  0  0  0  0  0  0  0  0  0
    7.6684    4.4905    0.0000 O    0  0  0  0  0  0  0  0  0  0  0  0
    5.3130    3.7344    0.0000 C    0  0  0  0  0  0  0  0  0  0  0  0
    2.8040    2.1642    0.0000 O    0  0  0  0  0  0  0  0  0  0  0  0
    5.6495    5.3380    0.0000 C    0  0  0  0  0  0  0  0  0  0  0  0
    4.8769    5.0763    0.0000 C    0  0  0  0  0  0  0  0  0  0  0  0
    4.7024    4.2662    0.0000 C    0  0  0  0  0  0  0  0  0  0  0  0
    2.0189    1.9067    0.0000 C    0  0  0  0  0  0  0  0  0  0  0  0
    1.4082    2.4633    0.0000 C    0  0  0  0  0  0  0  0  0  0  0  0
  2  1  1  0  0  0  0
  3  1  1  0  0  0  0
  4  3  1  0  0  0  0
  4  5  1  0  0  0  0
  5  2  1  0  0  0  0
  6  9  2  0  0  0  0
  6  8  1  0  0  0  0
  7  4  2  0  0  0  0
  8 17  2  0  0  0  0
  9 19  1  0  0  0  0
 10  7  1  0  0  0  0
 11 15  1  0  0  0  0
 12  6  1  0  0  0  0
 13 20  1  0  0  0  0
 14 13  3  0  0  0  0
 15 21  1  0  0  0  0
 15 28  2  0  0  0  0
 16  2  2  0  0  0  0
 17 10  1  0  0  0  0
 18  3  2  0  0  0  0
 19 10  2  0  0  0  0
 20  1  1  0  0  0  0
 21 26  2  0  0  0  0
 22 11  2  0  0  0  0
 23  8  1  0  0  0  0
 24 12  1  0  0  0  0
 25 11  1  0  0  0  0
 26 24  1  0  0  0  0
 27  9  1  0  0  0  0
 28 29  1  0  0  0  0
 29 30  2  0  0  0  0
 30 26  1  0  0  0  0
 31 27  1  0  0  0  0
 32 31  1  0  0  0  0
M  END
> <CdId>
1023

> <Mol Weight>
471.91

> <Formula>
C23H18ClNO6S

> <Click_ID>
CLK014_C08 __ __ 

$$$$
