CLK026_H09
 OpenBabel03181404502D

 31 34  0  0  0  0  0  0  0  0999 V2000
   -2.8563    1.8045    0.0000 N   0  0  0  0  0  0  0  0  0  0  0  0
   -3.6674    1.6292    0.0000 C   0  0  0  0  0  0  0  0  0  0  0  0
   -2.9938    0.4709    0.0000 C   0  0  0  0  0  0  0  0  0  0  0  0
   -2.4370    1.0895    0.0000 C   0  0  0  0  0  0  0  0  0  0  0  0
   -0.7012   -0.5774    0.0000 N   0  0  0  0  0  0  0  0  0  0  0  0
   -2.0245   -0.5809    0.0000 C   0  0  0  0  0  0  0  0  0  0  0  0
   -3.7534    0.8078    0.0000 S   0  0  0  0  0  0  0  0  0  0  0  0
   -1.3714   -0.1031    0.0000 C   0  0  0  0  0  0  0  0  0  0  0  0
   -2.8185   -0.3403    0.0000 C   0  0  0  0  0  0  0  0  0  0  0  0
   -0.9487   -1.3646    0.0000 C   0  0  0  0  0  0  0  0  0  0  0  0
   -1.7736   -1.3749    0.0000 C   0  0  0  0  0  0  0  0  0  0  0  0
    0.6977   -0.8799    0.0000 C   0  0  0  0  0  0  0  0  0  0  0  0
    0.0860   -0.3197    0.0000 C   0  0  0  0  0  0  0  0  0  0  0  0
   -1.7014    2.6535    0.0000 C   0  0  0  0  0  0  0  0  0  0  0  0
   -0.8799    2.7909    0.0000 C   0  0  0  0  0  0  0  0  0  0  0  0
    1.4814   -0.6152    0.0000 N   0  0  0  0  0  0  0  0  0  0  0  0
   -4.2792    2.1792    0.0000 O   0  0  0  0  0  0  0  0  0  0  0  0
   -1.6154    1.0140    0.0000 O   0  0  0  0  0  0  0  0  0  0  0  0
   -2.5228    2.5607    0.0000 C   0  0  0  0  0  0  0  0  0  0  0  0
    0.5327   -1.6773    0.0000 O   0  0  0  0  0  0  0  0  0  0  0  0
    2.0932   -1.1549    0.0000 C   0  0  0  0  0  0  0  0  0  0  0  0
    2.8734   -0.9006    0.0000 C   0  0  0  0  0  0  0  0  0  0  0  0
    3.4990   -1.4539    0.0000 C   0  0  0  0  0  0  0  0  0  0  0  0
   -0.5362   -2.0761    0.0000 C   0  0  0  0  0  0  0  0  0  0  0  0
   -2.1860   -2.0864    0.0000 C   0  0  0  0  0  0  0  0  0  0  0  0
    2.5366   -2.5125    0.0000 C   0  0  0  0  0  0  0  0  0  0  0  0
    1.9282   -1.9592    0.0000 C   0  0  0  0  0  0  0  0  0  0  0  0
    3.3134   -2.2651    0.0000 C   0  0  0  0  0  0  0  0  0  0  0  0
    4.2758   -1.1996    0.0000 C   0  0  0  0  0  0  0  0  0  0  0  0
   -1.7736   -2.7841    0.0000 C   0  0  0  0  0  0  0  0  0  0  0  0
   -0.9418   -2.7876    0.0000 C   0  0  0  0  0  0  0  0  0  0  0  0
  2  1  1  0  0  0  0
  3  4  1  0  0  0  0
  4  1  1  0  0  0  0
  5  8  1  0  0  0  0
  6  9  1  0  0  0  0
  7  2  1  0  0  0  0
  7  3  1  0  0  0  0
  8  6  2  0  0  0  0
  9  3  2  0  0  0  0
 10 11  1  0  0  0  0
 10  5  1  0  0  0  0
 11  6  1  0  0  0  0
 12 13  1  0  0  0  0
 13  5  1  0  0  0  0
 14 19  1  0  0  0  0
 15 14  3  0  0  0  0
 16 12  1  0  0  0  0
 17  2  2  0  0  0  0
 18  4  2  0  0  0  0
 19  1  1  0  0  0  0
 20 12  2  0  0  0  0
 21 16  1  0  0  0  0
 22 21  1  0  0  0  0
 23 22  2  0  0  0  0
 24 10  2  0  0  0  0
 25 11  2  0  0  0  0
 26 27  1  0  0  0  0
 27 21  2  0  0  0  0
 28 26  2  0  0  0  0
 28 23  1  0  0  0  0
 29 23  1  0  0  0  0
 30 25  1  0  0  0  0
 31 30  2  0  0  0  0
 31 24  1  0  0  0  0
M  END
> <CdId>
2014

> <Mol Weight>
429.491

> <Formula>
C24H19N3O3S

> <Click_ID>
CLK026_H09 __ __ 

$$$$
