CLK040D10
 OpenBabel03181404502D

 27 28  0  0  0  0  0  0  0  0999 V2000
   -0.2125    1.4083    0.0000 S   0  0  0  0  0  0  0  0  0  0  0  0
   -0.2125    0.5833    0.0000 N   0  0  0  0  0  0  0  0  0  0  0  0
   -0.2125   -1.8917    0.0000 C   0  0  0  0  0  0  0  0  0  0  0  0
   -0.2125    2.2333    0.0000 C   0  0  0  0  0  0  0  0  0  0  0  0
    0.5000   -2.3042    0.0000 N   0  0  0  0  0  0  0  0  0  0  0  0
    0.5000   -3.9542    0.0000 C   0  0  0  0  0  0  0  0  0  0  0  0
   -1.0375    1.4083    0.0000 O   0  0  0  0  0  0  0  0  0  0  0  0
    0.6125    1.4083    0.0000 O   0  0  0  0  0  0  0  0  0  0  0  0
    0.5000   -4.7792    0.0000 C   0  0  0  0  0  0  0  0  0  0  0  0
    0.5000   -3.1292    0.0000 C   0  0  0  0  0  0  0  0  0  0  0  0
   -0.2125   -1.0667    0.0000 C   0  0  0  0  0  0  0  0  0  0  0  0
    0.5000    0.1708    0.0000 C   0  0  0  0  0  0  0  0  0  0  0  0
   -0.9292    0.1708    0.0000 C   0  0  0  0  0  0  0  0  0  0  0  0
   -0.9292   -2.3042    0.0000 O   0  0  0  0  0  0  0  0  0  0  0  0
    0.5000   -0.6542    0.0000 C   0  0  0  0  0  0  0  0  0  0  0  0
   -0.9292   -0.6542    0.0000 C   0  0  0  0  0  0  0  0  0  0  0  0
    0.5000    2.6458    0.0000 C   0  0  0  0  0  0  0  0  0  0  0  0
   -0.9292    2.6458    0.0000 C   0  0  0  0  0  0  0  0  0  0  0  0
   -0.2125    3.8833    0.0000 C   0  0  0  0  0  0  0  0  0  0  0  0
   -0.9292    3.4708    0.0000 C   0  0  0  0  0  0  0  0  0  0  0  0
    0.5000    3.4708    0.0000 C   0  0  0  0  0  0  0  0  0  0  0  0
   -0.2125    4.7042    0.0000 O   0  0  0  0  0  0  0  0  0  0  0  0
   -0.3250   -3.1292    0.0000 C   0  0  0  0  0  0  0  0  0  0  0  0
    1.3250   -3.1292    0.0000 C   0  0  0  0  0  0  0  0  0  0  0  0
    0.5000    5.1167    0.0000 C   0  0  0  0  0  0  0  0  0  0  0  0
    1.7375   -3.8458    0.0000 C   0  0  0  0  0  0  0  0  0  0  0  0
   -0.7375   -2.4167    0.0000 C   0  0  0  0  0  0  0  0  0  0  0  0
  2  1  1  0  0  0  0
  3 11  1  0  0  0  0
  4  1  1  0  0  0  0
  5  3  1  0  0  0  0
  6 10  1  0  0  0  0
  7  1  2  0  0  0  0
  8  1  2  0  0  0  0
  9  6  3  0  0  0  0
 10  5  1  0  0  0  0
 11 16  1  0  0  0  0
 12  2  1  0  0  0  0
 13  2  1  0  0  0  0
 14  3  2  0  0  0  0
 15 12  1  0  0  0  0
 15 11  1  0  0  0  0
 16 13  1  0  0  0  0
 17  4  1  0  0  0  0
 18  4  2  0  0  0  0
 19 20  2  0  0  0  0
 19 21  1  0  0  0  0
 20 18  1  0  0  0  0
 21 17  2  0  0  0  0
 22 19  1  0  0  0  0
 23 10  1  0  0  0  0
 24 10  1  0  0  0  0
 25 22  1  0  0  0  0
 26 24  1  0  0  0  0
 27 23  1  0  0  0  0
M  END
> <CdId>
3076

> <Mol Weight>
392.512

> <Formula>
C20H28N2O4S

> <Click_ID>
CLK040D10 __ __ 

$$$$
