CLK024_A02
 OpenBabel03181404502D

 30 31  0  0  0  0  0  0  0  0999 V2000
    0.7012    0.5878    0.0000 C   0  0  0  0  0  0  0  0  0  0  0  0
    6.4212   -1.9250    0.0000 C   0  0  0  0  0  0  0  0  0  0  0  0
    7.1397   -2.3444    0.0000 C   0  0  0  0  0  0  0  0  0  0  0  0
    2.1347    0.5672    0.0000 N   0  0  0  0  0  0  0  0  0  0  0  0
   -1.4369    1.0278    0.0000 C   0  0  0  0  0  0  0  0  0  0  0  0
    1.4231    0.9865    0.0000 N   0  0  0  0  0  0  0  0  0  0  0  0
   -0.7253    0.6050    0.0000 N   0  0  0  0  0  0  0  0  0  0  0  0
    0.6909   -0.2337    0.0000 O   0  0  0  0  0  0  0  0  0  0  0  0
   -1.4266    1.8528    0.0000 O   0  0  0  0  0  0  0  0  0  0  0  0
   -0.0068    1.0141    0.0000 C   0  0  0  0  0  0  0  0  0  0  0  0
    2.8566    0.9762    0.0000 C   0  0  0  0  0  0  0  0  0  0  0  0
    3.5716    0.5534    0.0000 C   0  0  0  0  0  0  0  0  0  0  0  0
   -5.7028    1.9216    0.0000 C   0  0  0  0  0  0  0  0  0  0  0  0
    4.9981   -0.2716    0.0000 C   0  0  0  0  0  0  0  0  0  0  0  0
   -4.2935    1.0760    0.0000 C   0  0  0  0  0  0  0  0  0  0  0  0
    3.5716   -0.2716    0.0000 C   0  0  0  0  0  0  0  0  0  0  0  0
    4.2797    0.9625    0.0000 C   0  0  0  0  0  0  0  0  0  0  0  0
   -4.9809    2.3135    0.0000 C   0  0  0  0  0  0  0  0  0  0  0  0
   -5.7166    1.0897    0.0000 C   0  0  0  0  0  0  0  0  0  0  0  0
    4.2797   -0.6806    0.0000 C   0  0  0  0  0  0  0  0  0  0  0  0
    4.9981    0.5534    0.0000 C   0  0  0  0  0  0  0  0  0  0  0  0
   -4.2797    1.8975    0.0000 C   0  0  0  0  0  0  0  0  0  0  0  0
   -5.0050    0.6668    0.0000 C   0  0  0  0  0  0  0  0  0  0  0  0
    5.7131   -1.5159    0.0000 C   0  0  0  0  0  0  0  0  0  0  0  0
    5.7131   -0.6944    0.0000 O   0  0  0  0  0  0  0  0  0  0  0  0
   -6.4178    2.3478    0.0000 O   0  0  0  0  0  0  0  0  0  0  0  0
   -2.1588    0.6256    0.0000 C   0  0  0  0  0  0  0  0  0  0  0  0
   -2.8669    1.0484    0.0000 C   0  0  0  0  0  0  0  0  0  0  0  0
   -3.5819    0.6532    0.0000 C   0  0  0  0  0  0  0  0  0  0  0  0
   -7.1397    1.9456    0.0000 C   0  0  0  0  0  0  0  0  0  0  0  0
  2 24  1  0  0  0  0
  3  2  3  0  0  0  0
  4  6  1  0  0  0  0
  5  7  1  0  0  0  0
  6  1  1  0  0  0  0
  7 10  1  0  0  0  0
  8  1  2  0  0  0  0
  9  5  2  0  0  0  0
 10  1  1  0  0  0  0
 11  4  2  0  0  0  0
 12 11  1  0  0  0  0
 13 19  1  0  0  0  0
 14 21  1  0  0  0  0
 15 29  1  0  0  0  0
 16 12  2  0  0  0  0
 17 12  1  0  0  0  0
 18 22  1  0  0  0  0
 18 13  2  0  0  0  0
 19 23  2  0  0  0  0
 20 16  1  0  0  0  0
 20 14  2  0  0  0  0
 21 17  2  0  0  0  0
 22 15  2  0  0  0  0
 23 15  1  0  0  0  0
 24 25  1  0  0  0  0
 25 14  1  0  0  0  0
 26 13  1  0  0  0  0
 27  5  1  0  0  0  0
 28 27  1  0  0  0  0
 29 28  1  0  0  0  0
 30 26  1  0  0  0  0
M  END
> <CdId>
1777

> <Mol Weight>
407.4623

> <Formula>
C23H25N3O4

> <Click_ID>
CLK024_A02 __ __ 

$$$$
