CLK002_E11
 OpenBabel03181404502D

 27 29  0  0  0  0  0  0  0  0999 V2000
    0.0923    0.8837    0.0000 N   0  0  0  0  0  0  0  0  0  0  0  0
    0.0923    0.0615    0.0000 C   0  0  0  0  0  0  0  0  0  0  0  0
   -0.6417    1.3102    0.0000 C   0  0  0  0  0  0  0  0  0  0  0  0
    0.8068    1.3102    0.0000 C   0  0  0  0  0  0  0  0  0  0  0  0
   -0.6417   -0.3611    0.0000 N   0  0  0  0  0  0  0  0  0  0  0  0
    0.8068   -0.3611    0.0000 N   0  0  0  0  0  0  0  0  0  0  0  0
   -1.3562    0.8837    0.0000 C   0  0  0  0  0  0  0  0  0  0  0  0
   -0.6417    2.1324    0.0000 C   0  0  0  0  0  0  0  0  0  0  0  0
    0.8068    2.1324    0.0000 C   0  0  0  0  0  0  0  0  0  0  0  0
    1.5177    0.8837    0.0000 C   0  0  0  0  0  0  0  0  0  0  0  0
   -0.6417   -1.1834    0.0000 C   0  0  0  0  0  0  0  0  0  0  0  0
    0.8068   -1.1834    0.0000 C   0  0  0  0  0  0  0  0  0  0  0  0
   -2.0671    1.3102    0.0000 C   0  0  0  0  0  0  0  0  0  0  0  0
   -1.3562    2.5436    0.0000 C   0  0  0  0  0  0  0  0  0  0  0  0
    1.5177    2.5436    0.0000 C   0  0  0  0  0  0  0  0  0  0  0  0
    2.2285    1.3102    0.0000 C   0  0  0  0  0  0  0  0  0  0  0  0
    0.0923   -1.6098    0.0000 N   0  0  0  0  0  0  0  0  0  0  0  0
   -1.3793   -1.6291    0.0000 O   0  0  0  0  0  0  0  0  0  0  0  0
    1.5408   -1.6291    0.0000 O   0  0  0  0  0  0  0  0  0  0  0  0
   -2.0671    2.1324    0.0000 C   0  0  0  0  0  0  0  0  0  0  0  0
    2.2285    2.1324    0.0000 C   0  0  0  0  0  0  0  0  0  0  0  0
   -2.1171   -1.2103    0.0000 C   0  0  0  0  0  0  0  0  0  0  0  0
    1.5408   -2.4782    0.0000 C   0  0  0  0  0  0  0  0  0  0  0  0
   -2.8278   -1.6291    0.0000 C   0  0  0  0  0  0  0  0  0  0  0  0
    2.2553   -2.9047    0.0000 C   0  0  0  0  0  0  0  0  0  0  0  0
   -3.5656   -2.0555    0.0000 C   0  0  0  0  0  0  0  0  0  0  0  0
    2.9662   -3.3273    0.0000 C   0  0  0  0  0  0  0  0  0  0  0  0
  1  2  1  0  0  0  0
  1  3  1  0  0  0  0
  1  4  1  0  0  0  0
  2  5  2  0  0  0  0
  2  6  1  0  0  0  0
  3  7  1  0  0  0  0
  3  8  2  0  0  0  0
  4  9  1  0  0  0  0
  4 10  2  0  0  0  0
  5 11  1  0  0  0  0
  6 12  2  0  0  0  0
  7 13  2  0  0  0  0
  8 14  1  0  0  0  0
  9 15  2  0  0  0  0
 10 16  1  0  0  0  0
 11 17  2  0  0  0  0
 11 18  1  0  0  0  0
 12 19  1  0  0  0  0
 12 17  1  0  0  0  0
 13 20  1  0  0  0  0
 14 20  2  0  0  0  0
 15 21  1  0  0  0  0
 16 21  2  0  0  0  0
 18 22  1  0  0  0  0
 19 23  1  0  0  0  0
 22 24  1  0  0  0  0
 23 25  1  0  0  0  0
 24 26  3  0  0  0  0
 25 27  3  0  0  0  0
M  END
> <CdId>
130

> <Mol Weight>
356.3773

> <Formula>
C21H16N4O2

> <Click_ID>
CLK002_E11 __ __ 

$$$$
