CLK037A07
 OpenBabel03181404502D

 28 28  0  0  0  0  0  0  0  0999 V2000
    4.6708    0.3583    0.0000 C   0  0  0  0  0  0  0  0  0  0  0  0
    4.2583   -0.3542    0.0000 C   0  0  0  0  0  0  0  0  0  0  0  0
   -1.7875    1.7458    0.0000 C   0  0  0  0  0  0  0  0  0  0  0  0
   -2.5042    1.3333    0.0000 C   0  0  0  0  0  0  0  0  0  0  0  0
    1.0708    1.7458    0.0000 C   0  0  0  0  0  0  0  0  0  0  0  0
    5.4958    0.3583    0.0000 O   0  0  0  0  0  0  0  0  0  0  0  0
    4.6708   -1.0708    0.0000 O   0  0  0  0  0  0  0  0  0  0  0  0
    0.3542    2.1583    0.0000 C   0  0  0  0  0  0  0  0  0  0  0  0
    4.2583    1.0750    0.0000 O   0  0  0  0  0  0  0  0  0  0  0  0
    3.4333   -0.3542    0.0000 O   0  0  0  0  0  0  0  0  0  0  0  0
   -0.3583   -3.2042    0.0000 C   0  0  0  0  0  0  0  0  0  0  0  0
    0.3542    0.5083    0.0000 N   0  0  0  0  0  0  0  0  0  0  0  0
   -0.3583   -1.5542    0.0000 C   0  0  0  0  0  0  0  0  0  0  0  0
   -0.3583    1.7458    0.0000 O   0  0  0  0  0  0  0  0  0  0  0  0
    0.3542   -2.7917    0.0000 C   0  0  0  0  0  0  0  0  0  0  0  0
   -1.0750   -2.7917    0.0000 C   0  0  0  0  0  0  0  0  0  0  0  0
   -1.0750   -1.9667    0.0000 C   0  0  0  0  0  0  0  0  0  0  0  0
    0.3542   -1.9667    0.0000 C   0  0  0  0  0  0  0  0  0  0  0  0
   -1.0750    2.1583    0.0000 C   0  0  0  0  0  0  0  0  0  0  0  0
    1.0708    0.9208    0.0000 C   0  0  0  0  0  0  0  0  0  0  0  0
   -0.3583   -4.0292    0.0000 O   0  0  0  0  0  0  0  0  0  0  0  0
    1.7833    2.1583    0.0000 C   0  0  0  0  0  0  0  0  0  0  0  0
    0.3542    2.9833    0.0000 C   0  0  0  0  0  0  0  0  0  0  0  0
    0.3542   -0.3167    0.0000 C   0  0  0  0  0  0  0  0  0  0  0  0
   -0.3583   -0.7292    0.0000 C   0  0  0  0  0  0  0  0  0  0  0  0
    0.3542   -4.4417    0.0000 C   0  0  0  0  0  0  0  0  0  0  0  0
    1.7833    2.9833    0.0000 C   0  0  0  0  0  0  0  0  0  0  0  0
    1.0708    3.3958    0.0000 C   0  0  0  0  0  0  0  0  0  0  0  0
  2  1  1  0  0  0  0
  4  3  3  0  0  0  0
  5  8  2  0  0  0  0
  6  1  2  0  0  0  0
  7  2  2  0  0  0  0
  8 14  1  0  0  0  0
  9  1  1  0  0  0  0
 10  2  1  0  0  0  0
 11 16  2  0  0  0  0
 12 20  1  0  0  0  0
 13 25  1  0  0  0  0
 14 19  1  0  0  0  0
 15 18  2  0  0  0  0
 15 11  1  0  0  0  0
 16 17  1  0  0  0  0
 17 13  2  0  0  0  0
 18 13  1  0  0  0  0
 19  3  1  0  0  0  0
 20  5  1  0  0  0  0
 21 11  1  0  0  0  0
 22  5  1  0  0  0  0
 23  8  1  0  0  0  0
 24 12  1  0  0  0  0
 25 24  1  0  0  0  0
 26 21  1  0  0  0  0
 27 22  2  0  0  0  0
 28 23  2  0  0  0  0
 28 27  1  0  0  0  0
M  END
> <CdId>
2809

> <Mol Weight>
385.4104

> <Formula>
C21H23NO6

> <Click_ID>
CLK037A07 __ __ 

$$$$
