CLK026_A06
 OpenBabel03181404502D

 32 35  0  0  0  0  0  0  0  0999 V2000
   -3.4230   -0.6015    0.0000 N   0  0  0  0  0  0  0  0  0  0  0  0
   -3.8457   -1.3232    0.0000 C   0  0  0  0  0  0  0  0  0  0  0  0
   -2.6120   -0.7767    0.0000 C   0  0  0  0  0  0  0  0  0  0  0  0
   -2.5363   -1.6016    0.0000 C   0  0  0  0  0  0  0  0  0  0  0  0
   -3.2993   -1.9383    0.0000 S   0  0  0  0  0  0  0  0  0  0  0  0
   -1.8181   -2.0243    0.0000 C   0  0  0  0  0  0  0  0  0  0  0  0
   -3.2649    0.8180    0.0000 C   0  0  0  0  0  0  0  0  0  0  0  0
   -2.8112    1.5225    0.0000 C   0  0  0  0  0  0  0  0  0  0  0  0
   -4.6637   -1.4022    0.0000 O   0  0  0  0  0  0  0  0  0  0  0  0
   -0.3849   -0.3780    0.0000 C   0  0  0  0  0  0  0  0  0  0  0  0
   -2.0002   -0.2303    0.0000 O   0  0  0  0  0  0  0  0  0  0  0  0
    0.3299   -0.8042    0.0000 C   0  0  0  0  0  0  0  0  0  0  0  0
   -1.1032   -1.6084    0.0000 C   0  0  0  0  0  0  0  0  0  0  0  0
   -3.7598    0.1512    0.0000 C   0  0  0  0  0  0  0  0  0  0  0  0
   -1.0964   -0.7904    0.0000 C   0  0  0  0  0  0  0  0  0  0  0  0
    1.0620   -0.4056    0.0000 O   0  0  0  0  0  0  0  0  0  0  0  0
    3.2065    0.7974    0.0000 C   0  0  0  0  0  0  0  0  0  0  0  0
    2.4951    0.4089    0.0000 C   0  0  0  0  0  0  0  0  0  0  0  0
    3.9111    0.3712    0.0000 C   0  0  0  0  0  0  0  0  0  0  0  0
    0.3196   -1.6119    0.0000 C   0  0  0  0  0  0  0  0  0  0  0  0
    3.9111   -0.4537    0.0000 C   0  0  0  0  0  0  0  0  0  0  0  0
    2.4745   -0.4159    0.0000 C   0  0  0  0  0  0  0  0  0  0  0  0
    1.7665   -0.8145    0.0000 C   0  0  0  0  0  0  0  0  0  0  0  0
   -0.4056   -2.0243    0.0000 C   0  0  0  0  0  0  0  0  0  0  0  0
    3.1962   -0.8386    0.0000 C   0  0  0  0  0  0  0  0  0  0  0  0
   -0.3677    0.4433    0.0000 O   0  0  0  0  0  0  0  0  0  0  0  0
    3.2237    1.6222    0.0000 C   0  0  0  0  0  0  0  0  0  0  0  0
    4.6431    0.7698    0.0000 C   0  0  0  0  0  0  0  0  0  0  0  0
   -1.0791    0.8558    0.0000 C   0  0  0  0  0  0  0  0  0  0  0  0
   -1.0791    1.6703    0.0000 C   0  0  0  0  0  0  0  0  0  0  0  0
    3.9488    2.0277    0.0000 C   0  0  0  0  0  0  0  0  0  0  0  0
    4.6602    1.5946    0.0000 C   0  0  0  0  0  0  0  0  0  0  0  0
  2  1  1  0  0  0  0
  3  1  1  0  0  0  0
  4  3  1  0  0  0  0
  5  2  1  0  0  0  0
  5  4  1  0  0  0  0
  6  4  2  0  0  0  0
  7 14  1  0  0  0  0
  8  7  3  0  0  0  0
  9  2  2  0  0  0  0
 10 15  1  0  0  0  0
 11  3  2  0  0  0  0
 12 20  1  0  0  0  0
 12 10  2  0  0  0  0
 13  6  1  0  0  0  0
 14  1  1  0  0  0  0
 15 13  2  0  0  0  0
 16 12  1  0  0  0  0
 17 18  2  0  0  0  0
 18 22  1  0  0  0  0
 19 21  2  0  0  0  0
 19 17  1  0  0  0  0
 20 24  2  0  0  0  0
 21 25  1  0  0  0  0
 22 23  1  0  0  0  0
 23 16  1  0  0  0  0
 24 13  1  0  0  0  0
 25 22  2  0  0  0  0
 26 10  1  0  0  0  0
 27 17  1  0  0  0  0
 28 19  1  0  0  0  0
 29 26  1  0  0  0  0
 30 29  1  0  0  0  0
 31 27  2  0  0  0  0
 32 28  2  0  0  0  0
 32 31  1  0  0  0  0
M  END
> <CdId>
1941

> <Mol Weight>
443.514

> <Formula>
C26H21NO4S

> <Click_ID>
CLK026_A06 __ __ 

$$$$
