CLK013_D02
 OpenBabel03181404502D

 28 30  0  0  0  0  0  0  0  0999 V2000
    5.4541   -1.3854    0.0000 N    0  0  0  0  0  0  0  0  0  0  0  0
    5.3210   -2.2008    0.0000 C    0  0  0  0  0  0  0  0  0  0  0  0
    4.7177   -1.0027    0.0000 C    0  0  0  0  0  0  0  0  0  0  0  0
    4.1311   -1.5893    0.0000 C    0  0  0  0  0  0  0  0  0  0  0  0
    4.5056   -2.3256    0.0000 S    0  0  0  0  0  0  0  0  0  0  0  0
    6.1905   -1.0109    0.0000 C    0  0  0  0  0  0  0  0  0  0  0  0
    3.3199   -1.4603    0.0000 C    0  0  0  0  0  0  0  0  0  0  0  0
    6.8811   -1.4644    0.0000 C    0  0  0  0  0  0  0  0  0  0  0  0
    1.0151   -5.4416    0.0000 C    0  0  0  0  0  0  0  0  0  0  0  0
    0.4909   -6.0781    0.0000 C    0  0  0  0  0  0  0  0  0  0  0  0
    5.9034   -2.7874    0.0000 O    0  0  0  0  0  0  0  0  0  0  0  0
    1.4603   -2.6127    0.0000 C    0  0  0  0  0  0  0  0  0  0  0  0
    4.5929   -0.1914    0.0000 O    0  0  0  0  0  0  0  0  0  0  0  0
    2.7999   -2.1010    0.0000 C    0  0  0  0  0  0  0  0  0  0  0  0
    1.9762   -1.9720    0.0000 C    0  0  0  0  0  0  0  0  0  0  0  0
    1.7515   -3.3865    0.0000 C    0  0  0  0  0  0  0  0  0  0  0  0
    7.6050   -1.0858    0.0000 C    0  0  0  0  0  0  0  0  0  0  0  0
    2.5710   -3.5113    0.0000 C    0  0  0  0  0  0  0  0  0  0  0  0
    3.0869   -2.8706    0.0000 C    0  0  0  0  0  0  0  0  0  0  0  0
    7.6549   -0.2663    0.0000 Cl   0  0  0  0  0  0  0  0  0  0  0  0
    0.6407   -2.4837    0.0000 O    0  0  0  0  0  0  0  0  0  0  0  0
    1.2356   -4.0230    0.0000 O    0  0  0  0  0  0  0  0  0  0  0  0
    1.5268   -4.7968    0.0000 C    0  0  0  0  0  0  0  0  0  0  0  0
    6.8312   -2.2840    0.0000 C    0  0  0  0  0  0  0  0  0  0  0  0
    8.2997   -1.5393    0.0000 C    0  0  0  0  0  0  0  0  0  0  0  0
    0.1165   -3.1244    0.0000 C    0  0  0  0  0  0  0  0  0  0  0  0
    7.5134   -2.7333    0.0000 C    0  0  0  0  0  0  0  0  0  0  0  0
    8.2540   -2.3631    0.0000 C    0  0  0  0  0  0  0  0  0  0  0  0
  2  1  1  0  0  0  0
  3  1  1  0  0  0  0
  4  3  1  0  0  0  0
  5  2  1  0  0  0  0
  5  4  1  0  0  0  0
  6  1  1  0  0  0  0
  7  4  2  0  0  0  0
  8  6  1  0  0  0  0
  9 23  1  0  0  0  0
 10  9  3  0  0  0  0
 11  2  2  0  0  0  0
 12 15  1  0  0  0  0
 12 16  2  0  0  0  0
 13  3  2  0  0  0  0
 14  7  1  0  0  0  0
 15 14  2  0  0  0  0
 16 18  1  0  0  0  0
 17  8  1  0  0  0  0
 18 19  2  0  0  0  0
 19 14  1  0  0  0  0
 20 17  1  0  0  0  0
 21 12  1  0  0  0  0
 22 16  1  0  0  0  0
 23 22  1  0  0  0  0
 24  8  2  0  0  0  0
 25 17  2  0  0  0  0
 26 21  1  0  0  0  0
 27 24  1  0  0  0  0
 28 27  2  0  0  0  0
 28 25  1  0  0  0  0
M  END
> <CdId>
947

> <Mol Weight>
413.874

> <Formula>
C21H16ClNO4S

> <Click_ID>
CLK013_D02 __ __ 

$$$$
