CLK043E04
 OpenBabel03181404502D

 26 28  0  0  0  0  0  0  0  0999 V2000
    0.9583   -1.7917    0.0000 S   0  0  0  0  0  0  0  0  0  0  0  0
    1.6750   -2.2042    0.0000 N   0  0  0  0  0  0  0  0  0  0  0  0
    0.2458   -1.3792    0.0000 C   0  0  0  0  0  0  0  0  0  0  0  0
   -0.4708    0.6833    0.0000 C   0  0  0  0  0  0  0  0  0  0  0  0
   -1.1833    1.0958    0.0000 N   0  0  0  0  0  0  0  0  0  0  0  0
   -0.4708   -0.1417    0.0000 C   0  0  0  0  0  0  0  0  0  0  0  0
   -2.6125    3.5708    0.0000 C   0  0  0  0  0  0  0  0  0  0  0  0
    0.2458   -0.5542    0.0000 C   0  0  0  0  0  0  0  0  0  0  0  0
    0.5458   -2.5042    0.0000 O   0  0  0  0  0  0  0  0  0  0  0  0
    1.3708   -1.0750    0.0000 O   0  0  0  0  0  0  0  0  0  0  0  0
   -3.3250    3.9833    0.0000 C   0  0  0  0  0  0  0  0  0  0  0  0
    0.2458    1.0958    0.0000 O   0  0  0  0  0  0  0  0  0  0  0  0
   -1.1833    1.9208    0.0000 C   0  0  0  0  0  0  0  0  0  0  0  0
   -1.9000    3.1583    0.0000 C   0  0  0  0  0  0  0  0  0  0  0  0
   -1.9000    2.3333    0.0000 C   0  0  0  0  0  0  0  0  0  0  0  0
    1.6750   -3.0292    0.0000 C   0  0  0  0  0  0  0  0  0  0  0  0
    2.3875   -1.7917    0.0000 C   0  0  0  0  0  0  0  0  0  0  0  0
   -0.4708   -1.7917    0.0000 C   0  0  0  0  0  0  0  0  0  0  0  0
   -1.1833   -0.5542    0.0000 C   0  0  0  0  0  0  0  0  0  0  0  0
   -1.1833   -1.3792    0.0000 C   0  0  0  0  0  0  0  0  0  0  0  0
   -0.4708    3.1583    0.0000 C   0  0  0  0  0  0  0  0  0  0  0  0
   -0.4708    2.3333    0.0000 C   0  0  0  0  0  0  0  0  0  0  0  0
   -1.1833    3.5708    0.0000 C   0  0  0  0  0  0  0  0  0  0  0  0
    3.1042   -2.2042    0.0000 C   0  0  0  0  0  0  0  0  0  0  0  0
    2.3875   -3.4417    0.0000 C   0  0  0  0  0  0  0  0  0  0  0  0
    3.1042   -3.0292    0.0000 C   0  0  0  0  0  0  0  0  0  0  0  0
  2  1  1  0  0  0  0
  3  1  1  0  0  0  0
  4  6  1  0  0  0  0
  5  4  1  0  0  0  0
  6  8  2  0  0  0  0
  7 14  1  0  0  0  0
  8  3  1  0  0  0  0
  9  1  2  0  0  0  0
 10  1  2  0  0  0  0
 11  7  3  0  0  0  0
 12  4  2  0  0  0  0
 13  5  1  0  0  0  0
 14 15  1  0  0  0  0
 15 13  2  0  0  0  0
 16  2  1  0  0  0  0
 17  2  1  0  0  0  0
 18  3  2  0  0  0  0
 19  6  1  0  0  0  0
 20 18  1  0  0  0  0
 20 19  2  0  0  0  0
 21 22  2  0  0  0  0
 22 13  1  0  0  0  0
 23 14  2  0  0  0  0
 23 21  1  0  0  0  0
 24 17  1  0  0  0  0
 25 16  1  0  0  0  0
 26 24  1  0  0  0  0
 26 25  1  0  0  0  0
M  END
> <CdId>
3269

> <Mol Weight>
368.449

> <Formula>
C20H20N2O3S

> <Click_ID>
CLK043E04 __ __ 

$$$$
