CLK022_B07
 OpenBabel03181404502D

 25 27  0  0  0  0  0  0  0  0999 V2000
    2.4370    3.1561    0.0000 C   0  0  0  0  0  0  0  0  0  0  0  0
    5.2954    1.5070    0.0000 C   0  0  0  0  0  0  0  0  0  0  0  0
    3.1516    2.7439    0.0000 N   0  0  0  0  0  0  0  0  0  0  0  0
    4.5808    1.9193    0.0000 N   0  0  0  0  0  0  0  0  0  0  0  0
    1.7224    2.7439    0.0000 C   0  0  0  0  0  0  0  0  0  0  0  0
    8.8684    4.3929    0.0000 C   0  0  0  0  0  0  0  0  0  0  0  0
    9.5830    4.8007    0.0000 C   0  0  0  0  0  0  0  0  0  0  0  0
    6.0100    1.9193    0.0000 C   0  0  0  0  0  0  0  0  0  0  0  0
    0.9757    3.0783    0.0000 O   0  0  0  0  0  0  0  0  0  0  0  0
    3.8662    1.5070    0.0000 C   0  0  0  0  0  0  0  0  0  0  0  0
    4.5808    2.7439    0.0000 C   0  0  0  0  0  0  0  0  0  0  0  0
    3.8662    3.1561    0.0000 C   0  0  0  0  0  0  0  0  0  0  0  0
    3.1516    1.9193    0.0000 C   0  0  0  0  0  0  0  0  0  0  0  0
    2.4370    3.9807    0.0000 O   0  0  0  0  0  0  0  0  0  0  0  0
    5.2954    0.6825    0.0000 O   0  0  0  0  0  0  0  0  0  0  0  0
    1.6400    1.9239    0.0000 C   0  0  0  0  0  0  0  0  0  0  0  0
    0.4169    2.4690    0.0000 C   0  0  0  0  0  0  0  0  0  0  0  0
    0.8292    1.7544    0.0000 C   0  0  0  0  0  0  0  0  0  0  0  0
    6.7246    1.5070    0.0000 C   0  0  0  0  0  0  0  0  0  0  0  0
    6.0100    2.7439    0.0000 C   0  0  0  0  0  0  0  0  0  0  0  0
    7.4392    2.7439    0.0000 C   0  0  0  0  0  0  0  0  0  0  0  0
    7.4392    1.9193    0.0000 C   0  0  0  0  0  0  0  0  0  0  0  0
    6.7246    3.1561    0.0000 C   0  0  0  0  0  0  0  0  0  0  0  0
    8.1538    3.9807    0.0000 C   0  0  0  0  0  0  0  0  0  0  0  0
    8.1538    3.1561    0.0000 O   0  0  0  0  0  0  0  0  0  0  0  0
  2  4  1  0  0  0  0
  3  1  1  0  0  0  0
  4 10  1  0  0  0  0
  4 11  1  0  0  0  0
  5  1  1  0  0  0  0
  6 24  1  0  0  0  0
  7  6  3  0  0  0  0
  8  2  1  0  0  0  0
  9  5  1  0  0  0  0
 10 13  1  0  0  0  0
 11 12  1  0  0  0  0
 12  3  1  0  0  0  0
 13  3  1  0  0  0  0
 14  1  2  0  0  0  0
 15  2  2  0  0  0  0
 16  5  2  0  0  0  0
 17  9  1  0  0  0  0
 17 18  2  0  0  0  0
 18 16  1  0  0  0  0
 19  8  2  0  0  0  0
 20  8  1  0  0  0  0
 21 23  1  0  0  0  0
 22 19  1  0  0  0  0
 22 21  2  0  0  0  0
 23 20  2  0  0  0  0
 24 25  1  0  0  0  0
 25 21  1  0  0  0  0
M  END
> <CdId>
1650

> <Mol Weight>
338.3572

> <Formula>
C19H18N2O4

> <Click_ID>
CLK022_B07 __ __ 

$$$$
