CLK001_A09
 OpenBabel03181404502D

 33 36  0  0  0  0  0  0  0  0999 V2000
   -2.2270    1.0074    0.0000 C   0  0  0  0  0  0  0  0  0  0  0  0
   -1.7801    0.3068    0.0000 N   0  0  0  0  0  0  0  0  0  0  0  0
   -1.9164    1.7762    0.0000 C   0  0  0  0  0  0  0  0  0  0  0  0
   -3.0223    0.8029    0.0000 N   0  0  0  0  0  0  0  0  0  0  0  0
   -2.3102   -0.3219    0.0000 C   0  0  0  0  0  0  0  0  0  0  0  0
   -0.9620    0.2537    0.0000 C   0  0  0  0  0  0  0  0  0  0  0  0
   -2.4088    2.9163    0.0000 C   0  0  0  0  0  0  0  0  0  0  0  0
   -1.3067    2.0149    0.0000 N   0  0  0  0  0  0  0  0  0  0  0  0
   -3.0791   -0.0227    0.0000 C   0  0  0  0  0  0  0  0  0  0  0  0
   -2.1891   -1.1475    0.0000 C   0  0  0  0  0  0  0  0  0  0  0  0
   -0.5946   -0.4848    0.0000 C   0  0  0  0  0  0  0  0  0  0  0  0
   -1.7460    3.2041    0.0000 N   0  0  0  0  0  0  0  0  0  0  0  0
   -3.1739    3.2231    0.0000 N   0  0  0  0  0  0  0  0  0  0  0  0
   -1.1741    2.7686    0.0000 O   0  0  0  0  0  0  0  0  0  0  0  0
   -3.7381   -0.5303    0.0000 C   0  0  0  0  0  0  0  0  0  0  0  0
   -2.8444   -1.6551    0.0000 C   0  0  0  0  0  0  0  0  0  0  0  0
    0.2310   -0.5379    0.0000 N   0  0  0  0  0  0  0  0  0  0  0  0
   -1.0491   -1.1703    0.0000 O   0  0  0  0  0  0  0  0  0  0  0  0
   -3.6132   -1.3521    0.0000 C   0  0  0  0  0  0  0  0  0  0  0  0
    0.6855    0.1477    0.0000 N   0  0  0  0  0  0  0  0  0  0  0  0
    1.5225    0.1553    0.0000 C   0  0  0  0  0  0  0  0  0  0  0  0
    1.9733   -0.9430    0.0000 C   0  0  0  0  0  0  0  0  0  0  0  0
    2.7951   -0.8029    0.0000 C   0  0  0  0  0  0  0  0  0  0  0  0
    1.6854   -1.7119    0.0000 C   0  0  0  0  0  0  0  0  0  0  0  0
    3.3139   -1.4430    0.0000 C   0  0  0  0  0  0  0  0  0  0  0  0
    3.0867   -0.0340    0.0000 O   0  0  0  0  0  0  0  0  0  0  0  0
    2.2080   -2.3557    0.0000 C   0  0  0  0  0  0  0  0  0  0  0  0
    3.0186   -2.2118    0.0000 C   0  0  0  0  0  0  0  0  0  0  0  0
    4.1245   -1.3104    0.0000 I   0  0  0  0  0  0  0  0  0  0  0  0
    3.8972    0.0947    0.0000 C   0  0  0  0  0  0  0  0  0  0  0  0
    1.9202   -3.1246    0.0000 I   0  0  0  0  0  0  0  0  0  0  0  0
    4.1926    0.8635    0.0000 C   0  0  0  0  0  0  0  0  0  0  0  0
    4.4880    1.6324    0.0000 C   0  0  0  0  0  0  0  0  0  0  0  0
  1  2  1  0  0  0  0
  1  3  1  0  0  0  0
  1  4  2  0  0  0  0
  2  5  1  0  0  0  0
  2  6  1  0  0  0  0
  3  7  1  0  0  0  0
  3  8  2  0  0  0  0
  4  9  1  0  0  0  0
  5 10  1  0  0  0  0
  5  9  2  0  0  0  0
  6 11  1  0  0  0  0
  7 12  2  0  0  0  0
  7 13  1  0  0  0  0
  8 14  1  0  0  0  0
  9 15  1  0  0  0  0
 10 16  2  0  0  0  0
 11 17  1  0  0  0  0
 11 18  2  0  0  0  0
 12 14  1  0  0  0  0
 15 19  2  0  0  0  0
 16 19  1  0  0  0  0
 17 20  1  0  0  0  0
 20 21  2  0  0  0  0
 21 22  1  0  0  0  0
 22 23  1  0  0  0  0
 22 24  2  0  0  0  0
 23 25  2  0  0  0  0
 23 26  1  0  0  0  0
 24 27  1  0  0  0  0
 25 28  1  0  0  0  0
 25 29  1  0  0  0  0
 26 30  1  0  0  0  0
 27 31  1  0  0  0  0
 27 28  2  0  0  0  0
 30 32  1  0  0  0  0
 32 33  3  0  0  0  0
M  END
> <CdId>
8

> <Mol Weight>
667.1978

> <Formula>
C21H15I2N7O3

> <Click_ID>
CLK001_A09 __ __ 

$$$$
