CLK018_A05
 OpenBabel03181404502D

 31 33  0  0  0  0  0  0  0  0999 V2000
    1.4272   -1.0527    0.0000 N    0  0  0  0  0  0  0  0  0  0  0  0
    1.6852   -1.8391    0.0000 C    0  0  0  0  0  0  0  0  0  0  0  0
    2.0971   -0.5659    0.0000 C    0  0  0  0  0  0  0  0  0  0  0  0
    2.7629   -1.0527    0.0000 C    0  0  0  0  0  0  0  0  0  0  0  0
    2.5007   -1.8391    0.0000 N    0  0  0  0  0  0  0  0  0  0  0  0
    0.6491   -0.7989    0.0000 C    0  0  0  0  0  0  0  0  0  0  0  0
    3.5493   -0.7989    0.0000 C    0  0  0  0  0  0  0  0  0  0  0  0
    3.7198    0.0083    0.0000 C    0  0  0  0  0  0  0  0  0  0  0  0
    3.2829    1.3731    0.0000 C    0  0  0  0  0  0  0  0  0  0  0  0
    4.0693    1.6227    0.0000 C    0  0  0  0  0  0  0  0  0  0  0  0
    4.6810    1.0693    0.0000 C    0  0  0  0  0  0  0  0  0  0  0  0
    0.0416   -1.3523    0.0000 C    0  0  0  0  0  0  0  0  0  0  0  0
    5.2302    3.4785    0.0000 C    0  0  0  0  0  0  0  0  0  0  0  0
    5.4050    4.2857    0.0000 C    0  0  0  0  0  0  0  0  0  0  0  0
    1.1983   -2.5007    0.0000 O    0  0  0  0  0  0  0  0  0  0  0  0
    2.0888    0.2579    0.0000 O    0  0  0  0  0  0  0  0  0  0  0  0
    3.1082    0.5700    0.0000 C    0  0  0  0  0  0  0  0  0  0  0  0
    4.5062    0.2579    0.0000 C    0  0  0  0  0  0  0  0  0  0  0  0
    6.0790    0.7739    0.0000 C    0  0  0  0  0  0  0  0  0  0  0  0
    6.8572    1.0319    0.0000 C    0  0  0  0  0  0  0  0  0  0  0  0
   -0.7448   -1.1027    0.0000 C    0  0  0  0  0  0  0  0  0  0  0  0
    2.6838    1.9306    0.0000 O    0  0  0  0  0  0  0  0  0  0  0  0
    4.2483    2.4299    0.0000 O    0  0  0  0  0  0  0  0  0  0  0  0
    0.4785    0.0083    0.0000 C    0  0  0  0  0  0  0  0  0  0  0  0
    5.4591    1.3314    0.0000 C    0  0  0  0  0  0  0  0  0  0  0  0
   -1.3564   -1.6519    0.0000 Cl   0  0  0  0  0  0  0  0  0  0  0  0
    5.0472    2.6796    0.0000 C    0  0  0  0  0  0  0  0  0  0  0  0
   -0.3079    0.2579    0.0000 C    0  0  0  0  0  0  0  0  0  0  0  0
   -0.9195   -0.2913    0.0000 C    0  0  0  0  0  0  0  0  0  0  0  0
    1.9016    1.6810    0.0000 C    0  0  0  0  0  0  0  0  0  0  0  0
    1.2982    2.2344    0.0000 C    0  0  0  0  0  0  0  0  0  0  0  0
  2  1  1  0  0  0  0
  3  1  1  0  0  0  0
  4  3  1  0  0  0  0
  4  5  1  0  0  0  0
  5  2  1  0  0  0  0
  6  1  1  0  0  0  0
  7  4  2  0  0  0  0
  8  7  1  0  0  0  0
  9 17  1  0  0  0  0
 10 11  1  0  0  0  0
 10  9  2  0  0  0  0
 11 18  2  0  0  0  0
 12  6  1  0  0  0  0
 13 27  1  0  0  0  0
 14 13  3  0  0  0  0
 15  2  2  0  0  0  0
 16  3  2  0  0  0  0
 17  8  2  0  0  0  0
 18  8  1  0  0  0  0
 19 25  1  0  0  0  0
 20 19  2  0  0  0  0
 21 12  2  0  0  0  0
 22  9  1  0  0  0  0
 23 10  1  0  0  0  0
 24  6  2  0  0  0  0
 25 11  1  0  0  0  0
 26 21  1  0  0  0  0
 27 23  1  0  0  0  0
 28 24  1  0  0  0  0
 29 28  2  0  0  0  0
 29 21  1  0  0  0  0
 30 22  1  0  0  0  0
 31 30  1  0  0  0  0
M  END
> <CdId>
1320

> <Mol Weight>
436.888

> <Formula>
C24H21ClN2O4

> <Click_ID>
CLK018_A05 __ __ 

$$$$
