CLK016_B03
 OpenBabel03181404502D

 32 35  0  0  0  0  0  0  0  0999 V2000
    2.8644   -1.7095    0.0000 C    0  0  0  0  0  0  0  0  0  0  0  0
    2.1357   -0.4858    0.0000 C    0  0  0  0  0  0  0  0  0  0  0  0
    2.8369   -0.0734    0.0000 C    0  0  0  0  0  0  0  0  0  0  0  0
    3.5657   -1.2924    0.0000 C    0  0  0  0  0  0  0  0  0  0  0  0
    3.5519   -0.4721    0.0000 N    0  0  0  0  0  0  0  0  0  0  0  0
    2.1449   -1.3108    0.0000 C    0  0  3  0  0  0  0  0  0  0  0  0
    1.4345   -1.7324    0.0000 C    0  0  0  0  0  0  0  0  0  0  0  0
    0.0184   -2.5757    0.0000 C    0  0  0  0  0  0  0  0  0  0  0  0
    0.0046   -1.7508    0.0000 C    0  0  0  0  0  0  0  0  0  0  0  0
    1.4162   -0.0871    0.0000 C    0  0  0  0  0  0  0  0  0  0  0  0
    2.8644   -2.5298    0.0000 C    0  0  0  0  0  0  0  0  0  0  0  0
    0.7333   -2.9744    0.0000 C    0  0  0  0  0  0  0  0  0  0  0  0
    0.7150   -1.3245    0.0000 C    0  0  0  0  0  0  0  0  0  0  0  0
    1.4483   -2.5573    0.0000 C    0  0  0  0  0  0  0  0  0  0  0  0
   -1.4253   -1.7736    0.0000 C    0  0  0  0  0  0  0  0  0  0  0  0
   -2.1402   -1.3658    0.0000 C    0  0  0  0  0  0  0  0  0  0  0  0
    2.1495   -2.9607    0.0000 O    0  0  0  0  0  0  0  0  0  0  0  0
    0.7012   -0.5087    0.0000 O    0  0  0  0  0  0  0  0  0  0  0  0
    4.2897   -1.6911    0.0000 C    0  0  0  0  0  0  0  0  0  0  0  0
    2.8232    0.7562    0.0000 C    0  0  0  0  0  0  0  0  0  0  0  0
    4.2669   -0.0459    0.0000 C    0  0  0  0  0  0  0  0  0  0  0  0
   -0.7103   -1.3520    0.0000 Br   0  0  0  0  0  0  0  0  0  0  0  0
   -0.6875   -3.0019    0.0000 O    0  0  0  0  0  0  0  0  0  0  0  0
    0.7471   -3.7994    0.0000 O    0  0  0  0  0  0  0  0  0  0  0  0
   -1.4115   -2.5986    0.0000 C    0  0  0  0  0  0  0  0  0  0  0  0
    3.5931   -2.9332    0.0000 C    0  0  0  0  0  0  0  0  0  0  0  0
    1.4070    0.7378    0.0000 C    0  0  0  0  0  0  0  0  0  0  0  0
    4.2944   -2.5207    0.0000 C    0  0  0  0  0  0  0  0  0  0  0  0
    2.1082    1.1503    0.0000 C    0  0  0  0  0  0  0  0  0  0  0  0
    0.0412   -4.2256    0.0000 C    0  0  0  0  0  0  0  0  0  0  0  0
    4.9818   -0.4446    0.0000 C    0  0  0  0  0  0  0  0  0  0  0  0
   -0.6828   -3.8223    0.0000 C    0  0  0  0  0  0  0  0  0  0  0  0
  2  6  1  0  0  0  0
  3  2  2  0  0  0  0
  4  1  2  0  0  0  0
  5  4  1  0  0  0  0
  5  3  1  0  0  0  0
  6  1  1  0  0  0  0
  7  6  1  0  0  0  0
  8 12  1  0  0  0  0
  8  9  2  0  0  0  0
  9 13  1  0  0  0  0
 10  2  1  0  0  0  0
 11  1  1  0  0  0  0
 12 14  2  0  0  0  0
 13  7  2  0  0  0  0
 14  7  1  0  0  0  0
 15 25  1  0  0  0  0
 16 15  3  0  0  0  0
 17 11  2  0  0  0  0
 18 10  2  0  0  0  0
 19  4  1  0  0  0  0
 19 28  1  0  0  0  0
 20  3  1  0  0  0  0
 21  5  1  0  0  0  0
 22  9  1  0  0  0  0
 23  8  1  0  0  0  0
 24 12  1  0  0  0  0
 25 23  1  0  0  0  0
 26 11  1  0  0  0  0
 27 10  1  0  0  0  0
 28 26  1  0  0  0  0
 29 27  1  0  0  0  0
 29 20  1  0  0  0  0
 30 24  1  0  0  0  0
 31 21  1  0  0  0  0
 32 30  1  0  0  0  0
M  END
> <CdId>
1168

> <Mol Weight>
498.409

> <Formula>
C26H28BrNO4

> <Click_ID>
CLK016_B03 __ __ 

$$$$
