CLK017_G10
 OpenBabel03181404502D

 22 23  0  0  0  0  0  0  0  0999 V2000
    2.0042   -0.8417    0.0000 N    0  0  0  0  0  0  0  0  0  0  0  0
    2.8292   -0.8417    0.0000 C    0  0  0  0  0  0  0  0  0  0  0  0
    1.7417   -1.6250    0.0000 C    0  0  0  0  0  0  0  0  0  0  0  0
    2.4167   -2.1125    0.0000 C    0  0  0  0  0  0  0  0  0  0  0  0
    3.0792   -1.6250    0.0000 S    0  0  0  0  0  0  0  0  0  0  0  0
    2.4167   -2.9375    0.0000 C    0  0  0  0  0  0  0  0  0  0  0  0
    6.7042   -4.5750    0.0000 C    0  0  0  0  0  0  0  0  0  0  0  0
    7.4250   -4.9875    0.0000 C    0  0  0  0  0  0  0  0  0  0  0  0
    3.3125   -0.1667    0.0000 O    0  0  0  0  0  0  0  0  0  0  0  0
    4.5542   -3.3417    0.0000 C    0  0  0  0  0  0  0  0  0  0  0  0
    0.9625   -1.8792    0.0000 O    0  0  0  0  0  0  0  0  0  0  0  0
    3.1292   -3.3417    0.0000 C    0  0  0  0  0  0  0  0  0  0  0  0
    1.5167   -0.1667    0.0000 C    0  0  0  0  0  0  0  0  0  0  0  0
    3.8417   -2.9292    0.0000 C    0  0  0  0  0  0  0  0  0  0  0  0
    4.5667   -4.1667    0.0000 C    0  0  0  0  0  0  0  0  0  0  0  0
    3.8417   -4.5875    0.0000 C    0  0  0  0  0  0  0  0  0  0  0  0
    5.2750   -2.9375    0.0000 Cl   0  0  0  0  0  0  0  0  0  0  0  0
    3.1292   -4.1750    0.0000 C    0  0  0  0  0  0  0  0  0  0  0  0
    5.2792   -4.5792    0.0000 O    0  0  0  0  0  0  0  0  0  0  0  0
    5.9917   -4.1667    0.0000 C    0  0  0  0  0  0  0  0  0  0  0  0
    1.8542    0.5833    0.0000 C    0  0  0  0  0  0  0  0  0  0  0  0
    0.6917   -0.2542    0.0000 C    0  0  0  0  0  0  0  0  0  0  0  0
  2  1  1  0  0  0  0
  3  1  1  0  0  0  0
  4  3  1  0  0  0  0
  4  5  1  0  0  0  0
  5  2  1  0  0  0  0
  6  4  2  0  0  0  0
  7 20  1  0  0  0  0
  8  7  3  0  0  0  0
  9  2  2  0  0  0  0
 10 14  2  0  0  0  0
 10 15  1  0  0  0  0
 11  3  2  0  0  0  0
 12  6  1  0  0  0  0
 13  1  1  0  0  0  0
 14 12  1  0  0  0  0
 15 16  2  0  0  0  0
 16 18  1  0  0  0  0
 17 10  1  0  0  0  0
 18 12  2  0  0  0  0
 19 15  1  0  0  0  0
 20 19  1  0  0  0  0
 21 13  1  0  0  0  0
 22 13  1  0  0  0  0
M  END
> <CdId>
1305

> <Mol Weight>
335.805

> <Formula>
C16H14ClNO3S

> <Click_ID>
CLK017_G10 __ __ 

$$$$
