CLK046B02
 OpenBabel03181404502D

 20 20  0  0  0  0  0  0  0  0999 V2000
   -0.2542    2.7042    0.0000 S   0  0  0  0  0  0  0  0  0  0  0  0
   -0.2542   -0.5958    0.0000 C   0  0  0  0  0  0  0  0  0  0  0  0
    0.4625   -1.0083    0.0000 N   0  0  0  0  0  0  0  0  0  0  0  0
    0.4625   -2.6583    0.0000 C   0  0  0  0  0  0  0  0  0  0  0  0
   -0.2542    1.8792    0.0000 C   0  0  0  0  0  0  0  0  0  0  0  0
    0.4625   -3.4833    0.0000 C   0  0  0  0  0  0  0  0  0  0  0  0
   -0.2542    0.2292    0.0000 C   0  0  0  0  0  0  0  0  0  0  0  0
    0.4625   -1.8333    0.0000 C   0  0  0  0  0  0  0  0  0  0  0  0
   -1.0792    2.7042    0.0000 O   0  0  0  0  0  0  0  0  0  0  0  0
    0.5708    2.7042    0.0000 O   0  0  0  0  0  0  0  0  0  0  0  0
   -0.9667   -1.0083    0.0000 O   0  0  0  0  0  0  0  0  0  0  0  0
   -0.9667    1.4667    0.0000 C   0  0  0  0  0  0  0  0  0  0  0  0
    0.4625    1.4667    0.0000 C   0  0  0  0  0  0  0  0  0  0  0  0
   -0.9667    0.6417    0.0000 C   0  0  0  0  0  0  0  0  0  0  0  0
    0.4625    0.6417    0.0000 C   0  0  0  0  0  0  0  0  0  0  0  0
   -0.2542    3.5292    0.0000 C   0  0  0  0  0  0  0  0  0  0  0  0
   -0.3625   -1.8333    0.0000 C   0  0  0  0  0  0  0  0  0  0  0  0
    1.2875   -1.8333    0.0000 C   0  0  0  0  0  0  0  0  0  0  0  0
   -0.7750   -1.1208    0.0000 C   0  0  0  0  0  0  0  0  0  0  0  0
    1.7000   -2.5500    0.0000 C   0  0  0  0  0  0  0  0  0  0  0  0
  2  7  1  0  0  0  0
  3  2  1  0  0  0  0
  4  8  1  0  0  0  0
  5  1  1  0  0  0  0
  6  4  3  0  0  0  0
  7 14  2  0  0  0  0
  8  3  1  0  0  0  0
  9  1  2  0  0  0  0
 10  1  2  0  0  0  0
 11  2  2  0  0  0  0
 12  5  2  0  0  0  0
 13  5  1  0  0  0  0
 14 12  1  0  0  0  0
 15 13  2  0  0  0  0
 15  7  1  0  0  0  0
 16  1  1  0  0  0  0
 17  8  1  0  0  0  0
 18  8  1  0  0  0  0
 19 17  1  0  0  0  0
 20 18  1  0  0  0  0
M  END
> <CdId>
3490

> <Mol Weight>
293.381

> <Formula>
C15H19NO3S

> <Click_ID>
CLK046B02 __ __ 

$$$$
