CLK043A03
 OpenBabel03181404502D

 30 33  0  0  0  0  0  0  0  0999 V2000
    0.8542   -2.8167    0.0000 S   0  0  0  0  0  0  0  0  0  0  0  0
    0.7792    0.9625    0.0000 N   0  0  0  0  0  0  0  0  0  0  0  0
    0.1667    0.4083    0.0000 C   0  0  0  0  0  0  0  0  0  0  0  0
    0.6917    1.7833    0.0000 C   0  0  3  0  0  0  0  0  0  0  0  0
   -0.0208    2.1958    0.0000 C   0  0  0  0  0  0  0  0  0  0  0  0
    0.6792   -2.0125    0.0000 C   0  0  0  0  0  0  0  0  0  0  0  0
   -1.4500    2.1958    0.0000 C   0  0  0  0  0  0  0  0  0  0  0  0
   -0.7375    1.7833    0.0000 C   0  0  0  0  0  0  0  0  0  0  0  0
    0.5833   -4.9833    0.0000 C   0  0  0  0  0  0  0  0  0  0  0  0
    0.7542   -5.7917    0.0000 C   0  0  0  0  0  0  0  0  0  0  0  0
    0.3375   -0.3958    0.0000 C   0  0  0  0  0  0  0  0  0  0  0  0
    1.6583   -2.6458    0.0000 O   0  0  0  0  0  0  0  0  0  0  0  0
    0.0458   -2.9875    0.0000 O   0  0  0  0  0  0  0  0  0  0  0  0
   -1.4500    3.0208    0.0000 C   0  0  0  0  0  0  0  0  0  0  0  0
    1.0250   -3.6250    0.0000 N   0  0  0  0  0  0  0  0  0  0  0  0
   -0.6167    0.6667    0.0000 O   0  0  0  0  0  0  0  0  0  0  0  0
   -2.1625    1.7833    0.0000 O   0  0  0  0  0  0  0  0  0  0  0  0
   -0.0208    3.0208    0.0000 C   0  0  0  0  0  0  0  0  0  0  0  0
   -2.1625    3.4333    0.0000 O   0  0  0  0  0  0  0  0  0  0  0  0
   -0.1042   -1.7542    0.0000 C   0  0  0  0  0  0  0  0  0  0  0  0
    1.2958   -1.4583    0.0000 C   0  0  0  0  0  0  0  0  0  0  0  0
   -0.7375    3.4333    0.0000 C   0  0  0  0  0  0  0  0  0  0  0  0
   -0.2750   -0.9500    0.0000 C   0  0  0  0  0  0  0  0  0  0  0  0
    1.1208   -0.6500    0.0000 C   0  0  0  0  0  0  0  0  0  0  0  0
    1.5875    0.7917    0.0000 C   0  0  0  0  0  0  0  0  0  0  0  0
    0.4125   -4.1750    0.0000 C   0  0  0  0  0  0  0  0  0  0  0  0
    1.4458    2.1167    0.0000 C   0  0  0  0  0  0  0  0  0  0  0  0
    2.0000    1.5042    0.0000 C   0  0  0  0  0  0  0  0  0  0  0  0
   -2.8792    2.1958    0.0000 C   0  0  0  0  0  0  0  0  0  0  0  0
   -2.8792    3.0208    0.0000 C   0  0  0  0  0  0  0  0  0  0  0  0
  2  3  1  0  0  0  0
  3 11  1  0  0  0  0
  4  2  1  0  0  0  0
  5  4  1  0  0  0  0
  6  1  1  0  0  0  0
  7  8  1  0  0  0  0
  8  5  2  0  0  0  0
  9 26  1  0  0  0  0
 10  9  3  0  0  0  0
 11 24  2  0  0  0  0
 12  1  2  0  0  0  0
 13  1  2  0  0  0  0
 14  7  2  0  0  0  0
 14 22  1  0  0  0  0
 15  1  1  0  0  0  0
 16  3  2  0  0  0  0
 17  7  1  0  0  0  0
 18  5  1  0  0  0  0
 19 14  1  0  0  0  0
 20  6  1  0  0  0  0
 21  6  2  0  0  0  0
 22 18  2  0  0  0  0
 23 20  2  0  0  0  0
 23 11  1  0  0  0  0
 24 21  1  0  0  0  0
 25  2  1  0  0  0  0
 26 15  1  0  0  0  0
 27  4  1  0  0  0  0
 27 28  1  0  0  0  0
 28 25  1  0  0  0  0
 29 17  1  0  0  0  0
 29 30  1  0  0  0  0
 30 19  1  0  0  0  0
M  END
> <CdId>
3257

> <Mol Weight>
426.485

> <Formula>
C22H22N2O5S

> <Click_ID>
CLK043A03 __ __ 

$$$$
