CLK013_E09
 OpenBabel03181404502D

 31 33  0  0  0  0  0  0  0  0999 V2000
    3.1325   -0.2757    0.0000 N    0  0  0  0  0  0  0  0  0  0  0  0
    2.8736    0.5137    0.0000 C    0  0  0  0  0  0  0  0  0  0  0  0
    3.9595   -0.2757    0.0000 C    0  0  0  0  0  0  0  0  0  0  0  0
    4.2143    0.5137    0.0000 C    0  0  0  0  0  0  0  0  0  0  0  0
    3.5460    0.9982    0.0000 S    0  0  0  0  0  0  0  0  0  0  0  0
    5.0037    0.7727    0.0000 C    0  0  0  0  0  0  0  0  0  0  0  0
    5.5007    3.1826    0.0000 C    0  0  0  0  0  0  0  0  0  0  0  0
    2.6438   -0.9440    0.0000 C    0  0  0  0  0  0  0  0  0  0  0  0
    6.1064    2.6313    0.0000 C    0  0  0  0  0  0  0  0  0  0  0  0
    4.7280    2.9320    0.0000 C    0  0  0  0  0  0  0  0  0  0  0  0
    2.9738   -1.6958    0.0000 C    0  0  0  0  0  0  0  0  0  0  0  0
    5.1666    1.5746    0.0000 C    0  0  0  0  0  0  0  0  0  0  0  0
    6.6451    5.0371    0.0000 C    0  0  0  0  0  0  0  0  0  0  0  0
    6.8206    5.8390    0.0000 C    0  0  0  0  0  0  0  0  0  0  0  0
    2.0925    0.7727    0.0000 O    0  0  0  0  0  0  0  0  0  0  0  0
    2.4935   -2.3682    0.0000 N    0  0  0  0  0  0  0  0  0  0  0  0
    4.4399   -0.9440    0.0000 O    0  0  0  0  0  0  0  0  0  0  0  0
    4.5526    2.1259    0.0000 C    0  0  0  0  0  0  0  0  0  0  0  0
    5.9435    1.8252    0.0000 C    0  0  0  0  0  0  0  0  0  0  0  0
    3.8008   -1.7835    0.0000 O    0  0  0  0  0  0  0  0  0  0  0  0
    1.6707   -2.2805    0.0000 C    0  0  0  0  0  0  0  0  0  0  0  0
    6.8957    2.8819    0.0000 Cl   0  0  0  0  0  0  0  0  0  0  0  0
    4.1224    3.4917    0.0000 Cl   0  0  0  0  0  0  0  0  0  0  0  0
    5.6803    3.9929    0.0000 O    0  0  0  0  0  0  0  0  0  0  0  0
    1.3324   -1.5203    0.0000 C    0  0  0  0  0  0  0  0  0  0  0  0
    0.5179   -1.4326    0.0000 C    0  0  0  0  0  0  0  0  0  0  0  0
    6.4655    4.2268    0.0000 C    0  0  0  0  0  0  0  0  0  0  0  0
    0.3634   -2.8569    0.0000 C    0  0  0  0  0  0  0  0  0  0  0  0
    1.1820   -2.9488    0.0000 C    0  0  0  0  0  0  0  0  0  0  0  0
    0.0293   -2.0967    0.0000 C    0  0  0  0  0  0  0  0  0  0  0  0
    0.1796   -0.6766    0.0000 C    0  0  0  0  0  0  0  0  0  0  0  0
  2  1  1  0  0  0  0
  3  1  1  0  0  0  0
  4  3  1  0  0  0  0
  5  2  1  0  0  0  0
  5  4  1  0  0  0  0
  6  4  2  0  0  0  0
  7  9  1  0  0  0  0
  7 10  2  0  0  0  0
  8  1  1  0  0  0  0
  9 19  2  0  0  0  0
 10 18  1  0  0  0  0
 11  8  1  0  0  0  0
 12  6  1  0  0  0  0
 13 27  1  0  0  0  0
 14 13  3  0  0  0  0
 15  2  2  0  0  0  0
 16 11  1  0  0  0  0
 17  3  2  0  0  0  0
 18 12  2  0  0  0  0
 19 12  1  0  0  0  0
 20 11  2  0  0  0  0
 21 16  1  0  0  0  0
 22  9  1  0  0  0  0
 23 10  1  0  0  0  0
 24  7  1  0  0  0  0
 25 21  2  0  0  0  0
 26 25  1  0  0  0  0
 27 24  1  0  0  0  0
 28 29  2  0  0  0  0
 29 21  1  0  0  0  0
 30 28  1  0  0  0  0
 30 26  2  0  0  0  0
 31 26  1  0  0  0  0
M  END
> <CdId>
964

> <Mol Weight>
475.344

> <Formula>
C22H16Cl2N2O4S

> <Click_ID>
CLK013_E09 __ __ 

$$$$
