CLK025_E05
 OpenBabel03181404502D

 24 26  0  0  0  0  0  0  0  0999 V2000
   -0.3461    0.3565    0.0000 C    0  0  3  0  0  0  0  0  0  0  0  0
    0.1118   -0.2796    0.0000 C    0  0  0  0  0  0  0  0  0  0  0  0
   -1.1326    0.0979    0.0000 C    0  0  0  0  0  0  0  0  0  0  0  0
   -0.3461   -0.9857    0.0000 N    0  0  0  0  0  0  0  0  0  0  0  0
   -1.1326   -0.7271    0.0000 C    0  0  0  0  0  0  0  0  0  0  0  0
    0.4929    1.1290    0.0000 C    0  0  0  0  0  0  0  0  0  0  0  0
    1.4541    0.9508    0.0000 C    0  0  0  0  0  0  0  0  0  0  0  0
   -0.6047   -2.3874    0.0000 C    0  0  0  0  0  0  0  0  0  0  0  0
   -1.8492   -1.1395    0.0000 C    0  0  0  0  0  0  0  0  0  0  0  0
   -1.1395   -3.0132    0.0000 C    0  0  0  0  0  0  0  0  0  0  0  0
   -1.8492    0.5138    0.0000 C    0  0  0  0  0  0  0  0  0  0  0  0
    0.9054   -0.3461    0.0000 O    0  0  0  0  0  0  0  0  0  0  0  0
    1.9575    1.6044    0.0000 C    0  0  0  0  0  0  0  0  0  0  0  0
   -0.0699   -1.7617    0.0000 C    0  0  0  0  0  0  0  0  0  0  0  0
   -0.7410    1.2234    0.0000 O    0  0  0  0  0  0  0  0  0  0  0  0
    1.7268    0.3706    0.0000 O    0  0  0  0  0  0  0  0  0  0  0  0
    3.2753    2.1462    0.0000 N    0  0  0  0  0  0  0  0  0  0  0  0
   -2.5622    0.0979    0.0000 C    0  0  0  0  0  0  0  0  0  0  0  0
   -2.5622   -0.7271    0.0000 C    0  0  0  0  0  0  0  0  0  0  0  0
   -3.2788    0.5103    0.0000 Br   0  0  0  0  0  0  0  0  0  0  0  0
    2.7720    1.4961    0.0000 C    0  0  0  0  0  0  0  0  0  0  0  0
    1.6429    2.3664    0.0000 C    0  0  0  0  0  0  0  0  0  0  0  0
    2.9642    2.9083    0.0000 C    0  0  0  0  0  0  0  0  0  0  0  0
    2.1462    3.0166    0.0000 C    0  0  0  0  0  0  0  0  0  0  0  0
  2  1  1  0  0  0  0
  3  1  1  0  0  0  0
  4  2  1  0  0  0  0
  5  3  2  0  0  0  0
  5  4  1  0  0  0  0
  6  1  1  0  0  0  0
  7  6  1  0  0  0  0
  8 14  1  0  0  0  0
  9  5  1  0  0  0  0
 10  8  3  0  0  0  0
 11  3  1  0  0  0  0
 12  2  2  0  0  0  0
 13  7  1  0  0  0  0
 14  4  1  0  0  0  0
 15  1  1  0  0  0  0
 16  7  2  0  0  0  0
 17 21  2  0  0  0  0
 17 23  1  0  0  0  0
 18 11  2  0  0  0  0
 19 18  1  0  0  0  0
 19  9  2  0  0  0  0
 20 18  1  0  0  0  0
 21 13  1  0  0  0  0
 22 13  2  0  0  0  0
 23 24  2  0  0  0  0
 24 22  1  0  0  0  0
M  END
> <CdId>
1900

> <Mol Weight>
385.211

> <Formula>
C18H13BrN2O3

> <Click_ID>
CLK025_E05 __ __ 

$$$$
