CLK043D03
 OpenBabel03181404502D

 25 27  0  0  0  0  0  0  0  0999 V2000
    0.2625    1.2458    0.0000 N   0  0  0  0  0  0  0  0  0  0  0  0
    0.2625    2.0708    0.0000 C   0  0  0  0  0  0  0  0  0  0  0  0
   -0.4500    0.8333    0.0000 C   0  0  0  0  0  0  0  0  0  0  0  0
   -0.4500    2.4833    0.0000 N   0  0  0  0  0  0  0  0  0  0  0  0
   -1.1667    1.2458    0.0000 C   0  0  0  0  0  0  0  0  0  0  0  0
    0.9792    2.4833    0.0000 C   0  0  0  0  0  0  0  0  0  0  0  0
   -1.1667    2.0708    0.0000 C   0  0  0  0  0  0  0  0  0  0  0  0
    1.8042    2.4833    0.0000 C   0  0  0  0  0  0  0  0  0  0  0  0
    1.3917    3.1958    0.0000 C   0  0  0  0  0  0  0  0  0  0  0  0
    0.9792   -3.2917    0.0000 C   0  0  0  0  0  0  0  0  0  0  0  0
   -0.4500    0.0083    0.0000 S   0  0  0  0  0  0  0  0  0  0  0  0
    0.9792   -4.1167    0.0000 C   0  0  0  0  0  0  0  0  0  0  0  0
    0.2625   -1.2292    0.0000 C   0  0  0  0  0  0  0  0  0  0  0  0
    0.9792   -1.6417    0.0000 N   0  0  0  0  0  0  0  0  0  0  0  0
    0.9792   -2.4667    0.0000 C   0  0  0  0  0  0  0  0  0  0  0  0
   -0.4500   -1.6417    0.0000 O   0  0  0  0  0  0  0  0  0  0  0  0
    0.2625   -0.4042    0.0000 C   0  0  0  0  0  0  0  0  0  0  0  0
   -1.8792    0.8333    0.0000 C   0  0  0  0  0  0  0  0  0  0  0  0
   -1.8792    2.4833    0.0000 C   0  0  0  0  0  0  0  0  0  0  0  0
    1.8042   -2.4667    0.0000 C   0  0  0  0  0  0  0  0  0  0  0  0
    0.1542   -2.4667    0.0000 C   0  0  0  0  0  0  0  0  0  0  0  0
   -2.5958    1.2458    0.0000 C   0  0  0  0  0  0  0  0  0  0  0  0
   -0.2583   -1.7542    0.0000 C   0  0  0  0  0  0  0  0  0  0  0  0
    2.2167   -3.1833    0.0000 C   0  0  0  0  0  0  0  0  0  0  0  0
   -2.5958    2.0708    0.0000 C   0  0  0  0  0  0  0  0  0  0  0  0
  2  1  2  0  0  0  0
  3  1  1  0  0  0  0
  4  2  1  0  0  0  0
  5  3  2  0  0  0  0
  5  7  1  0  0  0  0
  6  2  1  0  0  0  0
  7  4  2  0  0  0  0
  8  6  1  0  0  0  0
  9  6  1  0  0  0  0
  9  8  1  0  0  0  0
 10 15  1  0  0  0  0
 11  3  1  0  0  0  0
 12 10  3  0  0  0  0
 13 17  1  0  0  0  0
 14 13  1  0  0  0  0
 15 14  1  0  0  0  0
 16 13  2  0  0  0  0
 17 11  1  0  0  0  0
 18  5  1  0  0  0  0
 19  7  1  0  0  0  0
 20 15  1  0  0  0  0
 21 15  1  0  0  0  0
 22 18  2  0  0  0  0
 22 25  1  0  0  0  0
 23 21  1  0  0  0  0
 24 20  1  0  0  0  0
 25 19  2  0  0  0  0
M  END
> <CdId>
3260

> <Mol Weight>
353.481

> <Formula>
C20H23N3OS

> <Click_ID>
CLK043D03 __ __ 

$$$$
