CLK013_G10
 OpenBabel03181404502D

 27 29  0  0  0  0  0  0  0  0999 V2000
    1.5671   -0.8169    0.0000 N   0  0  0  0  0  0  0  0  0  0  0  0
    1.8255   -1.6046    0.0000 C   0  0  0  0  0  0  0  0  0  0  0  0
    2.9049   -0.8169    0.0000 C   0  0  0  0  0  0  0  0  0  0  0  0
    2.2381   -0.3293    0.0000 C   0  0  0  0  0  0  0  0  0  0  0  0
    2.6507   -1.6046    0.0000 S   0  0  0  0  0  0  0  0  0  0  0  0
    7.3186    1.9713    0.0000 N   0  3  0  0  0  0  0  0  0  0  0  0
    4.5304    1.3962    0.0000 C   0  0  0  0  0  0  0  0  0  0  0  0
    5.1430    1.9463    0.0000 C   0  0  0  0  0  0  0  0  0  0  0  0
    3.6926   -0.5626    0.0000 C   0  0  0  0  0  0  0  0  0  0  0  0
    4.6137    0.5751    0.0000 O   0  0  0  0  0  0  0  0  0  0  0  0
    3.8635    0.2376    0.0000 C   0  0  0  0  0  0  0  0  0  0  0  0
    5.9265    1.6879    0.0000 C   0  0  0  0  0  0  0  0  0  0  0  0
    6.5392    2.2339    0.0000 C   0  0  0  0  0  0  0  0  0  0  0  0
    3.7176    1.5712    0.0000 C   0  0  0  0  0  0  0  0  0  0  0  0
    0.6127    0.2459    0.0000 C   0  0  0  0  0  0  0  0  0  0  0  0
    3.3050    0.8585    0.0000 C   0  0  0  0  0  0  0  0  0  0  0  0
    0.3918    1.0461    0.0000 C   0  0  0  0  0  0  0  0  0  0  0  0
    7.4894    1.1711    0.0000 O   0  5  0  0  0  0  0  0  0  0  0  0
    1.3378   -2.2673    0.0000 O   0  0  0  0  0  0  0  0  0  0  0  0
    4.9763    2.7465    0.0000 C   0  0  0  0  0  0  0  0  0  0  0  0
    7.9312    2.5214    0.0000 O   0  0  0  0  0  0  0  0  0  0  0  0
    2.2298    0.4959    0.0000 O   0  0  0  0  0  0  0  0  0  0  0  0
    0.7877   -0.5626    0.0000 C   0  0  0  0  0  0  0  0  0  0  0  0
    6.3683    3.0341    0.0000 C   0  0  0  0  0  0  0  0  0  0  0  0
    5.5931    3.2966    0.0000 C   0  0  0  0  0  0  0  0  0  0  0  0
    4.2011    3.0008    0.0000 O   0  0  0  0  0  0  0  0  0  0  0  0
    3.5884    2.4589    0.0000 C   0  0  0  0  0  0  0  0  0  0  0  0
  2  1  1  0  0  0  0
  3  4  1  0  0  0  0
  4  1  1  0  0  0  0
  5  2  1  0  0  0  0
  5  3  1  0  0  0  0
  6 13  1  0  0  0  0
  7 10  1  0  0  0  0
  8  7  1  0  0  0  0
  9  3  2  0  0  0  0
 10 11  1  0  0  0  0
 11  9  1  0  0  0  0
 12  8  2  0  0  0  0
 13 12  1  0  0  0  0
 14 16  1  0  0  0  0
 14  7  2  0  0  0  0
 15 23  1  0  0  0  0
 16 11  2  0  0  0  0
 17 15  3  0  0  0  0
 18  6  1  0  0  0  0
 19  2  2  0  0  0  0
 20  8  1  0  0  0  0
 21  6  2  0  0  0  0
 22  4  2  0  0  0  0
 23  1  1  0  0  0  0
 24 25  1  0  0  0  0
 24 13  2  0  0  0  0
 25 20  2  0  0  0  0
 26 20  1  0  0  0  0
 27 26  1  0  0  0  0
M  END
> <CdId>
985

> <Mol Weight>
384.363

> <Formula>
C18H12N2O6S

> <Click_ID>
CLK013_G10 __ __ 

$$$$
