CLK050H08
 OpenBabel03181404502D

 17 17  0  0  0  0  0  0  0  0999 V2000
    0.2917   -1.1875    0.0000 C    0  0  0  0  0  0  0  0  0  0  0  0
    0.2917   -0.3625    0.0000 N    0  0  0  0  0  0  0  0  0  0  0  0
    1.7208   -2.8375    0.0000 C    0  0  0  0  0  0  0  0  0  0  0  0
    2.4375   -3.2500    0.0000 C    0  0  0  0  0  0  0  0  0  0  0  0
   -0.4208    0.0500    0.0000 C    0  0  3  0  0  0  0  0  0  0  0  0
   -0.4208    0.8750    0.0000 C    0  0  0  0  0  0  0  0  0  0  0  0
   -0.4208   -1.6000    0.0000 O    0  0  0  0  0  0  0  0  0  0  0  0
    1.0083   -1.6000    0.0000 N    0  0  0  0  0  0  0  0  0  0  0  0
    0.2917    1.2875    0.0000 C    0  0  0  0  0  0  0  0  0  0  0  0
   -1.1375    1.2875    0.0000 C    0  0  0  0  0  0  0  0  0  0  0  0
   -0.4208    2.5250    0.0000 C    0  0  0  0  0  0  0  0  0  0  0  0
   -1.1375    2.1125    0.0000 C    0  0  0  0  0  0  0  0  0  0  0  0
    0.2917    2.1125    0.0000 C    0  0  0  0  0  0  0  0  0  0  0  0
   -0.4208    3.3500    0.0000 Cl   0  0  0  0  0  0  0  0  0  0  0  0
    1.0083   -2.4250    0.0000 C    0  0  0  0  0  0  0  0  0  0  0  0
   -1.1375   -0.3625    0.0000 C    0  0  0  0  0  0  0  0  0  0  0  0
   -1.8500    0.0500    0.0000 C    0  0  0  0  0  0  0  0  0  0  0  0
  2  1  1  0  0  0  0
  3 15  1  0  0  0  0
  4  3  3  0  0  0  0
  5  2  1  0  0  0  0
  6  5  1  0  0  0  0
  7  1  2  0  0  0  0
  8  1  1  0  0  0  0
  9  6  1  0  0  0  0
 10  6  2  0  0  0  0
 11 12  2  0  0  0  0
 11 13  1  0  0  0  0
 12 10  1  0  0  0  0
 13  9  2  0  0  0  0
 14 11  1  0  0  0  0
 15  8  1  0  0  0  0
 16  5  1  0  0  0  0
 17 16  1  0  0  0  0
M  END
> <CdId>
3864

> <Mol Weight>
250.724

> <Formula>
C13H15ClN2O

> <Click_ID>
CLK050H08 __ __ 

$$$$
