CLK022_B08
 OpenBabel03181404502D

 23 24  0  0  0  0  0  0  0  0999 V2000
    3.8409    2.7316    0.0000 C   0  0  0  0  0  0  0  0  0  0  0  0
    0.9534    2.0212    0.0000 N   0  0  0  0  0  0  0  0  0  0  0  0
    3.4284    2.0212    0.0000 N   0  0  0  0  0  0  0  0  0  0  0  0
    1.3659    2.7316    0.0000 C   0  0  0  0  0  0  0  0  0  0  0  0
    1.3659    1.3062    0.0000 C   0  0  0  0  0  0  0  0  0  0  0  0
    2.6034    2.0212    0.0000 C   0  0  0  0  0  0  0  0  0  0  0  0
    8.3784    3.4466    0.0000 C   0  0  0  0  0  0  0  0  0  0  0  0
    9.2034    3.4466    0.0000 C   0  0  0  0  0  0  0  0  0  0  0  0
    4.6659    2.7316    0.0000 C   0  0  0  0  0  0  0  0  0  0  0  0
    2.1909    1.3062    0.0000 C   0  0  0  0  0  0  0  0  0  0  0  0
    2.1909    2.7316    0.0000 C   0  0  0  0  0  0  0  0  0  0  0  0
    3.4284    3.4466    0.0000 O   0  0  0  0  0  0  0  0  0  0  0  0
    5.0784    2.0212    0.0000 C   0  0  0  0  0  0  0  0  0  0  0  0
    5.0784    3.4466    0.0000 C   0  0  0  0  0  0  0  0  0  0  0  0
    6.3159    2.7316    0.0000 C   0  0  0  0  0  0  0  0  0  0  0  0
    5.9034    2.0212    0.0000 C   0  0  0  0  0  0  0  0  0  0  0  0
    5.9034    3.4466    0.0000 C   0  0  0  0  0  0  0  0  0  0  0  0
    7.5534    3.4466    0.0000 C   0  0  0  0  0  0  0  0  0  0  0  0
    7.1409    2.7362    0.0000 O   0  0  0  0  0  0  0  0  0  0  0  0
    0.5912    1.0266    0.0000 C   0  0  0  0  0  0  0  0  0  0  0  0
    1.5125    0.4904    0.0000 C   0  0  0  0  0  0  0  0  0  0  0  0
    1.5125    3.5566    0.0000 C   0  0  0  0  0  0  0  0  0  0  0  0
    0.5912    3.0204    0.0000 C   0  0  0  0  0  0  0  0  0  0  0  0
  2  4  1  0  0  0  0
  3  1  1  0  0  0  0
  4 11  1  0  0  0  0
  5 10  1  0  0  0  0
  5  2  1  0  0  0  0
  6  3  1  0  0  0  0
  7 18  1  0  0  0  0
  8  7  3  0  0  0  0
  9  1  1  0  0  0  0
 10  6  1  0  0  0  0
 11  6  1  0  0  0  0
 12  1  2  0  0  0  0
 13  9  2  0  0  0  0
 14  9  1  0  0  0  0
 15 17  1  0  0  0  0
 16 13  1  0  0  0  0
 16 15  2  0  0  0  0
 17 14  2  0  0  0  0
 18 19  1  0  0  0  0
 19 15  1  0  0  0  0
 20  5  1  0  0  0  0
 21  5  1  0  0  0  0
 22  4  1  0  0  0  0
 23  4  1  0  0  0  0
M  END
> <CdId>
1651

> <Mol Weight>
314.4219

> <Formula>
C19H26N2O2

> <Click_ID>
CLK022_B08 __ __ 

$$$$
