CLK047F03
 OpenBabel03181404502D

 14 14  0  0  0  0  0  0  0  0999 V2000
   -0.3086   -0.8259    0.0000 C   0  0  0  0  0  0  0  0  0  0  0  0
   -0.3086    3.3034    0.0000 N   0  0  0  0  0  0  0  0  0  0  0  0
    1.1220   -2.4776    0.0000 C   0  0  0  0  0  0  0  0  0  0  0  0
    1.8352   -2.8905    0.0000 C   0  0  0  0  0  0  0  0  0  0  0  0
   -0.3086    2.4776    0.0000 C   0  0  0  0  0  0  0  0  0  0  0  0
   -0.3086    0.0000    0.0000 C   0  0  0  0  0  0  0  0  0  0  0  0
   -1.0219   -1.2388    0.0000 O   0  0  0  0  0  0  0  0  0  0  0  0
    0.4046   -1.2388    0.0000 N   0  0  0  0  0  0  0  0  0  0  0  0
    0.4046    0.4129    0.0000 C   0  0  0  0  0  0  0  0  0  0  0  0
   -1.0219    0.4129    0.0000 C   0  0  0  0  0  0  0  0  0  0  0  0
   -0.3086    1.6517    0.0000 C   0  0  0  0  0  0  0  0  0  0  0  0
   -1.0219    1.2388    0.0000 C   0  0  0  0  0  0  0  0  0  0  0  0
    0.4046    1.2388    0.0000 C   0  0  0  0  0  0  0  0  0  0  0  0
    0.4046   -2.0646    0.0000 C   0  0  0  0  0  0  0  0  0  0  0  0
  2  5  3  0  0  0  0
  3 14  1  0  0  0  0
  4  3  3  0  0  0  0
  5 11  1  0  0  0  0
  6  1  1  0  0  0  0
  7  1  2  0  0  0  0
  8  1  1  0  0  0  0
  9  6  1  0  0  0  0
 10  6  2  0  0  0  0
 11 12  2  0  0  0  0
 11 13  1  0  0  0  0
 12 10  1  0  0  0  0
 13  9  2  0  0  0  0
 14  8  1  0  0  0  0
M  END
> <CdId>
3582

> <Mol Weight>
184.194

> <Formula>
C11H8N2O

> <Click_ID>
CLK047F03 __ __ 

$$$$
