CLK022_D02
 OpenBabel03181404502D

 18 18  0  0  0  0  0  0  0  0999 V2000
    3.6621    1.7416    0.0000 S   0  0  0  0  0  0  0  0  0  0  0  0
    3.4512    2.5391    0.0000 N   0  0  0  0  0  0  0  0  0  0  0  0
    4.4871    1.7416    0.0000 C   0  0  0  0  0  0  0  0  0  0  0  0
    2.6538    3.5750    0.0000 C   0  0  0  0  0  0  0  0  0  0  0  0
    2.8509    1.5950    0.0000 O   0  0  0  0  0  0  0  0  0  0  0  0
    3.7400    0.9166    0.0000 O   0  0  0  0  0  0  0  0  0  0  0  0
    2.6538    4.4000    0.0000 C   0  0  0  0  0  0  0  0  0  0  0  0
    2.6538    2.7500    0.0000 C   0  0  0  0  0  0  0  0  0  0  0  0
    4.8996    1.0266    0.0000 C   0  0  0  0  0  0  0  0  0  0  0  0
    4.8996    2.4566    0.0000 C   0  0  0  0  0  0  0  0  0  0  0  0
    6.1371    1.7416    0.0000 C   0  0  0  0  0  0  0  0  0  0  0  0
    5.7246    1.0266    0.0000 C   0  0  0  0  0  0  0  0  0  0  0  0
    5.7246    2.4566    0.0000 C   0  0  0  0  0  0  0  0  0  0  0  0
    6.9621    1.7416    0.0000 F   0  0  0  0  0  0  0  0  0  0  0  0
    1.8334    2.8188    0.0000 C   0  0  0  0  0  0  0  0  0  0  0  0
    2.5071    1.9341    0.0000 C   0  0  0  0  0  0  0  0  0  0  0  0
    1.4850    3.5704    0.0000 C   0  0  0  0  0  0  0  0  0  0  0  0
    1.7371    1.6591    0.0000 C   0  0  0  0  0  0  0  0  0  0  0  0
  2  1  1  0  0  0  0
  3  1  1  0  0  0  0
  4  8  1  0  0  0  0
  5  1  2  0  0  0  0
  6  1  2  0  0  0  0
  7  4  3  0  0  0  0
  8  2  1  0  0  0  0
  9  3  2  0  0  0  0
 10  3  1  0  0  0  0
 11 13  1  0  0  0  0
 11 12  2  0  0  0  0
 12  9  1  0  0  0  0
 13 10  2  0  0  0  0
 14 11  1  0  0  0  0
 15  8  1  0  0  0  0
 16  8  1  0  0  0  0
 17 15  1  0  0  0  0
 18 16  1  0  0  0  0
M  END
> <CdId>
1661

> <Mol Weight>
269.335

> <Formula>
C13H16FNO2S

> <Click_ID>
CLK022_D02 __ __ 

$$$$
