CLK051G04
 OpenBabel03181404502D

 25 27  0  0  0  0  0  0  0  0999 V2000
    1.8583   -0.3083    0.0000 N    0  0  0  0  0  0  0  0  0  0  0  0
    0.7292   -1.4333    0.0000 C    0  0  0  0  0  0  0  0  0  0  0  0
    1.4458   -1.0208    0.0000 C    0  0  0  0  0  0  0  0  0  0  0  0
    2.8500    0.5875    0.0000 N    0  0  0  0  0  0  0  0  0  0  0  0
    1.5208    0.4458    0.0000 N    0  0  0  0  0  0  0  0  0  0  0  0
    0.0167   -1.0208    0.0000 N    0  0  0  0  0  0  0  0  0  0  0  0
    2.6792   -0.2208    0.0000 C    0  0  0  0  0  0  0  0  0  0  0  0
    2.1375    1.0000    0.0000 C    0  0  0  0  0  0  0  0  0  0  0  0
   -3.5542    1.0417    0.0000 C    0  0  0  0  0  0  0  0  0  0  0  0
    0.7292   -2.2583    0.0000 C    0  0  0  0  0  0  0  0  0  0  0  0
    0.0167   -0.1958    0.0000 C    0  0  0  0  0  0  0  0  0  0  0  0
   -4.2708    0.6292    0.0000 C    0  0  0  0  0  0  0  0  0  0  0  0
    2.1583   -1.4333    0.0000 C    0  0  0  0  0  0  0  0  0  0  0  0
   -0.6958    1.0417    0.0000 N    0  0  0  0  0  0  0  0  0  0  0  0
    0.7292    0.2167    0.0000 O    0  0  0  0  0  0  0  0  0  0  0  0
    1.4458   -2.6708    0.0000 C    0  0  0  0  0  0  0  0  0  0  0  0
   -2.8417    1.4542    0.0000 C    0  0  0  0  0  0  0  0  0  0  0  0
   -0.6958    0.2167    0.0000 C    0  0  0  0  0  0  0  0  0  0  0  0
   -1.4125    1.4542    0.0000 C    0  0  0  0  0  0  0  0  0  0  0  0
    2.1583   -2.2583    0.0000 C    0  0  0  0  0  0  0  0  0  0  0  0
   -2.1250    1.0417    0.0000 C    0  0  0  0  0  0  0  0  0  0  0  0
    1.4458   -3.4958    0.0000 Cl   0  0  0  0  0  0  0  0  0  0  0  0
   -2.1250    2.6917    0.0000 C    0  0  0  0  0  0  0  0  0  0  0  0
   -2.8417    2.2792    0.0000 C    0  0  0  0  0  0  0  0  0  0  0  0
   -1.4125    2.2792    0.0000 C    0  0  0  0  0  0  0  0  0  0  0  0
  2  3  2  0  0  0  0
  3  1  1  0  0  0  0
  4  7  2  0  0  0  0
  5  1  1  0  0  0  0
  6  2  1  0  0  0  0
  7  1  1  0  0  0  0
  8  5  2  0  0  0  0
  8  4  1  0  0  0  0
  9 17  1  0  0  0  0
 10  2  1  0  0  0  0
 11  6  1  0  0  0  0
 12  9  3  0  0  0  0
 13  3  1  0  0  0  0
 14 18  1  0  0  0  0
 15 11  2  0  0  0  0
 16 10  2  0  0  0  0
 17 21  1  0  0  0  0
 18 11  1  0  0  0  0
 19 14  1  0  0  0  0
 20 13  2  0  0  0  0
 20 16  1  0  0  0  0
 21 19  2  0  0  0  0
 22 16  1  0  0  0  0
 23 25  2  0  0  0  0
 24 17  2  0  0  0  0
 24 23  1  0  0  0  0
 25 19  1  0  0  0  0
M  END
> <CdId>
3911

> <Mol Weight>
351.79

> <Formula>
C18H14ClN5O

> <Click_ID>
CLK051G04 __ __ 

$$$$
