CLK038C04
 OpenBabel03181404502D

 31 33  0  0  0  0  0  0  0  0999 V2000
    1.3750    0.8458    0.0000 C    0  0  0  0  0  0  0  0  0  0  0  0
    0.5667    0.6750    0.0000 S    0  0  0  0  0  0  0  0  0  0  0  0
    0.4833   -0.1458    0.0000 C    0  0  0  0  0  0  0  0  0  0  0  0
    1.7875    0.1292    0.0000 N    0  0  0  0  0  0  0  0  0  0  0  0
    1.2333   -0.4833    0.0000 N    0  0  0  0  0  0  0  0  0  0  0  0
   -0.2333   -0.5583    0.0000 C    0  0  0  0  0  0  0  0  0  0  0  0
    1.7083    1.6000    0.0000 C    0  0  0  0  0  0  0  0  0  0  0  0
   -0.9458   -0.1458    0.0000 C    0  0  0  0  0  0  0  0  0  0  0  0
   -5.2333   -1.7958    0.0000 C    0  0  0  0  0  0  0  0  0  0  0  0
    2.5292    1.6875    0.0000 N    0  0  0  0  0  0  0  0  0  0  0  0
   -5.9500   -2.2083    0.0000 C    0  0  0  0  0  0  0  0  0  0  0  0
   -2.3750   -1.7958    0.0000 C    0  0  0  0  0  0  0  0  0  0  0  0
   -1.6625   -0.5583    0.0000 C    0  0  0  0  0  0  0  0  0  0  0  0
   -1.6625   -1.3833    0.0000 C    0  0  0  0  0  0  0  0  0  0  0  0
   -3.0917   -1.3833    0.0000 C    0  0  0  0  0  0  0  0  0  0  0  0
    1.2250    2.2667    0.0000 O    0  0  0  0  0  0  0  0  0  0  0  0
   -3.0917   -0.5583    0.0000 C    0  0  0  0  0  0  0  0  0  0  0  0
   -0.2333   -1.3833    0.0000 Cl   0  0  0  0  0  0  0  0  0  0  0  0
    2.8667    2.4375    0.0000 C    0  0  0  0  0  0  0  0  0  0  0  0
   -2.3750   -0.1458    0.0000 C    0  0  0  0  0  0  0  0  0  0  0  0
   -2.3750   -2.6208    0.0000 O    0  0  0  0  0  0  0  0  0  0  0  0
   -3.8042   -1.7958    0.0000 O    0  0  0  0  0  0  0  0  0  0  0  0
    3.6875    2.5250    0.0000 C    0  0  0  0  0  0  0  0  0  0  0  0
   -4.5208   -1.3833    0.0000 C    0  0  0  0  0  0  0  0  0  0  0  0
   -1.6625   -3.0333    0.0000 C    0  0  0  0  0  0  0  0  0  0  0  0
    4.0208    3.2792    0.0000 C    0  0  0  0  0  0  0  0  0  0  0  0
    4.1708    1.8583    0.0000 C    0  0  0  0  0  0  0  0  0  0  0  0
   -1.6625   -3.8583    0.0000 C    0  0  0  0  0  0  0  0  0  0  0  0
    4.9917    1.9458    0.0000 C    0  0  0  0  0  0  0  0  0  0  0  0
    4.8417    3.3667    0.0000 C    0  0  0  0  0  0  0  0  0  0  0  0
    5.3292    2.6958    0.0000 C    0  0  0  0  0  0  0  0  0  0  0  0
  2  1  1  0  0  0  0
  3  2  1  0  0  0  0
  4  1  2  0  0  0  0
  5  4  1  0  0  0  0
  5  3  2  0  0  0  0
  6  3  1  0  0  0  0
  7  1  1  0  0  0  0
  8  6  2  0  0  0  0
  9 24  1  0  0  0  0
 10  7  1  0  0  0  0
 11  9  3  0  0  0  0
 12 14  1  0  0  0  0
 13  8  1  0  0  0  0
 14 13  2  0  0  0  0
 15 17  1  0  0  0  0
 15 12  2  0  0  0  0
 16  7  2  0  0  0  0
 17 20  2  0  0  0  0
 18  6  1  0  0  0  0
 19 10  1  0  0  0  0
 20 13  1  0  0  0  0
 21 12  1  0  0  0  0
 22 15  1  0  0  0  0
 23 19  1  0  0  0  0
 24 22  1  0  0  0  0
 25 21  1  0  0  0  0
 26 23  2  0  0  0  0
 27 23  1  0  0  0  0
 28 25  1  0  0  0  0
 29 27  2  0  0  0  0
 30 26  1  0  0  0  0
 31 30  2  0  0  0  0
 31 29  1  0  0  0  0
M  END
> <CdId>
2867

> <Mol Weight>
453.941

> <Formula>
C23H20ClN3O3S

> <Click_ID>
CLK038C04 __ __ 

$$$$
