CLK044C03
 OpenBabel03181404502D

 26 29  0  0  0  0  0  0  0  0999 V2000
    0.3375    0.2708    0.0000 C   0  0  0  0  0  0  0  0  0  0  0  0
    1.1208    0.5250    0.0000 N   0  0  0  0  0  0  0  0  0  0  0  0
    0.3375   -0.5542    0.0000 C   0  0  0  0  0  0  0  0  0  0  0  0
    1.6042   -0.1417    0.0000 N   0  0  0  0  0  0  0  0  0  0  0  0
    1.3750    2.6458    0.0000 S   0  0  0  0  0  0  0  0  0  0  0  0
   -0.3792    0.6833    0.0000 N   0  0  0  0  0  0  0  0  0  0  0  0
   -0.3792   -0.9667    0.0000 C   0  0  0  0  0  0  0  0  0  0  0  0
    1.1208   -0.8083    0.0000 C   0  0  0  0  0  0  0  0  0  0  0  0
    1.3750    1.3125    0.0000 C   0  0  3  0  0  0  0  0  0  0  0  0
    0.8917    1.9792    0.0000 C   0  0  0  0  0  0  0  0  0  0  0  0
   -1.0917    0.2708    0.0000 C   0  0  0  0  0  0  0  0  0  0  0  0
   -1.0917   -0.5542    0.0000 C   0  0  0  0  0  0  0  0  0  0  0  0
   -0.3792   -1.7917    0.0000 C   0  0  0  0  0  0  0  0  0  0  0  0
   -1.8083    0.6833    0.0000 C   0  0  0  0  0  0  0  0  0  0  0  0
   -2.2208    1.4000    0.0000 C   0  0  0  0  0  0  0  0  0  0  0  0
   -2.6333    0.6833    0.0000 C   0  0  0  0  0  0  0  0  0  0  0  0
   -1.8083   -3.4417    0.0000 C   0  0  0  0  0  0  0  0  0  0  0  0
   -2.5208   -3.8542    0.0000 C   0  0  0  0  0  0  0  0  0  0  0  0
    1.3625    3.4708    0.0000 O   0  0  0  0  0  0  0  0  0  0  0  0
    0.9000    3.3208    0.0000 O   0  0  0  0  0  0  0  0  0  0  0  0
    2.1583    1.5667    0.0000 C   0  0  0  0  0  0  0  0  0  0  0  0
    2.1583    2.3917    0.0000 C   0  0  0  0  0  0  0  0  0  0  0  0
    0.3375   -2.2042    0.0000 O   0  0  0  0  0  0  0  0  0  0  0  0
   -1.0917   -2.2042    0.0000 N   0  0  0  0  0  0  0  0  0  0  0  0
    1.3750   -1.5917    0.0000 C   0  0  0  0  0  0  0  0  0  0  0  0
   -1.0917   -3.0292    0.0000 C   0  0  0  0  0  0  0  0  0  0  0  0
  2  1  1  0  0  0  0
  3  1  2  0  0  0  0
  4  2  1  0  0  0  0
  4  8  2  0  0  0  0
  5 10  1  0  0  0  0
  5 22  1  0  0  0  0
  6  1  1  0  0  0  0
  7  3  1  0  0  0  0
  8  3  1  0  0  0  0
  9  2  1  0  0  0  0
 10  9  1  0  0  0  0
 11  6  2  0  0  0  0
 12  7  2  0  0  0  0
 12 11  1  0  0  0  0
 13  7  1  0  0  0  0
 14 11  1  0  0  0  0
 15 14  1  0  0  0  0
 16 14  1  0  0  0  0
 16 15  1  0  0  0  0
 17 26  1  0  0  0  0
 18 17  3  0  0  0  0
 19  5  2  0  0  0  0
 20  5  2  0  0  0  0
 21  9  1  0  0  0  0
 22 21  1  0  0  0  0
 23 13  2  0  0  0  0
 24 13  1  0  0  0  0
 25  8  1  0  0  0  0
 26 24  1  0  0  0  0
M  END
> <CdId>
3339

> <Mol Weight>
372.441

> <Formula>
C18H20N4O3S

> <Click_ID>
CLK044C03 __ __ 

$$$$
