CLK014_E11
 OpenBabel03181404502D

 29 31  0  0  0  0  0  0  0  0999 V2000
    3.1325   -0.2757    0.0000 N    0  0  0  0  0  0  0  0  0  0  0  0
    2.8736    0.5137    0.0000 C    0  0  0  0  0  0  0  0  0  0  0  0
    3.9595   -0.2757    0.0000 C    0  0  0  0  0  0  0  0  0  0  0  0
    4.2143    0.5137    0.0000 C    0  0  0  0  0  0  0  0  0  0  0  0
    3.5460    0.9982    0.0000 N    0  0  0  0  0  0  0  0  0  0  0  0
    5.0037    0.7727    0.0000 C    0  0  0  0  0  0  0  0  0  0  0  0
    5.5132    3.1910    0.0000 C    0  0  0  0  0  0  0  0  0  0  0  0
    6.1189    2.6396    0.0000 C    0  0  0  0  0  0  0  0  0  0  0  0
    4.7280    2.9446    0.0000 C    0  0  0  0  0  0  0  0  0  0  0  0
    5.1666    1.5788    0.0000 C    0  0  0  0  0  0  0  0  0  0  0  0
    2.6438   -0.9440    0.0000 C    0  0  0  0  0  0  0  0  0  0  0  0
    6.6702    5.0413    0.0000 C    0  0  0  0  0  0  0  0  0  0  0  0
    6.8456    5.8558    0.0000 C    0  0  0  0  0  0  0  0  0  0  0  0
    2.0925    0.7727    0.0000 O    0  0  0  0  0  0  0  0  0  0  0  0
    4.4399   -0.9440    0.0000 O    0  0  0  0  0  0  0  0  0  0  0  0
    5.9518    1.8252    0.0000 C    0  0  0  0  0  0  0  0  0  0  0  0
    4.5526    2.1384    0.0000 C    0  0  0  0  0  0  0  0  0  0  0  0
    6.9083    2.8902    0.0000 Br   0  0  0  0  0  0  0  0  0  0  0  0
    1.8211   -0.8563    0.0000 C    0  0  0  0  0  0  0  0  0  0  0  0
    5.6929    4.0054    0.0000 O    0  0  0  0  0  0  0  0  0  0  0  0
    4.1266    3.4917    0.0000 O    0  0  0  0  0  0  0  0  0  0  0  0
    0.1796   -0.6683    0.0000 C    0  0  0  0  0  0  0  0  0  0  0  0
   -0.6474   -0.5764    0.0000 Cl   0  0  0  0  0  0  0  0  0  0  0  0
    1.3324   -1.5203    0.0000 C    0  0  0  0  0  0  0  0  0  0  0  0
    1.4828   -0.0919    0.0000 C    0  0  0  0  0  0  0  0  0  0  0  0
    0.5137   -1.4284    0.0000 C    0  0  0  0  0  0  0  0  0  0  0  0
    0.6683   -0.0042    0.0000 C    0  0  0  0  0  0  0  0  0  0  0  0
    6.4823    4.2394    0.0000 C    0  0  0  0  0  0  0  0  0  0  0  0
    3.3497    3.2453    0.0000 C    0  0  0  0  0  0  0  0  0  0  0  0
  2  1  1  0  0  0  0
  3  1  1  0  0  0  0
  4  3  1  0  0  0  0
  5  2  1  0  0  0  0
  5  4  1  0  0  0  0
  6  4  2  0  0  0  0
  7  9  2  0  0  0  0
  7  8  1  0  0  0  0
  8 16  2  0  0  0  0
  9 17  1  0  0  0  0
 10  6  1  0  0  0  0
 11  1  1  0  0  0  0
 12 28  1  0  0  0  0
 13 12  3  0  0  0  0
 14  2  2  0  0  0  0
 15  3  2  0  0  0  0
 16 10  1  0  0  0  0
 17 10  2  0  0  0  0
 18  8  1  0  0  0  0
 19 11  1  0  0  0  0
 20  7  1  0  0  0  0
 21  9  1  0  0  0  0
 22 27  2  0  0  0  0
 22 26  1  0  0  0  0
 23 22  1  0  0  0  0
 24 19  1  0  0  0  0
 25 19  2  0  0  0  0
 26 24  2  0  0  0  0
 27 25  1  0  0  0  0
 28 20  1  0  0  0  0
 29 21  1  0  0  0  0
M  END
> <CdId>
1046

> <Mol Weight>
475.72

> <Formula>
C21H16BrClN2O4

> <Click_ID>
CLK014_E11 __ __ 

$$$$
