CLK048E04
 OpenBabel03181404502D

 26 28  0  0  0  0  0  0  0  0999 V2000
    1.1417    1.7875    0.0000 S   0  0  0  0  0  0  0  0  0  0  0  0
   -1.4042   -1.1167    0.0000 N   0  0  0  0  0  0  0  0  0  0  0  0
   -0.9208   -1.7833    0.0000 C   0  0  0  0  0  0  0  0  0  0  0  0
   -1.4042   -2.4500    0.0000 S   0  0  0  0  0  0  0  0  0  0  0  0
    1.5542    1.0750    0.0000 C   0  0  0  0  0  0  0  0  0  0  0  0
    1.1417   -1.0708    0.0000 C   0  0  0  0  0  0  0  0  0  0  0  0
   -2.1875   -1.3708    0.0000 C   0  0  0  0  0  0  0  0  0  0  0  0
   -2.1875   -2.1958    0.0000 C   0  0  0  0  0  0  0  0  0  0  0  0
    0.7292    3.9333    0.0000 C   0  0  0  0  0  0  0  0  0  0  0  0
    1.5542   -0.3542    0.0000 C   0  0  0  0  0  0  0  0  0  0  0  0
    1.1417    0.3583    0.0000 C   0  0  0  0  0  0  0  0  0  0  0  0
    0.3167    4.6417    0.0000 C   0  0  0  0  0  0  0  0  0  0  0  0
    0.4292    1.3750    0.0000 O   0  0  0  0  0  0  0  0  0  0  0  0
    1.8583    2.2000    0.0000 O   0  0  0  0  0  0  0  0  0  0  0  0
    0.7292    2.5042    0.0000 N   0  0  0  0  0  0  0  0  0  0  0  0
    0.3167   -1.0708    0.0000 O   0  0  0  0  0  0  0  0  0  0  0  0
    1.5542   -1.7833    0.0000 O   0  0  0  0  0  0  0  0  0  0  0  0
   -0.0958   -1.7833    0.0000 C   0  0  0  0  0  0  0  0  0  0  0  0
    1.1417    3.2167    0.0000 C   0  0  0  0  0  0  0  0  0  0  0  0
    2.3792    1.0750    0.0000 C   0  0  0  0  0  0  0  0  0  0  0  0
    2.3792   -0.3542    0.0000 C   0  0  0  0  0  0  0  0  0  0  0  0
    2.7917    0.3583    0.0000 C   0  0  0  0  0  0  0  0  0  0  0  0
   -2.9042   -0.9583    0.0000 C   0  0  0  0  0  0  0  0  0  0  0  0
   -2.9042   -2.6083    0.0000 C   0  0  0  0  0  0  0  0  0  0  0  0
   -3.6167   -1.3708    0.0000 C   0  0  0  0  0  0  0  0  0  0  0  0
   -3.6167   -2.1958    0.0000 C   0  0  0  0  0  0  0  0  0  0  0  0
  2  3  2  0  0  0  0
  3 18  1  0  0  0  0
  4  3  1  0  0  0  0
  5  1  1  0  0  0  0
  6 10  1  0  0  0  0
  7  2  1  0  0  0  0
  8  4  1  0  0  0  0
  8  7  2  0  0  0  0
  9 19  1  0  0  0  0
 10 11  2  0  0  0  0
 11  5  1  0  0  0  0
 12  9  3  0  0  0  0
 13  1  2  0  0  0  0
 14  1  2  0  0  0  0
 15  1  1  0  0  0  0
 16  6  1  0  0  0  0
 17  6  2  0  0  0  0
 18 16  1  0  0  0  0
 19 15  1  0  0  0  0
 20  5  2  0  0  0  0
 21 10  1  0  0  0  0
 22 20  1  0  0  0  0
 22 21  2  0  0  0  0
 23  7  1  0  0  0  0
 24  8  1  0  0  0  0
 25 23  2  0  0  0  0
 26 24  2  0  0  0  0
 26 25  1  0  0  0  0
M  END
> <CdId>
3669

> <Mol Weight>
386.445

> <Formula>
C18H14N2O4S2

> <Click_ID>
CLK048E04 __ __ 

$$$$
