CLK018_E09
 OpenBabel03181404502D

 25 26  0  0  0  0  0  0  0  0999 V2000
    1.5748   -0.8209    0.0000 N    0  0  0  0  0  0  0  0  0  0  0  0
    1.8345   -1.6125    0.0000 C    0  0  0  0  0  0  0  0  0  0  0  0
    2.2491   -0.3309    0.0000 C    0  0  0  0  0  0  0  0  0  0  0  0
    2.9193   -0.8209    0.0000 C    0  0  0  0  0  0  0  0  0  0  0  0
    2.6638   -1.6125    0.0000 S    0  0  0  0  0  0  0  0  0  0  0  0
    4.2093    1.8428    0.0000 C    0  0  0  0  0  0  0  0  0  0  0  0
    3.7109   -0.5654    0.0000 C    0  0  0  0  0  0  0  0  0  0  0  0
    4.8166    1.3025    0.0000 C    0  0  0  0  0  0  0  0  0  0  0  0
    3.4303    1.5832    0.0000 C    0  0  0  0  0  0  0  0  0  0  0  0
    3.8742    0.2345    0.0000 C    0  0  0  0  0  0  0  0  0  0  0  0
    4.3852    2.6470    0.0000 O    0  0  0  0  0  0  0  0  0  0  0  0
    0.6157    0.2471    0.0000 C    0  0  0  0  0  0  0  0  0  0  0  0
    0.3937    1.0512    0.0000 C    0  0  0  0  0  0  0  0  0  0  0  0
    1.3445   -2.2785    0.0000 O    0  0  0  0  0  0  0  0  0  0  0  0
    3.2586    0.7874    0.0000 C    0  0  0  0  0  0  0  0  0  0  0  0
    4.6491    0.4858    0.0000 C    0  0  0  0  0  0  0  0  0  0  0  0
    2.2408    0.4984    0.0000 O    0  0  0  0  0  0  0  0  0  0  0  0
    5.3527    3.6899    0.0000 C    0  0  0  0  0  0  0  0  0  0  0  0
    0.7916   -0.5654    0.0000 C    0  0  0  0  0  0  0  0  0  0  0  0
    4.7412    4.2386    0.0000 O    0  0  0  0  0  0  0  0  0  0  0  0
    5.1684    2.8857    0.0000 C    0  0  0  0  0  0  0  0  0  0  0  0
    5.5957    1.5538    0.0000 Cl   0  0  0  0  0  0  0  0  0  0  0  0
    2.8271    2.1444    0.0000 Cl   0  0  0  0  0  0  0  0  0  0  0  0
    6.1317    3.9412    0.0000 O    0  0  0  0  0  0  0  0  0  0  0  0
    6.7349    3.3883    0.0000 C    0  0  0  0  0  0  0  0  0  0  0  0
  2  1  1  0  0  0  0
  3  1  1  0  0  0  0
  4  3  1  0  0  0  0
  4  5  1  0  0  0  0
  5  2  1  0  0  0  0
  6  8  1  0  0  0  0
  6  9  2  0  0  0  0
  7  4  2  0  0  0  0
  8 16  2  0  0  0  0
  9 15  1  0  0  0  0
 10  7  1  0  0  0  0
 11  6  1  0  0  0  0
 12 19  1  0  0  0  0
 13 12  3  0  0  0  0
 14  2  2  0  0  0  0
 15 10  2  0  0  0  0
 16 10  1  0  0  0  0
 17  3  2  0  0  0  0
 18 21  1  0  0  0  0
 19  1  1  0  0  0  0
 20 18  2  0  0  0  0
 21 11  1  0  0  0  0
 22  8  1  0  0  0  0
 23  9  1  0  0  0  0
 24 18  1  0  0  0  0
 25 24  1  0  0  0  0
M  END
> <CdId>
1364

> <Mol Weight>
400.233

> <Formula>
C16H11Cl2NO5S

> <Click_ID>
CLK018_E09 __ __ 

$$$$
