CLK045A04
 OpenBabel03181404502D

 21 22  0  0  0  0  0  0  0  0999 V2000
    1.4958   -2.2750    0.0000 S   0  0  0  0  0  0  0  0  0  0  0  0
    0.0667    0.2000    0.0000 C   0  0  0  0  0  0  0  0  0  0  0  0
    1.4958   -1.4500    0.0000 C   0  0  0  0  0  0  0  0  0  0  0  0
    0.0667    1.0250    0.0000 N   0  0  0  0  0  0  0  0  0  0  0  0
   -2.7917    1.0250    0.0000 C   0  0  0  0  0  0  0  0  0  0  0  0
    0.7792   -0.2125    0.0000 C   0  0  0  0  0  0  0  0  0  0  0  0
    0.7792   -1.0375    0.0000 C   0  0  0  0  0  0  0  0  0  0  0  0
   -3.5083    0.6125    0.0000 C   0  0  0  0  0  0  0  0  0  0  0  0
    1.4958   -3.1000    0.0000 O   0  0  0  0  0  0  0  0  0  0  0  0
    0.6708   -2.2750    0.0000 O   0  0  0  0  0  0  0  0  0  0  0  0
   -0.6500   -0.2125    0.0000 O   0  0  0  0  0  0  0  0  0  0  0  0
   -0.6500    1.4375    0.0000 C   0  0  0  0  0  0  0  0  0  0  0  0
   -2.0792    1.4375    0.0000 C   0  0  0  0  0  0  0  0  0  0  0  0
   -1.3625    1.0250    0.0000 C   0  0  0  0  0  0  0  0  0  0  0  0
    2.3208   -2.2750    0.0000 C   0  0  0  0  0  0  0  0  0  0  0  0
    2.2083   -1.0375    0.0000 C   0  0  0  0  0  0  0  0  0  0  0  0
    1.4958    0.2000    0.0000 C   0  0  0  0  0  0  0  0  0  0  0  0
    2.2083   -0.2125    0.0000 C   0  0  0  0  0  0  0  0  0  0  0  0
   -1.3625    2.6750    0.0000 C   0  0  0  0  0  0  0  0  0  0  0  0
   -0.6500    2.2625    0.0000 C   0  0  0  0  0  0  0  0  0  0  0  0
   -2.0792    2.2625    0.0000 C   0  0  0  0  0  0  0  0  0  0  0  0
  2  6  1  0  0  0  0
  3  1  1  0  0  0  0
  4  2  1  0  0  0  0
  5 13  1  0  0  0  0
  6  7  1  0  0  0  0
  7  3  2  0  0  0  0
  8  5  3  0  0  0  0
  9  1  2  0  0  0  0
 10  1  2  0  0  0  0
 11  2  2  0  0  0  0
 12  4  1  0  0  0  0
 13 14  1  0  0  0  0
 14 12  2  0  0  0  0
 15  1  1  0  0  0  0
 16  3  1  0  0  0  0
 17  6  2  0  0  0  0
 17 18  1  0  0  0  0
 18 16  2  0  0  0  0
 19 20  2  0  0  0  0
 20 12  1  0  0  0  0
 21 13  2  0  0  0  0
 21 19  1  0  0  0  0
M  END
> <CdId>
3425

> <Mol Weight>
299.344

> <Formula>
C16H13NO3S

> <Click_ID>
CLK045A04 __ __ 

$$$$
