CLK012_D04
 OpenBabel03181404502D

 20 21  0  0  0  0  0  0  0  0999 V2000
    1.5619   -0.8142    0.0000 N   0  0  0  0  0  0  0  0  0  0  0  0
    1.8195   -1.5993    0.0000 C   0  0  0  0  0  0  0  0  0  0  0  0
    2.8954   -0.8142    0.0000 C   0  0  0  0  0  0  0  0  0  0  0  0
    2.2307   -0.3282    0.0000 C   0  0  0  0  0  0  0  0  0  0  0  0
    2.6420   -1.5993    0.0000 S   0  0  0  0  0  0  0  0  0  0  0  0
    3.6805   -0.5608    0.0000 C   0  0  0  0  0  0  0  0  0  0  0  0
    4.3036   -1.1258    0.0000 C   0  0  0  0  0  0  0  0  0  0  0  0
    5.0845   -0.8391    0.0000 C   0  0  0  0  0  0  0  0  0  0  0  0
    0.6106    0.2451    0.0000 C   0  0  0  0  0  0  0  0  0  0  0  0
    0.3905    1.0426    0.0000 C   0  0  0  0  0  0  0  0  0  0  0  0
    1.3334   -2.2598    0.0000 O   0  0  0  0  0  0  0  0  0  0  0  0
    2.2224    0.4943    0.0000 O   0  0  0  0  0  0  0  0  0  0  0  0
    0.7851   -0.5608    0.0000 C   0  0  0  0  0  0  0  0  0  0  0  0
    5.6453   -1.3459    0.0000 C   0  0  0  0  0  0  0  0  0  0  0  0
    5.2964   -0.0291    0.0000 O   0  0  0  0  0  0  0  0  0  0  0  0
    6.4554   -1.1133    0.0000 O   0  0  0  0  0  0  0  0  0  0  0  0
    4.1000   -1.9316    0.0000 C   0  0  0  0  0  0  0  0  0  0  0  0
    4.6608   -2.4343    0.0000 C   0  0  0  0  0  0  0  0  0  0  0  0
    5.4252   -2.1435    0.0000 C   0  0  0  0  0  0  0  0  0  0  0  0
    7.0826   -1.6990    0.0000 C   0  0  0  0  0  0  0  0  0  0  0  0
  2  1  1  0  0  0  0
  3  4  1  0  0  0  0
  4  1  1  0  0  0  0
  5  2  1  0  0  0  0
  5  3  1  0  0  0  0
  6  3  2  0  0  0  0
  7  6  1  0  0  0  0
  8  7  2  0  0  0  0
  9 13  1  0  0  0  0
 10  9  3  0  0  0  0
 11  2  2  0  0  0  0
 12  4  2  0  0  0  0
 13  1  1  0  0  0  0
 14  8  1  0  0  0  0
 15  8  1  0  0  0  0
 16 14  1  0  0  0  0
 17  7  1  0  0  0  0
 18 17  2  0  0  0  0
 19 18  1  0  0  0  0
 19 14  2  0  0  0  0
 20 16  1  0  0  0  0
M  END
> <CdId>
869

> <Mol Weight>
289.306

> <Formula>
C14H11NO4S

> <Click_ID>
CLK012_D04 __ __ 

$$$$
