CLK025_F04
 OpenBabel03181404502D

 33 35  0  0  0  0  0  0  0  0999 V2000
    0.7934    1.9447    0.0000 C    0  0  0  0  0  0  0  0  0  0  0  0
    0.0878    1.5270    0.0000 N    0  0  0  0  0  0  0  0  0  0  0  0
    1.5060    0.7021    0.0000 C    0  0  0  0  0  0  0  0  0  0  0  0
    0.0878    0.7021    0.0000 C    0  0  0  0  0  0  0  0  0  0  0  0
    1.5060    1.5270    0.0000 S    0  0  0  0  0  0  0  0  0  0  0  0
   -2.0746    2.7697    0.0000 C    0  0  0  0  0  0  0  0  0  0  0  0
    2.0746   -2.3485    0.0000 C    0  0  0  0  0  0  0  0  0  0  0  0
    2.0922    0.1194    0.0000 C    0  0  0  0  0  0  0  0  0  0  0  0
    0.7898    2.7697    0.0000 N    0  0  0  0  0  0  0  0  0  0  0  0
    1.3621   -1.9377    0.0000 C    0  0  0  0  0  0  0  0  0  0  0  0
    2.7943   -1.9377    0.0000 C    0  0  0  0  0  0  0  0  0  0  0  0
    2.0887   -0.7056    0.0000 C    0  0  0  0  0  0  0  0  0  0  0  0
    2.8645   -4.2125    0.0000 C    0  0  0  0  0  0  0  0  0  0  0  0
   -1.3585    3.1769    0.0000 C    0  0  0  0  0  0  0  0  0  0  0  0
    3.6543   -4.4231    0.0000 C    0  0  0  0  0  0  0  0  0  0  0  0
   -2.7978    3.1804    0.0000 O    0  0  0  0  0  0  0  0  0  0  0  0
    1.3691   -1.1093    0.0000 C    0  0  0  0  0  0  0  0  0  0  0  0
    2.7943   -1.1093    0.0000 C    0  0  0  0  0  0  0  0  0  0  0  0
   -0.4985    0.1194    0.0000 O    0  0  0  0  0  0  0  0  0  0  0  0
    0.0667    3.1804    0.0000 C    0  0  0  0  0  0  0  0  0  0  0  0
   -0.6459    2.7697    0.0000 C    0  0  0  0  0  0  0  0  0  0  0  0
   -2.0816    1.9447    0.0000 O    0  0  0  0  0  0  0  0  0  0  0  0
    0.6424   -2.3449    0.0000 Br   0  0  0  0  0  0  0  0  0  0  0  0
    2.0676   -3.1734    0.0000 O    0  0  0  0  0  0  0  0  0  0  0  0
    3.5069   -2.3485    0.0000 O    0  0  0  0  0  0  0  0  0  0  0  0
    2.8680   -3.3875    0.0000 C    0  0  0  0  0  0  0  0  0  0  0  0
   -3.5104    2.7767    0.0000 C    0  0  0  0  0  0  0  0  0  0  0  0
   -1.3621    4.0124    0.0000 C    0  0  0  0  0  0  0  0  0  0  0  0
   -0.6459    4.4231    0.0000 C    0  0  0  0  0  0  0  0  0  0  0  0
    0.0667    4.0124    0.0000 C    0  0  0  0  0  0  0  0  0  0  0  0
    4.3073   -2.1378    0.0000 C    0  0  0  0  0  0  0  0  0  0  0  0
   -3.5139    1.9518    0.0000 C    0  0  0  0  0  0  0  0  0  0  0  0
   -4.3073    2.9909    0.0000 C    0  0  0  0  0  0  0  0  0  0  0  0
  2  1  1  0  0  0  0
  3  5  1  0  0  0  0
  4  2  1  0  0  0  0
  4  3  1  0  0  0  0
  5  1  1  0  0  0  0
  6 14  1  0  0  0  0
  7 11  1  0  0  0  0
  8  3  2  0  0  0  0
  9  1  2  0  0  0  0
 10 17  1  0  0  0  0
 10  7  2  0  0  0  0
 11 18  2  0  0  0  0
 12  8  1  0  0  0  0
 13 26  1  0  0  0  0
 14 21  2  0  0  0  0
 14 28  1  0  0  0  0
 15 13  3  0  0  0  0
 16  6  1  0  0  0  0
 17 12  2  0  0  0  0
 18 12  1  0  0  0  0
 19  4  2  0  0  0  0
 20  9  1  0  0  0  0
 21 20  1  0  0  0  0
 22  6  2  0  0  0  0
 23 10  1  0  0  0  0
 24  7  1  0  0  0  0
 25 11  1  0  0  0  0
 26 24  1  0  0  0  0
 27 16  1  0  0  0  0
 28 29  2  0  0  0  0
 29 30  1  0  0  0  0
 30 20  2  0  0  0  0
 31 25  1  0  0  0  0
 32 27  1  0  0  0  0
 33 27  1  0  0  0  0
M  END
> <CdId>
1909

> <Mol Weight>
529.403

> <Formula>
C24H21BrN2O5S

> <Click_ID>
CLK025_F04 __ __ 

$$$$
