CLK033_H07
 OpenBabel03181404502D

 31 34  0  0  0  0  0  0  0  0999 V2000
   -4.6041    2.5615    0.0000 C   0  0  0  0  0  0  0  0  0  0  0  0
   -3.8883    2.9968    0.0000 N   0  0  0  0  0  0  0  0  0  0  0  0
   -5.3742    2.8838    0.0000 S   0  0  0  0  0  0  0  0  0  0  0  0
   -4.6794    1.7454    0.0000 N   0  0  0  0  0  0  0  0  0  0  0  0
   -5.9099    2.2560    0.0000 C   0  0  0  0  0  0  0  0  0  0  0  0
   -5.4830    1.5528    0.0000 C   0  0  0  0  0  0  0  0  0  0  0  0
   -3.8883    3.8172    0.0000 C   0  0  0  0  0  0  0  0  0  0  0  0
   -3.1726    4.2316    0.0000 C   0  0  0  0  0  0  0  0  0  0  0  0
   -1.7537    5.0394    0.0000 C   0  0  0  0  0  0  0  0  0  0  0  0
   -2.4569    5.4538    0.0000 C   0  0  0  0  0  0  0  0  0  0  0  0
   -1.7537    4.2316    0.0000 C   0  0  0  0  0  0  0  0  0  0  0  0
   -6.7346    2.2434    0.0000 C   0  0  0  0  0  0  0  0  0  0  0  0
   -3.1726    5.0478    0.0000 C   0  0  0  0  0  0  0  0  0  0  0  0
   -2.4694    3.8255    0.0000 C   0  0  0  0  0  0  0  0  0  0  0  0
   -5.8723    0.8245    0.0000 C   0  0  0  0  0  0  0  0  0  0  0  0
   -3.2522    1.4691    0.0000 C   0  0  0  0  0  0  0  0  0  0  0  0
   -2.4737    1.7537    0.0000 C   0  0  0  0  0  0  0  0  0  0  0  0
   -4.6041    4.2232    0.0000 O   0  0  0  0  0  0  0  0  0  0  0  0
   -4.0390    1.2012    0.0000 C   0  0  0  0  0  0  0  0  0  0  0  0
   -7.1364    1.5151    0.0000 C   0  0  0  0  0  0  0  0  0  0  0  0
   -6.6969    0.7994    0.0000 C   0  0  0  0  0  0  0  0  0  0  0  0
   -1.0380    5.4412    0.0000 O   0  0  0  0  0  0  0  0  0  0  0  0
   -1.0505    3.8255    0.0000 O   0  0  0  0  0  0  0  0  0  0  0  0
   -2.4611    6.2783    0.0000 O   0  0  0  0  0  0  0  0  0  0  0  0
   -7.1740    2.9466    0.0000 C   0  0  0  0  0  0  0  0  0  0  0  0
   -7.9526    1.4900    0.0000 C   0  0  0  0  0  0  0  0  0  0  0  0
   -0.1339    5.1273    0.0000 C   0  0  0  0  0  0  0  0  0  0  0  0
   -1.0505    3.0094    0.0000 C   0  0  0  0  0  0  0  0  0  0  0  0
   -1.7537    6.6843    0.0000 C   0  0  0  0  0  0  0  0  0  0  0  0
   -8.0028    2.9257    0.0000 C   0  0  0  0  0  0  0  0  0  0  0  0
   -8.3920    2.1974    0.0000 C   0  0  0  0  0  0  0  0  0  0  0  0
  2  1  2  0  0  0  0
  3  1  1  0  0  0  0
  4  1  1  0  0  0  0
  5  3  1  0  0  0  0
  5  6  2  0  0  0  0
  6  4  1  0  0  0  0
  7  2  1  0  0  0  0
  8  7  1  0  0  0  0
  9 11  2  0  0  0  0
  9 10  1  0  0  0  0
 10 13  2  0  0  0  0
 11 14  1  0  0  0  0
 12  5  1  0  0  0  0
 13  8  1  0  0  0  0
 14  8  2  0  0  0  0
 15  6  1  0  0  0  0
 16 19  1  0  0  0  0
 17 16  3  0  0  0  0
 18  7  2  0  0  0  0
 19  4  1  0  0  0  0
 20 12  1  0  0  0  0
 21 15  2  0  0  0  0
 21 20  1  0  0  0  0
 22  9  1  0  0  0  0
 23 11  1  0  0  0  0
 24 10  1  0  0  0  0
 25 12  2  0  0  0  0
 26 20  2  0  0  0  0
 26 31  1  0  0  0  0
 27 22  1  0  0  0  0
 28 23  1  0  0  0  0
 29 24  1  0  0  0  0
 30 25  1  0  0  0  0
 31 30  2  0  0  0  0
M  END
> <CdId>
2561

> <Mol Weight>
432.492

> <Formula>
C24H20N2O4S

> <Click_ID>
CLK033_H07 __ __ 

$$$$
