CLK009_B06
 OpenBabel03181404502D

 30 33  0  0  0  0  0  0  0  0999 V2000
    1.7394   -0.2084    0.0000 N   0  0  0  0  0  0  0  0  0  0  0  0
    1.2758    0.4933    0.0000 C   0  0  0  0  0  0  0  0  0  0  0  0
    1.2758   -0.8336    0.0000 C   0  0  0  0  0  0  0  0  0  0  0  0
    0.4976    0.2254    0.0000 C   0  0  0  0  0  0  0  0  0  0  0  0
    0.4976   -0.5784    0.0000 C   0  0  0  0  0  0  0  0  0  0  0  0
   -4.5249    0.6762    0.0000 N   0  3  0  0  0  0  0  0  0  0  0  0
    2.5559   -0.2041    0.0000 C   0  0  0  0  0  0  0  0  0  0  0  0
   -0.2169    0.6464    0.0000 C   0  0  0  0  0  0  0  0  0  0  0  0
   -0.9526    0.2254    0.0000 C   0  0  0  0  0  0  0  0  0  0  0  0
   -1.6543    0.6591    0.0000 C   0  0  0  0  0  0  0  0  0  0  0  0
   -3.8232    0.2381    0.0000 C   0  0  0  0  0  0  0  0  0  0  0  0
   -2.3815    0.1998    0.0000 C   0  0  0  0  0  0  0  0  0  0  0  0
    4.2145    1.2248    0.0000 C   0  0  0  0  0  0  0  0  0  0  0  0
   -0.2169   -1.0079    0.0000 C   0  0  0  0  0  0  0  0  0  0  0  0
   -3.1087    0.6336    0.0000 C   0  0  0  0  0  0  0  0  0  0  0  0
    5.0395    1.2248    0.0000 C   0  0  0  0  0  0  0  0  0  0  0  0
    1.5353    1.2886    0.0000 O   0  0  0  0  0  0  0  0  0  0  0  0
    1.5608   -1.6373    0.0000 O   0  0  0  0  0  0  0  0  0  0  0  0
   -4.5377    1.4927    0.0000 O   0  5  0  0  0  0  0  0  0  0  0  0
   -5.2692    0.3019    0.0000 O   0  0  0  0  0  0  0  0  0  0  0  0
    2.9897    0.5060    0.0000 C   0  0  0  0  0  0  0  0  0  0  0  0
   -0.9526   -0.5784    0.0000 C   0  0  0  0  0  0  0  0  0  0  0  0
   -1.6543    1.4757    0.0000 O   0  0  0  0  0  0  0  0  0  0  0  0
    3.8147    0.5060    0.0000 C   0  0  0  0  0  0  0  0  0  0  0  0
    2.9897   -0.9058    0.0000 C   0  0  0  0  0  0  0  0  0  0  0  0
   -2.3815   -0.6507    0.0000 C   0  0  0  0  0  0  0  0  0  0  0  0
   -3.8232   -0.5996    0.0000 C   0  0  0  0  0  0  0  0  0  0  0  0
   -3.1640   -1.0505    0.0000 C   0  0  0  0  0  0  0  0  0  0  0  0
    3.8147   -0.9058    0.0000 C   0  0  0  0  0  0  0  0  0  0  0  0
    4.2400   -0.1914    0.0000 C   0  0  0  0  0  0  0  0  0  0  0  0
  2  1  1  0  0  0  0
  3  1  1  0  0  0  0
  4  2  1  0  0  0  0
  5  3  1  0  0  0  0
  5  4  2  0  0  0  0
  6 11  1  0  0  0  0
  7  1  1  0  0  0  0
  8  4  1  0  0  0  0
  9  8  2  0  0  0  0
 10  9  1  0  0  0  0
 11 15  2  0  0  0  0
 12 10  1  0  0  0  0
 13 24  1  0  0  0  0
 14  5  1  0  0  0  0
 15 12  1  0  0  0  0
 16 13  3  0  0  0  0
 17  2  2  0  0  0  0
 18  3  2  0  0  0  0
 19  6  1  0  0  0  0
 20  6  2  0  0  0  0
 21  7  1  0  0  0  0
 22 14  2  0  0  0  0
 22  9  1  0  0  0  0
 23 10  2  0  0  0  0
 24 21  2  0  0  0  0
 24 30  1  0  0  0  0
 25  7  2  0  0  0  0
 26 12  2  0  0  0  0
 27 28  2  0  0  0  0
 27 11  1  0  0  0  0
 28 26  1  0  0  0  0
 29 25  1  0  0  0  0
 30 29  2  0  0  0  0
M  END
> <CdId>
611

> <Mol Weight>
396.3518

> <Formula>
C23H12N2O5

> <Click_ID>
CLK009_B06 __ __ 

$$$$
