CLK027_D08
 OpenBabel03181404502D

 26 28  0  0  0  0  0  0  0  0999 V2000
   -2.4376   -0.5123    0.0000 C    0  0  0  0  0  0  0  0  0  0  0  0
   -3.2628   -0.6017    0.0000 N    0  0  0  0  0  0  0  0  0  0  0  0
   -2.0938   -1.2755    0.0000 N    0  0  0  0  0  0  0  0  0  0  0  0
    1.6744    0.9248    0.0000 C    0  0  0  0  0  0  0  0  0  0  0  0
    1.2652    0.2131    0.0000 C    0  0  0  0  0  0  0  0  0  0  0  0
    1.2515    1.6400    0.0000 C    0  0  0  0  0  0  0  0  0  0  0  0
   -3.4347   -1.4165    0.0000 C    0  0  0  0  0  0  0  0  0  0  0  0
   -2.7092   -1.8291    0.0000 C    0  0  0  0  0  0  0  0  0  0  0  0
    3.7303    0.2269    0.0000 C    0  0  0  0  0  0  0  0  0  0  0  0
    4.1464   -0.4848    0.0000 C    0  0  0  0  0  0  0  0  0  0  0  0
   -1.2033    0.1994    0.0000 N    0  0  0  0  0  0  0  0  0  0  0  0
   -2.0319    0.1994    0.0000 N    0  0  0  0  0  0  0  0  0  0  0  0
    0.4435    0.2028    0.0000 C    0  0  0  0  0  0  0  0  0  0  0  0
    0.4367    1.6331    0.0000 C    0  0  0  0  0  0  0  0  0  0  0  0
    0.0241    0.9180    0.0000 C    0  0  0  0  0  0  0  0  0  0  0  0
   -0.7942    0.9145    0.0000 C    0  0  0  0  0  0  0  0  0  0  0  0
    1.6778   -0.5089    0.0000 Cl   0  0  0  0  0  0  0  0  0  0  0  0
    2.4926    0.9248    0.0000 O    0  0  0  0  0  0  0  0  0  0  0  0
    1.6606    2.3551    0.0000 O    0  0  0  0  0  0  0  0  0  0  0  0
    2.9121    0.2166    0.0000 C    0  0  0  0  0  0  0  0  0  0  0  0
   -4.1498   -1.8291    0.0000 C    0  0  0  0  0  0  0  0  0  0  0  0
   -2.7127   -2.6508    0.0000 C    0  0  0  0  0  0  0  0  0  0  0  0
    2.4789    2.3585    0.0000 C    0  0  0  0  0  0  0  0  0  0  0  0
    2.8880    3.0737    0.0000 C    0  0  0  0  0  0  0  0  0  0  0  0
   -4.1498   -2.6576    0.0000 C    0  0  0  0  0  0  0  0  0  0  0  0
   -3.4244   -3.0702    0.0000 C    0  0  0  0  0  0  0  0  0  0  0  0
  2  1  2  0  0  0  0
  3  1  1  0  0  0  0
  4  6  1  0  0  0  0
  5 13  1  0  0  0  0
  5  4  2  0  0  0  0
  6 14  2  0  0  0  0
  7  2  1  0  0  0  0
  8  3  1  0  0  0  0
  8  7  1  0  0  0  0
  9 20  1  0  0  0  0
 10  9  3  0  0  0  0
 11 12  1  0  0  0  0
 12  1  1  0  0  0  0
 13 15  2  0  0  0  0
 14 15  1  0  0  0  0
 15 16  1  0  0  0  0
 16 11  2  0  0  0  0
 17  5  1  0  0  0  0
 18  4  1  0  0  0  0
 19  6  1  0  0  0  0
 20 18  1  0  0  0  0
 21  7  2  0  0  0  0
 22  8  2  0  0  0  0
 23 19  1  0  0  0  0
 24 23  1  0  0  0  0
 25 21  1  0  0  0  0
 25 26  2  0  0  0  0
 26 22  1  0  0  0  0
M  END
> <CdId>
2050

> <Mol Weight>
368.817

> <Formula>
C19H17ClN4O2

> <Click_ID>
CLK027_D08 __ __ 

$$$$
