CLK047D05
 OpenBabel03181404502D

 26 28  0  0  0  0  0  0  0  0999 V2000
    2.0428    0.2919    0.0000 N    0  0  0  0  0  0  0  0  0  0  0  0
    1.2882    0.6253    0.0000 C    0  0  0  0  0  0  0  0  0  0  0  0
    2.5972    0.9047    0.0000 C    0  0  0  0  0  0  0  0  0  0  0  0
    2.1845    1.6176    0.0000 N    0  0  0  0  0  0  0  0  0  0  0  0
    3.4185    0.8171    0.0000 C    0  0  0  0  0  0  0  0  0  0  0  0
    1.3757    1.4466    0.0000 O    0  0  0  0  0  0  0  0  0  0  0  0
    0.5753    0.2126    0.0000 C    0  0  0  0  0  0  0  0  0  0  0  0
   -2.2845   -0.6128    0.0000 C    0  0  0  0  0  0  0  0  0  0  0  0
   -0.1418    0.6253    0.0000 C    0  0  0  0  0  0  0  0  0  0  0  0
   -2.2845    0.2126    0.0000 C    0  0  0  0  0  0  0  0  0  0  0  0
   -1.5716   -1.0255    0.0000 C    0  0  0  0  0  0  0  0  0  0  0  0
   -0.8547    0.2126    0.0000 C    0  0  0  0  0  0  0  0  0  0  0  0
   -4.4273   -1.0255    0.0000 C    0  0  0  0  0  0  0  0  0  0  0  0
   -5.1444   -1.4383    0.0000 C    0  0  0  0  0  0  0  0  0  0  0  0
    4.7233    1.0964    0.0000 S    0  0  0  0  0  0  0  0  0  0  0  0
    3.9688    1.4300    0.0000 C    0  0  0  0  0  0  0  0  0  0  0  0
    3.8312    0.1043    0.0000 C    0  0  0  0  0  0  0  0  0  0  0  0
   -1.5716    0.6253    0.0000 C    0  0  0  0  0  0  0  0  0  0  0  0
   -0.8547   -0.6128    0.0000 C    0  0  0  0  0  0  0  0  0  0  0  0
    4.6357    0.2751    0.0000 C    0  0  0  0  0  0  0  0  0  0  0  0
    0.5753   -0.6128    0.0000 Cl   0  0  0  0  0  0  0  0  0  0  0  0
   -2.9974    0.6253    0.0000 Cl   0  0  0  0  0  0  0  0  0  0  0  0
   -2.9974   -1.0255    0.0000 O    0  0  0  0  0  0  0  0  0  0  0  0
   -1.5716   -1.8510    0.0000 O    0  0  0  0  0  0  0  0  0  0  0  0
   -3.7145   -0.6128    0.0000 C    0  0  0  0  0  0  0  0  0  0  0  0
   -0.8547   -2.2637    0.0000 C    0  0  0  0  0  0  0  0  0  0  0  0
  2  1  2  0  0  0  0
  3  1  1  0  0  0  0
  4  3  2  0  0  0  0
  5  3  1  0  0  0  0
  6  2  1  0  0  0  0
  6  4  1  0  0  0  0
  7  2  1  0  0  0  0
  8 10  1  0  0  0  0
  8 11  2  0  0  0  0
  9  7  2  0  0  0  0
 10 18  2  0  0  0  0
 11 19  1  0  0  0  0
 12  9  1  0  0  0  0
 13 25  1  0  0  0  0
 14 13  3  0  0  0  0
 15 16  1  0  0  0  0
 15 20  1  0  0  0  0
 16  5  2  0  0  0  0
 17  5  1  0  0  0  0
 18 12  1  0  0  0  0
 19 12  2  0  0  0  0
 20 17  2  0  0  0  0
 21  7  1  0  0  0  0
 22 10  1  0  0  0  0
 23  8  1  0  0  0  0
 24 11  1  0  0  0  0
 25 23  1  0  0  0  0
 26 24  1  0  0  0  0
M  END
> <CdId>
3596

> <Mol Weight>
407.27

> <Formula>
C18H12Cl2N2O3S

> <Click_ID>
CLK047D05 __ __ 

$$$$
