CLK007_G07
 OpenBabel03181404502D

 24 26  0  0  0  0  0  0  0  0999 V2000
    0.8915   -0.0346    0.0000 C    0  0  3  0  0  0  0  0  0  0  0  0
    0.1797   -0.4492    0.0000 C    0  0  0  0  0  0  0  0  0  0  0  0
    0.8915    0.7913    0.0000 C    0  0  0  0  0  0  0  0  0  0  0  0
    1.6066   -0.4388    0.0000 C    0  0  0  0  0  0  0  0  0  0  0  0
    0.1797   -1.2680    0.0000 C    0  0  0  0  0  0  0  0  0  0  0  0
   -0.5356   -0.0277    0.0000 C    0  0  0  0  0  0  0  0  0  0  0  0
    1.6066    1.1990    0.0000 C    0  0  0  0  0  0  0  0  0  0  0  0
    0.1797    1.1990    0.0000 C    0  0  0  0  0  0  0  0  0  0  0  0
    1.6066   -1.2680    0.0000 C    0  0  0  0  0  0  0  0  0  0  0  0
   -0.5356   -1.6792    0.0000 N    0  0  0  0  0  0  0  0  0  0  0  0
    0.8915   -1.6792    0.0000 N    0  0  0  0  0  0  0  0  0  0  0  0
   -1.2404   -0.4492    0.0000 N    0  0  0  0  0  0  0  0  0  0  0  0
   -0.5356    0.7982    0.0000 O    0  0  0  0  0  0  0  0  0  0  0  0
    1.6066    2.0281    0.0000 C    0  0  0  0  0  0  0  0  0  0  0  0
    2.3218    0.7878    0.0000 F    0  0  0  0  0  0  0  0  0  0  0  0
    0.1658    2.0178    0.0000 C    0  0  0  0  0  0  0  0  0  0  0  0
    2.3218   -1.6792    0.0000 O    0  0  0  0  0  0  0  0  0  0  0  0
   -1.2404   -1.2749    0.0000 C    0  0  0  0  0  0  0  0  0  0  0  0
    0.8880    2.4393    0.0000 C    0  0  0  0  0  0  0  0  0  0  0  0
   -0.5459    2.4289    0.0000 Br   0  0  0  0  0  0  0  0  0  0  0  0
   -1.9625   -1.6895    0.0000 S    0  0  0  0  0  0  0  0  0  0  0  0
   -2.6777   -1.2749    0.0000 C    0  0  0  0  0  0  0  0  0  0  0  0
   -2.6777   -0.4492    0.0000 C    0  0  0  0  0  0  0  0  0  0  0  0
   -3.3895   -0.0346    0.0000 C    0  0  0  0  0  0  0  0  0  0  0  0
  1  2  1  0  0  0  0
  1  3  1  0  0  0  0
  1  4  1  0  0  0  0
  2  5  2  0  0  0  0
  2  6  1  0  0  0  0
  3  7  2  0  0  0  0
  3  8  1  0  0  0  0
  4  9  1  0  0  0  0
  5 10  1  0  0  0  0
  5 11  1  0  0  0  0
  6 12  1  0  0  0  0
  6 13  2  0  0  0  0
  7 14  1  0  0  0  0
  7 15  1  0  0  0  0
  8 16  2  0  0  0  0
  9 17  2  0  0  0  0
  9 11  1  0  0  0  0
 10 18  2  0  0  0  0
 12 18  1  0  0  0  0
 14 19  2  0  0  0  0
 16 20  1  0  0  0  0
 16 19  1  0  0  0  0
 18 21  1  0  0  0  0
 21 22  1  0  0  0  0
 22 23  1  0  0  0  0
 23 24  3  0  0  0  0
M  END
> <CdId>
546

> <Mol Weight>
408.245

> <Formula>
C16H11BrFN3O2S

> <Click_ID>
CLK007_G07 __ __ 

$$$$
