CLK048H03
 OpenBabel03181404502D

 16 17  0  0  0  0  0  0  0  0999 V2000
   -0.1833    0.3709    0.0000 C   0  0  0  0  0  0  0  0  0  0  0  0
   -0.1833    1.7087    0.0000 N   0  0  0  0  0  0  0  0  0  0  0  0
    0.3043    1.0378    0.0000 C   0  0  0  0  0  0  0  0  0  0  0  0
   -0.9669    0.6252    0.0000 C   0  0  0  0  0  0  0  0  0  0  0  0
    2.1964   -2.3256    0.0000 C   0  0  0  0  0  0  0  0  0  0  0  0
    2.4506   -3.1091    0.0000 C   0  0  0  0  0  0  0  0  0  0  0  0
    0.0750   -0.4126    0.0000 C   0  0  0  0  0  0  0  0  0  0  0  0
    0.8794   -0.5834    0.0000 C   0  0  0  0  0  0  0  0  0  0  0  0
   -0.9669    1.4504    0.0000 C   0  0  0  0  0  0  0  0  0  0  0  0
    1.4337    0.0292    0.0000 O   0  0  0  0  0  0  0  0  0  0  0  0
    1.1336   -1.3711    0.0000 N   0  0  0  0  0  0  0  0  0  0  0  0
    1.9422   -1.5421    0.0000 C   0  0  0  0  0  0  0  0  0  0  0  0
   -1.6796    0.2126    0.0000 C   0  0  0  0  0  0  0  0  0  0  0  0
   -1.6796    1.8630    0.0000 C   0  0  0  0  0  0  0  0  0  0  0  0
   -2.3964    0.6252    0.0000 C   0  0  0  0  0  0  0  0  0  0  0  0
   -2.3964    1.4504    0.0000 C   0  0  0  0  0  0  0  0  0  0  0  0
  2  3  1  0  0  0  0
  3  1  2  0  0  0  0
  4  1  1  0  0  0  0
  5 12  1  0  0  0  0
  6  5  3  0  0  0  0
  7  1  1  0  0  0  0
  8  7  1  0  0  0  0
  9  4  2  0  0  0  0
  9  2  1  0  0  0  0
 10  8  2  0  0  0  0
 11  8  1  0  0  0  0
 12 11  1  0  0  0  0
 13  4  1  0  0  0  0
 14  9  1  0  0  0  0
 15 13  2  0  0  0  0
 15 16  1  0  0  0  0
 16 14  2  0  0  0  0
M  END
> <CdId>
3664

> <Mol Weight>
212.2472

> <Formula>
C13H12N2O

> <Click_ID>
CLK048H03 __ __ 

$$$$
