CLK011_H03
 OpenBabel03181404502D

 35 37  0  0  0  0  0  0  0  0999 V2000
    3.9513   -2.8680    0.0000 C   0  0  0  0  0  0  0  0  0  0  0  0
    3.1295   -2.8805    0.0000 C   0  0  0  0  0  0  0  0  0  0  0  0
    3.5653   -4.1381    0.0000 C   0  0  0  0  0  0  0  0  0  0  0  0
    4.2211   -3.6400    0.0000 S   0  0  0  0  0  0  0  0  0  0  0  0
    2.8929   -3.6649    0.0000 C   0  0  0  0  0  0  0  0  0  0  0  0
    2.6315   -2.2206    0.0000 C   0  0  0  0  0  0  0  0  0  0  0  0
    3.5778   -4.9599    0.0000 C   0  0  0  0  0  0  0  0  0  0  0  0
    4.4327   -2.1915    0.0000 N   0  0  0  0  0  0  0  0  0  0  0  0
    7.1762   -7.8113    0.0000 C   0  0  0  0  0  0  0  0  0  0  0  0
    7.8984   -8.2180    0.0000 C   0  0  0  0  0  0  0  0  0  0  0  0
    5.7319   -5.3459    0.0000 C   0  0  0  0  0  0  0  0  0  0  0  0
    4.3000   -5.3583    0.0000 C   0  0  0  0  0  0  0  0  0  0  0  0
    2.1085   -3.9347    0.0000 O   0  0  0  0  0  0  0  0  0  0  0  0
    5.0097   -4.9432    0.0000 C   0  0  0  0  0  0  0  0  0  0  0  0
    5.7401   -6.1677    0.0000 C   0  0  0  0  0  0  0  0  0  0  0  0
    2.9635   -1.4610    0.0000 O   0  0  0  0  0  0  0  0  0  0  0  0
    5.2545   -2.2579    0.0000 C   0  0  0  0  0  0  0  0  0  0  0  0
    5.0304   -6.5910    0.0000 C   0  0  0  0  0  0  0  0  0  0  0  0
    1.8179   -2.3202    0.0000 O   0  0  0  0  0  0  0  0  0  0  0  0
    4.3124   -6.1801    0.0000 C   0  0  0  0  0  0  0  0  0  0  0  0
    6.8981   -2.4156    0.0000 C   0  0  0  0  0  0  0  0  0  0  0  0
    6.4292   -4.9308    0.0000 O   0  0  0  0  0  0  0  0  0  0  0  0
    6.4541   -6.5786    0.0000 O   0  0  0  0  0  0  0  0  0  0  0  0
    5.7194   -1.5855    0.0000 C   0  0  0  0  0  0  0  0  0  0  0  0
    5.5949   -3.0133    0.0000 C   0  0  0  0  0  0  0  0  0  0  0  0
    6.5495   -1.6602    0.0000 C   0  0  0  0  0  0  0  0  0  0  0  0
    6.4167   -3.0880    0.0000 C   0  0  0  0  0  0  0  0  0  0  0  0
    6.4623   -7.4004    0.0000 C   0  0  0  0  0  0  0  0  0  0  0  0
    7.7117   -2.4820    0.0000 O   0  0  0  0  0  0  0  0  0  0  0  0
    1.3240   -1.6560    0.0000 C   0  0  0  0  0  0  0  0  0  0  0  0
    6.4250   -4.1132    0.0000 C   0  0  0  0  0  0  0  0  0  0  0  0
    8.1931   -1.8097    0.0000 C   0  0  0  0  0  0  0  0  0  0  0  0
    9.0149   -1.8844    0.0000 C   0  0  0  0  0  0  0  0  0  0  0  0
    0.5022   -1.7557    0.0000 C   0  0  0  0  0  0  0  0  0  0  0  0
    7.1264   -3.6898    0.0000 C   0  0  0  0  0  0  0  0  0  0  0  0
  2  1  2  0  0  0  0
  3  4  1  0  0  0  0
  4  1  1  0  0  0  0
  5  2  1  0  0  0  0
  5  3  1  0  0  0  0
  6  2  1  0  0  0  0
  7  3  2  0  0  0  0
  8  1  1  0  0  0  0
  9 28  1  0  0  0  0
 10  9  3  0  0  0  0
 11 14  1  0  0  0  0
 11 15  2  0  0  0  0
 12  7  1  0  0  0  0
 13  5  2  0  0  0  0
 14 12  2  0  0  0  0
 15 18  1  0  0  0  0
 16  6  2  0  0  0  0
 17  8  1  0  0  0  0
 18 20  2  0  0  0  0
 19  6  1  0  0  0  0
 20 12  1  0  0  0  0
 21 27  2  0  0  0  0
 22 11  1  0  0  0  0
 23 15  1  0  0  0  0
 24 17  1  0  0  0  0
 25 17  2  0  0  0  0
 26 24  2  0  0  0  0
 26 21  1  0  0  0  0
 27 25  1  0  0  0  0
 28 23  1  0  0  0  0
 29 21  1  0  0  0  0
 30 19  1  0  0  0  0
 31 22  1  0  0  0  0
 32 29  1  0  0  0  0
 33 32  1  0  0  0  0
 34 30  1  0  0  0  0
 35 31  1  0  0  0  0
M  END
> <CdId>
828

> <Mol Weight>
493.571

> <Formula>
C27H27NO6S

> <Click_ID>
CLK011_H03 __ __ 

$$$$
