CLK026_D04
 OpenBabel03181404502D

 38 41  0  0  0  0  0  0  0  0999 V2000
    0.0552    0.6552    0.0000 N   0  0  0  0  0  0  0  0  0  0  0  0
    0.0552   -0.1690    0.0000 C   0  0  0  0  0  0  0  0  0  0  0  0
   -1.3792    0.6552    0.0000 C   0  0  0  0  0  0  0  0  0  0  0  0
    0.8379    0.9068    0.0000 C   0  0  0  0  0  0  0  0  0  0  0  0
   -0.6552   -0.5827    0.0000 N   0  0  0  0  0  0  0  0  0  0  0  0
   -0.6552    1.0689    0.0000 C   0  0  3  0  0  0  0  0  0  0  0  0
    1.3240    0.2344    0.0000 C   0  0  0  0  0  0  0  0  0  0  0  0
   -1.3792   -0.1690    0.0000 C   0  0  0  0  0  0  0  0  0  0  0  0
    0.8379   -0.4276    0.0000 S   0  0  0  0  0  0  0  0  0  0  0  0
   -2.0964    1.0689    0.0000 C   0  0  0  0  0  0  0  0  0  0  0  0
    2.1516    0.2310    0.0000 C   0  0  0  0  0  0  0  0  0  0  0  0
   -2.8101    0.6552    0.0000 O   0  0  0  0  0  0  0  0  0  0  0  0
    3.8170   -4.0687    0.0000 C   0  0  0  0  0  0  0  0  0  0  0  0
   -0.6552    1.8964    0.0000 C   0  0  0  0  0  0  0  0  0  0  0  0
    4.2411   -4.7858    0.0000 C   0  0  0  0  0  0  0  0  0  0  0  0
    2.5653   -1.9102    0.0000 C   0  0  0  0  0  0  0  0  0  0  0  0
    1.0965    1.6964    0.0000 O   0  0  0  0  0  0  0  0  0  0  0  0
   -2.1033    1.8964    0.0000 O   0  0  0  0  0  0  0  0  0  0  0  0
    2.5653   -0.4827    0.0000 C   0  0  0  0  0  0  0  0  0  0  0  0
    2.1516   -1.1964    0.0000 C   0  0  0  0  0  0  0  0  0  0  0  0
    3.3894   -1.9102    0.0000 C   0  0  0  0  0  0  0  0  0  0  0  0
   -1.3792    2.3102    0.0000 C   0  0  0  0  0  0  0  0  0  0  0  0
    0.0552    2.3102    0.0000 C   0  0  0  0  0  0  0  0  0  0  0  0
    3.8031   -1.1964    0.0000 C   0  0  0  0  0  0  0  0  0  0  0  0
    3.3894   -0.4827    0.0000 C   0  0  0  0  0  0  0  0  0  0  0  0
   -2.0964   -0.5931    0.0000 C   0  0  0  0  0  0  0  0  0  0  0  0
   -0.6552    3.5480    0.0000 C   0  0  0  0  0  0  0  0  0  0  0  0
    2.1377   -2.6343    0.0000 O   0  0  0  0  0  0  0  0  0  0  0  0
    0.0552    3.1377    0.0000 C   0  0  0  0  0  0  0  0  0  0  0  0
   -1.3792    3.1377    0.0000 C   0  0  0  0  0  0  0  0  0  0  0  0
    3.8170   -2.6343    0.0000 O   0  0  0  0  0  0  0  0  0  0  0  0
    3.4032   -3.3550    0.0000 C   0  0  0  0  0  0  0  0  0  0  0  0
   -0.6552    4.3755    0.0000 O   0  0  0  0  0  0  0  0  0  0  0  0
   -3.5308    1.0689    0.0000 C   0  0  0  0  0  0  0  0  0  0  0  0
    2.5515   -3.3480    0.0000 C   0  0  0  0  0  0  0  0  0  0  0  0
    0.0552    4.7858    0.0000 C   0  0  0  0  0  0  0  0  0  0  0  0
   -3.5308    1.8964    0.0000 C   0  0  0  0  0  0  0  0  0  0  0  0
   -4.2445    0.6552    0.0000 C   0  0  0  0  0  0  0  0  0  0  0  0
  2  1  1  0  0  0  0
  3  6  1  0  0  0  0
  4  1  1  0  0  0  0
  5  2  2  0  0  0  0
  5  8  1  0  0  0  0
  6  1  1  0  0  0  0
  7  4  1  0  0  0  0
  7  9  1  0  0  0  0
  8  3  2  0  0  0  0
  9  2  1  0  0  0  0
 10  3  1  0  0  0  0
 11  7  2  0  0  0  0
 12 10  1  0  0  0  0
 13 32  1  0  0  0  0
 14  6  1  0  0  0  0
 15 13  3  0  0  0  0
 16 20  2  0  0  0  0
 17  4  2  0  0  0  0
 18 10  2  0  0  0  0
 19 11  1  0  0  0  0
 20 19  1  0  0  0  0
 21 24  2  0  0  0  0
 21 16  1  0  0  0  0
 22 14  1  0  0  0  0
 23 14  2  0  0  0  0
 24 25  1  0  0  0  0
 25 19  2  0  0  0  0
 26  8  1  0  0  0  0
 27 29  2  0  0  0  0
 27 30  1  0  0  0  0
 28 16  1  0  0  0  0
 29 23  1  0  0  0  0
 30 22  2  0  0  0  0
 31 21  1  0  0  0  0
 32 31  1  0  0  0  0
 33 27  1  0  0  0  0
 34 12  1  0  0  0  0
 35 28  1  0  0  0  0
 36 33  1  0  0  0  0
 37 34  1  0  0  0  0
 38 34  1  0  0  0  0
M  END
> <CdId>
1969

> <Mol Weight>
532.607

> <Formula>
C29H28N2O6S

> <Click_ID>
CLK026_D04 __ __ 

$$$$
