CLK014_B09
 OpenBabel03181404502D

 28 30  0  0  0  0  0  0  0  0999 V2000
    1.5701   -0.8185    0.0000 N   0  0  0  0  0  0  0  0  0  0  0  0
    1.8290   -1.6077    0.0000 C   0  0  0  0  0  0  0  0  0  0  0  0
    2.9106   -0.8185    0.0000 C   0  0  0  0  0  0  0  0  0  0  0  0
    2.2424   -0.3299    0.0000 C   0  0  0  0  0  0  0  0  0  0  0  0
    4.5349    1.3905    0.0000 N   0  0  0  0  0  0  0  0  0  0  0  0
    3.8626    0.2463    0.0000 C   0  0  0  0  0  0  0  0  0  0  0  0
    2.6558   -1.6077    0.0000 S   0  0  0  0  0  0  0  0  0  0  0  0
    3.7248    1.5617    0.0000 C   0  0  0  0  0  0  0  0  0  0  0  0
    4.6226    0.5720    0.0000 C   0  0  0  0  0  0  0  0  0  0  0  0
    3.6998   -0.5637    0.0000 C   0  0  0  0  0  0  0  0  0  0  0  0
    3.3114    0.8519    0.0000 C   0  0  0  0  0  0  0  0  0  0  0  0
    6.9903    3.5911    0.0000 C   0  0  0  0  0  0  0  0  0  0  0  0
    5.1487    1.9501    0.0000 C   0  0  0  0  0  0  0  0  0  0  0  0
    0.6138    0.2463    0.0000 C   0  0  0  0  0  0  0  0  0  0  0  0
    0.3926    1.0481    0.0000 C   0  0  0  0  0  0  0  0  0  0  0  0
    1.3404   -2.2717    0.0000 O   0  0  0  0  0  0  0  0  0  0  0  0
    2.2341    0.4969    0.0000 O   0  0  0  0  0  0  0  0  0  0  0  0
    6.3764    3.0525    0.0000 C   0  0  0  0  0  0  0  0  0  0  0  0
    0.7892   -0.5637    0.0000 C   0  0  0  0  0  0  0  0  0  0  0  0
    6.8191    4.3888    0.0000 O   0  0  0  0  0  0  0  0  0  0  0  0
    5.9296    1.6870    0.0000 C   0  0  0  0  0  0  0  0  0  0  0  0
    4.9776    2.7518    0.0000 C   0  0  0  0  0  0  0  0  0  0  0  0
    6.5435    2.2382    0.0000 C   0  0  0  0  0  0  0  0  0  0  0  0
    5.5914    3.3030    0.0000 C   0  0  0  0  0  0  0  0  0  0  0  0
    3.3991    2.3176    0.0000 C   0  0  0  0  0  0  0  0  0  0  0  0
    7.7712    3.3406    0.0000 O   0  0  0  0  0  0  0  0  0  0  0  0
    5.3367    0.1586    0.0000 C   0  0  0  0  0  0  0  0  0  0  0  0
    7.9423    2.5388    0.0000 C   0  0  0  0  0  0  0  0  0  0  0  0
  2  1  1  0  0  0  0
  3  4  1  0  0  0  0
  3  7  1  0  0  0  0
  4  1  1  0  0  0  0
  5  9  1  0  0  0  0
  5  8  1  0  0  0  0
  6 10  1  0  0  0  0
  7  2  1  0  0  0  0
  8 11  2  0  0  0  0
  9  6  2  0  0  0  0
 10  3  2  0  0  0  0
 11  6  1  0  0  0  0
 12 18  1  0  0  0  0
 13  5  1  0  0  0  0
 14 19  1  0  0  0  0
 15 14  3  0  0  0  0
 16  2  2  0  0  0  0
 17  4  2  0  0  0  0
 18 24  1  0  0  0  0
 19  1  1  0  0  0  0
 20 12  2  0  0  0  0
 21 13  2  0  0  0  0
 22 13  1  0  0  0  0
 23 21  1  0  0  0  0
 23 18  2  0  0  0  0
 24 22  2  0  0  0  0
 25  8  1  0  0  0  0
 26 12  1  0  0  0  0
 27  9  1  0  0  0  0
 28 26  1  0  0  0  0
M  END
> <CdId>
1014

> <Mol Weight>
394.444

> <Formula>
C21H18N2O4S

> <Click_ID>
CLK014_B09 __ __ 

$$$$
