CLK039E08
 OpenBabel03181404502D

 20 21  0  0  0  0  0  0  0  0999 V2000
   -1.2542    0.5583    0.0000 S   0  0  0  0  0  0  0  0  0  0  0  0
    1.6042   -1.0917    0.0000 N   0  0  0  0  0  0  0  0  0  0  0  0
    0.8917   -0.6792    0.0000 C   0  0  0  0  0  0  0  0  0  0  0  0
   -0.5375    0.1458    0.0000 C   0  0  0  0  0  0  0  0  0  0  0  0
    1.6042   -1.9167    0.0000 C   0  0  0  0  0  0  0  0  0  0  0  0
    0.8917    0.1458    0.0000 C   0  0  0  0  0  0  0  0  0  0  0  0
    0.1750    0.5583    0.0000 C   0  0  0  0  0  0  0  0  0  0  0  0
   -2.6833    2.2083    0.0000 C   0  0  0  0  0  0  0  0  0  0  0  0
    0.1750   -1.0917    0.0000 C   0  0  0  0  0  0  0  0  0  0  0  0
   -3.3958    2.6208    0.0000 C   0  0  0  0  0  0  0  0  0  0  0  0
   -1.6667   -0.1542    0.0000 O   0  0  0  0  0  0  0  0  0  0  0  0
   -0.8417    1.2750    0.0000 O   0  0  0  0  0  0  0  0  0  0  0  0
   -1.9667    0.9708    0.0000 N   0  0  0  0  0  0  0  0  0  0  0  0
   -0.5375   -0.6792    0.0000 C   0  0  0  0  0  0  0  0  0  0  0  0
    2.3208   -2.3292    0.0000 O   0  0  0  0  0  0  0  0  0  0  0  0
    2.3208   -0.6792    0.0000 C   0  0  0  0  0  0  0  0  0  0  0  0
   -1.9667    1.7958    0.0000 C   0  0  0  0  0  0  0  0  0  0  0  0
    1.6042    0.5583    0.0000 C   0  0  0  0  0  0  0  0  0  0  0  0
    0.8917   -2.3292    0.0000 C   0  0  0  0  0  0  0  0  0  0  0  0
    2.3208    0.1458    0.0000 C   0  0  0  0  0  0  0  0  0  0  0  0
  2  3  1  0  0  0  0
  3  9  1  0  0  0  0
  3  6  2  0  0  0  0
  4  1  1  0  0  0  0
  5  2  1  0  0  0  0
  6  7  1  0  0  0  0
  7  4  2  0  0  0  0
  8 17  1  0  0  0  0
  9 14  2  0  0  0  0
 10  8  3  0  0  0  0
 11  1  2  0  0  0  0
 12  1  2  0  0  0  0
 13  1  1  0  0  0  0
 14  4  1  0  0  0  0
 15  5  2  0  0  0  0
 16  2  1  0  0  0  0
 17 13  1  0  0  0  0
 18  6  1  0  0  0  0
 19  5  1  0  0  0  0
 20 18  1  0  0  0  0
 20 16  1  0  0  0  0
M  END
> <CdId>
2981

> <Mol Weight>
292.353

> <Formula>
C14H16N2O3S

> <Click_ID>
CLK039E08 __ __ 

$$$$
