CLK005_F10
 OpenBabel03181404502D

 15 16  0  0  0  0  0  0  0  0999 V2000
   -1.1470   -0.6332    0.0000 C   0  0  0  0  0  0  0  0  0  0  0  0
   -1.4181    0.1479    0.0000 C   0  0  0  0  0  0  0  0  0  0  0  0
   -0.3223   -0.6180    0.0000 C   0  0  0  0  0  0  0  0  0  0  0  0
   -1.8048   -1.1318    0.0000 S   0  0  0  0  0  0  0  0  0  0  0  0
   -0.7583    0.6446    0.0000 N   0  0  0  0  0  0  0  0  0  0  0  0
   -2.2427    0.1308    0.0000 C   0  0  0  0  0  0  0  0  0  0  0  0
   -0.0834    0.1725    0.0000 C   0  0  0  0  0  0  0  0  0  0  0  0
   -2.4816   -0.6559    0.0000 C   0  0  0  0  0  0  0  0  0  0  0  0
   -0.7735    1.4674    0.0000 C   0  0  0  0  0  0  0  0  0  0  0  0
    0.6957    0.4398    0.0000 C   0  0  0  0  0  0  0  0  0  0  0  0
    1.3195   -0.1005    0.0000 N   0  0  0  0  0  0  0  0  0  0  0  0
    0.8512    1.2493    0.0000 O   0  0  0  0  0  0  0  0  0  0  0  0
    2.0986    0.1706    0.0000 C   0  0  0  0  0  0  0  0  0  0  0  0
    2.7224   -0.3697    0.0000 C   0  0  0  0  0  0  0  0  0  0  0  0
    3.3442   -0.9119    0.0000 C   0  0  0  0  0  0  0  0  0  0  0  0
  1  2  2  0  0  0  0
  1  3  1  0  0  0  0
  1  4  1  0  0  0  0
  2  5  1  0  0  0  0
  2  6  1  0  0  0  0
  3  7  2  0  0  0  0
  4  8  1  0  0  0  0
  5  9  1  0  0  0  0
  5  7  1  0  0  0  0
  6  8  2  0  0  0  0
  7 10  1  0  0  0  0
 10 11  1  0  0  0  0
 10 12  2  0  0  0  0
 11 13  1  0  0  0  0
 13 14  1  0  0  0  0
 14 15  3  0  0  0  0
M  END
> <CdId>
379

> <Mol Weight>
218.275

> <Formula>
C11H10N2OS

> <Click_ID>
CLK005_F10 __ __ 

$$$$
