CLK017_F06
 OpenBabel03181404502D

 20 21  0  0  0  0  0  0  0  0999 V2000
    5.8026   -2.3766    0.0000 N   0  0  0  0  0  0  0  0  0  0  0  0
    5.4667   -3.1232    0.0000 C   0  0  0  0  0  0  0  0  0  0  0  0
    5.2012   -1.8209    0.0000 C   0  0  0  0  0  0  0  0  0  0  0  0
    4.4837   -2.2273    0.0000 C   0  0  0  0  0  0  0  0  0  0  0  0
    4.6537   -3.0278    0.0000 N   0  0  0  0  0  0  0  0  0  0  0  0
    3.7371   -1.8913    0.0000 C   0  0  0  0  0  0  0  0  0  0  0  0
    5.8773   -3.8366    0.0000 S   0  0  0  0  0  0  0  0  0  0  0  0
    0.4604   -5.1265    0.0000 C   0  0  0  0  0  0  0  0  0  0  0  0
   -0.2074   -5.6035    0.0000 C   0  0  0  0  0  0  0  0  0  0  0  0
    5.2883   -1.0079    0.0000 O   0  0  0  0  0  0  0  0  0  0  0  0
    3.0610   -2.3766    0.0000 C   0  0  0  0  0  0  0  0  0  0  0  0
    6.6114   -2.2066    0.0000 C   0  0  0  0  0  0  0  0  0  0  0  0
    1.7089   -3.3389    0.0000 C   0  0  0  0  0  0  0  0  0  0  0  0
    3.1398   -3.1896    0.0000 C   0  0  0  0  0  0  0  0  0  0  0  0
    2.3061   -2.0282    0.0000 C   0  0  0  0  0  0  0  0  0  0  0  0
    2.4679   -3.6707    0.0000 C   0  0  0  0  0  0  0  0  0  0  0  0
    1.6342   -2.5052    0.0000 C   0  0  0  0  0  0  0  0  0  0  0  0
    1.1241   -4.6330    0.0000 C   0  0  0  0  0  0  0  0  0  0  0  0
    1.0452   -3.8200    0.0000 O   0  0  0  0  0  0  0  0  0  0  0  0
    6.8685   -1.4227    0.0000 C   0  0  0  0  0  0  0  0  0  0  0  0
  2  1  1  0  0  0  0
  3  1  1  0  0  0  0
  4  3  1  0  0  0  0
  5  2  1  0  0  0  0
  5  4  1  0  0  0  0
  6  4  2  0  0  0  0
  7  2  2  0  0  0  0
  8 18  1  0  0  0  0
  9  8  3  0  0  0  0
 10  3  2  0  0  0  0
 11  6  1  0  0  0  0
 12  1  1  0  0  0  0
 13 17  2  0  0  0  0
 13 16  1  0  0  0  0
 14 11  1  0  0  0  0
 15 11  2  0  0  0  0
 16 14  2  0  0  0  0
 17 15  1  0  0  0  0
 18 19  1  0  0  0  0
 19 13  1  0  0  0  0
 20 12  1  0  0  0  0
M  END
> <CdId>
1291

> <Mol Weight>
286.349

> <Formula>
C15H14N2O2S

> <Click_ID>
CLK017_F06 __ __ 

$$$$
