CLK015_C04
 OpenBabel03181404502D

 29 31  0  0  0  0  0  0  0  0999 V2000
    5.5438   -2.8425    0.0000 N    0  0  0  0  0  0  0  0  0  0  0  0
    5.5438   -3.6641    0.0000 C    0  0  0  0  0  0  0  0  0  0  0  0
    4.7596   -2.5810    0.0000 C    0  0  0  0  0  0  0  0  0  0  0  0
    4.2741   -3.2533    0.0000 C    0  0  0  0  0  0  0  0  0  0  0  0
    4.7596   -3.9255    0.0000 S    0  0  0  0  0  0  0  0  0  0  0  0
    3.4483   -3.2533    0.0000 C    0  0  0  0  0  0  0  0  0  0  0  0
    1.8092   -7.5605    0.0000 C    0  0  0  0  0  0  0  0  0  0  0  0
    1.3984   -8.2783    0.0000 C    0  0  0  0  0  0  0  0  0  0  0  0
    3.0416   -5.4027    0.0000 C    0  0  0  0  0  0  0  0  0  0  0  0
    6.2160   -4.1496    0.0000 O    0  0  0  0  0  0  0  0  0  0  0  0
    4.4981   -1.7968    0.0000 O    0  0  0  0  0  0  0  0  0  0  0  0
    3.0416   -3.9711    0.0000 C    0  0  0  0  0  0  0  0  0  0  0  0
    3.4524   -4.6849    0.0000 C    0  0  0  0  0  0  0  0  0  0  0  0
    2.2076   -5.4151    0.0000 C    0  0  0  0  0  0  0  0  0  0  0  0
    6.2160   -2.3570    0.0000 C    0  0  0  0  0  0  0  0  0  0  0  0
    1.7968   -4.6849    0.0000 C    0  0  0  0  0  0  0  0  0  0  0  0
    3.4483   -6.1165    0.0000 Cl   0  0  0  0  0  0  0  0  0  0  0  0
    2.2076   -3.9711    0.0000 C    0  0  0  0  0  0  0  0  0  0  0  0
    8.3821   -2.5437    0.0000 C    0  0  0  0  0  0  0  0  0  0  0  0
    9.8759   -3.2242    0.0000 C    0  0  0  0  0  0  0  0  0  0  0  0
    1.7968   -6.1289    0.0000 O    0  0  0  0  0  0  0  0  0  0  0  0
    9.0419   -2.0665    0.0000 C    0  0  0  0  0  0  0  0  0  0  0  0
    8.4568   -3.3653    0.0000 C    0  0  0  0  0  0  0  0  0  0  0  0
    9.7888   -2.4068    0.0000 C    0  0  0  0  0  0  0  0  0  0  0  0
    9.2037   -3.7014    0.0000 C    0  0  0  0  0  0  0  0  0  0  0  0
    7.6310   -2.2076    0.0000 O    0  0  0  0  0  0  0  0  0  0  0  0
    2.2200   -6.8385    0.0000 C    0  0  0  0  0  0  0  0  0  0  0  0
    6.9630   -2.6931    0.0000 C    0  0  0  0  0  0  0  0  0  0  0  0
   10.6228   -3.5645    0.0000 C    0  0  0  0  0  0  0  0  0  0  0  0
  2  1  1  0  0  0  0
  3  1  1  0  0  0  0
  4  3  1  0  0  0  0
  5  2  1  0  0  0  0
  5  4  1  0  0  0  0
  6  4  2  0  0  0  0
  7 27  1  0  0  0  0
  8  7  3  0  0  0  0
  9 13  2  0  0  0  0
 10  2  2  0  0  0  0
 11  3  2  0  0  0  0
 12  6  1  0  0  0  0
 13 12  1  0  0  0  0
 14 16  2  0  0  0  0
 14  9  1  0  0  0  0
 15  1  1  0  0  0  0
 16 18  1  0  0  0  0
 17  9  1  0  0  0  0
 18 12  2  0  0  0  0
 19 26  1  0  0  0  0
 20 25  2  0  0  0  0
 20 24  1  0  0  0  0
 21 14  1  0  0  0  0
 22 19  1  0  0  0  0
 23 19  2  0  0  0  0
 24 22  2  0  0  0  0
 25 23  1  0  0  0  0
 26 28  1  0  0  0  0
 27 21  1  0  0  0  0
 28 15  1  0  0  0  0
 29 20  1  0  0  0  0
M  END
> <CdId>
1099

> <Mol Weight>
427.901

> <Formula>
C22H18ClNO4S

> <Click_ID>
CLK015_C04 __ __ 

$$$$
