CLK047C08
 OpenBabel03181404502D

 17 18  0  0  0  0  0  0  0  0999 V2000
    0.5500    0.5708    0.0000 N   0  0  0  0  0  0  0  0  0  0  0  0
   -0.2333    0.8250    0.0000 C   0  0  0  0  0  0  0  0  0  0  0  0
    1.0375    1.2375    0.0000 C   0  0  3  0  0  0  0  0  0  0  0  0
   -0.2333    1.6500    0.0000 C   0  0  0  0  0  0  0  0  0  0  0  0
    0.8042   -0.2125    0.0000 C   0  0  0  0  0  0  0  0  0  0  0  0
    0.5500    1.9042    0.0000 C   0  0  0  0  0  0  0  0  0  0  0  0
    0.2125   -3.0083    0.0000 C   0  0  0  0  0  0  0  0  0  0  0  0
    0.4667   -3.7958    0.0000 C   0  0  0  0  0  0  0  0  0  0  0  0
    0.2542   -0.8292    0.0000 C   0  0  0  0  0  0  0  0  0  0  0  0
   -0.5542   -0.6542    0.0000 O   0  0  0  0  0  0  0  0  0  0  0  0
    0.5083   -1.6125    0.0000 N   0  0  0  0  0  0  0  0  0  0  0  0
   -0.0417   -2.2250    0.0000 C   0  0  0  0  0  0  0  0  0  0  0  0
   -0.9458    0.4125    0.0000 C   0  0  0  0  0  0  0  0  0  0  0  0
   -0.9458    2.0625    0.0000 C   0  0  0  0  0  0  0  0  0  0  0  0
    1.8625    1.2375    0.0000 C   0  0  0  0  0  0  0  0  0  0  0  0
   -1.6625    0.8250    0.0000 C   0  0  0  0  0  0  0  0  0  0  0  0
   -1.6625    1.6500    0.0000 C   0  0  0  0  0  0  0  0  0  0  0  0
  2  1  1  0  0  0  0
  3  1  1  0  0  0  0
  4  2  2  0  0  0  0
  4  6  1  0  0  0  0
  5  1  1  0  0  0  0
  6  3  1  0  0  0  0
  7 12  1  0  0  0  0
  8  7  3  0  0  0  0
  9  5  1  0  0  0  0
 10  9  2  0  0  0  0
 11  9  1  0  0  0  0
 12 11  1  0  0  0  0
 13  2  1  0  0  0  0
 14  4  1  0  0  0  0
 15  3  1  0  0  0  0
 16 13  2  0  0  0  0
 16 17  1  0  0  0  0
 17 14  2  0  0  0  0
M  END
> <CdId>
3619

> <Mol Weight>
228.2896

> <Formula>
C14H16N2O

> <Click_ID>
CLK047C08 __ __ 

$$$$
