CLK042D04
 OpenBabel03181404502D

 24 26  0  0  0  0  0  0  0  0999 V2000
   -1.1708   -0.3667    0.0000 C   0  0  0  0  0  0  0  0  0  0  0  0
   -1.6583    0.3042    0.0000 N   0  0  0  0  0  0  0  0  0  0  0  0
   -1.6583   -1.0333    0.0000 N   0  0  0  0  0  0  0  0  0  0  0  0
   -2.4417   -0.7792    0.0000 C   0  0  0  0  0  0  0  0  0  0  0  0
   -2.4417    0.0458    0.0000 C   0  0  0  0  0  0  0  0  0  0  0  0
   -1.9542   -2.4292    0.0000 C   0  0  0  0  0  0  0  0  0  0  0  0
   -2.5083   -3.0417    0.0000 C   0  0  0  0  0  0  0  0  0  0  0  0
   -0.3458   -0.3667    0.0000 S   0  0  0  0  0  0  0  0  0  0  0  0
   -1.4042   -1.8167    0.0000 C   0  0  0  0  0  0  0  0  0  0  0  0
    3.7792    1.0625    0.0000 C   0  0  0  0  0  0  0  0  0  0  0  0
    2.1292    1.0625    0.0000 C   0  0  0  0  0  0  0  0  0  0  0  0
    3.3667    1.7792    0.0000 C   0  0  0  0  0  0  0  0  0  0  0  0
    2.5417    1.7792    0.0000 C   0  0  0  0  0  0  0  0  0  0  0  0
    2.5417    0.3500    0.0000 C   0  0  0  0  0  0  0  0  0  0  0  0
    3.3667    0.3500    0.0000 C   0  0  0  0  0  0  0  0  0  0  0  0
   -3.1583   -1.1917    0.0000 C   0  0  0  0  0  0  0  0  0  0  0  0
    4.6042    1.0625    0.0000 O   0  0  0  0  0  0  0  0  0  0  0  0
   -3.1583    0.4583    0.0000 C   0  0  0  0  0  0  0  0  0  0  0  0
    1.3042    1.0625    0.0000 O   0  0  0  0  0  0  0  0  0  0  0  0
    0.0667    0.3500    0.0000 C   0  0  0  0  0  0  0  0  0  0  0  0
    0.8917    0.3500    0.0000 C   0  0  0  0  0  0  0  0  0  0  0  0
    5.0167    1.7792    0.0000 C   0  0  0  0  0  0  0  0  0  0  0  0
   -3.8708   -0.7792    0.0000 C   0  0  0  0  0  0  0  0  0  0  0  0
   -3.8708    0.0458    0.0000 C   0  0  0  0  0  0  0  0  0  0  0  0
  2  1  2  0  0  0  0
  3  1  1  0  0  0  0
  4  3  1  0  0  0  0
  4  5  2  0  0  0  0
  5  2  1  0  0  0  0
  6  9  1  0  0  0  0
  7  6  3  0  0  0  0
  8  1  1  0  0  0  0
  9  3  1  0  0  0  0
 10 15  2  0  0  0  0
 11 19  1  0  0  0  0
 12 13  2  0  0  0  0
 12 10  1  0  0  0  0
 13 11  1  0  0  0  0
 14 11  2  0  0  0  0
 15 14  1  0  0  0  0
 16  4  1  0  0  0  0
 17 10  1  0  0  0  0
 18  5  1  0  0  0  0
 19 21  1  0  0  0  0
 20  8  1  0  0  0  0
 21 20  1  0  0  0  0
 22 17  1  0  0  0  0
 23 16  2  0  0  0  0
 23 24  1  0  0  0  0
 24 18  2  0  0  0  0
M  END
> <CdId>
3188

> <Mol Weight>
338.423

> <Formula>
C19H18N2O2S

> <Click_ID>
CLK042D04 __ __ 

$$$$
