CLK025_C03
 OpenBabel03181404502D

 30 32  0  0  0  0  0  0  0  0999 V2000
   -1.0281   -0.1995    0.0000 N    0  0  0  0  0  0  0  0  0  0  0  0
   -0.2132   -0.1925    0.0000 C    0  0  0  0  0  0  0  0  0  0  0  0
   -1.2997    0.5742    0.0000 C    0  0  0  0  0  0  0  0  0  0  0  0
    0.0378    0.5948    0.0000 C    0  0  0  0  0  0  0  0  0  0  0  0
   -0.6292    1.0728    0.0000 S    0  0  0  0  0  0  0  0  0  0  0  0
   -1.5129   -0.8803    0.0000 N    0  0  0  0  0  0  0  0  0  0  0  0
    0.8390    0.7736    0.0000 C    0  0  0  0  0  0  0  0  0  0  0  0
    1.3960    0.1719    0.0000 C    0  0  0  0  0  0  0  0  0  0  0  0
   -2.3415   -0.8011    0.0000 C    0  0  0  0  0  0  0  0  0  0  0  0
    2.2006    0.3576    0.0000 C    0  0  0  0  0  0  0  0  0  0  0  0
    2.7610   -0.2544    0.0000 C    0  0  0  0  0  0  0  0  0  0  0  0
   -2.0871    0.8217    0.0000 S    0  0  0  0  0  0  0  0  0  0  0  0
    2.5204   -1.0281    0.0000 C    0  0  0  0  0  0  0  0  0  0  0  0
    3.4934    2.1181    0.0000 C    0  0  0  0  0  0  0  0  0  0  0  0
    3.7341    2.9054    0.0000 C    0  0  0  0  0  0  0  0  0  0  0  0
    0.2750   -0.8630    0.0000 O    0  0  0  0  0  0  0  0  0  0  0  0
    1.1485   -0.6154    0.0000 C    0  0  0  0  0  0  0  0  0  0  0  0
    1.7089   -1.2172    0.0000 C    0  0  0  0  0  0  0  0  0  0  0  0
   -2.6854   -0.0550    0.0000 O    0  0  0  0  0  0  0  0  0  0  0  0
   -2.8229   -1.4785    0.0000 C    0  0  0  0  0  0  0  0  0  0  0  0
    3.5691   -0.0928    0.0000 O    0  0  0  0  0  0  0  0  0  0  0  0
    2.4447    1.1450    0.0000 O    0  0  0  0  0  0  0  0  0  0  0  0
    1.4579   -2.0115    0.0000 Br   0  0  0  0  0  0  0  0  0  0  0  0
    3.2493    1.3307    0.0000 C    0  0  0  0  0  0  0  0  0  0  0  0
   -2.4722   -2.2246    0.0000 C    0  0  0  0  0  0  0  0  0  0  0  0
   -3.6378   -1.4029    0.0000 C    0  0  0  0  0  0  0  0  0  0  0  0
    4.1123   -0.7117    0.0000 C    0  0  0  0  0  0  0  0  0  0  0  0
   -4.1158   -2.0768    0.0000 C    0  0  0  0  0  0  0  0  0  0  0  0
   -2.9467   -2.9020    0.0000 C    0  0  0  0  0  0  0  0  0  0  0  0
   -3.7719   -2.8264    0.0000 C    0  0  0  0  0  0  0  0  0  0  0  0
  2  1  1  0  0  0  0
  3  1  1  0  0  0  0
  4  2  1  0  0  0  0
  4  5  1  0  0  0  0
  5  3  1  0  0  0  0
  6  1  1  0  0  0  0
  7  4  2  0  0  0  0
  8  7  1  0  0  0  0
  9  6  1  0  0  0  0
 10  8  2  0  0  0  0
 11 10  1  0  0  0  0
 12  3  2  0  0  0  0
 13 18  1  0  0  0  0
 13 11  2  0  0  0  0
 14 24  1  0  0  0  0
 15 14  3  0  0  0  0
 16  2  2  0  0  0  0
 17  8  1  0  0  0  0
 18 17  2  0  0  0  0
 19  9  2  0  0  0  0
 20  9  1  0  0  0  0
 21 11  1  0  0  0  0
 22 10  1  0  0  0  0
 23 18  1  0  0  0  0
 24 22  1  0  0  0  0
 25 20  1  0  0  0  0
 26 20  2  0  0  0  0
 27 21  1  0  0  0  0
 28 26  1  0  0  0  0
 29 25  2  0  0  0  0
 30 28  2  0  0  0  0
 30 29  1  0  0  0  0
M  END
> <CdId>
1878

> <Mol Weight>
503.389

> <Formula>
C21H15BrN2O4S2

> <Click_ID>
CLK025_C03 __ __ 

$$$$
