CLK037H11
 OpenBabel03181404502D

 22 23  0  0  0  0  0  0  0  0999 V2000
    0.7125    0.7875    0.0000 S   0  0  0  0  0  0  0  0  0  0  0  0
    0.7125   -0.0333    0.0000 C   0  0  0  0  0  0  0  0  0  0  0  0
    0.7125    1.6125    0.0000 N   0  0  0  0  0  0  0  0  0  0  0  0
    0.0000   -1.2750    0.0000 C   0  0  0  0  0  0  0  0  0  0  0  0
    0.0000   -0.4500    0.0000 C   0  0  0  0  0  0  0  0  0  0  0  0
   -0.7167   -1.6875    0.0000 C   0  0  0  0  0  0  0  0  0  0  0  0
    1.5375    0.7875    0.0000 O   0  0  0  0  0  0  0  0  0  0  0  0
   -0.1125    0.7875    0.0000 O   0  0  0  0  0  0  0  0  0  0  0  0
   -2.8583   -1.2750    0.0000 C   0  0  0  0  0  0  0  0  0  0  0  0
   -3.5750   -0.8625    0.0000 C   0  0  0  0  0  0  0  0  0  0  0  0
    0.7125   -1.6875    0.0000 C   0  0  0  0  0  0  0  0  0  0  0  0
    1.4250   -0.4500    0.0000 C   0  0  0  0  0  0  0  0  0  0  0  0
   -0.7167   -2.5125    0.0000 O   0  0  0  0  0  0  0  0  0  0  0  0
    1.4250   -1.2750    0.0000 C   0  0  0  0  0  0  0  0  0  0  0  0
   -1.4292   -1.2750    0.0000 N   0  0  0  0  0  0  0  0  0  0  0  0
   -2.1458   -1.6875    0.0000 C   0  0  0  0  0  0  0  0  0  0  0  0
    1.4250    2.0250    0.0000 C   0  0  0  0  0  0  0  0  0  0  0  0
    0.0000    2.0250    0.0000 C   0  0  0  0  0  0  0  0  0  0  0  0
    0.7125   -2.5125    0.0000 C   0  0  0  0  0  0  0  0  0  0  0  0
    0.0000    2.8500    0.0000 C   0  0  0  0  0  0  0  0  0  0  0  0
    1.4250    2.8500    0.0000 C   0  0  0  0  0  0  0  0  0  0  0  0
    0.7125    3.2667    0.0000 C   0  0  0  0  0  0  0  0  0  0  0  0
  2  1  1  0  0  0  0
  3  1  1  0  0  0  0
  4  5  1  0  0  0  0
  5  2  2  0  0  0  0
  6  4  1  0  0  0  0
  7  1  2  0  0  0  0
  8  1  2  0  0  0  0
  9 16  1  0  0  0  0
 10  9  3  0  0  0  0
 11  4  2  0  0  0  0
 12  2  1  0  0  0  0
 13  6  2  0  0  0  0
 14 12  2  0  0  0  0
 14 11  1  0  0  0  0
 15  6  1  0  0  0  0
 16 15  1  0  0  0  0
 17  3  1  0  0  0  0
 18  3  1  0  0  0  0
 19 11  1  0  0  0  0
 20 18  1  0  0  0  0
 21 17  1  0  0  0  0
 22 20  1  0  0  0  0
 22 21  1  0  0  0  0
M  END
> <CdId>
2848

> <Mol Weight>
320.407

> <Formula>
C16H20N2O3S

> <Click_ID>
CLK037H11 __ __ 

$$$$
