CLK007_B11
 OpenBabel03181404502D

 28 30  0  0  0  0  0  0  0  0999 V2000
    0.2267    2.4906    0.0000 C    0  0  0  0  0  0  0  0  0  0  0  0
   -0.5943    2.4459    0.0000 C    0  0  0  0  0  0  0  0  0  0  0  0
    0.6836    1.7932    0.0000 C    0  0  0  0  0  0  0  0  0  0  0  0
    0.6011    3.2257    0.0000 O    0  0  0  0  0  0  0  0  0  0  0  0
   -0.9687    1.7107    0.0000 C    0  0  0  0  0  0  0  0  0  0  0  0
   -1.0443    3.1260    0.0000 O    0  0  0  0  0  0  0  0  0  0  0  0
    0.3023    1.0615    0.0000 C    0  0  0  0  0  0  0  0  0  0  0  0
    1.5046    1.8310    0.0000 Cl   0  0  0  0  0  0  0  0  0  0  0  0
    0.1511    3.9093    0.0000 C    0  0  0  0  0  0  0  0  0  0  0  0
   -0.5119    1.0134    0.0000 C    0  0  0  0  0  0  0  0  0  0  0  0
   -1.8653    3.0849    0.0000 C    0  0  0  0  0  0  0  0  0  0  0  0
    0.5256    4.6376    0.0000 C    0  0  0  0  0  0  0  0  0  0  0  0
   -0.8932    0.2782    0.0000 C    0  0  0  0  0  0  0  0  0  0  0  0
    1.3466    4.6789    0.0000 C    0  0  0  0  0  0  0  0  0  0  0  0
   -0.4362   -0.4191    0.0000 C    0  0  0  0  0  0  0  0  0  0  0  0
   -0.7317   -1.1921    0.0000 N    0  0  0  0  0  0  0  0  0  0  0  0
    0.3710   -0.4569    0.0000 C    0  0  0  0  0  0  0  0  0  0  0  0
   -0.0962   -1.6936    0.0000 C    0  0  0  0  0  0  0  0  0  0  0  0
    0.5875   -1.2470    0.0000 O    0  0  0  0  0  0  0  0  0  0  0  0
    0.8829    0.1992    0.0000 O    0  0  0  0  0  0  0  0  0  0  0  0
   -0.0894   -2.5249    0.0000 C    0  0  0  0  0  0  0  0  0  0  0  0
   -0.8072   -2.9337    0.0000 C    0  0  0  0  0  0  0  0  0  0  0  0
    0.6217   -2.9337    0.0000 C    0  0  0  0  0  0  0  0  0  0  0  0
   -0.8072   -3.7616    0.0000 C    0  0  0  0  0  0  0  0  0  0  0  0
    0.6115   -3.7616    0.0000 C    0  0  0  0  0  0  0  0  0  0  0  0
   -0.0962   -4.1704    0.0000 C    0  0  0  0  0  0  0  0  0  0  0  0
   -0.0962   -4.9880    0.0000 O    0  0  0  0  0  0  0  0  0  0  0  0
    0.6115   -5.4002    0.0000 C    0  0  0  0  0  0  0  0  0  0  0  0
  1  2  1  0  0  0  0
  1  3  2  0  0  0  0
  1  4  1  0  0  0  0
  2  5  2  0  0  0  0
  2  6  1  0  0  0  0
  3  7  1  0  0  0  0
  3  8  1  0  0  0  0
  4  9  1  0  0  0  0
  5 10  1  0  0  0  0
  6 11  1  0  0  0  0
  7 10  2  0  0  0  0
  9 12  1  0  0  0  0
 10 13  1  0  0  0  0
 12 14  3  0  0  0  0
 13 15  2  0  0  0  0
 15 16  1  0  0  0  0
 15 17  1  0  0  0  0
 16 18  2  0  0  0  0
 17 19  1  0  0  0  0
 17 20  2  0  0  0  0
 18 21  1  0  0  0  0
 18 19  1  0  0  0  0
 21 22  2  0  0  0  0
 21 23  1  0  0  0  0
 22 24  1  0  0  0  0
 23 25  2  0  0  0  0
 24 26  2  0  0  0  0
 25 26  1  0  0  0  0
 26 27  1  0  0  0  0
 27 28  1  0  0  0  0
M  END
> <CdId>
500

> <Mol Weight>
397.808

> <Formula>
C21H16ClNO5

> <Click_ID>
CLK007_B11 __ __ 

$$$$
