CLK018_E05
 OpenBabel03181404502D

 25 27  0  0  0  0  0  0  0  0999 V2000
    5.5626   -2.7834    0.0000 N   0  0  0  0  0  0  0  0  0  0  0  0
    5.8119   -3.5686    0.0000 C   0  0  0  0  0  0  0  0  0  0  0  0
    6.8961   -2.7834    0.0000 C   0  0  0  0  0  0  0  0  0  0  0  0
    6.2232   -2.2974    0.0000 C   0  0  0  0  0  0  0  0  0  0  0  0
    6.6427   -3.5686    0.0000 S   0  0  0  0  0  0  0  0  0  0  0  0
    7.9680   -2.4344    0.0000 C   0  0  0  0  0  0  0  0  0  0  0  0
    8.1424   -1.6244    0.0000 C   0  0  0  0  0  0  0  0  0  0  0  0
    8.9276   -1.3751    0.0000 C   0  0  0  0  0  0  0  0  0  0  0  0
    6.3104    0.0332    0.0000 C   0  0  0  0  0  0  0  0  0  0  0  0
    6.4849    0.8433    0.0000 C   0  0  0  0  0  0  0  0  0  0  0  0
    5.3258   -4.2416    0.0000 O   0  0  0  0  0  0  0  0  0  0  0  0
    7.5318   -1.0760    0.0000 C   0  0  0  0  0  0  0  0  0  0  0  0
    6.2232   -1.4706    0.0000 O   0  0  0  0  0  0  0  0  0  0  0  0
    4.7775   -2.5300    0.0000 C   0  0  0  0  0  0  0  0  0  0  0  0
    9.1021   -0.5733    0.0000 C   0  0  0  0  0  0  0  0  0  0  0  0
    7.7020   -0.2659    0.0000 C   0  0  0  0  0  0  0  0  0  0  0  0
    8.4914   -0.0167    0.0000 C   0  0  0  0  0  0  0  0  0  0  0  0
    4.1668   -3.0825    0.0000 C   0  0  0  0  0  0  0  0  0  0  0  0
    3.3816   -2.8333    0.0000 C   0  0  0  0  0  0  0  0  0  0  0  0
    6.7466   -1.3253    0.0000 O   0  0  0  0  0  0  0  0  0  0  0  0
    6.1359   -0.7727    0.0000 C   0  0  0  0  0  0  0  0  0  0  0  0
    9.5383   -1.9359    0.0000 C   0  0  0  0  0  0  0  0  0  0  0  0
    9.8748   -0.3158    0.0000 C   0  0  0  0  0  0  0  0  0  0  0  0
   10.3192   -1.6700    0.0000 C   0  0  0  0  0  0  0  0  0  0  0  0
   10.4855   -0.8641    0.0000 C   0  0  0  0  0  0  0  0  0  0  0  0
  2  1  1  0  0  0  0
  3  4  1  0  0  0  0
  3  5  1  0  0  0  0
  4  1  1  0  0  0  0
  5  2  1  0  0  0  0
  6  3  2  0  0  0  0
  7  6  1  0  0  0  0
  8  7  1  0  0  0  0
  9 21  1  0  0  0  0
 10  9  3  0  0  0  0
 11  2  2  0  0  0  0
 12  7  2  0  0  0  0
 13  4  2  0  0  0  0
 14  1  1  0  0  0  0
 15  8  1  0  0  0  0
 15 17  1  0  0  0  0
 16 12  1  0  0  0  0
 17 16  2  0  0  0  0
 18 14  1  0  0  0  0
 19 18  2  0  0  0  0
 20 12  1  0  0  0  0
 21 20  1  0  0  0  0
 22  8  2  0  0  0  0
 23 15  2  0  0  0  0
 23 25  1  0  0  0  0
 24 22  1  0  0  0  0
 25 24  2  0  0  0  0
M  END
> <CdId>
1360

> <Mol Weight>
349.403

> <Formula>
C20H15NO3S

> <Click_ID>
CLK018_E05 __ __ 

$$$$
