CLK026_H02
 OpenBabel03181404502D

 23 24  0  0  0  0  0  0  0  0999 V2000
   -1.7810   -0.7572    0.0000 C    0  0  0  0  0  0  0  0  0  0  0  0
    3.3451    2.1365    0.0000 C    0  0  0  0  0  0  0  0  0  0  0  0
    3.3451    2.9611    0.0000 C    0  0  0  0  0  0  0  0  0  0  0  0
   -0.9989   -0.3057    0.0000 N    0  0  0  0  0  0  0  0  0  0  0  0
   -1.7810   -1.6779    0.0000 C    0  0  0  0  0  0  0  0  0  0  0  0
    1.9303   -0.3377    0.0000 C    0  0  0  0  0  0  0  0  0  0  0  0
    1.9160    0.4870    0.0000 C    0  0  0  0  0  0  0  0  0  0  0  0
   -2.5772   -0.3057    0.0000 C    0  0  0  0  0  0  0  0  0  0  0  0
    1.2157   -0.7501    0.0000 C    0  0  0  0  0  0  0  0  0  0  0  0
    1.2087    0.8994    0.0000 C    0  0  0  0  0  0  0  0  0  0  0  0
   -3.3593   -0.7714    0.0000 C    0  0  0  0  0  0  0  0  0  0  0  0
   -2.5772   -2.1329    0.0000 C    0  0  0  0  0  0  0  0  0  0  0  0
    0.5012   -0.3377    0.0000 C    0  0  0  0  0  0  0  0  0  0  0  0
   -0.2133   -0.7572    0.0000 C    0  0  0  0  0  0  0  0  0  0  0  0
   -3.3593   -1.6779    0.0000 C    0  0  0  0  0  0  0  0  0  0  0  0
    0.4941    0.4870    0.0000 C    0  0  0  0  0  0  0  0  0  0  0  0
    2.6448   -0.7501    0.0000 O    0  0  0  0  0  0  0  0  0  0  0  0
   -2.5772   -2.9576    0.0000 Cl   0  0  0  0  0  0  0  0  0  0  0  0
    2.6305    0.8994    0.0000 O    0  0  0  0  0  0  0  0  0  0  0  0
    2.6305    1.7241    0.0000 C    0  0  0  0  0  0  0  0  0  0  0  0
   -2.5772    0.5190    0.0000 C    0  0  0  0  0  0  0  0  0  0  0  0
    2.6448   -1.5677    0.0000 C    0  0  0  0  0  0  0  0  0  0  0  0
    3.3593   -1.9872    0.0000 C    0  0  0  0  0  0  0  0  0  0  0  0
  2 20  1  0  0  0  0
  3  2  3  0  0  0  0
  4  1  1  0  0  0  0
  5  1  1  0  0  0  0
  6  9  2  0  0  0  0
  6  7  1  0  0  0  0
  7 10  2  0  0  0  0
  8  1  2  0  0  0  0
  9 13  1  0  0  0  0
 10 16  1  0  0  0  0
 11  8  1  0  0  0  0
 12  5  2  0  0  0  0
 13 14  1  0  0  0  0
 14  4  1  0  0  0  0
 15 11  2  0  0  0  0
 15 12  1  0  0  0  0
 16 13  2  0  0  0  0
 17  6  1  0  0  0  0
 18 12  1  0  0  0  0
 19  7  1  0  0  0  0
 20 19  1  0  0  0  0
 21  8  1  0  0  0  0
 22 17  1  0  0  0  0
 23 22  1  0  0  0  0
M  END
> <CdId>
2007

> <Mol Weight>
329.821

> <Formula>
C19H20ClNO2

> <Click_ID>
CLK026_H02 __ __ 

$$$$
