CLK041A07
 OpenBabel03181404502D

 23 25  0  0  0  0  0  0  0  0999 V2000
   -0.9083    0.0833    0.0000 C   0  0  0  0  0  0  0  0  0  0  0  0
   -0.9083   -0.7417    0.0000 C   0  0  0  0  0  0  0  0  0  0  0  0
   -0.1917    0.4958    0.0000 N   0  0  0  0  0  0  0  0  0  0  0  0
   -1.6917    0.3375    0.0000 N   0  0  0  0  0  0  0  0  0  0  0  0
   -0.1917   -1.1542    0.0000 C   0  0  0  0  0  0  0  0  0  0  0  0
    0.5208   -0.7417    0.0000 N   0  0  0  0  0  0  0  0  0  0  0  0
   -2.1792   -0.3292    0.0000 N   0  0  0  0  0  0  0  0  0  0  0  0
    0.5208    0.0833    0.0000 C   0  0  0  0  0  0  0  0  0  0  0  0
   -1.6917   -0.9958    0.0000 C   0  0  0  0  0  0  0  0  0  0  0  0
    1.2375   -1.1542    0.0000 C   0  0  0  0  0  0  0  0  0  0  0  0
    4.0917   -1.1542    0.0000 C   0  0  0  0  0  0  0  0  0  0  0  0
    4.8083   -1.5667    0.0000 C   0  0  0  0  0  0  0  0  0  0  0  0
    1.9500   -0.7417    0.0000 C   0  0  0  0  0  0  0  0  0  0  0  0
   -1.9458    1.1208    0.0000 C   0  0  0  0  0  0  0  0  0  0  0  0
   -0.1917   -1.9792    0.0000 O   0  0  0  0  0  0  0  0  0  0  0  0
    1.9500    0.0833    0.0000 O   0  0  0  0  0  0  0  0  0  0  0  0
    2.6667   -1.1542    0.0000 N   0  0  0  0  0  0  0  0  0  0  0  0
    3.3792   -0.7417    0.0000 C   0  0  0  0  0  0  0  0  0  0  0  0
   -1.3958    1.7333    0.0000 C   0  0  0  0  0  0  0  0  0  0  0  0
   -2.7542    1.2917    0.0000 C   0  0  0  0  0  0  0  0  0  0  0  0
   -3.0083    2.0792    0.0000 C   0  0  0  0  0  0  0  0  0  0  0  0
   -1.6500    2.5208    0.0000 C   0  0  0  0  0  0  0  0  0  0  0  0
   -2.4583    2.6917    0.0000 C   0  0  0  0  0  0  0  0  0  0  0  0
  2  1  2  0  0  0  0
  3  1  1  0  0  0  0
  4  1  1  0  0  0  0
  5  2  1  0  0  0  0
  6  5  1  0  0  0  0
  7  4  1  0  0  0  0
  8  3  2  0  0  0  0
  8  6  1  0  0  0  0
  9  2  1  0  0  0  0
  9  7  2  0  0  0  0
 10  6  1  0  0  0  0
 11 18  1  0  0  0  0
 12 11  3  0  0  0  0
 13 10  1  0  0  0  0
 14  4  1  0  0  0  0
 15  5  2  0  0  0  0
 16 13  2  0  0  0  0
 17 13  1  0  0  0  0
 18 17  1  0  0  0  0
 19 14  1  0  0  0  0
 20 14  2  0  0  0  0
 21 20  1  0  0  0  0
 22 19  2  0  0  0  0
 23 21  2  0  0  0  0
 23 22  1  0  0  0  0
M  END
> <CdId>
3129

> <Mol Weight>
307.3067

> <Formula>
C16H13N5O2

> <Click_ID>
CLK041A07 __ __ 

$$$$
