CLK019_D11
 OpenBabel03181404502D

 27 29  0  0  0  0  0  0  0  0999 V2000
    1.1818    2.7897    0.0000 C    0  0  0  0  0  0  0  0  0  0  0  0
    4.0677    3.5043    0.0000 C    0  0  0  0  0  0  0  0  0  0  0  0
    1.5941    3.5043    0.0000 C    0  0  0  0  0  0  0  0  0  0  0  0
    3.6555    4.2189    0.0000 C    0  0  0  0  0  0  0  0  0  0  0  0
    3.6555    2.7897    0.0000 C    0  0  0  0  0  0  0  0  0  0  0  0
    2.4095    3.5043    0.0000 C    0  0  0  0  0  0  0  0  0  0  0  0
    1.5941    2.0842    0.0000 C    0  0  0  0  0  0  0  0  0  0  0  0
    0.3573    2.7897    0.0000 C    0  0  0  0  0  0  0  0  0  0  0  0
   -0.4672    2.7897    0.0000 N    0  0  0  0  0  0  0  0  0  0  0  0
    1.5941    0.6550    0.0000 C    0  0  0  0  0  0  0  0  0  0  0  0
    6.1291    2.7897    0.0000 C    0  0  0  0  0  0  0  0  0  0  0  0
    1.1818    1.3696    0.0000 C    0  0  0  0  0  0  0  0  0  0  0  0
    6.9536    2.7897    0.0000 C    0  0  0  0  0  0  0  0  0  0  0  0
    2.4095    0.6550    0.0000 C    0  0  0  0  0  0  0  0  0  0  0  0
    1.3376   -0.1374    0.0000 O    0  0  0  0  0  0  0  0  0  0  0  0
    2.8309    4.2189    0.0000 C    0  0  0  0  0  0  0  0  0  0  0  0
    2.8309    2.7897    0.0000 C    0  0  0  0  0  0  0  0  0  0  0  0
    2.6706   -0.1374    0.0000 O    0  0  0  0  0  0  0  0  0  0  0  0
    2.0064   -0.6184    0.0000 C    0  0  0  0  0  0  0  0  0  0  0  0
    2.4095    2.0842    0.0000 C    0  0  0  0  0  0  0  0  0  0  0  0
    2.8309    1.3696    0.0000 C    0  0  0  0  0  0  0  0  0  0  0  0
    4.0677    4.9244    0.0000 Cl   0  0  0  0  0  0  0  0  0  0  0  0
    4.8923    3.5043    0.0000 O    0  0  0  0  0  0  0  0  0  0  0  0
    4.0677    2.0842    0.0000 O    0  0  0  0  0  0  0  0  0  0  0  0
    5.3046    2.7897    0.0000 C    0  0  0  0  0  0  0  0  0  0  0  0
    3.6555    1.3696    0.0000 C    0  0  0  0  0  0  0  0  0  0  0  0
    4.0677    0.6550    0.0000 C    0  0  0  0  0  0  0  0  0  0  0  0
  2  5  1  0  0  0  0
  2  4  2  0  0  0  0
  3  1  2  0  0  0  0
  4 16  1  0  0  0  0
  5 17  2  0  0  0  0
  6  3  1  0  0  0  0
  7  1  1  0  0  0  0
  8  1  1  0  0  0  0
  9  8  3  0  0  0  0
 10 12  1  0  0  0  0
 11 25  1  0  0  0  0
 12  7  2  0  0  0  0
 13 11  3  0  0  0  0
 14 21  1  0  0  0  0
 14 10  2  0  0  0  0
 15 10  1  0  0  0  0
 16  6  2  0  0  0  0
 17  6  1  0  0  0  0
 18 14  1  0  0  0  0
 19 15  1  0  0  0  0
 19 18  1  0  0  0  0
 20  7  1  0  0  0  0
 21 20  2  0  0  0  0
 22  4  1  0  0  0  0
 23  2  1  0  0  0  0
 24  5  1  0  0  0  0
 25 23  1  0  0  0  0
 26 24  1  0  0  0  0
 27 26  1  0  0  0  0
M  END
> <CdId>
1436

> <Mol Weight>
381.809

> <Formula>
C21H16ClNO4

> <Click_ID>
CLK019_D11 __ __ 

$$$$
