CLK023_A08
 OpenBabel03181404502D

 22 23  0  0  0  0  0  0  0  0999 V2000
   -1.4266   -2.0419    0.0000 N    0  0  0  0  0  0  0  0  0  0  0  0
   -0.0997   -2.0419    0.0000 C    0  0  0  0  0  0  0  0  0  0  0  0
   -1.1791   -2.8188    0.0000 C    0  0  0  0  0  0  0  0  0  0  0  0
   -0.7734   -1.5572    0.0000 C    0  0  0  0  0  0  0  0  0  0  0  0
   -0.3541   -2.8188    0.0000 N    0  0  0  0  0  0  0  0  0  0  0  0
    0.6119   -1.6190    0.0000 C    0  0  0  0  0  0  0  0  0  0  0  0
    0.6084   -0.7941    0.0000 C    0  0  0  0  0  0  0  0  0  0  0  0
    1.3235    0.4400    0.0000 C    0  0  0  0  0  0  0  0  0  0  0  0
    1.3235   -0.3850    0.0000 C    0  0  0  0  0  0  0  0  0  0  0  0
    0.6084    0.8525    0.0000 C    0  0  0  0  0  0  0  0  0  0  0  0
   -0.1031   -0.3850    0.0000 C    0  0  0  0  0  0  0  0  0  0  0  0
    1.3956    2.7190    0.0000 C    0  0  0  0  0  0  0  0  0  0  0  0
   -0.1031    0.4400    0.0000 C    0  0  0  0  0  0  0  0  0  0  0  0
    1.3853    3.5406    0.0000 C    0  0  0  0  0  0  0  0  0  0  0  0
   -1.5984   -3.5406    0.0000 O    0  0  0  0  0  0  0  0  0  0  0  0
   -0.7734   -0.7322    0.0000 O    0  0  0  0  0  0  0  0  0  0  0  0
    1.9078   -0.9694    0.0000 Br   0  0  0  0  0  0  0  0  0  0  0  0
    0.6016    1.6775    0.0000 O    0  0  0  0  0  0  0  0  0  0  0  0
   -0.5225    1.1585    0.0000 O    0  0  0  0  0  0  0  0  0  0  0  0
    1.3990    1.8940    0.0000 C    0  0  0  0  0  0  0  0  0  0  0  0
   -1.3235    0.9453    0.0000 C    0  0  0  0  0  0  0  0  0  0  0  0
   -1.9113    1.5331    0.0000 C    0  0  0  0  0  0  0  0  0  0  0  0
  2  4  1  0  0  0  0
  2  5  1  0  0  0  0
  3  1  1  0  0  0  0
  4  1  1  0  0  0  0
  5  3  1  0  0  0  0
  6  2  2  0  0  0  0
  7  6  1  0  0  0  0
  8  9  1  0  0  0  0
  9  7  2  0  0  0  0
 10 13  1  0  0  0  0
 10  8  2  0  0  0  0
 11  7  1  0  0  0  0
 12 20  1  0  0  0  0
 13 11  2  0  0  0  0
 14 12  3  0  0  0  0
 15  3  2  0  0  0  0
 16  4  2  0  0  0  0
 17  9  1  0  0  0  0
 18 10  1  0  0  0  0
 19 13  1  0  0  0  0
 20 18  1  0  0  0  0
 21 19  1  0  0  0  0
 22 21  1  0  0  0  0
M  END
> <CdId>
1703

> <Mol Weight>
365.179

> <Formula>
C15H13BrN2O4

> <Click_ID>
CLK023_A08 __ __ 

$$$$
