CLK045C02
 OpenBabel03181404502D

 17 18  0  0  0  0  0  0  0  0999 V2000
    0.1958   -0.8875    0.0000 S   0  0  0  0  0  0  0  0  0  0  0  0
    0.9125   -1.3000    0.0000 C   0  0  0  0  0  0  0  0  0  0  0  0
   -0.5167   -0.4750    0.0000 N   0  0  0  0  0  0  0  0  0  0  0  0
    1.6667   -0.9667    0.0000 S   0  0  0  0  0  0  0  0  0  0  0  0
   -1.9458    2.0000    0.0000 C   0  0  0  0  0  0  0  0  0  0  0  0
    0.6083   -0.1750    0.0000 O   0  0  0  0  0  0  0  0  0  0  0  0
   -0.2167   -1.6042    0.0000 O   0  0  0  0  0  0  0  0  0  0  0  0
   -2.6625    2.4125    0.0000 C   0  0  0  0  0  0  0  0  0  0  0  0
    1.0000   -2.1208    0.0000 C   0  0  0  0  0  0  0  0  0  0  0  0
    2.2167   -1.5792    0.0000 C   0  0  0  0  0  0  0  0  0  0  0  0
   -0.5167    0.3500    0.0000 C   0  0  0  0  0  0  0  0  0  0  0  0
    1.8042   -2.2958    0.0000 C   0  0  0  0  0  0  0  0  0  0  0  0
   -1.2333    1.5875    0.0000 C   0  0  0  0  0  0  0  0  0  0  0  0
   -1.2333    0.7625    0.0000 C   0  0  0  0  0  0  0  0  0  0  0  0
    0.1958    1.5875    0.0000 C   0  0  0  0  0  0  0  0  0  0  0  0
    0.1958    0.7625    0.0000 C   0  0  0  0  0  0  0  0  0  0  0  0
   -0.5167    2.0000    0.0000 C   0  0  0  0  0  0  0  0  0  0  0  0
  2  1  1  0  0  0  0
  3  1  1  0  0  0  0
  4  2  1  0  0  0  0
  5 13  1  0  0  0  0
  6  1  2  0  0  0  0
  7  1  2  0  0  0  0
  8  5  3  0  0  0  0
  9  2  2  0  0  0  0
 10  4  1  0  0  0  0
 10 12  2  0  0  0  0
 11  3  1  0  0  0  0
 12  9  1  0  0  0  0
 13 14  1  0  0  0  0
 14 11  2  0  0  0  0
 15 16  2  0  0  0  0
 16 11  1  0  0  0  0
 17 13  2  0  0  0  0
 17 15  1  0  0  0  0
M  END
> <CdId>
3411

> <Mol Weight>
263.335

> <Formula>
C12H9NO2S2

> <Click_ID>
CLK045C02 __ __ 

$$$$
