CLK033_F03
 OpenBabel03181404502D

 25 27  0  0  0  0  0  0  0  0999 V2000
   -4.5918    2.5561    0.0000 C   0  0  0  0  0  0  0  0  0  0  0  0
   -3.8592    2.9807    0.0000 N   0  0  0  0  0  0  0  0  0  0  0  0
   -4.6834    1.7318    0.0000 N   0  0  0  0  0  0  0  0  0  0  0  0
   -5.3162    2.8975    0.0000 S   0  0  0  0  0  0  0  0  0  0  0  0
   -0.9867    3.8051    0.0000 N   0  3  0  0  0  0  0  0  0  0  0  0
   -3.8675    3.7968    0.0000 C   0  0  0  0  0  0  0  0  0  0  0  0
   -5.4911    1.5819    0.0000 C   0  0  0  0  0  0  0  0  0  0  0  0
   -5.8907    2.3064    0.0000 C   0  0  0  0  0  0  0  0  0  0  0  0
   -1.7193    4.2089    0.0000 C   0  0  0  0  0  0  0  0  0  0  0  0
   -3.1556    4.2089    0.0000 C   0  0  0  0  0  0  0  0  0  0  0  0
   -4.2671    0.3580    0.0000 C   0  0  0  0  0  0  0  0  0  0  0  0
   -2.4354    3.8051    0.0000 C   0  0  0  0  0  0  0  0  0  0  0  0
   -4.4544   -0.4538    0.0000 C   0  0  0  0  0  0  0  0  0  0  0  0
   -0.9950    2.9807    0.0000 O   0  5  0  0  0  0  0  0  0  0  0  0
   -0.2830    4.2131    0.0000 O   0  0  0  0  0  0  0  0  0  0  0  0
   -4.5793    4.2089    0.0000 O   0  0  0  0  0  0  0  0  0  0  0  0
   -5.9199    0.8826    0.0000 C   0  0  0  0  0  0  0  0  0  0  0  0
   -4.0798    1.1615    0.0000 C   0  0  0  0  0  0  0  0  0  0  0  0
   -6.7068    2.3313    0.0000 C   0  0  0  0  0  0  0  0  0  0  0  0
   -1.7193    5.0248    0.0000 C   0  0  0  0  0  0  0  0  0  0  0  0
   -3.1473    5.0248    0.0000 C   0  0  0  0  0  0  0  0  0  0  0  0
   -7.1356    1.6236    0.0000 C   0  0  0  0  0  0  0  0  0  0  0  0
   -2.4312    5.4453    0.0000 C   0  0  0  0  0  0  0  0  0  0  0  0
   -6.7234    0.8951    0.0000 C   0  0  0  0  0  0  0  0  0  0  0  0
   -5.5285    0.1499    0.0000 C   0  0  0  0  0  0  0  0  0  0  0  0
  2  1  2  0  0  0  0
  3  1  1  0  0  0  0
  4  1  1  0  0  0  0
  5  9  1  0  0  0  0
  6  2  1  0  0  0  0
  7  3  1  0  0  0  0
  8  4  1  0  0  0  0
  8  7  2  0  0  0  0
  9 12  1  0  0  0  0
 10  6  1  0  0  0  0
 11 18  1  0  0  0  0
 12 10  2  0  0  0  0
 13 11  3  0  0  0  0
 14  5  1  0  0  0  0
 15  5  2  0  0  0  0
 16  6  2  0  0  0  0
 17  7  1  0  0  0  0
 18  3  1  0  0  0  0
 19  8  1  0  0  0  0
 20 23  1  0  0  0  0
 20  9  2  0  0  0  0
 21 10  1  0  0  0  0
 22 19  2  0  0  0  0
 23 21  2  0  0  0  0
 24 17  2  0  0  0  0
 24 22  1  0  0  0  0
 25 17  1  0  0  0  0
M  END
> <CdId>
2537

> <Mol Weight>
351.379

> <Formula>
C18H13N3O3S

> <Click_ID>
CLK033_F03 __ __ 

$$$$
