CLK007_G05
 OpenBabel03181404502D

 18 20  0  0  0  0  0  0  0  0999 V2000
    0.2034    0.3517    0.0000 C   0  0  0  0  0  0  0  0  0  0  0  0
   -0.2759   -0.3241    0.0000 N   0  0  0  0  0  0  0  0  0  0  0  0
    1.0241    0.3517    0.0000 C   0  0  0  0  0  0  0  0  0  0  0  0
   -0.2862    1.0241    0.0000 N   0  0  0  0  0  0  0  0  0  0  0  0
   -1.0690   -0.0724    0.0000 C   0  0  0  0  0  0  0  0  0  0  0  0
    0.1379   -1.0345    0.0000 C   0  0  0  0  0  0  0  0  0  0  0  0
    1.4345    1.0690    0.0000 C   0  0  0  0  0  0  0  0  0  0  0  0
    1.4414   -0.3552    0.0000 C   0  0  0  0  0  0  0  0  0  0  0  0
   -1.0759    0.7552    0.0000 C   0  0  0  0  0  0  0  0  0  0  0  0
   -1.7897   -0.4862    0.0000 C   0  0  0  0  0  0  0  0  0  0  0  0
   -0.2759   -1.7483    0.0000 C   0  0  0  0  0  0  0  0  0  0  0  0
    2.2586    1.0690    0.0000 C   0  0  0  0  0  0  0  0  0  0  0  0
    2.2586   -0.3552    0.0000 C   0  0  0  0  0  0  0  0  0  0  0  0
   -1.7897    1.1690    0.0000 C   0  0  0  0  0  0  0  0  0  0  0  0
   -2.5034   -0.0724    0.0000 C   0  0  0  0  0  0  0  0  0  0  0  0
    0.1379   -2.4586    0.0000 C   0  0  0  0  0  0  0  0  0  0  0  0
    2.6724    0.3552    0.0000 C   0  0  0  0  0  0  0  0  0  0  0  0
   -2.5034    0.7552    0.0000 C   0  0  0  0  0  0  0  0  0  0  0  0
  1  2  1  0  0  0  0
  1  3  1  0  0  0  0
  1  4  2  0  0  0  0
  2  5  1  0  0  0  0
  2  6  1  0  0  0  0
  3  7  1  0  0  0  0
  3  8  1  0  0  0  0
  4  9  1  0  0  0  0
  5 10  2  0  0  0  0
  5  9  1  0  0  0  0
  6 11  1  0  0  0  0
  7 12  1  0  0  0  0
  8 13  1  0  0  0  0
  9 14  2  0  0  0  0
 10 15  1  0  0  0  0
 11 16  3  0  0  0  0
 12 17  1  0  0  0  0
 13 17  1  0  0  0  0
 14 18  1  0  0  0  0
 15 18  2  0  0  0  0
M  END
> <CdId>
544

> <Mol Weight>
238.3275

> <Formula>
C16H18N2

> <Click_ID>
CLK007_G05 __ __ 

$$$$
