CLK046B03
 OpenBabel03181404502D

 19 20  0  0  0  0  0  0  0  0999 V2000
    1.0500    0.4792    0.0000 C    0  0  0  0  0  0  0  0  0  0  0  0
    0.3375    0.0667    0.0000 C    0  0  0  0  0  0  0  0  0  0  0  0
   -0.3792    0.4792    0.0000 N    0  0  0  0  0  0  0  0  0  0  0  0
   -1.8083   -1.9958    0.0000 C    0  0  0  0  0  0  0  0  0  0  0  0
   -1.8083   -2.8208    0.0000 C    0  0  0  0  0  0  0  0  0  0  0  0
    1.7667    0.0667    0.0000 C    0  0  0  0  0  0  0  0  0  0  0  0
    1.0500    1.3042    0.0000 C    0  0  0  0  0  0  0  0  0  0  0  0
    0.3375   -0.7583    0.0000 O    0  0  0  0  0  0  0  0  0  0  0  0
   -1.0917    0.0667    0.0000 C    0  0  0  0  0  0  0  0  0  0  0  0
    2.4792    0.4792    0.0000 C    0  0  0  0  0  0  0  0  0  0  0  0
   -1.8083   -1.1708    0.0000 C    0  0  0  0  0  0  0  0  0  0  0  0
    1.7667    1.7167    0.0000 C    0  0  0  0  0  0  0  0  0  0  0  0
   -1.0917   -0.7583    0.0000 C    0  0  0  0  0  0  0  0  0  0  0  0
    1.7667   -0.7583    0.0000 F    0  0  0  0  0  0  0  0  0  0  0  0
    2.4792    1.3042    0.0000 C    0  0  0  0  0  0  0  0  0  0  0  0
    1.7667    2.5417    0.0000 Cl   0  0  0  0  0  0  0  0  0  0  0  0
   -2.5208    0.0667    0.0000 C    0  0  0  0  0  0  0  0  0  0  0  0
   -1.8083    0.4792    0.0000 C    0  0  0  0  0  0  0  0  0  0  0  0
   -2.5208   -0.7583    0.0000 C    0  0  0  0  0  0  0  0  0  0  0  0
  2  1  1  0  0  0  0
  3  2  1  0  0  0  0
  4 11  1  0  0  0  0
  5  4  3  0  0  0  0
  6  1  2  0  0  0  0
  7  1  1  0  0  0  0
  8  2  2  0  0  0  0
  9  3  1  0  0  0  0
 10  6  1  0  0  0  0
 11 13  1  0  0  0  0
 12  7  2  0  0  0  0
 12 15  1  0  0  0  0
 13  9  2  0  0  0  0
 14  6  1  0  0  0  0
 15 10  2  0  0  0  0
 16 12  1  0  0  0  0
 17 18  2  0  0  0  0
 18  9  1  0  0  0  0
 19 11  2  0  0  0  0
 19 17  1  0  0  0  0
M  END
> <CdId>
3498

> <Mol Weight>
273.689

> <Formula>
C15H9ClFNO

> <Click_ID>
CLK046B03 __ __ 

$$$$
