CLK010_D06
 OpenBabel03181404502D

 31 33  0  0  0  0  0  0  0  0999 V2000
    2.8559   -0.6764    0.0000 N    0  0  0  0  0  0  0  0  0  0  0  0
    3.5616   -1.9165    0.0000 C    0  0  0  0  0  0  0  0  0  0  0  0
    2.8476   -1.5031    0.0000 C    0  0  0  0  0  0  0  0  0  0  0  0
    3.5699   -0.2630    0.0000 C    0  0  0  0  0  0  0  0  0  0  0  0
    4.2839   -0.6806    0.0000 N    0  0  0  0  0  0  0  0  0  0  0  0
    4.2755   -1.5073    0.0000 C    0  0  0  0  0  0  0  0  0  0  0  0
    3.5574   -2.7432    0.0000 C    0  0  0  0  0  0  0  0  0  0  0  0
    5.6910   -3.9749    0.0000 C    0  0  0  0  0  0  0  0  0  0  0  0
    4.9770   -4.3758    0.0000 C    0  0  0  0  0  0  0  0  0  0  0  0
    5.6910   -3.1607    0.0000 C    0  0  0  0  0  0  0  0  0  0  0  0
    2.1336   -0.2630    0.0000 C    0  0  0  0  0  0  0  0  0  0  0  0
    4.2630   -3.1482    0.0000 C    0  0  0  0  0  0  0  0  0  0  0  0
    7.0939   -5.6409    0.0000 C    0  0  0  0  0  0  0  0  0  0  0  0
    3.5699    0.5637    0.0000 O    0  0  0  0  0  0  0  0  0  0  0  0
    7.8036   -6.0625    0.0000 C    0  0  0  0  0  0  0  0  0  0  0  0
    2.1336   -1.9081    0.0000 O    0  0  0  0  0  0  0  0  0  0  0  0
    4.2630   -3.9624    0.0000 C    0  0  0  0  0  0  0  0  0  0  0  0
    4.9853   -2.7432    0.0000 C    0  0  0  0  0  0  0  0  0  0  0  0
    4.9895   -1.9207    0.0000 O    0  0  0  0  0  0  0  0  0  0  0  0
    1.4154   -0.6764    0.0000 C    0  0  0  0  0  0  0  0  0  0  0  0
    2.1336    0.5720    0.0000 C    0  0  0  0  0  0  0  0  0  0  0  0
    4.9728   -5.2025    0.0000 Br   0  0  0  0  0  0  0  0  0  0  0  0
    6.3924   -4.4008    0.0000 O    0  0  0  0  0  0  0  0  0  0  0  0
    6.4049   -2.7599    0.0000 O    0  0  0  0  0  0  0  0  0  0  0  0
    1.4154    0.9853    0.0000 C    0  0  0  0  0  0  0  0  0  0  0  0
    0.7015   -0.2630    0.0000 C    0  0  0  0  0  0  0  0  0  0  0  0
    0.7015    0.5720    0.0000 C    0  0  0  0  0  0  0  0  0  0  0  0
    6.3924   -5.2150    0.0000 C    0  0  0  0  0  0  0  0  0  0  0  0
    6.4049   -1.9415    0.0000 C    0  0  0  0  0  0  0  0  0  0  0  0
   -0.0208    0.9853    0.0000 C    0  0  0  0  0  0  0  0  0  0  0  0
    7.1189   -1.5324    0.0000 C    0  0  0  0  0  0  0  0  0  0  0  0
  2  3  1  0  0  0  0
  2  6  1  0  0  0  0
  3  1  1  0  0  0  0
  4  1  1  0  0  0  0
  5  4  1  0  0  0  0
  6  5  1  0  0  0  0
  7  2  2  0  0  0  0
  8 10  2  0  0  0  0
  9 17  2  0  0  0  0
  9  8  1  0  0  0  0
 10 18  1  0  0  0  0
 11  1  1  0  0  0  0
 12  7  1  0  0  0  0
 13 28  1  0  0  0  0
 14  4  2  0  0  0  0
 15 13  3  0  0  0  0
 16  3  2  0  0  0  0
 17 12  1  0  0  0  0
 18 12  2  0  0  0  0
 19  6  2  0  0  0  0
 20 11  1  0  0  0  0
 21 11  2  0  0  0  0
 22  9  1  0  0  0  0
 23  8  1  0  0  0  0
 24 10  1  0  0  0  0
 25 21  1  0  0  0  0
 26 20  2  0  0  0  0
 27 25  2  0  0  0  0
 27 26  1  0  0  0  0
 28 23  1  0  0  0  0
 29 24  1  0  0  0  0
 30 27  1  0  0  0  0
 31 29  1  0  0  0  0
M  END
> <CdId>
711

> <Mol Weight>
483.311

> <Formula>
C23H19BrN2O5

> <Click_ID>
CLK010_D06 __ __ 

$$$$
