CLK028_A05
 OpenBabel03181404502D

 29 31  0  0  0  0  0  0  0  0999 V2000
   -2.3758    0.4971    0.0000 C   0  0  0  0  0  0  0  0  0  0  0  0
   -3.1506    0.2503    0.0000 O   0  0  0  0  0  0  0  0  0  0  0  0
   -1.6593    0.0823    0.0000 C   0  0  0  0  0  0  0  0  0  0  0  0
   -2.3758    1.3267    0.0000 C   0  0  0  0  0  0  0  0  0  0  0  0
    2.6226   -0.7679    0.0000 C   0  0  0  0  0  0  0  0  0  0  0  0
    2.6226    0.0617    0.0000 C   0  0  0  0  0  0  0  0  0  0  0  0
   -3.6271    0.9222    0.0000 C   0  0  0  0  0  0  0  0  0  0  0  0
    1.9027   -1.1759    0.0000 C   0  0  0  0  0  0  0  0  0  0  0  0
   -3.1403    1.5770    0.0000 C   0  0  0  0  0  0  0  0  0  0  0  0
    4.7619   -1.1828    0.0000 C   0  0  0  0  0  0  0  0  0  0  0  0
    4.7619   -2.0090    0.0000 C   0  0  0  0  0  0  0  0  0  0  0  0
   -0.2331    0.0754    0.0000 N   0  0  0  0  0  0  0  0  0  0  0  0
   -0.9462    0.4971    0.0000 N   0  0  0  0  0  0  0  0  0  0  0  0
    1.9095    0.4766    0.0000 C   0  0  0  0  0  0  0  0  0  0  0  0
    1.1930   -0.7542    0.0000 C   0  0  0  0  0  0  0  0  0  0  0  0
   -1.6730   -0.7440    0.0000 O   0  0  0  0  0  0  0  0  0  0  0  0
    1.2033    0.0720    0.0000 C   0  0  0  0  0  0  0  0  0  0  0  0
    0.4902    0.4834    0.0000 C   0  0  0  0  0  0  0  0  0  0  0  0
    1.1828   -2.4101    0.0000 C   0  0  0  0  0  0  0  0  0  0  0  0
    0.4663   -1.9953    0.0000 C   0  0  0  0  0  0  0  0  0  0  0  0
    3.3426    0.4766    0.0000 O   0  0  0  0  0  0  0  0  0  0  0  0
    3.3357   -1.1759    0.0000 O   0  0  0  0  0  0  0  0  0  0  0  0
    1.8959   -2.0055    0.0000 C   0  0  0  0  0  0  0  0  0  0  0  0
    4.0488   -0.7679    0.0000 C   0  0  0  0  0  0  0  0  0  0  0  0
   -4.4396    1.0114    0.0000 C   0  0  0  0  0  0  0  0  0  0  0  0
   -3.4694    2.3244    0.0000 C   0  0  0  0  0  0  0  0  0  0  0  0
    4.0591    0.0617    0.0000 C   0  0  0  0  0  0  0  0  0  0  0  0
   -4.7653    1.7622    0.0000 C   0  0  0  0  0  0  0  0  0  0  0  0
   -4.2785    2.4135    0.0000 C   0  0  0  0  0  0  0  0  0  0  0  0
  2  1  1  0  0  0  0
  3  1  1  0  0  0  0
  4  1  2  0  0  0  0
  5  8  2  0  0  0  0
  5  6  1  0  0  0  0
  6 14  2  0  0  0  0
  7  2  1  0  0  0  0
  7  9  2  0  0  0  0
  8 15  1  0  0  0  0
  9  4  1  0  0  0  0
 10 24  1  0  0  0  0
 11 10  3  0  0  0  0
 12 13  1  0  0  0  0
 13  3  1  0  0  0  0
 14 17  1  0  0  0  0
 15 17  2  0  0  0  0
 16  3  2  0  0  0  0
 17 18  1  0  0  0  0
 18 12  2  0  0  0  0
 19 23  1  0  0  0  0
 20 19  2  0  0  0  0
 21  6  1  0  0  0  0
 22  5  1  0  0  0  0
 23  8  1  0  0  0  0
 24 22  1  0  0  0  0
 25  7  1  0  0  0  0
 26  9  1  0  0  0  0
 27 21  1  0  0  0  0
 28 25  2  0  0  0  0
 28 29  1  0  0  0  0
 29 26  2  0  0  0  0
M  END
> <CdId>
2089

> <Mol Weight>
388.4159

> <Formula>
C23H20N2O4

> <Click_ID>
CLK028_A05 __ __ 

$$$$
