CLK014_G03
 OpenBabel03181404502D

 17 18  0  0  0  0  0  0  0  0999 V2000
    1.5650   -0.8158    0.0000 N   0  0  0  0  0  0  0  0  0  0  0  0
    1.8230   -1.6024    0.0000 C   0  0  0  0  0  0  0  0  0  0  0  0
    2.9010   -0.8158    0.0000 C   0  0  0  0  0  0  0  0  0  0  0  0
    2.2350   -0.3288    0.0000 C   0  0  0  0  0  0  0  0  0  0  0  0
    2.6470   -1.6024    0.0000 S   0  0  0  0  0  0  0  0  0  0  0  0
    3.6876   -0.5619    0.0000 C   0  0  0  0  0  0  0  0  0  0  0  0
    3.8624    0.2455    0.0000 C   0  0  0  0  0  0  0  0  0  0  0  0
    4.6116    0.5702    0.0000 C   0  0  0  0  0  0  0  0  0  0  0  0
    3.3088    0.8491    0.0000 S   0  0  0  0  0  0  0  0  0  0  0  0
    0.6118    0.2455    0.0000 C   0  0  0  0  0  0  0  0  0  0  0  0
    0.3913    1.0446    0.0000 C   0  0  0  0  0  0  0  0  0  0  0  0
    1.3360   -2.2642    0.0000 O   0  0  0  0  0  0  0  0  0  0  0  0
    3.7250    1.5690    0.0000 C   0  0  0  0  0  0  0  0  0  0  0  0
    2.2267    0.4952    0.0000 O   0  0  0  0  0  0  0  0  0  0  0  0
    4.5242    1.3860    0.0000 C   0  0  0  0  0  0  0  0  0  0  0  0
    0.7866   -0.5619    0.0000 C   0  0  0  0  0  0  0  0  0  0  0  0
    5.3233    0.1581    0.0000 C   0  0  0  0  0  0  0  0  0  0  0  0
  2  1  1  0  0  0  0
  3  4  1  0  0  0  0
  3  5  1  0  0  0  0
  4  1  1  0  0  0  0
  5  2  1  0  0  0  0
  6  3  2  0  0  0  0
  7  6  1  0  0  0  0
  8  7  2  0  0  0  0
  9  7  1  0  0  0  0
 10 16  1  0  0  0  0
 11 10  3  0  0  0  0
 12  2  2  0  0  0  0
 13  9  1  0  0  0  0
 14  4  2  0  0  0  0
 15  8  1  0  0  0  0
 15 13  2  0  0  0  0
 16  1  1  0  0  0  0
 17  8  1  0  0  0  0
M  END
> <CdId>
1058

> <Mol Weight>
263.335

> <Formula>
C12H9NO2S2

> <Click_ID>
CLK014_G03 __ __ 

$$$$
