CLK006_A09
 OpenBabel03181404502D

 23 25  0  0  0  0  0  0  0  0999 V2000
    5.0881  -22.3893    0.0000 C   0  0  0  0  0  0  0  0  0  0  0  0
    5.4996  -21.6785    0.0000 C   0  0  0  0  0  0  0  0  0  0  0  0
    4.2567  -22.3893    0.0000 N   0  0  0  0  0  0  0  0  0  0  0  0
    5.0881  -20.9634    0.0000 C   0  0  0  0  0  0  0  0  0  0  0  0
    4.2608  -20.9634    0.0000 N   0  0  0  0  0  0  0  0  0  0  0  0
    3.8493  -21.6785    0.0000 C   0  0  0  0  0  0  0  0  0  0  0  0
    5.4996  -23.1042    0.0000 N   0  0  0  0  0  0  0  0  0  0  0  0
    6.3269  -21.6785    0.0000 C   0  0  3  0  0  0  0  0  0  0  0  0
    6.3269  -23.1042    0.0000 C   0  0  0  0  0  0  0  0  0  0  0  0
    6.7384  -20.9634    0.0000 C   0  0  0  0  0  0  0  0  0  0  0  0
    6.7384  -22.3893    0.0000 C   0  0  0  0  0  0  0  0  0  0  0  0
    1.7875  -22.3893    0.0000 C   0  0  0  0  0  0  0  0  0  0  0  0
    0.9644  -22.3893    0.0000 C   0  0  0  0  0  0  0  0  0  0  0  0
    5.5079  -20.2443    0.0000 O   0  0  0  0  0  0  0  0  0  0  0  0
    7.5656  -20.9634    0.0000 C   0  0  0  0  0  0  0  0  0  0  0  0
    6.7467  -23.8234    0.0000 O   0  0  0  0  0  0  0  0  0  0  0  0
    3.0262  -21.6785    0.0000 S   0  0  0  0  0  0  0  0  0  0  0  0
    7.9896  -21.6825    0.0000 F   0  0  0  0  0  0  0  0  0  0  0  0
    2.6147  -22.3893    0.0000 C   0  0  0  0  0  0  0  0  0  0  0  0
    6.3269  -20.2526    0.0000 C   0  0  0  0  0  0  0  0  0  0  0  0
    7.9771  -20.2526    0.0000 C   0  0  0  0  0  0  0  0  0  0  0  0
    6.7384  -19.5376    0.0000 C   0  0  0  0  0  0  0  0  0  0  0  0
    7.5656  -19.5376    0.0000 C   0  0  0  0  0  0  0  0  0  0  0  0
  2  1  2  0  0  0  0
  3  1  1  0  0  0  0
  4  2  1  0  0  0  0
  4  5  1  0  0  0  0
  5  6  1  0  0  0  0
  6  3  2  0  0  0  0
  7  1  1  0  0  0  0
  8  2  1  0  0  0  0
  8 11  1  0  0  0  0
  9  7  1  0  0  0  0
 10  8  1  0  0  0  0
 11  9  1  0  0  0  0
 12 19  1  0  0  0  0
 13 12  3  0  0  0  0
 14  4  2  0  0  0  0
 15 10  2  0  0  0  0
 16  9  2  0  0  0  0
 17  6  1  0  0  0  0
 18 15  1  0  0  0  0
 19 17  1  0  0  0  0
 20 10  1  0  0  0  0
 21 15  1  0  0  0  0
 21 23  2  0  0  0  0
 22 20  2  0  0  0  0
 23 22  1  0  0  0  0
M  END
> <CdId>
408

> <Mol Weight>
329.349

> <Formula>
C16H12FN3O2S

> <Click_ID>
CLK006_A09 __ __ 

$$$$
