CLK025_E11
 OpenBabel03181404502D

 23 24  0  0  0  0  0  0  0  0999 V2000
    0.0241   -3.7125    0.0000 N   0  3  0  0  0  0  0  0  0  0  0  0
   -0.6944   -3.3000    0.0000 C   0  0  0  0  0  0  0  0  0  0  0  0
   -0.6944   -2.4681    0.0000 C   0  0  0  0  0  0  0  0  0  0  0  0
    1.4266    3.7159    0.0000 C   0  0  0  0  0  0  0  0  0  0  0  0
    1.4266    4.5409    0.0000 C   0  0  0  0  0  0  0  0  0  0  0  0
    0.0103   -1.2169    0.0000 N   0  0  0  0  0  0  0  0  0  0  0  0
    0.0241   -4.5409    0.0000 O   0  5  0  0  0  0  0  0  0  0  0  0
    1.4163    1.2581    0.0000 C   0  0  0  0  0  0  0  0  0  0  0  0
   -1.4196   -2.0522    0.0000 N   0  0  0  0  0  0  0  0  0  0  0  0
    0.7390   -3.2931    0.0000 O   0  0  0  0  0  0  0  0  0  0  0  0
    0.0206   -2.0453    0.0000 N   0  0  0  0  0  0  0  0  0  0  0  0
    0.7081    1.6500    0.0000 C   0  0  0  0  0  0  0  0  0  0  0  0
    1.4231    0.4400    0.0000 C   0  0  0  0  0  0  0  0  0  0  0  0
    0.0000    1.2546    0.0000 C   0  0  0  0  0  0  0  0  0  0  0  0
    0.7253   -0.8044    0.0000 C   0  0  0  0  0  0  0  0  0  0  0  0
    0.7219    0.0241    0.0000 C   0  0  0  0  0  0  0  0  0  0  0  0
    2.1312    1.6638    0.0000 I   0  0  0  0  0  0  0  0  0  0  0  0
    0.0103    0.4400    0.0000 C   0  0  0  0  0  0  0  0  0  0  0  0
   -1.4196   -3.7125    0.0000 C   0  0  0  0  0  0  0  0  0  0  0  0
    0.7116    2.4853    0.0000 O   0  0  0  0  0  0  0  0  0  0  0  0
    1.4231    2.8909    0.0000 C   0  0  0  0  0  0  0  0  0  0  0  0
   -2.1347   -2.4681    0.0000 C   0  0  0  0  0  0  0  0  0  0  0  0
   -2.1347   -3.3000    0.0000 C   0  0  0  0  0  0  0  0  0  0  0  0
  2  1  1  0  0  0  0
  3  2  1  0  0  0  0
  4 21  1  0  0  0  0
  5  4  3  0  0  0  0
  6 11  1  0  0  0  0
  7  1  1  0  0  0  0
  8 13  2  0  0  0  0
  8 12  1  0  0  0  0
  9  3  2  0  0  0  0
  9 22  1  0  0  0  0
 10  1  2  0  0  0  0
 11  3  1  0  0  0  0
 12 14  2  0  0  0  0
 13 16  1  0  0  0  0
 14 18  1  0  0  0  0
 15  6  2  0  0  0  0
 16 15  1  0  0  0  0
 17  8  1  0  0  0  0
 18 16  2  0  0  0  0
 19  2  2  0  0  0  0
 20 12  1  0  0  0  0
 21 20  1  0  0  0  0
 22 23  2  0  0  0  0
 23 19  1  0  0  0  0
M  END
> <CdId>
1906

> <Mol Weight>
422.1773

> <Formula>
C15H11IN4O3

> <Click_ID>
CLK025_E11 __ __ 

$$$$
