CLK039D06
 OpenBabel03181404502D

 19 20  0  0  0  0  0  0  0  0999 V2000
    0.3375   -0.5417    0.0000 S   0  0  0  0  0  0  0  0  0  0  0  0
    0.3375    0.2833    0.0000 N   0  0  0  0  0  0  0  0  0  0  0  0
    0.3375   -1.3667    0.0000 C   0  0  0  0  0  0  0  0  0  0  0  0
    1.0500    3.1708    0.0000 C   0  0  0  0  0  0  0  0  0  0  0  0
   -0.4875   -0.5417    0.0000 O   0  0  0  0  0  0  0  0  0  0  0  0
    1.1625   -0.5417    0.0000 O   0  0  0  0  0  0  0  0  0  0  0  0
    0.3375    1.9333    0.0000 N   0  0  0  0  0  0  0  0  0  0  0  0
    1.7667    3.5833    0.0000 C   0  0  0  0  0  0  0  0  0  0  0  0
    1.0500    0.6958    0.0000 C   0  0  0  0  0  0  0  0  0  0  0  0
   -0.3792    0.6958    0.0000 C   0  0  0  0  0  0  0  0  0  0  0  0
   -0.3792    1.5208    0.0000 C   0  0  0  0  0  0  0  0  0  0  0  0
    1.0500    1.5208    0.0000 C   0  0  0  0  0  0  0  0  0  0  0  0
    0.3375    2.7583    0.0000 C   0  0  0  0  0  0  0  0  0  0  0  0
   -0.3792   -1.7792    0.0000 C   0  0  0  0  0  0  0  0  0  0  0  0
   -0.3792   -2.6042    0.0000 C   0  0  0  0  0  0  0  0  0  0  0  0
   -1.0917   -1.3667    0.0000 C   0  0  0  0  0  0  0  0  0  0  0  0
   -1.8083   -1.7792    0.0000 C   0  0  0  0  0  0  0  0  0  0  0  0
   -1.0917   -3.0167    0.0000 C   0  0  0  0  0  0  0  0  0  0  0  0
   -1.8083   -2.6042    0.0000 C   0  0  0  0  0  0  0  0  0  0  0  0
  2  1  1  0  0  0  0
  3  1  1  0  0  0  0
  4 13  1  0  0  0  0
  5  1  2  0  0  0  0
  6  1  2  0  0  0  0
  7 11  1  0  0  0  0
  7 12  1  0  0  0  0
  8  4  3  0  0  0  0
  9  2  1  0  0  0  0
 10  2  1  0  0  0  0
 11 10  1  0  0  0  0
 12  9  1  0  0  0  0
 13  7  1  0  0  0  0
 14  3  1  0  0  0  0
 15 14  2  0  0  0  0
 16 14  1  0  0  0  0
 17 16  2  0  0  0  0
 18 15  1  0  0  0  0
 19 18  2  0  0  0  0
 19 17  1  0  0  0  0
M  END
> <CdId>
2964

> <Mol Weight>
278.37

> <Formula>
C14H18N2O2S

> <Click_ID>
CLK039D06 __ __ 

$$$$
