CLK025_C07
 OpenBabel03181404502D

 24 26  0  0  0  0  0  0  0  0999 V2000
   -0.3495    0.3495    0.0000 C    0  0  3  0  0  0  0  0  0  0  0  0
    0.1189   -0.2831    0.0000 C    0  0  0  0  0  0  0  0  0  0  0  0
   -1.1324    0.0944    0.0000 C    0  0  0  0  0  0  0  0  0  0  0  0
   -0.3495   -0.9821    0.0000 N    0  0  0  0  0  0  0  0  0  0  0  0
   -1.1324   -0.7340    0.0000 C    0  0  0  0  0  0  0  0  0  0  0  0
    0.4963    1.1219    0.0000 C    0  0  0  0  0  0  0  0  0  0  0  0
    1.4575    0.9542    0.0000 C    0  0  0  0  0  0  0  0  0  0  0  0
   -0.6012   -2.3907    0.0000 C    0  0  0  0  0  0  0  0  0  0  0  0
   -1.8490   -1.1464    0.0000 C    0  0  0  0  0  0  0  0  0  0  0  0
   -1.1359   -3.0128    0.0000 C    0  0  0  0  0  0  0  0  0  0  0  0
   -1.8490    0.5138    0.0000 C    0  0  0  0  0  0  0  0  0  0  0  0
    0.9087   -0.3495    0.0000 O    0  0  0  0  0  0  0  0  0  0  0  0
    1.9572    1.6043    0.0000 C    0  0  0  0  0  0  0  0  0  0  0  0
    2.7751    1.4925    0.0000 N    0  0  0  0  0  0  0  0  0  0  0  0
   -0.0734   -1.7651    0.0000 C    0  0  0  0  0  0  0  0  0  0  0  0
   -0.7375    1.2268    0.0000 O    0  0  0  0  0  0  0  0  0  0  0  0
    1.7301    0.3670    0.0000 O    0  0  0  0  0  0  0  0  0  0  0  0
   -2.5584    0.0944    0.0000 C    0  0  0  0  0  0  0  0  0  0  0  0
   -2.5584   -0.7340    0.0000 C    0  0  0  0  0  0  0  0  0  0  0  0
   -3.2750    0.5033    0.0000 Br   0  0  0  0  0  0  0  0  0  0  0  0
    3.2714    2.1460    0.0000 C    0  0  0  0  0  0  0  0  0  0  0  0
    1.6392    2.3662    0.0000 C    0  0  0  0  0  0  0  0  0  0  0  0
    2.9674    2.9080    0.0000 C    0  0  0  0  0  0  0  0  0  0  0  0
    2.1495    3.0163    0.0000 C    0  0  0  0  0  0  0  0  0  0  0  0
  2  1  1  0  0  0  0
  3  1  1  0  0  0  0
  4  2  1  0  0  0  0
  5  3  2  0  0  0  0
  5  4  1  0  0  0  0
  6  1  1  0  0  0  0
  7  6  1  0  0  0  0
  8 15  1  0  0  0  0
  9  5  1  0  0  0  0
 10  8  3  0  0  0  0
 11  3  1  0  0  0  0
 12  2  2  0  0  0  0
 13  7  1  0  0  0  0
 14 13  1  0  0  0  0
 15  4  1  0  0  0  0
 16  1  1  0  0  0  0
 17  7  2  0  0  0  0
 18 11  2  0  0  0  0
 19 18  1  0  0  0  0
 19  9  2  0  0  0  0
 20 18  1  0  0  0  0
 21 14  2  0  0  0  0
 21 23  1  0  0  0  0
 22 13  2  0  0  0  0
 23 24  2  0  0  0  0
 24 22  1  0  0  0  0
M  END
> <CdId>
1882

> <Mol Weight>
385.211

> <Formula>
C18H13BrN2O3

> <Click_ID>
CLK025_C07 __ __ 

$$$$
