CLK013_A03
 OpenBabel03181404502D

 22 23  0  0  0  0  0  0  0  0999 V2000
    6.8042    1.6458    0.0000 N   0  3  0  0  0  0  0  0  0  0  0  0
   -0.3250   -0.8542    0.0000 C   0  0  0  0  0  0  0  0  0  0  0  0
    6.0917    1.2333    0.0000 C   0  0  0  0  0  0  0  0  0  0  0  0
   -0.3250   -0.0292    0.0000 C   0  0  0  0  0  0  0  0  0  0  0  0
    2.5250   -0.0167    0.0000 C   0  0  0  0  0  0  0  0  0  0  0  0
    7.5250    1.2458    0.0000 O   0  5  0  0  0  0  0  0  0  0  0  0
    2.5292   -0.8417    0.0000 N   0  0  0  0  0  0  0  0  0  0  0  0
    6.8042    2.4750    0.0000 O   0  0  0  0  0  0  0  0  0  0  0  0
    1.8167   -1.2625    0.0000 C   0  0  0  0  0  0  0  0  0  0  0  0
    1.8042    0.3958    0.0000 O   0  0  0  0  0  0  0  0  0  0  0  0
    5.3667    1.6458    0.0000 C   0  0  0  0  0  0  0  0  0  0  0  0
    6.0917    0.4083    0.0000 C   0  0  0  0  0  0  0  0  0  0  0  0
    0.3875   -1.2625    0.0000 C   0  0  0  0  0  0  0  0  0  0  0  0
    3.9542   -0.0125    0.0000 O   0  0  0  0  0  0  0  0  0  0  0  0
    3.2375    0.3958    0.0000 C   0  0  0  0  0  0  0  0  0  0  0  0
    1.1000   -0.8500    0.0000 C   0  0  0  0  0  0  0  0  0  0  0  0
    4.6667    0.4000    0.0000 C   0  0  0  0  0  0  0  0  0  0  0  0
    4.6625    1.2250    0.0000 C   0  0  0  0  0  0  0  0  0  0  0  0
    5.3792   -0.0042    0.0000 C   0  0  0  0  0  0  0  0  0  0  0  0
    1.1000   -2.5042    0.0000 C   0  0  0  0  0  0  0  0  0  0  0  0
    1.8167   -2.0917    0.0000 C   0  0  0  0  0  0  0  0  0  0  0  0
    0.3875   -2.0917    0.0000 C   0  0  0  0  0  0  0  0  0  0  0  0
  2 13  1  0  0  0  0
  3  1  1  0  0  0  0
  4  2  3  0  0  0  0
  5 15  1  0  0  0  0
  6  1  1  0  0  0  0
  7  5  1  0  0  0  0
  8  1  2  0  0  0  0
  9  7  1  0  0  0  0
 10  5  2  0  0  0  0
 11  3  1  0  0  0  0
 12  3  2  0  0  0  0
 13 16  1  0  0  0  0
 13 22  2  0  0  0  0
 14 17  1  0  0  0  0
 15 14  1  0  0  0  0
 16  9  2  0  0  0  0
 17 19  2  0  0  0  0
 18 11  2  0  0  0  0
 18 17  1  0  0  0  0
 19 12  1  0  0  0  0
 20 21  2  0  0  0  0
 21  9  1  0  0  0  0
 22 20  1  0  0  0  0
M  END
> <CdId>
918

> <Mol Weight>
296.2775

> <Formula>
C16H12N2O4

> <Click_ID>
CLK013_A03 __ __ 

$$$$
