CLK044G10
 OpenBabel03181404502D

 15 15  0  0  0  0  0  0  0  0999 V2000
    0.9042    3.0000    0.0000 C   0  0  0  0  0  0  0  0  0  0  0  0
    0.9042    3.8250    0.0000 C   0  0  0  0  0  0  0  0  0  0  0  0
    0.1875    0.9375    0.0000 C   0  0  0  0  0  0  0  0  0  0  0  0
    0.9042    0.5250    0.0000 O   0  0  0  0  0  0  0  0  0  0  0  0
    0.1875    1.7625    0.0000 N   0  0  0  0  0  0  0  0  0  0  0  0
   -0.5250    0.5250    0.0000 C   0  0  0  0  0  0  0  0  0  0  0  0
   -0.5250   -0.3000    0.0000 C   0  0  0  0  0  0  0  0  0  0  0  0
   -0.5250   -1.9500    0.0000 C   0  0  0  0  0  0  0  0  0  0  0  0
    0.9042    2.1750    0.0000 C   0  0  0  0  0  0  0  0  0  0  0  0
    0.1875   -0.7125    0.0000 C   0  0  0  0  0  0  0  0  0  0  0  0
   -1.2417   -0.7125    0.0000 C   0  0  0  0  0  0  0  0  0  0  0  0
    0.1875   -1.5375    0.0000 C   0  0  0  0  0  0  0  0  0  0  0  0
   -1.2417   -1.5375    0.0000 C   0  0  0  0  0  0  0  0  0  0  0  0
   -0.5250   -2.7750    0.0000 O   0  0  0  0  0  0  0  0  0  0  0  0
    0.1875   -3.1875    0.0000 C   0  0  0  0  0  0  0  0  0  0  0  0
  2  1  3  0  0  0  0
  3  5  1  0  0  0  0
  4  3  2  0  0  0  0
  5  9  1  0  0  0  0
  6  3  1  0  0  0  0
  7  6  1  0  0  0  0
  8 13  2  0  0  0  0
  9  1  1  0  0  0  0
 10  7  1  0  0  0  0
 11  7  2  0  0  0  0
 12 10  2  0  0  0  0
 12  8  1  0  0  0  0
 13 11  1  0  0  0  0
 14  8  1  0  0  0  0
 15 14  1  0  0  0  0
M  END
> <CdId>
3399

> <Mol Weight>
203.2371

> <Formula>
C12H13NO2

> <Click_ID>
CLK044G10 __ __ 

$$$$
