CLK037C02
 OpenBabel03181404502D

 22 22  0  0  0  0  0  0  0  0999 V2000
   -0.2958   -0.6917    0.0000 C   0  0  0  0  0  0  0  0  0  0  0  0
   -0.2958    0.1333    0.0000 C   0  0  0  0  0  0  0  0  0  0  0  0
   -0.2958    1.7833    0.0000 C   0  0  0  0  0  0  0  0  0  0  0  0
    0.4208    1.3708    0.0000 C   0  0  0  0  0  0  0  0  0  0  0  0
   -1.0083    1.3708    0.0000 C   0  0  0  0  0  0  0  0  0  0  0  0
    0.4208   -1.1042    0.0000 N   0  0  0  0  0  0  0  0  0  0  0  0
    0.4208   -2.7542    0.0000 C   0  0  0  0  0  0  0  0  0  0  0  0
   -1.0083    0.5458    0.0000 C   0  0  0  0  0  0  0  0  0  0  0  0
    0.4208    0.5458    0.0000 C   0  0  0  0  0  0  0  0  0  0  0  0
    0.4208   -3.5792    0.0000 C   0  0  0  0  0  0  0  0  0  0  0  0
    0.4208   -1.9292    0.0000 C   0  0  0  0  0  0  0  0  0  0  0  0
   -1.0083   -1.1042    0.0000 O   0  0  0  0  0  0  0  0  0  0  0  0
   -0.2958    2.6083    0.0000 O   0  0  0  0  0  0  0  0  0  0  0  0
   -1.7250    1.7833    0.0000 O   0  0  0  0  0  0  0  0  0  0  0  0
    1.1333    1.7833    0.0000 O   0  0  0  0  0  0  0  0  0  0  0  0
    1.2458   -1.9292    0.0000 C   0  0  0  0  0  0  0  0  0  0  0  0
   -0.4042   -1.9292    0.0000 C   0  0  0  0  0  0  0  0  0  0  0  0
    0.4208    3.0208    0.0000 C   0  0  0  0  0  0  0  0  0  0  0  0
   -1.7250    2.6083    0.0000 C   0  0  0  0  0  0  0  0  0  0  0  0
    1.8500    1.3708    0.0000 C   0  0  0  0  0  0  0  0  0  0  0  0
   -0.8167   -1.2167    0.0000 C   0  0  0  0  0  0  0  0  0  0  0  0
    1.6583   -2.6417    0.0000 C   0  0  0  0  0  0  0  0  0  0  0  0
  2  1  1  0  0  0  0
  3  5  2  0  0  0  0
  3  4  1  0  0  0  0
  4  9  2  0  0  0  0
  5  8  1  0  0  0  0
  6  1  1  0  0  0  0
  7 11  1  0  0  0  0
  8  2  2  0  0  0  0
  9  2  1  0  0  0  0
 10  7  3  0  0  0  0
 11  6  1  0  0  0  0
 12  1  2  0  0  0  0
 13  3  1  0  0  0  0
 14  5  1  0  0  0  0
 15  4  1  0  0  0  0
 16 11  1  0  0  0  0
 17 11  1  0  0  0  0
 18 13  1  0  0  0  0
 19 14  1  0  0  0  0
 20 15  1  0  0  0  0
 21 17  1  0  0  0  0
 22 16  1  0  0  0  0
M  END
> <CdId>
2771

> <Mol Weight>
305.3688

> <Formula>
C17H23NO4

> <Click_ID>
CLK037C02 __ __ 

$$$$
