CLK040E02
 OpenBabel03181404502D

 22 23  0  0  0  0  0  0  0  0999 V2000
   -0.2958    2.0833    0.0000 S   0  0  0  0  0  0  0  0  0  0  0  0
   -0.2958   -1.2167    0.0000 C   0  0  0  0  0  0  0  0  0  0  0  0
    0.4208   -1.6292    0.0000 N   0  0  0  0  0  0  0  0  0  0  0  0
   -0.2958    1.2583    0.0000 C   0  0  0  0  0  0  0  0  0  0  0  0
    0.4208    4.1417    0.0000 C   0  0  0  0  0  0  0  0  0  0  0  0
    0.4208    4.9667    0.0000 C   0  0  0  0  0  0  0  0  0  0  0  0
   -1.1208    2.0833    0.0000 O   0  0  0  0  0  0  0  0  0  0  0  0
    0.5292    2.0833    0.0000 O   0  0  0  0  0  0  0  0  0  0  0  0
    0.4208   -2.4542    0.0000 C   0  0  0  0  0  0  0  0  0  0  0  0
   -0.2958   -0.3917    0.0000 C   0  0  0  0  0  0  0  0  0  0  0  0
   -0.2958    2.9083    0.0000 N   0  0  0  0  0  0  0  0  0  0  0  0
    1.1333   -2.8667    0.0000 N   0  0  0  0  0  0  0  0  0  0  0  0
   -1.0083   -1.6292    0.0000 O   0  0  0  0  0  0  0  0  0  0  0  0
    0.4208    0.8458    0.0000 C   0  0  0  0  0  0  0  0  0  0  0  0
   -1.0083    0.8458    0.0000 C   0  0  0  0  0  0  0  0  0  0  0  0
    0.4208    0.0208    0.0000 C   0  0  0  0  0  0  0  0  0  0  0  0
   -1.0083    0.0208    0.0000 C   0  0  0  0  0  0  0  0  0  0  0  0
    0.4208    3.3208    0.0000 C   0  0  0  0  0  0  0  0  0  0  0  0
    1.1333   -3.6917    0.0000 C   0  0  0  0  0  0  0  0  0  0  0  0
   -0.2958   -2.8667    0.0000 C   0  0  0  0  0  0  0  0  0  0  0  0
    0.4208   -4.1042    0.0000 C   0  0  0  0  0  0  0  0  0  0  0  0
   -0.2958   -3.6917    0.0000 C   0  0  0  0  0  0  0  0  0  0  0  0
  2 10  1  0  0  0  0
  3  2  1  0  0  0  0
  4  1  1  0  0  0  0
  5 18  1  0  0  0  0
  6  5  3  0  0  0  0
  7  1  2  0  0  0  0
  8  1  2  0  0  0  0
  9  3  1  0  0  0  0
 10 17  2  0  0  0  0
 11  1  1  0  0  0  0
 12  9  2  0  0  0  0
 13  2  2  0  0  0  0
 14  4  1  0  0  0  0
 15  4  2  0  0  0  0
 16 14  2  0  0  0  0
 16 10  1  0  0  0  0
 17 15  1  0  0  0  0
 18 11  1  0  0  0  0
 19 12  1  0  0  0  0
 20  9  1  0  0  0  0
 21 19  2  0  0  0  0
 21 22  1  0  0  0  0
 22 20  2  0  0  0  0
M  END
> <CdId>
3013

> <Mol Weight>
315.347

> <Formula>
C15H13N3O3S

> <Click_ID>
CLK040E02 __ __ 

$$$$
