CLK037B06
 OpenBabel03181404502D

 24 25  0  0  0  0  0  0  0  0999 V2000
    1.4250   -2.7833    0.0000 C   0  0  0  0  0  0  0  0  0  0  0  0
    1.4250   -3.6083    0.0000 C   0  0  0  0  0  0  0  0  0  0  0  0
    0.7125   -0.7208    0.0000 C   0  0  0  0  0  0  0  0  0  0  0  0
   -0.7167    1.7542    0.0000 C   0  0  0  0  0  0  0  0  0  0  0  0
    1.4250   -1.1333    0.0000 N   0  0  0  0  0  0  0  0  0  0  0  0
    1.4250   -1.9583    0.0000 C   0  0  0  0  0  0  0  0  0  0  0  0
    0.0000    1.3417    0.0000 C   0  0  0  0  0  0  0  0  0  0  0  0
    0.0000    0.5167    0.0000 O   0  0  0  0  0  0  0  0  0  0  0  0
    0.0000   -1.1333    0.0000 O   0  0  0  0  0  0  0  0  0  0  0  0
   -1.4292    1.3417    0.0000 C   0  0  0  0  0  0  0  0  0  0  0  0
    0.7125    0.1042    0.0000 C   0  0  0  0  0  0  0  0  0  0  0  0
   -0.7167    2.5792    0.0000 C   0  0  0  0  0  0  0  0  0  0  0  0
    0.6000   -1.9583    0.0000 C   0  0  0  0  0  0  0  0  0  0  0  0
    2.2500   -1.9583    0.0000 C   0  0  0  0  0  0  0  0  0  0  0  0
    0.7125    1.7542    0.0000 C   0  0  0  0  0  0  0  0  0  0  0  0
   -2.1458    1.7542    0.0000 C   0  0  0  0  0  0  0  0  0  0  0  0
   -1.4292    0.5167    0.0000 C   0  0  0  0  0  0  0  0  0  0  0  0
    2.6625   -2.6708    0.0000 C   0  0  0  0  0  0  0  0  0  0  0  0
    0.1875   -1.2417    0.0000 C   0  0  0  0  0  0  0  0  0  0  0  0
    0.0000    2.9917    0.0000 C   0  0  0  0  0  0  0  0  0  0  0  0
    0.7125    2.5792    0.0000 C   0  0  0  0  0  0  0  0  0  0  0  0
   -2.8583    1.3417    0.0000 C   0  0  0  0  0  0  0  0  0  0  0  0
   -2.1458    0.1042    0.0000 C   0  0  0  0  0  0  0  0  0  0  0  0
   -2.8583    0.5167    0.0000 C   0  0  0  0  0  0  0  0  0  0  0  0
  2  1  3  0  0  0  0
  3  5  1  0  0  0  0
  4  7  2  0  0  0  0
  5  6  1  0  0  0  0
  6  1  1  0  0  0  0
  7  8  1  0  0  0  0
  8 11  1  0  0  0  0
  9  3  2  0  0  0  0
 10  4  1  0  0  0  0
 11  3  1  0  0  0  0
 12  4  1  0  0  0  0
 13  6  1  0  0  0  0
 14  6  1  0  0  0  0
 15  7  1  0  0  0  0
 16 10  1  0  0  0  0
 17 10  2  0  0  0  0
 18 14  1  0  0  0  0
 19 13  1  0  0  0  0
 20 12  2  0  0  0  0
 20 21  1  0  0  0  0
 21 15  2  0  0  0  0
 22 16  2  0  0  0  0
 23 17  1  0  0  0  0
 24 23  2  0  0  0  0
 24 22  1  0  0  0  0
M  END
> <CdId>
2802

> <Mol Weight>
321.4128

> <Formula>
C21H23NO2

> <Click_ID>
CLK037B06 __ __ 

$$$$
