CLK041C07
 OpenBabel03181404502D

 23 24  0  0  0  0  0  0  0  0999 V2000
   -0.5708    2.1583    0.0000 S   0  0  0  0  0  0  0  0  0  0  0  0
   -0.5708   -1.1417    0.0000 C   0  0  0  0  0  0  0  0  0  0  0  0
    0.1458   -1.5542    0.0000 N   0  0  0  0  0  0  0  0  0  0  0  0
    0.8583   -2.7917    0.0000 C   0  0  0  0  0  0  0  0  0  0  0  0
   -0.5708    1.3333    0.0000 C   0  0  0  0  0  0  0  0  0  0  0  0
    0.1458    4.2167    0.0000 C   0  0  0  0  0  0  0  0  0  0  0  0
    0.1458    5.0417    0.0000 C   0  0  0  0  0  0  0  0  0  0  0  0
    0.2542    2.1583    0.0000 O   0  0  0  0  0  0  0  0  0  0  0  0
   -1.3958    2.1583    0.0000 O   0  0  0  0  0  0  0  0  0  0  0  0
    0.1458   -2.3792    0.0000 C   0  0  3  0  0  0  0  0  0  0  0  0
   -0.5708   -0.3167    0.0000 C   0  0  0  0  0  0  0  0  0  0  0  0
    1.6125   -2.4542    0.0000 O   0  0  0  0  0  0  0  0  0  0  0  0
   -0.5708    2.9833    0.0000 N   0  0  0  0  0  0  0  0  0  0  0  0
   -1.2833   -1.5542    0.0000 O   0  0  0  0  0  0  0  0  0  0  0  0
    0.9458   -3.6125    0.0000 C   0  0  0  0  0  0  0  0  0  0  0  0
    2.1667   -3.0667    0.0000 C   0  0  0  0  0  0  0  0  0  0  0  0
    1.7542   -3.7833    0.0000 C   0  0  0  0  0  0  0  0  0  0  0  0
   -1.2833    0.9208    0.0000 C   0  0  0  0  0  0  0  0  0  0  0  0
    0.1458    0.9208    0.0000 C   0  0  0  0  0  0  0  0  0  0  0  0
   -1.2833    0.0958    0.0000 C   0  0  0  0  0  0  0  0  0  0  0  0
    0.1458    0.0958    0.0000 C   0  0  0  0  0  0  0  0  0  0  0  0
    0.1458    3.3958    0.0000 C   0  0  0  0  0  0  0  0  0  0  0  0
   -0.5708   -2.7917    0.0000 C   0  0  0  0  0  0  0  0  0  0  0  0
  2 11  1  0  0  0  0
  3  2  1  0  0  0  0
  4 10  1  0  0  0  0
  5  1  1  0  0  0  0
  6 22  1  0  0  0  0
  7  6  3  0  0  0  0
  8  1  2  0  0  0  0
  9  1  2  0  0  0  0
 10  3  1  0  0  0  0
 11 20  2  0  0  0  0
 12  4  1  0  0  0  0
 13  1  1  0  0  0  0
 14  2  2  0  0  0  0
 15  4  2  0  0  0  0
 16 12  1  0  0  0  0
 16 17  2  0  0  0  0
 17 15  1  0  0  0  0
 18  5  2  0  0  0  0
 19  5  1  0  0  0  0
 20 18  1  0  0  0  0
 21 19  2  0  0  0  0
 21 11  1  0  0  0  0
 22 13  1  0  0  0  0
 23 10  1  0  0  0  0
M  END
> <CdId>
3131

> <Mol Weight>
332.374

> <Formula>
C16H16N2O4S

> <Click_ID>
CLK041C07 __ __ 

$$$$
