CLK044F03
 OpenBabel03181404502D

 26 27  0  0  0  0  0  0  0  0999 V2000
   -0.7458    2.5875    0.0000 S   0  0  0  0  0  0  0  0  0  0  0  0
   -0.7458   -0.7125    0.0000 C   0  0  0  0  0  0  0  0  0  0  0  0
   -0.0292   -1.1250    0.0000 N   0  0  0  0  0  0  0  0  0  0  0  0
   -0.7458    1.7625    0.0000 C   0  0  0  0  0  0  0  0  0  0  0  0
   -0.0292    4.6458    0.0000 C   0  0  0  0  0  0  0  0  0  0  0  0
   -0.0292    5.4708    0.0000 C   0  0  0  0  0  0  0  0  0  0  0  0
   -1.5708    2.5875    0.0000 O   0  0  0  0  0  0  0  0  0  0  0  0
    0.0792    2.5875    0.0000 O   0  0  0  0  0  0  0  0  0  0  0  0
   -0.7458    0.1125    0.0000 C   0  0  0  0  0  0  0  0  0  0  0  0
   -0.7458    3.4125    0.0000 N   0  0  0  0  0  0  0  0  0  0  0  0
   -0.0292   -1.9500    0.0000 C   0  0  3  0  0  0  0  0  0  0  0  0
    0.6833   -2.3625    0.0000 C   0  0  0  0  0  0  0  0  0  0  0  0
   -1.4583   -1.1250    0.0000 O   0  0  0  0  0  0  0  0  0  0  0  0
   -1.4583    1.3500    0.0000 C   0  0  0  0  0  0  0  0  0  0  0  0
   -0.0292    1.3500    0.0000 C   0  0  0  0  0  0  0  0  0  0  0  0
   -1.4583    0.5250    0.0000 C   0  0  0  0  0  0  0  0  0  0  0  0
   -0.0292    0.5250    0.0000 C   0  0  0  0  0  0  0  0  0  0  0  0
    0.6833   -3.1875    0.0000 C   0  0  0  0  0  0  0  0  0  0  0  0
    1.4000   -1.9500    0.0000 C   0  0  0  0  0  0  0  0  0  0  0  0
    2.1125   -2.3625    0.0000 C   0  0  0  0  0  0  0  0  0  0  0  0
    1.4000   -3.6000    0.0000 C   0  0  0  0  0  0  0  0  0  0  0  0
   -0.0292    3.8250    0.0000 C   0  0  0  0  0  0  0  0  0  0  0  0
    2.1125   -3.1875    0.0000 C   0  0  0  0  0  0  0  0  0  0  0  0
   -0.7458   -2.3625    0.0000 C   0  0  0  0  0  0  0  0  0  0  0  0
    2.8292   -3.6000    0.0000 C   0  0  0  0  0  0  0  0  0  0  0  0
   -0.7458   -3.1875    0.0000 C   0  0  0  0  0  0  0  0  0  0  0  0
  2  9  1  0  0  0  0
  3  2  1  0  0  0  0
  4  1  1  0  0  0  0
  5 22  1  0  0  0  0
  6  5  3  0  0  0  0
  7  1  2  0  0  0  0
  8  1  2  0  0  0  0
  9 16  2  0  0  0  0
 10  1  1  0  0  0  0
 11  3  1  0  0  0  0
 12 11  1  0  0  0  0
 13  2  2  0  0  0  0
 14  4  2  0  0  0  0
 15  4  1  0  0  0  0
 16 14  1  0  0  0  0
 17 15  2  0  0  0  0
 17  9  1  0  0  0  0
 18 12  1  0  0  0  0
 19 12  2  0  0  0  0
 20 19  1  0  0  0  0
 21 18  2  0  0  0  0
 22 10  1  0  0  0  0
 23 20  2  0  0  0  0
 23 21  1  0  0  0  0
 24 11  1  0  0  0  0
 25 23  1  0  0  0  0
 26 24  1  0  0  0  0
M  END
> <CdId>
3342

> <Mol Weight>
370.465

> <Formula>
C20H22N2O3S

> <Click_ID>
CLK044F03 __ __ 

$$$$
