CLK009_C06
 OpenBabel03181404502D

 39 44  0  0  0  0  0  0  0  0999 V2000
    3.4297    0.0377    0.0000 N   0  0  0  0  0  0  0  0  0  0  0  0
   -3.4768   -0.0331    0.0000 N   0  0  0  0  0  0  0  0  0  0  0  0
    2.9627    0.7312    0.0000 C   0  0  0  0  0  0  0  0  0  0  0  0
   -2.9815    0.6038    0.0000 C   0  0  0  0  0  0  0  0  0  0  0  0
    2.9296   -0.5992    0.0000 C   0  0  0  0  0  0  0  0  0  0  0  0
   -2.9956   -0.7218    0.0000 C   0  0  0  0  0  0  0  0  0  0  0  0
   -2.2031    0.3632    0.0000 C   0  0  0  0  0  0  0  0  0  0  0  0
    2.1371    0.4670    0.0000 C   0  0  0  0  0  0  0  0  0  0  0  0
   -2.2031   -0.4576    0.0000 C   0  0  0  0  0  0  0  0  0  0  0  0
    2.1512   -0.3727    0.0000 C   0  0  0  0  0  0  0  0  0  0  0  0
    4.2647    0.0377    0.0000 C   0  0  0  0  0  0  0  0  0  0  0  0
   -4.3166   -0.0331    0.0000 C   0  0  0  0  0  0  0  0  0  0  0  0
    5.9206    1.4294    0.0000 C   0  0  0  0  0  0  0  0  0  0  0  0
   -5.9394    1.3822    0.0000 C   0  0  0  0  0  0  0  0  0  0  0  0
    1.4342   -0.7690    0.0000 C   0  0  0  0  0  0  0  0  0  0  0  0
   -1.4105   -0.8115    0.0000 C   0  0  0  0  0  0  0  0  0  0  0  0
    5.4677    2.0946    0.0000 C   0  0  0  0  0  0  0  0  0  0  0  0
   -5.5054    2.0898    0.0000 C   0  0  0  0  0  0  0  0  0  0  0  0
   -3.2268    1.3822    0.0000 O   0  0  0  0  0  0  0  0  0  0  0  0
    3.2127    1.4954    0.0000 O   0  0  0  0  0  0  0  0  0  0  0  0
   -3.2268   -1.4908    0.0000 O   0  0  0  0  0  0  0  0  0  0  0  0
    3.1750   -1.3917    0.0000 O   0  0  0  0  0  0  0  0  0  0  0  0
   -1.4954    0.8067    0.0000 C   0  0  0  0  0  0  0  0  0  0  0  0
    1.4483    0.8869    0.0000 C   0  0  0  0  0  0  0  0  0  0  0  0
    4.7318    0.7170    0.0000 C   0  0  0  0  0  0  0  0  0  0  0  0
   -4.7506    0.6746    0.0000 C   0  0  0  0  0  0  0  0  0  0  0  0
   -0.7170    0.4481    0.0000 C   0  0  0  0  0  0  0  0  0  0  0  0
    0.7124    0.4670    0.0000 C   0  0  0  0  0  0  0  0  0  0  0  0
   -0.0142    0.8727    0.0000 O   0  0  0  0  0  0  0  0  0  0  0  0
    5.5337    0.7170    0.0000 C   0  0  0  0  0  0  0  0  0  0  0  0
   -5.5573    0.6746    0.0000 C   0  0  0  0  0  0  0  0  0  0  0  0
    0.7124   -0.3586    0.0000 C   0  0  0  0  0  0  0  0  0  0  0  0
   -0.7170   -0.3821    0.0000 C   0  0  0  0  0  0  0  0  0  0  0  0
    4.6987   -0.6982    0.0000 C   0  0  0  0  0  0  0  0  0  0  0  0
   -4.7506   -0.7407    0.0000 C   0  0  0  0  0  0  0  0  0  0  0  0
   -5.5856   -0.7407    0.0000 C   0  0  0  0  0  0  0  0  0  0  0  0
    5.4535   -0.6982    0.0000 C   0  0  0  0  0  0  0  0  0  0  0  0
    5.9300   -0.0331    0.0000 C   0  0  0  0  0  0  0  0  0  0  0  0
   -5.9818   -0.0189    0.0000 C   0  0  0  0  0  0  0  0  0  0  0  0
  2  4  1  0  0  0  0
  2  6  1  0  0  0  0
  3  1  1  0  0  0  0
  4  7  1  0  0  0  0
  5  1  1  0  0  0  0
  6  9  1  0  0  0  0
  7 23  1  0  0  0  0
  7  9  2  0  0  0  0
  8  3  1  0  0  0  0
  8 10  2  0  0  0  0
  9 16  1  0  0  0  0
 10  5  1  0  0  0  0
 11  1  1  0  0  0  0
 12  2  1  0  0  0  0
 13 30  1  0  0  0  0
 14 31  1  0  0  0  0
 15 10  1  0  0  0  0
 16 33  2  0  0  0  0
 17 13  3  0  0  0  0
 18 14  3  0  0  0  0
 19  4  2  0  0  0  0
 20  3  2  0  0  0  0
 21  6  2  0  0  0  0
 22  5  2  0  0  0  0
 23 27  2  0  0  0  0
 24  8  1  0  0  0  0
 25 11  1  0  0  0  0
 26 12  2  0  0  0  0
 27 29  1  0  0  0  0
 28 24  2  0  0  0  0
 28 32  1  0  0  0  0
 29 28  1  0  0  0  0
 30 25  2  0  0  0  0
 31 26  1  0  0  0  0
 32 15  2  0  0  0  0
 33 27  1  0  0  0  0
 34 11  2  0  0  0  0
 35 12  1  0  0  0  0
 36 35  2  0  0  0  0
 37 34  1  0  0  0  0
 38 37  2  0  0  0  0
 38 30  1  0  0  0  0
 39 36  1  0  0  0  0
 39 31  2  0  0  0  0
M  END
> <CdId>
621

> <Mol Weight>
508.4798

> <Formula>
C32H16N2O5

> <Click_ID>
CLK009_C06 __ __ 

$$$$
