CLK009_C11
 OpenBabel03181404502D

 20 22  0  0  0  0  0  0  0  0999 V2000
   -3.9111    2.0950    0.0000 N   0  0  0  0  0  0  0  0  0  0  0  0
   -3.9111    2.9200    0.0000 C   0  0  0  0  0  0  0  0  0  0  0  0
   -4.6232    1.7033    0.0000 C   0  0  0  0  0  0  0  0  0  0  0  0
   -4.6232    3.3473    0.0000 N   0  0  0  0  0  0  0  0  0  0  0  0
   -5.3354    2.0950    0.0000 C   0  0  0  0  0  0  0  0  0  0  0  0
   -5.3354    2.9200    0.0000 C   0  0  0  0  0  0  0  0  0  0  0  0
   -2.4511    4.6054    0.0000 C   0  0  0  0  0  0  0  0  0  0  0  0
   -1.7389    5.0328    0.0000 C   0  0  0  0  0  0  0  0  0  0  0  0
   -4.6232    0.8724    0.0000 O   0  0  0  0  0  0  0  0  0  0  0  0
   -3.2049    1.6855    0.0000 C   0  0  0  0  0  0  0  0  0  0  0  0
   -3.1633    3.3769    0.0000 S   0  0  0  0  0  0  0  0  0  0  0  0
   -6.0476    1.7033    0.0000 C   0  0  0  0  0  0  0  0  0  0  0  0
   -3.1633    4.2137    0.0000 C   0  0  0  0  0  0  0  0  0  0  0  0
   -6.0476    3.3473    0.0000 C   0  0  0  0  0  0  0  0  0  0  0  0
   -3.1633    0.8843    0.0000 C   0  0  0  0  0  0  0  0  0  0  0  0
   -2.4867    2.0119    0.0000 C   0  0  0  0  0  0  0  0  0  0  0  0
   -6.7598    2.0950    0.0000 C   0  0  0  0  0  0  0  0  0  0  0  0
   -6.7598    2.9200    0.0000 C   0  0  0  0  0  0  0  0  0  0  0  0
   -2.3502    0.6884    0.0000 C   0  0  0  0  0  0  0  0  0  0  0  0
   -1.9229    1.3828    0.0000 C   0  0  0  0  0  0  0  0  0  0  0  0
  2  1  1  0  0  0  0
  3  1  1  0  0  0  0
  4  2  2  0  0  0  0
  4  6  1  0  0  0  0
  5  3  1  0  0  0  0
  6  5  2  0  0  0  0
  7 13  1  0  0  0  0
  8  7  3  0  0  0  0
  9  3  2  0  0  0  0
 10  1  1  0  0  0  0
 11  2  1  0  0  0  0
 12  5  1  0  0  0  0
 13 11  1  0  0  0  0
 14  6  1  0  0  0  0
 15 10  1  0  0  0  0
 16 10  1  0  0  0  0
 17 12  2  0  0  0  0
 18 17  1  0  0  0  0
 18 14  2  0  0  0  0
 19 15  1  0  0  0  0
 20 16  1  0  0  0  0
 20 19  1  0  0  0  0
M  END
> <CdId>
626

> <Mol Weight>
284.376

> <Formula>
C16H16N2OS

> <Click_ID>
CLK009_C11 __ __ 

$$$$
