CLK007_F02
 OpenBabel03181404502D

 33 37  0  0  0  0  0  0  0  0999 V2000
   -0.1173    0.6314    0.0000 C   0  0  3  0  0  0  0  0  0  0  0  0
   -0.8315    0.2208    0.0000 C   0  0  0  0  0  0  0  0  0  0  0  0
    0.6728    0.8453    0.0000 C   0  0  0  0  0  0  0  0  0  0  0  0
    0.5935    0.2208    0.0000 C   0  0  0  0  0  0  0  0  0  0  0  0
   -0.5693    1.3215    0.0000 C   0  0  0  0  0  0  0  0  0  0  0  0
   -0.8384   -0.6038    0.0000 C   0  0  0  0  0  0  0  0  0  0  0  0
   -1.5423    0.6314    0.0000 C   0  0  0  0  0  0  0  0  0  0  0  0
    0.7211    1.6700    0.0000 C   0  0  0  0  0  0  0  0  0  0  0  0
    1.3698    0.4071    0.0000 C   0  0  0  0  0  0  0  0  0  0  0  0
    0.5935   -0.6038    0.0000 C   0  0  0  0  0  0  0  0  0  0  0  0
    1.3077   -0.1932    0.0000 C   0  0  0  0  0  0  0  0  0  0  0  0
   -0.0552    1.9702    0.0000 N   0  0  0  0  0  0  0  0  0  0  0  0
   -1.1559    1.9080    0.0000 O   0  0  0  0  0  0  0  0  0  0  0  0
   -0.1277   -1.0178    0.0000 N   0  0  0  0  0  0  0  0  0  0  0  0
   -1.5423   -1.0178    0.0000 C   0  0  0  0  0  0  0  0  0  0  0  0
   -2.2566    0.2208    0.0000 C   0  0  0  0  0  0  0  0  0  0  0  0
   -2.1323    1.2214    0.0000 O   0  0  0  0  0  0  0  0  0  0  0  0
    1.4492    2.0598    0.0000 C   0  0  0  0  0  0  0  0  0  0  0  0
    2.1082    0.7833    0.0000 C   0  0  0  0  0  0  0  0  0  0  0  0
    1.3008   -1.0316    0.0000 N   0  0  0  0  0  0  0  0  0  0  0  0
    2.0219   -0.6038    0.0000 N   0  0  0  0  0  0  0  0  0  0  0  0
   -0.2761    2.7638    0.0000 C   0  0  0  0  0  0  0  0  0  0  0  0
   -0.1311   -1.8425    0.0000 C   0  0  0  0  0  0  0  0  0  0  0  0
   -2.2566   -0.6038    0.0000 C   0  0  0  0  0  0  0  0  0  0  0  0
    2.1461    1.6079    0.0000 C   0  0  0  0  0  0  0  0  0  0  0  0
    0.3002    3.3503    0.0000 C   0  0  0  0  0  0  0  0  0  0  0  0
   -0.8522   -2.2427    0.0000 C   0  0  0  0  0  0  0  0  0  0  0  0
    0.5831   -2.2566    0.0000 C   0  0  0  0  0  0  0  0  0  0  0  0
    0.0863    4.1473    0.0000 C   0  0  0  0  0  0  0  0  0  0  0  0
   -0.8557   -3.0708    0.0000 C   0  0  0  0  0  0  0  0  0  0  0  0
    0.5727   -3.0811    0.0000 C   0  0  0  0  0  0  0  0  0  0  0  0
   -0.1415   -3.4952    0.0000 C   0  0  0  0  0  0  0  0  0  0  0  0
   -0.1518   -4.3198    0.0000 F   0  0  0  0  0  0  0  0  0  0  0  0
  1  2  1  0  0  0  0
  1  3  1  0  0  0  0
  1  4  1  0  0  0  0
  1  5  1  0  0  0  0
  2  6  2  0  0  0  0
  2  7  1  0  0  0  0
  3  8  2  0  0  0  0
  3  9  1  0  0  0  0
  4 10  2  0  0  0  0
  4 11  1  0  0  0  0
  5 12  1  0  0  0  0
  5 13  2  0  0  0  0
  6 14  1  0  0  0  0
  6 15  1  0  0  0  0
  7 16  1  0  0  0  0
  7 17  2  0  0  0  0
  8 18  1  0  0  0  0
  8 12  1  0  0  0  0
  9 19  2  0  0  0  0
 10 20  1  0  0  0  0
 10 14  1  0  0  0  0
 11 21  3  0  0  0  0
 12 22  1  0  0  0  0
 14 23  1  0  0  0  0
 15 24  1  0  0  0  0
 16 24  1  0  0  0  0
 18 25  2  0  0  0  0
 19 25  1  0  0  0  0
 22 26  1  0  0  0  0
 23 27  2  0  0  0  0
 23 28  1  0  0  0  0
 26 29  3  0  0  0  0
 27 30  1  0  0  0  0
 28 31  2  0  0  0  0
 30 32  2  0  0  0  0
 31 32  1  0  0  0  0
 32 33  1  0  0  0  0
M  END
> <CdId>
531

> <Mol Weight>
438.4531

> <Formula>
C26H19FN4O2

> <Click_ID>
CLK007_F02 __ __ 

$$$$
