CLK037D10
 OpenBabel03181404502D

 27 28  0  0  0  0  0  0  0  0999 V2000
   -3.0208   -0.3333    0.0000 S    0  0  0  0  0  0  0  0  0  0  0  0
   -2.3042    0.0792    0.0000 C    0  0  0  0  0  0  0  0  0  0  0  0
    3.4125    0.0792    0.0000 C    0  0  0  0  0  0  0  0  0  0  0  0
   -0.1625   -0.3333    0.0000 C    0  0  0  0  0  0  0  0  0  0  0  0
   -5.1625   -0.7458    0.0000 C    0  0  0  0  0  0  0  0  0  0  0  0
   -0.8750    0.0792    0.0000 C    0  0  0  0  0  0  0  0  0  0  0  0
   -1.5917   -0.3333    0.0000 C    0  0  0  0  0  0  0  0  0  0  0  0
   -5.8750   -1.1583    0.0000 C    0  0  0  0  0  0  0  0  0  0  0  0
   -2.6083   -1.0500    0.0000 O    0  0  0  0  0  0  0  0  0  0  0  0
   -3.4333    0.3792    0.0000 O    0  0  0  0  0  0  0  0  0  0  0  0
   -3.7333   -0.7458    0.0000 N    0  0  0  0  0  0  0  0  0  0  0  0
    3.4125    0.9042    0.0000 C    0  0  0  0  0  0  0  0  0  0  0  0
    4.1250   -0.3333    0.0000 C    0  0  0  0  0  0  0  0  0  0  0  0
   -0.1625   -1.1583    0.0000 O    0  0  0  0  0  0  0  0  0  0  0  0
    2.6958   -0.3333    0.0000 O    0  0  0  0  0  0  0  0  0  0  0  0
    0.5542    0.0792    0.0000 O    0  0  0  0  0  0  0  0  0  0  0  0
    4.1250   -1.1583    0.0000 Cl   0  0  0  0  0  0  0  0  0  0  0  0
    2.6958    1.3167    0.0000 Cl   0  0  0  0  0  0  0  0  0  0  0  0
   -4.4458   -0.3333    0.0000 C    0  0  0  0  0  0  0  0  0  0  0  0
   -2.3042    0.9042    0.0000 C    0  0  0  0  0  0  0  0  0  0  0  0
   -0.8750    0.9042    0.0000 C    0  0  0  0  0  0  0  0  0  0  0  0
   -1.5917    1.3167    0.0000 C    0  0  0  0  0  0  0  0  0  0  0  0
    4.8417    0.9042    0.0000 C    0  0  0  0  0  0  0  0  0  0  0  0
    4.8417    0.0792    0.0000 C    0  0  0  0  0  0  0  0  0  0  0  0
    4.1250    1.3167    0.0000 C    0  0  0  0  0  0  0  0  0  0  0  0
    1.9833    0.0792    0.0000 C    0  0  0  0  0  0  0  0  0  0  0  0
    1.2667   -0.3333    0.0000 C    0  0  0  0  0  0  0  0  0  0  0  0
  2  1  1  0  0  0  0
  3 15  1  0  0  0  0
  4  6  1  0  0  0  0
  5 19  1  0  0  0  0
  6  7  2  0  0  0  0
  7  2  1  0  0  0  0
  8  5  3  0  0  0  0
  9  1  2  0  0  0  0
 10  1  2  0  0  0  0
 11  1  1  0  0  0  0
 12  3  1  0  0  0  0
 13  3  2  0  0  0  0
 14  4  2  0  0  0  0
 15 26  1  0  0  0  0
 16  4  1  0  0  0  0
 17 13  1  0  0  0  0
 18 12  1  0  0  0  0
 19 11  1  0  0  0  0
 20  2  2  0  0  0  0
 21  6  1  0  0  0  0
 22 20  1  0  0  0  0
 22 21  2  0  0  0  0
 23 24  2  0  0  0  0
 24 13  1  0  0  0  0
 25 12  2  0  0  0  0
 25 23  1  0  0  0  0
 26 27  1  0  0  0  0
 27 16  1  0  0  0  0
M  END
> <CdId>
2836

> <Mol Weight>
428.286

> <Formula>
C18H15Cl2NO5S

> <Click_ID>
CLK037D10 __ __ 

$$$$
