CLK016_F09
 OpenBabel03181404502D

 30 32  0  0  0  0  0  0  0  0999 V2000
    3.9461   -1.3404    0.0000 N   0  0  0  0  0  0  0  0  0  0  0  0
    4.1967   -2.1296    0.0000 C   0  0  0  0  0  0  0  0  0  0  0  0
    4.6101   -0.8561    0.0000 C   0  0  0  0  0  0  0  0  0  0  0  0
    5.2782   -1.3404    0.0000 C   0  0  0  0  0  0  0  0  0  0  0  0
    5.0235   -2.1296    0.0000 S   0  0  0  0  0  0  0  0  0  0  0  0
    6.0674   -1.0816    0.0000 C   0  0  0  0  0  0  0  0  0  0  0  0
    3.1486   -1.0816    0.0000 C   0  0  0  0  0  0  0  0  0  0  0  0
    2.5347   -1.6328    0.0000 C   0  0  0  0  0  0  0  0  0  0  0  0
    7.7419    3.1527    0.0000 C   0  0  0  0  0  0  0  0  0  0  0  0
    7.9215    3.9419    0.0000 C   0  0  0  0  0  0  0  0  0  0  0  0
    1.7538   -1.3822    0.0000 N   0  0  0  0  0  0  0  0  0  0  0  0
    3.7123   -2.7978    0.0000 O   0  0  0  0  0  0  0  0  0  0  0  0
    4.6101   -0.0293    0.0000 O   0  0  0  0  0  0  0  0  0  0  0  0
    0.6264    0.4969    0.0000 C   0  0  0  0  0  0  0  0  0  0  0  0
    1.5827   -0.5679    0.0000 C   0  0  0  0  0  0  0  0  0  0  0  0
    0.7934   -0.3174    0.0000 C   0  0  0  0  0  0  0  0  0  0  0  0
    1.2444    1.0481    0.0000 C   0  0  0  0  0  0  0  0  0  0  0  0
    2.7101   -2.4470    0.0000 O   0  0  0  0  0  0  0  0  0  0  0  0
    6.2428   -0.2923    0.0000 C   0  0  0  0  0  0  0  0  0  0  0  0
    2.0294    0.7850    0.0000 C   0  0  0  0  0  0  0  0  0  0  0  0
    2.1965   -0.0167    0.0000 C   0  0  0  0  0  0  0  0  0  0  0  0
    6.5936    1.3112    0.0000 C   0  0  0  0  0  0  0  0  0  0  0  0
    7.0153   -0.0418    0.0000 C   0  0  0  0  0  0  0  0  0  0  0  0
    5.6373    0.2714    0.0000 C   0  0  0  0  0  0  0  0  0  0  0  0
    5.8169    1.0606    0.0000 C   0  0  0  0  0  0  0  0  0  0  0  0
    7.2032    0.7600    0.0000 C   0  0  0  0  0  0  0  0  0  0  0  0
    7.5582    2.3509    0.0000 C   0  0  0  0  0  0  0  0  0  0  0  0
    6.7773    2.1004    0.0000 O   0  0  0  0  0  0  0  0  0  0  0  0
   -0.1586    0.7516    0.0000 C   0  0  0  0  0  0  0  0  0  0  0  0
    1.0774    1.8540    0.0000 C   0  0  0  0  0  0  0  0  0  0  0  0
  2  1  1  0  0  0  0
  3  1  1  0  0  0  0
  4  3  1  0  0  0  0
  5  2  1  0  0  0  0
  5  4  1  0  0  0  0
  6  4  2  0  0  0  0
  7  1  1  0  0  0  0
  8  7  1  0  0  0  0
  9 27  1  0  0  0  0
 10  9  3  0  0  0  0
 11  8  1  0  0  0  0
 12  2  2  0  0  0  0
 13  3  2  0  0  0  0
 14 16  2  0  0  0  0
 14 17  1  0  0  0  0
 15 11  1  0  0  0  0
 16 15  1  0  0  0  0
 17 20  2  0  0  0  0
 18  8  2  0  0  0  0
 19  6  1  0  0  0  0
 20 21  1  0  0  0  0
 21 15  2  0  0  0  0
 22 25  2  0  0  0  0
 23 19  1  0  0  0  0
 24 19  2  0  0  0  0
 25 24  1  0  0  0  0
 26 23  2  0  0  0  0
 26 22  1  0  0  0  0
 27 28  1  0  0  0  0
 28 22  1  0  0  0  0
 29 14  1  0  0  0  0
 30 17  1  0  0  0  0
M  END
> <CdId>
1214

> <Mol Weight>
420.481

> <Formula>
C23H20N2O4S

> <Click_ID>
CLK016_F09 __ __ 

$$$$
