CLK026_A10
 OpenBabel03181404502D

 23 24  0  0  0  0  0  0  0  0999 V2000
   -2.6822   -0.3817    0.0000 N    0  0  0  0  0  0  0  0  0  0  0  0
   -3.0811   -1.1073    0.0000 C    0  0  0  0  0  0  0  0  0  0  0  0
   -1.8637   -0.5364    0.0000 C    0  0  0  0  0  0  0  0  0  0  0  0
   -1.7606   -1.3583    0.0000 C    0  0  0  0  0  0  0  0  0  0  0  0
   -2.5137   -1.7056    0.0000 S    0  0  0  0  0  0  0  0  0  0  0  0
   -1.0385   -1.7572    0.0000 C    0  0  0  0  0  0  0  0  0  0  0  0
    1.0591   -0.4608    0.0000 C    0  0  0  0  0  0  0  0  0  0  0  0
    1.0797   -1.2827    0.0000 C    0  0  0  0  0  0  0  0  0  0  0  0
    0.3473   -0.0687    0.0000 C    0  0  0  0  0  0  0  0  0  0  0  0
   -0.3370   -1.3205    0.0000 C    0  0  0  0  0  0  0  0  0  0  0  0
   -2.5619    1.0488    0.0000 C    0  0  0  0  0  0  0  0  0  0  0  0
    3.2048   -0.0206    0.0000 C    0  0  0  0  0  0  0  0  0  0  0  0
   -2.1251    1.7606    0.0000 C    0  0  0  0  0  0  0  0  0  0  0  0
    3.9030    0.3920    0.0000 C    0  0  0  0  0  0  0  0  0  0  0  0
   -3.9063   -1.2070    0.0000 O    0  0  0  0  0  0  0  0  0  0  0  0
   -0.3507   -0.4917    0.0000 C    0  0  0  0  0  0  0  0  0  0  0  0
    0.3817   -1.7159    0.0000 C    0  0  0  0  0  0  0  0  0  0  0  0
   -1.2757    0.0378    0.0000 O    0  0  0  0  0  0  0  0  0  0  0  0
   -3.0329    0.3645    0.0000 C    0  0  0  0  0  0  0  0  0  0  0  0
    1.8088   -1.6815    0.0000 Cl   0  0  0  0  0  0  0  0  0  0  0  0
    0.3439    0.7496    0.0000 Cl   0  0  0  0  0  0  0  0  0  0  0  0
    1.7709   -0.0344    0.0000 O    0  0  0  0  0  0  0  0  0  0  0  0
    2.4896   -0.4436    0.0000 C    0  0  0  0  0  0  0  0  0  0  0  0
  2  1  1  0  0  0  0
  3  1  1  0  0  0  0
  4  3  1  0  0  0  0
  5  2  1  0  0  0  0
  5  4  1  0  0  0  0
  6  4  2  0  0  0  0
  7  8  1  0  0  0  0
  8 17  2  0  0  0  0
  9 16  1  0  0  0  0
  9  7  2  0  0  0  0
 10  6  1  0  0  0  0
 11 19  1  0  0  0  0
 12 23  1  0  0  0  0
 13 11  3  0  0  0  0
 14 12  3  0  0  0  0
 15  2  2  0  0  0  0
 16 10  2  0  0  0  0
 17 10  1  0  0  0  0
 18  3  2  0  0  0  0
 19  1  1  0  0  0  0
 20  8  1  0  0  0  0
 21  9  1  0  0  0  0
 22  7  1  0  0  0  0
 23 22  1  0  0  0  0
M  END
> <CdId>
1945

> <Mol Weight>
366.219

> <Formula>
C16H9Cl2NO3S

> <Click_ID>
CLK026_A10 __ __ 

$$$$
