CLK038E03
 OpenBabel03181404502D

 27 29  0  0  0  0  0  0  0  0999 V2000
   -0.5500    2.1625    0.0000 C   0  0  0  0  0  0  0  0  0  0  0  0
   -0.5500    2.9875    0.0000 C   0  0  0  0  0  0  0  0  0  0  0  0
    0.1667    1.7500    0.0000 C   0  0  0  0  0  0  0  0  0  0  0  0
   -1.3333    3.2458    0.0000 S   0  0  0  0  0  0  0  0  0  0  0  0
   -1.3333    1.9083    0.0000 C   0  0  0  0  0  0  0  0  0  0  0  0
   -1.8167    2.5750    0.0000 C   0  0  0  0  0  0  0  0  0  0  0  0
    0.1667    0.9250    0.0000 N   0  0  0  0  0  0  0  0  0  0  0  0
    0.1667   -1.5500    0.0000 C   0  0  0  0  0  0  0  0  0  0  0  0
    0.1667    3.4000    0.0000 N   0  0  0  0  0  0  0  0  0  0  0  0
    0.8792    2.1625    0.0000 N   0  0  0  0  0  0  0  0  0  0  0  0
    0.8792   -1.9625    0.0000 N   0  0  0  0  0  0  0  0  0  0  0  0
    0.8792   -3.6125    0.0000 C   0  0  0  0  0  0  0  0  0  0  0  0
    0.8792   -4.4375    0.0000 C   0  0  0  0  0  0  0  0  0  0  0  0
    0.8792    2.9875    0.0000 C   0  0  0  0  0  0  0  0  0  0  0  0
    0.8792   -2.7875    0.0000 C   0  0  0  0  0  0  0  0  0  0  0  0
    0.1667   -0.7250    0.0000 C   0  0  0  0  0  0  0  0  0  0  0  0
   -0.5500    0.5125    0.0000 C   0  0  0  0  0  0  0  0  0  0  0  0
    0.8792    0.5125    0.0000 C   0  0  0  0  0  0  0  0  0  0  0  0
   -0.5500   -1.9625    0.0000 O   0  0  0  0  0  0  0  0  0  0  0  0
   -0.5500   -0.3125    0.0000 C   0  0  0  0  0  0  0  0  0  0  0  0
    0.8792   -0.3125    0.0000 C   0  0  0  0  0  0  0  0  0  0  0  0
   -1.5875    1.1250    0.0000 C   0  0  0  0  0  0  0  0  0  0  0  0
   -2.6417    2.5750    0.0000 C   0  0  0  0  0  0  0  0  0  0  0  0
    1.7042   -2.7875    0.0000 C   0  0  0  0  0  0  0  0  0  0  0  0
    0.0542   -2.7875    0.0000 C   0  0  0  0  0  0  0  0  0  0  0  0
    2.1167   -3.5000    0.0000 C   0  0  0  0  0  0  0  0  0  0  0  0
   -0.3583   -2.0708    0.0000 C   0  0  0  0  0  0  0  0  0  0  0  0
  2  1  1  0  0  0  0
  3  1  2  0  0  0  0
  4  2  1  0  0  0  0
  5  1  1  0  0  0  0
  6  5  2  0  0  0  0
  6  4  1  0  0  0  0
  7  3  1  0  0  0  0
  8 16  1  0  0  0  0
  9  2  2  0  0  0  0
 10  3  1  0  0  0  0
 11  8  1  0  0  0  0
 12 15  1  0  0  0  0
 13 12  3  0  0  0  0
 14  9  1  0  0  0  0
 14 10  2  0  0  0  0
 15 11  1  0  0  0  0
 16 20  1  0  0  0  0
 17  7  1  0  0  0  0
 18  7  1  0  0  0  0
 19  8  2  0  0  0  0
 20 17  1  0  0  0  0
 21 18  1  0  0  0  0
 21 16  1  0  0  0  0
 22  5  1  0  0  0  0
 23  6  1  0  0  0  0
 24 15  1  0  0  0  0
 25 15  1  0  0  0  0
 26 24  1  0  0  0  0
 27 25  1  0  0  0  0
M  END
> <CdId>
2861

> <Mol Weight>
384.538

> <Formula>
C21H28N4OS

> <Click_ID>
CLK038E03 __ __ 

$$$$
