CLK013_H08
 OpenBabel03181404502D

 27 29  0  0  0  0  0  0  0  0999 V2000
    5.3194   -2.6119    0.0000 N   0  0  0  0  0  0  0  0  0  0  0  0
    5.1905   -3.4312    0.0000 C   0  0  0  0  0  0  0  0  0  0  0  0
    4.5833   -2.2376    0.0000 C   0  0  0  0  0  0  0  0  0  0  0  0
    3.9969   -2.8198    0.0000 C   0  0  0  0  0  0  0  0  0  0  0  0
    4.3712   -3.5560    0.0000 N   0  0  0  0  0  0  0  0  0  0  0  0
    3.1859   -2.6868    0.0000 C   0  0  0  0  0  0  0  0  0  0  0  0
    6.0556   -2.2376    0.0000 C   0  0  0  0  0  0  0  0  0  0  0  0
    5.7686   -4.0093    0.0000 S   0  0  0  0  0  0  0  0  0  0  0  0
    0.8609   -6.6753    0.0000 C   0  0  0  0  0  0  0  0  0  0  0  0
    0.3411   -7.3158    0.0000 C   0  0  0  0  0  0  0  0  0  0  0  0
    4.4585   -1.4224    0.0000 O   0  0  0  0  0  0  0  0  0  0  0  0
    2.6576   -3.3356    0.0000 C   0  0  0  0  0  0  0  0  0  0  0  0
    6.7418   -2.6951    0.0000 C   0  0  0  0  0  0  0  0  0  0  0  0
    6.0930   -1.4224    0.0000 C   0  0  0  0  0  0  0  0  0  0  0  0
    7.5237   -1.5014    0.0000 C   0  0  0  0  0  0  0  0  0  0  0  0
    1.6013   -4.6207    0.0000 C   0  0  0  0  0  0  0  0  0  0  0  0
    6.8292   -1.0523    0.0000 C   0  0  0  0  0  0  0  0  0  0  0  0
    7.4738   -2.3249    0.0000 C   0  0  0  0  0  0  0  0  0  0  0  0
    2.9488   -4.1050    0.0000 C   0  0  0  0  0  0  0  0  0  0  0  0
    1.8341   -3.1941    0.0000 C   0  0  0  0  0  0  0  0  0  0  0  0
    2.4248   -4.7455    0.0000 C   0  0  0  0  0  0  0  0  0  0  0  0
    1.3143   -3.8347    0.0000 C   0  0  0  0  0  0  0  0  0  0  0  0
    1.3767   -6.0306    0.0000 C   0  0  0  0  0  0  0  0  0  0  0  0
    1.0855   -5.2571    0.0000 O   0  0  0  0  0  0  0  0  0  0  0  0
    8.2516   -1.1396    0.0000 O   0  0  0  0  0  0  0  0  0  0  0  0
    8.3015   -0.3161    0.0000 C   0  0  0  0  0  0  0  0  0  0  0  0
    9.0376    0.0499    0.0000 C   0  0  0  0  0  0  0  0  0  0  0  0
  2  1  1  0  0  0  0
  3  1  1  0  0  0  0
  4  3  1  0  0  0  0
  5  2  1  0  0  0  0
  5  4  1  0  0  0  0
  6  4  2  0  0  0  0
  7  1  1  0  0  0  0
  8  2  2  0  0  0  0
  9 23  1  0  0  0  0
 10  9  3  0  0  0  0
 11  3  2  0  0  0  0
 12  6  1  0  0  0  0
 13  7  2  0  0  0  0
 14  7  1  0  0  0  0
 15 17  1  0  0  0  0
 15 18  2  0  0  0  0
 16 22  2  0  0  0  0
 16 21  1  0  0  0  0
 17 14  2  0  0  0  0
 18 13  1  0  0  0  0
 19 12  1  0  0  0  0
 20 12  2  0  0  0  0
 21 19  2  0  0  0  0
 22 20  1  0  0  0  0
 23 24  1  0  0  0  0
 24 16  1  0  0  0  0
 25 15  1  0  0  0  0
 26 25  1  0  0  0  0
 27 26  1  0  0  0  0
M  END
> <CdId>
993

> <Mol Weight>
378.444

> <Formula>
C21H18N2O3S

> <Click_ID>
CLK013_H08 __ __ 

$$$$
