CLK030_A04
 OpenBabel03181404502D

 26 29  0  0  0  0  0  0  0  0999 V2000
   -1.1625    2.3833    0.0000 C    0  0  0  0  0  0  0  0  0  0  0  0
   -0.3375    2.3750    0.0000 N    0  0  0  0  0  0  0  0  0  0  0  0
   -1.6458    1.7208    0.0000 N    0  0  0  0  0  0  0  0  0  0  0  0
   -1.6458    3.0500    0.0000 S    0  0  0  0  0  0  0  0  0  0  0  0
   -2.4333    2.7958    0.0000 C    0  0  0  0  0  0  0  0  0  0  0  0
    0.0750    3.0875    0.0000 C    0  0  0  0  0  0  0  0  0  0  0  0
   -2.4333    1.9708    0.0000 C    0  0  0  0  0  0  0  0  0  0  0  0
    0.9000    3.0875    0.0000 C    0  0  3  0  0  0  0  0  0  0  0  0
    1.3042    2.3708    0.0000 O    0  0  0  0  0  0  0  0  0  0  0  0
    2.1417    3.7958    0.0000 O    0  0  0  0  0  0  0  0  0  0  0  0
    2.1292    2.3708    0.0000 C    0  0  0  0  0  0  0  0  0  0  0  0
   -3.1458    3.2083    0.0000 C    0  0  0  0  0  0  0  0  0  0  0  0
   -1.9458    0.3208    0.0000 C    0  0  0  0  0  0  0  0  0  0  0  0
   -2.4958   -0.2917    0.0000 C    0  0  0  0  0  0  0  0  0  0  0  0
   -3.1458    1.5583    0.0000 C    0  0  0  0  0  0  0  0  0  0  0  0
    1.3042    3.8083    0.0000 C    0  0  0  0  0  0  0  0  0  0  0  0
    2.5542    3.0833    0.0000 C    0  0  0  0  0  0  0  0  0  0  0  0
   -0.3375    3.8000    0.0000 O    0  0  0  0  0  0  0  0  0  0  0  0
   -1.3958    0.9333    0.0000 C    0  0  0  0  0  0  0  0  0  0  0  0
   -3.8583    2.7958    0.0000 C    0  0  0  0  0  0  0  0  0  0  0  0
   -3.8583    1.9708    0.0000 C    0  0  0  0  0  0  0  0  0  0  0  0
   -4.5833    3.2125    0.0000 Br   0  0  0  0  0  0  0  0  0  0  0  0
    2.5292    1.6458    0.0000 C    0  0  0  0  0  0  0  0  0  0  0  0
    3.3667    3.0833    0.0000 C    0  0  0  0  0  0  0  0  0  0  0  0
    3.3625    1.6458    0.0000 C    0  0  0  0  0  0  0  0  0  0  0  0
    3.7792    2.3583    0.0000 C    0  0  0  0  0  0  0  0  0  0  0  0
  2  1  2  0  0  0  0
  3  1  1  0  0  0  0
  4  1  1  0  0  0  0
  5  4  1  0  0  0  0
  5  7  2  0  0  0  0
  6  2  1  0  0  0  0
  7  3  1  0  0  0  0
  8  6  1  0  0  0  0
  9  8  1  0  0  0  0
 10 16  1  0  0  0  0
 11  9  1  0  0  0  0
 11 17  2  0  0  0  0
 12  5  1  0  0  0  0
 13 19  1  0  0  0  0
 14 13  3  0  0  0  0
 15  7  1  0  0  0  0
 16  8  1  0  0  0  0
 17 10  1  0  0  0  0
 18  6  2  0  0  0  0
 19  3  1  0  0  0  0
 20 12  2  0  0  0  0
 20 21  1  0  0  0  0
 21 15  2  0  0  0  0
 22 20  1  0  0  0  0
 23 11  1  0  0  0  0
 24 17  1  0  0  0  0
 25 23  2  0  0  0  0
 26 24  2  0  0  0  0
 26 25  1  0  0  0  0
M  END
> <CdId>
2248

> <Mol Weight>
429.287

> <Formula>
C19H13BrN2O3S

> <Click_ID>
CLK030_A04 __ __ 

$$$$
