CLK042F08
 OpenBabel03181404502D

 21 22  0  0  0  0  0  0  0  0999 V2000
    1.2917   -4.0458    0.0000 C   0  0  0  0  0  0  0  0  0  0  0  0
    2.0042   -4.4583    0.0000 C   0  0  0  0  0  0  0  0  0  0  0  0
   -0.1375   -2.3958    0.0000 C   0  0  0  0  0  0  0  0  0  0  0  0
   -0.8542   -2.8083    0.0000 O   0  0  0  0  0  0  0  0  0  0  0  0
   -0.8542    2.1417    0.0000 O   0  0  0  0  0  0  0  0  0  0  0  0
    0.5750   -2.8083    0.0000 N   0  0  0  0  0  0  0  0  0  0  0  0
   -0.8542   -1.1583    0.0000 O   0  0  0  0  0  0  0  0  0  0  0  0
   -0.1375   -1.5708    0.0000 C   0  0  0  0  0  0  0  0  0  0  0  0
   -0.8542    1.3167    0.0000 C   0  0  0  0  0  0  0  0  0  0  0  0
   -0.8542   -0.3333    0.0000 C   0  0  0  0  0  0  0  0  0  0  0  0
   -0.1375    2.5542    0.0000 C   0  0  0  0  0  0  0  0  0  0  0  0
    0.5750   -3.6333    0.0000 C   0  0  0  0  0  0  0  0  0  0  0  0
   -0.1375    0.9042    0.0000 C   0  0  0  0  0  0  0  0  0  0  0  0
   -1.5667    0.9042    0.0000 C   0  0  0  0  0  0  0  0  0  0  0  0
   -0.1375    0.0792    0.0000 C   0  0  0  0  0  0  0  0  0  0  0  0
   -1.5667    0.0792    0.0000 C   0  0  0  0  0  0  0  0  0  0  0  0
    0.5750    2.1417    0.0000 C   0  0  0  0  0  0  0  0  0  0  0  0
   -0.1375    3.3792    0.0000 C   0  0  0  0  0  0  0  0  0  0  0  0
    0.5750    3.7917    0.0000 C   0  0  0  0  0  0  0  0  0  0  0  0
    1.2917    2.5542    0.0000 C   0  0  0  0  0  0  0  0  0  0  0  0
    1.2917    3.3792    0.0000 C   0  0  0  0  0  0  0  0  0  0  0  0
  2  1  3  0  0  0  0
  3  6  1  0  0  0  0
  4  3  2  0  0  0  0
  5  9  1  0  0  0  0
  6 12  1  0  0  0  0
  7  8  1  0  0  0  0
  8  3  1  0  0  0  0
  9 14  2  0  0  0  0
  9 13  1  0  0  0  0
 10  7  1  0  0  0  0
 11  5  1  0  0  0  0
 12  1  1  0  0  0  0
 13 15  2  0  0  0  0
 14 16  1  0  0  0  0
 15 10  1  0  0  0  0
 16 10  2  0  0  0  0
 17 11  1  0  0  0  0
 18 11  2  0  0  0  0
 19 18  1  0  0  0  0
 20 17  2  0  0  0  0
 21 19  2  0  0  0  0
 21 20  1  0  0  0  0
M  END
> <CdId>
3222

> <Mol Weight>
281.3059

> <Formula>
C17H15NO3

> <Click_ID>
CLK042F08 __ __ 

$$$$
