CLK022_A09
 OpenBabel03181404502D

 20 21  0  0  0  0  0  0  0  0999 V2000
    5.7352    1.8094    0.0000 C   0  0  0  0  0  0  0  0  0  0  0  0
    6.1475    1.0948    0.0000 N   0  0  0  0  0  0  0  0  0  0  0  0
    1.2002    1.0948    0.0000 C   0  0  0  0  0  0  0  0  0  0  0  0
    0.3757    1.0948    0.0000 C   0  0  0  0  0  0  0  0  0  0  0  0
    4.9106    1.8094    0.0000 C   0  0  0  0  0  0  0  0  0  0  0  0
    6.1475    2.5240    0.0000 O   0  0  0  0  0  0  0  0  0  0  0  0
    6.9720    1.0948    0.0000 C   0  0  0  0  0  0  0  0  0  0  0  0
    4.4984    2.5240    0.0000 C   0  0  0  0  0  0  0  0  0  0  0  0
    4.4984    1.0948    0.0000 C   0  0  0  0  0  0  0  0  0  0  0  0
    3.2616    1.8094    0.0000 C   0  0  0  0  0  0  0  0  0  0  0  0
    3.6738    2.5240    0.0000 C   0  0  0  0  0  0  0  0  0  0  0  0
    3.6738    1.0948    0.0000 C   0  0  0  0  0  0  0  0  0  0  0  0
    5.7352    0.3802    0.0000 C   0  0  0  0  0  0  0  0  0  0  0  0
    2.0247    1.0948    0.0000 C   0  0  0  0  0  0  0  0  0  0  0  0
    2.4370    1.8094    0.0000 O   0  0  0  0  0  0  0  0  0  0  0  0
    7.3843    0.3802    0.0000 C   0  0  0  0  0  0  0  0  0  0  0  0
    7.3843    1.8094    0.0000 C   0  0  0  0  0  0  0  0  0  0  0  0
    8.2088    1.8094    0.0000 C   0  0  0  0  0  0  0  0  0  0  0  0
    8.2088    0.3802    0.0000 C   0  0  0  0  0  0  0  0  0  0  0  0
    8.6211    1.0948    0.0000 C   0  0  0  0  0  0  0  0  0  0  0  0
  2  1  1  0  0  0  0
  3 14  1  0  0  0  0
  4  3  3  0  0  0  0
  5  1  1  0  0  0  0
  6  1  2  0  0  0  0
  7  2  1  0  0  0  0
  8  5  1  0  0  0  0
  9  5  2  0  0  0  0
 10 12  2  0  0  0  0
 10 11  1  0  0  0  0
 11  8  2  0  0  0  0
 12  9  1  0  0  0  0
 13  2  1  0  0  0  0
 14 15  1  0  0  0  0
 15 10  1  0  0  0  0
 16  7  1  0  0  0  0
 17  7  2  0  0  0  0
 18 17  1  0  0  0  0
 19 16  2  0  0  0  0
 19 20  1  0  0  0  0
 20 18  2  0  0  0  0
M  END
> <CdId>
1644

> <Mol Weight>
265.3065

> <Formula>
C17H15NO2

> <Click_ID>
CLK022_A09 __ __ 

$$$$
