CLK036_E06
 OpenBabel03181404502D

 20 21  0  0  0  0  0  0  0  0999 V2000
   -0.6395    2.3579    0.0000 C   0  0  0  0  0  0  0  0  0  0  0  0
   -0.0322    2.7187    0.0000 S   0  0  0  0  0  0  0  0  0  0  0  0
   -0.6395    1.6505    0.0000 N   0  0  0  0  0  0  0  0  0  0  0  0
    0.5824    2.3579    0.0000 C   0  0  0  0  0  0  0  0  0  0  0  0
    0.5824    1.6505    0.0000 N   0  0  0  0  0  0  0  0  0  0  0  0
   -1.4898    2.5472    0.0000 N   0  0  0  0  0  0  0  0  0  0  0  0
   -2.1971    2.5579    0.0000 C   0  0  0  0  0  0  0  0  0  0  0  0
    1.7399    1.2540    0.0000 C   0  0  0  0  0  0  0  0  0  0  0  0
    1.6005    0.4465    0.0000 C   0  0  0  0  0  0  0  0  0  0  0  0
   -3.0724    2.5472    0.0000 N   0  0  0  0  0  0  0  0  0  0  0  0
   -2.2042    3.2582    0.0000 O   0  0  0  0  0  0  0  0  0  0  0  0
    1.2647    2.6008    0.0000 S   0  0  0  0  0  0  0  0  0  0  0  0
   -3.4903    3.2653    0.0000 C   0  0  0  0  0  0  0  0  0  0  0  0
   -4.3156    4.6836    0.0000 C   0  0  0  0  0  0  0  0  0  0  0  0
    1.8899    2.0685    0.0000 C   0  0  0  0  0  0  0  0  0  0  0  0
   -3.0724    3.9691    0.0000 C   0  0  0  0  0  0  0  0  0  0  0  0
   -4.3156    3.2546    0.0000 C   0  0  0  0  0  0  0  0  0  0  0  0
   -4.7336    3.9655    0.0000 C   0  0  0  0  0  0  0  0  0  0  0  0
   -3.4903    4.6872    0.0000 C   0  0  0  0  0  0  0  0  0  0  0  0
   -4.7336    5.3946    0.0000 C   0  0  0  0  0  0  0  0  0  0  0  0
  2  1  1  0  0  0  0
  3  1  2  0  0  0  0
  4  2  1  0  0  0  0
  5  3  1  0  0  0  0
  5  4  2  0  0  0  0
  6  1  1  0  0  0  0
  7  6  1  0  0  0  0
  8 15  1  0  0  0  0
  9  8  3  0  0  0  0
 10  7  1  0  0  0  0
 11  7  2  0  0  0  0
 12  4  1  0  0  0  0
 13 10  1  0  0  0  0
 14 18  2  0  0  0  0
 15 12  1  0  0  0  0
 16 13  1  0  0  0  0
 17 13  2  0  0  0  0
 18 17  1  0  0  0  0
 19 16  2  0  0  0  0
 19 14  1  0  0  0  0
 20 14  1  0  0  0  0
M  END
> <CdId>
2753

> <Mol Weight>
304.391

> <Formula>
C13H12N4OS2

> <Click_ID>
CLK036_E06 __ __ 

$$$$
