CLK023_B08
 OpenBabel03181404502D

 27 29  0  0  0  0  0  0  0  0999 V2000
    2.0498    0.0480    0.0000 N    0  0  0  0  0  0  0  0  0  0  0  0
    2.0498   -0.7691    0.0000 C    0  0  0  0  0  0  0  0  0  0  0  0
    0.7691   -0.3502    0.0000 C    0  0  0  0  0  0  0  0  0  0  0  0
    1.2669    0.3090    0.0000 C    0  0  0  0  0  0  0  0  0  0  0  0
    1.2635   -1.0197    0.0000 S    0  0  0  0  0  0  0  0  0  0  0  0
   -0.0480   -0.3502    0.0000 C    0  0  0  0  0  0  0  0  0  0  0  0
   -3.7528    0.3605    0.0000 C    0  0  0  0  0  0  0  0  0  0  0  0
    3.4644    0.1957    0.0000 C    0  0  0  0  0  0  0  0  0  0  0  0
   -2.9321    0.3605    0.0000 C    0  0  0  0  0  0  0  0  0  0  0  0
   -0.4635   -1.0712    0.0000 C    0  0  0  0  0  0  0  0  0  0  0  0
    4.1681   -0.2231    0.0000 C    0  0  0  0  0  0  0  0  0  0  0  0
   -4.1578    1.0815    0.0000 C    0  0  0  0  0  0  0  0  0  0  0  0
    2.7055   -1.2566    0.0000 O    0  0  0  0  0  0  0  0  0  0  0  0
    1.0129    1.0953    0.0000 O    0  0  0  0  0  0  0  0  0  0  0  0
    2.7158    0.5322    0.0000 C    0  0  0  0  0  0  0  0  0  0  0  0
   -1.7030   -0.3502    0.0000 O    0  0  0  0  0  0  0  0  0  0  0  0
   -1.2944   -1.0678    0.0000 C    0  0  0  0  0  0  0  0  0  0  0  0
   -2.5236   -0.3502    0.0000 C    0  0  0  0  0  0  0  0  0  0  0  0
   -2.5201    1.0781    0.0000 C    0  0  0  0  0  0  0  0  0  0  0  0
   -3.7493    1.7991    0.0000 C    0  0  0  0  0  0  0  0  0  0  0  0
   -4.1716   -0.3502    0.0000 Cl   0  0  0  0  0  0  0  0  0  0  0  0
   -2.9218    1.7854    0.0000 C    0  0  0  0  0  0  0  0  0  0  0  0
   -4.1510    2.5098    0.0000 Cl   0  0  0  0  0  0  0  0  0  0  0  0
   -0.0550   -1.7854    0.0000 C    0  0  0  0  0  0  0  0  0  0  0  0
   -1.7133   -1.7785    0.0000 C    0  0  0  0  0  0  0  0  0  0  0  0
   -0.4704   -2.4995    0.0000 C    0  0  0  0  0  0  0  0  0  0  0  0
   -1.2944   -2.5064    0.0000 C    0  0  0  0  0  0  0  0  0  0  0  0
  2  1  1  0  0  0  0
  3  4  1  0  0  0  0
  4  1  1  0  0  0  0
  5  2  1  0  0  0  0
  5  3  1  0  0  0  0
  6  3  2  0  0  0  0
  7  9  1  0  0  0  0
  8 15  1  0  0  0  0
  9 18  1  0  0  0  0
 10  6  1  0  0  0  0
 11  8  3  0  0  0  0
 12  7  2  0  0  0  0
 13  2  2  0  0  0  0
 14  4  2  0  0  0  0
 15  1  1  0  0  0  0
 16 17  1  0  0  0  0
 17 10  2  0  0  0  0
 18 16  1  0  0  0  0
 19  9  2  0  0  0  0
 20 22  2  0  0  0  0
 20 12  1  0  0  0  0
 21  7  1  0  0  0  0
 22 19  1  0  0  0  0
 23 20  1  0  0  0  0
 24 10  1  0  0  0  0
 25 17  1  0  0  0  0
 26 24  2  0  0  0  0
 27 26  1  0  0  0  0
 27 25  2  0  0  0  0
M  END
> <CdId>
1713

> <Mol Weight>
418.293

> <Formula>
C20H13Cl2NO3S

> <Click_ID>
CLK023_B08 __ __ 

$$$$
