CLK032_G05
 OpenBabel03181404502D

 36 39  0  0  0  0  0  0  0  0999 V2000
    3.3750    3.0833    0.0000 S   0  0  0  0  0  0  0  0  0  0  0  0
   -1.1625    2.3833    0.0000 C   0  0  0  0  0  0  0  0  0  0  0  0
   -0.3375    2.3750    0.0000 N   0  0  0  0  0  0  0  0  0  0  0  0
   -1.6458    1.7208    0.0000 N   0  0  0  0  0  0  0  0  0  0  0  0
    3.3667    2.2458    0.0000 N   0  0  0  0  0  0  0  0  0  0  0  0
   -1.6458    3.0500    0.0000 S   0  0  0  0  0  0  0  0  0  0  0  0
   -2.4333    2.7958    0.0000 C   0  0  0  0  0  0  0  0  0  0  0  0
   -2.4333    1.9708    0.0000 C   0  0  0  0  0  0  0  0  0  0  0  0
    0.0750    3.0875    0.0000 C   0  0  0  0  0  0  0  0  0  0  0  0
    2.5417    3.0833    0.0000 C   0  0  0  0  0  0  0  0  0  0  0  0
   -3.1458    3.2083    0.0000 C   0  0  0  0  0  0  0  0  0  0  0  0
    4.1917    3.0833    0.0000 O   0  0  0  0  0  0  0  0  0  0  0  0
    3.3792    3.9083    0.0000 O   0  0  0  0  0  0  0  0  0  0  0  0
   -1.9458    0.3208    0.0000 C   0  0  0  0  0  0  0  0  0  0  0  0
   -2.4958   -0.2917    0.0000 C   0  0  0  0  0  0  0  0  0  0  0  0
   -3.1458    1.5583    0.0000 C   0  0  0  0  0  0  0  0  0  0  0  0
    0.9000    3.0875    0.0000 C   0  0  0  0  0  0  0  0  0  0  0  0
   -5.2875    2.8000    0.0000 C   0  0  0  0  0  0  0  0  0  0  0  0
   -4.5833    3.2125    0.0000 N   0  0  0  0  0  0  0  0  0  0  0  0
   -3.8583    2.7958    0.0000 C   0  0  0  0  0  0  0  0  0  0  0  0
    4.0917    1.8333    0.0000 C   0  0  3  0  0  0  0  0  0  0  0  0
   -0.3375    3.8000    0.0000 O   0  0  0  0  0  0  0  0  0  0  0  0
   -1.3958    0.9333    0.0000 C   0  0  0  0  0  0  0  0  0  0  0  0
   -6.0000    3.2125    0.0000 O   0  0  0  0  0  0  0  0  0  0  0  0
    2.1417    3.8083    0.0000 C   0  0  0  0  0  0  0  0  0  0  0  0
    2.1417    2.3708    0.0000 C   0  0  0  0  0  0  0  0  0  0  0  0
    1.3125    3.8083    0.0000 C   0  0  0  0  0  0  0  0  0  0  0  0
    1.3042    2.3750    0.0000 C   0  0  0  0  0  0  0  0  0  0  0  0
   -3.8583    1.9708    0.0000 C   0  0  0  0  0  0  0  0  0  0  0  0
    2.6417    1.8375    0.0000 C   0  0  0  0  0  0  0  0  0  0  0  0
   -5.2958    1.9750    0.0000 C   0  0  0  0  0  0  0  0  0  0  0  0
    4.8042    2.2458    0.0000 C   0  0  0  0  0  0  0  0  0  0  0  0
    4.0792    1.0083    0.0000 C   0  0  0  0  0  0  0  0  0  0  0  0
    2.6375    1.0125    0.0000 C   0  0  0  0  0  0  0  0  0  0  0  0
    5.5167    1.8250    0.0000 C   0  0  0  0  0  0  0  0  0  0  0  0
    3.3542    0.5958    0.0000 C   0  0  0  0  0  0  0  0  0  0  0  0
  2  3  2  0  0  0  0
  3  9  1  0  0  0  0
  4  2  1  0  0  0  0
  5  1  1  0  0  0  0
  6  2  1  0  0  0  0
  7  6  1  0  0  0  0
  7  8  2  0  0  0  0
  8  4  1  0  0  0  0
  9 17  1  0  0  0  0
 10  1  1  0  0  0  0
 11  7  1  0  0  0  0
 12  1  2  0  0  0  0
 13  1  2  0  0  0  0
 14 23  1  0  0  0  0
 15 14  3  0  0  0  0
 16  8  1  0  0  0  0
 17 28  2  0  0  0  0
 17 27  1  0  0  0  0
 18 19  1  0  0  0  0
 19 20  1  0  0  0  0
 20 11  2  0  0  0  0
 20 29  1  0  0  0  0
 21  5  1  0  0  0  0
 22  9  2  0  0  0  0
 23  4  1  0  0  0  0
 24 18  2  0  0  0  0
 25 10  1  0  0  0  0
 26 10  2  0  0  0  0
 27 25  2  0  0  0  0
 28 26  1  0  0  0  0
 29 16  2  0  0  0  0
 30  5  1  0  0  0  0
 31 18  1  0  0  0  0
 32 21  1  0  0  0  0
 33 21  1  0  0  0  0
 34 30  1  0  0  0  0
 35 32  1  0  0  0  0
 36 34  1  0  0  0  0
 36 33  1  0  0  0  0
M  END
> <CdId>
2469

> <Mol Weight>
524.655

> <Formula>
C26H28N4O4S2

> <Click_ID>
CLK032_G05 __ __ 

$$$$
