CLK042C04
 OpenBabel03181404502D

 28 30  0  0  0  0  0  0  0  0999 V2000
    0.0000   -0.1750    0.0000 C   0  0  0  0  0  0  0  0  0  0  0  0
    0.7125    0.2375    0.0000 N   0  0  0  0  0  0  0  0  0  0  0  0
    0.0000   -1.0000    0.0000 N   0  0  0  0  0  0  0  0  0  0  0  0
    1.4250   -0.1750    0.0000 C   0  0  0  0  0  0  0  0  0  0  0  0
   -0.7167    0.2375    0.0000 C   0  0  0  0  0  0  0  0  0  0  0  0
    1.4250   -1.0000    0.0000 N   0  0  0  0  0  0  0  0  0  0  0  0
    0.7125   -1.4125    0.0000 C   0  0  0  0  0  0  0  0  0  0  0  0
   -0.7167    1.0625    0.0000 C   0  0  0  0  0  0  0  0  0  0  0  0
   -1.4292   -0.1750    0.0000 C   0  0  0  0  0  0  0  0  0  0  0  0
   -2.1458   -0.5875    0.0000 N   0  0  0  0  0  0  0  0  0  0  0  0
   -1.4292    1.4750    0.0000 C   0  0  0  0  0  0  0  0  0  0  0  0
   -2.8583   -1.0000    0.0000 C   0  0  0  0  0  0  0  0  0  0  0  0
    2.1417    0.2375    0.0000 N   0  0  0  0  0  0  0  0  0  0  0  0
   -2.8583   -1.8250    0.0000 C   0  0  0  0  0  0  0  0  0  0  0  0
   -2.1458    1.0625    0.0000 C   0  0  0  0  0  0  0  0  0  0  0  0
    0.7125   -2.2375    0.0000 N   0  0  0  0  0  0  0  0  0  0  0  0
    2.8542   -0.1750    0.0000 C   0  0  0  0  0  0  0  0  0  0  0  0
   -2.1458    0.2375    0.0000 O   0  0  0  0  0  0  0  0  0  0  0  0
   -2.8583   -0.1750    0.0000 C   0  0  0  0  0  0  0  0  0  0  0  0
   -1.4292    2.3000    0.0000 C   0  0  0  0  0  0  0  0  0  0  0  0
   -2.8583    1.4750    0.0000 C   0  0  0  0  0  0  0  0  0  0  0  0
    3.5708    0.2375    0.0000 C   0  0  0  0  0  0  0  0  0  0  0  0
    2.8542   -1.0000    0.0000 C   0  0  0  0  0  0  0  0  0  0  0  0
   -2.1458    2.7125    0.0000 C   0  0  0  0  0  0  0  0  0  0  0  0
   -2.8583    2.3000    0.0000 C   0  0  0  0  0  0  0  0  0  0  0  0
    3.5708   -1.4125    0.0000 C   0  0  0  0  0  0  0  0  0  0  0  0
    4.2833   -0.1750    0.0000 C   0  0  0  0  0  0  0  0  0  0  0  0
    4.2833   -1.0000    0.0000 C   0  0  0  0  0  0  0  0  0  0  0  0
  2  1  2  0  0  0  0
  3  1  1  0  0  0  0
  4  2  1  0  0  0  0
  4  6  2  0  0  0  0
  5  1  1  0  0  0  0
  6  7  1  0  0  0  0
  7  3  2  0  0  0  0
  8  5  2  0  0  0  0
  9  5  1  0  0  0  0
 10  9  3  0  0  0  0
 11  8  1  0  0  0  0
 12 19  1  0  0  0  0
 13  4  1  0  0  0  0
 14 12  3  0  0  0  0
 15 11  2  0  0  0  0
 16  7  1  0  0  0  0
 17 13  1  0  0  0  0
 18 15  1  0  0  0  0
 19 18  1  0  0  0  0
 20 11  1  0  0  0  0
 21 15  1  0  0  0  0
 22 17  2  0  0  0  0
 23 17  1  0  0  0  0
 24 20  2  0  0  0  0
 25 21  2  0  0  0  0
 25 24  1  0  0  0  0
 26 23  2  0  0  0  0
 27 22  1  0  0  0  0
 28 27  2  0  0  0  0
 28 26  1  0  0  0  0
M  END
> <CdId>
3187

> <Mol Weight>
368.3913

> <Formula>
C21H16N6O

> <Click_ID>
CLK042C04 __ __ 

$$$$
