CLK027_E04
 OpenBabel03181404502D

 22 24  0  0  0  0  0  0  0  0999 V2000
    0.0550   -0.2853    0.0000 C   0  0  3  0  0  0  0  0  0  0  0  0
   -0.4297   -0.9487    0.0000 C   0  0  0  0  0  0  0  0  0  0  0  0
   -1.2100   -0.6978    0.0000 N   0  0  0  0  0  0  0  0  0  0  0  0
   -0.4228    0.3816    0.0000 C   0  0  0  0  0  0  0  0  0  0  0  0
   -1.2100    0.1272    0.0000 C   0  0  0  0  0  0  0  0  0  0  0  0
    0.8800   -0.2853    0.0000 C   0  0  0  0  0  0  0  0  0  0  0  0
    1.2925   -0.9968    0.0000 C   0  0  0  0  0  0  0  0  0  0  0  0
    2.1175   -1.0072    0.0000 C   0  0  0  0  0  0  0  0  0  0  0  0
   -2.6332   -0.8353    0.0000 C   0  0  0  0  0  0  0  0  0  0  0  0
    2.6056   -1.6706    0.0000 S   0  0  0  0  0  0  0  0  0  0  0  0
   -3.3928   -0.5053    0.0000 C   0  0  0  0  0  0  0  0  0  0  0  0
   -0.1822   -1.7325    0.0000 O   0  0  0  0  0  0  0  0  0  0  0  0
    2.6056   -0.3368    0.0000 C   0  0  0  0  0  0  0  0  0  0  0  0
    3.3860   -1.4163    0.0000 C   0  0  0  0  0  0  0  0  0  0  0  0
   -1.8837   -1.1722    0.0000 C   0  0  0  0  0  0  0  0  0  0  0  0
    0.4434    0.4572    0.0000 O   0  0  0  0  0  0  0  0  0  0  0  0
    0.8800   -1.7084    0.0000 O   0  0  0  0  0  0  0  0  0  0  0  0
    3.3893   -0.5947    0.0000 C   0  0  0  0  0  0  0  0  0  0  0  0
   -0.2543    1.1894    0.0000 C   0  0  0  0  0  0  0  0  0  0  0  0
   -1.8288    0.6875    0.0000 C   0  0  0  0  0  0  0  0  0  0  0  0
   -0.8559    1.7360    0.0000 C   0  0  0  0  0  0  0  0  0  0  0  0
   -1.6432    1.4988    0.0000 C   0  0  0  0  0  0  0  0  0  0  0  0
  2  1  1  0  0  0  0
  3  2  1  0  0  0  0
  3  5  1  0  0  0  0
  4  1  1  0  0  0  0
  5  4  1  0  0  0  0
  6  1  1  0  0  0  0
  7  6  1  0  0  0  0
  8  7  1  0  0  0  0
  9 15  1  0  0  0  0
 10  8  1  0  0  0  0
 11  9  3  0  0  0  0
 12  2  2  0  0  0  0
 13  8  2  0  0  0  0
 14 10  1  0  0  0  0
 15  3  1  0  0  0  0
 16  1  1  0  0  0  0
 17  7  2  0  0  0  0
 18 13  1  0  0  0  0
 18 14  2  0  0  0  0
 19  4  2  0  0  0  0
 20  5  2  0  0  0  0
 20 22  1  0  0  0  0
 21 19  1  0  0  0  0
 22 21  2  0  0  0  0
M  END
> <CdId>
2055

> <Mol Weight>
311.355

> <Formula>
C17H13NO3S

> <Click_ID>
CLK027_E04 __ __ 

$$$$
