CLK048H11
 OpenBabel03181404502D

 26 28  0  0  0  0  0  0  0  0999 V2000
   -1.1167   -0.5500    0.0000 N   0  0  0  0  0  0  0  0  0  0  0  0
   -0.6333    0.1167    0.0000 N   0  0  0  0  0  0  0  0  0  0  0  0
    0.1542   -0.1375    0.0000 C   0  0  0  0  0  0  0  0  0  0  0  0
   -0.6333   -1.2208    0.0000 C   0  0  3  0  0  0  0  0  0  0  0  0
    0.1542   -0.9625    0.0000 C   0  0  0  0  0  0  0  0  0  0  0  0
    0.8208    0.3458    0.0000 C   0  0  0  0  0  0  0  0  0  0  0  0
   -0.8875   -2.0042    0.0000 C   0  0  0  0  0  0  0  0  0  0  0  0
    1.5750    0.0083    0.0000 N   0  0  0  0  0  0  0  0  0  0  0  0
   -1.9417   -0.5500    0.0000 C   0  0  0  0  0  0  0  0  0  0  0  0
    2.7375    2.6208    0.0000 C   0  0  0  0  0  0  0  0  0  0  0  0
    2.6500    3.4417    0.0000 C   0  0  0  0  0  0  0  0  0  0  0  0
    0.7333    1.1667    0.0000 O   0  0  0  0  0  0  0  0  0  0  0  0
    2.2417    0.4958    0.0000 C   0  0  0  0  0  0  0  0  0  0  0  0
   -0.3333   -2.6167    0.0000 O   0  0  0  0  0  0  0  0  0  0  0  0
   -2.3542    0.1625    0.0000 C   0  0  0  0  0  0  0  0  0  0  0  0
   -2.3542   -1.2667    0.0000 C   0  0  0  0  0  0  0  0  0  0  0  0
   -1.6958   -2.1750    0.0000 N   0  0  0  0  0  0  0  0  0  0  0  0
    2.8208    1.8000    0.0000 C   0  0  0  0  0  0  0  0  0  0  0  0
    2.1542    1.3167    0.0000 C   0  0  0  0  0  0  0  0  0  0  0  0
   -3.5917   -0.5500    0.0000 C   0  0  0  0  0  0  0  0  0  0  0  0
   -3.1792   -1.2667    0.0000 C   0  0  0  0  0  0  0  0  0  0  0  0
   -3.1792    0.1625    0.0000 C   0  0  0  0  0  0  0  0  0  0  0  0
   -4.4167   -0.5500    0.0000 F   0  0  0  0  0  0  0  0  0  0  0  0
    3.6625    0.6458    0.0000 C   0  0  0  0  0  0  0  0  0  0  0  0
    2.9958    0.1583    0.0000 C   0  0  0  0  0  0  0  0  0  0  0  0
    3.5750    1.4667    0.0000 C   0  0  0  0  0  0  0  0  0  0  0  0
  2  1  1  0  0  0  0
  3  2  2  0  0  0  0
  3  5  1  0  0  0  0
  4  1  1  0  0  0  0
  5  4  1  0  0  0  0
  6  3  1  0  0  0  0
  7  4  1  0  0  0  0
  8  6  1  0  0  0  0
  9  1  1  0  0  0  0
 10 18  1  0  0  0  0
 11 10  3  0  0  0  0
 12  6  2  0  0  0  0
 13  8  1  0  0  0  0
 14  7  2  0  0  0  0
 15  9  1  0  0  0  0
 16  9  2  0  0  0  0
 17  7  1  0  0  0  0
 18 19  1  0  0  0  0
 19 13  2  0  0  0  0
 20 21  2  0  0  0  0
 20 22  1  0  0  0  0
 21 16  1  0  0  0  0
 22 15  2  0  0  0  0
 23 20  1  0  0  0  0
 24 25  2  0  0  0  0
 25 13  1  0  0  0  0
 26 18  2  0  0  0  0
 26 24  1  0  0  0  0
M  END
> <CdId>
3728

> <Mol Weight>
350.3464

> <Formula>
C19H15FN4O2

> <Click_ID>
CLK048H11 __ __ 

$$$$
