CLK020_F08
 OpenBabel03181404502D

 33 35  0  0  0  0  0  0  0  0999 V2000
    7.2645   -3.0387    0.0000 C   0  0  0  0  0  0  0  0  0  0  0  0
    6.7924   -2.3696    0.0000 C   0  0  0  0  0  0  0  0  0  0  0  0
    5.9995   -2.6171    0.0000 N   0  0  0  0  0  0  0  0  0  0  0  0
    5.9995   -3.4421    0.0000 N   0  0  0  0  0  0  0  0  0  0  0  0
    6.7786   -3.7033    0.0000 C   0  0  0  0  0  0  0  0  0  0  0  0
    3.3137   -5.3624    0.0000 S   0  0  0  0  0  0  0  0  0  0  0  0
    7.0536   -1.5858    0.0000 C   0  0  0  0  0  0  0  0  0  0  0  0
    8.0895   -3.0433    0.0000 C   0  0  0  0  0  0  0  0  0  0  0  0
    3.9783   -4.8812    0.0000 C   0  0  0  0  0  0  0  0  0  0  0  0
    5.3258   -3.9233    0.0000 C   0  0  0  0  0  0  0  0  0  0  0  0
    9.7120   -7.3470    0.0000 C   0  0  0  0  0  0  0  0  0  0  0  0
   10.1198   -8.0620    0.0000 C   0  0  0  0  0  0  0  0  0  0  0  0
    3.8224   -6.0270    0.0000 O   0  0  0  0  0  0  0  0  0  0  0  0
    2.8187   -4.6749    0.0000 O   0  0  0  0  0  0  0  0  0  0  0  0
    7.0308   -4.4870    0.0000 O   0  0  0  0  0  0  0  0  0  0  0  0
    9.7348   -4.4870    0.0000 C   0  0  0  0  0  0  0  0  0  0  0  0
    8.5020   -3.7583    0.0000 C   0  0  0  0  0  0  0  0  0  0  0  0
    2.6721   -5.8208    0.0000 N   0  0  0  0  0  0  0  0  0  0  0  0
    9.3270   -3.7721    0.0000 C   0  0  0  0  0  0  0  0  0  0  0  0
    9.3132   -5.2020    0.0000 C   0  0  0  0  0  0  0  0  0  0  0  0
    7.8511   -1.2833    0.0000 F   0  0  0  0  0  0  0  0  0  0  0  0
    6.5908   -0.8525    0.0000 F   0  0  0  0  0  0  0  0  0  0  0  0
    7.2920   -0.8709    0.0000 F   0  0  0  0  0  0  0  0  0  0  0  0
    3.9049   -4.0608    0.0000 C   0  0  0  0  0  0  0  0  0  0  0  0
    4.7345   -5.2158    0.0000 C   0  0  0  0  0  0  0  0  0  0  0  0
    4.5695   -3.5796    0.0000 C   0  0  0  0  0  0  0  0  0  0  0  0
    5.4083   -4.7437    0.0000 C   0  0  0  0  0  0  0  0  0  0  0  0
    8.4882   -5.1883    0.0000 C   0  0  0  0  0  0  0  0  0  0  0  0
    8.0849   -4.4733    0.0000 C   0  0  0  0  0  0  0  0  0  0  0  0
   10.5598   -4.4962    0.0000 O   0  0  0  0  0  0  0  0  0  0  0  0
    9.7211   -5.9170    0.0000 O   0  0  0  0  0  0  0  0  0  0  0  0
    9.2995   -6.6274    0.0000 C   0  0  0  0  0  0  0  0  0  0  0  0
   10.9632   -5.2112    0.0000 C   0  0  0  0  0  0  0  0  0  0  0  0
  2  1  1  0  0  0  0
  3  2  2  0  0  0  0
  3  4  1  0  0  0  0
  4  5  1  0  0  0  0
  5  1  1  0  0  0  0
  6  9  1  0  0  0  0
  7  2  1  0  0  0  0
  8  1  2  0  0  0  0
  9 25  2  0  0  0  0
 10  4  1  0  0  0  0
 11 32  1  0  0  0  0
 12 11  3  0  0  0  0
 13  6  2  0  0  0  0
 14  6  2  0  0  0  0
 15  5  2  0  0  0  0
 16 19  1  0  0  0  0
 17  8  1  0  0  0  0
 18  6  1  0  0  0  0
 19 17  2  0  0  0  0
 20 28  1  0  0  0  0
 20 16  2  0  0  0  0
 21  7  1  0  0  0  0
 22  7  1  0  0  0  0
 23  7  1  0  0  0  0
 24 26  2  0  0  0  0
 24  9  1  0  0  0  0
 25 27  1  0  0  0  0
 26 10  1  0  0  0  0
 27 10  2  0  0  0  0
 28 29  2  0  0  0  0
 29 17  1  0  0  0  0
 30 16  1  0  0  0  0
 31 20  1  0  0  0  0
 32 31  1  0  0  0  0
 33 30  1  0  0  0  0
M  END
> <CdId>
1533

> <Mol Weight>
479.429

> <Formula>
C21H16F3N3O5S

> <Click_ID>
CLK020_F08 __ __ 

$$$$
