CLK003_A02
 OpenBabel03181404502D

 26 27  0  0  0  0  0  0  0  0999 V2000
   -0.1286    0.2687    0.0000 N    0  0  0  0  0  0  0  0  0  0  0  0
   -0.8516    0.6812    0.0000 C    0  0  0  0  0  0  0  0  0  0  0  0
   -0.1400   -0.5601    0.0000 S    0  0  0  0  0  0  0  0  0  0  0  0
    0.5904    0.6812    0.0000 C    0  0  0  0  0  0  0  0  0  0  0  0
   -0.8516    1.5138    0.0000 C    0  0  0  0  0  0  0  0  0  0  0  0
   -1.5668    0.2687    0.0000 C    0  0  0  0  0  0  0  0  0  0  0  0
   -0.8516   -0.9650    0.0000 C    0  0  0  0  0  0  0  0  0  0  0  0
    0.1211   -1.3965    0.0000 O    0  0  0  0  0  0  0  0  0  0  0  0
    0.8099   -0.5601    0.0000 O    0  0  0  0  0  0  0  0  0  0  0  0
    1.3019    0.2649    0.0000 C    0  0  0  0  0  0  0  0  0  0  0  0
   -1.5668    1.9225    0.0000 C    0  0  0  0  0  0  0  0  0  0  0  0
   -2.2783    0.6812    0.0000 C    0  0  0  0  0  0  0  0  0  0  0  0
   -0.8516   -1.7900    0.0000 C    0  0  0  0  0  0  0  0  0  0  0  0
   -1.5668   -0.5525    0.0000 C    0  0  0  0  0  0  0  0  0  0  0  0
    2.0171    0.6774    0.0000 N    0  0  0  0  0  0  0  0  0  0  0  0
    1.2981   -0.5601    0.0000 O    0  0  0  0  0  0  0  0  0  0  0  0
   -2.2783    1.5138    0.0000 C    0  0  0  0  0  0  0  0  0  0  0  0
   -1.5668   -2.1988    0.0000 C    0  0  0  0  0  0  0  0  0  0  0  0
   -2.2783   -0.9650    0.0000 C    0  0  0  0  0  0  0  0  0  0  0  0
    2.7286    0.2649    0.0000 C    0  0  0  0  0  0  0  0  0  0  0  0
   -2.9936    1.9225    0.0000 Br   0  0  0  0  0  0  0  0  0  0  0  0
   -2.2783   -1.7900    0.0000 C    0  0  0  0  0  0  0  0  0  0  0  0
    3.4439    0.6774    0.0000 C    0  0  0  0  0  0  0  0  0  0  0  0
    3.2925   -0.5525    0.0000 C    0  0  0  0  0  0  0  0  0  0  0  0
    2.2896   -0.5185    0.0000 C    0  0  0  0  0  0  0  0  0  0  0  0
    4.1554    1.0786    0.0000 C    0  0  0  0  0  0  0  0  0  0  0  0
  1  2  1  0  0  0  0
  1  3  1  0  0  0  0
  1  4  1  0  0  0  0
  2  5  2  0  0  0  0
  2  6  1  0  0  0  0
  3  7  1  0  0  0  0
  3  8  2  0  0  0  0
  3  9  2  0  0  0  0
  4 10  1  0  0  0  0
  5 11  1  0  0  0  0
  6 12  2  0  0  0  0
  7 13  2  0  0  0  0
  7 14  1  0  0  0  0
 10 15  1  0  0  0  0
 10 16  2  0  0  0  0
 11 17  2  0  0  0  0
 12 17  1  0  0  0  0
 13 18  1  0  0  0  0
 14 19  2  0  0  0  0
 15 20  1  0  0  0  0
 17 21  1  0  0  0  0
 18 22  2  0  0  0  0
 19 22  1  0  0  0  0
 20 23  1  0  0  0  0
 20 24  1  0  0  0  0
 20 25  1  0  0  0  0
 23 26  3  0  0  0  0
M  END
> <CdId>
161

> <Mol Weight>
435.335

> <Formula>
C19H19BrN2O3S

> <Click_ID>
CLK003_A02 __ __ 

$$$$
