CLK016_H11
 OpenBabel03181404502D

 26 28  0  0  0  0  0  0  0  0999 V2000
    1.5657   -0.8162    0.0000 N    0  0  0  0  0  0  0  0  0  0  0  0
    1.8239   -1.6032    0.0000 C    0  0  0  0  0  0  0  0  0  0  0  0
    2.2361   -0.3290    0.0000 C    0  0  0  0  0  0  0  0  0  0  0  0
    2.9024   -0.8162    0.0000 C    0  0  0  0  0  0  0  0  0  0  0  0
    2.6484   -1.6032    0.0000 S    0  0  0  0  0  0  0  0  0  0  0  0
    3.6894   -0.5622    0.0000 C    0  0  0  0  0  0  0  0  0  0  0  0
    0.6121    0.2456    0.0000 C    0  0  0  0  0  0  0  0  0  0  0  0
    0.3915    1.0452    0.0000 C    0  0  0  0  0  0  0  0  0  0  0  0
    4.8470    1.2825    0.0000 C    0  0  0  0  0  0  0  0  0  0  0  0
    1.3367   -2.2653    0.0000 O    0  0  0  0  0  0  0  0  0  0  0  0
    2.2278    0.4955    0.0000 O    0  0  0  0  0  0  0  0  0  0  0  0
    4.2474    1.8322    0.0000 C    0  0  0  0  0  0  0  0  0  0  0  0
    3.8768    0.2332    0.0000 C    0  0  0  0  0  0  0  0  0  0  0  0
    0.7870   -0.5622    0.0000 C    0  0  0  0  0  0  0  0  0  0  0  0
    4.6638    0.4705    0.0000 C    0  0  0  0  0  0  0  0  0  0  0  0
    4.4265    2.6442    0.0000 O    0  0  0  0  0  0  0  0  0  0  0  0
    3.4604    1.5990    0.0000 C    0  0  0  0  0  0  0  0  0  0  0  0
    5.6382    1.5199    0.0000 Br   0  0  0  0  0  0  0  0  0  0  0  0
    3.2730    0.7953    0.0000 C    0  0  0  0  0  0  0  0  0  0  0  0
    3.8226    3.2063    0.0000 C    0  0  0  0  0  0  0  0  0  0  0  0
    4.0142    3.9975    0.0000 C    0  0  0  0  0  0  0  0  0  0  0  0
    4.8012    4.2266    0.0000 C    0  0  0  0  0  0  0  0  0  0  0  0
    3.4021    4.5514    0.0000 C    0  0  0  0  0  0  0  0  0  0  0  0
    4.9886    5.0261    0.0000 C    0  0  0  0  0  0  0  0  0  0  0  0
    3.5978    5.3509    0.0000 C    0  0  0  0  0  0  0  0  0  0  0  0
    4.3765    5.5883    0.0000 C    0  0  0  0  0  0  0  0  0  0  0  0
  2  1  1  0  0  0  0
  3  1  1  0  0  0  0
  4  3  1  0  0  0  0
  5  2  1  0  0  0  0
  5  4  1  0  0  0  0
  6  4  2  0  0  0  0
  7 14  1  0  0  0  0
  8  7  3  0  0  0  0
  9 15  2  0  0  0  0
 10  2  2  0  0  0  0
 11  3  2  0  0  0  0
 12 17  2  0  0  0  0
 12  9  1  0  0  0  0
 13  6  1  0  0  0  0
 14  1  1  0  0  0  0
 15 13  1  0  0  0  0
 16 12  1  0  0  0  0
 17 19  1  0  0  0  0
 18  9  1  0  0  0  0
 19 13  2  0  0  0  0
 20 16  1  0  0  0  0
 21 20  1  0  0  0  0
 22 21  2  0  0  0  0
 23 21  1  0  0  0  0
 24 22  1  0  0  0  0
 24 26  2  0  0  0  0
 25 23  2  0  0  0  0
 26 25  1  0  0  0  0
M  END
> <CdId>
1236

> <Mol Weight>
428.299

> <Formula>
C20H14BrNO3S

> <Click_ID>
CLK016_H11 __ __ 

$$$$
