CLK040A06
 OpenBabel03181404502D

 23 25  0  0  0  0  0  0  0  0999 V2000
    0.1833    0.2875    0.0000 C   0  0  0  0  0  0  0  0  0  0  0  0
   -0.5292   -0.1250    0.0000 C   0  0  3  0  0  0  0  0  0  0  0  0
    0.1833    1.1125    0.0000 C   0  0  0  0  0  0  0  0  0  0  0  0
   -1.2458    0.2875    0.0000 N   0  0  0  0  0  0  0  0  0  0  0  0
    0.9000   -0.1250    0.0000 C   0  0  0  0  0  0  0  0  0  0  0  0
    1.6125    0.2875    0.0000 C   0  0  0  0  0  0  0  0  0  0  0  0
    0.9000    1.5250    0.0000 C   0  0  0  0  0  0  0  0  0  0  0  0
   -2.6750    0.2875    0.0000 C   0  0  0  0  0  0  0  0  0  0  0  0
    1.6125    1.1125    0.0000 C   0  0  0  0  0  0  0  0  0  0  0  0
   -3.3875    0.7000    0.0000 C   0  0  0  0  0  0  0  0  0  0  0  0
   -1.2458    1.1125    0.0000 C   0  0  0  0  0  0  0  0  0  0  0  0
   -0.5292    1.5250    0.0000 C   0  0  0  0  0  0  0  0  0  0  0  0
   -0.5292   -0.9500    0.0000 C   0  0  0  0  0  0  0  0  0  0  0  0
   -1.9583   -0.1250    0.0000 C   0  0  0  0  0  0  0  0  0  0  0  0
    2.3292   -0.1250    0.0000 O   0  0  0  0  0  0  0  0  0  0  0  0
    2.3292    1.5250    0.0000 O   0  0  0  0  0  0  0  0  0  0  0  0
   -1.2458   -1.3625    0.0000 C   0  0  0  0  0  0  0  0  0  0  0  0
    0.1833   -1.3625    0.0000 C   0  0  0  0  0  0  0  0  0  0  0  0
    2.3292    2.3500    0.0000 C   0  0  0  0  0  0  0  0  0  0  0  0
    2.3292   -0.9500    0.0000 C   0  0  0  0  0  0  0  0  0  0  0  0
   -1.2458   -2.1875    0.0000 C   0  0  0  0  0  0  0  0  0  0  0  0
    0.1833   -2.1875    0.0000 C   0  0  0  0  0  0  0  0  0  0  0  0
   -0.5292   -2.6000    0.0000 C   0  0  0  0  0  0  0  0  0  0  0  0
  2  1  1  0  0  0  0
  3  1  1  0  0  0  0
  4  2  1  0  0  0  0
  4 11  1  0  0  0  0
  5  1  2  0  0  0  0
  6  5  1  0  0  0  0
  7  3  2  0  0  0  0
  7  9  1  0  0  0  0
  8 14  1  0  0  0  0
  9  6  2  0  0  0  0
 10  8  3  0  0  0  0
 11 12  1  0  0  0  0
 12  3  1  0  0  0  0
 13  2  1  0  0  0  0
 14  4  1  0  0  0  0
 15  6  1  0  0  0  0
 16  9  1  0  0  0  0
 17 13  1  0  0  0  0
 18 13  2  0  0  0  0
 19 16  1  0  0  0  0
 20 15  1  0  0  0  0
 21 17  2  0  0  0  0
 22 18  1  0  0  0  0
 23 22  2  0  0  0  0
 23 21  1  0  0  0  0
M  END
> <CdId>
3041

> <Mol Weight>
307.3862

> <Formula>
C20H21NO2

> <Click_ID>
CLK040A06 __ __ 

$$$$
