CLK027_D04
 OpenBabel03181404502D

 26 28  0  0  0  0  0  0  0  0999 V2000
   -1.2169   -0.5328    0.0000 C    0  0  3  0  0  0  0  0  0  0  0  0
   -1.8940   -1.0106    0.0000 C    0  0  0  0  0  0  0  0  0  0  0  0
   -1.4712    0.2510    0.0000 C    0  0  0  0  0  0  0  0  0  0  0  0
   -2.5575   -0.5259    0.0000 N    0  0  0  0  0  0  0  0  0  0  0  0
   -2.3032    0.2543    0.0000 C    0  0  0  0  0  0  0  0  0  0  0  0
   -0.3919   -0.5328    0.0000 C    0  0  0  0  0  0  0  0  0  0  0  0
    0.0172    0.1856    0.0000 C    0  0  0  0  0  0  0  0  0  0  0  0
   -3.5131   -1.5881    0.0000 C    0  0  0  0  0  0  0  0  0  0  0  0
   -2.7019    0.9728    0.0000 C    0  0  0  0  0  0  0  0  0  0  0  0
   -3.7297   -2.3822    0.0000 C    0  0  0  0  0  0  0  0  0  0  0  0
   -1.0519    0.9625    0.0000 C    0  0  0  0  0  0  0  0  0  0  0  0
   -1.9078   -1.8494    0.0000 O    0  0  0  0  0  0  0  0  0  0  0  0
    0.8422    0.1856    0.0000 C    0  0  0  0  0  0  0  0  0  0  0  0
   -3.3378   -0.7734    0.0000 C    0  0  0  0  0  0  0  0  0  0  0  0
   -1.0038   -1.3235    0.0000 O    0  0  0  0  0  0  0  0  0  0  0  0
   -0.4022    0.9007    0.0000 O    0  0  0  0  0  0  0  0  0  0  0  0
    1.2443    0.9007    0.0000 C    0  0  0  0  0  0  0  0  0  0  0  0
    1.2547   -0.5259    0.0000 C    0  0  0  0  0  0  0  0  0  0  0  0
   -1.4644    1.6741    0.0000 C    0  0  0  0  0  0  0  0  0  0  0  0
   -2.2894    1.6844    0.0000 C    0  0  0  0  0  0  0  0  0  0  0  0
    2.0693   -0.5259    0.0000 C    0  0  0  0  0  0  0  0  0  0  0  0
    2.0660    0.9110    0.0000 C    0  0  0  0  0  0  0  0  0  0  0  0
   -1.0416    2.3857    0.0000 Br   0  0  0  0  0  0  0  0  0  0  0  0
    2.4818    0.1925    0.0000 C    0  0  0  0  0  0  0  0  0  0  0  0
    3.3068    0.1994    0.0000 C    0  0  0  0  0  0  0  0  0  0  0  0
    3.7263   -0.5122    0.0000 C    0  0  0  0  0  0  0  0  0  0  0  0
  2  1  1  0  0  0  0
  3  1  1  0  0  0  0
  4  2  1  0  0  0  0
  5  3  2  0  0  0  0
  5  4  1  0  0  0  0
  6  1  1  0  0  0  0
  7  6  1  0  0  0  0
  8 14  1  0  0  0  0
  9  5  1  0  0  0  0
 10  8  3  0  0  0  0
 11  3  1  0  0  0  0
 12  2  2  0  0  0  0
 13  7  1  0  0  0  0
 14  4  1  0  0  0  0
 15  1  1  0  0  0  0
 16  7  2  0  0  0  0
 17 13  1  0  0  0  0
 18 13  2  0  0  0  0
 19 11  2  0  0  0  0
 20 19  1  0  0  0  0
 20  9  2  0  0  0  0
 21 18  1  0  0  0  0
 22 17  2  0  0  0  0
 22 24  1  0  0  0  0
 23 19  1  0  0  0  0
 24 21  2  0  0  0  0
 25 24  1  0  0  0  0
 26 25  1  0  0  0  0
M  END
> <CdId>
2046

> <Mol Weight>
412.277

> <Formula>
C21H18BrNO3

> <Click_ID>
CLK027_D04 __ __ 

$$$$
