CLK037C07
 OpenBabel03181404502D

 31 31  0  0  0  0  0  0  0  0999 V2000
    8.2292    0.3583    0.0000 C   0  0  0  0  0  0  0  0  0  0  0  0
    7.8167   -0.3542    0.0000 C   0  0  0  0  0  0  0  0  0  0  0  0
   -4.6625   -0.9708    0.0000 C   0  0  0  0  0  0  0  0  0  0  0  0
   -5.3750   -1.3833    0.0000 C   0  0  0  0  0  0  0  0  0  0  0  0
   -1.8042   -0.9708    0.0000 C   0  0  0  0  0  0  0  0  0  0  0  0
   -2.5167   -0.5583    0.0000 C   0  0  0  0  0  0  0  0  0  0  0  0
    9.0542    0.3583    0.0000 O   0  0  0  0  0  0  0  0  0  0  0  0
    8.2292   -1.0708    0.0000 O   0  0  0  0  0  0  0  0  0  0  0  0
   -1.0875   -0.5583    0.0000 C   0  0  0  0  0  0  0  0  0  0  0  0
   -2.5167    0.2667    0.0000 C   0  0  0  0  0  0  0  0  0  0  0  0
    7.8167    1.0750    0.0000 O   0  0  0  0  0  0  0  0  0  0  0  0
    6.9917   -0.3542    0.0000 O   0  0  0  0  0  0  0  0  0  0  0  0
   -1.0875    0.2667    0.0000 C   0  0  0  0  0  0  0  0  0  0  0  0
    3.9125    1.5042    0.0000 C   0  0  0  0  0  0  0  0  0  0  0  0
   -1.8042    0.6792    0.0000 C   0  0  0  0  0  0  0  0  0  0  0  0
   -1.8042   -1.7958    0.0000 O   0  0  0  0  0  0  0  0  0  0  0  0
    0.3417    0.2667    0.0000 N   0  0  0  0  0  0  0  0  0  0  0  0
    2.4833    0.6792    0.0000 C   0  0  0  0  0  0  0  0  0  0  0  0
   -3.2333   -0.9708    0.0000 O   0  0  0  0  0  0  0  0  0  0  0  0
    3.9125    0.6792    0.0000 C   0  0  0  0  0  0  0  0  0  0  0  0
    3.2000    1.9167    0.0000 C   0  0  0  0  0  0  0  0  0  0  0  0
    3.2000    0.2667    0.0000 C   0  0  0  0  0  0  0  0  0  0  0  0
    2.4833    1.5042    0.0000 C   0  0  0  0  0  0  0  0  0  0  0  0
   -3.9458   -0.5583    0.0000 C   0  0  0  0  0  0  0  0  0  0  0  0
    4.6292    1.9167    0.0000 O   0  0  0  0  0  0  0  0  0  0  0  0
   -0.3750    0.6792    0.0000 C   0  0  0  0  0  0  0  0  0  0  0  0
    1.0542    0.6792    0.0000 C   0  0  0  0  0  0  0  0  0  0  0  0
    1.7708    0.2667    0.0000 C   0  0  0  0  0  0  0  0  0  0  0  0
   -1.0875   -2.2083    0.0000 C   0  0  0  0  0  0  0  0  0  0  0  0
    5.3417    1.5042    0.0000 C   0  0  0  0  0  0  0  0  0  0  0  0
   -1.0875   -3.0333    0.0000 C   0  0  0  0  0  0  0  0  0  0  0  0
  2  1  1  0  0  0  0
  4  3  3  0  0  0  0
  5  6  2  0  0  0  0
  6 19  1  0  0  0  0
  7  1  2  0  0  0  0
  8  2  2  0  0  0  0
  9  5  1  0  0  0  0
 10  6  1  0  0  0  0
 11  1  1  0  0  0  0
 12  2  1  0  0  0  0
 13  9  2  0  0  0  0
 14 21  2  0  0  0  0
 14 20  1  0  0  0  0
 15 10  2  0  0  0  0
 15 13  1  0  0  0  0
 16  5  1  0  0  0  0
 17 26  1  0  0  0  0
 18 28  1  0  0  0  0
 19 24  1  0  0  0  0
 20 22  2  0  0  0  0
 21 23  1  0  0  0  0
 22 18  1  0  0  0  0
 23 18  2  0  0  0  0
 24  3  1  0  0  0  0
 25 14  1  0  0  0  0
 26 13  1  0  0  0  0
 27 17  1  0  0  0  0
 28 27  1  0  0  0  0
 29 16  1  0  0  0  0
 30 25  1  0  0  0  0
 31 29  1  0  0  0  0
M  END
> <CdId>
2811

> <Mol Weight>
429.463

> <Formula>
C23H27NO7

> <Click_ID>
CLK037C07 __ __ 

$$$$
