CLK009_B10
 OpenBabel03181404502D

 25 27  0  0  0  0  0  0  0  0999 V2000
    0.1665    1.4850    0.0000 N   0  0  0  0  0  0  0  0  0  0  0  0
    0.6384    2.1511    0.0000 C   0  0  0  0  0  0  0  0  0  0  0  0
    0.1665    2.8173    0.0000 N   0  0  0  0  0  0  0  0  0  0  0  0
   -0.6106    1.7175    0.0000 C   0  0  0  0  0  0  0  0  0  0  0  0
    0.4580    0.7043    0.0000 C   0  0  0  0  0  0  0  0  0  0  0  0
   -0.6106    2.5675    0.0000 C   0  0  0  0  0  0  0  0  0  0  0  0
   -0.0833    0.0833    0.0000 C   0  0  0  0  0  0  0  0  0  0  0  0
    2.7202    1.4572    0.0000 C   0  0  0  0  0  0  0  0  0  0  0  0
    3.1262    0.7459    0.0000 C   0  0  0  0  0  0  0  0  0  0  0  0
   -0.9021    0.2463    0.0000 C   0  0  0  0  0  0  0  0  0  0  0  0
    1.4712    2.1511    0.0000 S   0  0  0  0  0  0  0  0  0  0  0  0
    1.2491    0.5378    0.0000 O   0  0  0  0  0  0  0  0  0  0  0  0
   -1.4433   -0.3470    0.0000 C   0  0  0  0  0  0  0  0  0  0  0  0
   -2.5398   -1.5822    0.0000 C   0  0  0  0  0  0  0  0  0  0  0  0
    1.8736    1.4572    0.0000 C   0  0  0  0  0  0  0  0  0  0  0  0
   -1.1831   -1.1242    0.0000 C   0  0  0  0  0  0  0  0  0  0  0  0
   -2.2587   -0.1700    0.0000 C   0  0  0  0  0  0  0  0  0  0  0  0
   -2.8000   -0.7946    0.0000 C   0  0  0  0  0  0  0  0  0  0  0  0
   -1.7244   -1.7487    0.0000 C   0  0  0  0  0  0  0  0  0  0  0  0
   -1.3288    1.3184    0.0000 C   0  0  0  0  0  0  0  0  0  0  0  0
   -3.0810   -2.1894    0.0000 O   0  0  0  0  0  0  0  0  0  0  0  0
   -1.3288    2.9734    0.0000 C   0  0  0  0  0  0  0  0  0  0  0  0
   -2.8312   -2.9596    0.0000 C   0  0  0  0  0  0  0  0  0  0  0  0
   -2.0401    1.7175    0.0000 C   0  0  0  0  0  0  0  0  0  0  0  0
   -2.0401    2.5675    0.0000 C   0  0  0  0  0  0  0  0  0  0  0  0
  2  1  1  0  0  0  0
  3  2  2  0  0  0  0
  4  1  1  0  0  0  0
  5  1  1  0  0  0  0
  6  4  1  0  0  0  0
  6  3  1  0  0  0  0
  7  5  1  0  0  0  0
  8 15  1  0  0  0  0
  9  8  3  0  0  0  0
 10  7  2  0  0  0  0
 11  2  1  0  0  0  0
 12  5  2  0  0  0  0
 13 10  1  0  0  0  0
 14 18  1  0  0  0  0
 14 19  2  0  0  0  0
 15 11  1  0  0  0  0
 16 13  2  0  0  0  0
 17 13  1  0  0  0  0
 18 17  2  0  0  0  0
 19 16  1  0  0  0  0
 20  4  2  0  0  0  0
 21 14  1  0  0  0  0
 22  6  2  0  0  0  0
 23 21  1  0  0  0  0
 24 20  1  0  0  0  0
 25 24  2  0  0  0  0
 25 22  1  0  0  0  0
M  END
> <CdId>
615

> <Mol Weight>
348.418

> <Formula>
C20H16N2O2S

> <Click_ID>
CLK009_B10 __ __ 

$$$$
