CLK001_E04
 OpenBabel03181404502D

 15 16  0  0  0  0  0  0  0  0999 V2000
   -0.7210    0.0924    0.0000 C   0  0  0  0  0  0  0  0  0  0  0  0
   -0.3861   -0.6607    0.0000 C   0  0  0  0  0  0  0  0  0  0  0  0
   -0.1078    0.6427    0.0000 C   0  0  0  0  0  0  0  0  0  0  0  0
   -1.5446    0.1771    0.0000 C   0  0  0  0  0  0  0  0  0  0  0  0
    0.4349   -0.5773    0.0000 S   0  0  0  0  0  0  0  0  0  0  0  0
   -0.8698   -1.3291    0.0000 C   0  0  0  0  0  0  0  0  0  0  0  0
    0.6068    0.2322    0.0000 N   0  0  0  0  0  0  0  0  0  0  0  0
   -0.1924    1.4663    0.0000 O   0  0  0  0  0  0  0  0  0  0  0  0
   -2.0282   -0.4875    0.0000 C   0  0  0  0  0  0  0  0  0  0  0  0
    1.2598   -0.6171    0.0000 O   0  0  0  0  0  0  0  0  0  0  0  0
    0.2309   -1.3727    0.0000 O   0  0  0  0  0  0  0  0  0  0  0  0
   -1.6934   -1.2418    0.0000 C   0  0  0  0  0  0  0  0  0  0  0  0
    1.3624    0.5683    0.0000 C   0  0  0  0  0  0  0  0  0  0  0  0
    1.4458    1.3868    0.0000 C   0  0  0  0  0  0  0  0  0  0  0  0
    2.2027    1.7216    0.0000 C   0  0  0  0  0  0  0  0  0  0  0  0
  1  2  1  0  0  0  0
  1  3  1  0  0  0  0
  1  4  2  0  0  0  0
  2  5  1  0  0  0  0
  2  6  2  0  0  0  0
  3  7  1  0  0  0  0
  3  8  2  0  0  0  0
  4  9  1  0  0  0  0
  5 10  2  0  0  0  0
  5 11  2  0  0  0  0
  5  7  1  0  0  0  0
  6 12  1  0  0  0  0
  7 13  1  0  0  0  0
  9 12  2  0  0  0  0
 13 14  1  0  0  0  0
 14 15  3  0  0  0  0
M  END
> <CdId>
43

> <Mol Weight>
221.232

> <Formula>
C10H7NO3S

> <Click_ID>
CLK001_E04 __ __ 

$$$$
