CLK027_E02
 OpenBabel03181404502D

 24 26  0  0  0  0  0  0  0  0999 V2000
    0.9559    0.8940    0.0000 C   0  0  0  0  0  0  0  0  0  0  0  0
    1.0384    0.0757    0.0000 C   0  0  0  0  0  0  0  0  0  0  0  0
    1.8500   -0.0963    0.0000 N   0  0  0  0  0  0  0  0  0  0  0  0
    1.7124    1.2310    0.0000 C   0  0  0  0  0  0  0  0  0  0  0  0
    2.2626    0.6189    0.0000 C   0  0  0  0  0  0  0  0  0  0  0  0
    0.2407    1.3066    0.0000 N   0  0  0  0  0  0  0  0  0  0  0  0
   -1.9016    0.8940    0.0000 C   0  0  0  0  0  0  0  0  0  0  0  0
   -1.1898    1.3066    0.0000 C   0  0  0  0  0  0  0  0  0  0  0  0
   -0.4745    0.8940    0.0000 N   0  0  0  0  0  0  0  0  0  0  0  0
    1.6986   -1.5199    0.0000 C   0  0  0  0  0  0  0  0  0  0  0  0
    1.2173   -2.1835    0.0000 C   0  0  0  0  0  0  0  0  0  0  0  0
    0.4333   -0.4745    0.0000 O   0  0  0  0  0  0  0  0  0  0  0  0
   -1.9016    0.0722    0.0000 C   0  0  0  0  0  0  0  0  0  0  0  0
    2.1869   -0.8494    0.0000 C   0  0  0  0  0  0  0  0  0  0  0  0
   -1.1898    2.1319    0.0000 O   0  0  0  0  0  0  0  0  0  0  0  0
   -1.1898   -0.3404    0.0000 F   0  0  0  0  0  0  0  0  0  0  0  0
    1.9668    2.0116    0.0000 C   0  0  0  0  0  0  0  0  0  0  0  0
    3.0741    0.7840    0.0000 C   0  0  0  0  0  0  0  0  0  0  0  0
   -2.6167    1.3136    0.0000 C   0  0  0  0  0  0  0  0  0  0  0  0
   -2.6167   -0.3404    0.0000 C   0  0  0  0  0  0  0  0  0  0  0  0
    2.7715    2.1869    0.0000 C   0  0  0  0  0  0  0  0  0  0  0  0
   -3.3320    0.8940    0.0000 C   0  0  0  0  0  0  0  0  0  0  0  0
    3.3285    1.5680    0.0000 C   0  0  0  0  0  0  0  0  0  0  0  0
   -3.3320    0.0722    0.0000 C   0  0  0  0  0  0  0  0  0  0  0  0
  2  1  1  0  0  0  0
  3  2  1  0  0  0  0
  3  5  1  0  0  0  0
  4  1  1  0  0  0  0
  5  4  2  0  0  0  0
  6  1  2  0  0  0  0
  7  8  1  0  0  0  0
  8  9  1  0  0  0  0
  9  6  1  0  0  0  0
 10 14  1  0  0  0  0
 11 10  3  0  0  0  0
 12  2  2  0  0  0  0
 13  7  2  0  0  0  0
 14  3  1  0  0  0  0
 15  8  2  0  0  0  0
 16 13  1  0  0  0  0
 17  4  1  0  0  0  0
 18  5  1  0  0  0  0
 18 23  2  0  0  0  0
 19  7  1  0  0  0  0
 20 13  1  0  0  0  0
 21 17  2  0  0  0  0
 22 19  2  0  0  0  0
 23 21  1  0  0  0  0
 24 22  1  0  0  0  0
 24 20  2  0  0  0  0
M  END
> <CdId>
2053

> <Mol Weight>
321.3052

> <Formula>
C18H12FN3O2

> <Click_ID>
CLK027_E02 __ __ 

$$$$
