CLK017_C07
 OpenBabel03181404502D

 20 21  0  0  0  0  0  0  0  0999 V2000
    6.2471   -1.2786    0.0000 N   0  0  0  0  0  0  0  0  0  0  0  0
    5.9098   -2.0283    0.0000 C   0  0  0  0  0  0  0  0  0  0  0  0
    5.6391   -0.7164    0.0000 C   0  0  0  0  0  0  0  0  0  0  0  0
    4.9227   -1.1287    0.0000 C   0  0  0  0  0  0  0  0  0  0  0  0
    5.0894   -1.9366    0.0000 S   0  0  0  0  0  0  0  0  0  0  0  0
    4.1648   -0.7913    0.0000 C   0  0  0  0  0  0  0  0  0  0  0  0
    6.3138   -2.7404    0.0000 S   0  0  0  0  0  0  0  0  0  0  0  0
    0.8788   -4.0398    0.0000 C   0  0  0  0  0  0  0  0  0  0  0  0
    0.2041   -4.5146    0.0000 C   0  0  0  0  0  0  0  0  0  0  0  0
    5.7266    0.0958    0.0000 O   0  0  0  0  0  0  0  0  0  0  0  0
    3.4901   -1.2786    0.0000 C   0  0  0  0  0  0  0  0  0  0  0  0
    7.0510   -1.1037    0.0000 C   0  0  0  0  0  0  0  0  0  0  0  0
    2.1282   -2.2490    0.0000 C   0  0  0  0  0  0  0  0  0  0  0  0
    3.5651   -2.0990    0.0000 C   0  0  0  0  0  0  0  0  0  0  0  0
    2.7279   -0.9288    0.0000 C   0  0  0  0  0  0  0  0  0  0  0  0
    2.8987   -2.5780    0.0000 C   0  0  0  0  0  0  0  0  0  0  0  0
    2.0616   -1.4036    0.0000 C   0  0  0  0  0  0  0  0  0  0  0  0
    1.5410   -3.5484    0.0000 C   0  0  0  0  0  0  0  0  0  0  0  0
    1.4660   -2.7279    0.0000 O   0  0  0  0  0  0  0  0  0  0  0  0
    7.3133   -0.3249    0.0000 C   0  0  0  0  0  0  0  0  0  0  0  0
  2  1  1  0  0  0  0
  3  1  1  0  0  0  0
  4  3  1  0  0  0  0
  5  2  1  0  0  0  0
  5  4  1  0  0  0  0
  6  4  2  0  0  0  0
  7  2  2  0  0  0  0
  8 18  1  0  0  0  0
  9  8  3  0  0  0  0
 10  3  2  0  0  0  0
 11  6  1  0  0  0  0
 12  1  1  0  0  0  0
 13 17  2  0  0  0  0
 13 16  1  0  0  0  0
 14 11  1  0  0  0  0
 15 11  2  0  0  0  0
 16 14  2  0  0  0  0
 17 15  1  0  0  0  0
 18 19  1  0  0  0  0
 19 13  1  0  0  0  0
 20 12  1  0  0  0  0
M  END
> <CdId>
1262

> <Mol Weight>
303.399

> <Formula>
C15H13NO2S2

> <Click_ID>
CLK017_C07 __ __ 

$$$$
