CLK002_B08
 OpenBabel03181404502D

 12 12  0  0  0  0  0  0  0  0999 V2000
   -0.4465    0.5694    0.0000 C   0  0  3  0  0  0  0  0  0  0  0  0
   -0.8623   -0.1434    0.0000 C   0  0  0  0  0  0  0  0  0  0  0  0
    0.3748    0.5694    0.0000 C   0  0  0  0  0  0  0  0  0  0  0  0
    0.0553    1.2227    0.0000 C   0  0  0  0  0  0  0  0  0  0  0  0
   -1.1101    0.9339    0.0000 O   0  0  0  0  0  0  0  0  0  0  0  0
   -0.4465   -0.8561    0.0000 C   0  0  3  0  0  0  0  0  0  0  0  0
    0.7906   -0.1434    0.0000 C   0  0  3  0  0  0  0  0  0  0  0  0
   -0.2704    1.9806    0.0000 C   0  0  0  0  0  0  0  0  0  0  0  0
    0.3748   -0.8561    0.0000 N   0  0  0  0  0  0  0  0  0  0  0  0
   -0.8623   -1.5689    0.0000 C   0  0  0  0  0  0  0  0  0  0  0  0
    1.6098   -0.1434    0.0000 C   0  0  0  0  0  0  0  0  0  0  0  0
    0.7906   -1.5689    0.0000 C   0  0  0  0  0  0  0  0  0  0  0  0
  1  2  1  0  0  0  0
  1  3  1  0  0  0  0
  1  4  1  0  0  0  0
  1  5  1  0  0  0  0
  2  6  1  0  0  0  0
  3  7  1  0  0  0  0
  4  8  3  0  0  0  0
  6  9  1  0  0  0  0
  6 10  1  0  0  0  0
  7 11  1  0  0  0  0
  7  9  1  0  0  0  0
  9 12  1  0  0  0  0
M  END
> <CdId>
97

> <Mol Weight>
167.2481

> <Formula>
C10H17NO

> <Click_ID>
CLK002_B08 __ __ 

$$$$
