CLK015_F11
 OpenBabel03181404502D

 24 26  0  0  0  0  0  0  0  0999 V2000
    1.5677   -0.8172    0.0000 N   0  0  0  0  0  0  0  0  0  0  0  0
    1.8262   -1.6052    0.0000 C   0  0  0  0  0  0  0  0  0  0  0  0
    2.9061   -0.8172    0.0000 C   0  0  0  0  0  0  0  0  0  0  0  0
    2.2389   -0.3294    0.0000 C   0  0  0  0  0  0  0  0  0  0  0  0
    2.6517   -1.6052    0.0000 S   0  0  0  0  0  0  0  0  0  0  0  0
    3.6941   -0.5629    0.0000 C   0  0  0  0  0  0  0  0  0  0  0  0
    4.3570    2.6642    0.0000 N   0  0  0  0  0  0  0  0  0  0  0  0
    3.8567    0.2460    0.0000 C   0  0  0  0  0  0  0  0  0  0  0  0
    4.1944    1.8595    0.0000 C   0  0  0  0  0  0  0  0  0  0  0  0
    0.6129    0.2460    0.0000 C   0  0  0  0  0  0  0  0  0  0  0  0
    4.8073    1.3091    0.0000 C   0  0  0  0  0  0  0  0  0  0  0  0
    0.3920    1.0465    0.0000 C   0  0  0  0  0  0  0  0  0  0  0  0
    4.6447    0.5003    0.0000 C   0  0  0  0  0  0  0  0  0  0  0  0
    1.3384   -2.2681    0.0000 O   0  0  0  0  0  0  0  0  0  0  0  0
    2.2306    0.4961    0.0000 O   0  0  0  0  0  0  0  0  0  0  0  0
    0.7880   -0.5629    0.0000 C   0  0  0  0  0  0  0  0  0  0  0  0
    3.4147    1.5968    0.0000 C   0  0  0  0  0  0  0  0  0  0  0  0
    3.2438    0.7963    0.0000 C   0  0  0  0  0  0  0  0  0  0  0  0
    3.7441    3.2104    0.0000 C   0  0  0  0  0  0  0  0  0  0  0  0
    5.1408    2.9227    0.0000 C   0  0  0  0  0  0  0  0  0  0  0  0
    5.2576   -0.0500    0.0000 C   0  0  0  0  0  0  0  0  0  0  0  0
    3.9067    4.0151    0.0000 C   0  0  0  0  0  0  0  0  0  0  0  0
    5.3159    3.7232    0.0000 C   0  0  0  0  0  0  0  0  0  0  0  0
    4.6947    4.2694    0.0000 C   0  0  0  0  0  0  0  0  0  0  0  0
  2  1  1  0  0  0  0
  3  4  1  0  0  0  0
  3  5  1  0  0  0  0
  4  1  1  0  0  0  0
  5  2  1  0  0  0  0
  6  3  2  0  0  0  0
  7  9  1  0  0  0  0
  8  6  1  0  0  0  0
  9 17  1  0  0  0  0
  9 11  2  0  0  0  0
 10 16  1  0  0  0  0
 11 13  1  0  0  0  0
 12 10  3  0  0  0  0
 13  8  2  0  0  0  0
 14  2  2  0  0  0  0
 15  4  2  0  0  0  0
 16  1  1  0  0  0  0
 17 18  2  0  0  0  0
 18  8  1  0  0  0  0
 19  7  1  0  0  0  0
 20  7  1  0  0  0  0
 21 13  1  0  0  0  0
 22 19  1  0  0  0  0
 23 20  1  0  0  0  0
 24 23  1  0  0  0  0
 24 22  1  0  0  0  0
M  END
> <CdId>
1136

> <Mol Weight>
340.439

> <Formula>
C19H20N2O2S

> <Click_ID>
CLK015_F11 __ __ 

$$$$
