CLK045H02
 OpenBabel03181404502D

 30 32  0  0  0  0  0  0  0  0999 V2000
   -0.3709    3.6967    0.0000 S   0  0  0  0  0  0  0  0  0  0  0  0
   -0.1333   -1.5087    0.0000 S   0  0  0  0  0  0  0  0  0  0  0  0
    0.3501   -0.8419    0.0000 C   0  0  0  0  0  0  0  0  0  0  0  0
    0.3501   -2.1798    0.0000 C   0  0  0  0  0  0  0  0  0  0  0  0
    1.1378   -1.9213    0.0000 N   0  0  0  0  0  0  0  0  0  0  0  0
    0.0958   -0.0583    0.0000 N   0  0  0  0  0  0  0  0  0  0  0  0
    1.1378   -1.0961    0.0000 N   0  0  0  0  0  0  0  0  0  0  0  0
    0.6502    0.5543    0.0000 C   0  0  0  0  0  0  0  0  0  0  0  0
   -0.1167    2.9090    0.0000 C   0  0  0  0  0  0  0  0  0  0  0  0
   -0.3293    5.8723    0.0000 C   0  0  0  0  0  0  0  0  0  0  0  0
   -0.5834    6.6600    0.0000 C   0  0  0  0  0  0  0  0  0  0  0  0
    0.4126    3.9510    0.0000 O   0  0  0  0  0  0  0  0  0  0  0  0
   -1.1545    3.4384    0.0000 O   0  0  0  0  0  0  0  0  0  0  0  0
    0.0958   -2.9633    0.0000 C   0  0  0  0  0  0  0  0  0  0  0  0
    0.3918    1.3420    0.0000 C   0  0  0  0  0  0  0  0  0  0  0  0
   -0.6252    4.4761    0.0000 N   0  0  0  0  0  0  0  0  0  0  0  0
    1.4546    0.3834    0.0000 O   0  0  0  0  0  0  0  0  0  0  0  0
   -0.4126   -4.5304    0.0000 C   0  0  0  0  0  0  0  0  0  0  0  0
   -0.6669    2.2964    0.0000 C   0  0  0  0  0  0  0  0  0  0  0  0
    0.6919    2.7382    0.0000 C   0  0  0  0  0  0  0  0  0  0  0  0
    0.6502   -3.5759    0.0000 C   0  0  0  0  0  0  0  0  0  0  0  0
   -0.7127   -3.1341    0.0000 C   0  0  0  0  0  0  0  0  0  0  0  0
   -0.4126    1.5129    0.0000 C   0  0  0  0  0  0  0  0  0  0  0  0
    0.9460    1.9547    0.0000 C   0  0  0  0  0  0  0  0  0  0  0  0
    0.3918   -4.3594    0.0000 C   0  0  0  0  0  0  0  0  0  0  0  0
   -0.9669   -3.9177    0.0000 C   0  0  0  0  0  0  0  0  0  0  0  0
   -0.6669   -5.3181    0.0000 C   0  0  0  0  0  0  0  0  0  0  0  0
   -0.0750    5.0888    0.0000 C   0  0  0  0  0  0  0  0  0  0  0  0
   -0.1167   -5.9307    0.0000 C   0  0  0  0  0  0  0  0  0  0  0  0
   -1.4754   -5.4889    0.0000 C   0  0  0  0  0  0  0  0  0  0  0  0
  2  3  1  0  0  0  0
  3  6  1  0  0  0  0
  4  2  1  0  0  0  0
  5  7  1  0  0  0  0
  5  4  2  0  0  0  0
  6  8  1  0  0  0  0
  7  3  2  0  0  0  0
  8 15  1  0  0  0  0
  9  1  1  0  0  0  0
 10 28  1  0  0  0  0
 11 10  3  0  0  0  0
 12  1  2  0  0  0  0
 13  1  2  0  0  0  0
 14  4  1  0  0  0  0
 15 23  2  0  0  0  0
 16  1  1  0  0  0  0
 17  8  2  0  0  0  0
 18 26  2  0  0  0  0
 19  9  2  0  0  0  0
 20  9  1  0  0  0  0
 21 14  1  0  0  0  0
 22 14  2  0  0  0  0
 23 19  1  0  0  0  0
 24 20  2  0  0  0  0
 24 15  1  0  0  0  0
 25 21  2  0  0  0  0
 25 18  1  0  0  0  0
 26 22  1  0  0  0  0
 27 18  1  0  0  0  0
 28 16  1  0  0  0  0
 29 27  1  0  0  0  0
 30 27  1  0  0  0  0
M  END
> <CdId>
3416

> <Mol Weight>
440.538

> <Formula>
C21H20N4O3S2

> <Click_ID>
CLK045H02 __ __ 

$$$$
