CLK006_F05
 OpenBabel03181404502D

 18 19  0  0  0  0  0  0  0  0999 V2000
   -1.1899    0.2760    0.0000 C   0  0  0  0  0  0  0  0  0  0  0  0
   -0.4001    0.0310    0.0000 N   0  0  0  0  0  0  0  0  0  0  0  0
   -1.2002    1.1105    0.0000 C   0  0  0  0  0  0  0  0  0  0  0  0
   -1.9107   -0.1345    0.0000 C   0  0  0  0  0  0  0  0  0  0  0  0
    0.0897    0.7070    0.0000 C   0  0  0  0  0  0  0  0  0  0  0  0
    0.0138   -0.6829    0.0000 C   0  0  0  0  0  0  0  0  0  0  0  0
   -0.4104    1.3762    0.0000 N   0  0  0  0  0  0  0  0  0  0  0  0
   -1.9107    1.5279    0.0000 C   0  0  0  0  0  0  0  0  0  0  0  0
   -2.6281    0.2829    0.0000 C   0  0  0  0  0  0  0  0  0  0  0  0
    0.9140    0.7104    0.0000 C   0  0  0  0  0  0  0  0  0  0  0  0
   -0.3932   -1.3934    0.0000 C   0  0  0  0  0  0  0  0  0  0  0  0
   -2.6281    1.1140    0.0000 C   0  0  0  0  0  0  0  0  0  0  0  0
    1.3313    0.0034    0.0000 C   0  0  0  0  0  0  0  0  0  0  0  0
    0.0172   -2.1073    0.0000 C   0  0  0  0  0  0  0  0  0  0  0  0
    2.1556    0.0069    0.0000 N   0  0  0  0  0  0  0  0  0  0  0  0
    2.5764   -0.7070    0.0000 C   0  0  0  0  0  0  0  0  0  0  0  0
    3.4007   -0.6967    0.0000 C   0  0  0  0  0  0  0  0  0  0  0  0
    2.1695   -1.4244    0.0000 O   0  0  0  0  0  0  0  0  0  0  0  0
  1  2  1  0  0  0  0
  1  3  1  0  0  0  0
  1  4  2  0  0  0  0
  2  5  1  0  0  0  0
  2  6  1  0  0  0  0
  3  7  1  0  0  0  0
  3  8  2  0  0  0  0
  4  9  1  0  0  0  0
  5 10  1  0  0  0  0
  5  7  2  0  0  0  0
  6 11  1  0  0  0  0
  8 12  1  0  0  0  0
  9 12  2  0  0  0  0
 10 13  1  0  0  0  0
 11 14  3  0  0  0  0
 13 15  1  0  0  0  0
 15 16  1  0  0  0  0
 16 17  1  0  0  0  0
 16 18  2  0  0  0  0
M  END
> <CdId>
454

> <Mol Weight>
241.2884

> <Formula>
C14H15N3O

> <Click_ID>
CLK006_F05 __ __ 

$$$$
