CLK024_C07
 OpenBabel03181404502D

 26 28  0  0  0  0  0  0  0  0999 V2000
   -2.4475    0.2956    0.0000 N    0  0  0  0  0  0  0  0  0  0  0  0
    1.2375    0.0103    0.0000 N    0  0  0  0  0  0  0  0  0  0  0  0
   -2.7844   -0.4641    0.0000 C    0  0  0  0  0  0  0  0  0  0  0  0
   -1.4540   -0.5843    0.0000 C    0  0  0  0  0  0  0  0  0  0  0  0
   -1.6259    0.2200    0.0000 C    0  0  0  0  0  0  0  0  0  0  0  0
   -0.0309   -0.4228    0.0000 C    0  0  0  0  0  0  0  0  0  0  0  0
    0.7390    0.6668    0.0000 C    0  0  0  0  0  0  0  0  0  0  0  0
   -2.1621   -1.0072    0.0000 S    0  0  0  0  0  0  0  0  0  0  0  0
    0.7528   -0.6635    0.0000 C    0  0  0  0  0  0  0  0  0  0  0  0
   -0.6909   -0.9110    0.0000 C    0  0  0  0  0  0  0  0  0  0  0  0
   -0.0447    0.3987    0.0000 C    0  0  0  0  0  0  0  0  0  0  0  0
    2.0659    0.0068    0.0000 C    0  0  0  0  0  0  0  0  0  0  0  0
    2.4647    0.7219    0.0000 C    0  0  0  0  0  0  0  0  0  0  0  0
   -3.7022    0.9935    0.0000 C    0  0  0  0  0  0  0  0  0  0  0  0
   -4.5271    0.9453    0.0000 C    0  0  0  0  0  0  0  0  0  0  0  0
    3.2897    0.7287    0.0000 C    0  0  0  0  0  0  0  0  0  0  0  0
    2.4784   -0.7012    0.0000 C    0  0  0  0  0  0  0  0  0  0  0  0
   -3.5887   -0.6394    0.0000 O    0  0  0  0  0  0  0  0  0  0  0  0
   -1.0793    0.8422    0.0000 O    0  0  0  0  0  0  0  0  0  0  0  0
   -2.8668    1.0038    0.0000 C    0  0  0  0  0  0  0  0  0  0  0  0
    3.7125    0.0103    0.0000 C    0  0  0  0  0  0  0  0  0  0  0  0
    2.0453    1.4403    0.0000 Cl   0  0  0  0  0  0  0  0  0  0  0  0
    3.3034   -0.6978    0.0000 C    0  0  0  0  0  0  0  0  0  0  0  0
    0.9900    1.4506    0.0000 C    0  0  0  0  0  0  0  0  0  0  0  0
    1.0244   -1.4472    0.0000 C    0  0  0  0  0  0  0  0  0  0  0  0
    4.5237    0.0206    0.0000 Cl   0  0  0  0  0  0  0  0  0  0  0  0
  2  9  1  0  0  0  0
  3  1  1  0  0  0  0
  4  5  1  0  0  0  0
  5  1  1  0  0  0  0
  6 10  1  0  0  0  0
  7 11  2  0  0  0  0
  7  2  1  0  0  0  0
  8  3  1  0  0  0  0
  8  4  1  0  0  0  0
  9  6  2  0  0  0  0
 10  4  2  0  0  0  0
 11  6  1  0  0  0  0
 12  2  1  0  0  0  0
 13 12  1  0  0  0  0
 14 20  1  0  0  0  0
 15 14  3  0  0  0  0
 16 13  2  0  0  0  0
 16 21  1  0  0  0  0
 17 12  2  0  0  0  0
 18  3  2  0  0  0  0
 19  5  2  0  0  0  0
 20  1  1  0  0  0  0
 21 23  2  0  0  0  0
 22 13  1  0  0  0  0
 23 17  1  0  0  0  0
 24  7  1  0  0  0  0
 25  9  1  0  0  0  0
 26 21  1  0  0  0  0
M  END
> <CdId>
1802

> <Mol Weight>
405.298

> <Formula>
C19H14Cl2N2O2S

> <Click_ID>
CLK024_C07 __ __ 

$$$$
