CLK033_C09
 OpenBabel03181404502D

 30 33  0  0  0  0  0  0  0  0999 V2000
   -4.5786    2.5488    0.0000 C   0  0  0  0  0  0  0  0  0  0  0  0
   -0.9962    5.4338    0.0000 S   0  0  0  0  0  0  0  0  0  0  0  0
   -3.8481    2.9721    0.0000 N   0  0  0  0  0  0  0  0  0  0  0  0
   -4.6700    1.7268    0.0000 N   0  0  0  0  0  0  0  0  0  0  0  0
   -5.3009    2.8891    0.0000 S   0  0  0  0  0  0  0  0  0  0  0  0
   -5.4752    1.5774    0.0000 C   0  0  0  0  0  0  0  0  0  0  0  0
   -5.8738    2.2997    0.0000 C   0  0  0  0  0  0  0  0  0  0  0  0
   -3.8564    3.7858    0.0000 C   0  0  0  0  0  0  0  0  0  0  0  0
   -0.2740    5.8448    0.0000 N   0  0  0  0  0  0  0  0  0  0  0  0
   -1.7144    5.0229    0.0000 C   0  0  0  0  0  0  0  0  0  0  0  0
   -4.2548    0.3570    0.0000 C   0  0  0  0  0  0  0  0  0  0  0  0
   -0.5811    4.7115    0.0000 O   0  0  0  0  0  0  0  0  0  0  0  0
   -1.4072    6.1437    0.0000 O   0  0  0  0  0  0  0  0  0  0  0  0
   -4.4416   -0.4525    0.0000 C   0  0  0  0  0  0  0  0  0  0  0  0
   -3.1465    4.1967    0.0000 C   0  0  0  0  0  0  0  0  0  0  0  0
   -4.5662    4.1967    0.0000 O   0  0  0  0  0  0  0  0  0  0  0  0
   -5.9029    0.8800    0.0000 C   0  0  0  0  0  0  0  0  0  0  0  0
   -4.0680    1.1582    0.0000 C   0  0  0  0  0  0  0  0  0  0  0  0
   -1.7144    4.1967    0.0000 C   0  0  0  0  0  0  0  0  0  0  0  0
   -2.4242    5.4296    0.0000 C   0  0  0  0  0  0  0  0  0  0  0  0
   -2.4242    3.7941    0.0000 C   0  0  0  0  0  0  0  0  0  0  0  0
   -3.1382    5.0104    0.0000 C   0  0  0  0  0  0  0  0  0  0  0  0
   -6.6874    2.3246    0.0000 C   0  0  0  0  0  0  0  0  0  0  0  0
    0.4276    5.4462    0.0000 C   0  0  0  0  0  0  0  0  0  0  0  0
   -0.1121    6.6542    0.0000 C   0  0  0  0  0  0  0  0  0  0  0  0
   -7.1150    1.6190    0.0000 C   0  0  0  0  0  0  0  0  0  0  0  0
   -6.7040    0.8924    0.0000 C   0  0  0  0  0  0  0  0  0  0  0  0
   -5.5126    0.1495    0.0000 C   0  0  0  0  0  0  0  0  0  0  0  0
    1.0502    5.9942    0.0000 C   0  0  0  0  0  0  0  0  0  0  0  0
    0.7140    6.7414    0.0000 C   0  0  0  0  0  0  0  0  0  0  0  0
  2 10  1  0  0  0  0
  3  1  2  0  0  0  0
  4  1  1  0  0  0  0
  5  1  1  0  0  0  0
  6  4  1  0  0  0  0
  7  5  1  0  0  0  0
  7  6  2  0  0  0  0
  8  3  1  0  0  0  0
  9  2  1  0  0  0  0
 10 20  1  0  0  0  0
 10 19  2  0  0  0  0
 11 18  1  0  0  0  0
 12  2  2  0  0  0  0
 13  2  2  0  0  0  0
 14 11  3  0  0  0  0
 15  8  1  0  0  0  0
 16  8  2  0  0  0  0
 17  6  1  0  0  0  0
 18  4  1  0  0  0  0
 19 21  1  0  0  0  0
 20 22  2  0  0  0  0
 21 15  2  0  0  0  0
 22 15  1  0  0  0  0
 23  7  1  0  0  0  0
 24  9  1  0  0  0  0
 25  9  1  0  0  0  0
 26 23  2  0  0  0  0
 27 17  2  0  0  0  0
 27 26  1  0  0  0  0
 28 17  1  0  0  0  0
 29 24  1  0  0  0  0
 29 30  1  0  0  0  0
 30 25  1  0  0  0  0
M  END
> <CdId>
2513

> <Mol Weight>
439.55

> <Formula>
C22H21N3O3S2

> <Click_ID>
CLK033_C09 __ __ 

$$$$
