CLK046D06
 OpenBabel03181404502D

 17 17  0  0  0  0  0  0  0  0999 V2000
   -0.5500   -0.7500    0.0000 C    0  0  0  0  0  0  0  0  0  0  0  0
    0.1667   -1.1625    0.0000 C    0  0  0  0  0  0  0  0  0  0  0  0
   -1.2625   -1.1625    0.0000 C    0  0  0  0  0  0  0  0  0  0  0  0
   -0.5500    0.0750    0.0000 O    0  0  0  0  0  0  0  0  0  0  0  0
    1.5958    2.9625    0.0000 C    0  0  0  0  0  0  0  0  0  0  0  0
    2.3083    3.3750    0.0000 C    0  0  0  0  0  0  0  0  0  0  0  0
    0.1667    1.3125    0.0000 C    0  0  0  0  0  0  0  0  0  0  0  0
    0.1667   -1.9875    0.0000 C    0  0  0  0  0  0  0  0  0  0  0  0
   -1.2625   -1.9875    0.0000 C    0  0  0  0  0  0  0  0  0  0  0  0
   -0.5500   -2.4000    0.0000 C    0  0  0  0  0  0  0  0  0  0  0  0
   -0.5500    1.7250    0.0000 O    0  0  0  0  0  0  0  0  0  0  0  0
    0.1667    0.4875    0.0000 C    0  0  0  0  0  0  0  0  0  0  0  0
    0.8792    1.7250    0.0000 N    0  0  0  0  0  0  0  0  0  0  0  0
   -1.9792   -0.7500    0.0000 Br   0  0  0  0  0  0  0  0  0  0  0  0
    0.8792   -0.7500    0.0000 Br   0  0  0  0  0  0  0  0  0  0  0  0
    0.8792    2.5500    0.0000 C    0  0  0  0  0  0  0  0  0  0  0  0
   -0.5500   -3.2250    0.0000 C    0  0  0  0  0  0  0  0  0  0  0  0
  2  1  1  0  0  0  0
  3  1  2  0  0  0  0
  4  1  1  0  0  0  0
  5 16  1  0  0  0  0
  6  5  3  0  0  0  0
  7 12  1  0  0  0  0
  8  2  2  0  0  0  0
  8 10  1  0  0  0  0
  9  3  1  0  0  0  0
 10  9  2  0  0  0  0
 11  7  2  0  0  0  0
 12  4  1  0  0  0  0
 13  7  1  0  0  0  0
 14  3  1  0  0  0  0
 15  2  1  0  0  0  0
 16 13  1  0  0  0  0
 17 10  1  0  0  0  0
M  END
> <CdId>
3524

> <Mol Weight>
361.029

> <Formula>
C12H11Br2NO2

> <Click_ID>
CLK046D06 __ __ 

$$$$
