CLK046C03
 OpenBabel03181404502D

 19 19  0  0  0  0  0  0  0  0999 V2000
   -0.7917   -0.5833    0.0000 S   0  0  0  0  0  0  0  0  0  0  0  0
   -0.0792   -0.1708    0.0000 C   0  0  0  0  0  0  0  0  0  0  0  0
    0.6375   -0.5833    0.0000 C   0  0  0  0  0  0  0  0  0  0  0  0
   -0.0792    0.6542    0.0000 C   0  0  0  0  0  0  0  0  0  0  0  0
    1.3500    0.6542    0.0000 C   0  0  0  0  0  0  0  0  0  0  0  0
    0.6375    1.0667    0.0000 C   0  0  0  0  0  0  0  0  0  0  0  0
    1.3500   -0.1708    0.0000 C   0  0  0  0  0  0  0  0  0  0  0  0
   -2.9333   -0.9958    0.0000 C   0  0  0  0  0  0  0  0  0  0  0  0
   -3.6500   -1.4083    0.0000 C   0  0  0  0  0  0  0  0  0  0  0  0
   -0.3792   -1.3000    0.0000 O   0  0  0  0  0  0  0  0  0  0  0  0
   -1.2042    0.1292    0.0000 O   0  0  0  0  0  0  0  0  0  0  0  0
    2.0667    1.0667    0.0000 C   0  0  0  0  0  0  0  0  0  0  0  0
   -1.5042   -0.9958    0.0000 N   0  0  0  0  0  0  0  0  0  0  0  0
   -2.2208   -0.5833    0.0000 C   0  0  0  0  0  0  0  0  0  0  0  0
   -0.7917    1.0667    0.0000 C   0  0  0  0  0  0  0  0  0  0  0  0
    0.6375   -1.4083    0.0000 C   0  0  0  0  0  0  0  0  0  0  0  0
    1.6542    1.7792    0.0000 C   0  0  0  0  0  0  0  0  0  0  0  0
    2.4792    0.3500    0.0000 C   0  0  0  0  0  0  0  0  0  0  0  0
    2.7792    1.4792    0.0000 C   0  0  0  0  0  0  0  0  0  0  0  0
  2  1  1  0  0  0  0
  3  2  2  0  0  0  0
  4  2  1  0  0  0  0
  5  7  2  0  0  0  0
  6  4  2  0  0  0  0
  6  5  1  0  0  0  0
  7  3  1  0  0  0  0
  8 14  1  0  0  0  0
  9  8  3  0  0  0  0
 10  1  2  0  0  0  0
 11  1  2  0  0  0  0
 12  5  1  0  0  0  0
 13  1  1  0  0  0  0
 14 13  1  0  0  0  0
 15  4  1  0  0  0  0
 16  3  1  0  0  0  0
 17 12  1  0  0  0  0
 18 12  1  0  0  0  0
 19 12  1  0  0  0  0
M  END
> <CdId>
3499

> <Mol Weight>
279.398

> <Formula>
C15H21NO2S

> <Click_ID>
CLK046C03 __ __ 

$$$$
