CLK025_A03
 OpenBabel03181404502D

 30 32  0  0  0  0  0  0  0  0999 V2000
   -1.5703   -0.4879    0.0000 N    0  0  0  0  0  0  0  0  0  0  0  0
   -0.7696   -0.7250    0.0000 C    0  0  0  0  0  0  0  0  0  0  0  0
   -1.5943    0.3367    0.0000 C    0  0  0  0  0  0  0  0  0  0  0  0
   -0.3092   -0.0378    0.0000 C    0  0  0  0  0  0  0  0  0  0  0  0
   -0.8075    0.6116    0.0000 S    0  0  0  0  0  0  0  0  0  0  0  0
   -2.2197   -0.9964    0.0000 N    0  0  0  0  0  0  0  0  0  0  0  0
   -2.0994   -1.8108    0.0000 C    0  0  0  0  0  0  0  0  0  0  0  0
    0.5154   -0.0138    0.0000 C    0  0  0  0  0  0  0  0  0  0  0  0
    1.7283    2.1476    0.0000 C    0  0  0  0  0  0  0  0  0  0  0  0
    0.9037    2.1269    0.0000 C    0  0  0  0  0  0  0  0  0  0  0  0
    2.1544    1.4363    0.0000 C    0  0  0  0  0  0  0  0  0  0  0  0
    0.9277    0.7044    0.0000 C    0  0  0  0  0  0  0  0  0  0  0  0
   -2.2713    0.8006    0.0000 S    0  0  0  0  0  0  0  0  0  0  0  0
    3.3398    3.6182    0.0000 C    0  0  0  0  0  0  0  0  0  0  0  0
    4.1645    3.6422    0.0000 C    0  0  0  0  0  0  0  0  0  0  0  0
   -0.4948   -1.4981    0.0000 O    0  0  0  0  0  0  0  0  0  0  0  0
    0.5051    1.4122    0.0000 C    0  0  0  0  0  0  0  0  0  0  0  0
    1.7524    0.7113    0.0000 C    0  0  0  0  0  0  0  0  0  0  0  0
   -1.3435   -2.1235    0.0000 O    0  0  0  0  0  0  0  0  0  0  0  0
   -2.7591   -2.3193    0.0000 C    0  0  0  0  0  0  0  0  0  0  0  0
    0.4776    2.8382    0.0000 Br   0  0  0  0  0  0  0  0  0  0  0  0
    2.1235    2.8725    0.0000 O    0  0  0  0  0  0  0  0  0  0  0  0
    2.9791    1.4534    0.0000 O    0  0  0  0  0  0  0  0  0  0  0  0
    2.5152    3.5941    0.0000 C    0  0  0  0  0  0  0  0  0  0  0  0
   -2.6423   -3.1302    0.0000 C    0  0  0  0  0  0  0  0  0  0  0  0
   -3.5185   -2.0101    0.0000 C    0  0  0  0  0  0  0  0  0  0  0  0
    3.3776    2.1716    0.0000 C    0  0  0  0  0  0  0  0  0  0  0  0
   -3.2918   -3.6422    0.0000 C    0  0  0  0  0  0  0  0  0  0  0  0
   -4.1680   -2.5117    0.0000 C    0  0  0  0  0  0  0  0  0  0  0  0
   -4.0546   -3.3227    0.0000 C    0  0  0  0  0  0  0  0  0  0  0  0
  2  1  1  0  0  0  0
  3  1  1  0  0  0  0
  4  2  1  0  0  0  0
  4  5  1  0  0  0  0
  5  3  1  0  0  0  0
  6  1  1  0  0  0  0
  7  6  1  0  0  0  0
  8  4  2  0  0  0  0
  9 11  1  0  0  0  0
  9 10  2  0  0  0  0
 10 17  1  0  0  0  0
 11 18  2  0  0  0  0
 12  8  1  0  0  0  0
 13  3  2  0  0  0  0
 14 24  1  0  0  0  0
 15 14  3  0  0  0  0
 16  2  2  0  0  0  0
 17 12  2  0  0  0  0
 18 12  1  0  0  0  0
 19  7  2  0  0  0  0
 20  7  1  0  0  0  0
 21 10  1  0  0  0  0
 22  9  1  0  0  0  0
 23 11  1  0  0  0  0
 24 22  1  0  0  0  0
 25 20  1  0  0  0  0
 26 20  2  0  0  0  0
 27 23  1  0  0  0  0
 28 25  2  0  0  0  0
 29 26  1  0  0  0  0
 30 29  2  0  0  0  0
 30 28  1  0  0  0  0
M  END
> <CdId>
1858

> <Mol Weight>
503.389

> <Formula>
C21H15BrN2O4S2

> <Click_ID>
CLK025_A03 __ __ 

$$$$
