CLK011_F04
 OpenBabel03181404502D

 29 32  0  0  0  0  0  0  0  0999 V2000
   -3.4385   -0.5676    0.0000 N    0  0  0  0  0  0  0  0  0  0  0  0
   -2.9545    0.1085    0.0000 C    0  0  0  0  0  0  0  0  0  0  0  0
   -4.2272   -0.3255    0.0000 C    0  0  0  0  0  0  0  0  0  0  0  0
   -2.9545   -1.2394    0.0000 C    0  0  0  0  0  0  0  0  0  0  0  0
   -3.4385    0.7970    0.0000 N    0  0  0  0  0  0  0  0  0  0  0  0
   -2.1658   -0.9765    0.0000 C    0  0  0  0  0  0  0  0  0  0  0  0
   -2.1658   -0.1502    0.0000 S    0  0  0  0  0  0  0  0  0  0  0  0
   -4.2397    0.5133    0.0000 C    0  0  0  0  0  0  0  0  0  0  0  0
   -1.4855   -1.4522    0.0000 C    0  0  0  0  0  0  0  0  0  0  0  0
   -4.9658   -0.7303    0.0000 C    0  0  0  0  0  0  0  0  0  0  0  0
    0.6385   -0.2170    0.0000 C    0  0  0  0  0  0  0  0  0  0  0  0
    0.6385   -1.0433    0.0000 C    0  0  0  0  0  0  0  0  0  0  0  0
   -0.0751    0.1878    0.0000 C    0  0  0  0  0  0  0  0  0  0  0  0
   -0.7762   -1.0433    0.0000 C    0  0  0  0  0  0  0  0  0  0  0  0
   -4.9658    0.9222    0.0000 C    0  0  0  0  0  0  0  0  0  0  0  0
   -5.6668   -0.3255    0.0000 C    0  0  0  0  0  0  0  0  0  0  0  0
    2.4161   -0.7637    0.0000 C    0  0  0  0  0  0  0  0  0  0  0  0
    3.2216   -0.9389    0.0000 C    0  0  0  0  0  0  0  0  0  0  0  0
   -5.6668    0.5133    0.0000 C    0  0  0  0  0  0  0  0  0  0  0  0
   -3.2006   -2.0197    0.0000 O    0  0  0  0  0  0  0  0  0  0  0  0
   -0.0709   -1.4522    0.0000 C    0  0  0  0  0  0  0  0  0  0  0  0
   -0.7845   -0.2170    0.0000 C    0  0  0  0  0  0  0  0  0  0  0  0
    1.3520   -1.4564    0.0000 Cl   0  0  0  0  0  0  0  0  0  0  0  0
    1.3520    0.1961    0.0000 O    0  0  0  0  0  0  0  0  0  0  0  0
   -0.0834    1.0140    0.0000 O    0  0  0  0  0  0  0  0  0  0  0  0
    2.1575    0.0208    0.0000 C    0  0  0  0  0  0  0  0  0  0  0  0
   -6.3763   -0.7303    0.0000 C    0  0  0  0  0  0  0  0  0  0  0  0
   -6.3763    0.9222    0.0000 C    0  0  0  0  0  0  0  0  0  0  0  0
    0.6301    1.4355    0.0000 C    0  0  0  0  0  0  0  0  0  0  0  0
  2  1  1  0  0  0  0
  3  1  1  0  0  0  0
  4  1  1  0  0  0  0
  5  2  2  0  0  0  0
  6  4  1  0  0  0  0
  7  2  1  0  0  0  0
  7  6  1  0  0  0  0
  8  3  1  0  0  0  0
  8  5  1  0  0  0  0
  9  6  2  0  0  0  0
 10  3  2  0  0  0  0
 11 13  1  0  0  0  0
 11 12  2  0  0  0  0
 12 21  1  0  0  0  0
 13 22  2  0  0  0  0
 14  9  1  0  0  0  0
 15  8  2  0  0  0  0
 16 10  1  0  0  0  0
 17 26  1  0  0  0  0
 18 17  3  0  0  0  0
 19 16  2  0  0  0  0
 19 15  1  0  0  0  0
 20  4  2  0  0  0  0
 21 14  2  0  0  0  0
 22 14  1  0  0  0  0
 23 12  1  0  0  0  0
 24 11  1  0  0  0  0
 25 13  1  0  0  0  0
 26 24  1  0  0  0  0
 27 16  1  0  0  0  0
 28 19  1  0  0  0  0
 29 25  1  0  0  0  0
M  END
> <CdId>
809

> <Mol Weight>
424.9

> <Formula>
C22H17ClN2O3S

> <Click_ID>
CLK011_F04 __ __ 

$$$$
