CLK041G04
 OpenBabel03181404502D

 23 25  0  0  0  0  0  0  0  0999 V2000
   -1.1208    0.4792    0.0000 C   0  0  0  0  0  0  0  0  0  0  0  0
   -1.1208   -0.3458    0.0000 C   0  0  0  0  0  0  0  0  0  0  0  0
   -0.4083    0.8917    0.0000 N   0  0  0  0  0  0  0  0  0  0  0  0
    0.3083   -0.3458    0.0000 N   0  0  0  0  0  0  0  0  0  0  0  0
   -0.4083   -0.7583    0.0000 C   0  0  0  0  0  0  0  0  0  0  0  0
   -1.9083    0.7333    0.0000 S   0  0  0  0  0  0  0  0  0  0  0  0
   -1.9083   -0.6000    0.0000 C   0  0  0  0  0  0  0  0  0  0  0  0
    0.3083    0.4792    0.0000 C   0  0  0  0  0  0  0  0  0  0  0  0
   -2.3917    0.0667    0.0000 C   0  0  0  0  0  0  0  0  0  0  0  0
    4.5958    0.4792    0.0000 C   0  0  0  0  0  0  0  0  0  0  0  0
    5.3083    0.0667    0.0000 C   0  0  0  0  0  0  0  0  0  0  0  0
    1.0208    0.8917    0.0000 S   0  0  0  0  0  0  0  0  0  0  0  0
    2.4500    0.8917    0.0000 C   0  0  0  0  0  0  0  0  0  0  0  0
   -0.4083   -1.5833    0.0000 N   0  0  0  0  0  0  0  0  0  0  0  0
    2.4500    1.7167    0.0000 O   0  0  0  0  0  0  0  0  0  0  0  0
    1.7375    0.4792    0.0000 C   0  0  0  0  0  0  0  0  0  0  0  0
    3.1667    0.4792    0.0000 N   0  0  0  0  0  0  0  0  0  0  0  0
   -2.1250   -1.3958    0.0000 C   0  0  0  0  0  0  0  0  0  0  0  0
   -3.2167    0.1042    0.0000 C   0  0  0  0  0  0  0  0  0  0  0  0
    3.8792    0.8917    0.0000 C   0  0  0  0  0  0  0  0  0  0  0  0
   -2.8833   -1.7208    0.0000 C   0  0  0  0  0  0  0  0  0  0  0  0
   -3.7583   -0.5167    0.0000 C   0  0  0  0  0  0  0  0  0  0  0  0
   -3.6125   -1.3292    0.0000 C   0  0  0  0  0  0  0  0  0  0  0  0
  2  1  1  0  0  0  0
  3  1  2  0  0  0  0
  4  5  1  0  0  0  0
  5  2  2  0  0  0  0
  6  1  1  0  0  0  0
  7  2  1  0  0  0  0
  7  9  2  0  0  0  0
  8  3  1  0  0  0  0
  8  4  2  0  0  0  0
  9  6  1  0  0  0  0
 10 20  1  0  0  0  0
 11 10  3  0  0  0  0
 12  8  1  0  0  0  0
 13 16  1  0  0  0  0
 14  5  1  0  0  0  0
 15 13  2  0  0  0  0
 16 12  1  0  0  0  0
 17 13  1  0  0  0  0
 18  7  1  0  0  0  0
 19  9  1  0  0  0  0
 20 17  1  0  0  0  0
 21 18  1  0  0  0  0
 22 19  1  0  0  0  0
 23 21  1  0  0  0  0
 23 22  1  0  0  0  0
M  END
> <CdId>
3111

> <Mol Weight>
346.47

> <Formula>
C16H18N4OS2

> <Click_ID>
CLK041G04 __ __ 

$$$$
