CLK035_A10
 OpenBabel03181404502D

 17 18  0  0  0  0  0  0  0  0999 V2000
   -2.7500    1.8516    0.0000 C   0  0  0  0  0  0  0  0  0  0  0  0
   -3.4604    1.4391    0.0000 N   0  0  0  0  0  0  0  0  0  0  0  0
   -2.7500    2.6766    0.0000 N   0  0  0  0  0  0  0  0  0  0  0  0
   -4.1754    1.8516    0.0000 C   0  0  0  0  0  0  0  0  0  0  0  0
   -2.1404    1.3016    0.0000 N   0  0  0  0  0  0  0  0  0  0  0  0
   -3.2862    0.6279    0.0000 C   0  0  0  0  0  0  0  0  0  0  0  0
   -2.4704    0.5454    0.0000 N   0  0  0  0  0  0  0  0  0  0  0  0
   -4.1754    2.6766    0.0000 C   0  0  0  0  0  0  0  0  0  0  0  0
   -3.4604    3.0891    0.0000 C   0  0  0  0  0  0  0  0  0  0  0  0
   -5.1791   -0.4446    0.0000 C   0  0  0  0  0  0  0  0  0  0  0  0
   -5.7154   -1.0634    0.0000 C   0  0  0  0  0  0  0  0  0  0  0  0
   -3.4604    3.9141    0.0000 O   0  0  0  0  0  0  0  0  0  0  0  0
   -3.8316    0.0091    0.0000 S   0  0  0  0  0  0  0  0  0  0  0  0
   -4.9041    1.4391    0.0000 C   0  0  0  0  0  0  0  0  0  0  0  0
   -4.6291    0.1741    0.0000 C   0  0  0  0  0  0  0  0  0  0  0  0
   -5.6100    1.8516    0.0000 C   0  0  0  0  0  0  0  0  0  0  0  0
   -6.3250    1.4391    0.0000 C   0  0  0  0  0  0  0  0  0  0  0  0
  2  1  1  0  0  0  0
  3  1  1  0  0  0  0
  4  2  1  0  0  0  0
  4  8  2  0  0  0  0
  5  1  2  0  0  0  0
  6  2  1  0  0  0  0
  6  7  2  0  0  0  0
  7  5  1  0  0  0  0
  8  9  1  0  0  0  0
  9  3  1  0  0  0  0
 10 15  1  0  0  0  0
 11 10  3  0  0  0  0
 12  9  2  0  0  0  0
 13  6  1  0  0  0  0
 14  4  1  0  0  0  0
 15 13  1  0  0  0  0
 16 14  1  0  0  0  0
 17 16  1  0  0  0  0
M  END
> <CdId>
2654

> <Mol Weight>
248.304

> <Formula>
C11H12N4OS

> <Click_ID>
CLK035_A10 __ __ 

$$$$
