CLK021_E07
 OpenBabel03181404502D

 23 24  0  0  0  0  0  0  0  0999 V2000
    1.7224    2.1254    0.0000 C   0  0  0  0  0  0  0  0  0  0  0  0
    2.1347    2.8401    0.0000 C   0  0  3  0  0  0  0  0  0  0  0  0
    0.8979    2.1254    0.0000 C   0  0  0  0  0  0  0  0  0  0  0  0
    0.8979    3.5547    0.0000 C   0  0  0  0  0  0  0  0  0  0  0  0
    0.4856    2.8401    0.0000 N   0  0  0  0  0  0  0  0  0  0  0  0
    1.7224    3.5547    0.0000 N   0  0  0  0  0  0  0  0  0  0  0  0
    2.9592    2.8401    0.0000 C   0  0  0  0  0  0  0  0  0  0  0  0
    2.1347    1.4108    0.0000 C   0  0  0  0  0  0  0  0  0  0  0  0
    3.3715    2.1254    0.0000 C   0  0  0  0  0  0  0  0  0  0  0  0
    6.6697    3.5547    0.0000 C   0  0  0  0  0  0  0  0  0  0  0  0
    7.4942    3.5547    0.0000 C   0  0  0  0  0  0  0  0  0  0  0  0
    4.1960    2.1254    0.0000 C   0  0  0  0  0  0  0  0  0  0  0  0
    0.4856    4.2601    0.0000 O   0  0  0  0  0  0  0  0  0  0  0  0
    4.6083    2.8401    0.0000 C   0  0  0  0  0  0  0  0  0  0  0  0
    3.3715    3.5547    0.0000 C   0  0  0  0  0  0  0  0  0  0  0  0
    1.7224    0.6962    0.0000 O   0  0  0  0  0  0  0  0  0  0  0  0
    4.1960    3.5547    0.0000 C   0  0  0  0  0  0  0  0  0  0  0  0
    0.4856    1.4108    0.0000 C   0  0  0  0  0  0  0  0  0  0  0  0
    4.6083    1.4108    0.0000 O   0  0  0  0  0  0  0  0  0  0  0  0
    5.4329    2.8401    0.0000 O   0  0  0  0  0  0  0  0  0  0  0  0
    5.8451    3.5547    0.0000 C   0  0  0  0  0  0  0  0  0  0  0  0
    2.9592    1.4108    0.0000 C   0  0  0  0  0  0  0  0  0  0  0  0
    4.1960    0.6962    0.0000 C   0  0  0  0  0  0  0  0  0  0  0  0
  2  1  1  0  0  0  0
  3  1  2  0  0  0  0
  4  5  1  0  0  0  0
  5  3  1  0  0  0  0
  6  2  1  0  0  0  0
  6  4  1  0  0  0  0
  7  2  1  0  0  0  0
  8  1  1  0  0  0  0
  9  7  2  0  0  0  0
 10 21  1  0  0  0  0
 11 10  3  0  0  0  0
 12  9  1  0  0  0  0
 13  4  2  0  0  0  0
 14 17  1  0  0  0  0
 14 12  2  0  0  0  0
 15  7  1  0  0  0  0
 16  8  2  0  0  0  0
 17 15  2  0  0  0  0
 18  3  1  0  0  0  0
 19 12  1  0  0  0  0
 20 14  1  0  0  0  0
 21 20  1  0  0  0  0
 22  8  1  0  0  0  0
 23 19  1  0  0  0  0
M  END
> <CdId>
1602

> <Mol Weight>
314.3358

> <Formula>
C17H18N2O4

> <Click_ID>
CLK021_E07 __ __ 

$$$$
