CLK051D05
 OpenBabel03181404502D

 16 16  0  0  0  0  0  0  0  0999 V2000
    0.1333   -1.1583    0.0000 C   0  0  0  0  0  0  0  0  0  0  0  0
    1.5625   -2.8083    0.0000 C   0  0  0  0  0  0  0  0  0  0  0  0
    2.2750   -3.2208    0.0000 C   0  0  0  0  0  0  0  0  0  0  0  0
   -0.5833    0.0792    0.0000 O   0  0  0  0  0  0  0  0  0  0  0  0
    0.1333   -0.3333    0.0000 C   0  0  3  0  0  0  0  0  0  0  0  0
   -0.5833    0.9042    0.0000 C   0  0  0  0  0  0  0  0  0  0  0  0
   -0.5833   -1.5708    0.0000 O   0  0  0  0  0  0  0  0  0  0  0  0
   -1.2958    1.3167    0.0000 C   0  0  0  0  0  0  0  0  0  0  0  0
    0.8458   -1.5708    0.0000 N   0  0  0  0  0  0  0  0  0  0  0  0
   -1.2958    2.1417    0.0000 C   0  0  0  0  0  0  0  0  0  0  0  0
   -2.0125    2.5542    0.0000 F   0  0  0  0  0  0  0  0  0  0  0  0
    0.8458   -2.3958    0.0000 C   0  0  0  0  0  0  0  0  0  0  0  0
    0.1333    2.1417    0.0000 C   0  0  0  0  0  0  0  0  0  0  0  0
    0.1333    1.3167    0.0000 C   0  0  0  0  0  0  0  0  0  0  0  0
    0.8458    0.0792    0.0000 C   0  0  0  0  0  0  0  0  0  0  0  0
   -0.5833    2.5542    0.0000 C   0  0  0  0  0  0  0  0  0  0  0  0
  2 12  1  0  0  0  0
  3  2  3  0  0  0  0
  4  5  1  0  0  0  0
  5  1  1  0  0  0  0
  6  4  1  0  0  0  0
  7  1  2  0  0  0  0
  8  6  2  0  0  0  0
  9  1  1  0  0  0  0
 10  8  1  0  0  0  0
 11 10  1  0  0  0  0
 12  9  1  0  0  0  0
 13 14  2  0  0  0  0
 14  6  1  0  0  0  0
 15  5  1  0  0  0  0
 16 10  2  0  0  0  0
 16 13  1  0  0  0  0
M  END
> <CdId>
3916

> <Mol Weight>
221.2276

> <Formula>
C12H12FNO2

> <Click_ID>
CLK051D05 __ __ 

$$$$
