CLK013_F07
 OpenBabel03181404502D

 26 28  0  0  0  0  0  0  0  0999 V2000
    0.6137    0.0751    0.0000 C    0  0  0  0  0  0  0  0  0  0  0  0
    0.3549   -0.7138    0.0000 C    0  0  0  0  0  0  0  0  0  0  0  0
   -0.0584    0.5594    0.0000 C    0  0  0  0  0  0  0  0  0  0  0  0
   -0.4717   -0.7138    0.0000 C    0  0  0  0  0  0  0  0  0  0  0  0
   -0.7264    0.0751    0.0000 C    0  0  0  0  0  0  0  0  0  0  0  0
    1.4026    0.3339    0.0000 C    0  0  0  0  0  0  0  0  0  0  0  0
    1.9078    2.7510    0.0000 C    0  0  0  0  0  0  0  0  0  0  0  0
    2.5089    2.1999    0.0000 C    0  0  0  0  0  0  0  0  0  0  0  0
    1.1271    2.5005    0.0000 C    0  0  0  0  0  0  0  0  0  0  0  0
    1.5697    1.1396    0.0000 C    0  0  0  0  0  0  0  0  0  0  0  0
    3.0474    4.6004    0.0000 C    0  0  0  0  0  0  0  0  0  0  0  0
    3.2311    5.4144    0.0000 C    0  0  0  0  0  0  0  0  0  0  0  0
    2.3461    1.3901    0.0000 C    0  0  0  0  0  0  0  0  0  0  0  0
    0.9518    1.6990    0.0000 C    0  0  0  0  0  0  0  0  0  0  0  0
   -0.0584    1.3859    0.0000 O    0  0  0  0  0  0  0  0  0  0  0  0
    0.8433   -1.3818    0.0000 O    0  0  0  0  0  0  0  0  0  0  0  0
    3.2979    2.4504    0.0000 Br   0  0  0  0  0  0  0  0  0  0  0  0
    2.0831    3.5567    0.0000 O    0  0  0  0  0  0  0  0  0  0  0  0
    0.5260    3.0515    0.0000 O    0  0  0  0  0  0  0  0  0  0  0  0
   -1.0227   -1.3275    0.0000 C    0  0  0  0  0  0  0  0  0  0  0  0
   -1.5279    0.2463    0.0000 C    0  0  0  0  0  0  0  0  0  0  0  0
    2.8721    3.8072    0.0000 C    0  0  0  0  0  0  0  0  0  0  0  0
   -0.2588    2.8011    0.0000 C    0  0  0  0  0  0  0  0  0  0  0  0
   -1.8284   -1.1522    0.0000 C    0  0  0  0  0  0  0  0  0  0  0  0
   -2.0872   -0.3674    0.0000 C    0  0  0  0  0  0  0  0  0  0  0  0
   -0.8641    3.3438    0.0000 C    0  0  0  0  0  0  0  0  0  0  0  0
  2  1  1  0  0  0  0
  3  1  1  0  0  0  0
  4  2  1  0  0  0  0
  4  5  2  0  0  0  0
  5  3  1  0  0  0  0
  6  1  2  0  0  0  0
  7  9  2  0  0  0  0
  7  8  1  0  0  0  0
  8 13  2  0  0  0  0
  9 14  1  0  0  0  0
 10  6  1  0  0  0  0
 11 22  1  0  0  0  0
 12 11  3  0  0  0  0
 13 10  1  0  0  0  0
 14 10  2  0  0  0  0
 15  3  2  0  0  0  0
 16  2  2  0  0  0  0
 17  8  1  0  0  0  0
 18  7  1  0  0  0  0
 19  9  1  0  0  0  0
 20  4  1  0  0  0  0
 21  5  1  0  0  0  0
 22 18  1  0  0  0  0
 23 19  1  0  0  0  0
 24 20  2  0  0  0  0
 25 21  2  0  0  0  0
 25 24  1  0  0  0  0
 26 23  1  0  0  0  0
M  END
> <CdId>
972

> <Mol Weight>
411.245

> <Formula>
C21H15BrO4

> <Click_ID>
CLK013_F07 __ __ 

$$$$
