CLK042C11
 OpenBabel03181404502D

 29 33  0  0  0  0  0  0  0  0999 V2000
    0.0875    0.7583    0.0000 N   0  0  0  0  0  0  0  0  0  0  0  0
    0.0875    1.5832    0.0000 C   0  0  0  0  0  0  0  0  0  0  0  0
    0.8041    0.3458    0.0000 C   0  0  3  0  0  0  0  0  0  0  0  0
    0.8041    1.9957    0.0000 N   0  0  0  0  0  0  0  0  0  0  0  0
   -0.6958    0.5042    0.0000 C   0  0  0  0  0  0  0  0  0  0  0  0
   -0.6958    1.8374    0.0000 N   0  0  0  0  0  0  0  0  0  0  0  0
    1.5166    0.7583    0.0000 N   0  0  0  0  0  0  0  0  0  0  0  0
    1.5166    1.5832    0.0000 C   0  0  0  0  0  0  0  0  0  0  0  0
   -1.1832    1.1707    0.0000 C   0  0  0  0  0  0  0  0  0  0  0  0
    0.8041   -0.4792    0.0000 C   0  0  0  0  0  0  0  0  0  0  0  0
   -1.0332   -0.2500    0.0000 C   0  0  0  0  0  0  0  0  0  0  0  0
   -2.0041    1.0832    0.0000 C   0  0  0  0  0  0  0  0  0  0  0  0
   -1.8541   -0.3375    0.0000 C   0  0  0  0  0  0  0  0  0  0  0  0
   -2.3374    0.3292    0.0000 C   0  0  0  0  0  0  0  0  0  0  0  0
    3.6581   -0.4792    0.0000 C   0  0  0  0  0  0  0  0  0  0  0  0
    4.3747   -0.0667    0.0000 C   0  0  0  0  0  0  0  0  0  0  0  0
    1.5166   -0.8916    0.0000 C   0  0  0  0  0  0  0  0  0  0  0  0
   -2.0707   -1.1332    0.0000 O   0  0  0  0  0  0  0  0  0  0  0  0
   -3.1623    0.3667    0.0000 O   0  0  0  0  0  0  0  0  0  0  0  0
    2.2291    1.9957    0.0000 N   0  0  0  0  0  0  0  0  0  0  0  0
    0.0875   -0.8916    0.0000 C   0  0  0  0  0  0  0  0  0  0  0  0
    2.2291   -0.4792    0.0000 O   0  0  0  0  0  0  0  0  0  0  0  0
    2.9456   -0.8916    0.0000 C   0  0  0  0  0  0  0  0  0  0  0  0
   -3.5581   -1.0666    0.0000 C   0  0  0  0  0  0  0  0  0  0  0  0
   -3.7040   -0.2542    0.0000 C   0  0  0  0  0  0  0  0  0  0  0  0
   -2.8290   -1.4582    0.0000 C   0  0  0  0  0  0  0  0  0  0  0  0
    1.5166   -1.7166    0.0000 C   0  0  0  0  0  0  0  0  0  0  0  0
    0.0875   -1.7166    0.0000 C   0  0  0  0  0  0  0  0  0  0  0  0
    0.8041   -2.1291    0.0000 C   0  0  0  0  0  0  0  0  0  0  0  0
  2  1  1  0  0  0  0
  3  1  1  0  0  0  0
  4  2  1  0  0  0  0
  4  8  2  0  0  0  0
  5  1  1  0  0  0  0
  6  2  2  0  0  0  0
  7  3  1  0  0  0  0
  8  7  1  0  0  0  0
  9  5  2  0  0  0  0
  9  6  1  0  0  0  0
 10  3  1  0  0  0  0
 11  5  1  0  0  0  0
 12  9  1  0  0  0  0
 13 11  2  0  0  0  0
 13 14  1  0  0  0  0
 14 12  2  0  0  0  0
 15 23  1  0  0  0  0
 16 15  3  0  0  0  0
 17 10  2  0  0  0  0
 18 13  1  0  0  0  0
 19 14  1  0  0  0  0
 20  8  1  0  0  0  0
 21 10  1  0  0  0  0
 22 17  1  0  0  0  0
 23 22  1  0  0  0  0
 24 26  1  0  0  0  0
 24 25  1  0  0  0  0
 25 19  1  0  0  0  0
 26 18  1  0  0  0  0
 27 17  1  0  0  0  0
 28 21  2  0  0  0  0
 29 27  2  0  0  0  0
 29 28  1  0  0  0  0
M  END
> <CdId>
3243

> <Mol Weight>
389.4073

> <Formula>
C21H19N5O3

> <Click_ID>
CLK042C11 __ __ 

$$$$
