CLK030_E10
 OpenBabel03181404502D

 29 31  0  0  0  0  0  0  0  0999 V2000
   -1.1636    2.3855    0.0000 C   0  0  0  0  0  0  0  0  0  0  0  0
   -0.3378    2.3772    0.0000 N   0  0  0  0  0  0  0  0  0  0  0  0
   -4.5876    3.2155    0.0000 S   0  0  0  0  0  0  0  0  0  0  0  0
   -1.6473    1.7224    0.0000 N   0  0  0  0  0  0  0  0  0  0  0  0
   -1.6473    3.0529    0.0000 S   0  0  0  0  0  0  0  0  0  0  0  0
   -2.4356    2.7984    0.0000 C   0  0  0  0  0  0  0  0  0  0  0  0
   -2.4356    1.9727    0.0000 C   0  0  0  0  0  0  0  0  0  0  0  0
    0.0751    3.0904    0.0000 C   0  0  0  0  0  0  0  0  0  0  0  0
   -3.8619    2.7984    0.0000 C   0  0  0  0  0  0  0  0  0  0  0  0
   -3.1488    3.2113    0.0000 C   0  0  0  0  0  0  0  0  0  0  0  0
    0.9008    3.0904    0.0000 C   0  0  0  0  0  0  0  0  0  0  0  0
   -1.9476    0.3211    0.0000 C   0  0  0  0  0  0  0  0  0  0  0  0
   -3.1488    1.5598    0.0000 C   0  0  0  0  0  0  0  0  0  0  0  0
   -2.4981   -0.2920    0.0000 C   0  0  0  0  0  0  0  0  0  0  0  0
   -5.0255    2.5107    0.0000 O   0  0  0  0  0  0  0  0  0  0  0  0
   -4.1497    3.9120    0.0000 O   0  0  0  0  0  0  0  0  0  0  0  0
   -5.2883    3.6492    0.0000 N   0  0  0  0  0  0  0  0  0  0  0  0
    1.3179    2.3772    0.0000 C   0  0  0  0  0  0  0  0  0  0  0  0
    1.3179    3.8036    0.0000 C   0  0  0  0  0  0  0  0  0  0  0  0
   -0.3378    3.8036    0.0000 O   0  0  0  0  0  0  0  0  0  0  0  0
   -3.8619    1.9727    0.0000 C   0  0  0  0  0  0  0  0  0  0  0  0
    2.5566    3.0862    0.0000 C   0  0  0  0  0  0  0  0  0  0  0  0
    2.1312    2.3730    0.0000 C   0  0  0  0  0  0  0  0  0  0  0  0
    2.1437    3.7994    0.0000 C   0  0  0  0  0  0  0  0  0  0  0  0
   -1.3971    0.9342    0.0000 C   0  0  0  0  0  0  0  0  0  0  0  0
    2.5691    4.5084    0.0000 O   0  0  0  0  0  0  0  0  0  0  0  0
    2.5691    1.6516    0.0000 O   0  0  0  0  0  0  0  0  0  0  0  0
    2.1562    5.2341    0.0000 C   0  0  0  0  0  0  0  0  0  0  0  0
    3.3949    1.6516    0.0000 C   0  0  0  0  0  0  0  0  0  0  0  0
  2  1  2  0  0  0  0
  3  9  1  0  0  0  0
  4  1  1  0  0  0  0
  5  1  1  0  0  0  0
  6  5  1  0  0  0  0
  6  7  2  0  0  0  0
  7  4  1  0  0  0  0
  8  2  1  0  0  0  0
  9 10  2  0  0  0  0
  9 21  1  0  0  0  0
 10  6  1  0  0  0  0
 11  8  1  0  0  0  0
 12 25  1  0  0  0  0
 13  7  1  0  0  0  0
 14 12  3  0  0  0  0
 15  3  2  0  0  0  0
 16  3  2  0  0  0  0
 17  3  1  0  0  0  0
 18 11  2  0  0  0  0
 19 11  1  0  0  0  0
 20  8  2  0  0  0  0
 21 13  2  0  0  0  0
 22 24  1  0  0  0  0
 22 23  2  0  0  0  0
 23 18  1  0  0  0  0
 24 19  2  0  0  0  0
 25  4  1  0  0  0  0
 26 24  1  0  0  0  0
 27 23  1  0  0  0  0
 28 26  1  0  0  0  0
 29 27  1  0  0  0  0
M  END
> <CdId>
2294

> <Mol Weight>
431.485

> <Formula>
C19H17N3O5S2

> <Click_ID>
CLK030_E10 __ __ 

$$$$
