CLK027_G05
 OpenBabel03181404502D

 26 27  0  0  0  0  0  0  0  0999 V2000
   -1.1240   -0.9999    0.0000 C    0  0  0  0  0  0  0  0  0  0  0  0
   -1.8378   -1.4137    0.0000 C    0  0  0  0  0  0  0  0  0  0  0  0
   -0.4069   -1.4137    0.0000 C    0  0  0  0  0  0  0  0  0  0  0  0
    1.7447   -0.1724    0.0000 C    0  0  0  0  0  0  0  0  0  0  0  0
   -1.1344   -0.1758    0.0000 C    0  0  0  0  0  0  0  0  0  0  0  0
    1.7447   -0.9965    0.0000 C    0  0  0  0  0  0  0  0  0  0  0  0
    1.0309    0.2414    0.0000 C    0  0  0  0  0  0  0  0  0  0  0  0
    0.3172   -0.9965    0.0000 C    0  0  0  0  0  0  0  0  0  0  0  0
   -1.1344    0.6517    0.0000 N    0  0  0  0  0  0  0  0  0  0  0  0
   -2.5585   -0.9999    0.0000 N    0  0  0  0  0  0  0  0  0  0  0  0
    3.8928    0.2483    0.0000 C    0  0  0  0  0  0  0  0  0  0  0  0
    4.6066    0.6655    0.0000 C    0  0  0  0  0  0  0  0  0  0  0  0
    1.0309   -1.4103    0.0000 C    0  0  0  0  0  0  0  0  0  0  0  0
    0.3172   -0.1724    0.0000 C    0  0  0  0  0  0  0  0  0  0  0  0
   -1.8378   -2.2378    0.0000 O    0  0  0  0  0  0  0  0  0  0  0  0
    2.4688   -1.4206    0.0000 Cl   0  0  0  0  0  0  0  0  0  0  0  0
    2.4688    0.2483    0.0000 O    0  0  0  0  0  0  0  0  0  0  0  0
    1.0309    1.0654    0.0000 O    0  0  0  0  0  0  0  0  0  0  0  0
   -3.2722   -1.4137    0.0000 C    0  0  0  0  0  0  0  0  0  0  0  0
    3.1825   -0.1620    0.0000 C    0  0  0  0  0  0  0  0  0  0  0  0
    1.7447    1.4792    0.0000 C    0  0  0  0  0  0  0  0  0  0  0  0
   -3.4480   -2.2274    0.0000 C    0  0  0  0  0  0  0  0  0  0  0  0
   -3.9893   -0.9999    0.0000 C    0  0  0  0  0  0  0  0  0  0  0  0
    1.7447    2.3136    0.0000 C    0  0  0  0  0  0  0  0  0  0  0  0
   -4.2652   -2.3102    0.0000 C    0  0  0  0  0  0  0  0  0  0  0  0
   -4.6100   -1.5654    0.0000 C    0  0  0  0  0  0  0  0  0  0  0  0
  2  1  1  0  0  0  0
  3  1  2  0  0  0  0
  4  7  2  0  0  0  0
  5  1  1  0  0  0  0
  6 13  2  0  0  0  0
  6  4  1  0  0  0  0
  7 14  1  0  0  0  0
  8  3  1  0  0  0  0
  9  5  3  0  0  0  0
 10  2  1  0  0  0  0
 11 20  1  0  0  0  0
 12 11  3  0  0  0  0
 13  8  1  0  0  0  0
 14  8  2  0  0  0  0
 15  2  2  0  0  0  0
 16  6  1  0  0  0  0
 17  4  1  0  0  0  0
 18  7  1  0  0  0  0
 19 10  1  0  0  0  0
 20 17  1  0  0  0  0
 21 18  1  0  0  0  0
 22 19  1  0  0  0  0
 23 19  1  0  0  0  0
 24 21  1  0  0  0  0
 25 22  1  0  0  0  0
 26 23  1  0  0  0  0
 26 25  1  0  0  0  0
M  END
> <CdId>
2073

> <Mol Weight>
372.845

> <Formula>
C20H21ClN2O3

> <Click_ID>
CLK027_G05 __ __ 

$$$$
