CLK004_B10
 OpenBabel03181404502D

 25 27  0  0  0  0  0  0  0  0999 V2000
    0.9522    0.1523    0.0000 C    0  0  3  0  0  0  0  0  0  0  0  0
    1.3572   -0.5644    0.0000 C    0  0  0  0  0  0  0  0  0  0  0  0
    0.1212    0.1523    0.0000 C    0  0  0  0  0  0  0  0  0  0  0  0
    1.3642    0.8587    0.0000 C    0  0  0  0  0  0  0  0  0  0  0  0
    2.1848   -0.5713    0.0000 C    0  0  0  0  0  0  0  0  0  0  0  0
    1.1011   -1.3538    0.0000 C    0  0  0  0  0  0  0  0  0  0  0  0
   -0.2874    0.8795    0.0000 C    0  0  0  0  0  0  0  0  0  0  0  0
   -0.2909   -0.5505    0.0000 C    0  0  0  0  0  0  0  0  0  0  0  0
    2.1848    0.8552    0.0000 C    0  0  0  0  0  0  0  0  0  0  0  0
    0.9556    1.5824    0.0000 C    0  0  0  0  0  0  0  0  0  0  0  0
    2.6003    0.1385    0.0000 O    0  0  0  0  0  0  0  0  0  0  0  0
    2.4376   -1.3642    0.0000 N    0  0  0  0  0  0  0  0  0  0  0  0
    1.7658   -1.8454    0.0000 N    0  0  0  0  0  0  0  0  0  0  0  0
    0.3116   -1.6066    0.0000 C    0  0  0  0  0  0  0  0  0  0  0  0
   -1.1079    0.8795    0.0000 C    0  0  0  0  0  0  0  0  0  0  0  0
   -1.1149   -0.5505    0.0000 C    0  0  0  0  0  0  0  0  0  0  0  0
    2.6072    1.5685    0.0000 N    0  0  0  0  0  0  0  0  0  0  0  0
    0.5540    2.2991    0.0000 N    0  0  0  0  0  0  0  0  0  0  0  0
   -1.5339    0.1628    0.0000 C    0  0  0  0  0  0  0  0  0  0  0  0
   -1.5165    1.5962    0.0000 Cl   0  0  0  0  0  0  0  0  0  0  0  0
   -1.5303   -1.2534    0.0000 Cl   0  0  0  0  0  0  0  0  0  0  0  0
   -2.3579    0.1628    0.0000 O    0  0  0  0  0  0  0  0  0  0  0  0
   -2.7630   -0.5401    0.0000 C    0  0  0  0  0  0  0  0  0  0  0  0
   -3.5870   -0.5470    0.0000 C    0  0  0  0  0  0  0  0  0  0  0  0
   -4.4077   -0.5401    0.0000 C    0  0  0  0  0  0  0  0  0  0  0  0
  1  2  1  0  0  0  0
  1  3  1  0  0  0  0
  1  4  1  0  0  0  0
  2  5  2  0  0  0  0
  2  6  1  0  0  0  0
  3  7  2  0  0  0  0
  3  8  1  0  0  0  0
  4  9  2  0  0  0  0
  4 10  1  0  0  0  0
  5 11  1  0  0  0  0
  5 12  1  0  0  0  0
  6 13  2  0  0  0  0
  6 14  1  0  0  0  0
  7 15  1  0  0  0  0
  8 16  2  0  0  0  0
  9 17  1  0  0  0  0
  9 11  1  0  0  0  0
 10 18  3  0  0  0  0
 12 13  1  0  0  0  0
 15 19  2  0  0  0  0
 15 20  1  0  0  0  0
 16 21  1  0  0  0  0
 16 19  1  0  0  0  0
 19 22  1  0  0  0  0
 22 23  1  0  0  0  0
 23 24  1  0  0  0  0
 24 25  3  0  0  0  0
M  END
> <CdId>
259

> <Mol Weight>
375.209

> <Formula>
C17H12Cl2N4O2

> <Click_ID>
CLK004_B10 __ __ 

$$$$
