CLK016_A06
 OpenBabel03181404502D

 27 29  0  0  0  0  0  0  0  0999 V2000
    1.5645   -0.8156    0.0000 N   0  0  0  0  0  0  0  0  0  0  0  0
    1.8225   -1.6020    0.0000 C   0  0  0  0  0  0  0  0  0  0  0  0
    4.5104    1.4063    0.0000 N   0  0  0  0  0  0  0  0  0  0  0  0
    2.9002   -0.8156    0.0000 C   0  0  0  0  0  0  0  0  0  0  0  0
    2.2344   -0.3287    0.0000 C   0  0  0  0  0  0  0  0  0  0  0  0
    3.8488    0.2497    0.0000 C   0  0  0  0  0  0  0  0  0  0  0  0
    2.6463   -1.6020    0.0000 S   0  0  0  0  0  0  0  0  0  0  0  0
    3.7115    1.5686    0.0000 C   0  0  0  0  0  0  0  0  0  0  0  0
    4.5978    0.5867    0.0000 C   0  0  0  0  0  0  0  0  0  0  0  0
    5.3967    4.1110    0.0000 N   0  3  0  0  0  0  0  0  0  0  0  0
    3.6866   -0.5617    0.0000 C   0  0  0  0  0  0  0  0  0  0  0  0
    3.2996    0.8446    0.0000 C   0  0  0  0  0  0  0  0  0  0  0  0
    5.1221    1.9556    0.0000 C   0  0  0  0  0  0  0  0  0  0  0  0
    4.9473    2.7669    0.0000 C   0  0  0  0  0  0  0  0  0  0  0  0
    5.5590    3.3079    0.0000 C   0  0  0  0  0  0  0  0  0  0  0  0
    0.6116    0.2455    0.0000 C   0  0  0  0  0  0  0  0  0  0  0  0
    0.3912    1.0443    0.0000 C   0  0  0  0  0  0  0  0  0  0  0  0
    6.0083    4.6602    0.0000 O   0  5  0  0  0  0  0  0  0  0  0  0
    1.3356   -2.2635    0.0000 O   0  0  0  0  0  0  0  0  0  0  0  0
    4.6103    4.3689    0.0000 O   0  0  0  0  0  0  0  0  0  0  0  0
    2.2261    0.4951    0.0000 O   0  0  0  0  0  0  0  0  0  0  0  0
    0.7864   -0.5617    0.0000 C   0  0  0  0  0  0  0  0  0  0  0  0
    3.3703    2.3301    0.0000 C   0  0  0  0  0  0  0  0  0  0  0  0
    5.3051    0.1706    0.0000 C   0  0  0  0  0  0  0  0  0  0  0  0
    5.9043    1.6976    0.0000 C   0  0  0  0  0  0  0  0  0  0  0  0
    6.3454    3.0540    0.0000 C   0  0  0  0  0  0  0  0  0  0  0  0
    6.5159    2.2469    0.0000 C   0  0  0  0  0  0  0  0  0  0  0  0
  2  1  1  0  0  0  0
  3  9  1  0  0  0  0
  3  8  1  0  0  0  0
  4  5  1  0  0  0  0
  4  7  1  0  0  0  0
  5  1  1  0  0  0  0
  6 11  1  0  0  0  0
  7  2  1  0  0  0  0
  8 12  2  0  0  0  0
  9  6  2  0  0  0  0
 10 15  1  0  0  0  0
 11  4  2  0  0  0  0
 12  6  1  0  0  0  0
 13  3  1  0  0  0  0
 14 13  1  0  0  0  0
 15 14  2  0  0  0  0
 16 22  1  0  0  0  0
 17 16  3  0  0  0  0
 18 10  1  0  0  0  0
 19  2  2  0  0  0  0
 20 10  2  0  0  0  0
 21  5  2  0  0  0  0
 22  1  1  0  0  0  0
 23  8  1  0  0  0  0
 24  9  1  0  0  0  0
 25 13  2  0  0  0  0
 26 27  2  0  0  0  0
 26 15  1  0  0  0  0
 27 25  1  0  0  0  0
M  END
> <CdId>
1161

> <Mol Weight>
381.405

> <Formula>
C19H15N3O4S

> <Click_ID>
CLK016_A06 __ __ 

$$$$
