CLK015_A11
 OpenBabel03181404502D

 32 34  0  0  0  0  0  0  0  0999 V2000
    5.8476   -3.2171    0.0000 N    0  0  0  0  0  0  0  0  0  0  0  0
    4.6194   -2.4930    0.0000 C    0  0  0  0  0  0  0  0  0  0  0  0
    5.4351   -2.5022    0.0000 C    0  0  0  0  0  0  0  0  0  0  0  0
    5.4214   -3.9320    0.0000 C    0  0  0  0  0  0  0  0  0  0  0  0
    4.5965   -3.9182    0.0000 N    0  0  0  0  0  0  0  0  0  0  0  0
    4.1978   -3.1942    0.0000 C    0  0  0  0  0  0  0  0  0  0  0  0
    9.1471   -3.2583    0.0000 N    0  0  0  0  0  0  0  0  0  0  0  0
    4.2115   -1.7735    0.0000 C    0  0  0  0  0  0  0  0  0  0  0  0
    1.7460   -1.7369    0.0000 C    0  0  0  0  0  0  0  0  0  0  0  0
    2.1447   -2.4518    0.0000 C    0  0  0  0  0  0  0  0  0  0  0  0
    2.1631   -1.0220    0.0000 C    0  0  0  0  0  0  0  0  0  0  0  0
    6.6724   -3.2217    0.0000 C    0  0  0  0  0  0  0  0  0  0  0  0
    3.3866   -1.7598    0.0000 C    0  0  0  0  0  0  0  0  0  0  0  0
    8.3222   -3.2492    0.0000 C    0  0  0  0  0  0  0  0  0  0  0  0
   -0.3300   -2.4197    0.0000 C    0  0  0  0  0  0  0  0  0  0  0  0
    5.8292   -4.6515    0.0000 O    0  0  0  0  0  0  0  0  0  0  0  0
   -0.7515   -3.1254    0.0000 C    0  0  0  0  0  0  0  0  0  0  0  0
    5.8613   -1.7919    0.0000 O    0  0  0  0  0  0  0  0  0  0  0  0
    9.5458   -3.9778    0.0000 O    0  0  0  0  0  0  0  0  0  0  0  0
    2.9696   -2.4655    0.0000 C    0  0  0  0  0  0  0  0  0  0  0  0
    9.5687   -2.5480    0.0000 O    0  0  0  0  0  0  0  0  0  0  0  0
    2.9880   -1.0357    0.0000 C    0  0  0  0  0  0  0  0  0  0  0  0
    3.3729   -3.1896    0.0000 O    0  0  0  0  0  0  0  0  0  0  0  0
    7.0711   -3.9457    0.0000 C    0  0  0  0  0  0  0  0  0  0  0  0
    7.0940   -2.5205    0.0000 C    0  0  0  0  0  0  0  0  0  0  0  0
    7.8960   -3.9595    0.0000 C    0  0  0  0  0  0  0  0  0  0  0  0
    7.9189   -2.5296    0.0000 C    0  0  0  0  0  0  0  0  0  0  0  0
    1.7231   -3.1667    0.0000 Cl   0  0  0  0  0  0  0  0  0  0  0  0
    0.9211   -1.7231    0.0000 O    0  0  0  0  0  0  0  0  0  0  0  0
    1.7644   -0.3071    0.0000 O    0  0  0  0  0  0  0  0  0  0  0  0
    0.4949   -2.4334    0.0000 C    0  0  0  0  0  0  0  0  0  0  0  0
    2.1859    0.3987    0.0000 C    0  0  0  0  0  0  0  0  0  0  0  0
  2  3  1  0  0  0  0
  3  1  1  0  0  0  0
  4  1  1  0  0  0  0
  5  4  1  0  0  0  0
  6  5  1  0  0  0  0
  6  2  1  0  0  0  0
  7 14  1  0  0  0  0
  8  2  2  0  0  0  0
  9 11  1  0  0  0  0
  9 10  2  0  0  0  0
 10 20  1  0  0  0  0
 11 22  2  0  0  0  0
 12  1  1  0  0  0  0
 13  8  1  0  0  0  0
 14 27  2  0  0  0  0
 14 26  1  0  0  0  0
 15 31  1  0  0  0  0
 16  4  2  0  0  0  0
 17 15  3  0  0  0  0
 18  3  2  0  0  0  0
 19  7  1  0  0  0  0
 20 13  2  0  0  0  0
 21  7  2  0  0  0  0
 22 13  1  0  0  0  0
 23  6  2  0  0  0  0
 24 12  1  0  0  0  0
 25 12  2  0  0  0  0
 26 24  2  0  0  0  0
 27 25  1  0  0  0  0
 28 10  1  0  0  0  0
 29  9  1  0  0  0  0
 30 11  1  0  0  0  0
 31 29  1  0  0  0  0
 32 30  1  0  0  0  0
M  END
> <CdId>
1086

> <Mol Weight>
455.805

> <Formula>
C21H14ClN3O7

> <Click_ID>
CLK015_A11 __ __ 

$$$$
