CLK018_F04
 OpenBabel03181404502D

 28 30  0  0  0  0  0  0  0  0999 V2000
    1.7722   -1.0075    0.0000 C    0  0  3  0  0  0  0  0  0  0  0  0
    2.2302   -1.6395    0.0000 C    0  0  0  0  0  0  0  0  0  0  0  0
    0.9800   -1.2685    0.0000 C    0  0  0  0  0  0  0  0  0  0  0  0
    1.7722   -2.3492    0.0000 N    0  0  0  0  0  0  0  0  0  0  0  0
    0.9800   -2.0928    0.0000 C    0  0  0  0  0  0  0  0  0  0  0  0
    2.6149   -0.2382    0.0000 C    0  0  0  0  0  0  0  0  0  0  0  0
    3.5765   -0.4121    0.0000 C    0  0  0  0  0  0  0  0  0  0  0  0
    4.0802    0.2427    0.0000 C    0  0  0  0  0  0  0  0  0  0  0  0
    1.5158   -3.7551    0.0000 C    0  0  0  0  0  0  0  0  0  0  0  0
    0.2656   -2.5050    0.0000 C    0  0  0  0  0  0  0  0  0  0  0  0
    0.9800   -4.3825    0.0000 C    0  0  0  0  0  0  0  0  0  0  0  0
    4.8954    0.1328    0.0000 C    0  0  0  0  0  0  0  0  0  0  0  0
    0.2656   -0.8518    0.0000 C    0  0  0  0  0  0  0  0  0  0  0  0
    5.3991    0.7831    0.0000 C    0  0  0  0  0  0  0  0  0  0  0  0
    3.0270   -1.7081    0.0000 O    0  0  0  0  0  0  0  0  0  0  0  0
    5.0877    1.5478    0.0000 C    0  0  0  0  0  0  0  0  0  0  0  0
    2.0470   -3.1232    0.0000 C    0  0  0  0  0  0  0  0  0  0  0  0
    1.3784   -0.1374    0.0000 O    0  0  0  0  0  0  0  0  0  0  0  0
    3.8513   -0.9938    0.0000 O    0  0  0  0  0  0  0  0  0  0  0  0
    3.7643    1.0029    0.0000 C    0  0  0  0  0  0  0  0  0  0  0  0
    4.2634    1.6577    0.0000 C    0  0  0  0  0  0  0  0  0  0  0  0
   -0.4487   -1.2685    0.0000 C    0  0  0  0  0  0  0  0  0  0  0  0
   -0.4487   -2.0928    0.0000 C    0  0  0  0  0  0  0  0  0  0  0  0
    6.2143    0.6732    0.0000 O    0  0  0  0  0  0  0  0  0  0  0  0
   -1.1631   -0.8564    0.0000 Br   0  0  0  0  0  0  0  0  0  0  0  0
    5.5823    2.1981    0.0000 O    0  0  0  0  0  0  0  0  0  0  0  0
    6.7180    1.3280    0.0000 C    0  0  0  0  0  0  0  0  0  0  0  0
    6.4066    2.0882    0.0000 C    0  0  0  0  0  0  0  0  0  0  0  0
  2  1  1  0  0  0  0
  3  1  1  0  0  0  0
  4  2  1  0  0  0  0
  5  3  2  0  0  0  0
  5  4  1  0  0  0  0
  6  1  1  0  0  0  0
  7  6  1  0  0  0  0
  8  7  1  0  0  0  0
  9 17  1  0  0  0  0
 10  5  1  0  0  0  0
 10 23  2  0  0  0  0
 11  9  3  0  0  0  0
 12  8  1  0  0  0  0
 13  3  1  0  0  0  0
 14 12  2  0  0  0  0
 14 16  1  0  0  0  0
 15  2  2  0  0  0  0
 16 21  2  0  0  0  0
 17  4  1  0  0  0  0
 18  1  1  0  0  0  0
 19  7  2  0  0  0  0
 20  8  2  0  0  0  0
 21 20  1  0  0  0  0
 22 13  2  0  0  0  0
 23 22  1  0  0  0  0
 24 14  1  0  0  0  0
 25 22  1  0  0  0  0
 26 16  1  0  0  0  0
 27 24  1  0  0  0  0
 28 26  1  0  0  0  0
M  END
> <CdId>
1369

> <Mol Weight>
444.275

> <Formula>
C21H18BrNO5

> <Click_ID>
CLK018_F04 __ __ 

$$$$
