CLK042A09
 OpenBabel03181404502D

 29 30  0  0  0  0  0  0  0  0999 V2000
   -3.1292    1.0417    0.0000 S   0  0  0  0  0  0  0  0  0  0  0  0
    3.3000   -1.8458    0.0000 S   0  0  0  0  0  0  0  0  0  0  0  0
   -0.2750   -0.6083    0.0000 C   0  0  0  0  0  0  0  0  0  0  0  0
   -2.4167    0.6292    0.0000 C   0  0  0  0  0  0  0  0  0  0  0  0
    2.5833   -1.4333    0.0000 C   0  0  0  0  0  0  0  0  0  0  0  0
    0.4417   -0.1958    0.0000 N   0  0  0  0  0  0  0  0  0  0  0  0
   -4.5583    2.6917    0.0000 C   0  0  0  0  0  0  0  0  0  0  0  0
   -5.2750    3.1042    0.0000 C   0  0  0  0  0  0  0  0  0  0  0  0
   -3.5417    0.3250    0.0000 O   0  0  0  0  0  0  0  0  0  0  0  0
   -2.7167    1.7542    0.0000 O   0  0  0  0  0  0  0  0  0  0  0  0
    2.8875   -2.5625    0.0000 O   0  0  0  0  0  0  0  0  0  0  0  0
    3.7125   -1.1333    0.0000 O   0  0  0  0  0  0  0  0  0  0  0  0
    2.5833   -0.6083    0.0000 C   0  0  0  0  0  0  0  0  0  0  0  0
   -0.9875   -0.1958    0.0000 C   0  0  0  0  0  0  0  0  0  0  0  0
   -3.8458    1.4542    0.0000 N   0  0  0  0  0  0  0  0  0  0  0  0
    4.0125   -2.2583    0.0000 N   0  0  0  0  0  0  0  0  0  0  0  0
    1.8708   -0.1958    0.0000 C   0  0  0  0  0  0  0  0  0  0  0  0
    1.1542   -0.6083    0.0000 C   0  0  0  0  0  0  0  0  0  0  0  0
   -0.2750   -1.4333    0.0000 O   0  0  0  0  0  0  0  0  0  0  0  0
   -1.7000    1.0417    0.0000 C   0  0  0  0  0  0  0  0  0  0  0  0
   -2.4167   -0.1958    0.0000 C   0  0  0  0  0  0  0  0  0  0  0  0
   -0.9875    0.6292    0.0000 C   0  0  0  0  0  0  0  0  0  0  0  0
   -1.7000   -0.6083    0.0000 C   0  0  0  0  0  0  0  0  0  0  0  0
   -3.8458    2.2792    0.0000 C   0  0  0  0  0  0  0  0  0  0  0  0
    3.3000   -0.1958    0.0000 C   0  0  0  0  0  0  0  0  0  0  0  0
    1.8708    0.6292    0.0000 C   0  0  0  0  0  0  0  0  0  0  0  0
    4.0125   -3.0833    0.0000 C   0  0  0  0  0  0  0  0  0  0  0  0
    3.3000    0.6292    0.0000 C   0  0  0  0  0  0  0  0  0  0  0  0
    2.5833    1.0417    0.0000 C   0  0  0  0  0  0  0  0  0  0  0  0
  2  5  1  0  0  0  0
  3 14  1  0  0  0  0
  4  1  1  0  0  0  0
  5 13  1  0  0  0  0
  6  3  1  0  0  0  0
  7 24  1  0  0  0  0
  8  7  3  0  0  0  0
  9  1  2  0  0  0  0
 10  1  2  0  0  0  0
 11  2  2  0  0  0  0
 12  2  2  0  0  0  0
 13 17  2  0  0  0  0
 14 23  2  0  0  0  0
 15  1  1  0  0  0  0
 16  2  1  0  0  0  0
 17 18  1  0  0  0  0
 18  6  1  0  0  0  0
 19  3  2  0  0  0  0
 20  4  1  0  0  0  0
 21  4  2  0  0  0  0
 22 20  2  0  0  0  0
 22 14  1  0  0  0  0
 23 21  1  0  0  0  0
 24 15  1  0  0  0  0
 25 13  1  0  0  0  0
 26 17  1  0  0  0  0
 27 16  1  0  0  0  0
 28 25  2  0  0  0  0
 29 26  2  0  0  0  0
 29 28  1  0  0  0  0
M  END
> <CdId>
3225

> <Mol Weight>
435.517

> <Formula>
C19H21N3O5S2

> <Click_ID>
CLK042A09 __ __ 

$$$$
