CLK027_E06
 OpenBabel03181404502D

 36 41  0  0  0  0  0  0  0  0999 V2000
   -1.6019   -0.9143    0.0000 N   0  0  0  0  0  0  0  0  0  0  0  0
   -0.8869   -0.5053    0.0000 C   0  0  0  0  0  0  0  0  0  0  0  0
   -1.6019    0.7357    0.0000 C   0  0  0  0  0  0  0  0  0  0  0  0
   -2.3135    0.3232    0.0000 C   0  0  0  0  0  0  0  0  0  0  0  0
   -0.8869    0.3232    0.0000 N   0  0  0  0  0  0  0  0  0  0  0  0
   -2.3135   -0.5053    0.0000 C   0  0  3  0  0  0  0  0  0  0  0  0
   -1.4300   -1.7222    0.0000 C   0  0  0  0  0  0  0  0  0  0  0  0
   -0.6050   -1.8012    0.0000 C   0  0  0  0  0  0  0  0  0  0  0  0
   -0.2750   -1.0622    0.0000 S   0  0  0  0  0  0  0  0  0  0  0  0
   -1.6019    1.5607    0.0000 C   0  0  0  0  0  0  0  0  0  0  0  0
   -0.1822   -2.5128    0.0000 C   0  0  0  0  0  0  0  0  0  0  0  0
   -3.0353    0.7357    0.0000 C   0  0  0  0  0  0  0  0  0  0  0  0
    4.3519   -3.2003    0.0000 C   0  0  0  0  0  0  0  0  0  0  0  0
   -3.0353   -0.9143    0.0000 C   0  0  0  0  0  0  0  0  0  0  0  0
    5.1769   -3.2003    0.0000 C   0  0  0  0  0  0  0  0  0  0  0  0
   -1.9765   -2.3375    0.0000 O   0  0  0  0  0  0  0  0  0  0  0  0
   -2.3135    1.9800    0.0000 C   0  0  0  0  0  0  0  0  0  0  0  0
   -3.0353    1.5607    0.0000 C   0  0  0  0  0  0  0  0  0  0  0  0
    0.6462   -2.4991    0.0000 C   0  0  0  0  0  0  0  0  0  0  0  0
   -3.7469   -0.5053    0.0000 C   0  0  0  0  0  0  0  0  0  0  0  0
   -3.0353   -1.7393    0.0000 C   0  0  0  0  0  0  0  0  0  0  0  0
    2.2894   -2.4888    0.0000 C   0  0  0  0  0  0  0  0  0  0  0  0
   -3.7469   -2.1518    0.0000 C   0  0  0  0  0  0  0  0  0  0  0  0
   -4.4585   -0.9143    0.0000 C   0  0  0  0  0  0  0  0  0  0  0  0
   -4.4585   -1.7393    0.0000 C   0  0  0  0  0  0  0  0  0  0  0  0
    1.0587   -3.2107    0.0000 C   0  0  0  0  0  0  0  0  0  0  0  0
    1.0553   -1.7841    0.0000 C   0  0  0  0  0  0  0  0  0  0  0  0
    1.8837   -3.2072    0.0000 C   0  0  0  0  0  0  0  0  0  0  0  0
    1.8769   -1.7772    0.0000 C   0  0  0  0  0  0  0  0  0  0  0  0
    3.5269   -3.2003    0.0000 C   0  0  0  0  0  0  0  0  0  0  0  0
   -0.8869    1.9800    0.0000 C   0  0  0  0  0  0  0  0  0  0  0  0
    3.1144   -2.4888    0.0000 O   0  0  0  0  0  0  0  0  0  0  0  0
   -2.3135    2.8050    0.0000 C   0  0  0  0  0  0  0  0  0  0  0  0
   -5.1769   -2.1622    0.0000 C   0  0  0  0  0  0  0  0  0  0  0  0
   -0.8869    2.8050    0.0000 C   0  0  0  0  0  0  0  0  0  0  0  0
   -1.6019    3.2140    0.0000 C   0  0  0  0  0  0  0  0  0  0  0  0
  2  1  1  0  0  0  0
  3  4  2  0  0  0  0
  3  5  1  0  0  0  0
  4  6  1  0  0  0  0
  5  2  2  0  0  0  0
  6  1  1  0  0  0  0
  7  1  1  0  0  0  0
  8  7  1  0  0  0  0
  8  9  1  0  0  0  0
  9  2  1  0  0  0  0
 10  3  1  0  0  0  0
 10 17  2  0  0  0  0
 11  8  2  0  0  0  0
 12  4  1  0  0  0  0
 13 30  1  0  0  0  0
 14  6  1  0  0  0  0
 15 13  3  0  0  0  0
 16  7  2  0  0  0  0
 17 18  1  0  0  0  0
 18 12  1  0  0  0  0
 19 11  1  0  0  0  0
 20 14  2  0  0  0  0
 21 14  1  0  0  0  0
 22 29  1  0  0  0  0
 22 28  2  0  0  0  0
 23 21  2  0  0  0  0
 24 20  1  0  0  0  0
 25 23  1  0  0  0  0
 25 24  2  0  0  0  0
 26 19  2  0  0  0  0
 27 19  1  0  0  0  0
 28 26  1  0  0  0  0
 29 27  2  0  0  0  0
 30 32  1  0  0  0  0
 31 10  1  0  0  0  0
 32 22  1  0  0  0  0
 33 17  1  0  0  0  0
 34 25  1  0  0  0  0
 35 31  2  0  0  0  0
 35 36  1  0  0  0  0
 36 33  2  0  0  0  0
M  END
> <CdId>
2057

> <Mol Weight>
488.599

> <Formula>
C31H24N2O2S

> <Click_ID>
CLK027_E06 __ __ 

$$$$
