CLK020_H08
 OpenBabel03181404502D

 13 13  0  0  0  0  0  0  0  0999 V2000
    8.1842   -3.7189    0.0000 C    0  0  0  0  0  0  0  0  0  0  0  0
    8.1842   -0.8707    0.0000 C    0  0  0  0  0  0  0  0  0  0  0  0
    8.5864   -0.1534    0.0000 C    0  0  0  0  0  0  0  0  0  0  0  0
    7.7737   -3.0017    0.0000 C    0  0  0  0  0  0  0  0  0  0  0  0
    7.7737   -4.4321    0.0000 C    0  0  0  0  0  0  0  0  0  0  0  0
    9.0092   -3.7189    0.0000 C    0  0  0  0  0  0  0  0  0  0  0  0
    9.4197   -4.4321    0.0000 O    0  0  0  0  0  0  0  0  0  0  0  0
    6.9445   -3.0017    0.0000 C    0  0  0  0  0  0  0  0  0  0  0  0
    6.9445   -4.4321    0.0000 C    0  0  0  0  0  0  0  0  0  0  0  0
    6.5299   -3.7189    0.0000 C    0  0  0  0  0  0  0  0  0  0  0  0
    6.5299   -5.1410    0.0000 Br   0  0  0  0  0  0  0  0  0  0  0  0
    8.1759   -2.2928    0.0000 O    0  0  0  0  0  0  0  0  0  0  0  0
    7.7654   -1.5796    0.0000 C    0  0  0  0  0  0  0  0  0  0  0  0
  2 13  1  0  0  0  0
  3  2  3  0  0  0  0
  4  1  2  0  0  0  0
  5  1  1  0  0  0  0
  6  1  1  0  0  0  0
  7  6  2  0  0  0  0
  8  4  1  0  0  0  0
  8 10  2  0  0  0  0
  9  5  2  0  0  0  0
 10  9  1  0  0  0  0
 11  9  1  0  0  0  0
 12  4  1  0  0  0  0
 13 12  1  0  0  0  0
M  END
> <CdId>
1553

> <Mol Weight>
239.065

> <Formula>
C10H7BrO2

> <Click_ID>
CLK020_H08 __ __ 

$$$$
