CLK001_B08
 OpenBabel03181404502D

 26 29  0  0  0  0  0  0  0  0999 V2000
    0.7766   -0.3970    0.0000 C   0  0  3  0  0  0  0  0  0  0  0  0
    1.4944    0.0034    0.0000 C   0  0  3  0  0  0  0  0  0  0  0  0
    0.0622    0.0241    0.0000 C   0  0  3  0  0  0  0  0  0  0  0  0
    0.7800   -1.2149    0.0000 C   0  0  0  0  0  0  0  0  0  0  0  0
    1.4944    0.8248    0.0000 C   0  0  3  0  0  0  0  0  0  0  0  0
    2.9060    0.0000    0.0000 C   0  0  0  0  0  0  0  0  0  0  0  0
   -0.6489   -0.3970    0.0000 C   0  0  3  0  0  0  0  0  0  0  0  0
    0.0622    0.8491    0.0000 C   0  0  0  0  0  0  0  0  0  0  0  0
    0.0622   -1.6291    0.0000 C   0  0  0  0  0  0  0  0  0  0  0  0
    2.2020    1.2356    0.0000 C   0  0  3  0  0  0  0  0  0  0  0  0
    0.7800    1.2632    0.0000 C   0  0  0  0  0  0  0  0  0  0  0  0
    1.4944    1.6636    0.0000 C   0  0  0  0  0  0  0  0  0  0  0  0
    2.9060    0.8248    0.0000 C   0  0  0  0  0  0  0  0  0  0  0  0
   -0.6454   -1.2252    0.0000 C   0  0  0  0  0  0  0  0  0  0  0  0
   -1.3633    0.0241    0.0000 C   0  0  0  0  0  0  0  0  0  0  0  0
   -0.6592    0.4280    0.0000 C   0  0  0  0  0  0  0  0  0  0  0  0
    2.6057    1.9534    0.0000 C   0  0  0  0  0  0  0  0  0  0  0  0
    1.7809    1.9534    0.0000 O   0  0  0  0  0  0  0  0  0  0  0  0
   -1.3633   -1.6291    0.0000 C   0  0  0  0  0  0  0  0  0  0  0  0
   -2.0708   -0.3970    0.0000 C   0  0  0  0  0  0  0  0  0  0  0  0
    3.4341    1.9639    0.0000 C   0  0  0  0  0  0  0  0  0  0  0  0
   -2.0708   -1.2252    0.0000 C   0  0  3  0  0  0  0  0  0  0  0  0
   -2.7887   -1.6360    0.0000 O   0  0  0  0  0  0  0  0  0  0  0  0
   -3.5031   -1.2252    0.0000 C   0  0  0  0  0  0  0  0  0  0  0  0
   -4.2245   -1.6360    0.0000 C   0  0  0  0  0  0  0  0  0  0  0  0
   -3.5100   -0.3970    0.0000 O   0  0  0  0  0  0  0  0  0  0  0  0
  1  2  1  0  0  0  0
  1  3  1  0  0  0  0
  1  4  1  0  0  0  0
  2  5  1  0  0  0  0
  2  6  1  0  0  0  0
  3  7  1  0  0  0  0
  3  8  1  0  0  0  0
  4  9  1  0  0  0  0
  5 10  1  0  0  0  0
  5 11  1  0  0  0  0
  5 12  1  0  0  0  0
  6 13  1  0  0  0  0
  7 14  1  0  0  0  0
  7 15  1  0  0  0  0
  7 16  1  0  0  0  0
  8 11  1  0  0  0  0
  9 14  2  0  0  0  0
 10 17  1  0  0  0  0
 10 18  1  0  0  0  0
 10 13  1  0  0  0  0
 14 19  1  0  0  0  0
 15 20  1  0  0  0  0
 17 21  3  0  0  0  0
 19 22  1  0  0  0  0
 20 22  1  0  0  0  0
 22 23  1  0  0  0  0
 23 24  1  0  0  0  0
 24 25  1  0  0  0  0
 24 26  2  0  0  0  0
M  END
> <CdId>
17

> <Mol Weight>
356.4984

> <Formula>
C23H32O3

> <Click_ID>
CLK001_B08 __ __ 

$$$$
