CLK009_C02
 OpenBabel03181404502D

 15 15  0  0  0  0  0  0  0  0999 V2000
    1.7391    0.4348    0.0000 Br   0  0  0  0  0  0  0  0  0  0  0  0
   -0.1501    0.3727    0.0000 N    0  0  0  0  0  0  0  0  0  0  0  0
   -0.8695    0.7867    0.0000 C    0  0  0  0  0  0  0  0  0  0  0  0
   -0.8695   -0.7298    0.0000 C    0  0  0  0  0  0  0  0  0  0  0  0
   -0.8695    1.6096    0.0000 C    0  0  0  0  0  0  0  0  0  0  0  0
   -0.8695   -1.6511    0.0000 C    0  0  0  0  0  0  0  0  0  0  0  0
   -1.5941    0.3727    0.0000 C    0  0  0  0  0  0  0  0  0  0  0  0
   -1.5941    2.0133    0.0000 C    0  0  0  0  0  0  0  0  0  0  0  0
   -0.1501   -0.4089    0.0000 C    0  0  0  0  0  0  0  0  0  0  0  0
   -2.3136    1.6096    0.0000 C    0  0  0  0  0  0  0  0  0  0  0  0
    0.5642    0.7867    0.0000 C    0  0  0  0  0  0  0  0  0  0  0  0
   -2.3136    0.7867    0.0000 C    0  0  0  0  0  0  0  0  0  0  0  0
   -3.0434    1.9668    0.0000 O    0  0  0  0  0  0  0  0  0  0  0  0
   -0.1501    2.0133    0.0000 C    0  0  0  0  0  0  0  0  0  0  0  0
    0.5642    1.6096    0.0000 C    0  0  0  0  0  0  0  0  0  0  0  0
  3  2  1  0  0  0  0
  4  9  1  0  0  0  0
  5  3  2  0  0  0  0
  6  4  3  0  0  0  0
  7  3  1  0  0  0  0
  8  5  1  0  0  0  0
  9  2  1  0  0  0  0
 10 12  1  0  0  0  0
 10  8  2  0  0  0  0
 11  2  2  0  0  0  0
 12  7  2  0  0  0  0
 13 10  1  0  0  0  0
 14 15  2  0  0  0  0
 14  5  1  0  0  0  0
 15 11  1  0  0  0  0
M  END
> <CdId>
617

> <Mol Weight>
264.118

> <Formula>
C12H10BrNO

> <Click_ID>
CLK009_C02 __ __ 

$$$$
