CLK040H09
 OpenBabel03181404502D

 27 29  0  0  0  0  0  0  0  0999 V2000
   -1.5375   -0.4000    0.0000 S   0  0  0  0  0  0  0  0  0  0  0  0
   -0.8208    0.0125    0.0000 C   0  0  0  0  0  0  0  0  0  0  0  0
   -0.8208    0.8375    0.0000 C   0  0  0  0  0  0  0  0  0  0  0  0
   -2.2500    0.0125    0.0000 C   0  0  0  0  0  0  0  0  0  0  0  0
   -1.5375    1.2500    0.0000 C   0  0  0  0  0  0  0  0  0  0  0  0
   -2.2500    0.8375    0.0000 C   0  0  0  0  0  0  0  0  0  0  0  0
    1.3208   -0.4000    0.0000 C   0  0  0  0  0  0  0  0  0  0  0  0
   -0.1083   -0.4000    0.0000 C   0  0  0  0  0  0  0  0  0  0  0  0
    0.6083    0.0125    0.0000 C   0  0  0  0  0  0  0  0  0  0  0  0
   -1.2917   -1.1875    0.0000 O   0  0  0  0  0  0  0  0  0  0  0  0
   -1.7792   -1.1875    0.0000 O   0  0  0  0  0  0  0  0  0  0  0  0
    2.0375    0.0125    0.0000 N   0  0  0  0  0  0  0  0  0  0  0  0
    3.4625   -0.8125    0.0000 C   0  0  0  0  0  0  0  0  0  0  0  0
   -0.1083    1.2500    0.0000 C   0  0  0  0  0  0  0  0  0  0  0  0
    4.1792   -1.2250    0.0000 C   0  0  0  0  0  0  0  0  0  0  0  0
    2.7500   -0.4000    0.0000 C   0  0  0  0  0  0  0  0  0  0  0  0
   -1.5375    2.0792    0.0000 O   0  0  0  0  0  0  0  0  0  0  0  0
    1.3208   -1.2250    0.0000 O   0  0  0  0  0  0  0  0  0  0  0  0
    0.6083    0.8375    0.0000 C   0  0  0  0  0  0  0  0  0  0  0  0
   -2.9667    1.2500    0.0000 C   0  0  0  0  0  0  0  0  0  0  0  0
   -2.9667   -0.4000    0.0000 C   0  0  0  0  0  0  0  0  0  0  0  0
    3.1625    0.3167    0.0000 C   0  0  0  0  0  0  0  0  0  0  0  0
    2.3375   -1.1125    0.0000 C   0  0  0  0  0  0  0  0  0  0  0  0
   -3.6792    0.8375    0.0000 C   0  0  0  0  0  0  0  0  0  0  0  0
   -3.6792    0.0125    0.0000 C   0  0  0  0  0  0  0  0  0  0  0  0
    3.9875    0.3167    0.0000 C   0  0  0  0  0  0  0  0  0  0  0  0
    1.5125   -1.1125    0.0000 C   0  0  0  0  0  0  0  0  0  0  0  0
  2  1  1  0  0  0  0
  3  2  2  0  0  0  0
  4  1  1  0  0  0  0
  5  3  1  0  0  0  0
  6  4  2  0  0  0  0
  6  5  1  0  0  0  0
  7  9  1  0  0  0  0
  8  2  1  0  0  0  0
  9  8  2  0  0  0  0
 10  1  2  0  0  0  0
 11  1  2  0  0  0  0
 12  7  1  0  0  0  0
 13 16  1  0  0  0  0
 14  3  1  0  0  0  0
 14 19  2  0  0  0  0
 15 13  3  0  0  0  0
 16 12  1  0  0  0  0
 17  5  2  0  0  0  0
 18  7  2  0  0  0  0
 19  9  1  0  0  0  0
 20  6  1  0  0  0  0
 21  4  1  0  0  0  0
 22 16  1  0  0  0  0
 23 16  1  0  0  0  0
 24 20  2  0  0  0  0
 25 21  2  0  0  0  0
 25 24  1  0  0  0  0
 26 22  1  0  0  0  0
 27 23  1  0  0  0  0
M  END
> <CdId>
3072

> <Mol Weight>
381.445

> <Formula>
C21H19NO4S

> <Click_ID>
CLK040H09 __ __ 

$$$$
