CLK046E04
 OpenBabel03181404502D

 22 24  0  0  0  0  0  0  0  0999 V2000
   -0.6011    2.0117    0.0000 C   0  0  0  0  0  0  0  0  0  0  0  0
   -1.0852    1.3398    0.0000 N   0  0  0  0  0  0  0  0  0  0  0  0
   -0.8556    2.7965    0.0000 C   0  0  0  0  0  0  0  0  0  0  0  0
    0.1878    1.7531    0.0000 S   0  0  0  0  0  0  0  0  0  0  0  0
   -0.6011    0.6719    0.0000 C   0  0  0  0  0  0  0  0  0  0  0  0
   -0.3005   -0.7262    0.0000 C   0  0  0  0  0  0  0  0  0  0  0  0
   -0.8556   -0.1127    0.0000 C   0  0  0  0  0  0  0  0  0  0  0  0
    0.1878    0.9266    0.0000 C   0  0  0  0  0  0  0  0  0  0  0  0
    2.1662   -2.3999    0.0000 C   0  0  0  0  0  0  0  0  0  0  0  0
    2.9719   -2.2246    0.0000 C   0  0  0  0  0  0  0  0  0  0  0  0
   -1.6404    3.8775    0.0000 S   0  0  0  0  0  0  0  0  0  0  0  0
   -1.6404    3.0511    0.0000 C   0  0  0  0  0  0  0  0  0  0  0  0
   -0.5552   -1.5151    0.0000 N   0  0  0  0  0  0  0  0  0  0  0  0
   -0.3674    3.4642    0.0000 C   0  0  0  0  0  0  0  0  0  0  0  0
   -0.8556    4.1279    0.0000 C   0  0  0  0  0  0  0  0  0  0  0  0
    0.5051   -0.5552    0.0000 O   0  0  0  0  0  0  0  0  0  0  0  0
   -0.0042   -2.1286    0.0000 C   0  0  0  0  0  0  0  0  0  0  0  0
    1.3565   -2.5711    0.0000 C   0  0  0  0  0  0  0  0  0  0  0  0
    0.8056   -1.9575    0.0000 C   0  0  0  0  0  0  0  0  0  0  0  0
    0.2922   -3.5268    0.0000 C   0  0  0  0  0  0  0  0  0  0  0  0
   -0.2588   -2.9133    0.0000 C   0  0  0  0  0  0  0  0  0  0  0  0
    1.1019   -3.3557    0.0000 C   0  0  0  0  0  0  0  0  0  0  0  0
  2  1  2  0  0  0  0
  3  1  1  0  0  0  0
  4  1  1  0  0  0  0
  5  2  1  0  0  0  0
  6  7  1  0  0  0  0
  7  5  1  0  0  0  0
  8  4  1  0  0  0  0
  8  5  2  0  0  0  0
  9 18  1  0  0  0  0
 10  9  3  0  0  0  0
 11 12  1  0  0  0  0
 11 15  1  0  0  0  0
 12  3  2  0  0  0  0
 13  6  1  0  0  0  0
 14  3  1  0  0  0  0
 15 14  2  0  0  0  0
 16  6  2  0  0  0  0
 17 13  1  0  0  0  0
 18 19  1  0  0  0  0
 19 17  2  0  0  0  0
 20 21  2  0  0  0  0
 21 17  1  0  0  0  0
 22 18  2  0  0  0  0
 22 20  1  0  0  0  0
M  END
> <CdId>
3509

> <Mol Weight>
324.42

> <Formula>
C17H12N2OS2

> <Click_ID>
CLK046E04 __ __ 

$$$$
