CLK044H06
 OpenBabel03181404502D

 16 16  0  0  0  0  0  0  0  0999 V2000
   -1.3875   -1.5208    0.0000 N   0  3  0  0  0  0  0  0  0  0  0  0
   -0.6708   -1.1083    0.0000 C   0  0  0  0  0  0  0  0  0  0  0  0
   -0.6708   -0.2833    0.0000 C   0  0  0  0  0  0  0  0  0  0  0  0
    0.0417    0.9542    0.0000 C   0  0  0  0  0  0  0  0  0  0  0  0
    0.0417    0.1292    0.0000 C   0  0  0  0  0  0  0  0  0  0  0  0
    1.4708    2.6042    0.0000 C   0  0  0  0  0  0  0  0  0  0  0  0
    2.1875    3.0167    0.0000 C   0  0  0  0  0  0  0  0  0  0  0  0
   -2.1000   -1.1083    0.0000 O   0  5  0  0  0  0  0  0  0  0  0  0
   -1.3875   -2.3458    0.0000 O   0  0  0  0  0  0  0  0  0  0  0  0
    0.0417   -1.5208    0.0000 C   0  0  0  0  0  0  0  0  0  0  0  0
   -0.6708    1.3667    0.0000 O   0  0  0  0  0  0  0  0  0  0  0  0
    0.7583   -0.2833    0.0000 C   0  0  0  0  0  0  0  0  0  0  0  0
    0.7583   -1.1083    0.0000 C   0  0  0  0  0  0  0  0  0  0  0  0
    0.7583    1.3667    0.0000 N   0  0  0  0  0  0  0  0  0  0  0  0
    0.7583    2.1917    0.0000 C   0  0  0  0  0  0  0  0  0  0  0  0
    0.0417   -2.3458    0.0000 C   0  0  0  0  0  0  0  0  0  0  0  0
  2  1  1  0  0  0  0
  3  2  1  0  0  0  0
  4  5  1  0  0  0  0
  5  3  2  0  0  0  0
  5 12  1  0  0  0  0
  6 15  1  0  0  0  0
  7  6  3  0  0  0  0
  8  1  1  0  0  0  0
  9  1  2  0  0  0  0
 10  2  2  0  0  0  0
 11  4  2  0  0  0  0
 12 13  2  0  0  0  0
 13 10  1  0  0  0  0
 14  4  1  0  0  0  0
 15 14  1  0  0  0  0
 16 10  1  0  0  0  0
M  END
> <CdId>
3368

> <Mol Weight>
218.2087

> <Formula>
C11H10N2O3

> <Click_ID>
CLK044H06 __ __ 

$$$$
