CLK001_G04
 OpenBabel03181404502D

 28 30  0  0  0  0  0  0  0  0999 V2000
    1.9990    1.0305    0.0000 C   0  0  0  0  0  0  0  0  0  0  0  0
    1.5475    1.7163    0.0000 C   0  0  0  0  0  0  0  0  0  0  0  0
    1.4854    0.3826    0.0000 C   0  0  0  0  0  0  0  0  0  0  0  0
    2.8227    1.0685    0.0000 C   0  0  0  0  0  0  0  0  0  0  0  0
    0.7582    1.5061    0.0000 N   0  0  0  0  0  0  0  0  0  0  0  0
    1.9231    2.4471    0.0000 C   0  0  0  0  0  0  0  0  0  0  0  0
    0.7099    0.6790    0.0000 C   0  0  0  0  0  0  0  0  0  0  0  0
    1.6991   -0.4067    0.0000 C   0  0  0  0  0  0  0  0  0  0  0  0
    3.1984    1.8060    0.0000 C   0  0  0  0  0  0  0  0  0  0  0  0
    0.1102    2.0197    0.0000 C   0  0  0  0  0  0  0  0  0  0  0  0
    2.7469    2.4918    0.0000 C   0  0  0  0  0  0  0  0  0  0  0  0
    1.1201   -0.9926    0.0000 C   0  0  0  0  0  0  0  0  0  0  0  0
    0.2482    2.8331    0.0000 C   0  0  0  0  0  0  0  0  0  0  0  0
    0.3239   -0.7893    0.0000 C   0  0  0  0  0  0  0  0  0  0  0  0
    1.3338   -1.7922    0.0000 C   0  0  0  0  0  0  0  0  0  0  0  0
    0.4239    3.6361    0.0000 C   0  0  0  0  0  0  0  0  0  0  0  0
   -0.2620   -1.3786    0.0000 N   0  0  0  0  0  0  0  0  0  0  0  0
    0.0999    0.0069    0.0000 O   0  0  0  0  0  0  0  0  0  0  0  0
    1.5440   -2.5884    0.0000 N   0  0  0  0  0  0  0  0  0  0  0  0
   -1.0891   -1.3683    0.0000 C   0  0  0  0  0  0  0  0  0  0  0  0
   -1.4992   -2.0886    0.0000 C   0  0  0  0  0  0  0  0  0  0  0  0
   -1.4923   -0.6514    0.0000 C   0  0  0  0  0  0  0  0  0  0  0  0
   -2.3367   -2.0817    0.0000 C   0  0  0  0  0  0  0  0  0  0  0  0
   -2.3229   -0.6445    0.0000 C   0  0  0  0  0  0  0  0  0  0  0  0
   -2.7400   -1.3579    0.0000 C   0  0  0  0  0  0  0  0  0  0  0  0
   -3.5603   -1.3510    0.0000 O   0  0  0  0  0  0  0  0  0  0  0  0
   -3.9877   -2.0645    0.0000 C   0  0  0  0  0  0  0  0  0  0  0  0
   -4.8114   -2.0576    0.0000 C   0  0  0  0  0  0  0  0  0  0  0  0
  1  2  1  0  0  0  0
  1  3  1  0  0  0  0
  1  4  2  0  0  0  0
  2  5  1  0  0  0  0
  2  6  2  0  0  0  0
  3  7  2  0  0  0  0
  3  8  1  0  0  0  0
  4  9  1  0  0  0  0
  5 10  1  0  0  0  0
  5  7  1  0  0  0  0
  6 11  1  0  0  0  0
  8 12  2  0  0  0  0
  9 11  2  0  0  0  0
 10 13  1  0  0  0  0
 12 14  1  0  0  0  0
 12 15  1  0  0  0  0
 13 16  3  0  0  0  0
 14 17  1  0  0  0  0
 14 18  2  0  0  0  0
 15 19  3  0  0  0  0
 17 20  1  0  0  0  0
 20 21  2  0  0  0  0
 20 22  1  0  0  0  0
 21 23  1  0  0  0  0
 22 24  2  0  0  0  0
 23 25  2  0  0  0  0
 24 25  1  0  0  0  0
 25 26  1  0  0  0  0
 26 27  1  0  0  0  0
 27 28  1  0  0  0  0
M  END
> <CdId>
63

> <Mol Weight>
369.4159

> <Formula>
C23H19N3O2

> <Click_ID>
CLK001_G04 __ __ 

$$$$
