CLK024_G11
 OpenBabel03181404502D

 26 27  0  0  0  0  0  0  0  0999 V2000
   -2.0198   -1.9409    0.0000 N   0  0  0  0  0  0  0  0  0  0  0  0
   -1.7657   -2.7241    0.0000 C   0  0  0  0  0  0  0  0  0  0  0  0
   -1.3535   -1.4565    0.0000 C   0  0  0  0  0  0  0  0  0  0  0  0
   -0.6905   -1.9409    0.0000 C   0  0  0  0  0  0  0  0  0  0  0  0
   -0.9446   -2.7241    0.0000 S   0  0  0  0  0  0  0  0  0  0  0  0
    0.0996   -1.6901    0.0000 C   0  0  0  0  0  0  0  0  0  0  0  0
    0.2645   -0.8828    0.0000 C   0  0  0  0  0  0  0  0  0  0  0  0
   -0.1614    0.4843    0.0000 C   0  0  0  0  0  0  0  0  0  0  0  0
    0.6252    0.7282    0.0000 C   0  0  0  0  0  0  0  0  0  0  0  0
    1.2332    0.1683    0.0000 C   0  0  0  0  0  0  0  0  0  0  0  0
    1.7828    2.5935    0.0000 C   0  0  0  0  0  0  0  0  0  0  0  0
    1.9648    3.3973    0.0000 C   0  0  0  0  0  0  0  0  0  0  0  0
   -2.2569   -3.3973    0.0000 O   0  0  0  0  0  0  0  0  0  0  0  0
   -1.3638   -0.6355    0.0000 O   0  0  0  0  0  0  0  0  0  0  0  0
   -0.3435   -0.3229    0.0000 C   0  0  0  0  0  0  0  0  0  0  0  0
    1.0580   -0.6389    0.0000 C   0  0  0  0  0  0  0  0  0  0  0  0
   -2.8030   -1.6901    0.0000 C   0  0  0  0  0  0  0  0  0  0  0  0
    2.6347   -0.1168    0.0000 C   0  0  0  0  0  0  0  0  0  0  0  0
    3.4076    0.1305    0.0000 C   0  0  0  0  0  0  0  0  0  0  0  0
   -0.7661    1.0408    0.0000 O   0  0  0  0  0  0  0  0  0  0  0  0
    0.8107    1.5355    0.0000 O   0  0  0  0  0  0  0  0  0  0  0  0
    2.0164    0.4294    0.0000 C   0  0  0  0  0  0  0  0  0  0  0  0
    1.6042    1.7863    0.0000 C   0  0  0  0  0  0  0  0  0  0  0  0
   -1.5389    0.7900    0.0000 C   0  0  0  0  0  0  0  0  0  0  0  0
   -3.4110   -2.2397    0.0000 C   0  0  0  0  0  0  0  0  0  0  0  0
   -2.1435    1.3500    0.0000 C   0  0  0  0  0  0  0  0  0  0  0  0
  2  1  1  0  0  0  0
  3  1  1  0  0  0  0
  4  3  1  0  0  0  0
  4  5  1  0  0  0  0
  5  2  1  0  0  0  0
  6  4  2  0  0  0  0
  7  6  1  0  0  0  0
  8 15  1  0  0  0  0
  9 10  1  0  0  0  0
  9  8  2  0  0  0  0
 10 16  2  0  0  0  0
 11 23  1  0  0  0  0
 12 11  3  0  0  0  0
 13  2  2  0  0  0  0
 14  3  2  0  0  0  0
 15  7  2  0  0  0  0
 16  7  1  0  0  0  0
 17  1  1  0  0  0  0
 18 22  1  0  0  0  0
 19 18  2  0  0  0  0
 20  8  1  0  0  0  0
 21  9  1  0  0  0  0
 22 10  1  0  0  0  0
 23 21  1  0  0  0  0
 24 20  1  0  0  0  0
 25 17  1  0  0  0  0
 26 24  1  0  0  0  0
M  END
> <CdId>
1846

> <Mol Weight>
371.45

> <Formula>
C20H21NO4S

> <Click_ID>
CLK024_G11 __ __ 

$$$$
