CLK027_C04
 OpenBabel03181404502D

 30 32  0  0  0  0  0  0  0  0999 V2000
    2.4965    0.0035    0.0000 N   0  0  0  0  0  0  0  0  0  0  0  0
    1.7882    1.2345    0.0000 C   0  0  0  0  0  0  0  0  0  0  0  0
    1.7882    0.4126    0.0000 C   0  0  0  0  0  0  0  0  0  0  0  0
    3.2083    0.4126    0.0000 C   0  0  0  0  0  0  0  0  0  0  0  0
    3.2083    1.2345    0.0000 N   0  0  0  0  0  0  0  0  0  0  0  0
    2.4965    1.6574    0.0000 C   0  0  0  0  0  0  0  0  0  0  0  0
    2.4965   -0.8184    0.0000 C   0  0  0  0  0  0  0  0  0  0  0  0
    1.0660    1.6574    0.0000 C   0  0  0  0  0  0  0  0  0  0  0  0
    3.2083   -1.2311    0.0000 C   0  0  0  0  0  0  0  0  0  0  0  0
   -3.2186   -0.0241    0.0000 C   0  0  0  0  0  0  0  0  0  0  0  0
    3.9304   -0.0068    0.0000 O   0  0  0  0  0  0  0  0  0  0  0  0
   -3.9339   -0.4298    0.0000 C   0  0  0  0  0  0  0  0  0  0  0  0
    1.0660   -0.0068    0.0000 O   0  0  0  0  0  0  0  0  0  0  0  0
   -0.3679   -0.0103    0.0000 C   0  0  0  0  0  0  0  0  0  0  0  0
    2.4965    2.4793    0.0000 O   0  0  0  0  0  0  0  0  0  0  0  0
    0.3542    1.2345    0.0000 C   0  0  0  0  0  0  0  0  0  0  0  0
    0.3439    0.4058    0.0000 C   0  0  0  0  0  0  0  0  0  0  0  0
   -1.0763    0.4058    0.0000 C   0  0  0  0  0  0  0  0  0  0  0  0
   -1.0763    1.2208    0.0000 C   0  0  0  0  0  0  0  0  0  0  0  0
    3.2015   -2.0598    0.0000 C   0  0  0  0  0  0  0  0  0  0  0  0
   -0.3679    1.6334    0.0000 C   0  0  0  0  0  0  0  0  0  0  0  0
   -0.3679   -0.8321    0.0000 O   0  0  0  0  0  0  0  0  0  0  0  0
    1.7744   -1.2311    0.0000 C   0  0  0  0  0  0  0  0  0  0  0  0
    3.9167   -2.4759    0.0000 F   0  0  0  0  0  0  0  0  0  0  0  0
   -1.7915   -0.0206    0.0000 O   0  0  0  0  0  0  0  0  0  0  0  0
   -2.5068    0.3989    0.0000 C   0  0  0  0  0  0  0  0  0  0  0  0
    1.7744   -2.0529    0.0000 C   0  0  0  0  0  0  0  0  0  0  0  0
    2.4862   -2.4724    0.0000 C   0  0  0  0  0  0  0  0  0  0  0  0
   -1.0797   -1.2448    0.0000 C   0  0  0  0  0  0  0  0  0  0  0  0
   -1.0797   -2.0667    0.0000 C   0  0  0  0  0  0  0  0  0  0  0  0
  2  3  1  0  0  0  0
  3  1  1  0  0  0  0
  4  1  1  0  0  0  0
  5  4  1  0  0  0  0
  6  5  1  0  0  0  0
  6  2  1  0  0  0  0
  7  1  1  0  0  0  0
  8  2  2  0  0  0  0
  9  7  1  0  0  0  0
 10 26  1  0  0  0  0
 11  4  2  0  0  0  0
 12 10  3  0  0  0  0
 13  3  2  0  0  0  0
 14 17  1  0  0  0  0
 14 18  2  0  0  0  0
 15  6  2  0  0  0  0
 16  8  1  0  0  0  0
 17 16  2  0  0  0  0
 18 19  1  0  0  0  0
 19 21  2  0  0  0  0
 20  9  2  0  0  0  0
 21 16  1  0  0  0  0
 22 14  1  0  0  0  0
 23  7  2  0  0  0  0
 24 20  1  0  0  0  0
 25 18  1  0  0  0  0
 26 25  1  0  0  0  0
 27 23  1  0  0  0  0
 28 27  2  0  0  0  0
 28 20  1  0  0  0  0
 29 22  1  0  0  0  0
 30 29  1  0  0  0  0
M  END
> <CdId>
2037

> <Mol Weight>
408.3792

> <Formula>
C22H17FN2O5

> <Click_ID>
CLK027_C04 __ __ 

$$$$
