CLK046D09
 OpenBabel03181404502D

 25 27  0  0  0  0  0  0  0  0999 V2000
    1.1069    0.4120    0.0000 C    0  0  0  0  0  0  0  0  0  0  0  0
    1.1069    1.2360    0.0000 C    0  0  0  0  0  0  0  0  0  0  0  0
    0.3953    0.0000    0.0000 N    0  0  0  0  0  0  0  0  0  0  0  0
    1.8935    0.1581    0.0000 N    0  0  0  0  0  0  0  0  0  0  0  0
   -0.3204    1.2360    0.0000 N    0  0  0  0  0  0  0  0  0  0  0  0
    0.3953    1.6480    0.0000 C    0  0  0  0  0  0  0  0  0  0  0  0
    2.3763    0.8240    0.0000 N    0  0  0  0  0  0  0  0  0  0  0  0
   -0.3204    0.4120    0.0000 C    0  0  0  0  0  0  0  0  0  0  0  0
    1.8935    1.4899    0.0000 C    0  0  0  0  0  0  0  0  0  0  0  0
    2.1474   -0.6242    0.0000 C    0  0  0  0  0  0  0  0  0  0  0  0
   -4.6027    0.4120    0.0000 C    0  0  0  0  0  0  0  0  0  0  0  0
   -5.3143    0.8240    0.0000 C    0  0  0  0  0  0  0  0  0  0  0  0
    1.5938   -1.2360    0.0000 C    0  0  0  0  0  0  0  0  0  0  0  0
   -1.0320    0.0000    0.0000 S    0  0  0  0  0  0  0  0  0  0  0  0
   -2.4595    0.0000    0.0000 C    0  0  0  0  0  0  0  0  0  0  0  0
    0.3953    2.4720    0.0000 O    0  0  0  0  0  0  0  0  0  0  0  0
   -2.4595   -0.8240    0.0000 O    0  0  0  0  0  0  0  0  0  0  0  0
   -1.7479    0.4120    0.0000 C    0  0  0  0  0  0  0  0  0  0  0  0
   -3.1753    0.4120    0.0000 N    0  0  0  0  0  0  0  0  0  0  0  0
    1.8477   -2.0225    0.0000 C    0  0  0  0  0  0  0  0  0  0  0  0
    1.2984   -2.6343    0.0000 Cl   0  0  0  0  0  0  0  0  0  0  0  0
   -3.8869    0.0000    0.0000 C    0  0  0  0  0  0  0  0  0  0  0  0
    2.9506   -0.7948    0.0000 C    0  0  0  0  0  0  0  0  0  0  0  0
    3.2086   -1.5814    0.0000 C    0  0  0  0  0  0  0  0  0  0  0  0
    2.6550   -2.1931    0.0000 C    0  0  0  0  0  0  0  0  0  0  0  0
  2  1  2  0  0  0  0
  3  1  1  0  0  0  0
  4  1  1  0  0  0  0
  5  6  1  0  0  0  0
  6  2  1  0  0  0  0
  7  4  1  0  0  0  0
  8  3  2  0  0  0  0
  8  5  1  0  0  0  0
  9  2  1  0  0  0  0
  9  7  2  0  0  0  0
 10  4  1  0  0  0  0
 11 22  1  0  0  0  0
 12 11  3  0  0  0  0
 13 10  1  0  0  0  0
 14  8  1  0  0  0  0
 15 18  1  0  0  0  0
 16  6  2  0  0  0  0
 17 15  2  0  0  0  0
 18 14  1  0  0  0  0
 19 15  1  0  0  0  0
 20 13  2  0  0  0  0
 21 20  1  0  0  0  0
 22 19  1  0  0  0  0
 23 10  2  0  0  0  0
 24 23  1  0  0  0  0
 24 25  2  0  0  0  0
 25 20  1  0  0  0  0
M  END
> <CdId>
3548

> <Mol Weight>
373.817

> <Formula>
C16H12ClN5O2S

> <Click_ID>
CLK046D09 __ __ 

$$$$
