CLK011_F08
 OpenBabel03181404502D

 32 35  0  0  0  0  0  0  0  0999 V2000
    0.1924   -1.3651    0.0000 C   0  0  0  0  0  0  0  0  0  0  0  0
   -1.2368   -0.5406    0.0000 C   0  0  0  0  0  0  0  0  0  0  0  0
    0.1924   -0.5406    0.0000 N   0  0  0  0  0  0  0  0  0  0  0  0
   -0.5222   -1.7774    0.0000 N   0  0  0  0  0  0  0  0  0  0  0  0
   -0.5222   -0.1283    0.0000 C   0  0  0  0  0  0  0  0  0  0  0  0
   -1.2368   -1.3651    0.0000 C   0  0  0  0  0  0  0  0  0  0  0  0
   -1.9468   -0.1283    0.0000 C   0  0  0  0  0  0  0  0  0  0  0  0
    0.9070   -1.7774    0.0000 O   0  0  0  0  0  0  0  0  0  0  0  0
    0.9070   -0.1283    0.0000 C   0  0  0  0  0  0  0  0  0  0  0  0
   -0.5222   -2.6019    0.0000 C   0  0  0  0  0  0  0  0  0  0  0  0
   -5.5198   -3.0142    0.0000 C   0  0  0  0  0  0  0  0  0  0  0  0
   -0.5222    0.6962    0.0000 O   0  0  0  0  0  0  0  0  0  0  0  0
   -1.9468   -1.7774    0.0000 O   0  0  0  0  0  0  0  0  0  0  0  0
   -5.5198   -3.8387    0.0000 C   0  0  0  0  0  0  0  0  0  0  0  0
   -2.6614   -0.5406    0.0000 C   0  0  0  0  0  0  0  0  0  0  0  0
   -4.0906   -1.3651    0.0000 C   0  0  0  0  0  0  0  0  0  0  0  0
   -3.3760   -0.1283    0.0000 C   0  0  0  0  0  0  0  0  0  0  0  0
   -2.6614   -1.3651    0.0000 C   0  0  0  0  0  0  0  0  0  0  0  0
   -4.0906   -0.5406    0.0000 C   0  0  0  0  0  0  0  0  0  0  0  0
   -3.3760   -1.7774    0.0000 C   0  0  0  0  0  0  0  0  0  0  0  0
   -4.8052   -2.6019    0.0000 C   0  0  0  0  0  0  0  0  0  0  0  0
   -4.8052   -1.7774    0.0000 O   0  0  0  0  0  0  0  0  0  0  0  0
    1.6216   -0.5406    0.0000 C   0  0  0  0  0  0  0  0  0  0  0  0
    0.1924   -3.0142    0.0000 C   0  0  0  0  0  0  0  0  0  0  0  0
    0.9070    0.6962    0.0000 C   0  0  0  0  0  0  0  0  0  0  0  0
   -1.2368   -3.0142    0.0000 C   0  0  0  0  0  0  0  0  0  0  0  0
    2.3362   -0.1283    0.0000 C   0  0  0  0  0  0  0  0  0  0  0  0
    1.6216    1.1085    0.0000 C   0  0  0  0  0  0  0  0  0  0  0  0
   -1.2368   -3.8387    0.0000 C   0  0  0  0  0  0  0  0  0  0  0  0
    0.1924   -3.8387    0.0000 C   0  0  0  0  0  0  0  0  0  0  0  0
    2.3362    0.6962    0.0000 C   0  0  0  0  0  0  0  0  0  0  0  0
   -0.5222   -4.2510    0.0000 C   0  0  0  0  0  0  0  0  0  0  0  0
  2  6  1  0  0  0  0
  3  1  1  0  0  0  0
  4  1  1  0  0  0  0
  5  3  1  0  0  0  0
  5  2  1  0  0  0  0
  6  4  1  0  0  0  0
  7  2  2  0  0  0  0
  8  1  2  0  0  0  0
  9  3  1  0  0  0  0
 10  4  1  0  0  0  0
 11 21  1  0  0  0  0
 12  5  2  0  0  0  0
 13  6  2  0  0  0  0
 14 11  3  0  0  0  0
 15  7  1  0  0  0  0
 16 20  2  0  0  0  0
 17 15  1  0  0  0  0
 18 15  2  0  0  0  0
 19 17  2  0  0  0  0
 19 16  1  0  0  0  0
 20 18  1  0  0  0  0
 21 22  1  0  0  0  0
 22 16  1  0  0  0  0
 23  9  1  0  0  0  0
 24 10  2  0  0  0  0
 25  9  2  0  0  0  0
 26 10  1  0  0  0  0
 27 23  2  0  0  0  0
 27 31  1  0  0  0  0
 28 25  1  0  0  0  0
 29 26  2  0  0  0  0
 30 24  1  0  0  0  0
 30 32  2  0  0  0  0
 31 28  2  0  0  0  0
 32 29  1  0  0  0  0
M  END
> <CdId>
813

> <Mol Weight>
422.4321

> <Formula>
C26H18N2O4

> <Click_ID>
CLK011_F08 __ __ 

$$$$
