CLK007_H09
 OpenBabel03181404502D

 28 30  0  0  0  0  0  0  0  0999 V2000
    0.8181   -0.5316    0.0000 C   0  0  3  0  0  0  0  0  0  0  0  0
    0.1035   -0.9458    0.0000 C   0  0  0  0  0  0  0  0  0  0  0  0
    0.8181    0.2934    0.0000 C   0  0  0  0  0  0  0  0  0  0  0  0
    1.5293   -0.9355    0.0000 C   0  0  0  0  0  0  0  0  0  0  0  0
    0.1035   -1.7605    0.0000 C   0  0  0  0  0  0  0  0  0  0  0  0
   -0.6076   -0.5247    0.0000 C   0  0  0  0  0  0  0  0  0  0  0  0
    1.5293    0.7077    0.0000 C   0  0  0  0  0  0  0  0  0  0  0  0
    0.1035    0.7042    0.0000 C   0  0  0  0  0  0  0  0  0  0  0  0
    1.5293   -1.7605    0.0000 C   0  0  0  0  0  0  0  0  0  0  0  0
   -0.6076   -2.1748    0.0000 N   0  0  0  0  0  0  0  0  0  0  0  0
    0.8181   -2.1748    0.0000 N   0  0  0  0  0  0  0  0  0  0  0  0
   -1.3152   -0.9458    0.0000 N   0  0  0  0  0  0  0  0  0  0  0  0
   -0.6076    0.3037    0.0000 O   0  0  0  0  0  0  0  0  0  0  0  0
    1.5258    1.5327    0.0000 C   0  0  0  0  0  0  0  0  0  0  0  0
    0.0932    1.5189    0.0000 C   0  0  0  0  0  0  0  0  0  0  0  0
    2.2438   -2.1748    0.0000 O   0  0  0  0  0  0  0  0  0  0  0  0
   -1.3152   -1.7709    0.0000 C   0  0  0  0  0  0  0  0  0  0  0  0
    0.8147    1.9435    0.0000 C   0  0  0  0  0  0  0  0  0  0  0  0
    2.2438    1.9469    0.0000 O   0  0  0  0  0  0  0  0  0  0  0  0
   -0.6214    1.9331    0.0000 O   0  0  0  0  0  0  0  0  0  0  0  0
   -2.0367   -2.1852    0.0000 S   0  0  0  0  0  0  0  0  0  0  0  0
    0.8043    2.7685    0.0000 O   0  0  0  0  0  0  0  0  0  0  0  0
    2.2300    2.7789    0.0000 C   0  0  0  0  0  0  0  0  0  0  0  0
   -1.3360    1.5189    0.0000 C   0  0  0  0  0  0  0  0  0  0  0  0
   -2.7478   -1.7709    0.0000 C   0  0  0  0  0  0  0  0  0  0  0  0
    0.0932    3.1794    0.0000 C   0  0  0  0  0  0  0  0  0  0  0  0
   -2.7478   -0.9458    0.0000 C   0  0  0  0  0  0  0  0  0  0  0  0
   -3.4624   -0.5316    0.0000 C   0  0  0  0  0  0  0  0  0  0  0  0
  1  2  1  0  0  0  0
  1  3  1  0  0  0  0
  1  4  1  0  0  0  0
  2  5  2  0  0  0  0
  2  6  1  0  0  0  0
  3  7  2  0  0  0  0
  3  8  1  0  0  0  0
  4  9  1  0  0  0  0
  5 10  1  0  0  0  0
  5 11  1  0  0  0  0
  6 12  1  0  0  0  0
  6 13  2  0  0  0  0
  7 14  1  0  0  0  0
  8 15  2  0  0  0  0
  9 16  2  0  0  0  0
  9 11  1  0  0  0  0
 10 17  2  0  0  0  0
 12 17  1  0  0  0  0
 14 18  2  0  0  0  0
 14 19  1  0  0  0  0
 15 20  1  0  0  0  0
 15 18  1  0  0  0  0
 17 21  1  0  0  0  0
 18 22  1  0  0  0  0
 19 23  1  0  0  0  0
 20 24  1  0  0  0  0
 21 25  1  0  0  0  0
 22 26  1  0  0  0  0
 25 27  1  0  0  0  0
 27 28  3  0  0  0  0
M  END
> <CdId>
558

> <Mol Weight>
401.436

> <Formula>
C19H19N3O5S

> <Click_ID>
CLK007_H09 __ __ 

$$$$
