CLK028_B11
 OpenBabel03181404502D

 40 45  0  0  0  0  0  0  0  0999 V2000
   -1.0450    0.5878    0.0000 N   0  0  0  0  0  0  0  0  0  0  0  0
   -1.0450   -0.2475    0.0000 C   0  0  0  0  0  0  0  0  0  0  0  0
   -1.7566    0.9968    0.0000 C   0  0  3  0  0  0  0  0  0  0  0  0
    1.4609   -0.5500    0.0000 C   0  0  0  0  0  0  0  0  0  0  0  0
   -2.4682    0.5878    0.0000 C   0  0  0  0  0  0  0  0  0  0  0  0
   -0.2578    0.8353    0.0000 C   0  0  0  0  0  0  0  0  0  0  0  0
    0.2234    0.1650    0.0000 C   0  0  0  0  0  0  0  0  0  0  0  0
   -1.7566   -0.6565    0.0000 N   0  0  0  0  0  0  0  0  0  0  0  0
    1.8769   -1.8115    0.0000 N   0  0  0  0  0  0  0  0  0  0  0  0
    1.2031   -1.3338    0.0000 C   0  0  0  0  0  0  0  0  0  0  0  0
   -2.4682   -0.2475    0.0000 C   0  0  0  0  0  0  0  0  0  0  0  0
   -0.2578   -0.4985    0.0000 S   0  0  0  0  0  0  0  0  0  0  0  0
    1.0484    0.1615    0.0000 C   0  0  0  0  0  0  0  0  0  0  0  0
   -1.7566    1.8218    0.0000 C   0  0  0  0  0  0  0  0  0  0  0  0
    2.2894   -0.5500    0.0000 C   0  0  0  0  0  0  0  0  0  0  0  0
    2.5403   -1.3338    0.0000 C   0  0  0  0  0  0  0  0  0  0  0  0
   -3.1934    1.0038    0.0000 C   0  0  0  0  0  0  0  0  0  0  0  0
   -1.0450    2.2343    0.0000 C   0  0  0  0  0  0  0  0  0  0  0  0
    1.1653   -3.0457    0.0000 C   0  0  0  0  0  0  0  0  0  0  0  0
    0.4503   -3.4685    0.0000 C   0  0  0  0  0  0  0  0  0  0  0  0
   -0.0068    1.6225    0.0000 O   0  0  0  0  0  0  0  0  0  0  0  0
    1.8769   -2.6365    0.0000 C   0  0  0  0  0  0  0  0  0  0  0  0
   -3.9050    0.5913    0.0000 O   0  0  0  0  0  0  0  0  0  0  0  0
   -1.0450    3.0593    0.0000 C   0  0  0  0  0  0  0  0  0  0  0  0
   -3.1831    1.8356    0.0000 O   0  0  0  0  0  0  0  0  0  0  0  0
    0.4160   -1.5847    0.0000 C   0  0  0  0  0  0  0  0  0  0  0  0
   -3.1934   -0.6635    0.0000 C   0  0  0  0  0  0  0  0  0  0  0  0
   -2.4682    2.2343    0.0000 C   0  0  0  0  0  0  0  0  0  0  0  0
    3.3481   -1.5056    0.0000 C   0  0  0  0  0  0  0  0  0  0  0  0
    2.8394    0.0619    0.0000 C   0  0  0  0  0  0  0  0  0  0  0  0
   -0.3335    1.8218    0.0000 C   0  0  0  0  0  0  0  0  0  0  0  0
   -2.4682    3.0593    0.0000 C   0  0  0  0  0  0  0  0  0  0  0  0
   -1.7566    3.4685    0.0000 C   0  0  0  0  0  0  0  0  0  0  0  0
   -0.3335    3.4685    0.0000 C   0  0  0  0  0  0  0  0  0  0  0  0
   -3.8947    2.2481    0.0000 C   0  0  0  0  0  0  0  0  0  0  0  0
    3.6368   -0.1134    0.0000 C   0  0  0  0  0  0  0  0  0  0  0  0
    3.9016   -0.8937    0.0000 C   0  0  0  0  0  0  0  0  0  0  0  0
    0.3884    2.2343    0.0000 C   0  0  0  0  0  0  0  0  0  0  0  0
   -3.8947    3.0697    0.0000 C   0  0  0  0  0  0  0  0  0  0  0  0
    0.3884    3.0593    0.0000 C   0  0  0  0  0  0  0  0  0  0  0  0
  2  1  1  0  0  0  0
  3  1  1  0  0  0  0
  4 13  1  0  0  0  0
  5  3  1  0  0  0  0
  6  1  1  0  0  0  0
  7  6  1  0  0  0  0
  7 12  1  0  0  0  0
  8  2  2  0  0  0  0
  8 11  1  0  0  0  0
  9 10  1  0  0  0  0
 10  4  2  0  0  0  0
 11  5  2  0  0  0  0
 12  2  1  0  0  0  0
 13  7  2  0  0  0  0
 14  3  1  0  0  0  0
 15  4  1  0  0  0  0
 16 15  2  0  0  0  0
 16  9  1  0  0  0  0
 17  5  1  0  0  0  0
 18 14  1  0  0  0  0
 19 22  1  0  0  0  0
 20 19  3  0  0  0  0
 21  6  2  0  0  0  0
 22  9  1  0  0  0  0
 23 17  2  0  0  0  0
 24 18  2  0  0  0  0
 24 33  1  0  0  0  0
 25 17  1  0  0  0  0
 26 10  1  0  0  0  0
 27 11  1  0  0  0  0
 28 14  2  0  0  0  0
 29 16  1  0  0  0  0
 30 15  1  0  0  0  0
 31 18  1  0  0  0  0
 32 28  1  0  0  0  0
 33 32  2  0  0  0  0
 34 24  1  0  0  0  0
 35 25  1  0  0  0  0
 36 30  2  0  0  0  0
 37 36  1  0  0  0  0
 37 29  2  0  0  0  0
 38 31  2  0  0  0  0
 39 35  1  0  0  0  0
 40 38  1  0  0  0  0
 40 34  2  0  0  0  0
M  END
> <CdId>
2105

> <Mol Weight>
545.651

> <Formula>
C33H27N3O3S

> <Click_ID>
CLK028_B11 __ __ 

$$$$
