CLK001_A08
 OpenBabel03181404502D

 40 45  0  0  0  0  0  0  0  0999 V2000
   -2.2759    0.2053    0.0000 C   0  0  0  0  0  0  0  0  0  0  0  0
   -2.2759   -0.6203    0.0000 C   0  0  0  0  0  0  0  0  0  0  0  0
   -3.0501    0.4534    0.0000 C   0  0  0  0  0  0  0  0  0  0  0  0
   -1.5486    0.6203    0.0000 C   0  0  0  0  0  0  0  0  0  0  0  0
   -3.0501   -0.8684    0.0000 C   0  0  0  0  0  0  0  0  0  0  0  0
   -1.5486   -1.0353    0.0000 C   0  0  0  0  0  0  0  0  0  0  0  0
   -3.5207   -0.2053    0.0000 N   0  0  0  0  0  0  0  0  0  0  0  0
   -3.3283    1.2406    0.0000 O   0  0  0  0  0  0  0  0  0  0  0  0
   -0.8171    0.1882    0.0000 C   0  0  0  0  0  0  0  0  0  0  0  0
   -3.3283   -1.6727    0.0000 O   0  0  0  0  0  0  0  0  0  0  0  0
   -0.8171   -0.6161    0.0000 C   0  0  0  0  0  0  0  0  0  0  0  0
   -4.2009    0.2652    0.0000 C   0  0  0  0  0  0  0  0  0  0  0  0
   -0.0727    0.5861    0.0000 C   0  0  0  0  0  0  0  0  0  0  0  0
   -4.1025    1.0994    0.0000 C   0  0  0  0  0  0  0  0  0  0  0  0
   -4.9452   -0.0641    0.0000 C   0  0  0  0  0  0  0  0  0  0  0  0
    0.6374    0.1669    0.0000 C   0  0  0  0  0  0  0  0  0  0  0  0
   -0.0428    1.4288    0.0000 O   0  0  0  0  0  0  0  0  0  0  0  0
   -4.7869    1.5785    0.0000 C   0  0  0  0  0  0  0  0  0  0  0  0
   -5.6083    0.4150    0.0000 C   0  0  0  0  0  0  0  0  0  0  0  0
    1.3561    0.5604    0.0000 C   0  0  0  0  0  0  0  0  0  0  0  0
    0.6117   -0.6545    0.0000 C   0  0  0  0  0  0  0  0  0  0  0  0
   -5.5056    1.2448    0.0000 C   0  0  0  0  0  0  0  0  0  0  0  0
   -4.7399    2.4170    0.0000 C   0  0  0  0  0  0  0  0  0  0  0  0
    2.0491    0.1283    0.0000 C   0  0  0  0  0  0  0  0  0  0  0  0
    1.3176   -1.0737    0.0000 C   0  0  0  0  0  0  0  0  0  0  0  0
   -5.4373    2.8534    0.0000 C   0  0  0  0  0  0  0  0  0  0  0  0
    2.0363   -0.6844    0.0000 C   0  0  0  0  0  0  0  0  0  0  0  0
    2.8448    0.3764    0.0000 C   0  0  0  0  0  0  0  0  0  0  0  0
    2.8277   -0.9326    0.0000 C   0  0  0  0  0  0  0  0  0  0  0  0
    3.3026   -0.2909    0.0000 N   0  0  0  0  0  0  0  0  0  0  0  0
    3.1015    1.1765    0.0000 O   0  0  0  0  0  0  0  0  0  0  0  0
    3.1015   -1.7197    0.0000 O   0  0  0  0  0  0  0  0  0  0  0  0
    4.0469   -0.6545    0.0000 C   0  0  0  0  0  0  0  0  0  0  0  0
    4.7314   -0.1840    0.0000 C   0  0  0  0  0  0  0  0  0  0  0  0
    4.1111   -1.4845    0.0000 C   0  0  0  0  0  0  0  0  0  0  0  0
    5.4586   -0.5390    0.0000 C   0  0  0  0  0  0  0  0  0  0  0  0
    4.8596   -1.8310    0.0000 C   0  0  0  0  0  0  0  0  0  0  0  0
    5.5356   -1.3604    0.0000 C   0  0  0  0  0  0  0  0  0  0  0  0
    6.1602   -0.0641    0.0000 C   0  0  0  0  0  0  0  0  0  0  0  0
    6.9216   -0.4534    0.0000 C   0  0  0  0  0  0  0  0  0  0  0  0
  1  2  1  0  0  0  0
  1  3  1  0  0  0  0
  1  4  2  0  0  0  0
  2  5  1  0  0  0  0
  2  6  2  0  0  0  0
  3  7  1  0  0  0  0
  3  8  2  0  0  0  0
  4  9  1  0  0  0  0
  5 10  2  0  0  0  0
  5  7  1  0  0  0  0
  6 11  1  0  0  0  0
  7 12  1  0  0  0  0
  9 13  1  0  0  0  0
  9 11  2  0  0  0  0
 12 14  2  0  0  0  0
 12 15  1  0  0  0  0
 13 16  1  0  0  0  0
 13 17  2  0  0  0  0
 14 18  1  0  0  0  0
 15 19  2  0  0  0  0
 16 20  1  0  0  0  0
 16 21  2  0  0  0  0
 18 22  2  0  0  0  0
 18 23  1  0  0  0  0
 19 22  1  0  0  0  0
 20 24  2  0  0  0  0
 21 25  1  0  0  0  0
 23 26  3  0  0  0  0
 24 27  1  0  0  0  0
 24 28  1  0  0  0  0
 25 27  2  0  0  0  0
 27 29  1  0  0  0  0
 28 30  1  0  0  0  0
 28 31  2  0  0  0  0
 29 32  2  0  0  0  0
 29 30  1  0  0  0  0
 30 33  1  0  0  0  0
 33 34  1  0  0  0  0
 33 35  2  0  0  0  0
 34 36  2  0  0  0  0
 35 37  1  0  0  0  0
 36 38  1  0  0  0  0
 36 39  1  0  0  0  0
 37 38  2  0  0  0  0
 39 40  3  0  0  0  0
M  END
> <CdId>
7

> <Mol Weight>
520.4905

> <Formula>
C33H16N2O5

> <Click_ID>
CLK001_A08 __ __ 

$$$$
