CLK050B03
 OpenBabel03181404502D

 19 20  0  0  0  0  0  0  0  0999 V2000
   -0.0417   -0.2792    0.0000 C    0  0  0  0  0  0  0  0  0  0  0  0
   -2.1833    2.6083    0.0000 C    0  0  0  0  0  0  0  0  0  0  0  0
   -0.0417   -1.1042    0.0000 N    0  0  0  0  0  0  0  0  0  0  0  0
   -0.7542    0.1333    0.0000 N    0  0  0  0  0  0  0  0  0  0  0  0
   -2.8958    3.0208    0.0000 C    0  0  0  0  0  0  0  0  0  0  0  0
    0.6750    0.1333    0.0000 O    0  0  0  0  0  0  0  0  0  0  0  0
    0.6750   -1.5167    0.0000 C    0  0  0  0  0  0  0  0  0  0  0  0
    0.6750   -2.3417    0.0000 C    0  0  0  0  0  0  0  0  0  0  0  0
   -0.7542    0.9583    0.0000 C    0  0  0  0  0  0  0  0  0  0  0  0
   -1.4667    2.1958    0.0000 C    0  0  0  0  0  0  0  0  0  0  0  0
   -1.4667    1.3708    0.0000 C    0  0  0  0  0  0  0  0  0  0  0  0
    1.3875   -2.7542    0.0000 C    0  0  0  0  0  0  0  0  0  0  0  0
    1.3875   -3.5792    0.0000 Cl   0  0  0  0  0  0  0  0  0  0  0  0
   -0.0417    2.1958    0.0000 C    0  0  0  0  0  0  0  0  0  0  0  0
    2.1042   -1.5167    0.0000 C    0  0  0  0  0  0  0  0  0  0  0  0
    1.3875   -1.1042    0.0000 C    0  0  0  0  0  0  0  0  0  0  0  0
   -0.0417    1.3708    0.0000 C    0  0  0  0  0  0  0  0  0  0  0  0
   -0.7542    2.6083    0.0000 C    0  0  0  0  0  0  0  0  0  0  0  0
    2.1042   -2.3417    0.0000 C    0  0  0  0  0  0  0  0  0  0  0  0
  2 10  1  0  0  0  0
  3  1  1  0  0  0  0
  4  1  1  0  0  0  0
  5  2  3  0  0  0  0
  6  1  2  0  0  0  0
  7  3  1  0  0  0  0
  8  7  1  0  0  0  0
  9  4  1  0  0  0  0
 10 11  1  0  0  0  0
 11  9  2  0  0  0  0
 12  8  2  0  0  0  0
 13 12  1  0  0  0  0
 14 17  2  0  0  0  0
 15 16  1  0  0  0  0
 15 19  2  0  0  0  0
 16  7  2  0  0  0  0
 17  9  1  0  0  0  0
 18 10  2  0  0  0  0
 18 14  1  0  0  0  0
 19 12  1  0  0  0  0
M  END
> <CdId>
3818

> <Mol Weight>
270.714

> <Formula>
C15H11ClN2O

> <Click_ID>
CLK050B03 __ __ 

$$$$
