CLK043B04
 OpenBabel03181404502D

 30 33  0  0  0  0  0  0  0  0999 V2000
    2.9500    1.1458    0.0000 S   0  0  0  0  0  0  0  0  0  0  0  0
   -0.5167   -1.3708    0.0000 C   0  0  0  0  0  0  0  0  0  0  0  0
   -1.0667   -0.7583    0.0000 N   0  0  0  0  0  0  0  0  0  0  0  0
    0.3042   -1.2875    0.0000 N   0  0  0  0  0  0  0  0  0  0  0  0
   -1.8208   -1.0958    0.0000 C   0  0  0  0  0  0  0  0  0  0  0  0
    0.6375   -0.5333    0.0000 C   0  0  0  0  0  0  0  0  0  0  0  0
   -0.9292   -2.0875    0.0000 S   0  0  0  0  0  0  0  0  0  0  0  0
   -1.7375   -1.9167    0.0000 C   0  0  0  0  0  0  0  0  0  0  0  0
    2.6167    0.3917    0.0000 C   0  0  0  0  0  0  0  0  0  0  0  0
   -2.5375   -0.6833    0.0000 C   0  0  0  0  0  0  0  0  0  0  0  0
    1.4583   -0.4458    0.0000 C   0  0  0  0  0  0  0  0  0  0  0  0
    4.4417    2.7417    0.0000 C   0  0  0  0  0  0  0  0  0  0  0  0
    1.7958    0.3083    0.0000 C   0  0  0  0  0  0  0  0  0  0  0  0
   -3.2500   -1.0958    0.0000 C   0  0  0  0  0  0  0  0  0  0  0  0
    4.7792    3.4958    0.0000 C   0  0  0  0  0  0  0  0  0  0  0  0
    2.1958    1.4833    0.0000 O   0  0  0  0  0  0  0  0  0  0  0  0
    3.7042    0.8125    0.0000 O   0  0  0  0  0  0  0  0  0  0  0  0
   -3.9667   -0.6833    0.0000 C   0  0  0  0  0  0  0  0  0  0  0  0
    3.2875    1.9000    0.0000 N   0  0  0  0  0  0  0  0  0  0  0  0
    0.1542    0.1333    0.0000 O   0  0  0  0  0  0  0  0  0  0  0  0
   -3.9667    0.1417    0.0000 C   0  0  0  0  0  0  0  0  0  0  0  0
   -2.5375    0.1417    0.0000 C   0  0  0  0  0  0  0  0  0  0  0  0
   -3.2500    0.5542    0.0000 C   0  0  0  0  0  0  0  0  0  0  0  0
    4.1083    1.9875    0.0000 C   0  0  0  0  0  0  0  0  0  0  0  0
    3.1000   -0.2750    0.0000 C   0  0  0  0  0  0  0  0  0  0  0  0
    1.9458   -1.1125    0.0000 C   0  0  0  0  0  0  0  0  0  0  0  0
   -4.7500   -0.9375    0.0000 C   0  0  0  0  0  0  0  0  0  0  0  0
    2.7667   -1.0292    0.0000 C   0  0  0  0  0  0  0  0  0  0  0  0
   -5.2333   -0.2708    0.0000 C   0  0  0  0  0  0  0  0  0  0  0  0
   -4.7500    0.3958    0.0000 C   0  0  0  0  0  0  0  0  0  0  0  0
  2  4  1  0  0  0  0
  3  2  2  0  0  0  0
  4  6  1  0  0  0  0
  5  3  1  0  0  0  0
  6 11  1  0  0  0  0
  7  2  1  0  0  0  0
  8  7  1  0  0  0  0
  8  5  2  0  0  0  0
  9  1  1  0  0  0  0
 10  5  1  0  0  0  0
 11 13  2  0  0  0  0
 12 24  1  0  0  0  0
 13  9  1  0  0  0  0
 14 10  2  0  0  0  0
 15 12  3  0  0  0  0
 16  1  2  0  0  0  0
 17  1  2  0  0  0  0
 18 14  1  0  0  0  0
 19  1  1  0  0  0  0
 20  6  2  0  0  0  0
 21 18  2  0  0  0  0
 21 23  1  0  0  0  0
 22 10  1  0  0  0  0
 23 22  2  0  0  0  0
 24 19  1  0  0  0  0
 25  9  2  0  0  0  0
 26 11  1  0  0  0  0
 27 18  1  0  0  0  0
 28 25  1  0  0  0  0
 28 26  2  0  0  0  0
 29 27  1  0  0  0  0
 29 30  1  0  0  0  0
 30 21  1  0  0  0  0
M  END
> <CdId>
3266

> <Mol Weight>
437.535

> <Formula>
C22H19N3O3S2

> <Click_ID>
CLK043B04 __ __ 

$$$$
