CLK047A02
 OpenBabel03181404502D

 12 12  0  0  0  0  0  0  0  0999 V2000
    0.5212   -0.0167    0.0000 C   0  0  0  0  0  0  0  0  0  0  0  0
    1.2802   -0.3378    0.0000 S   0  0  0  0  0  0  0  0  0  0  0  0
   -0.1876   -0.4378    0.0000 C   0  0  0  0  0  0  0  0  0  0  0  0
    0.5963    0.8089    0.0000 C   0  0  0  0  0  0  0  0  0  0  0  0
    1.8222    0.2835    0.0000 C   0  0  0  0  0  0  0  0  0  0  0  0
   -2.3393   -0.0583    0.0000 C   0  0  0  0  0  0  0  0  0  0  0  0
   -3.0607    0.3461    0.0000 C   0  0  0  0  0  0  0  0  0  0  0  0
    1.4011    0.9925    0.0000 C   0  0  0  0  0  0  0  0  0  0  0  0
   -0.1751   -1.2635    0.0000 O   0  0  0  0  0  0  0  0  0  0  0  0
   -0.9090   -0.0375    0.0000 N   0  0  0  0  0  0  0  0  0  0  0  0
   -1.6180   -0.4587    0.0000 C   0  0  0  0  0  0  0  0  0  0  0  0
    2.6438    0.2085    0.0000 C   0  0  0  0  0  0  0  0  0  0  0  0
  2  1  1  0  0  0  0
  3  1  1  0  0  0  0
  4  1  2  0  0  0  0
  5  2  1  0  0  0  0
  6 11  1  0  0  0  0
  7  6  3  0  0  0  0
  8  4  1  0  0  0  0
  8  5  2  0  0  0  0
  9  3  2  0  0  0  0
 10  3  1  0  0  0  0
 11 10  1  0  0  0  0
 12  5  1  0  0  0  0
M  END
> <CdId>
3569

> <Mol Weight>
179.239

> <Formula>
C9H9NOS

> <Click_ID>
CLK047A02 __ __ 

$$$$
