CLK006_G10
 OpenBabel03181404502D

 26 27  0  0  0  0  0  0  0  0999 V2000
   -1.2324   -1.6478    0.0000 N   0  0  0  0  0  0  0  0  0  0  0  0
   -0.5643   -1.1666    0.0000 C   0  0  0  0  0  0  0  0  0  0  0  0
   -0.9797   -2.4371    0.0000 C   0  0  0  0  0  0  0  0  0  0  0  0
   -2.0182   -1.3951    0.0000 C   0  0  0  0  0  0  0  0  0  0  0  0
    0.1038   -1.6478    0.0000 C   0  0  0  0  0  0  0  0  0  0  0  0
   -0.5643   -0.3358    0.0000 O   0  0  0  0  0  0  0  0  0  0  0  0
   -0.1523   -2.4371    0.0000 N   0  0  0  0  0  0  0  0  0  0  0  0
   -1.4643   -3.1087    0.0000 O   0  0  0  0  0  0  0  0  0  0  0  0
   -2.1913   -0.5885    0.0000 C   0  0  0  0  0  0  0  0  0  0  0  0
    0.8932   -1.3951    0.0000 C   0  0  0  0  0  0  0  0  0  0  0  0
   -1.5785   -0.0346    0.0000 O   0  0  0  0  0  0  0  0  0  0  0  0
   -2.9840   -0.3289    0.0000 O   0  0  0  0  0  0  0  0  0  0  0  0
    1.0663   -0.5885    0.0000 C   0  0  0  0  0  0  0  0  0  0  0  0
   -1.7551    0.7754    0.0000 C   0  0  0  0  0  0  0  0  0  0  0  0
    0.4535   -0.0416    0.0000 C   0  0  0  0  0  0  0  0  0  0  0  0
    1.8347   -0.3358    0.0000 C   0  0  0  0  0  0  0  0  0  0  0  0
    0.6196    0.7754    0.0000 C   0  0  0  0  0  0  0  0  0  0  0  0
    2.0112    0.4742    0.0000 C   0  0  0  0  0  0  0  0  0  0  0  0
    1.3951    1.0178    0.0000 C   0  0  0  0  0  0  0  0  0  0  0  0
    0.0173    1.3120    0.0000 O   0  0  0  0  0  0  0  0  0  0  0  0
    1.5855    1.8243    0.0000 O   0  0  0  0  0  0  0  0  0  0  0  0
   -0.7616    1.0593    0.0000 C   0  0  0  0  0  0  0  0  0  0  0  0
    2.3609    2.0736    0.0000 C   0  0  0  0  0  0  0  0  0  0  0  0
   -1.3674    1.6132    0.0000 C   0  0  0  0  0  0  0  0  0  0  0  0
    2.5478    2.8802    0.0000 C   0  0  0  0  0  0  0  0  0  0  0  0
    2.7278    3.6833    0.0000 C   0  0  0  0  0  0  0  0  0  0  0  0
  1  2  1  0  0  0  0
  1  3  1  0  0  0  0
  1  4  1  0  0  0  0
  2  5  1  0  0  0  0
  2  6  2  0  0  0  0
  3  7  1  0  0  0  0
  3  8  2  0  0  0  0
  4  9  1  0  0  0  0
  5 10  2  0  0  0  0
  5  7  1  0  0  0  0
  9 11  1  0  0  0  0
  9 12  2  0  0  0  0
 10 13  1  0  0  0  0
 11 14  1  0  0  0  0
 13 15  2  0  0  0  0
 13 16  1  0  0  0  0
 15 17  1  0  0  0  0
 16 18  2  0  0  0  0
 17 19  2  0  0  0  0
 17 20  1  0  0  0  0
 18 19  1  0  0  0  0
 19 21  1  0  0  0  0
 20 22  1  0  0  0  0
 21 23  1  0  0  0  0
 22 24  1  0  0  0  0
 23 25  1  0  0  0  0
 25 26  3  0  0  0  0
M  END
> <CdId>
469

> <Mol Weight>
358.3453

> <Formula>
C18H18N2O6

> <Click_ID>
CLK006_G10 __ __ 

$$$$
