CLK010_A02
 OpenBabel03181404502D

 23 25  0  0  0  0  0  0  0  0999 V2000
   -0.2940   -0.4850    0.0000 N   0  0  0  0  0  0  0  0  0  0  0  0
    0.5194   -0.4583    0.0000 C   0  0  0  0  0  0  0  0  0  0  0  0
   -0.5957    0.2750    0.0000 C   0  0  0  0  0  0  0  0  0  0  0  0
    0.7676    0.3169    0.0000 C   0  0  0  0  0  0  0  0  0  0  0  0
    0.0726    0.7905    0.0000 C   0  0  0  0  0  0  0  0  0  0  0  0
   -0.7447   -1.1800    0.0000 C   0  0  0  0  0  0  0  0  0  0  0  0
   -1.5542   -1.1266    0.0000 C   0  0  0  0  0  0  0  0  0  0  0  0
   -4.3725   -0.2444    0.0000 C   0  0  0  0  0  0  0  0  0  0  0  0
   -4.7276    0.5002    0.0000 C   0  0  0  0  0  0  0  0  0  0  0  0
   -1.9896   -1.8025    0.0000 N   0  0  0  0  0  0  0  0  0  0  0  0
   -1.3480    0.4888    0.0000 O   0  0  0  0  0  0  0  0  0  0  0  0
    0.9967   -1.1266    0.0000 O   0  0  0  0  0  0  0  0  0  0  0  0
   -1.9094   -0.4124    0.0000 O   0  0  0  0  0  0  0  0  0  0  0  0
   -2.8068   -1.7567    0.0000 C   0  0  0  0  0  0  0  0  0  0  0  0
   -3.9868   -1.0082    0.0000 C   0  0  0  0  0  0  0  0  0  0  0  0
   -3.1620   -1.0235    0.0000 C   0  0  0  0  0  0  0  0  0  0  0  0
    0.1528    1.5886    0.0000 C   0  0  0  0  0  0  0  0  0  0  0  0
    1.5161    0.6874    0.0000 C   0  0  0  0  0  0  0  0  0  0  0  0
   -4.0861   -2.4287    0.0000 C   0  0  0  0  0  0  0  0  0  0  0  0
   -3.2651   -2.4746    0.0000 C   0  0  0  0  0  0  0  0  0  0  0  0
   -4.4451   -1.6765    0.0000 C   0  0  0  0  0  0  0  0  0  0  0  0
    1.5734    1.5237    0.0000 C   0  0  0  0  0  0  0  0  0  0  0  0
    0.8974    1.9705    0.0000 C   0  0  0  0  0  0  0  0  0  0  0  0
  2  1  1  0  0  0  0
  3  1  1  0  0  0  0
  4  2  1  0  0  0  0
  5  3  1  0  0  0  0
  5  4  1  0  0  0  0
  6  1  1  0  0  0  0
  7  6  1  0  0  0  0
  8 15  1  0  0  0  0
  9  8  3  0  0  0  0
 10  7  1  0  0  0  0
 11  3  2  0  0  0  0
 12  2  2  0  0  0  0
 13  7  2  0  0  0  0
 14 10  1  0  0  0  0
 15 16  1  0  0  0  0
 15 21  2  0  0  0  0
 16 14  2  0  0  0  0
 17  5  2  0  0  0  0
 18  4  2  0  0  0  0
 19 20  2  0  0  0  0
 20 14  1  0  0  0  0
 21 19  1  0  0  0  0
 22 18  1  0  0  0  0
 23 17  1  0  0  0  0
 23 22  2  0  0  0  0
M  END
> <CdId>
677

> <Mol Weight>
304.2995

> <Formula>
C18H12N2O3

> <Click_ID>
CLK010_A02 __ __ 

$$$$
