CLK034_H03
 OpenBabel03181404502D

 27 30  0  0  0  0  0  0  0  0999 V2000
   -4.5627    2.5385    0.0000 C   0  0  0  0  0  0  0  0  0  0  0  0
   -3.8534    2.9575    0.0000 N   0  0  0  0  0  0  0  0  0  0  0  0
   -4.6623    1.7255    0.0000 N   0  0  0  0  0  0  0  0  0  0  0  0
   -3.1441    4.1936    0.0000 C   0  0  0  0  0  0  0  0  0  0  0  0
   -3.0570    5.0190    0.0000 N   0  0  0  0  0  0  0  0  0  0  0  0
   -5.2969    2.8828    0.0000 S   0  0  0  0  0  0  0  0  0  0  0  0
   -5.4628    1.5679    0.0000 C   0  0  0  0  0  0  0  0  0  0  0  0
   -3.8534    3.7829    0.0000 C   0  0  0  0  0  0  0  0  0  0  0  0
   -2.4099    3.8783    0.0000 S   0  0  0  0  0  0  0  0  0  0  0  0
   -5.8693    2.2855    0.0000 C   0  0  0  0  0  0  0  0  0  0  0  0
   -2.2399    5.1808    0.0000 C   0  0  0  0  0  0  0  0  0  0  0  0
   -1.8500    4.4466    0.0000 C   0  0  0  0  0  0  0  0  0  0  0  0
   -4.2309    0.3484    0.0000 C   0  0  0  0  0  0  0  0  0  0  0  0
   -4.4134   -0.4604    0.0000 C   0  0  0  0  0  0  0  0  0  0  0  0
   -5.8859    0.8669    0.0000 C   0  0  0  0  0  0  0  0  0  0  0  0
   -4.5752    4.1853    0.0000 O   0  0  0  0  0  0  0  0  0  0  0  0
   -4.0442    1.1531    0.0000 C   0  0  0  0  0  0  0  0  0  0  0  0
   -6.6741    2.3021    0.0000 C   0  0  0  0  0  0  0  0  0  0  0  0
   -5.4960    0.1369    0.0000 O   0  0  0  0  0  0  0  0  0  0  0  0
   -7.1096    1.6011    0.0000 C   0  0  0  0  0  0  0  0  0  0  0  0
   -1.8251    5.8901    0.0000 C   0  0  0  0  0  0  0  0  0  0  0  0
   -1.0162    4.4466    0.0000 C   0  0  0  0  0  0  0  0  0  0  0  0
   -6.6990    0.8793    0.0000 C   0  0  0  0  0  0  0  0  0  0  0  0
   -5.9191   -0.5642    0.0000 C   0  0  0  0  0  0  0  0  0  0  0  0
   -5.5375   -1.2735    0.0000 C   0  0  0  0  0  0  0  0  0  0  0  0
   -0.5931    5.1435    0.0000 C   0  0  0  0  0  0  0  0  0  0  0  0
   -0.9955    5.8777    0.0000 C   0  0  0  0  0  0  0  0  0  0  0  0
  2  1  2  0  0  0  0
  3  1  1  0  0  0  0
  4  8  1  0  0  0  0
  5  4  2  0  0  0  0
  6  1  1  0  0  0  0
  7  3  1  0  0  0  0
  8  2  1  0  0  0  0
  9  4  1  0  0  0  0
 10  6  1  0  0  0  0
 10  7  2  0  0  0  0
 11  5  1  0  0  0  0
 11 12  2  0  0  0  0
 12  9  1  0  0  0  0
 13 17  1  0  0  0  0
 14 13  3  0  0  0  0
 15  7  1  0  0  0  0
 16  8  2  0  0  0  0
 17  3  1  0  0  0  0
 18 10  1  0  0  0  0
 19 15  1  0  0  0  0
 20 18  2  0  0  0  0
 21 11  1  0  0  0  0
 22 12  1  0  0  0  0
 23 15  2  0  0  0  0
 23 20  1  0  0  0  0
 24 19  1  0  0  0  0
 25 24  1  0  0  0  0
 26 22  2  0  0  0  0
 27 21  2  0  0  0  0
 27 26  1  0  0  0  0
M  END
> <CdId>
2637

> <Mol Weight>
393.482

> <Formula>
C20H15N3O2S2

> <Click_ID>
CLK034_H03 __ __ 

$$$$
