CLK002_B02
 OpenBabel03181404502D

 14 15  0  0  0  0  0  0  0  0999 V2000
    0.1376    0.2443    0.0000 C   0  0  0  0  0  0  0  0  0  0  0  0
    0.3855   -0.5404    0.0000 C   0  0  0  0  0  0  0  0  0  0  0  0
   -0.6849    0.2547    0.0000 N   0  0  0  0  0  0  0  0  0  0  0  0
    0.6953    0.8570    0.0000 C   0  0  0  0  0  0  0  0  0  0  0  0
   -0.2857   -1.0188    0.0000 C   0  0  0  0  0  0  0  0  0  0  0  0
    1.1977   -0.7193    0.0000 C   0  0  0  0  0  0  0  0  0  0  0  0
   -0.9465   -0.5335    0.0000 C   0  0  0  0  0  0  0  0  0  0  0  0
   -1.1737    0.9259    0.0000 C   0  0  0  0  0  0  0  0  0  0  0  0
    1.4938    0.6815    0.0000 C   0  0  0  0  0  0  0  0  0  0  0  0
   -0.2857   -1.8517    0.0000 C   0  0  0  0  0  0  0  0  0  0  0  0
    1.7484   -0.1032    0.0000 C   0  0  0  0  0  0  0  0  0  0  0  0
   -0.8260    1.6761    0.0000 C   0  0  0  0  0  0  0  0  0  0  0  0
   -0.9981   -2.2647    0.0000 O   0  0  0  0  0  0  0  0  0  0  0  0
   -0.4475    2.3955    0.0000 C   0  0  0  0  0  0  0  0  0  0  0  0
  1  2  1  0  0  0  0
  1  3  1  0  0  0  0
  1  4  2  0  0  0  0
  2  5  1  0  0  0  0
  2  6  2  0  0  0  0
  3  7  1  0  0  0  0
  3  8  1  0  0  0  0
  4  9  1  0  0  0  0
  5 10  1  0  0  0  0
  5  7  2  0  0  0  0
  6 11  1  0  0  0  0
  8 12  1  0  0  0  0
  9 11  2  0  0  0  0
 10 13  2  0  0  0  0
 12 14  3  0  0  0  0
M  END
> <CdId>
91

> <Mol Weight>
183.206

> <Formula>
C12H9NO

> <Click_ID>
CLK002_B02 __ __ 

$$$$
