CLK009_B03
 OpenBabel03181404502D

 34 35  0  0  0  0  0  0  0  0999 V2000
   -4.5894    0.3046    0.0000 C   0  0  0  0  0  0  0  0  0  0  0  0
    0.5964   -0.1185    0.0000 C   0  0  0  0  0  0  0  0  0  0  0  0
   -3.1090    0.3046    0.0000 N   0  0  0  0  0  0  0  0  0  0  0  0
   -0.8967   -0.1185    0.0000 N   0  0  0  0  0  0  0  0  0  0  0  0
   -5.3296   -0.1185    0.0000 C   0  0  0  0  0  0  0  0  0  0  0  0
    1.3494    0.3046    0.0000 C   0  0  0  0  0  0  0  0  0  0  0  0
    0.7487    2.1826    0.0000 C   0  0  0  0  0  0  0  0  0  0  0  0
   -4.4287   -2.1615    0.0000 C   0  0  0  0  0  0  0  0  0  0  0  0
   -3.8534   -0.1185    0.0000 C   0  0  3  0  0  0  0  0  0  0  0  0
   -0.1480    0.3046    0.0000 C   0  0  3  0  0  0  0  0  0  0  0  0
   -3.0793    0.9982    0.0000 C   0  0  0  0  0  0  0  0  0  0  0  0
   -0.8967   -0.8672    0.0000 C   0  0  0  0  0  0  0  0  0  0  0  0
   -2.3687   -0.1185    0.0000 C   0  0  0  0  0  0  0  0  0  0  0  0
   -1.6370    0.3046    0.0000 C   0  0  0  0  0  0  0  0  0  0  0  0
    0.6472    1.3705    0.0000 O   0  0  0  0  0  0  0  0  0  0  0  0
   -4.5132   -1.3494    0.0000 O   0  0  0  0  0  0  0  0  0  0  0  0
    0.1058    2.6902    0.0000 O   0  0  0  0  0  0  0  0  0  0  0  0
   -3.7011   -2.5041    0.0000 O   0  0  0  0  0  0  0  0  0  0  0  0
   -3.8534   -0.8672    0.0000 C   0  0  0  0  0  0  0  0  0  0  0  0
   -0.1480    1.0490    0.0000 C   0  0  0  0  0  0  0  0  0  0  0  0
   -3.7688    1.4212    0.0000 C   0  0  0  0  0  0  0  0  0  0  0  0
   -0.1861   -1.2732    0.0000 C   0  0  0  0  0  0  0  0  0  0  0  0
    1.5016    2.5210    0.0000 C   0  0  0  0  0  0  0  0  0  0  0  0
   -5.0759   -2.6564    0.0000 C   0  0  0  0  0  0  0  0  0  0  0  0
   -3.7519    2.2461    0.0000 C   0  0  0  0  0  0  0  0  0  0  0  0
    0.5118   -0.8629    0.0000 C   0  0  0  0  0  0  0  0  0  0  0  0
   -4.4794    1.0363    0.0000 C   0  0  0  0  0  0  0  0  0  0  0  0
   -0.1861   -2.0981    0.0000 C   0  0  0  0  0  0  0  0  0  0  0  0
   -5.1901    1.4677    0.0000 C   0  0  0  0  0  0  0  0  0  0  0  0
   -4.4371    2.6732    0.0000 C   0  0  0  0  0  0  0  0  0  0  0  0
    1.2478   -1.2732    0.0000 C   0  0  0  0  0  0  0  0  0  0  0  0
    0.5457   -2.5041    0.0000 C   0  0  0  0  0  0  0  0  0  0  0  0
   -5.1731    2.2799    0.0000 C   0  0  0  0  0  0  0  0  0  0  0  0
    1.2563   -2.0811    0.0000 C   0  0  0  0  0  0  0  0  0  0  0  0
  2 10  1  0  0  0  0
  3  9  1  0  0  0  0
  4 14  1  0  0  0  0
  5  1  3  0  0  0  0
  6  2  3  0  0  0  0
  7 15  1  0  0  0  0
  8 16  1  0  0  0  0
  9  1  1  0  0  0  0
 10  4  1  0  0  0  0
 11  3  1  0  0  0  0
 12  4  1  0  0  0  0
 13  3  1  0  0  0  0
 14 13  1  0  0  0  0
 15 20  1  0  0  0  0
 16 19  1  0  0  0  0
 17  7  2  0  0  0  0
 18  8  2  0  0  0  0
 19  9  1  0  0  0  0
 20 10  1  0  0  0  0
 21 11  1  0  0  0  0
 22 12  1  0  0  0  0
 23  7  1  0  0  0  0
 24  8  1  0  0  0  0
 25 21  2  0  0  0  0
 26 22  1  0  0  0  0
 27 21  1  0  0  0  0
 28 22  2  0  0  0  0
 29 27  2  0  0  0  0
 30 25  1  0  0  0  0
 31 26  2  0  0  0  0
 32 28  1  0  0  0  0
 33 29  1  0  0  0  0
 33 30  2  0  0  0  0
 34 32  2  0  0  0  0
 34 31  1  0  0  0  0
M  END
> <CdId>
608

> <Mol Weight>
460.5647

> <Formula>
C28H32N2O4

> <Click_ID>
CLK009_B03 __ __ 

$$$$
