CLK027_E08
 OpenBabel03181404502D

 25 27  0  0  0  0  0  0  0  0999 V2000
    0.5280   -2.1187    0.0000 C   0  0  0  0  0  0  0  0  0  0  0  0
    0.0411   -2.7975    0.0000 N   0  0  0  0  0  0  0  0  0  0  0  0
    1.3541   -2.1187    0.0000 C   0  0  0  0  0  0  0  0  0  0  0  0
    0.0446   -1.4467    0.0000 N   0  0  0  0  0  0  0  0  0  0  0  0
    1.7690   -1.4056    0.0000 C   0  0  0  0  0  0  0  0  0  0  0  0
    0.5280    0.7097    0.0000 C   0  0  0  0  0  0  0  0  0  0  0  0
   -0.7576   -2.5369    0.0000 C   0  0  0  0  0  0  0  0  0  0  0  0
    1.7690   -2.8386    0.0000 C   0  0  0  0  0  0  0  0  0  0  0  0
    1.3473    0.7097    0.0000 C   0  0  0  0  0  0  0  0  0  0  0  0
    0.1200    0.0068    0.0000 C   0  0  0  0  0  0  0  0  0  0  0  0
   -0.7576   -1.7073    0.0000 C   0  0  0  0  0  0  0  0  0  0  0  0
    1.3541   -0.6959    0.0000 C   0  0  0  0  0  0  0  0  0  0  0  0
    2.1804   -3.5483    0.0000 N   0  0  0  0  0  0  0  0  0  0  0  0
    0.1302    2.8454    0.0000 C   0  0  0  0  0  0  0  0  0  0  0  0
   -0.2742    3.5483    0.0000 C   0  0  0  0  0  0  0  0  0  0  0  0
    0.5280   -0.6959    0.0000 C   0  0  0  0  0  0  0  0  0  0  0  0
    1.7450    0.0035    0.0000 C   0  0  0  0  0  0  0  0  0  0  0  0
    1.7450    1.4193    0.0000 I   0  0  0  0  0  0  0  0  0  0  0  0
   -0.6959    0.0171    0.0000 I   0  0  0  0  0  0  0  0  0  0  0  0
    0.1200    1.4193    0.0000 O   0  0  0  0  0  0  0  0  0  0  0  0
    0.5416    2.1324    0.0000 C   0  0  0  0  0  0  0  0  0  0  0  0
   -1.4707   -2.9517    0.0000 C   0  0  0  0  0  0  0  0  0  0  0  0
   -1.4707   -1.2924    0.0000 C   0  0  0  0  0  0  0  0  0  0  0  0
   -2.1838   -2.5369    0.0000 C   0  0  0  0  0  0  0  0  0  0  0  0
   -2.1838   -1.7073    0.0000 C   0  0  0  0  0  0  0  0  0  0  0  0
  2  1  2  0  0  0  0
  3  1  1  0  0  0  0
  4  1  1  0  0  0  0
  5  3  2  0  0  0  0
  6  9  1  0  0  0  0
  7  2  1  0  0  0  0
  8  3  1  0  0  0  0
  9 17  2  0  0  0  0
 10 16  1  0  0  0  0
 10  6  2  0  0  0  0
 11  4  1  0  0  0  0
 11  7  1  0  0  0  0
 12  5  1  0  0  0  0
 13  8  3  0  0  0  0
 14 21  1  0  0  0  0
 15 14  3  0  0  0  0
 16 12  2  0  0  0  0
 17 12  1  0  0  0  0
 18  9  1  0  0  0  0
 19 10  1  0  0  0  0
 20  6  1  0  0  0  0
 21 20  1  0  0  0  0
 22  7  2  0  0  0  0
 23 11  2  0  0  0  0
 24 22  1  0  0  0  0
 25 23  1  0  0  0  0
 25 24  2  0  0  0  0
M  END
> <CdId>
2059

> <Mol Weight>
551.1191

> <Formula>
C19H11I2N3O

> <Click_ID>
CLK027_E08 __ __ 

$$$$
