CLK049D03
 OpenBabel03181404502D

 22 23  0  0  0  0  0  0  0  0999 V2000
   -0.1958   -2.0625    0.0000 N   0  0  0  0  0  0  0  0  0  0  0  0
   -0.1958   -2.8875    0.0000 C   0  0  0  0  0  0  0  0  0  0  0  0
   -0.1958    0.4125    0.0000 C   0  0  0  0  0  0  0  0  0  0  0  0
    0.5167    0.8250    0.0000 N   0  0  0  0  0  0  0  0  0  0  0  0
   -0.9125    3.3000    0.0000 C   0  0  0  0  0  0  0  0  0  0  0  0
   -1.6250    3.7125    0.0000 C   0  0  0  0  0  0  0  0  0  0  0  0
   -0.1958   -0.4125    0.0000 C   0  0  0  0  0  0  0  0  0  0  0  0
    0.5167   -1.6500    0.0000 C   0  0  0  0  0  0  0  0  0  0  0  0
   -0.9125   -1.6500    0.0000 C   0  0  0  0  0  0  0  0  0  0  0  0
   -0.9125   -3.3000    0.0000 O   0  0  0  0  0  0  0  0  0  0  0  0
   -0.9125    0.8250    0.0000 O   0  0  0  0  0  0  0  0  0  0  0  0
    0.5167    1.6500    0.0000 C   0  0  0  0  0  0  0  0  0  0  0  0
   -0.9125   -0.8250    0.0000 C   0  0  0  0  0  0  0  0  0  0  0  0
    0.5167   -0.8250    0.0000 C   0  0  0  0  0  0  0  0  0  0  0  0
    0.5167   -3.3000    0.0000 C   0  0  0  0  0  0  0  0  0  0  0  0
   -0.1958    2.8917    0.0000 C   0  0  0  0  0  0  0  0  0  0  0  0
   -0.1958    2.0625    0.0000 C   0  0  0  0  0  0  0  0  0  0  0  0
    1.2333    2.8917    0.0000 C   0  0  0  0  0  0  0  0  0  0  0  0
    1.2333    2.0625    0.0000 C   0  0  0  0  0  0  0  0  0  0  0  0
    0.5167    3.3000    0.0000 C   0  0  0  0  0  0  0  0  0  0  0  0
    0.5167   -4.1250    0.0000 C   0  0  0  0  0  0  0  0  0  0  0  0
    1.2333   -2.8875    0.0000 C   0  0  0  0  0  0  0  0  0  0  0  0
  2  1  1  0  0  0  0
  3  7  1  0  0  0  0
  4  3  1  0  0  0  0
  5 16  1  0  0  0  0
  6  5  3  0  0  0  0
  7 13  1  0  0  0  0
  7 14  1  0  0  0  0
  8  1  1  0  0  0  0
  9  1  1  0  0  0  0
 10  2  2  0  0  0  0
 11  3  2  0  0  0  0
 12  4  1  0  0  0  0
 13  9  1  0  0  0  0
 14  8  1  0  0  0  0
 15  2  1  0  0  0  0
 16 17  1  0  0  0  0
 17 12  2  0  0  0  0
 18 19  2  0  0  0  0
 19 12  1  0  0  0  0
 20 16  2  0  0  0  0
 20 18  1  0  0  0  0
 21 15  1  0  0  0  0
 22 15  1  0  0  0  0
M  END
> <CdId>
3740

> <Mol Weight>
298.3795

> <Formula>
C18H22N2O2

> <Click_ID>
CLK049D03 __ __ 

$$$$
