CLK043A08
 OpenBabel03181404502D

 23 23  0  0  0  0  0  0  0  0999 V2000
    0.2458   -0.6083    0.0000 S   0  0  0  0  0  0  0  0  0  0  0  0
    1.6750   -3.0833    0.0000 C   0  0  0  0  0  0  0  0  0  0  0  0
    0.9625   -1.0208    0.0000 C   0  0  0  0  0  0  0  0  0  0  0  0
    1.6750   -2.2583    0.0000 C   0  0  0  0  0  0  0  0  0  0  0  0
   -2.6125    4.3375    0.0000 C   0  0  0  0  0  0  0  0  0  0  0  0
    0.9625   -1.8458    0.0000 C   0  0  0  0  0  0  0  0  0  0  0  0
   -2.6125    5.1625    0.0000 C   0  0  0  0  0  0  0  0  0  0  0  0
   -0.1667   -1.3208    0.0000 O   0  0  0  0  0  0  0  0  0  0  0  0
    0.6583    0.1083    0.0000 O   0  0  0  0  0  0  0  0  0  0  0  0
   -0.4667   -0.1958    0.0000 N   0  0  0  0  0  0  0  0  0  0  0  0
   -1.8958    2.2792    0.0000 C   0  0  0  0  0  0  0  0  0  0  0  0
   -2.6125    1.8667    0.0000 O   0  0  0  0  0  0  0  0  0  0  0  0
    1.6750   -3.9083    0.0000 F   0  0  0  0  0  0  0  0  0  0  0  0
    2.5000   -3.0833    0.0000 F   0  0  0  0  0  0  0  0  0  0  0  0
    0.8500   -3.0833    0.0000 F   0  0  0  0  0  0  0  0  0  0  0  0
   -1.8958    3.1042    0.0000 N   0  0  0  0  0  0  0  0  0  0  0  0
   -2.6125    3.5167    0.0000 C   0  0  0  0  0  0  0  0  0  0  0  0
    1.6750   -0.6083    0.0000 C   0  0  0  0  0  0  0  0  0  0  0  0
    2.3917   -1.8458    0.0000 C   0  0  0  0  0  0  0  0  0  0  0  0
    2.3917   -1.0208    0.0000 C   0  0  0  0  0  0  0  0  0  0  0  0
   -1.1833    1.8667    0.0000 C   0  0  0  0  0  0  0  0  0  0  0  0
   -0.4667    0.6292    0.0000 C   0  0  0  0  0  0  0  0  0  0  0  0
   -1.1833    1.0417    0.0000 C   0  0  0  0  0  0  0  0  0  0  0  0
  2  4  1  0  0  0  0
  3  1  1  0  0  0  0
  4  6  2  0  0  0  0
  5 17  1  0  0  0  0
  6  3  1  0  0  0  0
  7  5  3  0  0  0  0
  8  1  2  0  0  0  0
  9  1  2  0  0  0  0
 10  1  1  0  0  0  0
 11 21  1  0  0  0  0
 12 11  2  0  0  0  0
 13  2  1  0  0  0  0
 14  2  1  0  0  0  0
 15  2  1  0  0  0  0
 16 11  1  0  0  0  0
 17 16  1  0  0  0  0
 18  3  2  0  0  0  0
 19  4  1  0  0  0  0
 20 18  1  0  0  0  0
 20 19  2  0  0  0  0
 21 23  1  0  0  0  0
 22 10  1  0  0  0  0
 23 22  1  0  0  0  0
M  END
> <CdId>
3297

> <Mol Weight>
348.341

> <Formula>
C14H15F3N2O3S

> <Click_ID>
CLK043A08 __ __ 

$$$$
