CLK009_F08
 OpenBabel03181404502D

 19 20  0  0  0  0  0  0  0  0999 V2000
   -2.6550    0.1624    0.0000 C    0  0  0  0  0  0  0  0  0  0  0  0
   -3.3930    0.4966    0.0000 S    0  0  0  0  0  0  0  0  0  0  0  0
   -2.7432   -0.6684    0.0000 C    0  0  0  0  0  0  0  0  0  0  0  0
   -1.9169    0.5570    0.0000 C    0  0  0  0  0  0  0  0  0  0  0  0
   -1.2068    0.1624    0.0000 N    0  0  0  0  0  0  0  0  0  0  0  0
   -3.5462   -0.8402    0.0000 C    0  0  0  0  0  0  0  0  0  0  0  0
   -3.9500   -0.1300    0.0000 C    0  0  0  0  0  0  0  0  0  0  0  0
   -0.4966    0.5570    0.0000 C    0  0  0  0  0  0  0  0  0  0  0  0
    1.6478    0.1624    0.0000 C    0  0  0  0  0  0  0  0  0  0  0  0
    2.3719   -0.2832    0.0000 C    0  0  0  0  0  0  0  0  0  0  0  0
   -1.9169    1.4064    0.0000 O    0  0  0  0  0  0  0  0  0  0  0  0
   -0.4966    1.4064    0.0000 O    0  0  0  0  0  0  0  0  0  0  0  0
   -2.0980   -1.2022    0.0000 Cl   0  0  0  0  0  0  0  0  0  0  0  0
    0.2228    0.1624    0.0000 N    0  0  0  0  0  0  0  0  0  0  0  0
    0.9330    0.5570    0.0000 C    0  0  0  0  0  0  0  0  0  0  0  0
   -3.9500   -1.5596    0.0000 C    0  0  0  0  0  0  0  0  0  0  0  0
   -4.7901   -0.1300    0.0000 C    0  0  0  0  0  0  0  0  0  0  0  0
   -4.7901   -1.5596    0.0000 C    0  0  0  0  0  0  0  0  0  0  0  0
   -5.1940   -0.8402    0.0000 C    0  0  0  0  0  0  0  0  0  0  0  0
  2  1  1  0  0  0  0
  3  1  2  0  0  0  0
  4  1  1  0  0  0  0
  5  4  1  0  0  0  0
  6  3  1  0  0  0  0
  6  7  2  0  0  0  0
  7  2  1  0  0  0  0
  8  5  1  0  0  0  0
  9 15  1  0  0  0  0
 10  9  3  0  0  0  0
 11  4  2  0  0  0  0
 12  8  2  0  0  0  0
 13  3  1  0  0  0  0
 14  8  1  0  0  0  0
 15 14  1  0  0  0  0
 16  6  1  0  0  0  0
 17  7  1  0  0  0  0
 18 16  2  0  0  0  0
 18 19  1  0  0  0  0
 19 17  2  0  0  0  0
M  END
> <CdId>
653

> <Mol Weight>
292.741

> <Formula>
C13H9ClN2O2S

> <Click_ID>
CLK009_F08 __ __ 

$$$$
