CLK028_C05
 OpenBabel03181404502D

 33 36  0  0  0  0  0  0  0  0999 V2000
   -2.9768   -1.7325    0.0000 C    0  0  0  0  0  0  0  0  0  0  0  0
   -3.4512   -2.4063    0.0000 O    0  0  0  0  0  0  0  0  0  0  0  0
   -2.1518   -1.7325    0.0000 C    0  0  0  0  0  0  0  0  0  0  0  0
    1.9662   -0.2991    0.0000 C    0  0  0  0  0  0  0  0  0  0  0  0
   -3.4615   -1.0587    0.0000 C    0  0  0  0  0  0  0  0  0  0  0  0
    1.5537   -1.0141    0.0000 C    0  0  0  0  0  0  0  0  0  0  0  0
    1.5434    0.4125    0.0000 C    0  0  0  0  0  0  0  0  0  0  0  0
    2.7912   -0.2991    0.0000 O    0  0  0  0  0  0  0  0  0  0  0  0
   -4.2350   -2.1450    0.0000 C    0  0  0  0  0  0  0  0  0  0  0  0
    4.0081    1.8459    0.0000 C    0  0  0  0  0  0  0  0  0  0  0  0
   -4.2350   -1.3200    0.0000 C    0  0  0  0  0  0  0  0  0  0  0  0
    3.5887    2.5610    0.0000 C    0  0  0  0  0  0  0  0  0  0  0  0
   -0.9040   -1.0141    0.0000 N    0  0  0  0  0  0  0  0  0  0  0  0
   -1.7393   -1.0141    0.0000 N    0  0  0  0  0  0  0  0  0  0  0  0
    0.7322   -1.0141    0.0000 C    0  0  0  0  0  0  0  0  0  0  0  0
    0.7184    0.4090    0.0000 C    0  0  0  0  0  0  0  0  0  0  0  0
    4.4241    1.1378    0.0000 C    0  0  0  0  0  0  0  0  0  0  0  0
   -1.7393   -2.4475    0.0000 O    0  0  0  0  0  0  0  0  0  0  0  0
    0.3197   -0.3025    0.0000 C    0  0  0  0  0  0  0  0  0  0  0  0
    3.1969    0.4228    0.0000 C    0  0  0  0  0  0  0  0  0  0  0  0
    4.0219    0.4228    0.0000 C    0  0  0  0  0  0  0  0  0  0  0  0
   -0.5053   -0.3025    0.0000 C    0  0  0  0  0  0  0  0  0  0  0  0
    1.9662   -1.7257    0.0000 Cl   0  0  0  0  0  0  0  0  0  0  0  0
    1.9525    1.1344    0.0000 O    0  0  0  0  0  0  0  0  0  0  0  0
   -4.9465   -2.5575    0.0000 C    0  0  0  0  0  0  0  0  0  0  0  0
   -4.9568   -0.9110    0.0000 C    0  0  0  0  0  0  0  0  0  0  0  0
    5.2491    1.1447    0.0000 C    0  0  0  0  0  0  0  0  0  0  0  0
    4.4344   -0.2887    0.0000 C    0  0  0  0  0  0  0  0  0  0  0  0
    1.5434    1.8459    0.0000 C    0  0  0  0  0  0  0  0  0  0  0  0
   -5.6684   -2.1450    0.0000 C    0  0  0  0  0  0  0  0  0  0  0  0
   -5.6684   -1.3200    0.0000 C    0  0  0  0  0  0  0  0  0  0  0  0
    5.2559   -0.2887    0.0000 C    0  0  0  0  0  0  0  0  0  0  0  0
    5.6684    0.4263    0.0000 C    0  0  0  0  0  0  0  0  0  0  0  0
  2  1  1  0  0  0  0
  3  1  1  0  0  0  0
  4  7  1  0  0  0  0
  4  6  2  0  0  0  0
  5  1  2  0  0  0  0
  6 15  1  0  0  0  0
  7 16  2  0  0  0  0
  8  4  1  0  0  0  0
  9  2  1  0  0  0  0
  9 11  2  0  0  0  0
 10 17  1  0  0  0  0
 11  5  1  0  0  0  0
 12 10  3  0  0  0  0
 13 14  1  0  0  0  0
 14  3  1  0  0  0  0
 15 19  2  0  0  0  0
 16 19  1  0  0  0  0
 17 21  1  0  0  0  0
 18  3  2  0  0  0  0
 19 22  1  0  0  0  0
 20  8  1  0  0  0  0
 21 20  1  0  0  0  0
 22 13  2  0  0  0  0
 23  6  1  0  0  0  0
 24  7  1  0  0  0  0
 25  9  1  0  0  0  0
 26 11  1  0  0  0  0
 27 17  2  0  0  0  0
 28 21  2  0  0  0  0
 29 24  1  0  0  0  0
 30 25  2  0  0  0  0
 30 31  1  0  0  0  0
 31 26  2  0  0  0  0
 32 28  1  0  0  0  0
 33 32  2  0  0  0  0
 33 27  1  0  0  0  0
M  END
> <CdId>
2109

> <Mol Weight>
458.893

> <Formula>
C26H19ClN2O4

> <Click_ID>
CLK028_C05 __ __ 

$$$$
