CLK039G05
 OpenBabel03181404502D

 20 21  0  0  0  0  0  0  0  0999 V2000
   -0.1792    0.2292    0.0000 C   0  0  0  0  0  0  0  0  0  0  0  0
    0.5333   -0.1833    0.0000 N   0  0  0  0  0  0  0  0  0  0  0  0
    0.5333   -1.0083    0.0000 N   0  0  0  0  0  0  0  0  0  0  0  0
   -0.1792   -1.4208    0.0000 C   0  0  0  0  0  0  0  0  0  0  0  0
   -0.8958   -0.1833    0.0000 C   0  0  0  0  0  0  0  0  0  0  0  0
   -0.8958   -1.0083    0.0000 C   0  0  0  0  0  0  0  0  0  0  0  0
   -0.1792    1.0542    0.0000 C   0  0  0  0  0  0  0  0  0  0  0  0
    1.2500    2.7042    0.0000 C   0  0  0  0  0  0  0  0  0  0  0  0
    1.9625    3.1167    0.0000 C   0  0  0  0  0  0  0  0  0  0  0  0
   -0.1792   -2.2458    0.0000 O   0  0  0  0  0  0  0  0  0  0  0  0
   -0.8958    1.4667    0.0000 O   0  0  0  0  0  0  0  0  0  0  0  0
    0.5333    1.4667    0.0000 N   0  0  0  0  0  0  0  0  0  0  0  0
    1.2500   -1.4208    0.0000 C   0  0  0  0  0  0  0  0  0  0  0  0
    0.5333    2.2917    0.0000 C   0  0  0  0  0  0  0  0  0  0  0  0
   -1.6083    0.2292    0.0000 C   0  0  0  0  0  0  0  0  0  0  0  0
   -1.6083   -1.4208    0.0000 C   0  0  0  0  0  0  0  0  0  0  0  0
    1.9625   -1.0083    0.0000 C   0  0  0  0  0  0  0  0  0  0  0  0
   -2.3250   -0.1833    0.0000 C   0  0  0  0  0  0  0  0  0  0  0  0
   -2.3250   -1.0083    0.0000 C   0  0  0  0  0  0  0  0  0  0  0  0
    2.6792   -1.4208    0.0000 C   0  0  0  0  0  0  0  0  0  0  0  0
  2  1  2  0  0  0  0
  3  2  1  0  0  0  0
  4  6  1  0  0  0  0
  4  3  1  0  0  0  0
  5  1  1  0  0  0  0
  6  5  2  0  0  0  0
  7  1  1  0  0  0  0
  8 14  1  0  0  0  0
  9  8  3  0  0  0  0
 10  4  2  0  0  0  0
 11  7  2  0  0  0  0
 12  7  1  0  0  0  0
 13  3  1  0  0  0  0
 14 12  1  0  0  0  0
 15  5  1  0  0  0  0
 16  6  1  0  0  0  0
 17 13  1  0  0  0  0
 18 15  2  0  0  0  0
 19 16  2  0  0  0  0
 19 18  1  0  0  0  0
 20 17  1  0  0  0  0
M  END
> <CdId>
2959

> <Mol Weight>
269.2985

> <Formula>
C15H15N3O2

> <Click_ID>
CLK039G05 __ __ 

$$$$
