CLK017_E06
 OpenBabel03181404502D

 29 31  0  0  0  0  0  0  0  0999 V2000
    5.3561   -3.4520    0.0000 N    0  0  0  0  0  0  0  0  0  0  0  0
    5.3643   -2.0282    0.0000 C    0  0  0  0  0  0  0  0  0  0  0  0
    4.9421   -2.7442    0.0000 C    0  0  0  0  0  0  0  0  0  0  0  0
    6.1880   -3.4562    0.0000 C    0  0  0  0  0  0  0  0  0  0  0  0
    6.5978   -2.7484    0.0000 N    0  0  0  0  0  0  0  0  0  0  0  0
    6.1880   -2.0282    0.0000 C    0  0  0  0  0  0  0  0  0  0  0  0
    4.9463   -4.1640    0.0000 C    0  0  0  0  0  0  0  0  0  0  0  0
    4.9545   -1.3080    0.0000 C    0  0  0  0  0  0  0  0  0  0  0  0
    4.1143   -4.1640    0.0000 C    0  0  0  0  0  0  0  0  0  0  0  0
    3.7004   -4.8718    0.0000 C    0  0  0  0  0  0  0  0  0  0  0  0
    0.4264   -0.5630    0.0000 C    0  0  0  0  0  0  0  0  0  0  0  0
    6.5978   -4.1764    0.0000 O    0  0  0  0  0  0  0  0  0  0  0  0
   -0.3974   -0.5505    0.0000 C    0  0  0  0  0  0  0  0  0  0  0  0
    4.1143   -2.7360    0.0000 O    0  0  0  0  0  0  0  0  0  0  0  0
    2.8974   -0.5960    0.0000 C    0  0  0  0  0  0  0  0  0  0  0  0
    6.6102   -1.3080    0.0000 O    0  0  0  0  0  0  0  0  0  0  0  0
    4.1268   -1.3080    0.0000 C    0  0  0  0  0  0  0  0  0  0  0  0
    5.3561   -4.8800    0.0000 C    0  0  0  0  0  0  0  0  0  0  0  0
    3.7252   -0.6002    0.0000 C    0  0  0  0  0  0  0  0  0  0  0  0
    2.4835   -1.3038    0.0000 C    0  0  0  0  0  0  0  0  0  0  0  0
    4.1102   -5.5920    0.0000 C    0  0  0  0  0  0  0  0  0  0  0  0
    4.9339   -5.5920    0.0000 C    0  0  0  0  0  0  0  0  0  0  0  0
    2.8850   -2.0158    0.0000 C    0  0  0  0  0  0  0  0  0  0  0  0
    2.8726   -4.8718    0.0000 Cl   0  0  0  0  0  0  0  0  0  0  0  0
    2.4877    0.1200    0.0000 Br   0  0  0  0  0  0  0  0  0  0  0  0
    3.7128   -2.0158    0.0000 C    0  0  0  0  0  0  0  0  0  0  0  0
    1.6557   -1.2914    0.0000 O    0  0  0  0  0  0  0  0  0  0  0  0
    1.2542   -0.5754    0.0000 C    0  0  0  0  0  0  0  0  0  0  0  0
    3.6921   -6.2998    0.0000 C    0  0  0  0  0  0  0  0  0  0  0  0
  2  3  1  0  0  0  0
  3  1  1  0  0  0  0
  4  1  1  0  0  0  0
  5  4  1  0  0  0  0
  6  5  1  0  0  0  0
  6  2  1  0  0  0  0
  7  1  1  0  0  0  0
  8  2  2  0  0  0  0
  9  7  2  0  0  0  0
 10  9  1  0  0  0  0
 10 21  2  0  0  0  0
 11 28  1  0  0  0  0
 12  4  2  0  0  0  0
 13 11  3  0  0  0  0
 14  3  2  0  0  0  0
 15 19  2  0  0  0  0
 15 20  1  0  0  0  0
 16  6  2  0  0  0  0
 17  8  1  0  0  0  0
 18  7  1  0  0  0  0
 19 17  1  0  0  0  0
 20 23  2  0  0  0  0
 21 22  1  0  0  0  0
 22 18  2  0  0  0  0
 23 26  1  0  0  0  0
 24 10  1  0  0  0  0
 25 15  1  0  0  0  0
 26 17  2  0  0  0  0
 27 20  1  0  0  0  0
 28 27  1  0  0  0  0
 29 21  1  0  0  0  0
M  END
> <CdId>
1281

> <Mol Weight>
473.704

> <Formula>
C21H14BrClN2O4

> <Click_ID>
CLK017_E06 __ __ 

$$$$
