CLK014_G04
 OpenBabel03181404502D

 21 22  0  0  0  0  0  0  0  0999 V2000
    1.5716   -0.8192    0.0000 N    0  0  0  0  0  0  0  0  0  0  0  0
    1.8307   -1.6092    0.0000 C    0  0  0  0  0  0  0  0  0  0  0  0
    2.2445   -0.3302    0.0000 C    0  0  0  0  0  0  0  0  0  0  0  0
    2.9132   -0.8192    0.0000 C    0  0  0  0  0  0  0  0  0  0  0  0
    2.6583   -1.6092    0.0000 S    0  0  0  0  0  0  0  0  0  0  0  0
    3.7032   -0.5643    0.0000 C    0  0  0  0  0  0  0  0  0  0  0  0
    4.1880    1.7136    0.0000 C    0  0  0  0  0  0  0  0  0  0  0  0
    4.7941    1.1744    0.0000 C    0  0  0  0  0  0  0  0  0  0  0  0
    3.4023    1.4754    0.0000 C    0  0  0  0  0  0  0  0  0  0  0  0
    3.8745    0.2466    0.0000 C    0  0  0  0  0  0  0  0  0  0  0  0
    0.6144    0.2466    0.0000 C    0  0  0  0  0  0  0  0  0  0  0  0
    0.3929    1.0491    0.0000 C    0  0  0  0  0  0  0  0  0  0  0  0
    1.3417   -2.2738    0.0000 O    0  0  0  0  0  0  0  0  0  0  0  0
    4.6436    0.4514    0.0000 C    0  0  0  0  0  0  0  0  0  0  0  0
    2.2361    0.4973    0.0000 O    0  0  0  0  0  0  0  0  0  0  0  0
    3.2476    0.7523    0.0000 C    0  0  0  0  0  0  0  0  0  0  0  0
    0.7900   -0.5643    0.0000 C    0  0  0  0  0  0  0  0  0  0  0  0
    5.5547    1.4252    0.0000 Br   0  0  0  0  0  0  0  0  0  0  0  0
    4.3510    2.4785    0.0000 O    0  0  0  0  0  0  0  0  0  0  0  0
    2.8004    2.0396    0.0000 O    0  0  0  0  0  0  0  0  0  0  0  0
    3.0010    2.8421    0.0000 C    0  0  0  0  0  0  0  0  0  0  0  0
  2  1  1  0  0  0  0
  3  1  1  0  0  0  0
  4  3  1  0  0  0  0
  4  5  1  0  0  0  0
  5  2  1  0  0  0  0
  6  4  2  0  0  0  0
  7  9  2  0  0  0  0
  7  8  1  0  0  0  0
  8 14  2  0  0  0  0
  9 16  1  0  0  0  0
 10  6  1  0  0  0  0
 11 17  1  0  0  0  0
 12 11  3  0  0  0  0
 13  2  2  0  0  0  0
 14 10  1  0  0  0  0
 15  3  2  0  0  0  0
 16 10  2  0  0  0  0
 17  1  1  0  0  0  0
 18  8  1  0  0  0  0
 19  7  1  0  0  0  0
 20  9  1  0  0  0  0
 21 20  1  0  0  0  0
M  END
> <CdId>
1059

> <Mol Weight>
368.203

> <Formula>
C14H10BrNO4S

> <Click_ID>
CLK014_G04 __ __ 

$$$$
