CLK031_H07
 OpenBabel03181404502D

 26 28  0  0  0  0  0  0  0  0999 V2000
   -1.1649    2.3882    0.0000 C   0  0  0  0  0  0  0  0  0  0  0  0
   -0.3382    2.3799    0.0000 N   0  0  0  0  0  0  0  0  0  0  0  0
   -4.5928    3.2192    0.0000 S   0  0  0  0  0  0  0  0  0  0  0  0
   -1.6492    1.7244    0.0000 N   0  0  0  0  0  0  0  0  0  0  0  0
   -1.6492    3.0563    0.0000 S   0  0  0  0  0  0  0  0  0  0  0  0
   -2.4383    2.8016    0.0000 C   0  0  0  0  0  0  0  0  0  0  0  0
    0.0752    3.0939    0.0000 C   0  0  0  0  0  0  0  0  0  0  0  0
   -2.4383    1.9749    0.0000 C   0  0  0  0  0  0  0  0  0  0  0  0
   -3.8663    2.8016    0.0000 C   0  0  0  0  0  0  0  0  0  0  0  0
   -3.1523    3.2149    0.0000 C   0  0  0  0  0  0  0  0  0  0  0  0
    0.9019    3.0939    0.0000 C   0  0  0  0  0  0  0  0  0  0  0  0
   -1.9498    0.3215    0.0000 C   0  0  0  0  0  0  0  0  0  0  0  0
   -3.1523    1.5615    0.0000 C   0  0  0  0  0  0  0  0  0  0  0  0
   -2.5010   -0.2923    0.0000 C   0  0  0  0  0  0  0  0  0  0  0  0
   -5.0312    2.5135    0.0000 O   0  0  0  0  0  0  0  0  0  0  0  0
   -4.1544    3.9164    0.0000 O   0  0  0  0  0  0  0  0  0  0  0  0
   -0.3382    3.8079    0.0000 O   0  0  0  0  0  0  0  0  0  0  0  0
   -5.2942    3.6534    0.0000 N   0  0  0  0  0  0  0  0  0  0  0  0
   -3.8663    1.9749    0.0000 C   0  0  0  0  0  0  0  0  0  0  0  0
   -1.3987    0.9352    0.0000 C   0  0  0  0  0  0  0  0  0  0  0  0
    1.3069    3.8037    0.0000 C   0  0  0  0  0  0  0  0  0  0  0  0
    1.3152    2.3757    0.0000 C   0  0  0  0  0  0  0  0  0  0  0  0
    0.8893    4.5135    0.0000 C   0  0  0  0  0  0  0  0  0  0  0  0
    2.1336    3.8162    0.0000 C   0  0  0  0  0  0  0  0  0  0  0  0
    2.1336    2.3799    0.0000 C   0  0  0  0  0  0  0  0  0  0  0  0
    2.5595    3.1022    0.0000 C   0  0  0  0  0  0  0  0  0  0  0  0
  2  1  2  0  0  0  0
  3  9  1  0  0  0  0
  4  1  1  0  0  0  0
  5  1  1  0  0  0  0
  6  5  1  0  0  0  0
  6  8  2  0  0  0  0
  7  2  1  0  0  0  0
  8  4  1  0  0  0  0
  9 10  2  0  0  0  0
  9 19  1  0  0  0  0
 10  6  1  0  0  0  0
 11  7  1  0  0  0  0
 12 20  1  0  0  0  0
 13  8  1  0  0  0  0
 14 12  3  0  0  0  0
 15  3  2  0  0  0  0
 16  3  2  0  0  0  0
 17  7  2  0  0  0  0
 18  3  1  0  0  0  0
 19 13  2  0  0  0  0
 20  4  1  0  0  0  0
 21 11  1  0  0  0  0
 22 11  2  0  0  0  0
 23 21  1  0  0  0  0
 24 21  2  0  0  0  0
 24 26  1  0  0  0  0
 25 22  1  0  0  0  0
 26 25  2  0  0  0  0
M  END
> <CdId>
2401

> <Mol Weight>
385.46

> <Formula>
C18H15N3O3S2

> <Click_ID>
CLK031_H07 __ __ 

$$$$
