CLK018_D07
 OpenBabel03181404502D

 24 25  0  0  0  0  0  0  0  0999 V2000
    1.5650   -0.8158    0.0000 N    0  0  0  0  0  0  0  0  0  0  0  0
    1.8230   -1.6024    0.0000 C    0  0  0  0  0  0  0  0  0  0  0  0
    2.9010   -0.8158    0.0000 C    0  0  0  0  0  0  0  0  0  0  0  0
    2.2350   -0.3288    0.0000 C    0  0  0  0  0  0  0  0  0  0  0  0
    2.6470   -1.6024    0.0000 S    0  0  0  0  0  0  0  0  0  0  0  0
    4.8238   -0.1915    0.0000 C    0  0  0  0  0  0  0  0  0  0  0  0
    4.9986    0.6118    0.0000 C    0  0  0  0  0  0  0  0  0  0  0  0
    4.5616    1.9728    0.0000 C    0  0  0  0  0  0  0  0  0  0  0  0
    4.3868    1.1695    0.0000 C    0  0  0  0  0  0  0  0  0  0  0  0
    5.3482    2.2308    0.0000 C    0  0  0  0  0  0  0  0  0  0  0  0
    0.6118    0.2455    0.0000 C    0  0  0  0  0  0  0  0  0  0  0  0
    5.9559    1.6731    0.0000 C    0  0  0  0  0  0  0  0  0  0  0  0
    5.7852    0.8698    0.0000 C    0  0  0  0  0  0  0  0  0  0  0  0
    0.3913    1.0446    0.0000 C    0  0  0  0  0  0  0  0  0  0  0  0
    1.3360   -2.2642    0.0000 O    0  0  0  0  0  0  0  0  0  0  0  0
    2.2267    0.4952    0.0000 O    0  0  0  0  0  0  0  0  0  0  0  0
    0.7866   -0.5619    0.0000 C    0  0  0  0  0  0  0  0  0  0  0  0
    6.7467    1.9229    0.0000 Br   0  0  0  0  0  0  0  0  0  0  0  0
    3.6085    0.9115    0.0000 O    0  0  0  0  0  0  0  0  0  0  0  0
    5.5230    3.0424    0.0000 O    0  0  0  0  0  0  0  0  0  0  0  0
    4.9112    3.5918    0.0000 C    0  0  0  0  0  0  0  0  0  0  0  0
    3.4337    0.1082    0.0000 C    0  0  0  0  0  0  0  0  0  0  0  0
    5.0860    4.3868    0.0000 C    0  0  0  0  0  0  0  0  0  0  0  0
    2.6512   -0.1498    0.0000 C    0  0  0  0  0  0  0  0  0  0  0  0
  2  1  1  0  0  0  0
  3  4  1  0  0  0  0
  3  5  1  0  0  0  0
  4  1  1  0  0  0  0
  5  2  1  0  0  0  0
  6  3  2  0  0  0  0
  7  6  1  0  0  0  0
  8  9  2  0  0  0  0
  8 10  1  0  0  0  0
  9  7  1  0  0  0  0
 10 12  2  0  0  0  0
 11 17  1  0  0  0  0
 12 13  1  0  0  0  0
 13  7  2  0  0  0  0
 14 11  3  0  0  0  0
 15  2  2  0  0  0  0
 16  4  2  0  0  0  0
 17  1  1  0  0  0  0
 18 12  1  0  0  0  0
 19  9  1  0  0  0  0
 20 10  1  0  0  0  0
 21 20  1  0  0  0  0
 22 19  1  0  0  0  0
 23 21  1  0  0  0  0
 24 22  1  0  0  0  0
M  END
> <CdId>
1352

> <Mol Weight>
410.282

> <Formula>
C17H16BrNO4S

> <Click_ID>
CLK018_D07 __ __ 

$$$$
