CLK038H05
 OpenBabel03181404502D

 31 33  0  0  0  0  0  0  0  0999 V2000
    0.9875    1.5875    0.0000 S   0  0  0  0  0  0  0  0  0  0  0  0
   -0.4417   -0.0625    0.0000 C   0  0  0  0  0  0  0  0  0  0  0  0
   -0.4417   -0.8875    0.0000 C   0  0  0  0  0  0  0  0  0  0  0  0
   -1.1542    0.3500    0.0000 C   0  0  0  0  0  0  0  0  0  0  0  0
    0.2750    1.1750    0.0000 C   0  0  0  0  0  0  0  0  0  0  0  0
    1.7042    2.0000    0.0000 N   0  0  0  0  0  0  0  0  0  0  0  0
    0.2750    0.3500    0.0000 C   0  0  0  0  0  0  0  0  0  0  0  0
   -1.8708   -0.0625    0.0000 N   0  0  0  0  0  0  0  0  0  0  0  0
    0.2750   -1.3000    0.0000 N   0  0  0  0  0  0  0  0  0  0  0  0
    0.2750   -2.9500    0.0000 C   0  0  0  0  0  0  0  0  0  0  0  0
    0.5750    2.3000    0.0000 O   0  0  0  0  0  0  0  0  0  0  0  0
    1.4000    0.8708    0.0000 O   0  0  0  0  0  0  0  0  0  0  0  0
   -1.1542    1.1750    0.0000 C   0  0  0  0  0  0  0  0  0  0  0  0
    0.2750   -3.7750    0.0000 C   0  0  0  0  0  0  0  0  0  0  0  0
    0.2750   -2.1250    0.0000 C   0  0  0  0  0  0  0  0  0  0  0  0
   -1.1542   -1.3000    0.0000 O   0  0  0  0  0  0  0  0  0  0  0  0
   -0.4417    1.5875    0.0000 C   0  0  0  0  0  0  0  0  0  0  0  0
   -3.2958   -0.8875    0.0000 O   0  0  0  0  0  0  0  0  0  0  0  0
    2.4167    1.5875    0.0000 C   0  0  0  0  0  0  0  0  0  0  0  0
    1.7042    2.8250    0.0000 C   0  0  0  0  0  0  0  0  0  0  0  0
   -2.5833    0.3500    0.0000 C   0  0  0  0  0  0  0  0  0  0  0  0
   -1.8708   -0.8875    0.0000 C   0  0  0  0  0  0  0  0  0  0  0  0
   -2.5833   -1.3000    0.0000 C   0  0  0  0  0  0  0  0  0  0  0  0
   -3.2958   -0.0625    0.0000 C   0  0  0  0  0  0  0  0  0  0  0  0
   -0.5500   -2.1250    0.0000 C   0  0  0  0  0  0  0  0  0  0  0  0
    1.1000   -2.1250    0.0000 C   0  0  0  0  0  0  0  0  0  0  0  0
    2.4167    3.2375    0.0000 C   0  0  0  0  0  0  0  0  0  0  0  0
    3.1333    2.0000    0.0000 C   0  0  0  0  0  0  0  0  0  0  0  0
   -0.9625   -1.4125    0.0000 C   0  0  0  0  0  0  0  0  0  0  0  0
    1.5125   -2.8417    0.0000 C   0  0  0  0  0  0  0  0  0  0  0  0
    3.1333    2.8250    0.0000 C   0  0  0  0  0  0  0  0  0  0  0  0
  2  7  1  0  0  0  0
  3  2  1  0  0  0  0
  4 13  1  0  0  0  0
  4  2  2  0  0  0  0
  5  1  1  0  0  0  0
  6  1  1  0  0  0  0
  7  5  2  0  0  0  0
  8  4  1  0  0  0  0
  9  3  1  0  0  0  0
 10 15  1  0  0  0  0
 11  1  2  0  0  0  0
 12  1  2  0  0  0  0
 13 17  2  0  0  0  0
 14 10  3  0  0  0  0
 15  9  1  0  0  0  0
 16  3  2  0  0  0  0
 17  5  1  0  0  0  0
 18 23  1  0  0  0  0
 18 24  1  0  0  0  0
 19  6  1  0  0  0  0
 20  6  1  0  0  0  0
 21  8  1  0  0  0  0
 22  8  1  0  0  0  0
 23 22  1  0  0  0  0
 24 21  1  0  0  0  0
 25 15  1  0  0  0  0
 26 15  1  0  0  0  0
 27 20  1  0  0  0  0
 28 19  1  0  0  0  0
 29 25  1  0  0  0  0
 30 26  1  0  0  0  0
 31 27  1  0  0  0  0
 31 28  1  0  0  0  0
M  END
> <CdId>
2880

> <Mol Weight>
447.591

> <Formula>
C23H33N3O4S

> <Click_ID>
CLK038H05 __ __ 

$$$$
