CLK037F06
 OpenBabel03181404502D

 29 29  0  0  0  0  0  0  0  0999 V2000
    7.3292    0.3583    0.0000 C   0  0  0  0  0  0  0  0  0  0  0  0
    6.9167   -0.3542    0.0000 C   0  0  0  0  0  0  0  0  0  0  0  0
   -4.1333   -0.4458    0.0000 C   0  0  0  0  0  0  0  0  0  0  0  0
   -4.8500   -0.8583    0.0000 C   0  0  0  0  0  0  0  0  0  0  0  0
   -1.2750   -0.4458    0.0000 C   0  0  0  0  0  0  0  0  0  0  0  0
   -1.9917   -0.0333    0.0000 C   0  0  0  0  0  0  0  0  0  0  0  0
    8.1542    0.3583    0.0000 O   0  0  0  0  0  0  0  0  0  0  0  0
    7.3292   -1.0708    0.0000 O   0  0  0  0  0  0  0  0  0  0  0  0
   -0.5625   -0.0333    0.0000 C   0  0  0  0  0  0  0  0  0  0  0  0
   -1.9917    0.7917    0.0000 C   0  0  0  0  0  0  0  0  0  0  0  0
    0.8667    0.7917    0.0000 N   0  0  0  0  0  0  0  0  0  0  0  0
    6.9167    1.0750    0.0000 O   0  0  0  0  0  0  0  0  0  0  0  0
    6.0917   -0.3542    0.0000 O   0  0  0  0  0  0  0  0  0  0  0  0
   -0.5625    0.7917    0.0000 C   0  0  0  0  0  0  0  0  0  0  0  0
   -1.2750    1.2042    0.0000 C   0  0  0  0  0  0  0  0  0  0  0  0
   -1.2750   -1.2708    0.0000 O   0  0  0  0  0  0  0  0  0  0  0  0
    2.2958    0.7917    0.0000 C   0  0  0  0  0  0  0  0  0  0  0  0
    3.7250   -0.0333    0.0000 C   0  0  0  0  0  0  0  0  0  0  0  0
   -2.7042   -0.4458    0.0000 O   0  0  0  0  0  0  0  0  0  0  0  0
    3.0125   -0.4458    0.0000 C   0  0  0  0  0  0  0  0  0  0  0  0
    3.7250    0.7917    0.0000 C   0  0  0  0  0  0  0  0  0  0  0  0
    2.2958   -0.0333    0.0000 C   0  0  0  0  0  0  0  0  0  0  0  0
    3.0125    1.2042    0.0000 C   0  0  0  0  0  0  0  0  0  0  0  0
   -3.4208   -0.0333    0.0000 C   0  0  0  0  0  0  0  0  0  0  0  0
    0.1542    1.2042    0.0000 C   0  0  0  0  0  0  0  0  0  0  0  0
    1.5833    1.2042    0.0000 C   0  0  0  0  0  0  0  0  0  0  0  0
   -0.5625   -1.6833    0.0000 C   0  0  0  0  0  0  0  0  0  0  0  0
    4.4417   -0.4458    0.0000 C   0  0  0  0  0  0  0  0  0  0  0  0
   -0.5625   -2.5083    0.0000 C   0  0  0  0  0  0  0  0  0  0  0  0
  2  1  1  0  0  0  0
  4  3  3  0  0  0  0
  5  6  2  0  0  0  0
  6 19  1  0  0  0  0
  7  1  2  0  0  0  0
  8  2  2  0  0  0  0
  9  5  1  0  0  0  0
 10  6  1  0  0  0  0
 11 25  1  0  0  0  0
 12  1  1  0  0  0  0
 13  2  1  0  0  0  0
 14  9  2  0  0  0  0
 15 10  2  0  0  0  0
 15 14  1  0  0  0  0
 16  5  1  0  0  0  0
 17 26  1  0  0  0  0
 18 21  2  0  0  0  0
 18 20  1  0  0  0  0
 19 24  1  0  0  0  0
 20 22  2  0  0  0  0
 21 23  1  0  0  0  0
 22 17  1  0  0  0  0
 23 17  2  0  0  0  0
 24  3  1  0  0  0  0
 25 14  1  0  0  0  0
 26 11  1  0  0  0  0
 27 16  1  0  0  0  0
 28 18  1  0  0  0  0
 29 27  1  0  0  0  0
M  END
> <CdId>
2806

> <Mol Weight>
399.437

> <Formula>
C22H25NO6

> <Click_ID>
CLK037F06 __ __ 

$$$$
