CLK037B03
 OpenBabel03181404502D

 24 25  0  0  0  0  0  0  0  0999 V2000
   -2.0875   -0.5500    0.0000 C    0  0  0  0  0  0  0  0  0  0  0  0
    2.2000    0.2750    0.0000 C    0  0  0  0  0  0  0  0  0  0  0  0
   -2.0875    0.2750    0.0000 C    0  0  0  0  0  0  0  0  0  0  0  0
   -1.3708   -0.9625    0.0000 C    0  0  0  0  0  0  0  0  0  0  0  0
    2.9167    0.6875    0.0000 C    0  0  0  0  0  0  0  0  0  0  0  0
   -4.2292   -0.9625    0.0000 C    0  0  0  0  0  0  0  0  0  0  0  0
   -4.9458   -1.3750    0.0000 C    0  0  0  0  0  0  0  0  0  0  0  0
    0.7708    0.2750    0.0000 N    0  0  0  0  0  0  0  0  0  0  0  0
   -1.3708    0.6875    0.0000 C    0  0  0  0  0  0  0  0  0  0  0  0
   -0.6583   -0.5500    0.0000 C    0  0  0  0  0  0  0  0  0  0  0  0
    1.4875    0.6875    0.0000 N    0  0  0  0  0  0  0  0  0  0  0  0
   -0.6583    0.2750    0.0000 C    0  0  0  0  0  0  0  0  0  0  0  0
    2.2000   -0.5500    0.0000 O    0  0  0  0  0  0  0  0  0  0  0  0
    3.6292    1.9250    0.0000 N    0  0  0  0  0  0  0  0  0  0  0  0
    0.0583    0.6875    0.0000 C    0  0  0  0  0  0  0  0  0  0  0  0
   -2.8000    0.6875    0.0000 Cl   0  0  0  0  0  0  0  0  0  0  0  0
   -2.8000   -0.9625    0.0000 O    0  0  0  0  0  0  0  0  0  0  0  0
   -1.3708   -1.7875    0.0000 O    0  0  0  0  0  0  0  0  0  0  0  0
    2.9167    1.5125    0.0000 C    0  0  0  0  0  0  0  0  0  0  0  0
   -3.5167   -0.5500    0.0000 C    0  0  0  0  0  0  0  0  0  0  0  0
    3.6292    0.2750    0.0000 C    0  0  0  0  0  0  0  0  0  0  0  0
    4.3458    1.5125    0.0000 C    0  0  0  0  0  0  0  0  0  0  0  0
   -0.6583   -2.2000    0.0000 C    0  0  0  0  0  0  0  0  0  0  0  0
    4.3458    0.6875    0.0000 C    0  0  0  0  0  0  0  0  0  0  0  0
  2 11  1  0  0  0  0
  3  1  1  0  0  0  0
  4  1  2  0  0  0  0
  5  2  1  0  0  0  0
  6 20  1  0  0  0  0
  7  6  3  0  0  0  0
  8 15  2  0  0  0  0
  9  3  2  0  0  0  0
  9 12  1  0  0  0  0
 10  4  1  0  0  0  0
 11  8  1  0  0  0  0
 12 10  2  0  0  0  0
 13  2  2  0  0  0  0
 14 19  1  0  0  0  0
 15 12  1  0  0  0  0
 16  3  1  0  0  0  0
 17  1  1  0  0  0  0
 18  4  1  0  0  0  0
 19  5  2  0  0  0  0
 20 17  1  0  0  0  0
 21  5  1  0  0  0  0
 22 14  2  0  0  0  0
 22 24  1  0  0  0  0
 23 18  1  0  0  0  0
 24 21  2  0  0  0  0
M  END
> <CdId>
2778

> <Mol Weight>
343.764

> <Formula>
C17H14ClN3O3

> <Click_ID>
CLK037B03 __ __ 

$$$$
