CLK051H10
 OpenBabel03181404502D

 26 28  0  0  0  0  0  0  0  0999 V2000
   -0.3375    0.1708    0.0000 C   0  0  0  0  0  0  0  0  0  0  0  0
    0.9332   -0.2417    0.0000 N   0  0  0  0  0  0  0  0  0  0  0  0
    0.1500   -0.4957    0.0000 C   0  0  0  0  0  0  0  0  0  0  0  0
    0.9332    0.5832    0.0000 N   0  0  0  0  0  0  0  0  0  0  0  0
    0.1500    0.8416    0.0000 C   0  0  0  0  0  0  0  0  0  0  0  0
   -1.1623    0.1708    0.0000 C   0  0  0  0  0  0  0  0  0  0  0  0
   -0.1042   -1.2790    0.0000 C   0  0  0  0  0  0  0  0  0  0  0  0
    1.5998    1.0707    0.0000 C   0  0  0  0  0  0  0  0  0  0  0  0
   -2.8121    1.5998    0.0000 C   0  0  0  0  0  0  0  0  0  0  0  0
   -3.2245    2.3164    0.0000 C   0  0  0  0  0  0  0  0  0  0  0  0
   -0.9124   -1.4498    0.0000 C   0  0  0  0  0  0  0  0  0  0  0  0
   -1.5748   -0.5416    0.0000 O   0  0  0  0  0  0  0  0  0  0  0  0
   -1.5748    0.8874    0.0000 N   0  0  0  0  0  0  0  0  0  0  0  0
    2.3539    0.7332    0.0000 C   0  0  0  0  0  0  0  0  0  0  0  0
    1.5165    1.8914    0.0000 C   0  0  0  0  0  0  0  0  0  0  0  0
   -1.1665   -2.2372    0.0000 C   0  0  0  0  0  0  0  0  0  0  0  0
    2.1830    2.3747    0.0000 C   0  0  0  0  0  0  0  0  0  0  0  0
    3.0204    1.2206    0.0000 C   0  0  0  0  0  0  0  0  0  0  0  0
    2.9371    2.0414    0.0000 C   0  0  0  0  0  0  0  0  0  0  0  0
   -2.3997    0.8874    0.0000 C   0  0  0  0  0  0  0  0  0  0  0  0
    0.4457   -1.8914    0.0000 C   0  0  0  0  0  0  0  0  0  0  0  0
   -1.9747   -2.4080    0.0000 O   0  0  0  0  0  0  0  0  0  0  0  0
    0.1917   -2.6788    0.0000 C   0  0  0  0  0  0  0  0  0  0  0  0
   -0.6166   -2.8496    0.0000 C   0  0  0  0  0  0  0  0  0  0  0  0
    3.6037    2.5246    0.0000 C   0  0  0  0  0  0  0  0  0  0  0  0
   -2.2289   -3.1913    0.0000 C   0  0  0  0  0  0  0  0  0  0  0  0
  2  3  2  0  0  0  0
  3  1  1  0  0  0  0
  4  5  1  0  0  0  0
  4  2  1  0  0  0  0
  5  1  2  0  0  0  0
  6  1  1  0  0  0  0
  7  3  1  0  0  0  0
  8  4  1  0  0  0  0
  9 20  1  0  0  0  0
 10  9  3  0  0  0  0
 11  7  1  0  0  0  0
 12  6  2  0  0  0  0
 13  6  1  0  0  0  0
 14  8  1  0  0  0  0
 15  8  2  0  0  0  0
 16 11  2  0  0  0  0
 17 15  1  0  0  0  0
 18 14  2  0  0  0  0
 19 17  2  0  0  0  0
 19 18  1  0  0  0  0
 20 13  1  0  0  0  0
 21  7  2  0  0  0  0
 22 16  1  0  0  0  0
 23 21  1  0  0  0  0
 23 24  2  0  0  0  0
 24 16  1  0  0  0  0
 25 19  1  0  0  0  0
 26 22  1  0  0  0  0
M  END
> <CdId>
3960

> <Mol Weight>
345.3945

> <Formula>
C21H19N3O2

> <Click_ID>
CLK051H10 __ __ 

$$$$
