CLK045C07
 OpenBabel03181404502D

 24 25  0  0  0  0  0  0  0  0999 V2000
    0.0417   -2.6089    0.0000 N   0  0  0  0  0  0  0  0  0  0  0  0
    0.8252   -2.3547    0.0000 N   0  0  0  0  0  0  0  0  0  0  0  0
    0.0417   -1.2711    0.0000 C   0  0  0  0  0  0  0  0  0  0  0  0
   -0.4459   -1.9421    0.0000 C   0  0  0  0  0  0  0  0  0  0  0  0
    0.8252   -1.5295    0.0000 C   0  0  0  0  0  0  0  0  0  0  0  0
   -0.2125   -0.4876    0.0000 C   0  0  0  0  0  0  0  0  0  0  0  0
   -1.4878    3.4382    0.0000 C   0  0  0  0  0  0  0  0  0  0  0  0
   -2.2963    3.6091    0.0000 C   0  0  0  0  0  0  0  0  0  0  0  0
   -0.2125   -3.3924    0.0000 C   0  0  0  0  0  0  0  0  0  0  0  0
    0.0833    0.9085    0.0000 C   0  0  0  0  0  0  0  0  0  0  0  0
    0.6334    1.5253    0.0000 N   0  0  0  0  0  0  0  0  0  0  0  0
    0.3793    2.3088    0.0000 C   0  0  0  0  0  0  0  0  0  0  0  0
   -0.7252    1.0835    0.0000 O   0  0  0  0  0  0  0  0  0  0  0  0
    0.3376    0.1250    0.0000 C   0  0  0  0  0  0  0  0  0  0  0  0
   -0.6834    3.2632    0.0000 C   0  0  0  0  0  0  0  0  0  0  0  0
   -0.4251    2.4797    0.0000 C   0  0  0  0  0  0  0  0  0  0  0  0
   -1.2711   -1.9421    0.0000 C   0  0  0  0  0  0  0  0  0  0  0  0
    1.4920   -1.0419    0.0000 C   0  0  0  0  0  0  0  0  0  0  0  0
    0.3376   -4.0051    0.0000 C   0  0  0  0  0  0  0  0  0  0  0  0
    0.6793    3.7050    0.0000 C   0  0  0  0  0  0  0  0  0  0  0  0
    0.9335    2.9214    0.0000 C   0  0  0  0  0  0  0  0  0  0  0  0
   -0.1292    3.8758    0.0000 C   0  0  0  0  0  0  0  0  0  0  0  0
    0.0833   -4.7885    0.0000 C   0  0  0  0  0  0  0  0  0  0  0  0
    1.1460   -3.8341    0.0000 C   0  0  0  0  0  0  0  0  0  0  0  0
  2  1  1  0  0  0  0
  3  4  2  0  0  0  0
  3  5  1  0  0  0  0
  4  1  1  0  0  0  0
  5  2  2  0  0  0  0
  6  3  1  0  0  0  0
  7 15  1  0  0  0  0
  8  7  3  0  0  0  0
  9  1  1  0  0  0  0
 10 14  1  0  0  0  0
 11 10  1  0  0  0  0
 12 11  1  0  0  0  0
 13 10  2  0  0  0  0
 14  6  1  0  0  0  0
 15 16  1  0  0  0  0
 16 12  2  0  0  0  0
 17  4  1  0  0  0  0
 18  5  1  0  0  0  0
 19  9  1  0  0  0  0
 20 21  2  0  0  0  0
 21 12  1  0  0  0  0
 22 15  2  0  0  0  0
 22 20  1  0  0  0  0
 23 19  1  0  0  0  0
 24 19  1  0  0  0  0
M  END
> <CdId>
3451

> <Mol Weight>
323.432

> <Formula>
C20H25N3O

> <Click_ID>
CLK045C07 __ __ 

$$$$
