CLK024_G06
 OpenBabel03181404502D

 30 33  0  0  0  0  0  0  0  0999 V2000
   -2.6706   -0.0378    0.0000 N    0  0  0  0  0  0  0  0  0  0  0  0
   -2.6500   -0.8696    0.0000 C    0  0  0  0  0  0  0  0  0  0  0  0
   -1.3989   -0.4124    0.0000 C    0  0  0  0  0  0  0  0  0  0  0  0
   -1.8973    0.2372    0.0000 C    0  0  0  0  0  0  0  0  0  0  0  0
   -1.8595   -1.0965    0.0000 S    0  0  0  0  0  0  0  0  0  0  0  0
   -0.5671   -0.3850    0.0000 C    0  0  0  0  0  0  0  0  0  0  0  0
   -0.1753    0.3265    0.0000 C    0  0  0  0  0  0  0  0  0  0  0  0
   -4.0901    0.0619    0.0000 C    0  0  0  0  0  0  0  0  0  0  0  0
   -4.8119   -0.3231    0.0000 C    0  0  0  0  0  0  0  0  0  0  0  0
   -3.2961   -1.3576    0.0000 O    0  0  0  0  0  0  0  0  0  0  0  0
    0.6461    0.3471    0.0000 C    0  0  0  0  0  0  0  0  0  0  0  0
   -1.6636    1.0243    0.0000 O    0  0  0  0  0  0  0  0  0  0  0  0
    3.1518   -1.0105    0.0000 C    0  0  0  0  0  0  0  0  0  0  0  0
   -3.3408    0.4228    0.0000 C    0  0  0  0  0  0  0  0  0  0  0  0
    1.0792   -0.3506    0.0000 O    0  0  0  0  0  0  0  0  0  0  0  0
   -0.6049    1.0346    0.0000 C    0  0  0  0  0  0  0  0  0  0  0  0
    2.3303   -1.0311    0.0000 C    0  0  0  0  0  0  0  0  0  0  0  0
    1.9041   -0.3231    0.0000 C    0  0  0  0  0  0  0  0  0  0  0  0
    1.0414    1.0758    0.0000 C    0  0  0  0  0  0  0  0  0  0  0  0
    3.5883   -1.7220    0.0000 C    0  0  0  0  0  0  0  0  0  0  0  0
   -0.2131    1.7564    0.0000 C    0  0  0  0  0  0  0  0  0  0  0  0
    0.6187    1.7838    0.0000 C    0  0  0  0  0  0  0  0  0  0  0  0
   -0.6358    2.4678    0.0000 Br   0  0  0  0  0  0  0  0  0  0  0  0
    2.3544   -2.4644    0.0000 C    0  0  0  0  0  0  0  0  0  0  0  0
    1.9317   -1.7564    0.0000 C    0  0  0  0  0  0  0  0  0  0  0  0
    3.5505   -0.2819    0.0000 C    0  0  0  0  0  0  0  0  0  0  0  0
    3.1862   -2.4403    0.0000 C    0  0  0  0  0  0  0  0  0  0  0  0
    4.4064   -1.7048    0.0000 C    0  0  0  0  0  0  0  0  0  0  0  0
    4.3720   -0.2612    0.0000 C    0  0  0  0  0  0  0  0  0  0  0  0
    4.8085   -0.9796    0.0000 C    0  0  0  0  0  0  0  0  0  0  0  0
  2  1  1  0  0  0  0
  3  4  1  0  0  0  0
  4  1  1  0  0  0  0
  5  2  1  0  0  0  0
  5  3  1  0  0  0  0
  6  3  2  0  0  0  0
  7  6  1  0  0  0  0
  8 14  1  0  0  0  0
  9  8  3  0  0  0  0
 10  2  2  0  0  0  0
 11  7  1  0  0  0  0
 12  4  2  0  0  0  0
 13 17  1  0  0  0  0
 14  1  1  0  0  0  0
 15 11  1  0  0  0  0
 16  7  2  0  0  0  0
 17 18  1  0  0  0  0
 18 15  1  0  0  0  0
 19 11  2  0  0  0  0
 20 13  1  0  0  0  0
 21 16  1  0  0  0  0
 22 21  2  0  0  0  0
 22 19  1  0  0  0  0
 23 21  1  0  0  0  0
 24 25  1  0  0  0  0
 25 17  2  0  0  0  0
 26 13  2  0  0  0  0
 27 24  2  0  0  0  0
 27 20  1  0  0  0  0
 28 20  2  0  0  0  0
 29 26  1  0  0  0  0
 30 29  2  0  0  0  0
 30 28  1  0  0  0  0
M  END
> <CdId>
1841

> <Mol Weight>
478.358

> <Formula>
C24H16BrNO3S

> <Click_ID>
CLK024_G06 __ __ 

$$$$
