CLK042C09
 OpenBabel03181404502D

 23 24  0  0  0  0  0  0  0  0999 V2000
   -0.1875    0.7917    0.0000 S   0  0  0  0  0  0  0  0  0  0  0  0
   -0.1875   -0.0333    0.0000 N   0  0  0  0  0  0  0  0  0  0  0  0
   -0.1875    1.6167    0.0000 C   0  0  0  0  0  0  0  0  0  0  0  0
   -0.1875    4.9125    0.0000 N   0  0  0  0  0  0  0  0  0  0  0  0
   -0.1875   -2.5083    0.0000 C   0  0  0  0  0  0  0  0  0  0  0  0
   -1.0125    0.7917    0.0000 O   0  0  0  0  0  0  0  0  0  0  0  0
    0.6375    0.7917    0.0000 O   0  0  0  0  0  0  0  0  0  0  0  0
    1.2417   -4.1583    0.0000 C   0  0  0  0  0  0  0  0  0  0  0  0
    1.9542   -4.5708    0.0000 C   0  0  0  0  0  0  0  0  0  0  0  0
   -0.1875    4.0875    0.0000 C   0  0  0  0  0  0  0  0  0  0  0  0
    0.5250   -0.4458    0.0000 C   0  0  0  0  0  0  0  0  0  0  0  0
   -0.9042   -0.4458    0.0000 C   0  0  0  0  0  0  0  0  0  0  0  0
   -0.1875   -1.6833    0.0000 C   0  0  0  0  0  0  0  0  0  0  0  0
   -0.9042   -2.9208    0.0000 O   0  0  0  0  0  0  0  0  0  0  0  0
    0.5250   -1.2708    0.0000 C   0  0  0  0  0  0  0  0  0  0  0  0
   -0.9042   -1.2708    0.0000 C   0  0  0  0  0  0  0  0  0  0  0  0
    0.5250    2.0292    0.0000 C   0  0  0  0  0  0  0  0  0  0  0  0
   -0.9042    2.0292    0.0000 C   0  0  0  0  0  0  0  0  0  0  0  0
    0.5250   -2.9208    0.0000 N   0  0  0  0  0  0  0  0  0  0  0  0
   -0.1875    3.2667    0.0000 C   0  0  0  0  0  0  0  0  0  0  0  0
   -0.9042    2.8542    0.0000 C   0  0  0  0  0  0  0  0  0  0  0  0
    0.5250    2.8542    0.0000 C   0  0  0  0  0  0  0  0  0  0  0  0
    0.5250   -3.7458    0.0000 C   0  0  0  0  0  0  0  0  0  0  0  0
  2  1  1  0  0  0  0
  3  1  1  0  0  0  0
  4 10  3  0  0  0  0
  5 13  1  0  0  0  0
  6  1  2  0  0  0  0
  7  1  2  0  0  0  0
  8 23  1  0  0  0  0
  9  8  3  0  0  0  0
 10 20  1  0  0  0  0
 11  2  1  0  0  0  0
 12  2  1  0  0  0  0
 13 16  1  0  0  0  0
 14  5  2  0  0  0  0
 15 11  1  0  0  0  0
 15 13  1  0  0  0  0
 16 12  1  0  0  0  0
 17  3  1  0  0  0  0
 18  3  2  0  0  0  0
 19  5  1  0  0  0  0
 20 21  2  0  0  0  0
 20 22  1  0  0  0  0
 21 18  1  0  0  0  0
 22 17  2  0  0  0  0
 23 19  1  0  0  0  0
M  END
> <CdId>
3227

> <Mol Weight>
331.389

> <Formula>
C16H17N3O3S

> <Click_ID>
CLK042C09 __ __ 

$$$$
