CLK032_A05
 OpenBabel03181404502D

 28 30  0  0  0  0  0  0  0  0999 V2000
   -1.1643    2.3871    0.0000 C    0  0  0  0  0  0  0  0  0  0  0  0
   -1.6484    1.7235    0.0000 N    0  0  0  0  0  0  0  0  0  0  0  0
   -0.3380    2.3787    0.0000 N    0  0  0  0  0  0  0  0  0  0  0  0
   -1.6484    3.0548    0.0000 S    0  0  0  0  0  0  0  0  0  0  0  0
   -2.4371    2.8002    0.0000 C    0  0  0  0  0  0  0  0  0  0  0  0
   -2.4371    1.9739    0.0000 C    0  0  0  0  0  0  0  0  0  0  0  0
    0.0751    3.0924    0.0000 C    0  0  0  0  0  0  0  0  0  0  0  0
   -3.1508    3.2134    0.0000 C    0  0  0  0  0  0  0  0  0  0  0  0
    1.3146    3.8018    0.0000 C    0  0  0  0  0  0  0  0  0  0  0  0
   -1.9489    0.3213    0.0000 C    0  0  0  0  0  0  0  0  0  0  0  0
    0.9014    3.0924    0.0000 C    0  0  0  0  0  0  0  0  0  0  0  0
   -2.4997   -0.2922    0.0000 C    0  0  0  0  0  0  0  0  0  0  0  0
   -3.1508    1.5608    0.0000 C    0  0  0  0  0  0  0  0  0  0  0  0
   -5.2958    2.8044    0.0000 C    0  0  0  0  0  0  0  0  0  0  0  0
   -4.5905    3.2176    0.0000 N    0  0  0  0  0  0  0  0  0  0  0  0
   -3.8644    2.8002    0.0000 C    0  0  0  0  0  0  0  0  0  0  0  0
    2.1326    3.8143    0.0000 C    0  0  0  0  0  0  0  0  0  0  0  0
   -1.3980    0.9348    0.0000 C    0  0  0  0  0  0  0  0  0  0  0  0
   -0.3380    3.8060    0.0000 O    0  0  0  0  0  0  0  0  0  0  0  0
   -6.0095    3.2176    0.0000 O    0  0  0  0  0  0  0  0  0  0  0  0
    2.5582    3.1007    0.0000 C    0  0  0  0  0  0  0  0  0  0  0  0
   -3.8644    1.9739    0.0000 C    0  0  0  0  0  0  0  0  0  0  0  0
    2.1451    2.3745    0.0000 Cl   0  0  0  0  0  0  0  0  0  0  0  0
   -5.3041    1.9781    0.0000 C    0  0  0  0  0  0  0  0  0  0  0  0
    2.5540    4.5238    0.0000 C    0  0  0  0  0  0  0  0  0  0  0  0
    3.3970    3.1132    0.0000 C    0  0  0  0  0  0  0  0  0  0  0  0
    3.8060    3.8185    0.0000 C    0  0  0  0  0  0  0  0  0  0  0  0
    3.3845    4.5321    0.0000 C    0  0  0  0  0  0  0  0  0  0  0  0
  2  1  1  0  0  0  0
  3  1  2  0  0  0  0
  4  1  1  0  0  0  0
  5  4  1  0  0  0  0
  5  6  2  0  0  0  0
  6  2  1  0  0  0  0
  7  3  1  0  0  0  0
  8  5  1  0  0  0  0
  9 11  2  0  0  0  0
 10 18  1  0  0  0  0
 11  7  1  0  0  0  0
 12 10  3  0  0  0  0
 13  6  1  0  0  0  0
 14 15  1  0  0  0  0
 15 16  1  0  0  0  0
 16  8  2  0  0  0  0
 16 22  1  0  0  0  0
 17  9  1  0  0  0  0
 18  2  1  0  0  0  0
 19  7  2  0  0  0  0
 20 14  2  0  0  0  0
 21 17  2  0  0  0  0
 22 13  2  0  0  0  0
 23 21  1  0  0  0  0
 24 14  1  0  0  0  0
 25 17  1  0  0  0  0
 26 21  1  0  0  0  0
 27 28  1  0  0  0  0
 27 26  2  0  0  0  0
 28 25  2  0  0  0  0
M  END
> <CdId>
2409

> <Mol Weight>
409.889

> <Formula>
C21H16ClN3O2S

> <Click_ID>
CLK032_A05 __ __ 

$$$$
