CLK020_F05
 OpenBabel03181404502D

 23 24  0  0  0  0  0  0  0  0999 V2000
    2.7943    4.6724    0.0000 C   0  0  0  0  0  0  0  0  0  0  0  0
    3.5043    5.0847    0.0000 C   0  0  0  0  0  0  0  0  0  0  0  0
    2.0797    5.0847    0.0000 C   0  0  0  0  0  0  0  0  0  0  0  0
    1.3651    5.4969    0.0000 N   0  0  0  0  0  0  0  0  0  0  0  0
    7.7919    3.4447    0.0000 C   0  0  0  0  0  0  0  0  0  0  0  0
    8.5065    3.0324    0.0000 C   0  0  0  0  0  0  0  0  0  0  0  0
    4.9335    3.4447    0.0000 C   0  0  0  0  0  0  0  0  0  0  0  0
    2.7943    3.8570    0.0000 C   0  0  0  0  0  0  0  0  0  0  0  0
    4.2189    4.6724    0.0000 C   0  0  0  0  0  0  0  0  0  0  0  0
    4.2189    3.8570    0.0000 C   0  0  0  0  0  0  0  0  0  0  0  0
    5.6481    3.8570    0.0000 C   0  0  0  0  0  0  0  0  0  0  0  0
    2.0797    3.4447    0.0000 C   0  0  0  0  0  0  0  0  0  0  0  0
    3.5043    3.4447    0.0000 C   0  0  0  0  0  0  0  0  0  0  0  0
    5.6481    4.6724    0.0000 C   0  0  0  0  0  0  0  0  0  0  0  0
    4.9335    5.0847    0.0000 C   0  0  0  0  0  0  0  0  0  0  0  0
    2.7943    2.2079    0.0000 C   0  0  0  0  0  0  0  0  0  0  0  0
    2.0797    2.6202    0.0000 C   0  0  0  0  0  0  0  0  0  0  0  0
    3.5043    2.6202    0.0000 C   0  0  0  0  0  0  0  0  0  0  0  0
    4.9335    2.6202    0.0000 O   0  0  0  0  0  0  0  0  0  0  0  0
    2.7943    1.3834    0.0000 F   0  0  0  0  0  0  0  0  0  0  0  0
    6.3627    3.4447    0.0000 O   0  0  0  0  0  0  0  0  0  0  0  0
    7.0773    3.8570    0.0000 C   0  0  0  0  0  0  0  0  0  0  0  0
    4.2189    2.2079    0.0000 C   0  0  0  0  0  0  0  0  0  0  0  0
  2  1  2  0  0  0  0
  3  1  1  0  0  0  0
  4  3  3  0  0  0  0
  5 22  1  0  0  0  0
  6  5  3  0  0  0  0
  7 10  1  0  0  0  0
  8  1  1  0  0  0  0
  9  2  1  0  0  0  0
 10  9  2  0  0  0  0
 11 14  1  0  0  0  0
 11  7  2  0  0  0  0
 12  8  1  0  0  0  0
 13  8  2  0  0  0  0
 14 15  2  0  0  0  0
 15  9  1  0  0  0  0
 16 18  2  0  0  0  0
 16 17  1  0  0  0  0
 17 12  2  0  0  0  0
 18 13  1  0  0  0  0
 19  7  1  0  0  0  0
 20 16  1  0  0  0  0
 21 11  1  0  0  0  0
 22 21  1  0  0  0  0
 23 19  1  0  0  0  0
M  END
> <CdId>
1530

> <Mol Weight>
307.3184

> <Formula>
C19H14FNO2

> <Click_ID>
CLK020_F05 __ __ 

$$$$
