CLK025_E04
 OpenBabel03181404502D

 30 33  0  0  0  0  0  0  0  0999 V2000
    2.0516   -0.3207    0.0000 C    0  0  0  0  0  0  0  0  0  0  0  0
    2.2274   -1.1275    0.0000 C    0  0  0  0  0  0  0  0  0  0  0  0
    2.7687    0.0931    0.0000 C    0  0  0  0  0  0  0  0  0  0  0  0
    3.0446   -1.2171    0.0000 N    0  0  0  0  0  0  0  0  0  0  0  0
    3.3825   -0.4655    0.0000 C    0  0  0  0  0  0  0  0  0  0  0  0
    1.3275    0.0931    0.0000 N    0  0  0  0  0  0  0  0  0  0  0  0
   -0.1000    0.0931    0.0000 C    0  0  0  0  0  0  0  0  0  0  0  0
    0.6138   -0.3207    0.0000 N    0  0  0  0  0  0  0  0  0  0  0  0
    4.2859   -1.9550    0.0000 C    0  0  0  0  0  0  0  0  0  0  0  0
    4.1687   -0.2137    0.0000 C    0  0  0  0  0  0  0  0  0  0  0  0
    5.1100   -1.9688    0.0000 C    0  0  0  0  0  0  0  0  0  0  0  0
    2.9412    0.8931    0.0000 C    0  0  0  0  0  0  0  0  0  0  0  0
    1.6792   -1.7516    0.0000 O    0  0  0  0  0  0  0  0  0  0  0  0
   -3.6825   -0.3138    0.0000 C    0  0  0  0  0  0  0  0  0  0  0  0
    3.4584   -1.9412    0.0000 C    0  0  0  0  0  0  0  0  0  0  0  0
   -0.1000    0.9275    0.0000 O    0  0  0  0  0  0  0  0  0  0  0  0
   -2.9687    0.1000    0.0000 C    0  0  0  0  0  0  0  0  0  0  0  0
   -1.5274    0.1000    0.0000 N    0  0  0  0  0  0  0  0  0  0  0  0
   -0.8137   -0.3207    0.0000 C    0  0  0  0  0  0  0  0  0  0  0  0
   -3.6825   -1.1413    0.0000 C    0  0  0  0  0  0  0  0  0  0  0  0
   -2.2550   -0.3138    0.0000 C    0  0  0  0  0  0  0  0  0  0  0  0
   -2.9687   -1.5551    0.0000 C    0  0  0  0  0  0  0  0  0  0  0  0
    3.7204    1.1517    0.0000 C    0  0  0  0  0  0  0  0  0  0  0  0
    4.3480    0.5896    0.0000 C    0  0  0  0  0  0  0  0  0  0  0  0
   -2.2550   -1.1413    0.0000 C    0  0  0  0  0  0  0  0  0  0  0  0
    3.8825    1.9722    0.0000 Br   0  0  0  0  0  0  0  0  0  0  0  0
   -4.3962    0.1000    0.0000 C    0  0  0  0  0  0  0  0  0  0  0  0
   -4.3962   -1.5551    0.0000 C    0  0  0  0  0  0  0  0  0  0  0  0
   -5.1100   -0.3138    0.0000 C    0  0  0  0  0  0  0  0  0  0  0  0
   -5.1100   -1.1413    0.0000 C    0  0  0  0  0  0  0  0  0  0  0  0
  2  1  1  0  0  0  0
  3  1  1  0  0  0  0
  4  2  1  0  0  0  0
  5  3  2  0  0  0  0
  5  4  1  0  0  0  0
  6  1  2  0  0  0  0
  7  8  1  0  0  0  0
  8  6  1  0  0  0  0
  9 15  1  0  0  0  0
 10  5  1  0  0  0  0
 11  9  3  0  0  0  0
 12  3  1  0  0  0  0
 13  2  2  0  0  0  0
 14 17  2  0  0  0  0
 15  4  1  0  0  0  0
 16  7  2  0  0  0  0
 17 21  1  0  0  0  0
 18 19  1  0  0  0  0
 19  7  1  0  0  0  0
 20 22  2  0  0  0  0
 20 14  1  0  0  0  0
 21 18  1  0  0  0  0
 22 25  1  0  0  0  0
 23 12  2  0  0  0  0
 24 23  1  0  0  0  0
 24 10  2  0  0  0  0
 25 21  2  0  0  0  0
 26 23  1  0  0  0  0
 27 14  1  0  0  0  0
 28 20  1  0  0  0  0
 29 27  2  0  0  0  0
 30 28  2  0  0  0  0
 30 29  1  0  0  0  0
M  END
> <CdId>
1899

> <Mol Weight>
461.311

> <Formula>
C23H17BrN4O2

> <Click_ID>
CLK025_E04 __ __ 

$$$$
