CLK016_D10
 OpenBabel03181404502D

 29 31  0  0  0  0  0  0  0  0999 V2000
    1.5596   -0.8130    0.0000 N   0  0  0  0  0  0  0  0  0  0  0  0
    1.8167   -1.5969    0.0000 C   0  0  0  0  0  0  0  0  0  0  0  0
    2.8910   -0.8130    0.0000 C   0  0  0  0  0  0  0  0  0  0  0  0
    2.2273   -0.3277    0.0000 C   0  0  0  0  0  0  0  0  0  0  0  0
    2.6379   -1.5969    0.0000 S   0  0  0  0  0  0  0  0  0  0  0  0
    3.6749   -0.5599    0.0000 C   0  0  0  0  0  0  0  0  0  0  0  0
    0.6097    0.2447    0.0000 C   0  0  0  0  0  0  0  0  0  0  0  0
    3.8491    0.2447    0.0000 C   0  0  0  0  0  0  0  0  0  0  0  0
    0.3899    1.0410    0.0000 C   0  0  0  0  0  0  0  0  0  0  0  0
    6.2008    1.0079    0.0000 C   0  0  0  0  0  0  0  0  0  0  0  0
    1.3314   -2.2564    0.0000 O   0  0  0  0  0  0  0  0  0  0  0  0
    2.2190    0.4935    0.0000 O   0  0  0  0  0  0  0  0  0  0  0  0
    6.9805    1.2650    0.0000 N   0  0  0  0  0  0  0  0  0  0  0  0
    0.7839   -0.5599    0.0000 C   0  0  0  0  0  0  0  0  0  0  0  0
    4.6330    0.5060    0.0000 C   0  0  0  0  0  0  0  0  0  0  0  0
    5.2427   -0.0498    0.0000 O   0  0  0  0  0  0  0  0  0  0  0  0
    5.5911    1.5636    0.0000 O   0  0  0  0  0  0  0  0  0  0  0  0
    6.0266    0.2074    0.0000 C   0  0  0  0  0  0  0  0  0  0  0  0
    7.1589    2.0738    0.0000 C   0  0  0  0  0  0  0  0  0  0  0  0
    7.4949    3.6914    0.0000 C   0  0  0  0  0  0  0  0  0  0  0  0
    7.6691    4.4919    0.0000 F   0  0  0  0  0  0  0  0  0  0  0  0
    7.9428    2.3268    0.0000 C   0  0  0  0  0  0  0  0  0  0  0  0
    6.5368    2.6213    0.0000 C   0  0  0  0  0  0  0  0  0  0  0  0
    8.1128    3.1439    0.0000 C   0  0  0  0  0  0  0  0  0  0  0  0
    6.7110    3.4301    0.0000 C   0  0  0  0  0  0  0  0  0  0  0  0
    3.2352    0.7964    0.0000 C   0  0  0  0  0  0  0  0  0  0  0  0
    4.8072    1.3065    0.0000 C   0  0  0  0  0  0  0  0  0  0  0  0
    3.4094    1.6051    0.0000 C   0  0  0  0  0  0  0  0  0  0  0  0
    4.1933    1.8623    0.0000 C   0  0  0  0  0  0  0  0  0  0  0  0
  2  1  1  0  0  0  0
  3  4  1  0  0  0  0
  3  5  1  0  0  0  0
  4  1  1  0  0  0  0
  5  2  1  0  0  0  0
  6  3  2  0  0  0  0
  7 14  1  0  0  0  0
  8  6  1  0  0  0  0
  9  7  3  0  0  0  0
 10 18  1  0  0  0  0
 11  2  2  0  0  0  0
 12  4  2  0  0  0  0
 13 10  1  0  0  0  0
 14  1  1  0  0  0  0
 15  8  1  0  0  0  0
 16 15  1  0  0  0  0
 17 10  2  0  0  0  0
 18 16  1  0  0  0  0
 19 13  1  0  0  0  0
 20 25  2  0  0  0  0
 21 20  1  0  0  0  0
 22 19  1  0  0  0  0
 23 19  2  0  0  0  0
 24 22  2  0  0  0  0
 24 20  1  0  0  0  0
 25 23  1  0  0  0  0
 26  8  2  0  0  0  0
 27 15  2  0  0  0  0
 27 29  1  0  0  0  0
 28 26  1  0  0  0  0
 29 28  2  0  0  0  0
M  END
> <CdId>
1195

> <Mol Weight>
410.418

> <Formula>
C21H15FN2O4S

> <Click_ID>
CLK016_D10 __ __ 

$$$$
