CLK018_C11
 OpenBabel03181404502D

 26 28  0  0  0  0  0  0  0  0999 V2000
    1.5644   -0.8155    0.0000 N   0  0  0  0  0  0  0  0  0  0  0  0
    1.8223   -1.6018    0.0000 C   0  0  0  0  0  0  0  0  0  0  0  0
    2.8999   -0.8155    0.0000 C   0  0  0  0  0  0  0  0  0  0  0  0
    2.2342   -0.3287    0.0000 C   0  0  0  0  0  0  0  0  0  0  0  0
    2.6461   -1.6018    0.0000 S   0  0  0  0  0  0  0  0  0  0  0  0
    3.6862   -0.5617    0.0000 C   0  0  0  0  0  0  0  0  0  0  0  0
    0.6116    0.2454    0.0000 C   0  0  0  0  0  0  0  0  0  0  0  0
    3.8567    0.2454    0.0000 C   0  0  0  0  0  0  0  0  0  0  0  0
    0.3911    1.0442    0.0000 C   0  0  0  0  0  0  0  0  0  0  0  0
    1.3355   -2.2633    0.0000 O   0  0  0  0  0  0  0  0  0  0  0  0
    2.2259    0.4951    0.0000 O   0  0  0  0  0  0  0  0  0  0  0  0
    0.7863   -0.5617    0.0000 C   0  0  0  0  0  0  0  0  0  0  0  0
    4.6431    0.4993    0.0000 C   0  0  0  0  0  0  0  0  0  0  0  0
    5.2464   -0.0541    0.0000 O   0  0  0  0  0  0  0  0  0  0  0  0
    6.0410    0.1955    0.0000 C   0  0  0  0  0  0  0  0  0  0  0  0
    7.4306   -0.1040    0.0000 C   0  0  0  0  0  0  0  0  0  0  0  0
    8.0422   -0.6615    0.0000 C   0  0  0  0  0  0  0  0  0  0  0  0
    6.6443   -0.3537    0.0000 C   0  0  0  0  0  0  0  0  0  0  0  0
    8.8285   -0.4161    0.0000 F   0  0  0  0  0  0  0  0  0  0  0  0
    7.0811   -1.7224    0.0000 C   0  0  0  0  0  0  0  0  0  0  0  0
    3.2494    0.7988    0.0000 C   0  0  0  0  0  0  0  0  0  0  0  0
    4.8095    1.3064    0.0000 C   0  0  0  0  0  0  0  0  0  0  0  0
    7.8675   -1.4645    0.0000 C   0  0  0  0  0  0  0  0  0  0  0  0
    6.4696   -1.1650    0.0000 C   0  0  0  0  0  0  0  0  0  0  0  0
    3.4199    1.6059    0.0000 C   0  0  0  0  0  0  0  0  0  0  0  0
    4.2062    1.8555    0.0000 C   0  0  0  0  0  0  0  0  0  0  0  0
  2  1  1  0  0  0  0
  3  4  1  0  0  0  0
  3  5  1  0  0  0  0
  4  1  1  0  0  0  0
  5  2  1  0  0  0  0
  6  3  2  0  0  0  0
  7 12  1  0  0  0  0
  8  6  1  0  0  0  0
  9  7  3  0  0  0  0
 10  2  2  0  0  0  0
 11  4  2  0  0  0  0
 12  1  1  0  0  0  0
 13  8  1  0  0  0  0
 14 13  1  0  0  0  0
 15 14  1  0  0  0  0
 16 18  1  0  0  0  0
 17 16  2  0  0  0  0
 17 23  1  0  0  0  0
 18 15  1  0  0  0  0
 19 17  1  0  0  0  0
 20 24  1  0  0  0  0
 21  8  2  0  0  0  0
 22 13  2  0  0  0  0
 22 26  1  0  0  0  0
 23 20  2  0  0  0  0
 24 18  2  0  0  0  0
 25 21  1  0  0  0  0
 26 25  2  0  0  0  0
M  END
> <CdId>
1346

> <Mol Weight>
367.393

> <Formula>
C20H14FNO3S

> <Click_ID>
CLK018_C11 __ __ 

$$$$
