CLK041D02
 OpenBabel03181404502D

 16 16  0  0  0  0  0  0  0  0999 V2000
    0.8917   -2.3167    0.0000 N   0  3  0  0  0  0  0  0  0  0  0  0
   -0.5375    0.9833    0.0000 C   0  0  0  0  0  0  0  0  0  0  0  0
    0.8917   -1.4917    0.0000 C   0  0  0  0  0  0  0  0  0  0  0  0
   -1.9667    2.6333    0.0000 C   0  0  0  0  0  0  0  0  0  0  0  0
   -2.6833    3.0458    0.0000 C   0  0  0  0  0  0  0  0  0  0  0  0
    0.1750   -1.0792    0.0000 C   0  0  0  0  0  0  0  0  0  0  0  0
   -0.5375    0.1583    0.0000 N   0  0  0  0  0  0  0  0  0  0  0  0
    0.1750   -2.7292    0.0000 O   0  5  0  0  0  0  0  0  0  0  0  0
    1.6042   -2.7292    0.0000 O   0  0  0  0  0  0  0  0  0  0  0  0
    0.1750   -0.2542    0.0000 C   0  0  0  0  0  0  0  0  0  0  0  0
    0.1750    1.3958    0.0000 O   0  0  0  0  0  0  0  0  0  0  0  0
   -1.2542    1.3958    0.0000 N   0  0  0  0  0  0  0  0  0  0  0  0
   -1.2542    2.2208    0.0000 C   0  0  0  0  0  0  0  0  0  0  0  0
    1.6042   -1.0792    0.0000 C   0  0  0  0  0  0  0  0  0  0  0  0
    1.6042   -0.2542    0.0000 C   0  0  0  0  0  0  0  0  0  0  0  0
    0.8917    0.1583    0.0000 C   0  0  0  0  0  0  0  0  0  0  0  0
  2  7  1  0  0  0  0
  3  1  1  0  0  0  0
  4 13  1  0  0  0  0
  5  4  3  0  0  0  0
  6  3  2  0  0  0  0
  7 10  1  0  0  0  0
  8  1  1  0  0  0  0
  9  1  2  0  0  0  0
 10  6  1  0  0  0  0
 11  2  2  0  0  0  0
 12  2  1  0  0  0  0
 13 12  1  0  0  0  0
 14  3  1  0  0  0  0
 15 14  2  0  0  0  0
 16 10  2  0  0  0  0
 16 15  1  0  0  0  0
M  END
> <CdId>
3092

> <Mol Weight>
219.1968

> <Formula>
C10H9N3O3

> <Click_ID>
CLK041D02 __ __ 

$$$$
