CLK035_B10
 OpenBabel03181404502D

 20 22  0  0  0  0  0  0  0  0999 V2000
   -3.5377    2.4488    0.0000 C    0  0  0  0  0  0  0  0  0  0  0  0
   -3.2805    3.2345    0.0000 C    0  0  0  0  0  0  0  0  0  0  0  0
   -4.3648    2.4488    0.0000 N    0  0  0  0  0  0  0  0  0  0  0  0
   -2.9773    1.8424    0.0000 N    0  0  0  0  0  0  0  0  0  0  0  0
   -2.4764    3.4137    0.0000 C    0  0  0  0  0  0  0  0  0  0  0  0
   -4.6129    3.2345    0.0000 N    0  0  0  0  0  0  0  0  0  0  0  0
   -1.9251    2.8072    0.0000 N    0  0  0  0  0  0  0  0  0  0  0  0
   -3.9559    3.7169    0.0000 C    0  0  0  0  0  0  0  0  0  0  0  0
   -2.1732    2.0124    0.0000 C    0  0  0  0  0  0  0  0  0  0  0  0
   -4.8748    1.8010    0.0000 C    0  0  0  0  0  0  0  0  0  0  0  0
   -0.5467    2.3799    0.0000 C    0  0  0  0  0  0  0  0  0  0  0  0
    0.0046    1.7735    0.0000 C    0  0  0  0  0  0  0  0  0  0  0  0
   -4.5715    1.0338    0.0000 C    0  0  0  0  0  0  0  0  0  0  0  0
   -2.2283    4.2131    0.0000 O    0  0  0  0  0  0  0  0  0  0  0  0
   -1.1118    2.9864    0.0000 C    0  0  0  0  0  0  0  0  0  0  0  0
   -5.0815    0.3859    0.0000 C    0  0  0  0  0  0  0  0  0  0  0  0
   -4.7783   -0.3906    0.0000 Cl   0  0  0  0  0  0  0  0  0  0  0  0
   -5.6880    1.9251    0.0000 C    0  0  0  0  0  0  0  0  0  0  0  0
   -6.2026    1.2772    0.0000 C    0  0  0  0  0  0  0  0  0  0  0  0
   -5.8994    0.5191    0.0000 C    0  0  0  0  0  0  0  0  0  0  0  0
  2  1  2  0  0  0  0
  3  1  1  0  0  0  0
  4  1  1  0  0  0  0
  5  2  1  0  0  0  0
  6  3  1  0  0  0  0
  6  8  2  0  0  0  0
  7  9  1  0  0  0  0
  7  5  1  0  0  0  0
  8  2  1  0  0  0  0
  9  4  2  0  0  0  0
 10  3  1  0  0  0  0
 11 15  1  0  0  0  0
 12 11  3  0  0  0  0
 13 10  2  0  0  0  0
 14  5  2  0  0  0  0
 15  7  1  0  0  0  0
 16 13  1  0  0  0  0
 16 20  2  0  0  0  0
 17 16  1  0  0  0  0
 18 10  1  0  0  0  0
 19 18  2  0  0  0  0
 20 19  1  0  0  0  0
M  END
> <CdId>
2664

> <Mol Weight>
284.7

> <Formula>
C14H9ClN4O

> <Click_ID>
CLK035_B10 __ __ 

$$$$
