CLK048H04
 OpenBabel03181404502D

 16 17  0  0  0  0  0  0  0  0999 V2000
   -0.1041    0.7198    0.0000 C   0  0  0  0  0  0  0  0  0  0  0  0
   -0.1041   -0.1041    0.0000 C   0  0  0  0  0  0  0  0  0  0  0  0
    0.6116    1.1317    0.0000 N   0  0  0  0  0  0  0  0  0  0  0  0
    1.3232   -0.1041    0.0000 N   0  0  0  0  0  0  0  0  0  0  0  0
    1.3232    0.7198    0.0000 C   0  0  0  0  0  0  0  0  0  0  0  0
    0.6116   -0.5160    0.0000 C   0  0  0  0  0  0  0  0  0  0  0  0
   -0.8863    0.9736    0.0000 N   0  0  0  0  0  0  0  0  0  0  0  0
   -0.8863   -0.3620    0.0000 N   0  0  0  0  0  0  0  0  0  0  0  0
   -1.3731    0.3079    0.0000 C   0  0  0  0  0  0  0  0  0  0  0  0
   -1.9473   -1.3149    0.0000 C   0  0  0  0  0  0  0  0  0  0  0  0
    2.0389    1.1317    0.0000 O   0  0  0  0  0  0  0  0  0  0  0  0
    0.6116   -1.3398    0.0000 O   0  0  0  0  0  0  0  0  0  0  0  0
   -2.7545   -1.4854    0.0000 C   0  0  0  0  0  0  0  0  0  0  0  0
    0.6116    1.9556    0.0000 C   0  0  0  0  0  0  0  0  0  0  0  0
    2.0389   -0.5160    0.0000 C   0  0  0  0  0  0  0  0  0  0  0  0
   -1.1401   -1.1442    0.0000 C   0  0  0  0  0  0  0  0  0  0  0  0
  2  1  2  0  0  0  0
  3  1  1  0  0  0  0
  4  6  1  0  0  0  0
  5  3  1  0  0  0  0
  5  4  1  0  0  0  0
  6  2  1  0  0  0  0
  7  1  1  0  0  0  0
  8  2  1  0  0  0  0
  8  9  1  0  0  0  0
  9  7  2  0  0  0  0
 10 16  1  0  0  0  0
 11  5  2  0  0  0  0
 12  6  2  0  0  0  0
 13 10  3  0  0  0  0
 14  3  1  0  0  0  0
 15  4  1  0  0  0  0
 16  8  1  0  0  0  0
M  END
> <CdId>
3672

> <Mol Weight>
218.212

> <Formula>
C10H10N4O2

> <Click_ID>
CLK048H04 __ __ 

$$$$
