CLK042D03
 OpenBabel03181404502D

 23 24  0  0  0  0  0  0  0  0999 V2000
    0.7417   -0.6417    0.0000 S   0  0  0  0  0  0  0  0  0  0  0  0
    1.4583   -1.0542    0.0000 C   0  0  0  0  0  0  0  0  0  0  0  0
    0.0292   -0.2292    0.0000 N   0  0  0  0  0  0  0  0  0  0  0  0
   -2.1125    1.0083    0.0000 C   0  0  0  0  0  0  0  0  0  0  0  0
   -1.4000    0.5958    0.0000 N   0  0  0  0  0  0  0  0  0  0  0  0
    1.4583   -1.8792    0.0000 C   0  0  0  0  0  0  0  0  0  0  0  0
    1.1542    0.0708    0.0000 O   0  0  0  0  0  0  0  0  0  0  0  0
    0.3292   -1.3583    0.0000 O   0  0  0  0  0  0  0  0  0  0  0  0
    2.1708   -0.6417    0.0000 C   0  0  0  0  0  0  0  0  0  0  0  0
   -0.6875   -0.6417    0.0000 C   0  0  0  0  0  0  0  0  0  0  0  0
    0.0292    0.5958    0.0000 C   0  0  0  0  0  0  0  0  0  0  0  0
   -2.8292    3.0708    0.0000 C   0  0  0  0  0  0  0  0  0  0  0  0
   -2.8292    3.8958    0.0000 C   0  0  0  0  0  0  0  0  0  0  0  0
   -0.6875    1.0083    0.0000 C   0  0  0  0  0  0  0  0  0  0  0  0
   -1.4000   -0.2292    0.0000 C   0  0  0  0  0  0  0  0  0  0  0  0
   -2.8292    0.5958    0.0000 O   0  0  0  0  0  0  0  0  0  0  0  0
   -2.1125    1.8333    0.0000 N   0  0  0  0  0  0  0  0  0  0  0  0
    2.8875   -1.0542    0.0000 C   0  0  0  0  0  0  0  0  0  0  0  0
    2.1708   -2.2917    0.0000 C   0  0  0  0  0  0  0  0  0  0  0  0
    2.1708    0.1833    0.0000 F   0  0  0  0  0  0  0  0  0  0  0  0
    2.8875   -1.8792    0.0000 C   0  0  0  0  0  0  0  0  0  0  0  0
    2.1708   -3.1167    0.0000 F   0  0  0  0  0  0  0  0  0  0  0  0
   -2.8292    2.2458    0.0000 C   0  0  0  0  0  0  0  0  0  0  0  0
  2  1  1  0  0  0  0
  3  1  1  0  0  0  0
  4  5  1  0  0  0  0
  5 15  1  0  0  0  0
  5 14  1  0  0  0  0
  6  2  1  0  0  0  0
  7  1  2  0  0  0  0
  8  1  2  0  0  0  0
  9  2  2  0  0  0  0
 10  3  1  0  0  0  0
 11  3  1  0  0  0  0
 12 23  1  0  0  0  0
 13 12  3  0  0  0  0
 14 11  1  0  0  0  0
 15 10  1  0  0  0  0
 16  4  2  0  0  0  0
 17  4  1  0  0  0  0
 18  9  1  0  0  0  0
 18 21  2  0  0  0  0
 19  6  2  0  0  0  0
 20  9  1  0  0  0  0
 21 19  1  0  0  0  0
 22 19  1  0  0  0  0
 23 17  1  0  0  0  0
M  END
> <CdId>
3180

> <Mol Weight>
343.349

> <Formula>
C14H15F2N3O3S

> <Click_ID>
CLK042D03 __ __ 

$$$$
