CLK038E07
 OpenBabel03181404502D

 20 20  0  0  0  0  0  0  0  0999 V2000
    0.8288   -0.1499    0.0000 C   0  0  0  0  0  0  0  0  0  0  0  0
    1.5076   -0.6164    0.0000 C   0  0  0  0  0  0  0  0  0  0  0  0
    2.1616   -0.1166    0.0000 C   0  0  0  0  0  0  0  0  0  0  0  0
    1.0620    0.6414    0.0000 N   0  0  0  0  0  0  0  0  0  0  0  0
    1.8867    0.6622    0.0000 C   0  0  0  0  0  0  0  0  0  0  0  0
    0.0500   -0.4248    0.0000 C   0  0  0  0  0  0  0  0  0  0  0  0
    2.9529   -0.3498    0.0000 C   0  0  0  0  0  0  0  0  0  0  0  0
   -4.1607    0.3581    0.0000 C   0  0  0  0  0  0  0  0  0  0  0  0
   -4.9395    0.0833    0.0000 C   0  0  0  0  0  0  0  0  0  0  0  0
   -1.9783    0.3706    0.0000 C   0  0  0  0  0  0  0  0  0  0  0  0
   -0.5747    0.1125    0.0000 O   0  0  0  0  0  0  0  0  0  0  0  0
   -0.1000   -1.2370    0.0000 O   0  0  0  0  0  0  0  0  0  0  0  0
   -1.8284    1.1828    0.0000 O   0  0  0  0  0  0  0  0  0  0  0  0
    3.1444   -1.1537    0.0000 O   0  0  0  0  0  0  0  0  0  0  0  0
   -1.3536   -0.1624    0.0000 C   0  0  0  0  0  0  0  0  0  0  0  0
   -2.7571    0.0958    0.0000 N   0  0  0  0  0  0  0  0  0  0  0  0
    1.5285   -1.4411    0.0000 C   0  0  0  0  0  0  0  0  0  0  0  0
    2.3573    1.3411    0.0000 C   0  0  0  0  0  0  0  0  0  0  0  0
   -3.3860    0.6330    0.0000 C   0  0  0  0  0  0  0  0  0  0  0  0
    3.5527    0.2166    0.0000 C   0  0  0  0  0  0  0  0  0  0  0  0
  2  1  2  0  0  0  0
  3  2  1  0  0  0  0
  4  1  1  0  0  0  0
  5  4  1  0  0  0  0
  5  3  2  0  0  0  0
  6  1  1  0  0  0  0
  7  3  1  0  0  0  0
  8 19  1  0  0  0  0
  9  8  3  0  0  0  0
 10 15  1  0  0  0  0
 11  6  1  0  0  0  0
 12  6  2  0  0  0  0
 13 10  2  0  0  0  0
 14  7  2  0  0  0  0
 15 11  1  0  0  0  0
 16 10  1  0  0  0  0
 17  2  1  0  0  0  0
 18  5  1  0  0  0  0
 19 16  1  0  0  0  0
 20  7  1  0  0  0  0
M  END
> <CdId>
2893

> <Mol Weight>
276.2878

> <Formula>
C14H16N2O4

> <Click_ID>
CLK038E07 __ __ 

$$$$
