CLK052F04
 OpenBabel03181404502D

 22 22  0  0  0  0  0  0  0  0999 V2000
   -1.7875    2.6458    0.0000 N    0  0  0  0  0  0  0  0  0  0  0  0
   -1.0750    2.2333    0.0000 C    0  0  0  0  0  0  0  0  0  0  0  0
    1.0708   -3.1292    0.0000 C    0  0  0  0  0  0  0  0  0  0  0  0
    0.3542   -1.0667    0.0000 C    0  0  0  0  0  0  0  0  0  0  0  0
    1.0708   -3.9542    0.0000 C    0  0  0  0  0  0  0  0  0  0  0  0
   -0.3583    2.6458    0.0000 C    0  0  0  0  0  0  0  0  0  0  0  0
   -1.7875    3.4708    0.0000 O    0  0  0  0  0  0  0  0  0  0  0  0
    0.3542   -0.2417    0.0000 C    0  0  0  0  0  0  0  0  0  0  0  0
   -1.0750    1.4083    0.0000 C    0  0  0  0  0  0  0  0  0  0  0  0
    1.0708   -1.4792    0.0000 N    0  0  0  0  0  0  0  0  0  0  0  0
   -2.5042    2.2333    0.0000 O    0  0  0  0  0  0  0  0  0  0  0  0
   -0.3583    0.1708    0.0000 C    0  0  0  0  0  0  0  0  0  0  0  0
    1.0708   -2.3042    0.0000 C    0  0  0  0  0  0  0  0  0  0  0  0
   -0.3583   -1.4792    0.0000 O    0  0  0  0  0  0  0  0  0  0  0  0
   -0.3583    0.9958    0.0000 C    0  0  0  0  0  0  0  0  0  0  0  0
    0.3542    2.2333    0.0000 C    0  0  0  0  0  0  0  0  0  0  0  0
   -0.3583    3.4708    0.0000 Cl   0  0  0  0  0  0  0  0  0  0  0  0
    0.3542    1.4083    0.0000 C    0  0  0  0  0  0  0  0  0  0  0  0
    0.2458   -2.3042    0.0000 C    0  0  0  0  0  0  0  0  0  0  0  0
    1.8958   -2.3042    0.0000 C    0  0  0  0  0  0  0  0  0  0  0  0
   -0.1667   -1.5917    0.0000 C    0  0  0  0  0  0  0  0  0  0  0  0
    2.3083   -3.0167    0.0000 C    0  0  0  0  0  0  0  0  0  0  0  0
  2  1  1  0  0  0  0
  3 13  1  0  0  0  0
  4  8  1  0  0  0  0
  5  3  3  0  0  0  0
  6  2  2  0  0  0  0
  7  1  1  0  0  0  0
  8 12  2  0  0  0  0
  9  2  1  0  0  0  0
 10  4  1  0  0  0  0
 11  1  2  0  0  0  0
 12 15  1  0  0  0  0
 13 10  1  0  0  0  0
 14  4  2  0  0  0  0
 15  9  2  0  0  0  0
 16  6  1  0  0  0  0
 16 18  2  0  0  0  0
 17  6  1  0  0  0  0
 18 15  1  0  0  0  0
 19 13  1  0  0  0  0
 20 13  1  0  0  0  0
 21 19  1  0  0  0  0
 22 20  1  0  0  0  0
M  END
> <CdId>
3990

> <Mol Weight>
320.771

> <Formula>
C16H17ClN2O3

> <Click_ID>
CLK052F04 __ __ 

$$$$
