CLK051F11
 OpenBabel03181404502D

 24 25  0  0  0  0  0  0  0  0999 V2000
   -1.9083    0.5875    0.0000 S   0  0  0  0  0  0  0  0  0  0  0  0
    0.9500    0.5875    0.0000 C   0  0  0  0  0  0  0  0  0  0  0  0
   -1.1917    1.0000    0.0000 C   0  0  0  0  0  0  0  0  0  0  0  0
    0.9500   -0.2375    0.0000 N   0  0  0  0  0  0  0  0  0  0  0  0
    0.2375    1.0000    0.0000 C   0  0  0  0  0  0  0  0  0  0  0  0
   -4.0500    0.1750    0.0000 C   0  0  0  0  0  0  0  0  0  0  0  0
   -0.4792    0.5875    0.0000 C   0  0  0  0  0  0  0  0  0  0  0  0
   -4.7667   -0.2375    0.0000 C   0  0  0  0  0  0  0  0  0  0  0  0
   -1.4958   -0.1292    0.0000 O   0  0  0  0  0  0  0  0  0  0  0  0
   -2.3208    1.3000    0.0000 O   0  0  0  0  0  0  0  0  0  0  0  0
   -2.6208    0.1750    0.0000 N   0  0  0  0  0  0  0  0  0  0  0  0
    1.6667   -0.6500    0.0000 C   0  0  0  0  0  0  0  0  0  0  0  0
    1.6667    1.0000    0.0000 O   0  0  0  0  0  0  0  0  0  0  0  0
    1.6667   -1.4750    0.0000 C   0  0  0  0  0  0  0  0  0  0  0  0
    2.3792   -1.8875    0.0000 C   0  0  0  0  0  0  0  0  0  0  0  0
   -3.3375    0.5875    0.0000 C   0  0  0  0  0  0  0  0  0  0  0  0
    2.3792   -2.7125    0.0000 O   0  0  0  0  0  0  0  0  0  0  0  0
   -1.1917    1.8250    0.0000 C   0  0  0  0  0  0  0  0  0  0  0  0
    0.2375    1.8250    0.0000 C   0  0  0  0  0  0  0  0  0  0  0  0
   -0.4792    2.2375    0.0000 C   0  0  0  0  0  0  0  0  0  0  0  0
    3.0958   -0.6500    0.0000 C   0  0  0  0  0  0  0  0  0  0  0  0
    2.3792   -0.2375    0.0000 C   0  0  0  0  0  0  0  0  0  0  0  0
    3.0958   -1.4750    0.0000 C   0  0  0  0  0  0  0  0  0  0  0  0
    3.0958   -3.1250    0.0000 C   0  0  0  0  0  0  0  0  0  0  0  0
  2  5  1  0  0  0  0
  3  1  1  0  0  0  0
  4  2  1  0  0  0  0
  5  7  2  0  0  0  0
  6 16  1  0  0  0  0
  7  3  1  0  0  0  0
  8  6  3  0  0  0  0
  9  1  2  0  0  0  0
 10  1  2  0  0  0  0
 11  1  1  0  0  0  0
 12  4  1  0  0  0  0
 13  2  2  0  0  0  0
 14 12  1  0  0  0  0
 15 14  2  0  0  0  0
 16 11  1  0  0  0  0
 17 15  1  0  0  0  0
 18  3  2  0  0  0  0
 19  5  1  0  0  0  0
 20 18  1  0  0  0  0
 20 19  2  0  0  0  0
 21 22  1  0  0  0  0
 21 23  2  0  0  0  0
 22 12  2  0  0  0  0
 23 15  1  0  0  0  0
 24 17  1  0  0  0  0
M  END
> <CdId>
3966

> <Mol Weight>
344.385

> <Formula>
C17H16N2O4S

> <Click_ID>
CLK051F11 __ __ 

$$$$
