CLK038D06
 OpenBabel03181404502D

 19 19  0  0  0  0  0  0  0  0999 V2000
    0.7500   -2.6917    0.0000 C    0  0  0  0  0  0  0  0  0  0  0  0
    0.7500   -3.5167    0.0000 C    0  0  0  0  0  0  0  0  0  0  0  0
    0.0375   -0.6292    0.0000 C    0  0  0  0  0  0  0  0  0  0  0  0
    0.7500   -1.0417    0.0000 N    0  0  0  0  0  0  0  0  0  0  0  0
    0.7500   -1.8667    0.0000 C    0  0  0  0  0  0  0  0  0  0  0  0
   -0.6792   -1.0417    0.0000 O    0  0  0  0  0  0  0  0  0  0  0  0
   -0.6792    0.6083    0.0000 O    0  0  0  0  0  0  0  0  0  0  0  0
    0.0375    0.1958    0.0000 C    0  0  0  0  0  0  0  0  0  0  0  0
   -0.6792    1.4333    0.0000 C    0  0  0  0  0  0  0  0  0  0  0  0
   -0.6792    3.0833    0.0000 C    0  0  0  0  0  0  0  0  0  0  0  0
   -0.6792    3.9083    0.0000 Cl   0  0  0  0  0  0  0  0  0  0  0  0
    0.0375    1.8458    0.0000 C    0  0  0  0  0  0  0  0  0  0  0  0
   -1.3917    1.8458    0.0000 C    0  0  0  0  0  0  0  0  0  0  0  0
   -1.3917    2.6708    0.0000 C    0  0  0  0  0  0  0  0  0  0  0  0
    0.0375    2.6708    0.0000 C    0  0  0  0  0  0  0  0  0  0  0  0
    1.5750   -1.8667    0.0000 C    0  0  0  0  0  0  0  0  0  0  0  0
   -0.0750   -1.8667    0.0000 C    0  0  0  0  0  0  0  0  0  0  0  0
    1.9875   -2.5792    0.0000 C    0  0  0  0  0  0  0  0  0  0  0  0
   -0.4875   -1.1500    0.0000 C    0  0  0  0  0  0  0  0  0  0  0  0
  2  1  3  0  0  0  0
  3  4  1  0  0  0  0
  4  5  1  0  0  0  0
  5  1  1  0  0  0  0
  6  3  2  0  0  0  0
  7  8  1  0  0  0  0
  8  3  1  0  0  0  0
  9  7  1  0  0  0  0
 10 14  2  0  0  0  0
 10 15  1  0  0  0  0
 11 10  1  0  0  0  0
 12  9  1  0  0  0  0
 13  9  2  0  0  0  0
 14 13  1  0  0  0  0
 15 12  2  0  0  0  0
 16  5  1  0  0  0  0
 17  5  1  0  0  0  0
 18 16  1  0  0  0  0
 19 17  1  0  0  0  0
M  END
> <CdId>
2884

> <Mol Weight>
279.762

> <Formula>
C15H18ClNO2

> <Click_ID>
CLK038D06 __ __ 

$$$$
