CLK045A10
 OpenBabel03181404502D

 20 21  0  0  0  0  0  0  0  0999 V2000
    1.6750   -0.1833    0.0000 C    0  0  0  0  0  0  0  0  0  0  0  0
    0.2500   -0.1833    0.0000 C    0  0  0  0  0  0  0  0  0  0  0  0
   -3.3250   -0.5958    0.0000 C    0  0  0  0  0  0  0  0  0  0  0  0
   -4.0375   -1.0083    0.0000 C    0  0  0  0  0  0  0  0  0  0  0  0
    0.9625   -0.5958    0.0000 C    0  0  0  0  0  0  0  0  0  0  0  0
   -0.4667   -0.5958    0.0000 N    0  0  0  0  0  0  0  0  0  0  0  0
    2.3917   -0.5958    0.0000 C    0  0  0  0  0  0  0  0  0  0  0  0
    1.6750    0.6417    0.0000 C    0  0  0  0  0  0  0  0  0  0  0  0
    0.2500    0.6417    0.0000 O    0  0  0  0  0  0  0  0  0  0  0  0
   -1.1792   -0.1833    0.0000 C    0  0  0  0  0  0  0  0  0  0  0  0
   -2.6083   -0.1833    0.0000 C    0  0  0  0  0  0  0  0  0  0  0  0
   -1.8958   -0.5958    0.0000 C    0  0  0  0  0  0  0  0  0  0  0  0
    2.3917   -1.4208    0.0000 Cl   0  0  0  0  0  0  0  0  0  0  0  0
    0.9625    1.0542    0.0000 Cl   0  0  0  0  0  0  0  0  0  0  0  0
    3.1042    0.6417    0.0000 C    0  0  0  0  0  0  0  0  0  0  0  0
   -1.8958    1.0542    0.0000 C    0  0  0  0  0  0  0  0  0  0  0  0
    2.3917    1.0542    0.0000 C    0  0  0  0  0  0  0  0  0  0  0  0
    3.1042   -0.1833    0.0000 C    0  0  0  0  0  0  0  0  0  0  0  0
   -1.1792    0.6417    0.0000 C    0  0  0  0  0  0  0  0  0  0  0  0
   -2.6083    0.6417    0.0000 C    0  0  0  0  0  0  0  0  0  0  0  0
  2  5  1  0  0  0  0
  3 11  1  0  0  0  0
  4  3  3  0  0  0  0
  5  1  1  0  0  0  0
  6  2  1  0  0  0  0
  7  1  2  0  0  0  0
  8  1  1  0  0  0  0
  9  2  2  0  0  0  0
 10  6  1  0  0  0  0
 11 12  1  0  0  0  0
 12 10  2  0  0  0  0
 13  7  1  0  0  0  0
 14  8  1  0  0  0  0
 15 18  2  0  0  0  0
 16 19  2  0  0  0  0
 17  8  2  0  0  0  0
 17 15  1  0  0  0  0
 18  7  1  0  0  0  0
 19 10  1  0  0  0  0
 20 11  2  0  0  0  0
 20 16  1  0  0  0  0
M  END
> <CdId>
3473

> <Mol Weight>
304.171

> <Formula>
C16H11Cl2NO

> <Click_ID>
CLK045A10 __ __ 

$$$$
