CLK031_A05
 OpenBabel03181404502D

 36 39  0  0  0  0  0  0  0  0999 V2000
   -1.1625    2.3833    0.0000 C   0  0  0  0  0  0  0  0  0  0  0  0
    3.3875    3.0833    0.0000 S   0  0  0  0  0  0  0  0  0  0  0  0
    4.2125    3.0833    0.0000 N   0  0  0  0  0  0  0  0  0  0  0  0
   -0.3375    2.3750    0.0000 N   0  0  0  0  0  0  0  0  0  0  0  0
   -4.5833    3.2125    0.0000 S   0  0  0  0  0  0  0  0  0  0  0  0
   -1.6458    1.7208    0.0000 N   0  0  0  0  0  0  0  0  0  0  0  0
   -1.6458    3.0500    0.0000 S   0  0  0  0  0  0  0  0  0  0  0  0
   -2.4333    2.7958    0.0000 C   0  0  0  0  0  0  0  0  0  0  0  0
   -2.4333    1.9708    0.0000 C   0  0  0  0  0  0  0  0  0  0  0  0
    0.0750    3.0875    0.0000 C   0  0  0  0  0  0  0  0  0  0  0  0
   -3.8583    2.7958    0.0000 C   0  0  0  0  0  0  0  0  0  0  0  0
   -3.1458    3.2083    0.0000 C   0  0  0  0  0  0  0  0  0  0  0  0
    2.5542    3.0833    0.0000 C   0  0  0  0  0  0  0  0  0  0  0  0
    3.3875    2.2583    0.0000 O   0  0  0  0  0  0  0  0  0  0  0  0
    3.3917    3.9083    0.0000 O   0  0  0  0  0  0  0  0  0  0  0  0
   -1.9458    0.3208    0.0000 C   0  0  0  0  0  0  0  0  0  0  0  0
    4.6167    2.3625    0.0000 C   0  0  0  0  0  0  0  0  0  0  0  0
    4.6167    3.8000    0.0000 C   0  0  0  0  0  0  0  0  0  0  0  0
   -3.1458    1.5583    0.0000 C   0  0  0  0  0  0  0  0  0  0  0  0
   -2.4958   -0.2917    0.0000 C   0  0  0  0  0  0  0  0  0  0  0  0
   -5.0208    2.5083    0.0000 O   0  0  0  0  0  0  0  0  0  0  0  0
   -4.1458    3.9083    0.0000 O   0  0  0  0  0  0  0  0  0  0  0  0
    0.9000    3.0875    0.0000 C   0  0  0  0  0  0  0  0  0  0  0  0
   -5.2833    3.6458    0.0000 N   0  0  0  0  0  0  0  0  0  0  0  0
   -0.3375    3.8000    0.0000 O   0  0  0  0  0  0  0  0  0  0  0  0
   -3.8583    1.9708    0.0000 C   0  0  0  0  0  0  0  0  0  0  0  0
   -1.3958    0.9333    0.0000 C   0  0  0  0  0  0  0  0  0  0  0  0
    2.1417    2.3708    0.0000 C   0  0  0  0  0  0  0  0  0  0  0  0
    2.1417    3.8000    0.0000 C   0  0  0  0  0  0  0  0  0  0  0  0
    1.3167    3.8083    0.0000 C   0  0  0  0  0  0  0  0  0  0  0  0
    1.3167    2.3708    0.0000 C   0  0  0  0  0  0  0  0  0  0  0  0
    5.4500    3.7958    0.0000 C   0  0  3  0  0  0  0  0  0  0  0  0
    5.4417    2.3625    0.0000 C   0  0  3  0  0  0  0  0  0  0  0  0
    5.8625    3.0833    0.0000 C   0  0  0  0  0  0  0  0  0  0  0  0
    5.8792    4.5042    0.0000 C   0  0  0  0  0  0  0  0  0  0  0  0
    5.8750    1.6458    0.0000 C   0  0  0  0  0  0  0  0  0  0  0  0
  2 13  1  0  0  0  0
  3  2  1  0  0  0  0
  4  1  2  0  0  0  0
  5 11  1  0  0  0  0
  6  1  1  0  0  0  0
  7  1  1  0  0  0  0
  8  7  1  0  0  0  0
  8  9  2  0  0  0  0
  9  6  1  0  0  0  0
 10  4  1  0  0  0  0
 11 12  2  0  0  0  0
 11 26  1  0  0  0  0
 12  8  1  0  0  0  0
 13 28  2  0  0  0  0
 14  2  2  0  0  0  0
 15  2  2  0  0  0  0
 16 27  1  0  0  0  0
 17  3  1  0  0  0  0
 18  3  1  0  0  0  0
 19  9  1  0  0  0  0
 20 16  3  0  0  0  0
 21  5  2  0  0  0  0
 22  5  2  0  0  0  0
 23 10  1  0  0  0  0
 24  5  1  0  0  0  0
 25 10  2  0  0  0  0
 26 19  2  0  0  0  0
 27  6  1  0  0  0  0
 28 31  1  0  0  0  0
 29 30  2  0  0  0  0
 29 13  1  0  0  0  0
 30 23  1  0  0  0  0
 31 23  2  0  0  0  0
 32 18  1  0  0  0  0
 33 17  1  0  0  0  0
 33 34  1  0  0  0  0
 34 32  1  0  0  0  0
 35 32  1  0  0  0  0
 36 33  1  0  0  0  0
M  END
> <CdId>
2329

> <Mol Weight>
546.682

> <Formula>
C24H26N4O5S3

> <Click_ID>
CLK031_A05 __ __ 

$$$$
