CLK052E03
 OpenBabel03181404502D

 21 21  0  0  0  0  0  0  0  0999 V2000
    1.5292    0.7292    0.0000 C   0  0  0  0  0  0  0  0  0  0  0  0
    0.8125    1.1417    0.0000 C   0  0  0  0  0  0  0  0  0  0  0  0
    2.2417    1.1417    0.0000 C   0  0  0  0  0  0  0  0  0  0  0  0
    1.5292   -0.0958    0.0000 C   0  0  0  0  0  0  0  0  0  0  0  0
    1.5292   -0.9208    0.0000 N   0  0  0  0  0  0  0  0  0  0  0  0
   -3.4708   -0.5083    0.0000 C   0  0  0  0  0  0  0  0  0  0  0  0
   -4.1875   -0.9208    0.0000 C   0  0  0  0  0  0  0  0  0  0  0  0
   -0.6125   -0.5083    0.0000 C   0  0  0  0  0  0  0  0  0  0  0  0
    0.1000    0.7292    0.0000 C   0  0  0  0  0  0  0  0  0  0  0  0
    0.1000   -0.0958    0.0000 C   0  0  0  0  0  0  0  0  0  0  0  0
   -1.3292   -0.0958    0.0000 C   0  0  0  0  0  0  0  0  0  0  0  0
    2.2417    1.9667    0.0000 O   0  0  0  0  0  0  0  0  0  0  0  0
   -1.3292    0.7292    0.0000 C   0  0  0  0  0  0  0  0  0  0  0  0
    2.9583    0.7292    0.0000 O   0  0  0  0  0  0  0  0  0  0  0  0
   -0.6125    1.1417    0.0000 C   0  0  0  0  0  0  0  0  0  0  0  0
   -0.6125   -1.3333    0.0000 O   0  0  0  0  0  0  0  0  0  0  0  0
   -2.0417   -0.5083    0.0000 O   0  0  0  0  0  0  0  0  0  0  0  0
   -2.7583   -0.0958    0.0000 C   0  0  0  0  0  0  0  0  0  0  0  0
    0.1000   -1.7458    0.0000 C   0  0  0  0  0  0  0  0  0  0  0  0
    3.6708    1.1417    0.0000 C   0  0  0  0  0  0  0  0  0  0  0  0
    0.1000   -2.5708    0.0000 C   0  0  0  0  0  0  0  0  0  0  0  0
  2  1  2  0  0  0  0
  3  1  1  0  0  0  0
  4  1  1  0  0  0  0
  5  4  3  0  0  0  0
  6 18  1  0  0  0  0
  7  6  3  0  0  0  0
  8 10  1  0  0  0  0
  9  2  1  0  0  0  0
 10  9  2  0  0  0  0
 11 13  1  0  0  0  0
 11  8  2  0  0  0  0
 12  3  2  0  0  0  0
 13 15  2  0  0  0  0
 14  3  1  0  0  0  0
 15  9  1  0  0  0  0
 16  8  1  0  0  0  0
 17 11  1  0  0  0  0
 18 17  1  0  0  0  0
 19 16  1  0  0  0  0
 20 14  1  0  0  0  0
 21 19  1  0  0  0  0
M  END
> <CdId>
3981

> <Mol Weight>
285.2946

> <Formula>
C16H15NO4

> <Click_ID>
CLK052E03 __ __ 

$$$$
