CLK024_D02
 OpenBabel03181404502D

 33 36  0  0  0  0  0  0  0  0999 V2000
   -0.1891    1.4648    0.0000 C   0  0  0  0  0  0  0  0  0  0  0  0
    0.5605    1.8017    0.0000 N   0  0  0  0  0  0  0  0  0  0  0  0
    0.7083    0.4745    0.0000 C   0  0  0  0  0  0  0  0  0  0  0  0
    1.1141    1.1897    0.0000 C   0  0  0  0  0  0  0  0  0  0  0  0
   -0.1032    0.6464    0.0000 S   0  0  0  0  0  0  0  0  0  0  0  0
    1.0453   -0.2785    0.0000 C   0  0  0  0  0  0  0  0  0  0  0  0
    1.8636   -0.3645    0.0000 C   0  0  0  0  0  0  0  0  0  0  0  0
   -0.9078    1.8739    0.0000 N   0  0  0  0  0  0  0  0  0  0  0  0
    2.2006   -1.1175    0.0000 C   0  0  0  0  0  0  0  0  0  0  0  0
   -3.7686    0.2132    0.0000 C   0  0  0  0  0  0  0  0  0  0  0  0
    3.7651    1.1382    0.0000 C   0  0  0  0  0  0  0  0  0  0  0  0
    4.4803    1.5611    0.0000 C   0  0  0  0  0  0  0  0  0  0  0  0
    2.3381    0.3095    0.0000 C   0  0  0  0  0  0  0  0  0  0  0  0
    1.9393    1.2860    0.0000 O   0  0  0  0  0  0  0  0  0  0  0  0
   -3.0568    0.6258    0.0000 C   0  0  0  0  0  0  0  0  0  0  0  0
   -3.7686   -0.6155    0.0000 O   0  0  0  0  0  0  0  0  0  0  0  0
    3.0224   -1.2034    0.0000 C   0  0  0  0  0  0  0  0  0  0  0  0
   -1.6195    1.4613    0.0000 C   0  0  0  0  0  0  0  0  0  0  0  0
    3.1668    0.2235    0.0000 C   0  0  0  0  0  0  0  0  0  0  0  0
    3.5038   -0.5261    0.0000 C   0  0  0  0  0  0  0  0  0  0  0  0
    0.7255    2.6133    0.0000 C   0  0  0  0  0  0  0  0  0  0  0  0
   -3.0568    1.4510    0.0000 C   0  0  0  0  0  0  0  0  0  0  0  0
   -2.3416    0.2132    0.0000 C   0  0  0  0  0  0  0  0  0  0  0  0
   -4.4837    0.6258    0.0000 O   0  0  0  0  0  0  0  0  0  0  0  0
   -1.6195    0.6258    0.0000 C   0  0  0  0  0  0  0  0  0  0  0  0
   -2.3416    1.8739    0.0000 C   0  0  0  0  0  0  0  0  0  0  0  0
    2.3381    1.1347    0.0000 O   0  0  0  0  0  0  0  0  0  0  0  0
    3.0533    1.5473    0.0000 C   0  0  0  0  0  0  0  0  0  0  0  0
    1.7261   -1.7811    0.0000 C   0  0  0  0  0  0  0  0  0  0  0  0
    3.3628   -1.9461    0.0000 C   0  0  0  0  0  0  0  0  0  0  0  0
   -4.4837    1.4510    0.0000 C   0  0  0  0  0  0  0  0  0  0  0  0
    2.0631   -2.5341    0.0000 C   0  0  0  0  0  0  0  0  0  0  0  0
    2.8780   -2.6098    0.0000 C   0  0  0  0  0  0  0  0  0  0  0  0
  2  1  1  0  0  0  0
  3  5  1  0  0  0  0
  3  4  1  0  0  0  0
  4  2  1  0  0  0  0
  5  1  1  0  0  0  0
  6  3  2  0  0  0  0
  7  6  1  0  0  0  0
  8  1  2  0  0  0  0
  9  7  2  0  0  0  0
 10 15  1  0  0  0  0
 11 28  1  0  0  0  0
 12 11  3  0  0  0  0
 13  7  1  0  0  0  0
 14  4  2  0  0  0  0
 15 22  2  0  0  0  0
 15 23  1  0  0  0  0
 16 10  2  0  0  0  0
 17  9  1  0  0  0  0
 17 20  2  0  0  0  0
 18  8  1  0  0  0  0
 19 13  2  0  0  0  0
 20 19  1  0  0  0  0
 21  2  1  0  0  0  0
 22 26  1  0  0  0  0
 23 25  2  0  0  0  0
 24 10  1  0  0  0  0
 25 18  1  0  0  0  0
 26 18  2  0  0  0  0
 27 13  1  0  0  0  0
 28 27  1  0  0  0  0
 29  9  1  0  0  0  0
 30 17  1  0  0  0  0
 31 24  1  0  0  0  0
 32 29  2  0  0  0  0
 33 32  1  0  0  0  0
 33 30  2  0  0  0  0
M  END
> <CdId>
1807

> <Mol Weight>
456.513

> <Formula>
C26H20N2O4S

> <Click_ID>
CLK024_D02 __ __ 

$$$$
