CLK048E02
 OpenBabel03181404502D

 14 14  0  0  0  0  0  0  0  0999 V2000
   -0.6125    0.0000    0.0000 C   0  0  0  0  0  0  0  0  0  0  0  0
    0.1000   -0.4125    0.0000 N   0  0  0  0  0  0  0  0  0  0  0  0
   -2.7583   -0.4125    0.0000 C   0  0  0  0  0  0  0  0  0  0  0  0
   -3.4708   -0.8250    0.0000 C   0  0  0  0  0  0  0  0  0  0  0  0
    0.8125    0.0000    0.0000 C   0  0  0  0  0  0  0  0  0  0  0  0
   -0.6125    0.8250    0.0000 O   0  0  0  0  0  0  0  0  0  0  0  0
    1.5292   -0.4125    0.0000 C   0  0  0  0  0  0  0  0  0  0  0  0
   -1.3292   -0.4125    0.0000 N   0  0  0  0  0  0  0  0  0  0  0  0
    1.5292   -1.2375    0.0000 F   0  0  0  0  0  0  0  0  0  0  0  0
   -2.0417    0.0000    0.0000 C   0  0  0  0  0  0  0  0  0  0  0  0
    0.8125    0.8250    0.0000 C   0  0  0  0  0  0  0  0  0  0  0  0
    2.2417    0.0000    0.0000 C   0  0  0  0  0  0  0  0  0  0  0  0
    1.5292    1.2375    0.0000 C   0  0  0  0  0  0  0  0  0  0  0  0
    2.2417    0.8250    0.0000 C   0  0  0  0  0  0  0  0  0  0  0  0
  2  1  1  0  0  0  0
  3 10  1  0  0  0  0
  4  3  3  0  0  0  0
  5  2  1  0  0  0  0
  6  1  2  0  0  0  0
  7  5  2  0  0  0  0
  8  1  1  0  0  0  0
  9  7  1  0  0  0  0
 10  8  1  0  0  0  0
 11  5  1  0  0  0  0
 12  7  1  0  0  0  0
 13 11  2  0  0  0  0
 13 14  1  0  0  0  0
 14 12  2  0  0  0  0
M  END
> <CdId>
3653

> <Mol Weight>
192.1897

> <Formula>
C10H9FN2O

> <Click_ID>
CLK048E02 __ __ 

$$$$
