CLK045A11
 OpenBabel03181404502D

 31 34  0  0  0  0  0  0  0  0999 V2000
    0.3417   -0.1125    0.0000 N   0  0  0  0  0  0  0  0  0  0  0  0
   -1.0875   -0.1125    0.0000 C   0  0  0  0  0  0  0  0  0  0  0  0
   -1.0875    0.7125    0.0000 C   0  0  0  0  0  0  0  0  0  0  0  0
   -0.3750   -0.5250    0.0000 C   0  0  0  0  0  0  0  0  0  0  0  0
   -0.3750    1.1250    0.0000 N   0  0  0  0  0  0  0  0  0  0  0  0
    0.3417    0.7125    0.0000 C   0  0  0  0  0  0  0  0  0  0  0  0
   -1.8750   -0.3667    0.0000 C   0  0  0  0  0  0  0  0  0  0  0  0
   -1.8750    0.9708    0.0000 S   0  0  0  0  0  0  0  0  0  0  0  0
   -2.3583    0.3000    0.0000 C   0  0  0  0  0  0  0  0  0  0  0  0
    1.0542    1.1250    0.0000 S   0  0  0  0  0  0  0  0  0  0  0  0
    1.0542   -0.5250    0.0000 C   0  0  0  0  0  0  0  0  0  0  0  0
    2.4833    4.4208    0.0000 C   0  0  0  0  0  0  0  0  0  0  0  0
   -0.3750   -1.3500    0.0000 O   0  0  0  0  0  0  0  0  0  0  0  0
    2.4833    5.2458    0.0000 C   0  0  0  0  0  0  0  0  0  0  0  0
    1.7708    2.3625    0.0000 C   0  0  0  0  0  0  0  0  0  0  0  0
   -2.1292   -1.1500    0.0000 C   0  0  0  0  0  0  0  0  0  0  0  0
    2.4833    1.9500    0.0000 O   0  0  0  0  0  0  0  0  0  0  0  0
    1.0542    1.9500    0.0000 C   0  0  0  0  0  0  0  0  0  0  0  0
    1.7708    3.1875    0.0000 N   0  0  0  0  0  0  0  0  0  0  0  0
    1.0542   -1.3500    0.0000 C   0  0  0  0  0  0  0  0  0  0  0  0
    2.4833    3.6000    0.0000 C   0  0  0  0  0  0  0  0  0  0  0  0
   -2.9375   -1.3208    0.0000 C   0  0  0  0  0  0  0  0  0  0  0  0
   -1.5750   -1.7625    0.0000 C   0  0  0  0  0  0  0  0  0  0  0  0
    0.3417   -1.7625    0.0000 C   0  0  0  0  0  0  0  0  0  0  0  0
    1.7708   -1.7625    0.0000 C   0  0  0  0  0  0  0  0  0  0  0  0
   -1.8333   -2.5458    0.0000 C   0  0  0  0  0  0  0  0  0  0  0  0
   -3.1917   -2.1083    0.0000 C   0  0  0  0  0  0  0  0  0  0  0  0
    1.7708   -2.5875    0.0000 C   0  0  0  0  0  0  0  0  0  0  0  0
    0.3417   -2.5875    0.0000 C   0  0  0  0  0  0  0  0  0  0  0  0
   -2.6375   -2.7208    0.0000 C   0  0  0  0  0  0  0  0  0  0  0  0
    1.0542   -3.0000    0.0000 C   0  0  0  0  0  0  0  0  0  0  0  0
  2  4  1  0  0  0  0
  2  3  2  0  0  0  0
  3  5  1  0  0  0  0
  4  1  1  0  0  0  0
  5  6  2  0  0  0  0
  6  1  1  0  0  0  0
  7  2  1  0  0  0  0
  8  3  1  0  0  0  0
  9  7  2  0  0  0  0
  9  8  1  0  0  0  0
 10  6  1  0  0  0  0
 11  1  1  0  0  0  0
 12 21  1  0  0  0  0
 13  4  2  0  0  0  0
 14 12  3  0  0  0  0
 15 18  1  0  0  0  0
 16  7  1  0  0  0  0
 17 15  2  0  0  0  0
 18 10  1  0  0  0  0
 19 15  1  0  0  0  0
 20 11  1  0  0  0  0
 21 19  1  0  0  0  0
 22 16  1  0  0  0  0
 23 16  2  0  0  0  0
 24 20  1  0  0  0  0
 25 20  2  0  0  0  0
 26 23  1  0  0  0  0
 27 22  2  0  0  0  0
 28 25  1  0  0  0  0
 29 24  2  0  0  0  0
 30 26  2  0  0  0  0
 30 27  1  0  0  0  0
 31 28  2  0  0  0  0
 31 29  1  0  0  0  0
M  END
> <CdId>
3481

> <Mol Weight>
445.557

> <Formula>
C24H19N3O2S2

> <Click_ID>
CLK045A11 __ __ 

$$$$
