CLK045E05
 OpenBabel03181404502D

 20 20  0  0  0  0  0  0  0  0999 V2000
   -1.7167   -0.4125    0.0000 C   0  0  0  0  0  0  0  0  0  0  0  0
    4.0000    0.4125    0.0000 C   0  0  0  0  0  0  0  0  0  0  0  0
    4.7125    0.0000    0.0000 C   0  0  0  0  0  0  0  0  0  0  0  0
    1.8542    0.8250    0.0000 C   0  0  0  0  0  0  0  0  0  0  0  0
   -1.0042   -0.8250    0.0000 C   0  0  0  0  0  0  0  0  0  0  0  0
    1.1417    0.4125    0.0000 C   0  0  0  0  0  0  0  0  0  0  0  0
    0.4250    0.8250    0.0000 C   0  0  0  0  0  0  0  0  0  0  0  0
   -2.4333   -0.8250    0.0000 O   0  0  0  0  0  0  0  0  0  0  0  0
   -0.2875   -0.4125    0.0000 C   0  0  0  0  0  0  0  0  0  0  0  0
    1.8542    1.6500    0.0000 O   0  0  0  0  0  0  0  0  0  0  0  0
   -1.7167    0.4125    0.0000 C   0  0  0  0  0  0  0  0  0  0  0  0
   -0.2875    0.4125    0.0000 C   0  0  0  0  0  0  0  0  0  0  0  0
    2.5708    0.4125    0.0000 N   0  0  0  0  0  0  0  0  0  0  0  0
   -1.0042    0.8250    0.0000 C   0  0  0  0  0  0  0  0  0  0  0  0
   -1.0042   -1.6500    0.0000 O   0  0  0  0  0  0  0  0  0  0  0  0
    3.2833    0.8250    0.0000 C   0  0  0  0  0  0  0  0  0  0  0  0
   -3.1458   -0.4125    0.0000 C   0  0  0  0  0  0  0  0  0  0  0  0
   -0.2875   -2.0625    0.0000 C   0  0  0  0  0  0  0  0  0  0  0  0
   -3.1458    0.4125    0.0000 C   0  0  0  0  0  0  0  0  0  0  0  0
   -3.8583   -0.8250    0.0000 C   0  0  0  0  0  0  0  0  0  0  0  0
  2 16  1  0  0  0  0
  3  2  3  0  0  0  0
  4  6  1  0  0  0  0
  5  1  2  0  0  0  0
  6  7  2  0  0  0  0
  7 12  1  0  0  0  0
  8  1  1  0  0  0  0
  9  5  1  0  0  0  0
 10  4  2  0  0  0  0
 11  1  1  0  0  0  0
 12  9  2  0  0  0  0
 13  4  1  0  0  0  0
 14 11  2  0  0  0  0
 14 12  1  0  0  0  0
 15  5  1  0  0  0  0
 16 13  1  0  0  0  0
 17  8  1  0  0  0  0
 18 15  1  0  0  0  0
 19 17  1  0  0  0  0
 20 17  1  0  0  0  0
M  END
> <CdId>
3437

> <Mol Weight>
273.327

> <Formula>
C16H19NO3

> <Click_ID>
CLK045E05 __ __ 

$$$$
