CLK009_G05
 OpenBabel03181404502D

 25 26  0  0  0  0  0  0  0  0999 V2000
   -5.0653    3.7249    0.0000 N    0  0  0  0  0  0  0  0  0  0  0  0
   -2.5474    0.8812    0.0000 C    0  0  0  0  0  0  0  0  0  0  0  0
   -3.3694    0.8812    0.0000 N    0  0  0  0  0  0  0  0  0  0  0  0
   -2.1550    0.1703    0.0000 C    0  0  0  0  0  0  0  0  0  0  0  0
   -4.6432    3.0140    0.0000 C    0  0  0  0  0  0  0  0  0  0  0  0
   -1.3033    0.1703    0.0000 C    0  0  0  0  0  0  0  0  0  0  0  0
   -3.7915    3.0140    0.0000 C    0  0  0  0  0  0  0  0  0  0  0  0
   -0.8812    0.8812    0.0000 C    0  0  0  0  0  0  0  0  0  0  0  0
   -3.7915    1.5921    0.0000 C    0  0  0  0  0  0  0  0  0  0  0  0
   -3.3991    2.3030    0.0000 C    0  0  0  0  0  0  0  0  0  0  0  0
    1.1849    0.1258    0.0000 C    0  0  0  0  0  0  0  0  0  0  0  0
    2.0439    0.1258    0.0000 C    0  0  0  0  0  0  0  0  0  0  0  0
   -4.6432    4.4358    0.0000 O    0  0  0  0  0  0  0  0  0  0  0  0
   -5.8873    3.7249    0.0000 O    0  0  0  0  0  0  0  0  0  0  0  0
   -2.1550    1.5921    0.0000 O    0  0  0  0  0  0  0  0  0  0  0  0
   -1.2663    1.5921    0.0000 O    0  0  0  0  0  0  0  0  0  0  0  0
   -5.0356    2.3030    0.0000 C    0  0  0  0  0  0  0  0  0  0  0  0
   -4.6432    1.5921    0.0000 C    0  0  0  0  0  0  0  0  0  0  0  0
   -2.5474    2.3030    0.0000 Cl   0  0  0  0  0  0  0  0  0  0  0  0
   -0.0592    0.8368    0.0000 O    0  0  0  0  0  0  0  0  0  0  0  0
    0.3629    0.1258    0.0000 C    0  0  0  0  0  0  0  0  0  0  0  0
   -2.5474   -0.5851    0.0000 C    0  0  0  0  0  0  0  0  0  0  0  0
   -0.9109   -0.5851    0.0000 C    0  0  0  0  0  0  0  0  0  0  0  0
   -2.1550   -1.2960    0.0000 C    0  0  0  0  0  0  0  0  0  0  0  0
   -1.3033   -1.2960    0.0000 C    0  0  0  0  0  0  0  0  0  0  0  0
  2  3  1  0  0  0  0
  3  9  1  0  0  0  0
  4  2  1  0  0  0  0
  5  1  1  0  0  0  0
  6  4  1  0  0  0  0
  7  5  1  0  0  0  0
  8  6  1  0  0  0  0
  9 18  2  0  0  0  0
  9 10  1  0  0  0  0
 10  7  2  0  0  0  0
 11 21  1  0  0  0  0
 12 11  3  0  0  0  0
 13  1  1  0  0  0  0
 14  1  2  0  0  0  0
 15  2  2  0  0  0  0
 16  8  2  0  0  0  0
 17  5  2  0  0  0  0
 18 17  1  0  0  0  0
 19 10  1  0  0  0  0
 20  8  1  0  0  0  0
 21 20  1  0  0  0  0
 22  4  2  0  0  0  0
 23  6  2  0  0  0  0
 23 25  1  0  0  0  0
 24 22  1  0  0  0  0
 25 24  2  0  0  0  0
M  END
> <CdId>
660

> <Mol Weight>
358.733

> <Formula>
C17H11ClN2O5

> <Click_ID>
CLK009_G05 __ __ 

$$$$
