CLK020_A10
 OpenBabel03181404502D

 16 17  0  0  0  0  0  0  0  0999 V2000
    0.6621    1.6752    0.0000 C   0  0  3  0  0  0  0  0  0  0  0  0
    1.4552    0.2348    0.0000 C   0  0  3  0  0  0  0  0  0  0  0  0
    0.6367    0.2538    0.0000 C   0  0  3  0  0  0  0  0  0  0  0  0
    0.2433    0.9814    0.0000 C   0  0  3  0  0  0  0  0  0  0  0  0
    1.8782    0.9370    0.0000 C   0  0  0  0  0  0  0  0  0  0  0  0
    1.4806    1.6604    0.0000 C   0  0  0  0  0  0  0  0  0  0  0  0
    0.7890   -0.3829    0.0000 C   0  0  0  0  0  0  0  0  0  0  0  0
   -0.5816    0.9941    0.0000 C   0  0  0  0  0  0  0  0  0  0  0  0
    0.6092    0.8122    0.0000 C   0  0  0  0  0  0  0  0  0  0  0  0
   -1.7513   -0.9032    0.0000 C   0  0  0  0  0  0  0  0  0  0  0  0
   -2.0411   -1.4362    0.0000 C   0  0  0  0  0  0  0  0  0  0  0  0
    0.2538   -0.8524    0.0000 O   0  0  0  0  0  0  0  0  0  0  0  0
   -0.9878    1.7175    0.0000 O   0  0  0  0  0  0  0  0  0  0  0  0
    1.5377   -0.6536    0.0000 O   0  0  0  0  0  0  0  0  0  0  0  0
   -1.0216    0.2961    0.0000 O   0  0  0  0  0  0  0  0  0  0  0  0
   -1.8698    0.0232    0.0000 C   0  0  0  0  0  0  0  0  0  0  0  0
  2  9  1  0  0  0  0
  2  5  1  0  0  0  0
  3  4  1  0  0  0  0
  3  2  1  0  0  0  0
  4  1  1  0  0  0  0
  5  6  2  0  0  0  0
  6  1  1  0  0  0  0
  7  3  1  0  0  0  0
  8  4  1  0  0  0  0
  9  1  1  0  0  0  0
 10 16  1  0  0  0  0
 11 10  3  0  0  0  0
 12  7  2  0  0  0  0
 13  8  2  0  0  0  0
 14  7  1  0  0  0  0
 15  8  1  0  0  0  0
 16 15  1  0  0  0  0
M  END
> <CdId>
1485

> <Mol Weight>
220.2213

> <Formula>
C12H12O4

> <Click_ID>
CLK020_A10 __ __ 

$$$$
