CLK002_H08
 OpenBabel03181404502D

 25 27  0  0  0  0  0  0  0  0999 V2000
   -1.5436    0.1476    0.0000 C   0  0  0  0  0  0  0  0  0  0  0  0
   -1.6571   -0.6696    0.0000 C   0  0  0  0  0  0  0  0  0  0  0  0
   -0.7340    0.2837    0.0000 C   0  0  3  0  0  0  0  0  0  0  0  0
   -2.1868    0.6546    0.0000 C   0  0  0  0  0  0  0  0  0  0  0  0
   -0.9269   -1.0329    0.0000 N   0  0  0  0  0  0  0  0  0  0  0  0
   -2.4214   -0.9762    0.0000 C   0  0  0  0  0  0  0  0  0  0  0  0
   -0.3519   -0.4426    0.0000 C   0  0  0  0  0  0  0  0  0  0  0  0
    0.1930    0.9156    0.0000 C   0  0  0  0  0  0  0  0  0  0  0  0
   -0.9950    1.2220    0.0000 O   0  0  0  0  0  0  0  0  0  0  0  0
   -2.9548    0.3519    0.0000 C   0  0  0  0  0  0  0  0  0  0  0  0
   -0.7793   -1.8425    0.0000 C   0  0  0  0  0  0  0  0  0  0  0  0
   -3.0721   -0.4692    0.0000 C   0  0  0  0  0  0  0  0  0  0  0  0
    0.4692   -0.5523    0.0000 O   0  0  0  0  0  0  0  0  0  0  0  0
    0.9799    0.5032    0.0000 C   0  0  0  0  0  0  0  0  0  0  0  0
   -1.4112   -2.3722    0.0000 C   0  0  0  0  0  0  0  0  0  0  0  0
    1.6798    0.9420    0.0000 C   0  0  0  0  0  0  0  0  0  0  0  0
    1.0177   -0.1816    0.0000 O   0  0  0  0  0  0  0  0  0  0  0  0
   -2.0430   -2.8981    0.0000 C   0  0  0  0  0  0  0  0  0  0  0  0
    2.4062    0.5637    0.0000 C   0  0  0  0  0  0  0  0  0  0  0  0
    1.6382    1.7668    0.0000 C   0  0  0  0  0  0  0  0  0  0  0  0
    3.1024    1.0102    0.0000 C   0  0  0  0  0  0  0  0  0  0  0  0
    2.4441   -0.2610    0.0000 O   0  0  0  0  0  0  0  0  0  0  0  0
    2.3343    2.2095    0.0000 C   0  0  0  0  0  0  0  0  0  0  0  0
    3.0645    1.8349    0.0000 C   0  0  0  0  0  0  0  0  0  0  0  0
    1.7479   -0.6999    0.0000 C   0  0  0  0  0  0  0  0  0  0  0  0
  1  2  2  0  0  0  0
  1  3  1  0  0  0  0
  1  4  1  0  0  0  0
  2  5  1  0  0  0  0
  2  6  1  0  0  0  0
  3  7  1  0  0  0  0
  3  8  1  0  0  0  0
  3  9  1  0  0  0  0
  4 10  2  0  0  0  0
  5 11  1  0  0  0  0
  5  7  1  0  0  0  0
  6 12  2  0  0  0  0
  7 13  2  0  0  0  0
  8 14  1  0  0  0  0
 10 12  1  0  0  0  0
 11 15  1  0  0  0  0
 14 16  1  0  0  0  0
 14 17  2  0  0  0  0
 15 18  3  0  0  0  0
 16 19  1  0  0  0  0
 16 20  2  0  0  0  0
 19 21  2  0  0  0  0
 19 22  1  0  0  0  0
 20 23  1  0  0  0  0
 21 24  1  0  0  0  0
 22 25  1  0  0  0  0
 23 24  2  0  0  0  0
M  END
> <CdId>
157

> <Mol Weight>
335.3533

> <Formula>
C20H17NO4

> <Click_ID>
CLK002_H08 __ __ 

$$$$
