CLK006_G06
 OpenBabel03181404502D

 28 30  0  0  0  0  0  0  0  0999 V2000
    5.0464   -7.3137    0.0000 C   0  0  3  0  0  0  0  0  0  0  0  0
    5.7453   -6.8103    0.0000 C   0  0  0  0  0  0  0  0  0  0  0  0
    4.3808   -6.8270    0.0000 C   0  0  0  0  0  0  0  0  0  0  0  0
    5.7619   -7.7298    0.0000 C   0  0  0  0  0  0  0  0  0  0  0  0
    5.4624   -6.0365    0.0000 C   0  0  0  0  0  0  0  0  0  0  0  0
    4.6346   -6.0407    0.0000 N   0  0  0  0  0  0  0  0  0  0  0  0
    5.7703   -8.5576    0.0000 C   0  0  0  0  0  0  0  0  0  0  0  0
    5.0505   -8.9695    0.0000 O   0  0  0  0  0  0  0  0  0  0  0  0
    4.3308   -7.7381    0.0000 C   0  0  0  0  0  0  0  0  0  0  0  0
    6.5691   -6.8062    0.0000 C   0  0  0  0  0  0  0  0  0  0  0  0
    4.3350   -8.5660    0.0000 C   0  0  0  0  0  0  0  0  0  0  0  0
    6.4775   -8.1457    0.0000 C   0  0  0  0  0  0  0  0  0  0  0  0
    7.1889   -8.5576    0.0000 N   0  0  0  0  0  0  0  0  0  0  0  0
    4.4889   -4.6221    0.0000 C   0  0  0  0  0  0  0  0  0  0  0  0
    4.8259   -3.8690    0.0000 C   0  0  0  0  0  0  0  0  0  0  0  0
    3.5487   -6.8353    0.0000 O   0  0  0  0  0  0  0  0  0  0  0  0
    4.1519   -5.3709    0.0000 C   0  0  0  0  0  0  0  0  0  0  0  0
    6.4942   -8.9737    0.0000 N   0  0  0  0  0  0  0  0  0  0  0  0
    6.9768   -7.5176    0.0000 O   0  0  0  0  0  0  0  0  0  0  0  0
    8.2082   -5.3709    0.0000 C   0  0  0  0  0  0  0  0  0  0  0  0
    9.0319   -5.3667    0.0000 C   0  0  0  0  0  0  0  0  0  0  0  0
    5.9326   -5.3625    0.0000 C   0  0  0  0  0  0  0  0  0  0  0  0
    6.9768   -6.0948    0.0000 O   0  0  0  0  0  0  0  0  0  0  0  0
    3.6152   -7.3220    0.0000 C   0  0  0  0  0  0  0  0  0  0  0  0
    3.6277   -8.9820    0.0000 C   0  0  0  0  0  0  0  0  0  0  0  0
    7.8005   -6.0864    0.0000 C   0  0  0  0  0  0  0  0  0  0  0  0
    2.8997   -7.7464    0.0000 C   0  0  0  0  0  0  0  0  0  0  0  0
    2.9038   -8.5701    0.0000 C   0  0  0  0  0  0  0  0  0  0  0  0
  2  1  1  0  0  0  0
  3  1  1  0  0  0  0
  4  1  1  0  0  0  0
  5  2  2  0  0  0  0
  6  3  1  0  0  0  0
  6  5  1  0  0  0  0
  7  4  2  0  0  0  0
  8 11  1  0  0  0  0
  8  7  1  0  0  0  0
  9  1  1  0  0  0  0
 10  2  1  0  0  0  0
 11  9  1  0  0  0  0
 12  4  1  0  0  0  0
 13 12  3  0  0  0  0
 14 17  1  0  0  0  0
 15 14  3  0  0  0  0
 16  3  2  0  0  0  0
 17  6  1  0  0  0  0
 18  7  1  0  0  0  0
 19 10  2  0  0  0  0
 20 26  1  0  0  0  0
 21 20  2  0  0  0  0
 22  5  1  0  0  0  0
 23 10  1  0  0  0  0
 24  9  2  0  0  0  0
 25 11  2  0  0  0  0
 26 23  1  0  0  0  0
 27 24  1  0  0  0  0
 27 28  2  0  0  0  0
 28 25  1  0  0  0  0
M  END
> <CdId>
465

> <Mol Weight>
375.3774

> <Formula>
C21H17N3O4

> <Click_ID>
CLK006_G06 __ __ 

$$$$
