CLK048B02
 OpenBabel03181404502D

 17 19  0  0  0  0  0  0  0  0999 V2000
    0.4567    0.6130    0.0000 C    0  0  3  0  0  0  0  0  0  0  0  0
    0.8293   -0.6731    0.0000 C    0  0  3  0  0  0  0  0  0  0  0  0
   -0.3926    0.4647    0.0000 C    0  0  0  0  0  0  0  0  0  0  0  0
    0.3325   -0.3245    0.0000 C    0  0  0  0  0  0  0  0  0  0  0  0
    0.7211    1.2019    0.0000 C    0  0  0  0  0  0  0  0  0  0  0  0
    1.2500    0.8574    0.0000 C    0  0  0  0  0  0  0  0  0  0  0  0
   -2.3036   -0.9295    0.0000 C    0  0  0  0  0  0  0  0  0  0  0  0
   -2.7443   -1.5945    0.0000 C    0  0  0  0  0  0  0  0  0  0  0  0
    0.1082    0.7131    0.0000 C    0  0  3  0  0  0  0  0  0  0  0  0
    1.7387    0.3606    0.0000 C    0  0  3  0  0  0  0  0  0  0  0  0
    0.0440   -0.2043    0.0000 C    0  0  0  0  0  0  0  0  0  0  0  0
    1.6185   -0.4327    0.0000 C    0  0  0  0  0  0  0  0  0  0  0  0
   -0.9094    1.0857    0.0000 O    0  0  0  0  0  0  0  0  0  0  0  0
    0.9375    0.7652    0.0000 C    0  0  0  0  0  0  0  0  0  0  0  0
   -0.9896   -0.1122    0.0000 N    0  0  0  0  0  0  0  0  0  0  0  0
    1.0416   -1.4423    0.0000 Cl   0  0  0  0  0  0  0  0  0  0  0  0
   -1.7788   -0.3205    0.0000 C    0  0  0  0  0  0  0  0  0  0  0  0
  2  4  1  0  0  0  0
  3  1  1  0  0  0  0
  4  1  1  0  0  0  0
  5  1  1  0  0  0  0
  6  1  1  0  0  0  0
  7 17  1  0  0  0  0
  8  7  3  0  0  0  0
  9  5  1  0  0  0  0
 10  6  1  0  0  0  0
 11  9  1  0  0  0  0
 11  2  1  0  0  0  0
 12 10  1  0  0  0  0
 12  2  1  0  0  0  0
 13  3  2  0  0  0  0
 14  9  1  0  0  0  0
 14 10  1  0  0  0  0
 15  3  1  0  0  0  0
 16  2  1  0  0  0  0
 17 15  1  0  0  0  0
M  END
> <CdId>
3650

> <Mol Weight>
251.752

> <Formula>
C14H18ClNO

> <Click_ID>
CLK048B02 __ __ 

$$$$
