CLK052F02
 OpenBabel03181404502D

 16 16  0  0  0  0  0  0  0  0999 V2000
   -0.4500   -2.5750    0.0000 N   0  3  0  0  0  0  0  0  0  0  0  0
   -0.4500   -1.7500    0.0000 C   0  0  0  0  0  0  0  0  0  0  0  0
    0.9792    3.2000    0.0000 C   0  0  0  0  0  0  0  0  0  0  0  0
    0.9792    4.0208    0.0000 C   0  0  0  0  0  0  0  0  0  0  0  0
   -1.1625   -2.9875    0.0000 O   0  5  0  0  0  0  0  0  0  0  0  0
    0.2667    1.1375    0.0000 C   0  0  0  0  0  0  0  0  0  0  0  0
    0.2667   -2.9875    0.0000 O   0  0  0  0  0  0  0  0  0  0  0  0
    0.9792    0.7250    0.0000 O   0  0  0  0  0  0  0  0  0  0  0  0
    0.2667   -1.3375    0.0000 C   0  0  0  0  0  0  0  0  0  0  0  0
   -1.1625   -1.3375    0.0000 C   0  0  0  0  0  0  0  0  0  0  0  0
    0.2667    1.9625    0.0000 N   0  0  0  0  0  0  0  0  0  0  0  0
   -0.4500    0.7250    0.0000 C   0  0  0  0  0  0  0  0  0  0  0  0
   -0.4500   -0.1000    0.0000 C   0  0  0  0  0  0  0  0  0  0  0  0
   -1.1625   -0.5125    0.0000 C   0  0  0  0  0  0  0  0  0  0  0  0
    0.2667   -0.5125    0.0000 C   0  0  0  0  0  0  0  0  0  0  0  0
    0.9792    2.3750    0.0000 C   0  0  0  0  0  0  0  0  0  0  0  0
  2  1  1  0  0  0  0
  3 16  1  0  0  0  0
  4  3  3  0  0  0  0
  5  1  1  0  0  0  0
  6 12  1  0  0  0  0
  7  1  2  0  0  0  0
  8  6  2  0  0  0  0
  9  2  1  0  0  0  0
 10  2  2  0  0  0  0
 11  6  1  0  0  0  0
 12 13  1  0  0  0  0
 13 14  2  0  0  0  0
 13 15  1  0  0  0  0
 14 10  1  0  0  0  0
 15  9  2  0  0  0  0
 16 11  1  0  0  0  0
M  END
> <CdId>
3974

> <Mol Weight>
218.2087

> <Formula>
C11H10N2O3

> <Click_ID>
CLK052F02 __ __ 

$$$$
