CLK016_B05
 OpenBabel03181404502D

 31 33  0  0  0  0  0  0  0  0999 V2000
    1.5701   -0.8185    0.0000 N   0  0  0  0  0  0  0  0  0  0  0  0
    1.8290   -1.6077    0.0000 C   0  0  0  0  0  0  0  0  0  0  0  0
    2.2424   -0.3299    0.0000 C   0  0  0  0  0  0  0  0  0  0  0  0
    2.9106   -0.8185    0.0000 C   0  0  0  0  0  0  0  0  0  0  0  0
    2.6558   -1.6077    0.0000 S   0  0  0  0  0  0  0  0  0  0  0  0
    3.6998   -0.5637    0.0000 C   0  0  0  0  0  0  0  0  0  0  0  0
    4.2134    1.8540    0.0000 C   0  0  0  0  0  0  0  0  0  0  0  0
    3.4242    1.6118    0.0000 C   0  0  0  0  0  0  0  0  0  0  0  0
    3.8626    0.2463    0.0000 C   0  0  0  0  0  0  0  0  0  0  0  0
    4.8272    1.2986    0.0000 C   0  0  0  0  0  0  0  0  0  0  0  0
    4.4013    2.6641    0.0000 O   0  0  0  0  0  0  0  0  0  0  0  0
    0.6138    0.2463    0.0000 C   0  0  0  0  0  0  0  0  0  0  0  0
    0.3926    1.0481    0.0000 C   0  0  0  0  0  0  0  0  0  0  0  0
    1.3404   -2.2717    0.0000 O   0  0  0  0  0  0  0  0  0  0  0  0
    2.2341    0.4969    0.0000 O   0  0  0  0  0  0  0  0  0  0  0  0
    3.2571    0.7975    0.0000 C   0  0  0  0  0  0  0  0  0  0  0  0
    4.6476    0.4969    0.0000 C   0  0  0  0  0  0  0  0  0  0  0  0
    0.7892   -0.5637    0.0000 C   0  0  0  0  0  0  0  0  0  0  0  0
    6.2178    1.0147    0.0000 C   0  0  0  0  0  0  0  0  0  0  0  0
    6.9945    1.2736    0.0000 C   0  0  0  0  0  0  0  0  0  0  0  0
    5.1780    2.9147    0.0000 C   0  0  0  0  0  0  0  0  0  0  0  0
    2.8312    2.1630    0.0000 O   0  0  0  0  0  0  0  0  0  0  0  0
    5.3617    3.7164    0.0000 C   0  0  0  0  0  0  0  0  0  0  0  0
    5.6039    1.5659    0.0000 C   0  0  0  0  0  0  0  0  0  0  0  0
    5.7250    5.3241    0.0000 C   0  0  0  0  0  0  0  0  0  0  0  0
    4.7521    4.2718    0.0000 C   0  0  0  0  0  0  0  0  0  0  0  0
    6.1426    3.9670    0.0000 C   0  0  0  0  0  0  0  0  0  0  0  0
    4.9275    5.0653    0.0000 C   0  0  0  0  0  0  0  0  0  0  0  0
    6.3305    4.7521    0.0000 C   0  0  0  0  0  0  0  0  0  0  0  0
    5.9046    6.1176    0.0000 C   0  0  0  0  0  0  0  0  0  0  0  0
    2.0462    1.9125    0.0000 C   0  0  0  0  0  0  0  0  0  0  0  0
  2  1  1  0  0  0  0
  3  1  1  0  0  0  0
  4  3  1  0  0  0  0
  4  5  1  0  0  0  0
  5  2  1  0  0  0  0
  6  4  2  0  0  0  0
  7 10  1  0  0  0  0
  7  8  2  0  0  0  0
  8 16  1  0  0  0  0
  9  6  1  0  0  0  0
 10 17  2  0  0  0  0
 11  7  1  0  0  0  0
 12 18  1  0  0  0  0
 13 12  3  0  0  0  0
 14  2  2  0  0  0  0
 15  3  2  0  0  0  0
 16  9  2  0  0  0  0
 17  9  1  0  0  0  0
 18  1  1  0  0  0  0
 19 24  1  0  0  0  0
 20 19  2  0  0  0  0
 21 11  1  0  0  0  0
 22  8  1  0  0  0  0
 23 21  1  0  0  0  0
 24 10  1  0  0  0  0
 25 29  2  0  0  0  0
 26 23  1  0  0  0  0
 27 23  2  0  0  0  0
 28 26  2  0  0  0  0
 28 25  1  0  0  0  0
 29 27  1  0  0  0  0
 30 25  1  0  0  0  0
 31 22  1  0  0  0  0
M  END
> <CdId>
1170

> <Mol Weight>
433.519

> <Formula>
C25H23NO4S

> <Click_ID>
CLK016_B05 __ __ 

$$$$
