CLK017_C09
 OpenBabel03181404502D

 22 23  0  0  0  0  0  0  0  0999 V2000
    5.6248   -3.6557    0.0000 N    0  0  0  0  0  0  0  0  0  0  0  0
    4.9144   -4.0670    0.0000 C    0  0  0  0  0  0  0  0  0  0  0  0
    5.4628   -2.8456    0.0000 C    0  0  0  0  0  0  0  0  0  0  0  0
    4.6402   -2.7542    0.0000 C    0  0  0  0  0  0  0  0  0  0  0  0
    4.3037   -3.5061    0.0000 S    0  0  0  0  0  0  0  0  0  0  0  0
    4.2290   -2.0356    0.0000 C    0  0  0  0  0  0  0  0  0  0  0  0
    6.4680   -4.8147    0.0000 C    0  0  0  0  0  0  0  0  0  0  0  0
   -0.3074   -2.7542    0.0000 C    0  0  0  0  0  0  0  0  0  0  0  0
   -1.1299   -2.7542    0.0000 C    0  0  0  0  0  0  0  0  0  0  0  0
    6.4598   -5.6372    0.0000 C    0  0  0  0  0  0  0  0  0  0  0  0
    2.1685   -2.7459    0.0000 C    0  0  0  0  0  0  0  0  0  0  0  0
    4.8230   -4.8895    0.0000 O    0  0  0  0  0  0  0  0  0  0  0  0
    6.0194   -2.2350    0.0000 O    0  0  0  0  0  0  0  0  0  0  0  0
    3.4064   -2.0356    0.0000 C    0  0  0  0  0  0  0  0  0  0  0  0
    6.3850   -3.9922    0.0000 C    0  0  0  0  0  0  0  0  0  0  0  0
    2.9952   -2.7459    0.0000 C    0  0  0  0  0  0  0  0  0  0  0  0
    1.7489   -2.0356    0.0000 C    0  0  0  0  0  0  0  0  0  0  0  0
    2.1685   -1.3210    0.0000 C    0  0  0  0  0  0  0  0  0  0  0  0
    1.7489   -3.4563    0.0000 Cl   0  0  0  0  0  0  0  0  0  0  0  0
    2.9952   -1.3210    0.0000 C    0  0  0  0  0  0  0  0  0  0  0  0
    0.9264   -2.0356    0.0000 O    0  0  0  0  0  0  0  0  0  0  0  0
    0.5151   -2.7542    0.0000 C    0  0  0  0  0  0  0  0  0  0  0  0
  2  1  1  0  0  0  0
  3  1  1  0  0  0  0
  4  3  1  0  0  0  0
  5  2  1  0  0  0  0
  5  4  1  0  0  0  0
  6  4  2  0  0  0  0
  7 15  1  0  0  0  0
  8 22  1  0  0  0  0
  9  8  3  0  0  0  0
 10  7  3  0  0  0  0
 11 16  2  0  0  0  0
 11 17  1  0  0  0  0
 12  2  2  0  0  0  0
 13  3  2  0  0  0  0
 14  6  1  0  0  0  0
 15  1  1  0  0  0  0
 16 14  1  0  0  0  0
 17 18  2  0  0  0  0
 18 20  1  0  0  0  0
 19 11  1  0  0  0  0
 20 14  2  0  0  0  0
 21 17  1  0  0  0  0
 22 21  1  0  0  0  0
M  END
> <CdId>
1264

> <Mol Weight>
331.773

> <Formula>
C16H10ClNO3S

> <Click_ID>
CLK017_C09 __ __ 

$$$$
