CLK004_H11
 OpenBabel03181404502D

 31 34  0  0  0  0  0  0  0  0999 V2000
    0.2763   -0.2120    0.0000 C   0  0  3  0  0  0  0  0  0  0  0  0
    0.9955   -0.6094    0.0000 C   0  0  0  0  0  0  0  0  0  0  0  0
    0.2687    0.6131    0.0000 C   0  0  0  0  0  0  0  0  0  0  0  0
   -0.9955   -0.9652    0.0000 C   0  0  0  0  0  0  0  0  0  0  0  0
    1.6956   -0.1931    0.0000 C   0  0  0  0  0  0  0  0  0  0  0  0
    0.9955   -1.4269    0.0000 C   0  0  0  0  0  0  0  0  0  0  0  0
    0.9690    1.0257    0.0000 C   0  0  0  0  0  0  0  0  0  0  0  0
   -0.4504    1.0106    0.0000 C   0  0  0  0  0  0  0  0  0  0  0  0
   -1.7222   -0.5677    0.0000 C   0  0  0  0  0  0  0  0  0  0  0  0
   -0.9841   -1.7903    0.0000 C   0  0  0  0  0  0  0  0  0  0  0  0
    1.6805    0.6246    0.0000 N   0  0  0  0  0  0  0  0  0  0  0  0
    2.4185   -0.5904    0.0000 C   0  0  0  0  0  0  0  0  0  0  0  0
    1.7222   -1.8281    0.0000 C   0  0  0  0  0  0  0  0  0  0  0  0
    0.2839   -1.8584    0.0000 O   0  0  0  0  0  0  0  0  0  0  0  0
    0.9539    1.8623    0.0000 C   0  0  0  0  0  0  0  0  0  0  0  0
   -0.4579    1.8320    0.0000 C   0  0  0  0  0  0  0  0  0  0  0  0
   -1.1620    0.5904    0.0000 O   0  0  0  0  0  0  0  0  0  0  0  0
   -2.4261   -0.9879    0.0000 C   0  0  0  0  0  0  0  0  0  0  0  0
   -1.7335    0.2574    0.0000 O   0  0  0  0  0  0  0  0  0  0  0  0
   -1.6919   -2.2142    0.0000 C   0  0  0  0  0  0  0  0  0  0  0  0
    2.3959    1.0522    0.0000 C   0  0  0  0  0  0  0  0  0  0  0  0
    2.4224   -1.4194    0.0000 C   0  0  0  0  0  0  0  0  0  0  0  0
    0.2422    2.2445    0.0000 C   0  0  0  0  0  0  0  0  0  0  0  0
   -2.4111   -1.8168    0.0000 C   0  0  0  0  0  0  0  0  0  0  0  0
   -2.4488    0.6586    0.0000 C   0  0  0  0  0  0  0  0  0  0  0  0
    3.1491   -1.8244    0.0000 C   0  0  0  0  0  0  0  0  0  0  0  0
    2.0212   -2.1461    0.0000 C   0  0  0  0  0  0  0  0  0  0  0  0
    0.2271    3.0810    0.0000 C   0  0  0  0  0  0  0  0  0  0  0  0
   -0.5867    2.2332    0.0000 C   0  0  0  0  0  0  0  0  0  0  0  0
   -2.4603    1.4800    0.0000 C   0  0  0  0  0  0  0  0  0  0  0  0
   -3.1794    1.8887    0.0000 C   0  0  0  0  0  0  0  0  0  0  0  0
  1  2  1  0  0  0  0
  1  3  1  0  0  0  0
  1  4  1  0  0  0  0
  2  5  2  0  0  0  0
  2  6  1  0  0  0  0
  3  7  2  0  0  0  0
  3  8  1  0  0  0  0
  4  9  1  0  0  0  0
  4 10  2  0  0  0  0
  5 11  1  0  0  0  0
  5 12  1  0  0  0  0
  6 13  1  0  0  0  0
  6 14  2  0  0  0  0
  7 15  1  0  0  0  0
  7 11  1  0  0  0  0
  8 16  1  0  0  0  0
  8 17  2  0  0  0  0
  9 18  2  0  0  0  0
  9 19  1  0  0  0  0
 10 20  1  0  0  0  0
 11 21  1  0  0  0  0
 12 22  1  0  0  0  0
 13 22  1  0  0  0  0
 15 23  1  0  0  0  0
 16 23  1  0  0  0  0
 18 24  1  0  0  0  0
 19 25  1  0  0  0  0
 20 24  2  0  0  0  0
 22 26  1  0  0  0  0
 22 27  1  0  0  0  0
 23 28  1  0  0  0  0
 23 29  1  0  0  0  0
 25 30  1  0  0  0  0
 30 31  3  0  0  0  0
M  END
> <CdId>
320

> <Mol Weight>
417.5399

> <Formula>
C27H31NO3

> <Click_ID>
CLK004_H11 __ __ 

$$$$
