CLK003_B08
 OpenBabel03181404502D

 30 33  0  0  0  0  0  0  0  0999 V2000
    2.9143    0.2277    0.0000 C    0  0  0  0  0  0  0  0  0  0  0  0
    2.0909    0.2277    0.0000 C    0  0  0  0  0  0  0  0  0  0  0  0
    3.1609   -0.5540    0.0000 N    0  0  0  0  0  0  0  0  0  0  0  0
    3.3279    0.9449    0.0000 C    0  0  0  0  0  0  0  0  0  0  0  0
    1.8291   -0.5540    0.0000 C    0  0  0  0  0  0  0  0  0  0  0  0
    1.6772    0.9449    0.0000 C    0  0  0  0  0  0  0  0  0  0  0  0
    2.5007   -1.0397    0.0000 C    0  0  0  0  0  0  0  0  0  0  0  0
    3.9579   -0.8083    0.0000 C    0  0  0  0  0  0  0  0  0  0  0  0
    2.9143    1.6583    0.0000 C    0  0  0  0  0  0  0  0  0  0  0  0
    1.0436   -0.8083    0.0000 N    0  0  0  0  0  0  0  0  0  0  0  0
    2.0909    1.6583    0.0000 C    0  0  0  0  0  0  0  0  0  0  0  0
    2.5007   -1.8670    0.0000 O    0  0  0  0  0  0  0  0  0  0  0  0
    4.5650   -0.2581    0.0000 C    0  0  0  0  0  0  0  0  0  0  0  0
    0.4364   -0.2581    0.0000 N    0  0  0  0  0  0  0  0  0  0  0  0
    1.6772    2.3717    0.0000 Br   0  0  0  0  0  0  0  0  0  0  0  0
    5.1797    0.2922    0.0000 C    0  0  0  0  0  0  0  0  0  0  0  0
   -0.3491   -0.5123    0.0000 C    0  0  0  0  0  0  0  0  0  0  0  0
   -0.9639    0.0380    0.0000 C    0  0  0  0  0  0  0  0  0  0  0  0
   -0.5237   -1.3168    0.0000 O    0  0  0  0  0  0  0  0  0  0  0  0
   -1.7494   -0.2163    0.0000 N    0  0  0  0  0  0  0  0  0  0  0  0
   -2.4210    0.2657    0.0000 N    0  0  0  0  0  0  0  0  0  0  0  0
   -2.0112   -0.9980    0.0000 N    0  0  0  0  0  0  0  0  0  0  0  0
   -3.0813   -0.2163    0.0000 C    0  0  0  0  0  0  0  0  0  0  0  0
   -2.8347   -0.9980    0.0000 N    0  0  0  0  0  0  0  0  0  0  0  0
   -3.8668    0.0380    0.0000 C    0  0  0  0  0  0  0  0  0  0  0  0
   -4.0452    0.8424    0.0000 C    0  0  0  0  0  0  0  0  0  0  0  0
   -4.4853   -0.5123    0.0000 C    0  0  0  0  0  0  0  0  0  0  0  0
   -4.8307    1.1042    0.0000 C    0  0  0  0  0  0  0  0  0  0  0  0
   -5.2709   -0.2581    0.0000 C    0  0  0  0  0  0  0  0  0  0  0  0
   -5.4378    0.5540    0.0000 C    0  0  0  0  0  0  0  0  0  0  0  0
  1  2  2  0  0  0  0
  1  3  1  0  0  0  0
  1  4  1  0  0  0  0
  2  5  1  0  0  0  0
  2  6  1  0  0  0  0
  3  7  1  0  0  0  0
  3  8  1  0  0  0  0
  4  9  2  0  0  0  0
  5 10  2  0  0  0  0
  5  7  1  0  0  0  0
  6 11  2  0  0  0  0
  7 12  2  0  0  0  0
  8 13  1  0  0  0  0
  9 11  1  0  0  0  0
 10 14  1  0  0  0  0
 11 15  1  0  0  0  0
 13 16  3  0  0  0  0
 14 17  1  0  0  0  0
 17 18  1  0  0  0  0
 17 19  2  0  0  0  0
 18 20  1  0  0  0  0
 20 21  1  0  0  0  0
 20 22  1  0  0  0  0
 21 23  2  0  0  0  0
 22 24  2  0  0  0  0
 23 25  1  0  0  0  0
 23 24  1  0  0  0  0
 25 26  1  0  0  0  0
 25 27  2  0  0  0  0
 26 28  2  0  0  0  0
 27 29  1  0  0  0  0
 28 30  1  0  0  0  0
 29 30  2  0  0  0  0
M  END
> <CdId>
177

> <Mol Weight>
464.275

> <Formula>
C20H14BrN7O2

> <Click_ID>
CLK003_B08 __ __ 

$$$$
