CLK004_D05
 OpenBabel03181404502D

 27 30  0  0  0  0  0  0  0  0999 V2000
    0.2796    0.8009    0.0000 C    0  0  3  0  0  0  0  0  0  0  0  0
    0.9942    0.3866    0.0000 C    0  0  0  0  0  0  0  0  0  0  0  0
   -0.4315    0.3866    0.0000 C    0  0  0  0  0  0  0  0  0  0  0  0
    0.2796    1.6259    0.0000 C    0  0  0  0  0  0  0  0  0  0  0  0
    1.7157    0.8009    0.0000 C    0  0  0  0  0  0  0  0  0  0  0  0
    0.9942   -0.4350    0.0000 C    0  0  0  0  0  0  0  0  0  0  0  0
   -0.4350   -0.4384    0.0000 C    0  0  0  0  0  0  0  0  0  0  0  0
   -1.1495    0.8009    0.0000 C    0  0  0  0  0  0  0  0  0  0  0  0
    1.0011    2.0401    0.0000 C    0  0  0  0  0  0  0  0  0  0  0  0
   -0.4315    2.0401    0.0000 C    0  0  0  0  0  0  0  0  0  0  0  0
    2.4198    0.3866    0.0000 C    0  0  0  0  0  0  0  0  0  0  0  0
    1.7087    1.6259    0.0000 O    0  0  0  0  0  0  0  0  0  0  0  0
    1.7157   -0.8388    0.0000 C    0  0  0  0  0  0  0  0  0  0  0  0
   -1.1599   -0.8492    0.0000 C    0  0  0  0  0  0  0  0  0  0  0  0
   -1.8710    0.3866    0.0000 C    0  0  0  0  0  0  0  0  0  0  0  0
    1.0011    2.8652    0.0000 N    0  0  0  0  0  0  0  0  0  0  0  0
   -1.1460    2.4544    0.0000 N    0  0  0  0  0  0  0  0  0  0  0  0
    2.4198   -0.4246    0.0000 C    0  0  0  0  0  0  0  0  0  0  0  0
    1.8813   -1.6466    0.0000 O    0  0  0  0  0  0  0  0  0  0  0  0
   -1.8710   -0.4384    0.0000 C    0  0  0  0  0  0  0  0  0  0  0  0
   -1.1634   -1.6777    0.0000 Cl   0  0  0  0  0  0  0  0  0  0  0  0
    3.0343   -0.9770    0.0000 O    0  0  0  0  0  0  0  0  0  0  0  0
    2.7029   -1.7364    0.0000 C    0  0  0  0  0  0  0  0  0  0  0  0
   -2.5890   -0.8595    0.0000 O    0  0  0  0  0  0  0  0  0  0  0  0
   -2.5890   -1.6846    0.0000 C    0  0  0  0  0  0  0  0  0  0  0  0
   -3.3036   -2.0989    0.0000 C    0  0  0  0  0  0  0  0  0  0  0  0
   -4.0146   -2.5096    0.0000 C    0  0  0  0  0  0  0  0  0  0  0  0
  1  2  1  0  0  0  0
  1  3  1  0  0  0  0
  1  4  1  0  0  0  0
  2  5  2  0  0  0  0
  2  6  1  0  0  0  0
  3  7  1  0  0  0  0
  3  8  2  0  0  0  0
  4  9  2  0  0  0  0
  4 10  1  0  0  0  0
  5 11  1  0  0  0  0
  5 12  1  0  0  0  0
  6 13  2  0  0  0  0
  7 14  2  0  0  0  0
  8 15  1  0  0  0  0
  9 16  1  0  0  0  0
  9 12  1  0  0  0  0
 10 17  3  0  0  0  0
 11 18  2  0  0  0  0
 13 19  1  0  0  0  0
 13 18  1  0  0  0  0
 14 20  1  0  0  0  0
 14 21  1  0  0  0  0
 15 20  2  0  0  0  0
 18 22  1  0  0  0  0
 19 23  1  0  0  0  0
 20 24  1  0  0  0  0
 22 23  1  0  0  0  0
 24 25  1  0  0  0  0
 25 26  1  0  0  0  0
 26 27  3  0  0  0  0
M  END
> <CdId>
274

> <Mol Weight>
380.781

> <Formula>
C20H13ClN2O4

> <Click_ID>
CLK004_D05 __ __ 

$$$$
