CLK014_F08
 OpenBabel03181404502D

 22 23  0  0  0  0  0  0  0  0999 V2000
    1.5650   -0.8158    0.0000 N    0  0  0  0  0  0  0  0  0  0  0  0
    1.8230   -1.6024    0.0000 C    0  0  0  0  0  0  0  0  0  0  0  0
    2.2350   -0.3288    0.0000 C    0  0  0  0  0  0  0  0  0  0  0  0
    2.9010   -0.8158    0.0000 C    0  0  0  0  0  0  0  0  0  0  0  0
    2.6470   -1.6024    0.0000 S    0  0  0  0  0  0  0  0  0  0  0  0
    3.6876   -0.5619    0.0000 C    0  0  0  0  0  0  0  0  0  0  0  0
    5.5355   -2.1975    0.0000 C    0  0  0  0  0  0  0  0  0  0  0  0
    4.7614   -2.4639    0.0000 C    0  0  0  0  0  0  0  0  0  0  0  0
    5.6936   -1.3901    0.0000 C    0  0  0  0  0  0  0  0  0  0  0  0
    4.2994   -1.1113    0.0000 C    0  0  0  0  0  0  0  0  0  0  0  0
    0.6118    0.2455    0.0000 C    0  0  0  0  0  0  0  0  0  0  0  0
    0.3913    1.0446    0.0000 C    0  0  0  0  0  0  0  0  0  0  0  0
    1.3360   -2.2642    0.0000 O    0  0  0  0  0  0  0  0  0  0  0  0
    4.1454   -1.9146    0.0000 C    0  0  0  0  0  0  0  0  0  0  0  0
    2.2267    0.4952    0.0000 O    0  0  0  0  0  0  0  0  0  0  0  0
    5.0818   -0.8408    0.0000 C    0  0  0  0  0  0  0  0  0  0  0  0
    0.7866   -0.5619    0.0000 C    0  0  0  0  0  0  0  0  0  0  0  0
    4.5866   -3.2589    0.0000 Br   0  0  0  0  0  0  0  0  0  0  0  0
    6.1431   -2.7386    0.0000 O    0  0  0  0  0  0  0  0  0  0  0  0
    6.4720   -1.1404    0.0000 O    0  0  0  0  0  0  0  0  0  0  0  0
    5.9808   -3.5502    0.0000 C    0  0  0  0  0  0  0  0  0  0  0  0
    6.6343   -0.3288    0.0000 C    0  0  0  0  0  0  0  0  0  0  0  0
  2  1  1  0  0  0  0
  3  1  1  0  0  0  0
  4  3  1  0  0  0  0
  4  5  1  0  0  0  0
  5  2  1  0  0  0  0
  6  4  2  0  0  0  0
  7  9  1  0  0  0  0
  7  8  2  0  0  0  0
  8 14  1  0  0  0  0
  9 16  2  0  0  0  0
 10  6  1  0  0  0  0
 11 17  1  0  0  0  0
 12 11  3  0  0  0  0
 13  2  2  0  0  0  0
 14 10  2  0  0  0  0
 15  3  2  0  0  0  0
 16 10  1  0  0  0  0
 17  1  1  0  0  0  0
 18  8  1  0  0  0  0
 19  7  1  0  0  0  0
 20  9  1  0  0  0  0
 21 19  1  0  0  0  0
 22 20  1  0  0  0  0
M  END
> <CdId>
1053

> <Mol Weight>
382.229

> <Formula>
C15H12BrNO4S

> <Click_ID>
CLK014_F08 __ __ 

$$$$
