CLK035_E07
 OpenBabel03181404502D

 35 37  0  0  0  0  0  0  0  0999 V2000
   -4.5726    2.5440    0.0000 C   0  0  0  0  0  0  0  0  0  0  0  0
   -0.9935    5.4373    0.0000 S   0  0  0  0  0  0  0  0  0  0  0  0
   -3.8618    2.9639    0.0000 N   0  0  0  0  0  0  0  0  0  0  0  0
   -4.6641    1.7293    0.0000 N   0  0  0  0  0  0  0  0  0  0  0  0
   -5.3084    2.8890    0.0000 S   0  0  0  0  0  0  0  0  0  0  0  0
   -5.4705    1.5671    0.0000 C   0  0  0  0  0  0  0  0  0  0  0  0
   -5.8696    2.2904    0.0000 C   0  0  0  0  0  0  0  0  0  0  0  0
   -3.8618    3.7911    0.0000 C   0  0  0  0  0  0  0  0  0  0  0  0
   -0.2868    5.8405    0.0000 N   0  0  0  0  0  0  0  0  0  0  0  0
   -6.6885    2.3029    0.0000 C   0  0  0  0  0  0  0  0  0  0  0  0
   -1.7085    5.0175    0.0000 C   0  0  0  0  0  0  0  0  0  0  0  0
   -4.2359    0.3492    0.0000 C   0  0  0  0  0  0  0  0  0  0  0  0
   -1.4175    6.1606    0.0000 O   0  0  0  0  0  0  0  0  0  0  0  0
   -0.5819    4.7182    0.0000 O   0  0  0  0  0  0  0  0  0  0  0  0
   -4.4105   -0.4531    0.0000 C   0  0  0  0  0  0  0  0  0  0  0  0
   -5.8945    0.8688    0.0000 C   0  0  0  0  0  0  0  0  0  0  0  0
   -3.1509    4.2027    0.0000 C   0  0  0  0  0  0  0  0  0  0  0  0
   -7.1126    1.5963    0.0000 C   0  0  0  0  0  0  0  0  0  0  0  0
   -4.5851    4.2027    0.0000 O   0  0  0  0  0  0  0  0  0  0  0  0
   -6.7010    0.8812    0.0000 C   0  0  0  0  0  0  0  0  0  0  0  0
   -4.0488    1.1598    0.0000 C   0  0  0  0  0  0  0  0  0  0  0  0
   -2.4318    5.4373    0.0000 C   0  0  0  0  0  0  0  0  0  0  0  0
   -1.7168    4.1944    0.0000 C   0  0  0  0  0  0  0  0  0  0  0  0
   -3.1509    5.0175    0.0000 C   0  0  0  0  0  0  0  0  0  0  0  0
   -2.4318    3.7869    0.0000 C   0  0  0  0  0  0  0  0  0  0  0  0
   -0.2826    6.6761    0.0000 C   0  0  0  0  0  0  0  0  0  0  0  0
    0.4282    5.4415    0.0000 C   0  0  0  0  0  0  0  0  0  0  0  0
   -7.0876    3.0262    0.0000 C   0  0  0  0  0  0  0  0  0  0  0  0
   -0.9935    7.9107    0.0000 O   0  0  0  0  0  0  0  0  0  0  0  0
    1.8582    5.4415    0.0000 O   0  0  0  0  0  0  0  0  0  0  0  0
   -0.9977    7.0876    0.0000 C   0  0  0  0  0  0  0  0  0  0  0  0
    1.1515    5.8530    0.0000 C   0  0  0  0  0  0  0  0  0  0  0  0
   -7.1001    0.1579    0.0000 C   0  0  0  0  0  0  0  0  0  0  0  0
    2.5732    5.8530    0.0000 C   0  0  0  0  0  0  0  0  0  0  0  0
   -1.6960    8.3180    0.0000 C   0  0  0  0  0  0  0  0  0  0  0  0
  2 11  1  0  0  0  0
  3  1  2  0  0  0  0
  4  1  1  0  0  0  0
  5  1  1  0  0  0  0
  6  4  1  0  0  0  0
  7  5  1  0  0  0  0
  7  6  2  0  0  0  0
  8  3  1  0  0  0  0
  9  2  1  0  0  0  0
 10  7  1  0  0  0  0
 11 23  2  0  0  0  0
 11 22  1  0  0  0  0
 12 21  1  0  0  0  0
 13  2  2  0  0  0  0
 14  2  2  0  0  0  0
 15 12  3  0  0  0  0
 16  6  1  0  0  0  0
 17  8  1  0  0  0  0
 18 10  2  0  0  0  0
 19  8  2  0  0  0  0
 20 16  2  0  0  0  0
 20 18  1  0  0  0  0
 21  4  1  0  0  0  0
 22 24  2  0  0  0  0
 23 25  1  0  0  0  0
 24 17  1  0  0  0  0
 25 17  2  0  0  0  0
 26  9  1  0  0  0  0
 27  9  1  0  0  0  0
 28 10  1  0  0  0  0
 29 31  1  0  0  0  0
 30 32  1  0  0  0  0
 31 26  1  0  0  0  0
 32 27  1  0  0  0  0
 33 20  1  0  0  0  0
 34 30  1  0  0  0  0
 35 29  1  0  0  0  0
M  END
> <CdId>
2691

> <Mol Weight>
515.645

> <Formula>
C25H29N3O5S2

> <Click_ID>
CLK035_E07 __ __ 

$$$$
