CLK001_C11
 OpenBabel03181404502D

 13 14  0  0  0  0  0  0  0  0999 V2000
   -0.8137    0.2448    0.0000 C   0  0  0  0  0  0  0  0  0  0  0  0
   -0.8137   -0.5793    0.0000 C   0  0  0  0  0  0  0  0  0  0  0  0
   -0.0483    0.5103    0.0000 N   0  0  0  0  0  0  0  0  0  0  0  0
   -1.5344    0.6585    0.0000 C   0  0  0  0  0  0  0  0  0  0  0  0
   -0.0276   -0.8344    0.0000 S   0  0  0  0  0  0  0  0  0  0  0  0
   -1.5344   -0.9965    0.0000 C   0  0  0  0  0  0  0  0  0  0  0  0
    0.4517   -0.1655    0.0000 C   0  0  0  0  0  0  0  0  0  0  0  0
   -2.2481    0.2448    0.0000 C   0  0  0  0  0  0  0  0  0  0  0  0
   -2.2481   -0.5828    0.0000 C   0  0  0  0  0  0  0  0  0  0  0  0
    1.2758   -0.1655    0.0000 S   0  0  0  0  0  0  0  0  0  0  0  0
    1.6896    0.5552    0.0000 C   0  0  0  0  0  0  0  0  0  0  0  0
    2.5136    0.5552    0.0000 C   0  0  0  0  0  0  0  0  0  0  0  0
    3.3376    0.5552    0.0000 C   0  0  0  0  0  0  0  0  0  0  0  0
  1  2  1  0  0  0  0
  1  3  1  0  0  0  0
  1  4  2  0  0  0  0
  2  5  1  0  0  0  0
  2  6  2  0  0  0  0
  3  7  2  0  0  0  0
  4  8  1  0  0  0  0
  5  7  1  0  0  0  0
  6  9  1  0  0  0  0
  7 10  1  0  0  0  0
  8  9  2  0  0  0  0
 10 11  1  0  0  0  0
 11 12  1  0  0  0  0
 12 13  3  0  0  0  0
M  END
> <CdId>
30

> <Mol Weight>
205.299

> <Formula>
C10H7NS2

> <Click_ID>
CLK001_C11 __ __ 

$$$$
