CLK031_C09
 OpenBabel03181404502D

 30 33  0  0  0  0  0  0  0  0999 V2000
   -1.1625    2.3833    0.0000 C   0  0  0  0  0  0  0  0  0  0  0  0
   -4.5833    3.2125    0.0000 S   0  0  0  0  0  0  0  0  0  0  0  0
   -1.6458    1.7208    0.0000 N   0  0  0  0  0  0  0  0  0  0  0  0
   -0.3375    2.3750    0.0000 N   0  0  0  0  0  0  0  0  0  0  0  0
   -1.6458    3.0500    0.0000 S   0  0  0  0  0  0  0  0  0  0  0  0
   -2.4333    2.7958    0.0000 C   0  0  0  0  0  0  0  0  0  0  0  0
   -2.4333    1.9708    0.0000 C   0  0  0  0  0  0  0  0  0  0  0  0
   -3.8583    2.7958    0.0000 C   0  0  0  0  0  0  0  0  0  0  0  0
    0.0750    3.0875    0.0000 C   0  0  0  0  0  0  0  0  0  0  0  0
   -3.1458    3.2083    0.0000 C   0  0  0  0  0  0  0  0  0  0  0  0
    1.3167    3.8083    0.0000 C   0  0  0  0  0  0  0  0  0  0  0  0
   -1.9458    0.3208    0.0000 C   0  0  0  0  0  0  0  0  0  0  0  0
   -3.1458    1.5583    0.0000 C   0  0  0  0  0  0  0  0  0  0  0  0
   -2.4958   -0.2917    0.0000 C   0  0  0  0  0  0  0  0  0  0  0  0
   -5.0208    2.5083    0.0000 O   0  0  0  0  0  0  0  0  0  0  0  0
   -4.1458    3.9083    0.0000 O   0  0  0  0  0  0  0  0  0  0  0  0
    0.9000    3.0875    0.0000 C   0  0  0  0  0  0  0  0  0  0  0  0
    0.8917    4.5125    0.0000 C   0  0  0  0  0  0  0  0  0  0  0  0
   -5.2833    3.6458    0.0000 N   0  0  0  0  0  0  0  0  0  0  0  0
   -3.8583    1.9708    0.0000 C   0  0  0  0  0  0  0  0  0  0  0  0
   -0.3375    3.8000    0.0000 O   0  0  0  0  0  0  0  0  0  0  0  0
   -1.3958    0.9333    0.0000 C   0  0  0  0  0  0  0  0  0  0  0  0
    1.3042    5.2292    0.0000 C   0  0  0  0  0  0  0  0  0  0  0  0
    2.1417    3.8083    0.0000 C   0  0  0  0  0  0  0  0  0  0  0  0
    2.5417    4.5250    0.0000 C   0  0  0  0  0  0  0  0  0  0  0  0
    0.0667    4.5042    0.0000 C   0  0  0  0  0  0  0  0  0  0  0  0
    2.1292    5.2417    0.0000 C   0  0  0  0  0  0  0  0  0  0  0  0
    0.8875    5.9417    0.0000 C   0  0  0  0  0  0  0  0  0  0  0  0
   -0.3458    5.2125    0.0000 C   0  0  0  0  0  0  0  0  0  0  0  0
    0.0625    5.9375    0.0000 C   0  0  0  0  0  0  0  0  0  0  0  0
  2  8  1  0  0  0  0
  3  1  1  0  0  0  0
  4  1  2  0  0  0  0
  5  1  1  0  0  0  0
  6  5  1  0  0  0  0
  6  7  2  0  0  0  0
  7  3  1  0  0  0  0
  8 10  2  0  0  0  0
  8 20  1  0  0  0  0
  9  4  1  0  0  0  0
 10  6  1  0  0  0  0
 11 17  1  0  0  0  0
 12 22  1  0  0  0  0
 13  7  1  0  0  0  0
 14 12  3  0  0  0  0
 15  2  2  0  0  0  0
 16  2  2  0  0  0  0
 17  9  1  0  0  0  0
 18 11  1  0  0  0  0
 19  2  1  0  0  0  0
 20 13  2  0  0  0  0
 21  9  2  0  0  0  0
 22  3  1  0  0  0  0
 23 18  1  0  0  0  0
 23 27  1  0  0  0  0
 24 11  2  0  0  0  0
 25 24  1  0  0  0  0
 26 18  2  0  0  0  0
 27 25  2  0  0  0  0
 28 23  2  0  0  0  0
 29 26  1  0  0  0  0
 30 29  2  0  0  0  0
 30 28  1  0  0  0  0
M  END
> <CdId>
2353

> <Mol Weight>
435.519

> <Formula>
C22H17N3O3S2

> <Click_ID>
CLK031_C09 __ __ 

$$$$
