CLK042A07
 OpenBabel03181404502D

 26 28  0  0  0  0  0  0  0  0999 V2000
   -0.7917   -0.6750    0.0000 N    0  0  0  0  0  0  0  0  0  0  0  0
   -1.2750   -0.0083    0.0000 C    0  0  0  0  0  0  0  0  0  0  0  0
   -0.0042   -0.4208    0.0000 C    0  0  0  0  0  0  0  0  0  0  0  0
   -0.0042    0.4042    0.0000 C    0  0  0  0  0  0  0  0  0  0  0  0
   -0.7917    0.6583    0.0000 N    0  0  0  0  0  0  0  0  0  0  0  0
   -1.0458   -1.4625    0.0000 C    0  0  0  0  0  0  0  0  0  0  0  0
    0.6625    0.8875    0.0000 C    0  0  0  0  0  0  0  0  0  0  0  0
   -1.8542   -1.6333    0.0000 C    0  0  0  0  0  0  0  0  0  0  0  0
   -2.1000   -0.0083    0.0000 S    0  0  0  0  0  0  0  0  0  0  0  0
    1.4167    0.5542    0.0000 C    0  0  0  0  0  0  0  0  0  0  0  0
    2.5792    3.1625    0.0000 C    0  0  0  0  0  0  0  0  0  0  0  0
    2.4917    3.9833    0.0000 C    0  0  0  0  0  0  0  0  0  0  0  0
    0.6625   -0.9083    0.0000 O    0  0  0  0  0  0  0  0  0  0  0  0
   -2.4042   -1.0208    0.0000 C    0  0  0  0  0  0  0  0  0  0  0  0
    2.0833    1.0375    0.0000 C    0  0  0  0  0  0  0  0  0  0  0  0
   -2.1500   -0.2333    0.0000 Cl   0  0  0  0  0  0  0  0  0  0  0  0
    1.9958    1.8583    0.0000 O    0  0  0  0  0  0  0  0  0  0  0  0
    2.6625    2.3417    0.0000 C    0  0  0  0  0  0  0  0  0  0  0  0
   -2.1083   -2.4167    0.0000 C    0  0  0  0  0  0  0  0  0  0  0  0
    1.5000   -0.2667    0.0000 C    0  0  0  0  0  0  0  0  0  0  0  0
   -3.2125   -1.1917    0.0000 C    0  0  0  0  0  0  0  0  0  0  0  0
    2.8375    0.7000    0.0000 C    0  0  0  0  0  0  0  0  0  0  0  0
   -2.9125   -2.5875    0.0000 C    0  0  0  0  0  0  0  0  0  0  0  0
    2.2542   -0.6042    0.0000 C    0  0  0  0  0  0  0  0  0  0  0  0
    2.9208   -0.1167    0.0000 C    0  0  0  0  0  0  0  0  0  0  0  0
   -3.4667   -1.9750    0.0000 C    0  0  0  0  0  0  0  0  0  0  0  0
  2  1  1  0  0  0  0
  3  1  1  0  0  0  0
  4  3  1  0  0  0  0
  5  2  1  0  0  0  0
  5  4  1  0  0  0  0
  6  1  1  0  0  0  0
  7  4  2  0  0  0  0
  8  6  1  0  0  0  0
  9  2  2  0  0  0  0
 10  7  1  0  0  0  0
 11 18  1  0  0  0  0
 12 11  3  0  0  0  0
 13  3  2  0  0  0  0
 14  8  2  0  0  0  0
 15 10  2  0  0  0  0
 16 14  1  0  0  0  0
 17 15  1  0  0  0  0
 18 17  1  0  0  0  0
 19  8  1  0  0  0  0
 20 10  1  0  0  0  0
 21 14  1  0  0  0  0
 22 15  1  0  0  0  0
 23 19  2  0  0  0  0
 23 26  1  0  0  0  0
 24 20  2  0  0  0  0
 25 22  2  0  0  0  0
 25 24  1  0  0  0  0
 26 21  2  0  0  0  0
M  END
> <CdId>
3209

> <Mol Weight>
382.863

> <Formula>
C20H15ClN2O2S

> <Click_ID>
CLK042A07 __ __ 

$$$$
