CLK049A04
 OpenBabel03181404502D

 17 18  0  0  0  0  0  0  0  0999 V2000
   -0.8583   -0.2417    0.0000 C   0  0  0  0  0  0  0  0  0  0  0  0
   -1.3417    0.4292    0.0000 N   0  0  0  0  0  0  0  0  0  0  0  0
   -0.0750    0.0167    0.0000 C   0  0  0  0  0  0  0  0  0  0  0  0
   -0.0750    0.8417    0.0000 C   0  0  0  0  0  0  0  0  0  0  0  0
   -0.8583    1.0958    0.0000 N   0  0  0  0  0  0  0  0  0  0  0  0
   -1.1125   -1.0250    0.0000 C   0  0  0  0  0  0  0  0  0  0  0  0
   -0.2625   -3.0333    0.0000 C   0  0  0  0  0  0  0  0  0  0  0  0
    0.2875   -3.6500    0.0000 C   0  0  0  0  0  0  0  0  0  0  0  0
    0.5917    1.3250    0.0000 C   0  0  0  0  0  0  0  0  0  0  0  0
   -1.9208   -1.1958    0.0000 O   0  0  0  0  0  0  0  0  0  0  0  0
   -0.5625   -1.6375    0.0000 N   0  0  0  0  0  0  0  0  0  0  0  0
   -0.8167   -2.4208    0.0000 C   0  0  0  0  0  0  0  0  0  0  0  0
    1.3458    0.9875    0.0000 C   0  0  0  0  0  0  0  0  0  0  0  0
    0.5083    2.1458    0.0000 C   0  0  0  0  0  0  0  0  0  0  0  0
    1.1750    2.6292    0.0000 C   0  0  0  0  0  0  0  0  0  0  0  0
    2.0125    1.4750    0.0000 C   0  0  0  0  0  0  0  0  0  0  0  0
    1.9292    2.2958    0.0000 C   0  0  0  0  0  0  0  0  0  0  0  0
  2  1  2  0  0  0  0
  3  1  1  0  0  0  0
  4  3  2  0  0  0  0
  5  2  1  0  0  0  0
  5  4  1  0  0  0  0
  6  1  1  0  0  0  0
  7 12  1  0  0  0  0
  8  7  3  0  0  0  0
  9  4  1  0  0  0  0
 10  6  2  0  0  0  0
 11  6  1  0  0  0  0
 12 11  1  0  0  0  0
 13  9  1  0  0  0  0
 14  9  2  0  0  0  0
 15 14  1  0  0  0  0
 16 13  2  0  0  0  0
 17 15  2  0  0  0  0
 17 16  1  0  0  0  0
M  END
> <CdId>
3745

> <Mol Weight>
225.2459

> <Formula>
C13H11N3O

> <Click_ID>
CLK049A04 __ __ 

$$$$
