CLK039D10
 OpenBabel03181404502D

 15 15  0  0  0  0  0  0  0  0999 V2000
    1.5208    2.8625    0.0000 C    0  0  0  0  0  0  0  0  0  0  0  0
    2.2375    3.2750    0.0000 C    0  0  0  0  0  0  0  0  0  0  0  0
    0.0917    1.2125    0.0000 C    0  0  0  0  0  0  0  0  0  0  0  0
   -0.6208    1.6250    0.0000 O    0  0  0  0  0  0  0  0  0  0  0  0
    0.8083    1.6250    0.0000 N    0  0  0  0  0  0  0  0  0  0  0  0
   -0.6208   -0.0250    0.0000 O    0  0  0  0  0  0  0  0  0  0  0  0
    0.0917    0.3875    0.0000 C    0  0  0  0  0  0  0  0  0  0  0  0
   -0.6208   -0.8500    0.0000 C    0  0  0  0  0  0  0  0  0  0  0  0
   -0.6208   -2.5000    0.0000 C    0  0  0  0  0  0  0  0  0  0  0  0
   -0.6208   -3.3250    0.0000 Br   0  0  0  0  0  0  0  0  0  0  0  0
    0.8083    2.4500    0.0000 C    0  0  0  0  0  0  0  0  0  0  0  0
    0.0917   -1.2625    0.0000 C    0  0  0  0  0  0  0  0  0  0  0  0
   -1.3375   -1.2625    0.0000 C    0  0  0  0  0  0  0  0  0  0  0  0
    0.0917   -2.0875    0.0000 C    0  0  0  0  0  0  0  0  0  0  0  0
   -1.3375   -2.0875    0.0000 C    0  0  0  0  0  0  0  0  0  0  0  0
  2  1  3  0  0  0  0
  3  5  1  0  0  0  0
  4  3  2  0  0  0  0
  5 11  1  0  0  0  0
  6  7  1  0  0  0  0
  7  3  1  0  0  0  0
  8  6  1  0  0  0  0
  9 15  2  0  0  0  0
 10  9  1  0  0  0  0
 11  1  1  0  0  0  0
 12  8  1  0  0  0  0
 13  8  2  0  0  0  0
 14 12  2  0  0  0  0
 14  9  1  0  0  0  0
 15 13  1  0  0  0  0
M  END
> <CdId>
2996

> <Mol Weight>
268.107

> <Formula>
C11H10BrNO2

> <Click_ID>
CLK039D10 __ __ 

$$$$
