CLK003_A06
 OpenBabel03181404502D

 33 36  0  0  0  0  0  0  0  0999 V2000
    0.4328   -0.3455    0.0000 C    0  0  3  0  0  0  0  0  0  0  0  0
    0.4328   -1.1693    0.0000 C    0  0  0  0  0  0  0  0  0  0  0  0
    1.1426    0.0608    0.0000 C    0  0  0  0  0  0  0  0  0  0  0  0
   -0.2847    0.0684    0.0000 C    0  0  0  0  0  0  0  0  0  0  0  0
    1.1426   -1.5830    0.0000 C    0  0  0  0  0  0  0  0  0  0  0  0
   -0.2847   -1.5830    0.0000 C    0  0  0  0  0  0  0  0  0  0  0  0
    1.8487   -0.3531    0.0000 C    0  0  0  0  0  0  0  0  0  0  0  0
    1.1426    0.8845    0.0000 C    0  0  0  0  0  0  0  0  0  0  0  0
   -0.9984   -0.3455    0.0000 C    0  0  0  0  0  0  0  0  0  0  0  0
   -0.2847    0.8959    0.0000 C    0  0  0  0  0  0  0  0  0  0  0  0
    1.8487   -1.1693    0.0000 N    0  0  0  0  0  0  0  0  0  0  0  0
    1.1426   -2.4068    0.0000 C    0  0  0  0  0  0  0  0  0  0  0  0
   -0.2847   -2.4068    0.0000 C    0  0  0  0  0  0  0  0  0  0  0  0
   -1.0021   -1.1654    0.0000 O    0  0  0  0  0  0  0  0  0  0  0  0
    2.5662    0.0684    0.0000 C    0  0  0  0  0  0  0  0  0  0  0  0
    1.8487    1.2945    0.0000 C    0  0  0  0  0  0  0  0  0  0  0  0
    0.4290    1.3059    0.0000 O    0  0  0  0  0  0  0  0  0  0  0  0
   -1.7158    0.0684    0.0000 C    0  0  0  0  0  0  0  0  0  0  0  0
   -0.9984    1.3059    0.0000 C    0  0  0  0  0  0  0  0  0  0  0  0
    0.4290   -2.8206    0.0000 C    0  0  0  0  0  0  0  0  0  0  0  0
    2.5662    0.8807    0.0000 C    0  0  0  0  0  0  0  0  0  0  0  0
   -1.7158    0.8959    0.0000 C    0  0  0  0  0  0  0  0  0  0  0  0
   -2.4295   -0.3455    0.0000 O    0  0  0  0  0  0  0  0  0  0  0  0
   -0.9984    2.1334    0.0000 Cl   0  0  0  0  0  0  0  0  0  0  0  0
    0.4290   -3.6557    0.0000 C    0  0  0  0  0  0  0  0  0  0  0  0
   -0.4062   -2.8206    0.0000 C    0  0  0  0  0  0  0  0  0  0  0  0
    2.1486    1.6020    0.0000 C    0  0  0  0  0  0  0  0  0  0  0  0
    3.2913    1.3059    0.0000 C    0  0  0  0  0  0  0  0  0  0  0  0
   -2.4295    1.2983    0.0000 O    0  0  0  0  0  0  0  0  0  0  0  0
   -3.1470    0.0684    0.0000 C    0  0  0  0  0  0  0  0  0  0  0  0
   -2.4295    2.1258    0.0000 C    0  0  0  0  0  0  0  0  0  0  0  0
   -1.7158    2.5358    0.0000 C    0  0  0  0  0  0  0  0  0  0  0  0
   -1.7158    3.3634    0.0000 C    0  0  0  0  0  0  0  0  0  0  0  0
  1  2  1  0  0  0  0
  1  3  1  0  0  0  0
  1  4  1  0  0  0  0
  2  5  2  0  0  0  0
  2  6  1  0  0  0  0
  3  7  2  0  0  0  0
  3  8  1  0  0  0  0
  4  9  1  0  0  0  0
  4 10  2  0  0  0  0
  5 11  1  0  0  0  0
  5 12  1  0  0  0  0
  6 13  1  0  0  0  0
  6 14  2  0  0  0  0
  7 15  1  0  0  0  0
  7 11  1  0  0  0  0
  8 16  1  0  0  0  0
  8 17  2  0  0  0  0
  9 18  2  0  0  0  0
 10 19  1  0  0  0  0
 12 20  1  0  0  0  0
 13 20  1  0  0  0  0
 15 21  1  0  0  0  0
 16 21  1  0  0  0  0
 18 22  1  0  0  0  0
 18 23  1  0  0  0  0
 19 24  1  0  0  0  0
 19 22  2  0  0  0  0
 20 25  1  0  0  0  0
 20 26  1  0  0  0  0
 21 27  1  0  0  0  0
 21 28  1  0  0  0  0
 22 29  1  0  0  0  0
 23 30  1  0  0  0  0
 29 31  1  0  0  0  0
 31 32  1  0  0  0  0
 32 33  3  0  0  0  0
M  END
> <CdId>
165

> <Mol Weight>
467.984

> <Formula>
C27H30ClNO4

> <Click_ID>
CLK003_A06 __ __ 

$$$$
