CLK037F08
 OpenBabel03181404502D

 18 18  0  0  0  0  0  0  0  0999 V2000
   -0.6375   -0.4125    0.0000 N   0  0  0  0  0  0  0  0  0  0  0  0
   -1.3500    0.0000    0.0000 C   0  0  0  0  0  0  0  0  0  0  0  0
    0.0792    0.0000    0.0000 C   0  0  0  0  0  0  0  0  0  0  0  0
   -1.3500    0.8250    0.0000 N   0  0  0  0  0  0  0  0  0  0  0  0
    0.0792    0.8250    0.0000 C   0  0  0  0  0  0  0  0  0  0  0  0
   -0.6375    1.2375    0.0000 C   0  0  0  0  0  0  0  0  0  0  0  0
   -2.0667   -0.4125    0.0000 S   0  0  0  0  0  0  0  0  0  0  0  0
    2.9333    0.8250    0.0000 C   0  0  0  0  0  0  0  0  0  0  0  0
    0.7917    1.2375    0.0000 C   0  0  0  0  0  0  0  0  0  0  0  0
    3.6500    0.4125    0.0000 C   0  0  0  0  0  0  0  0  0  0  0  0
    0.7917   -0.4125    0.0000 O   0  0  0  0  0  0  0  0  0  0  0  0
   -0.6375    2.0625    0.0000 O   0  0  0  0  0  0  0  0  0  0  0  0
   -0.6375   -1.2375    0.0000 C   0  0  0  0  0  0  0  0  0  0  0  0
    1.5042    0.8250    0.0000 N   0  0  0  0  0  0  0  0  0  0  0  0
    2.2208    1.2375    0.0000 C   0  0  0  0  0  0  0  0  0  0  0  0
   -1.3500   -2.4750    0.0000 O   0  0  0  0  0  0  0  0  0  0  0  0
   -1.3500   -1.6500    0.0000 C   0  0  0  0  0  0  0  0  0  0  0  0
   -2.0667   -2.8875    0.0000 C   0  0  0  0  0  0  0  0  0  0  0  0
  2  1  1  0  0  0  0
  3  1  1  0  0  0  0
  4  2  1  0  0  0  0
  5  3  1  0  0  0  0
  6  4  1  0  0  0  0
  6  5  1  0  0  0  0
  7  2  2  0  0  0  0
  8 15  1  0  0  0  0
  9  5  2  0  0  0  0
 10  8  3  0  0  0  0
 11  3  2  0  0  0  0
 12  6  2  0  0  0  0
 13  1  1  0  0  0  0
 14  9  1  0  0  0  0
 15 14  1  0  0  0  0
 16 17  1  0  0  0  0
 17 13  1  0  0  0  0
 18 16  1  0  0  0  0
M  END
> <CdId>
2822

> <Mol Weight>
267.304

> <Formula>
C11H13N3O3S

> <Click_ID>
CLK037F08 __ __ 

$$$$
