CLK006_G08
 OpenBabel03181404502D

 23 25  0  0  0  0  0  0  0  0999 V2000
    4.3917  -10.2750    0.0000 N   0  0  0  0  0  0  0  0  0  0  0  0
    4.3917  -11.6042    0.0000 N   0  0  0  0  0  0  0  0  0  0  0  0
    4.8792  -10.9375    0.0000 C   0  0  0  0  0  0  0  0  0  0  0  0
    3.6125  -11.3542    0.0000 C   0  0  0  0  0  0  0  0  0  0  0  0
    3.6125  -10.5292    0.0000 C   0  0  0  0  0  0  0  0  0  0  0  0
    8.6000  -10.2167    0.0000 C   0  0  0  0  0  0  0  0  0  0  0  0
    8.1875   -9.5042    0.0000 C   0  0  0  0  0  0  0  0  0  0  0  0
    4.0917  -13.0042    0.0000 C   0  0  0  0  0  0  0  0  0  0  0  0
    3.5417  -13.6125    0.0000 C   0  0  0  0  0  0  0  0  0  0  0  0
    9.4042  -10.3917    0.0000 O   0  0  0  0  0  0  0  0  0  0  0  0
    8.1875  -10.9375    0.0000 C   0  0  0  0  0  0  0  0  0  0  0  0
    8.6000   -8.7917    0.0000 O   0  0  0  0  0  0  0  0  0  0  0  0
    9.4917  -11.2125    0.0000 C   0  0  0  0  0  0  0  0  0  0  0  0
    4.6500  -12.3917    0.0000 C   0  0  0  0  0  0  0  0  0  0  0  0
    8.7417  -11.5542    0.0000 C   0  0  0  0  0  0  0  0  0  0  0  0
    7.3542   -9.5042    0.0000 N   0  0  0  0  0  0  0  0  0  0  0  0
    5.7042  -10.9292    0.0000 C   0  0  0  0  0  0  0  0  0  0  0  0
    2.9000  -11.7667    0.0000 C   0  0  0  0  0  0  0  0  0  0  0  0
    2.9000  -10.1167    0.0000 C   0  0  0  0  0  0  0  0  0  0  0  0
    6.9417  -10.2167    0.0000 C   0  0  0  0  0  0  0  0  0  0  0  0
    6.1167  -10.2167    0.0000 C   0  0  0  0  0  0  0  0  0  0  0  0
    2.1792  -11.3542    0.0000 C   0  0  0  0  0  0  0  0  0  0  0  0
    2.1792  -10.5292    0.0000 C   0  0  0  0  0  0  0  0  0  0  0  0
  2  3  1  0  0  0  0
  2  4  1  0  0  0  0
  3  1  2  0  0  0  0
  4  5  1  0  0  0  0
  5  1  1  0  0  0  0
  6  7  1  0  0  0  0
  7 16  1  0  0  0  0
  8 14  1  0  0  0  0
  9  8  3  0  0  0  0
 10  6  1  0  0  0  0
 11  6  2  0  0  0  0
 12  7  2  0  0  0  0
 13 10  1  0  0  0  0
 13 15  2  0  0  0  0
 14  2  1  0  0  0  0
 15 11  1  0  0  0  0
 16 20  1  0  0  0  0
 17  3  1  0  0  0  0
 18  4  2  0  0  0  0
 19  5  2  0  0  0  0
 20 21  1  0  0  0  0
 21 17  1  0  0  0  0
 22 23  2  0  0  0  0
 22 18  1  0  0  0  0
 23 19  1  0  0  0  0
M  END
> <CdId>
467

> <Mol Weight>
307.3465

> <Formula>
C18H17N3O2

> <Click_ID>
CLK006_G08 __ __ 

$$$$
