CLK010_H02
 OpenBabel03181404502D

 19 20  0  0  0  0  0  0  0  0999 V2000
    0.6340   -0.6706    0.0000 C   0  0  0  0  0  0  0  0  0  0  0  0
   -0.0732   -0.2591    0.0000 N   0  0  0  0  0  0  0  0  0  0  0  0
   -2.9262   -0.2774    0.0000 C   0  0  0  0  0  0  0  0  0  0  0  0
   -3.6364    0.1341    0.0000 C   0  0  0  0  0  0  0  0  0  0  0  0
    1.3382   -0.2560    0.0000 C   0  0  0  0  0  0  0  0  0  0  0  0
    0.6340   -1.4997    0.0000 O   0  0  0  0  0  0  0  0  0  0  0  0
   -0.7834   -0.6798    0.0000 C   0  0  0  0  0  0  0  0  0  0  0  0
    1.3382    0.5822    0.0000 C   0  0  0  0  0  0  0  0  0  0  0  0
    2.0514   -0.6706    0.0000 C   0  0  0  0  0  0  0  0  0  0  0  0
   -2.2190   -0.6858    0.0000 C   0  0  0  0  0  0  0  0  0  0  0  0
   -1.4997   -0.2683    0.0000 C   0  0  0  0  0  0  0  0  0  0  0  0
    2.7647    0.5822    0.0000 C   0  0  0  0  0  0  0  0  0  0  0  0
    2.7647   -0.2560    0.0000 C   0  0  0  0  0  0  0  0  0  0  0  0
    2.0514    0.9876    0.0000 C   0  0  0  0  0  0  0  0  0  0  0  0
    3.4749    0.9845    0.0000 O   0  0  0  0  0  0  0  0  0  0  0  0
   -1.4966   -1.9143    0.0000 C   0  0  0  0  0  0  0  0  0  0  0  0
   -0.7834   -1.4997    0.0000 C   0  0  0  0  0  0  0  0  0  0  0  0
   -2.2190   -1.5028    0.0000 C   0  0  0  0  0  0  0  0  0  0  0  0
    3.4749    1.8075    0.0000 C   0  0  0  0  0  0  0  0  0  0  0  0
  2  1  1  0  0  0  0
  3 10  1  0  0  0  0
  4  3  3  0  0  0  0
  5  1  1  0  0  0  0
  6  1  2  0  0  0  0
  7  2  1  0  0  0  0
  8  5  2  0  0  0  0
  9  5  1  0  0  0  0
 10 11  1  0  0  0  0
 11  7  2  0  0  0  0
 12 13  1  0  0  0  0
 13  9  2  0  0  0  0
 14  8  1  0  0  0  0
 14 12  2  0  0  0  0
 15 12  1  0  0  0  0
 16 17  2  0  0  0  0
 17  7  1  0  0  0  0
 18 16  1  0  0  0  0
 18 10  2  0  0  0  0
 19 15  1  0  0  0  0
M  END
> <CdId>
747

> <Mol Weight>
251.2799

> <Formula>
C16H13NO2

> <Click_ID>
CLK010_H02 __ __ 

$$$$
