CLK034_C07
 OpenBabel03181404502D

 28 31  0  0  0  0  0  0  0  0999 V2000
   -4.5958    2.5583    0.0000 C   0  0  0  0  0  0  0  0  0  0  0  0
   -3.1583    4.2125    0.0000 C   0  0  0  0  0  0  0  0  0  0  0  0
   -3.8625    2.9833    0.0000 N   0  0  0  0  0  0  0  0  0  0  0  0
   -4.6833    1.7333    0.0000 N   0  0  0  0  0  0  0  0  0  0  0  0
   -3.8708    3.8000    0.0000 C   0  0  0  0  0  0  0  0  0  0  0  0
   -2.4458    3.8083    0.0000 C   0  0  0  0  0  0  0  0  0  0  0  0
   -5.3208    2.8958    0.0000 S   0  0  0  0  0  0  0  0  0  0  0  0
   -5.4875    1.5833    0.0000 C   0  0  0  0  0  0  0  0  0  0  0  0
   -3.1500    5.0417    0.0000 C   0  0  0  0  0  0  0  0  0  0  0  0
   -5.8958    2.3000    0.0000 C   0  0  0  0  0  0  0  0  0  0  0  0
   -1.7333    4.2125    0.0000 O   0  0  0  0  0  0  0  0  0  0  0  0
   -2.4458    5.4542    0.0000 C   0  0  0  0  0  0  0  0  0  0  0  0
   -1.7333    5.0417    0.0000 C   0  0  0  0  0  0  0  0  0  0  0  0
   -4.2583    0.3583    0.0000 C   0  0  0  0  0  0  0  0  0  0  0  0
   -4.4458   -0.4542    0.0000 C   0  0  0  0  0  0  0  0  0  0  0  0
   -2.4375    2.9625    0.0000 O   0  0  0  0  0  0  0  0  0  0  0  0
   -4.5833    4.2167    0.0000 O   0  0  0  0  0  0  0  0  0  0  0  0
   -5.9208    0.8833    0.0000 C   0  0  0  0  0  0  0  0  0  0  0  0
   -4.0708    1.1625    0.0000 C   0  0  0  0  0  0  0  0  0  0  0  0
   -6.7042    2.3208    0.0000 C   0  0  0  0  0  0  0  0  0  0  0  0
   -5.5208    0.1458    0.0000 O   0  0  0  0  0  0  0  0  0  0  0  0
   -7.1417    1.6208    0.0000 C   0  0  0  0  0  0  0  0  0  0  0  0
   -2.4458    6.2792    0.0000 C   0  0  0  0  0  0  0  0  0  0  0  0
   -1.0125    5.4542    0.0000 C   0  0  0  0  0  0  0  0  0  0  0  0
   -6.7292    0.8875    0.0000 C   0  0  0  0  0  0  0  0  0  0  0  0
   -5.9583   -0.5542    0.0000 C   0  0  0  0  0  0  0  0  0  0  0  0
   -1.0208    6.2792    0.0000 C   0  0  0  0  0  0  0  0  0  0  0  0
   -1.7333    6.7042    0.0000 C   0  0  0  0  0  0  0  0  0  0  0  0
  2  5  1  0  0  0  0
  3  1  2  0  0  0  0
  4  1  1  0  0  0  0
  5  3  1  0  0  0  0
  6  2  1  0  0  0  0
  7  1  1  0  0  0  0
  8  4  1  0  0  0  0
  9  2  2  0  0  0  0
 10  7  1  0  0  0  0
 10  8  2  0  0  0  0
 11  6  1  0  0  0  0
 11 13  1  0  0  0  0
 12  9  1  0  0  0  0
 13 12  2  0  0  0  0
 14 19  1  0  0  0  0
 15 14  3  0  0  0  0
 16  6  2  0  0  0  0
 17  5  2  0  0  0  0
 18  8  1  0  0  0  0
 19  4  1  0  0  0  0
 20 10  1  0  0  0  0
 21 18  1  0  0  0  0
 22 20  2  0  0  0  0
 23 12  1  0  0  0  0
 24 13  1  0  0  0  0
 24 27  2  0  0  0  0
 25 18  2  0  0  0  0
 25 22  1  0  0  0  0
 26 21  1  0  0  0  0
 27 28  1  0  0  0  0
 28 23  2  0  0  0  0
M  END
> <CdId>
2591

> <Mol Weight>
390.412

> <Formula>
C21H14N2O4S

> <Click_ID>
CLK034_C07 __ __ 

$$$$
