CLK036_C04
 OpenBabel03181404502D

 28 30  0  0  0  0  0  0  0  0999 V2000
    3.6834   -1.0156    0.0000 C   0  0  0  0  0  0  0  0  0  0  0  0
    4.1579   -1.7023    0.0000 N   0  0  0  0  0  0  0  0  0  0  0  0
    2.8718   -1.0114    0.0000 N   0  0  0  0  0  0  0  0  0  0  0  0
    3.9456   -0.2289    0.0000 S   0  0  0  0  0  0  0  0  0  0  0  0
    4.9861   -1.6357    0.0000 C   0  0  0  0  0  0  0  0  0  0  0  0
    6.6343   -1.5150    0.0000 S   0  0  0  0  0  0  0  0  0  0  0  0
    2.3474    2.2433    0.0000 N   0  3  0  0  0  0  0  0  0  0  0  0
    5.4481   -2.3141    0.0000 C   0  0  0  0  0  0  0  0  0  0  0  0
    3.2755    0.2580    0.0000 C   0  0  0  0  0  0  0  0  0  0  0  0
    2.6138   -0.2165    0.0000 C   0  0  0  0  0  0  0  0  0  0  0  0
    6.2722   -2.2600    0.0000 C   0  0  0  0  0  0  0  0  0  0  0  0
    3.1881    1.0821    0.0000 C   0  0  0  0  0  0  0  0  0  0  0  0
    2.4390    1.4192    0.0000 C   0  0  0  0  0  0  0  0  0  0  0  0
    2.7344   -2.4390    0.0000 C   0  0  0  0  0  0  0  0  0  0  0  0
    1.8604    0.1124    0.0000 C   0  0  0  0  0  0  0  0  0  0  0  0
    3.0758   -3.1964    0.0000 C   0  0  0  0  0  0  0  0  0  0  0  0
    3.0133    2.7220    0.0000 O   0  5  0  0  0  0  0  0  0  0  0  0
    5.8934   -1.1487    0.0000 O   0  0  0  0  0  0  0  0  0  0  0  0
    7.3835   -1.8771    0.0000 O   0  0  0  0  0  0  0  0  0  0  0  0
    1.5899    2.5804    0.0000 O   0  0  0  0  0  0  0  0  0  0  0  0
    5.3440   -0.8907    0.0000 O   0  0  0  0  0  0  0  0  0  0  0  0
    1.7730    0.9323    0.0000 C   0  0  0  0  0  0  0  0  0  0  0  0
    2.3890   -1.6898    0.0000 C   0  0  0  0  0  0  0  0  0  0  0  0
    7.0047   -0.7658    0.0000 C   0  0  0  0  0  0  0  0  0  0  0  0
    5.0860   -3.0591    0.0000 C   0  0  0  0  0  0  0  0  0  0  0  0
    6.7342   -2.9384    0.0000 C   0  0  0  0  0  0  0  0  0  0  0  0
    5.5480   -3.7375    0.0000 C   0  0  0  0  0  0  0  0  0  0  0  0
    6.3721   -3.6834    0.0000 C   0  0  0  0  0  0  0  0  0  0  0  0
  2  1  2  0  0  0  0
  3  1  1  0  0  0  0
  4  1  1  0  0  0  0
  5  2  1  0  0  0  0
  6 11  1  0  0  0  0
  7 13  1  0  0  0  0
  8  5  1  0  0  0  0
  9  4  1  0  0  0  0
 10  3  1  0  0  0  0
 10  9  2  0  0  0  0
 11  8  1  0  0  0  0
 12  9  1  0  0  0  0
 13 12  2  0  0  0  0
 14 23  1  0  0  0  0
 15 10  1  0  0  0  0
 16 14  3  0  0  0  0
 17  7  1  0  0  0  0
 18  6  2  0  0  0  0
 19  6  2  0  0  0  0
 20  7  2  0  0  0  0
 21  5  2  0  0  0  0
 22 15  2  0  0  0  0
 22 13  1  0  0  0  0
 23  3  1  0  0  0  0
 24  6  1  0  0  0  0
 25  8  2  0  0  0  0
 26 11  2  0  0  0  0
 26 28  1  0  0  0  0
 27 25  1  0  0  0  0
 28 27  2  0  0  0  0
M  END
> <CdId>
2740

> <Mol Weight>
415.443

> <Formula>
C18H13N3O5S2

> <Click_ID>
CLK036_C04 __ __ 

$$$$
