CLK022_H08
 OpenBabel03181404502D

 18 19  0  0  0  0  0  0  0  0999 V2000
    0.5085    3.2523    0.0000 C   0  0  0  0  0  0  0  0  0  0  0  0
    0.9207    2.5377    0.0000 N   0  0  0  0  0  0  0  0  0  0  0  0
   -4.0265    2.5377    0.0000 C   0  0  0  0  0  0  0  0  0  0  0  0
   -4.8511    2.5377    0.0000 C   0  0  0  0  0  0  0  0  0  0  0  0
   -0.3161    3.2523    0.0000 C   0  0  0  0  0  0  0  0  0  0  0  0
    0.9207    3.9669    0.0000 O   0  0  0  0  0  0  0  0  0  0  0  0
    1.7453    1.1085    0.0000 O   0  0  0  0  0  0  0  0  0  0  0  0
   -0.7283    3.9669    0.0000 C   0  0  0  0  0  0  0  0  0  0  0  0
   -0.7283    2.5377    0.0000 C   0  0  0  0  0  0  0  0  0  0  0  0
   -1.9652    3.2523    0.0000 C   0  0  0  0  0  0  0  0  0  0  0  0
   -1.5529    3.9669    0.0000 C   0  0  0  0  0  0  0  0  0  0  0  0
   -1.5529    2.5377    0.0000 C   0  0  0  0  0  0  0  0  0  0  0  0
    1.7453    2.5377    0.0000 C   0  0  0  0  0  0  0  0  0  0  0  0
    0.5085    1.8231    0.0000 C   0  0  0  0  0  0  0  0  0  0  0  0
   -3.2020    2.5377    0.0000 C   0  0  0  0  0  0  0  0  0  0  0  0
   -2.7897    3.2523    0.0000 O   0  0  0  0  0  0  0  0  0  0  0  0
    2.1576    1.8231    0.0000 C   0  0  0  0  0  0  0  0  0  0  0  0
    0.9207    1.1085    0.0000 C   0  0  0  0  0  0  0  0  0  0  0  0
  2  1  1  0  0  0  0
  3 15  1  0  0  0  0
  4  3  3  0  0  0  0
  5  1  1  0  0  0  0
  6  1  2  0  0  0  0
  7 18  1  0  0  0  0
  7 17  1  0  0  0  0
  8  5  1  0  0  0  0
  9  5  2  0  0  0  0
 10 12  2  0  0  0  0
 11  8  2  0  0  0  0
 11 10  1  0  0  0  0
 12  9  1  0  0  0  0
 13  2  1  0  0  0  0
 14  2  1  0  0  0  0
 15 16  1  0  0  0  0
 16 10  1  0  0  0  0
 17 13  1  0  0  0  0
 18 14  1  0  0  0  0
M  END
> <CdId>
1696

> <Mol Weight>
245.2738

> <Formula>
C14H15NO3

> <Click_ID>
CLK022_H08 __ __ 

$$$$
