CLK026_B10
 OpenBabel03181404502D

 29 31  0  0  0  0  0  0  0  0999 V2000
   -3.0611   -0.1618    0.0000 N   0  0  0  0  0  0  0  0  0  0  0  0
   -3.4640   -0.8884    0.0000 C   0  0  0  0  0  0  0  0  0  0  0  0
   -2.2347   -0.3340    0.0000 C   0  0  0  0  0  0  0  0  0  0  0  0
   -2.1452   -1.1604    0.0000 C   0  0  0  0  0  0  0  0  0  0  0  0
   -2.9096   -1.5013    0.0000 S   0  0  0  0  0  0  0  0  0  0  0  0
   -1.4221   -1.5736    0.0000 C   0  0  0  0  0  0  0  0  0  0  0  0
    3.5776   -1.9730    0.0000 N   0  0  0  0  0  0  0  0  0  0  0  0
   -2.9131    1.2637    0.0000 C   0  0  0  0  0  0  0  0  0  0  0  0
    3.5707   -1.1501    0.0000 C   0  0  0  0  0  0  0  0  0  0  0  0
   -2.4723    1.9765    0.0000 C   0  0  0  0  0  0  0  0  0  0  0  0
   -4.2869   -0.9745    0.0000 O   0  0  0  0  0  0  0  0  0  0  0  0
   -0.0138    0.0861    0.0000 C   0  0  0  0  0  0  0  0  0  0  0  0
   -1.6321    0.2376    0.0000 O   0  0  0  0  0  0  0  0  0  0  0  0
    0.7128   -0.3271    0.0000 C   0  0  0  0  0  0  0  0  0  0  0  0
   -0.7128   -1.1501    0.0000 C   0  0  0  0  0  0  0  0  0  0  0  0
   -3.3986    0.5888    0.0000 C   0  0  0  0  0  0  0  0  0  0  0  0
    1.4290    0.0930    0.0000 O   0  0  0  0  0  0  0  0  0  0  0  0
   -0.7196   -0.3271    0.0000 C   0  0  0  0  0  0  0  0  0  0  0  0
    3.5776   -0.3271    0.0000 C   0  0  0  0  0  0  0  0  0  0  0  0
    2.8511    0.0930    0.0000 C   0  0  0  0  0  0  0  0  0  0  0  0
    2.1452   -0.3134    0.0000 C   0  0  0  0  0  0  0  0  0  0  0  0
    0.7059   -1.1501    0.0000 C   0  0  0  0  0  0  0  0  0  0  0  0
    0.0000   -1.5633    0.0000 C   0  0  0  0  0  0  0  0  0  0  0  0
    0.0035    0.9125    0.0000 O   0  0  0  0  0  0  0  0  0  0  0  0
    4.2835    0.0792    0.0000 C   0  0  0  0  0  0  0  0  0  0  0  0
    2.8442    0.9022    0.0000 C   0  0  0  0  0  0  0  0  0  0  0  0
   -0.7128    1.3188    0.0000 C   0  0  0  0  0  0  0  0  0  0  0  0
    4.2766    0.9056    0.0000 C   0  0  0  0  0  0  0  0  0  0  0  0
    3.5570    1.3119    0.0000 C   0  0  0  0  0  0  0  0  0  0  0  0
  2  1  1  0  0  0  0
  3  1  1  0  0  0  0
  4  3  1  0  0  0  0
  5  2  1  0  0  0  0
  5  4  1  0  0  0  0
  6  4  2  0  0  0  0
  7  9  3  0  0  0  0
  8 16  1  0  0  0  0
  9 19  1  0  0  0  0
 10  8  3  0  0  0  0
 11  2  2  0  0  0  0
 12 18  2  0  0  0  0
 12 14  1  0  0  0  0
 13  3  2  0  0  0  0
 14 22  2  0  0  0  0
 15  6  1  0  0  0  0
 16  1  1  0  0  0  0
 17 14  1  0  0  0  0
 18 15  1  0  0  0  0
 19 20  2  0  0  0  0
 20 21  1  0  0  0  0
 21 17  1  0  0  0  0
 22 23  1  0  0  0  0
 23 15  2  0  0  0  0
 24 12  1  0  0  0  0
 25 19  1  0  0  0  0
 26 20  1  0  0  0  0
 27 24  1  0  0  0  0
 28 29  1  0  0  0  0
 28 25  2  0  0  0  0
 29 26  2  0  0  0  0
M  END
> <CdId>
1955

> <Mol Weight>
404.438

> <Formula>
C22H16N2O4S

> <Click_ID>
CLK026_B10 __ __ 

$$$$
