CLK011_H05
 OpenBabel03181404502D

 29 32  0  0  0  0  0  0  0  0999 V2000
    6.5177   -4.2869    0.0000 N    0  0  0  0  0  0  0  0  0  0  0  0
    5.8560   -4.7739    0.0000 C    0  0  0  0  0  0  0  0  0  0  0  0
    6.9298   -5.5605    0.0000 C    0  0  0  0  0  0  0  0  0  0  0  0
    7.1837   -4.7739    0.0000 C    0  0  0  0  0  0  0  0  0  0  0  0
    7.4167   -6.2223    0.0000 C    0  0  0  0  0  0  0  0  0  0  0  0
    6.1057   -5.5605    0.0000 S    0  0  0  0  0  0  0  0  0  0  0  0
    7.0796   -6.9797    0.0000 C    0  0  0  0  0  0  0  0  0  0  0  0
    6.2597   -7.0588    0.0000 C    0  0  0  0  0  0  0  0  0  0  0  0
    5.0735   -4.5200    0.0000 N    0  0  0  0  0  0  0  0  0  0  0  0
    9.6892   -8.1409    0.0000 C    0  0  0  0  0  0  0  0  0  0  0  0
   10.5050   -8.0577    0.0000 C    0  0  0  0  0  0  0  0  0  0  0  0
    7.5583   -7.6457    0.0000 C    0  0  0  0  0  0  0  0  0  0  0  0
    7.9703   -4.5200    0.0000 O    0  0  0  0  0  0  0  0  0  0  0  0
    5.9184   -7.8163    0.0000 C    0  0  0  0  0  0  0  0  0  0  0  0
    7.2211   -8.4031    0.0000 C    0  0  0  0  0  0  0  0  0  0  0  0
    6.3971   -8.4822    0.0000 C    0  0  0  0  0  0  0  0  0  0  0  0
    4.8987   -3.7126    0.0000 C    0  0  0  0  0  0  0  0  0  0  0  0
    4.5574   -2.1019    0.0000 C    0  0  0  0  0  0  0  0  0  0  0  0
    4.3618   -1.2986    0.0000 Cl   0  0  0  0  0  0  0  0  0  0  0  0
    8.3823   -7.5583    0.0000 O    0  0  0  0  0  0  0  0  0  0  0  0
    4.1204   -3.4628    0.0000 C    0  0  0  0  0  0  0  0  0  0  0  0
    5.5105   -3.1632    0.0000 C    0  0  0  0  0  0  0  0  0  0  0  0
    5.3440   -2.3599    0.0000 C    0  0  0  0  0  0  0  0  0  0  0  0
    3.9456   -2.6595    0.0000 C    0  0  0  0  0  0  0  0  0  0  0  0
    8.8651   -8.2283    0.0000 C    0  0  0  0  0  0  0  0  0  0  0  0
    5.7728   -6.3929    0.0000 C    0  0  0  0  0  0  0  0  0  0  0  0
    5.0985   -7.8954    0.0000 C    0  0  0  0  0  0  0  0  0  0  0  0
    4.9570   -6.4720    0.0000 C    0  0  0  0  0  0  0  0  0  0  0  0
    4.6116   -7.2294    0.0000 C    0  0  0  0  0  0  0  0  0  0  0  0
  2  1  2  0  0  0  0
  3  4  1  0  0  0  0
  4  1  1  0  0  0  0
  5  3  2  0  0  0  0
  6  2  1  0  0  0  0
  6  3  1  0  0  0  0
  7  5  1  0  0  0  0
  8  7  1  0  0  0  0
  9  2  1  0  0  0  0
 10 25  1  0  0  0  0
 11 10  3  0  0  0  0
 12  7  2  0  0  0  0
 13  4  2  0  0  0  0
 14  8  1  0  0  0  0
 15 12  1  0  0  0  0
 16 15  2  0  0  0  0
 16 14  1  0  0  0  0
 17  9  1  0  0  0  0
 18 23  2  0  0  0  0
 18 24  1  0  0  0  0
 19 18  1  0  0  0  0
 20 12  1  0  0  0  0
 21 17  1  0  0  0  0
 22 17  2  0  0  0  0
 23 22  1  0  0  0  0
 24 21  2  0  0  0  0
 25 20  1  0  0  0  0
 26  8  2  0  0  0  0
 27 14  2  0  0  0  0
 27 29  1  0  0  0  0
 28 26  1  0  0  0  0
 29 28  2  0  0  0  0
M  END
> <CdId>
830

> <Mol Weight>
418.895

> <Formula>
C23H15ClN2O2S

> <Click_ID>
CLK011_H05 __ __ 

$$$$
