CLK045C09
 OpenBabel03181404502D

 19 20  0  0  0  0  0  0  0  0999 V2000
    0.3000   -0.2167    0.0000 C   0  0  0  0  0  0  0  0  0  0  0  0
   -0.4167    0.1958    0.0000 N   0  0  0  0  0  0  0  0  0  0  0  0
    2.4417   -3.1042    0.0000 N   0  0  0  0  0  0  0  0  0  0  0  0
   -1.8458    2.6708    0.0000 C   0  0  0  0  0  0  0  0  0  0  0  0
    0.3000   -1.0417    0.0000 C   0  0  0  0  0  0  0  0  0  0  0  0
   -2.5583    3.0833    0.0000 C   0  0  0  0  0  0  0  0  0  0  0  0
    1.7292   -2.6917    0.0000 C   0  0  0  0  0  0  0  0  0  0  0  0
    1.0125    0.1958    0.0000 O   0  0  0  0  0  0  0  0  0  0  0  0
   -0.4167    1.0208    0.0000 C   0  0  0  0  0  0  0  0  0  0  0  0
    1.0125   -1.4542    0.0000 C   0  0  0  0  0  0  0  0  0  0  0  0
    1.0125   -2.2792    0.0000 C   0  0  0  0  0  0  0  0  0  0  0  0
   -1.1292    2.2583    0.0000 C   0  0  0  0  0  0  0  0  0  0  0  0
   -1.1292    1.4333    0.0000 C   0  0  0  0  0  0  0  0  0  0  0  0
   -0.4167   -1.4542    0.0000 C   0  0  0  0  0  0  0  0  0  0  0  0
   -0.4167   -2.2792    0.0000 C   0  0  0  0  0  0  0  0  0  0  0  0
    0.3000    2.2583    0.0000 C   0  0  0  0  0  0  0  0  0  0  0  0
    0.3000    1.4333    0.0000 C   0  0  0  0  0  0  0  0  0  0  0  0
    0.3000   -2.6917    0.0000 C   0  0  0  0  0  0  0  0  0  0  0  0
   -0.4167    2.6708    0.0000 C   0  0  0  0  0  0  0  0  0  0  0  0
  2  1  1  0  0  0  0
  3  7  3  0  0  0  0
  4 12  1  0  0  0  0
  5  1  1  0  0  0  0
  6  4  3  0  0  0  0
  7 11  1  0  0  0  0
  8  1  2  0  0  0  0
  9  2  1  0  0  0  0
 10  5  2  0  0  0  0
 11 10  1  0  0  0  0
 12 13  1  0  0  0  0
 13  9  2  0  0  0  0
 14  5  1  0  0  0  0
 15 14  2  0  0  0  0
 16 17  2  0  0  0  0
 17  9  1  0  0  0  0
 18 11  2  0  0  0  0
 18 15  1  0  0  0  0
 19 12  2  0  0  0  0
 19 16  1  0  0  0  0
M  END
> <CdId>
3467

> <Mol Weight>
246.2634

> <Formula>
C16H10N2O

> <Click_ID>
CLK045C09 __ __ 

$$$$
