CLK037E07
 OpenBabel03181404502D

 41 45  0  0  0  0  0  0  0  0999 V2000
   -0.0208    0.0708    0.0000 N   0  0  0  0  0  0  0  0  0  0  0  0
   -0.0208    0.8958    0.0000 C   0  0  0  0  0  0  0  0  0  0  0  0
    1.4083    0.0708    0.0000 C   0  0  0  0  0  0  0  0  0  0  0  0
    1.4083    0.8958    0.0000 C   0  0  0  0  0  0  0  0  0  0  0  0
    0.6958    1.3083    0.0000 N   0  0  0  0  0  0  0  0  0  0  0  0
    0.6958   -0.3417    0.0000 C   0  0  3  0  0  0  0  0  0  0  0  0
   -0.8042   -0.1833    0.0000 C   0  0  0  0  0  0  0  0  0  0  0  0
   -1.2875    0.4833    0.0000 C   0  0  0  0  0  0  0  0  0  0  0  0
   -0.8042    1.1500    0.0000 S   0  0  0  0  0  0  0  0  0  0  0  0
   -2.1125    0.4833    0.0000 C   0  0  0  0  0  0  0  0  0  0  0  0
    2.1250   -0.3417    0.0000 C   0  0  0  0  0  0  0  0  0  0  0  0
   -2.5250    1.2000    0.0000 C   0  0  0  0  0  0  0  0  0  0  0  0
   -5.0000   -0.2292    0.0000 C   0  0  0  0  0  0  0  0  0  0  0  0
    0.6958   -1.1667    0.0000 C   0  0  0  0  0  0  0  0  0  0  0  0
   -5.4125   -0.9458    0.0000 C   0  0  0  0  0  0  0  0  0  0  0  0
    2.1250    1.3083    0.0000 C   0  0  0  0  0  0  0  0  0  0  0  0
   -1.0583   -0.9667    0.0000 O   0  0  0  0  0  0  0  0  0  0  0  0
    2.1250   -1.1667    0.0000 O   0  0  0  0  0  0  0  0  0  0  0  0
    0.6958   -2.8167    0.0000 C   0  0  0  0  0  0  0  0  0  0  0  0
   -3.3500    1.2000    0.0000 C   0  0  0  0  0  0  0  0  0  0  0  0
    1.4083   -1.5792    0.0000 C   0  0  0  0  0  0  0  0  0  0  0  0
   -0.0208   -1.5792    0.0000 C   0  0  0  0  0  0  0  0  0  0  0  0
   -0.0208   -2.4042    0.0000 C   0  0  0  0  0  0  0  0  0  0  0  0
    1.4083   -2.4042    0.0000 C   0  0  0  0  0  0  0  0  0  0  0  0
    2.8375    0.0708    0.0000 O   0  0  0  0  0  0  0  0  0  0  0  0
    0.6958   -3.6417    0.0000 C   0  0  0  0  0  0  0  0  0  0  0  0
   -3.7625    0.4833    0.0000 O   0  0  0  0  0  0  0  0  0  0  0  0
   -4.5875    0.4833    0.0000 C   0  0  0  0  0  0  0  0  0  0  0  0
   -2.1125    1.9125    0.0000 C   0  0  0  0  0  0  0  0  0  0  0  0
    2.8375    0.8958    0.0000 C   0  0  0  0  0  0  0  0  0  0  0  0
    2.1250    2.1333    0.0000 C   0  0  0  0  0  0  0  0  0  0  0  0
   -3.7625    1.9125    0.0000 C   0  0  0  0  0  0  0  0  0  0  0  0
    3.5542   -0.3417    0.0000 C   0  0  0  0  0  0  0  0  0  0  0  0
   -0.0208   -4.0542    0.0000 C   0  0  0  0  0  0  0  0  0  0  0  0
    1.4083   -4.0542    0.0000 C   0  0  0  0  0  0  0  0  0  0  0  0
    4.2667    0.0708    0.0000 C   0  0  0  0  0  0  0  0  0  0  0  0
   -2.5250    2.6292    0.0000 C   0  0  0  0  0  0  0  0  0  0  0  0
    3.5542    1.3083    0.0000 C   0  0  0  0  0  0  0  0  0  0  0  0
    2.8375    2.5458    0.0000 C   0  0  0  0  0  0  0  0  0  0  0  0
   -3.3500    2.6292    0.0000 C   0  0  0  0  0  0  0  0  0  0  0  0
    3.5542    2.1333    0.0000 C   0  0  0  0  0  0  0  0  0  0  0  0
  2  1  1  0  0  0  0
  3  6  1  0  0  0  0
  4  3  2  0  0  0  0
  5  2  2  0  0  0  0
  5  4  1  0  0  0  0
  6  1  1  0  0  0  0
  7  1  1  0  0  0  0
  8  7  1  0  0  0  0
  8  9  1  0  0  0  0
  9  2  1  0  0  0  0
 10  8  2  0  0  0  0
 11  3  1  0  0  0  0
 12 10  1  0  0  0  0
 13 28  1  0  0  0  0
 14  6  1  0  0  0  0
 15 13  3  0  0  0  0
 16  4  1  0  0  0  0
 17  7  2  0  0  0  0
 18 11  2  0  0  0  0
 19 24  2  0  0  0  0
 19 23  1  0  0  0  0
 20 12  2  0  0  0  0
 21 14  2  0  0  0  0
 22 14  1  0  0  0  0
 23 22  2  0  0  0  0
 24 21  1  0  0  0  0
 25 11  1  0  0  0  0
 26 19  1  0  0  0  0
 27 20  1  0  0  0  0
 28 27  1  0  0  0  0
 29 12  1  0  0  0  0
 30 16  1  0  0  0  0
 31 16  2  0  0  0  0
 32 20  1  0  0  0  0
 33 25  1  0  0  0  0
 34 26  1  0  0  0  0
 35 26  1  0  0  0  0
 36 33  1  0  0  0  0
 37 29  2  0  0  0  0
 38 30  2  0  0  0  0
 39 31  1  0  0  0  0
 40 32  2  0  0  0  0
 40 37  1  0  0  0  0
 41 39  2  0  0  0  0
 41 38  1  0  0  0  0
M  END
> <CdId>
2813

> <Mol Weight>
562.678

> <Formula>
C34H30N2O4S

> <Click_ID>
CLK037E07 __ __ 

$$$$
