CLK049E03
 OpenBabel03181404502D

 20 21  0  0  0  0  0  0  0  0999 V2000
   -0.0750   -0.9042    0.0000 C   0  0  0  0  0  0  0  0  0  0  0  0
   -0.0750   -0.0792    0.0000 C   0  0  0  0  0  0  0  0  0  0  0  0
   -0.7875   -1.3167    0.0000 C   0  0  0  0  0  0  0  0  0  0  0  0
    0.6417    0.3333    0.0000 N   0  0  0  0  0  0  0  0  0  0  0  0
   -0.7875    2.8083    0.0000 C   0  0  0  0  0  0  0  0  0  0  0  0
    0.6417   -1.3167    0.0000 C   0  0  0  0  0  0  0  0  0  0  0  0
   -1.5042    3.2208    0.0000 C   0  0  0  0  0  0  0  0  0  0  0  0
   -0.7875   -2.1417    0.0000 C   0  0  0  0  0  0  0  0  0  0  0  0
   -0.7875    0.3333    0.0000 O   0  0  0  0  0  0  0  0  0  0  0  0
    0.6417    1.1583    0.0000 C   0  0  0  0  0  0  0  0  0  0  0  0
   -0.0750    2.3958    0.0000 C   0  0  0  0  0  0  0  0  0  0  0  0
   -0.0750   -2.5542    0.0000 C   0  0  0  0  0  0  0  0  0  0  0  0
   -1.5042   -0.9042    0.0000 F   0  0  0  0  0  0  0  0  0  0  0  0
   -0.0750    1.5708    0.0000 C   0  0  0  0  0  0  0  0  0  0  0  0
    0.6417   -2.1417    0.0000 C   0  0  0  0  0  0  0  0  0  0  0  0
   -0.0750   -3.3792    0.0000 O   0  0  0  0  0  0  0  0  0  0  0  0
    1.3542    2.3958    0.0000 C   0  0  0  0  0  0  0  0  0  0  0  0
    1.3542    1.5708    0.0000 C   0  0  0  0  0  0  0  0  0  0  0  0
    0.6417    2.8083    0.0000 C   0  0  0  0  0  0  0  0  0  0  0  0
    0.6417   -3.7917    0.0000 C   0  0  0  0  0  0  0  0  0  0  0  0
  2  1  1  0  0  0  0
  3  1  2  0  0  0  0
  4  2  1  0  0  0  0
  5 11  1  0  0  0  0
  6  1  1  0  0  0  0
  7  5  3  0  0  0  0
  8  3  1  0  0  0  0
  9  2  2  0  0  0  0
 10  4  1  0  0  0  0
 11 14  1  0  0  0  0
 12  8  2  0  0  0  0
 13  3  1  0  0  0  0
 14 10  2  0  0  0  0
 15  6  2  0  0  0  0
 15 12  1  0  0  0  0
 16 12  1  0  0  0  0
 17 18  2  0  0  0  0
 18 10  1  0  0  0  0
 19 11  2  0  0  0  0
 19 17  1  0  0  0  0
 20 16  1  0  0  0  0
M  END
> <CdId>
3741

> <Mol Weight>
269.2704

> <Formula>
C16H12FNO2

> <Click_ID>
CLK049E03 __ __ 

$$$$
