CLK006_F11
 OpenBabel03181404502D

 34 38  0  0  0  0  0  0  0  0999 V2000
    0.0448    0.5586    0.0000 C   0  0  3  0  0  0  0  0  0  0  0  0
   -0.6689    0.1414    0.0000 C   0  0  0  0  0  0  0  0  0  0  0  0
    0.8378    0.7689    0.0000 C   0  0  0  0  0  0  0  0  0  0  0  0
    0.7585    0.1414    0.0000 C   0  0  0  0  0  0  0  0  0  0  0  0
   -0.4034    1.2447    0.0000 C   0  0  0  0  0  0  0  0  0  0  0  0
   -0.6758   -0.6827    0.0000 C   0  0  0  0  0  0  0  0  0  0  0  0
   -1.3792    0.5586    0.0000 C   0  0  0  0  0  0  0  0  0  0  0  0
    0.8827    1.5965    0.0000 C   0  0  0  0  0  0  0  0  0  0  0  0
    1.5309    0.3276    0.0000 C   0  0  0  0  0  0  0  0  0  0  0  0
    0.7585   -0.6827    0.0000 C   0  0  0  0  0  0  0  0  0  0  0  0
    1.4689   -0.2724    0.0000 C   0  0  0  0  0  0  0  0  0  0  0  0
    0.1069    1.8895    0.0000 N   0  0  0  0  0  0  0  0  0  0  0  0
   -0.9930    1.8308    0.0000 O   0  0  0  0  0  0  0  0  0  0  0  0
    0.0379   -1.0965    0.0000 N   0  0  0  0  0  0  0  0  0  0  0  0
   -1.3792   -1.0930    0.0000 C   0  0  0  0  0  0  0  0  0  0  0  0
   -2.0929    0.1414    0.0000 C   0  0  0  0  0  0  0  0  0  0  0  0
   -1.9688    1.1447    0.0000 O   0  0  0  0  0  0  0  0  0  0  0  0
    1.6102    1.9791    0.0000 C   0  0  0  0  0  0  0  0  0  0  0  0
    2.2688    0.7033    0.0000 C   0  0  0  0  0  0  0  0  0  0  0  0
    1.4620   -1.1033    0.0000 N   0  0  0  0  0  0  0  0  0  0  0  0
    2.1826   -0.6827    0.0000 N   0  0  0  0  0  0  0  0  0  0  0  0
   -0.1034    2.6895    0.0000 C   0  0  0  0  0  0  0  0  0  0  0  0
    0.0310   -1.9170    0.0000 C   0  0  0  0  0  0  0  0  0  0  0  0
   -2.0929   -0.6827    0.0000 C   0  0  0  0  0  0  0  0  0  0  0  0
    2.3067    1.5275    0.0000 C   0  0  0  0  0  0  0  0  0  0  0  0
    0.4759    3.2790    0.0000 C   0  0  0  0  0  0  0  0  0  0  0  0
    0.7447   -2.3343    0.0000 C   0  0  0  0  0  0  0  0  0  0  0  0
   -0.6896   -2.3205    0.0000 C   0  0  0  0  0  0  0  0  0  0  0  0
   -2.5032   -1.3965    0.0000 C   0  0  0  0  0  0  0  0  0  0  0  0
   -2.8929   -0.4690    0.0000 C   0  0  0  0  0  0  0  0  0  0  0  0
    0.2621    4.0790    0.0000 C   0  0  0  0  0  0  0  0  0  0  0  0
    0.7378   -3.1549    0.0000 C   0  0  0  0  0  0  0  0  0  0  0  0
   -0.6930   -3.1445    0.0000 C   0  0  0  0  0  0  0  0  0  0  0  0
    0.0207   -3.5687    0.0000 C   0  0  0  0  0  0  0  0  0  0  0  0
  1  2  1  0  0  0  0
  1  3  1  0  0  0  0
  1  4  1  0  0  0  0
  1  5  1  0  0  0  0
  2  6  2  0  0  0  0
  2  7  1  0  0  0  0
  3  8  2  0  0  0  0
  3  9  1  0  0  0  0
  4 10  2  0  0  0  0
  4 11  1  0  0  0  0
  5 12  1  0  0  0  0
  5 13  2  0  0  0  0
  6 14  1  0  0  0  0
  6 15  1  0  0  0  0
  7 16  1  0  0  0  0
  7 17  2  0  0  0  0
  8 18  1  0  0  0  0
  8 12  1  0  0  0  0
  9 19  2  0  0  0  0
 10 20  1  0  0  0  0
 10 14  1  0  0  0  0
 11 21  3  0  0  0  0
 12 22  1  0  0  0  0
 14 23  1  0  0  0  0
 15 24  1  0  0  0  0
 16 24  1  0  0  0  0
 18 25  2  0  0  0  0
 19 25  1  0  0  0  0
 22 26  1  0  0  0  0
 23 27  1  0  0  0  0
 23 28  2  0  0  0  0
 24 29  1  0  0  0  0
 24 30  1  0  0  0  0
 26 31  3  0  0  0  0
 27 32  2  0  0  0  0
 28 33  1  0  0  0  0
 32 34  1  0  0  0  0
 33 34  2  0  0  0  0
M  END
> <CdId>
460

> <Mol Weight>
448.5158

> <Formula>
C28H24N4O2

> <Click_ID>
CLK006_F11 __ __ 

$$$$
