CLK006_C03
 OpenBabel03181404502D

 31 34  0  0  0  0  0  0  0  0999 V2000
   -0.3072   -1.3220    0.0000 C   0  0  0  0  0  0  0  0  0  0  0  0
   -0.4452   -0.5350    0.0000 C   0  0  0  0  0  0  0  0  0  0  0  0
   -1.0182   -1.6982    0.0000 N   0  0  0  0  0  0  0  0  0  0  0  0
    0.4452   -1.7085    0.0000 N   0  0  0  0  0  0  0  0  0  0  0  0
    0.0448   -0.0448    0.0000 C   0  0  3  0  0  0  0  0  0  0  0  0
   -1.2357   -0.4211    0.0000 C   0  0  0  0  0  0  0  0  0  0  0  0
   -1.1356   -2.5093    0.0000 C   0  0  0  0  0  0  0  0  0  0  0  0
   -1.5877   -1.1459    0.0000 N   0  0  0  0  0  0  0  0  0  0  0  0
    1.2219   -1.3461    0.0000 C   0  0  0  0  0  0  0  0  0  0  0  0
    0.0448    0.7800    0.0000 C   0  0  0  0  0  0  0  0  0  0  0  0
    0.8698   -0.0345    0.0000 S   0  0  0  0  0  0  0  0  0  0  0  0
   -1.9571   -0.0069    0.0000 C   0  0  0  0  0  0  0  0  0  0  0  0
   -1.9087   -2.8096    0.0000 C   0  0  0  0  0  0  0  0  0  0  0  0
   -0.4936   -3.0201    0.0000 C   0  0  0  0  0  0  0  0  0  0  0  0
    1.3668   -0.5453    0.0000 C   0  0  3  0  0  0  0  0  0  0  0  0
    1.8708   -1.8466    0.0000 O   0  0  0  0  0  0  0  0  0  0  0  0
    0.7559    1.2045    0.0000 C   0  0  0  0  0  0  0  0  0  0  0  0
   -0.6730    1.1942    0.0000 C   0  0  0  0  0  0  0  0  0  0  0  0
   -2.0226   -3.6311    0.0000 C   0  0  0  0  0  0  0  0  0  0  0  0
   -0.6075   -3.8381    0.0000 C   0  0  0  0  0  0  0  0  0  0  0  0
    2.1537   -0.3175    0.0000 C   0  0  0  0  0  0  0  0  0  0  0  0
    0.7524    2.0329    0.0000 C   0  0  0  0  0  0  0  0  0  0  0  0
   -0.6799    2.0191    0.0000 C   0  0  0  0  0  0  0  0  0  0  0  0
   -1.3806   -4.1418    0.0000 C   0  0  0  0  0  0  0  0  0  0  0  0
    0.0310    2.4333    0.0000 C   0  0  0  0  0  0  0  0  0  0  0  0
    1.4669    2.4437    0.0000 O   0  0  0  0  0  0  0  0  0  0  0  0
    0.0310    3.2583    0.0000 O   0  0  0  0  0  0  0  0  0  0  0  0
    2.1849    2.0329    0.0000 C   0  0  0  0  0  0  0  0  0  0  0  0
    0.7455    3.6828    0.0000 C   0  0  0  0  0  0  0  0  0  0  0  0
    0.7317    4.5077    0.0000 C   0  0  0  0  0  0  0  0  0  0  0  0
    0.7317    5.3361    0.0000 C   0  0  0  0  0  0  0  0  0  0  0  0
  1  2  2  0  0  0  0
  1  3  1  0  0  0  0
  1  4  1  0  0  0  0
  2  5  1  0  0  0  0
  2  6  1  0  0  0  0
  3  7  1  0  0  0  0
  3  8  1  0  0  0  0
  4  9  1  0  0  0  0
  5 10  1  0  0  0  0
  5 11  1  0  0  0  0
  6 12  1  0  0  0  0
  6  8  2  0  0  0  0
  7 13  2  0  0  0  0
  7 14  1  0  0  0  0
  9 15  1  0  0  0  0
  9 16  2  0  0  0  0
 10 17  2  0  0  0  0
 10 18  1  0  0  0  0
 11 15  1  0  0  0  0
 13 19  1  0  0  0  0
 14 20  2  0  0  0  0
 15 21  1  0  0  0  0
 17 22  1  0  0  0  0
 18 23  2  0  0  0  0
 19 24  2  0  0  0  0
 20 24  1  0  0  0  0
 22 25  2  0  0  0  0
 22 26  1  0  0  0  0
 23 25  1  0  0  0  0
 25 27  1  0  0  0  0
 26 28  1  0  0  0  0
 27 29  1  0  0  0  0
 29 30  1  0  0  0  0
 30 31  3  0  0  0  0
M  END
> <CdId>
422

> <Mol Weight>
433.523

> <Formula>
C24H23N3O3S

> <Click_ID>
CLK006_C03 __ __ 

$$$$
