CLK020_C11
 OpenBabel03181404502D

 26 28  0  0  0  0  0  0  0  0999 V2000
    6.2348   -4.1746    0.0000 S    0  0  0  0  0  0  0  0  0  0  0  0
    5.6230   -4.7365    0.0000 C    0  0  0  0  0  0  0  0  0  0  0  0
    4.9071   -4.3244    0.0000 N    0  0  0  0  0  0  0  0  0  0  0  0
    5.0694   -3.5211    0.0000 C    0  0  0  0  0  0  0  0  0  0  0  0
    5.8935   -3.4254    0.0000 C    0  0  0  0  0  0  0  0  0  0  0  0
    4.5075   -2.9135    0.0000 C    0  0  0  0  0  0  0  0  0  0  0  0
   -0.0707   -3.2007    0.0000 C    0  0  0  0  0  0  0  0  0  0  0  0
   -0.8823   -3.3755    0.0000 C    0  0  0  0  0  0  0  0  0  0  0  0
    5.7187   -5.5606    0.0000 S    0  0  0  0  0  0  0  0  0  0  0  0
    6.2973   -2.7012    0.0000 O    0  0  0  0  0  0  0  0  0  0  0  0
    3.7001   -3.0883    0.0000 C    0  0  0  0  0  0  0  0  0  0  0  0
    6.4721   -5.8977    0.0000 C    0  0  0  0  0  0  0  0  0  0  0  0
    8.4574   -4.4326    0.0000 C    0  0  0  0  0  0  0  0  0  0  0  0
    7.1339   -5.4066    0.0000 C    0  0  0  0  0  0  0  0  0  0  0  0
    2.0894   -3.4504    0.0000 C    0  0  0  0  0  0  0  0  0  0  0  0
    9.1275   -3.9457    0.0000 Cl   0  0  0  0  0  0  0  0  0  0  0  0
    3.4629   -3.8749    0.0000 C    0  0  0  0  0  0  0  0  0  0  0  0
    3.1465   -2.4848    0.0000 C    0  0  0  0  0  0  0  0  0  0  0  0
    7.6957   -4.0997    0.0000 C    0  0  0  0  0  0  0  0  0  0  0  0
    8.5531   -5.2484    0.0000 C    0  0  0  0  0  0  0  0  0  0  0  0
    7.0423   -4.5867    0.0000 C    0  0  0  0  0  0  0  0  0  0  0  0
    7.8913   -5.7354    0.0000 C    0  0  0  0  0  0  0  0  0  0  0  0
    2.3474   -2.6596    0.0000 C    0  0  0  0  0  0  0  0  0  0  0  0
    2.6596   -4.0622    0.0000 C    0  0  0  0  0  0  0  0  0  0  0  0
    0.7284   -3.0217    0.0000 C    0  0  0  0  0  0  0  0  0  0  0  0
    1.2903   -3.6252    0.0000 O    0  0  0  0  0  0  0  0  0  0  0  0
  2  1  1  0  0  0  0
  3  2  2  0  0  0  0
  4  5  1  0  0  0  0
  4  3  1  0  0  0  0
  5  1  1  0  0  0  0
  6  4  2  0  0  0  0
  7 25  1  0  0  0  0
  8  7  3  0  0  0  0
  9  2  1  0  0  0  0
 10  5  2  0  0  0  0
 11  6  1  0  0  0  0
 12  9  1  0  0  0  0
 13 20  2  0  0  0  0
 13 19  1  0  0  0  0
 14 12  1  0  0  0  0
 15 23  2  0  0  0  0
 16 13  1  0  0  0  0
 17 11  1  0  0  0  0
 18 11  2  0  0  0  0
 19 21  2  0  0  0  0
 20 22  1  0  0  0  0
 21 14  1  0  0  0  0
 22 14  2  0  0  0  0
 23 18  1  0  0  0  0
 24 17  2  0  0  0  0
 24 15  1  0  0  0  0
 25 26  1  0  0  0  0
 26 15  1  0  0  0  0
M  END
> <CdId>
1506

> <Mol Weight>
399.914

> <Formula>
C20H14ClNO2S2

> <Click_ID>
CLK020_C11 __ __ 

$$$$
