CLK047B09
 OpenBabel03181404502D

 19 20  0  0  0  0  0  0  0  0999 V2000
   -0.1542   -0.1292    0.0000 C   0  0  0  0  0  0  0  0  0  0  0  0
   -0.1542   -0.9542    0.0000 C   0  0  0  0  0  0  0  0  0  0  0  0
    0.5625    0.2833    0.0000 N   0  0  0  0  0  0  0  0  0  0  0  0
   -0.8667   -2.1917    0.0000 N   0  0  0  0  0  0  0  0  0  0  0  0
   -0.8667    2.7583    0.0000 C   0  0  0  0  0  0  0  0  0  0  0  0
   -1.5833    3.1708    0.0000 C   0  0  0  0  0  0  0  0  0  0  0  0
   -0.8667   -1.3667    0.0000 C   0  0  0  0  0  0  0  0  0  0  0  0
   -0.1542   -2.6042    0.0000 C   0  0  0  0  0  0  0  0  0  0  0  0
   -0.8667    0.2833    0.0000 O   0  0  0  0  0  0  0  0  0  0  0  0
    0.5625    1.1083    0.0000 C   0  0  0  0  0  0  0  0  0  0  0  0
    0.5625   -1.3667    0.0000 C   0  0  0  0  0  0  0  0  0  0  0  0
   -0.1542    2.3458    0.0000 C   0  0  0  0  0  0  0  0  0  0  0  0
   -0.1542    1.5208    0.0000 C   0  0  0  0  0  0  0  0  0  0  0  0
    0.5625   -2.1917    0.0000 C   0  0  0  0  0  0  0  0  0  0  0  0
   -0.1542   -3.4292    0.0000 O   0  0  0  0  0  0  0  0  0  0  0  0
    1.2750    2.3458    0.0000 C   0  0  0  0  0  0  0  0  0  0  0  0
    1.2750    1.5208    0.0000 C   0  0  0  0  0  0  0  0  0  0  0  0
    0.5625    2.7583    0.0000 C   0  0  0  0  0  0  0  0  0  0  0  0
    0.5625   -3.8417    0.0000 C   0  0  0  0  0  0  0  0  0  0  0  0
  2  1  1  0  0  0  0
  3  1  1  0  0  0  0
  4  7  1  0  0  0  0
  5 12  1  0  0  0  0
  6  5  3  0  0  0  0
  7  2  2  0  0  0  0
  8  4  2  0  0  0  0
  9  1  2  0  0  0  0
 10  3  1  0  0  0  0
 11  2  1  0  0  0  0
 12 13  1  0  0  0  0
 13 10  2  0  0  0  0
 14 11  2  0  0  0  0
 14  8  1  0  0  0  0
 15  8  1  0  0  0  0
 16 17  2  0  0  0  0
 17 10  1  0  0  0  0
 18 12  2  0  0  0  0
 18 16  1  0  0  0  0
 19 15  1  0  0  0  0
M  END
> <CdId>
3626

> <Mol Weight>
252.268

> <Formula>
C15H12N2O2

> <Click_ID>
CLK047B09 __ __ 

$$$$
