CLK032_H08
 OpenBabel03181404502D

 23 25  0  0  0  0  0  0  0  0999 V2000
   -1.8958    2.1583    0.0000 C    0  0  0  0  0  0  0  0  0  0  0  0
   -1.0708    2.1583    0.0000 N    0  0  0  0  0  0  0  0  0  0  0  0
   -2.3750    2.8208    0.0000 N    0  0  0  0  0  0  0  0  0  0  0  0
   -2.3750    1.4833    0.0000 S    0  0  0  0  0  0  0  0  0  0  0  0
   -0.6583    1.4458    0.0000 C    0  0  0  0  0  0  0  0  0  0  0  0
   -3.1625    2.5583    0.0000 C    0  0  0  0  0  0  0  0  0  0  0  0
   -3.1583    1.7333    0.0000 C    0  0  0  0  0  0  0  0  0  0  0  0
    0.1667    1.4458    0.0000 C    0  0  0  0  0  0  0  0  0  0  0  0
   -1.3208    3.7708    0.0000 C    0  0  0  0  0  0  0  0  0  0  0  0
   -0.5208    3.9458    0.0000 C    0  0  0  0  0  0  0  0  0  0  0  0
   -3.8750    2.9833    0.0000 C    0  0  0  0  0  0  0  0  0  0  0  0
    0.5792    0.7458    0.0000 C    0  0  0  0  0  0  0  0  0  0  0  0
   -1.0625    0.7250    0.0000 O    0  0  0  0  0  0  0  0  0  0  0  0
   -2.1250    3.6083    0.0000 C    0  0  0  0  0  0  0  0  0  0  0  0
    0.1667    0.0208    0.0000 Br   0  0  0  0  0  0  0  0  0  0  0  0
   -3.8750    3.8000    0.0000 F    0  0  0  0  0  0  0  0  0  0  0  0
   -3.8750    1.3250    0.0000 C    0  0  0  0  0  0  0  0  0  0  0  0
    0.5792    2.1708    0.0000 C    0  0  0  0  0  0  0  0  0  0  0  0
   -4.5833    1.7333    0.0000 C    0  0  0  0  0  0  0  0  0  0  0  0
   -4.5833    2.5583    0.0000 C    0  0  0  0  0  0  0  0  0  0  0  0
    1.4000    0.7458    0.0000 C    0  0  0  0  0  0  0  0  0  0  0  0
    1.4042    2.1708    0.0000 C    0  0  0  0  0  0  0  0  0  0  0  0
    1.8125    1.4375    0.0000 C    0  0  0  0  0  0  0  0  0  0  0  0
  2  1  2  0  0  0  0
  3  1  1  0  0  0  0
  4  1  1  0  0  0  0
  5  2  1  0  0  0  0
  6  3  1  0  0  0  0
  7  4  1  0  0  0  0
  7  6  2  0  0  0  0
  8  5  1  0  0  0  0
  9 14  1  0  0  0  0
 10  9  3  0  0  0  0
 11  6  1  0  0  0  0
 12  8  2  0  0  0  0
 13  5  2  0  0  0  0
 14  3  1  0  0  0  0
 15 12  1  0  0  0  0
 16 11  1  0  0  0  0
 17  7  1  0  0  0  0
 18  8  1  0  0  0  0
 19 17  2  0  0  0  0
 19 20  1  0  0  0  0
 20 11  2  0  0  0  0
 21 12  1  0  0  0  0
 22 18  2  0  0  0  0
 23 22  1  0  0  0  0
 23 21  2  0  0  0  0
M  END
> <CdId>
2482

> <Mol Weight>
389.242

> <Formula>
C17H10BrFN2OS

> <Click_ID>
CLK032_H08 __ __ 

$$$$
