CLK048D04
 OpenBabel03181404502D

 30 31  0  0  0  0  0  0  0  0999 V2000
    2.3542    2.9875    0.0000 S    0  0  0  0  0  0  0  0  0  0  0  0
   -1.9292   -4.4375    0.0000 C    0  0  0  0  0  0  0  0  0  0  0  0
   -1.9292   -3.6125    0.0000 C    0  0  0  0  0  0  0  0  0  0  0  0
   -1.2167   -2.3750    0.0000 N    0  0  0  0  0  0  0  0  0  0  0  0
   -1.9292   -1.9625    0.0000 C    0  0  0  0  0  0  0  0  0  0  0  0
   -0.5042    1.3375    0.0000 C    0  0  0  0  0  0  0  0  0  0  0  0
    1.6417    2.5750    0.0000 C    0  0  0  0  0  0  0  0  0  0  0  0
   -2.6458   -3.2000    0.0000 C    0  0  0  0  0  0  0  0  0  0  0  0
   -2.6458   -2.3750    0.0000 C    0  0  0  0  0  0  0  0  0  0  0  0
    4.5000    3.4000    0.0000 C    0  0  0  0  0  0  0  0  0  0  0  0
    5.2125    3.8125    0.0000 C    0  0  0  0  0  0  0  0  0  0  0  0
    1.9417    3.7000    0.0000 O    0  0  0  0  0  0  0  0  0  0  0  0
    2.7667    2.2708    0.0000 O    0  0  0  0  0  0  0  0  0  0  0  0
   -1.2167   -3.2000    0.0000 C    0  0  0  0  0  0  0  0  0  0  0  0
    0.2125    1.7500    0.0000 C    0  0  0  0  0  0  0  0  0  0  0  0
    3.0708    3.4000    0.0000 N    0  0  0  0  0  0  0  0  0  0  0  0
   -1.2167    1.7500    0.0000 O    0  0  0  0  0  0  0  0  0  0  0  0
    1.6417    1.7500    0.0000 C    0  0  0  0  0  0  0  0  0  0  0  0
    0.9250    2.9875    0.0000 C    0  0  0  0  0  0  0  0  0  0  0  0
   -1.1042   -4.4375    0.0000 F    0  0  0  0  0  0  0  0  0  0  0  0
   -2.7542   -4.4375    0.0000 F    0  0  0  0  0  0  0  0  0  0  0  0
   -1.9292   -5.2625    0.0000 F    0  0  0  0  0  0  0  0  0  0  0  0
    0.9250    1.3375    0.0000 C    0  0  0  0  0  0  0  0  0  0  0  0
    0.2125    2.5750    0.0000 C    0  0  0  0  0  0  0  0  0  0  0  0
   -0.5042    0.5125    0.0000 N    0  0  0  0  0  0  0  0  0  0  0  0
   -1.9292   -1.1375    0.0000 N    0  0  0  0  0  0  0  0  0  0  0  0
   -3.3583   -1.9625    0.0000 Cl   0  0  0  0  0  0  0  0  0  0  0  0
    3.7833    2.9875    0.0000 C    0  0  0  0  0  0  0  0  0  0  0  0
   -1.2167    0.1000    0.0000 C    0  0  0  0  0  0  0  0  0  0  0  0
   -1.2167   -0.7250    0.0000 C    0  0  0  0  0  0  0  0  0  0  0  0
  2  3  1  0  0  0  0
  3  8  2  0  0  0  0
  4  5  1  0  0  0  0
  5 26  1  0  0  0  0
  6 15  1  0  0  0  0
  7  1  1  0  0  0  0
  8  9  1  0  0  0  0
  9  5  2  0  0  0  0
 10 28  1  0  0  0  0
 11 10  3  0  0  0  0
 12  1  2  0  0  0  0
 13  1  2  0  0  0  0
 14  4  2  0  0  0  0
 14  3  1  0  0  0  0
 15 24  2  0  0  0  0
 16  1  1  0  0  0  0
 17  6  2  0  0  0  0
 18  7  1  0  0  0  0
 19  7  2  0  0  0  0
 20  2  1  0  0  0  0
 21  2  1  0  0  0  0
 22  2  1  0  0  0  0
 23 18  2  0  0  0  0
 23 15  1  0  0  0  0
 24 19  1  0  0  0  0
 25  6  1  0  0  0  0
 26 30  1  0  0  0  0
 27  9  1  0  0  0  0
 28 16  1  0  0  0  0
 29 25  1  0  0  0  0
 30 29  1  0  0  0  0
M  END
> <CdId>
3668

> <Mol Weight>
460.858

> <Formula>
C18H16ClF3N4O3S

> <Click_ID>
CLK048D04 __ __ 

$$$$
