CLK042A03
 OpenBabel03181404502D

 23 24  0  0  0  0  0  0  0  0999 V2000
    0.0583   -0.7500    0.0000 S    0  0  0  0  0  0  0  0  0  0  0  0
    0.0583   -1.5750    0.0000 N    0  0  0  0  0  0  0  0  0  0  0  0
    0.0583    0.0750    0.0000 C    0  0  0  0  0  0  0  0  0  0  0  0
   -1.3708    1.7250    0.0000 C    0  0  0  0  0  0  0  0  0  0  0  0
   -2.0833    3.7875    0.0000 C    0  0  0  0  0  0  0  0  0  0  0  0
    0.8833   -0.7500    0.0000 O    0  0  0  0  0  0  0  0  0  0  0  0
   -0.7667   -0.7500    0.0000 O    0  0  0  0  0  0  0  0  0  0  0  0
   -0.6542    1.3125    0.0000 C    0  0  0  0  0  0  0  0  0  0  0  0
   -0.6542    0.4875    0.0000 C    0  0  0  0  0  0  0  0  0  0  0  0
   -2.0833    4.6083    0.0000 C    0  0  0  0  0  0  0  0  0  0  0  0
    0.7750   -1.9875    0.0000 C    0  0  0  0  0  0  0  0  0  0  0  0
   -2.0833    1.3125    0.0000 O    0  0  0  0  0  0  0  0  0  0  0  0
    0.7750   -2.8125    0.0000 C    0  0  0  0  0  0  0  0  0  0  0  0
   -1.3708    2.5500    0.0000 N    0  0  0  0  0  0  0  0  0  0  0  0
    1.4875   -3.2250    0.0000 C    0  0  0  0  0  0  0  0  0  0  0  0
    1.4875   -4.0500    0.0000 Cl   0  0  0  0  0  0  0  0  0  0  0  0
   -2.0833    2.9625    0.0000 C    0  0  0  0  0  0  0  0  0  0  0  0
    0.7750    0.4875    0.0000 C    0  0  0  0  0  0  0  0  0  0  0  0
    0.0583    1.7250    0.0000 C    0  0  0  0  0  0  0  0  0  0  0  0
    0.7750    1.3125    0.0000 C    0  0  0  0  0  0  0  0  0  0  0  0
    2.2042   -1.9875    0.0000 C    0  0  0  0  0  0  0  0  0  0  0  0
    1.4875   -1.5750    0.0000 C    0  0  0  0  0  0  0  0  0  0  0  0
    2.2042   -2.8125    0.0000 C    0  0  0  0  0  0  0  0  0  0  0  0
  2  1  1  0  0  0  0
  3  1  1  0  0  0  0
  4  8  1  0  0  0  0
  5 17  1  0  0  0  0
  6  1  2  0  0  0  0
  7  1  2  0  0  0  0
  8  9  1  0  0  0  0
  9  3  2  0  0  0  0
 10  5  3  0  0  0  0
 11  2  1  0  0  0  0
 12  4  2  0  0  0  0
 13 11  1  0  0  0  0
 14  4  1  0  0  0  0
 15 13  2  0  0  0  0
 16 15  1  0  0  0  0
 17 14  1  0  0  0  0
 18  3  1  0  0  0  0
 19  8  2  0  0  0  0
 19 20  1  0  0  0  0
 20 18  2  0  0  0  0
 21 22  1  0  0  0  0
 21 23  2  0  0  0  0
 22 11  2  0  0  0  0
 23 15  1  0  0  0  0
M  END
> <CdId>
3177

> <Mol Weight>
348.804

> <Formula>
C16H13ClN2O3S

> <Click_ID>
CLK042A03 __ __ 

$$$$
