CLK002_B03
 OpenBabel03181404502D

 16 16  0  0  0  0  0  0  0  0999 V2000
    1.1604    0.3497    0.0000 C   0  0  0  0  0  0  0  0  0  0  0  0
    0.4228    0.7535    0.0000 C   0  0  0  0  0  0  0  0  0  0  0  0
    1.1604   -0.4674    0.0000 C   0  0  0  0  0  0  0  0  0  0  0  0
    1.8662    0.7758    0.0000 C   0  0  0  0  0  0  0  0  0  0  0  0
   -0.2766    0.3306    0.0000 C   0  0  0  0  0  0  0  0  0  0  0  0
    0.4228    1.5960    0.0000 O   0  0  0  0  0  0  0  0  0  0  0  0
    1.8886   -0.8838    0.0000 C   0  0  0  0  0  0  0  0  0  0  0  0
    2.5816    0.3657    0.0000 C   0  0  0  0  0  0  0  0  0  0  0  0
   -0.2766   -0.4992    0.0000 C   0  0  0  0  0  0  0  0  0  0  0  0
    2.6007   -0.4674    0.0000 C   0  0  0  0  0  0  0  0  0  0  0  0
   -0.9920   -0.8934    0.0000 N   0  0  0  0  0  0  0  0  0  0  0  0
   -1.6882   -0.4451    0.0000 C   0  0  0  0  0  0  0  0  0  0  0  0
   -2.3909   -0.0191    0.0000 C   0  0  0  0  0  0  0  0  0  0  0  0
   -1.2559    0.2575    0.0000 C   0  0  0  0  0  0  0  0  0  0  0  0
   -2.1206   -1.1700    0.0000 C   0  0  0  0  0  0  0  0  0  0  0  0
   -3.0903    0.4133    0.0000 C   0  0  0  0  0  0  0  0  0  0  0  0
  1  2  1  0  0  0  0
  1  3  1  0  0  0  0
  1  4  2  0  0  0  0
  2  5  1  0  0  0  0
  2  6  2  0  0  0  0
  3  7  1  0  0  0  0
  4  8  1  0  0  0  0
  5  9  1  0  0  0  0
  7 10  1  0  0  0  0
  8 10  1  0  0  0  0
  9 11  1  0  0  0  0
 11 12  1  0  0  0  0
 12 13  1  0  0  0  0
 12 14  1  0  0  0  0
 12 15  1  0  0  0  0
 13 16  3  0  0  0  0
M  END
> <CdId>
92

> <Mol Weight>
219.3226

> <Formula>
C14H21NO

> <Click_ID>
CLK002_B03 __ __ 

$$$$
