CLK004_D03
 OpenBabel03181404502D

 24 25  0  0  0  0  0  0  0  0999 V2000
    7.5506  -12.2816    0.0000 N    0  0  0  0  0  0  0  0  0  0  0  0
    7.3722  -13.0860    0.0000 C    0  0  0  0  0  0  0  0  0  0  0  0
    3.7981  -11.8338    0.0000 C    0  0  0  0  0  0  0  0  0  0  0  0
    8.3674  -12.2028    0.0000 C    0  0  0  0  0  0  0  0  0  0  0  0
    3.7981  -11.0128    0.0000 C    0  0  0  0  0  0  0  0  0  0  0  0
    6.6550  -13.4923    0.0000 N    0  0  0  0  0  0  0  0  0  0  0  0
    8.7032  -12.9574    0.0000 N    0  0  0  0  0  0  0  0  0  0  0  0
    5.9459  -13.0777    0.0000 C    0  0  0  0  0  0  0  0  0  0  0  0
    8.0855  -13.5048    0.0000 S    0  0  0  0  0  0  0  0  0  0  0  0
    8.7821  -10.0550    0.0000 C    0  0  0  0  0  0  0  0  0  0  0  0
    5.2286  -13.4882    0.0000 N    0  0  0  0  0  0  0  0  0  0  0  0
    9.1967   -9.3418    0.0000 C    0  0  0  0  0  0  0  0  0  0  0  0
    3.0891  -12.2443    0.0000 C    0  0  0  0  0  0  0  0  0  0  0  0
    4.5112  -12.2443    0.0000 C    0  0  0  0  0  0  0  0  0  0  0  0
    4.5154  -13.0694    0.0000 C    0  0  0  0  0  0  0  0  0  0  0  0
    5.9501  -12.2568    0.0000 O    0  0  0  0  0  0  0  0  0  0  0  0
    8.7821  -11.4855    0.0000 S    0  0  0  0  0  0  0  0  0  0  0  0
    2.9771  -11.0128    0.0000 F    0  0  0  0  0  0  0  0  0  0  0  0
    4.6191  -11.0128    0.0000 F    0  0  0  0  0  0  0  0  0  0  0  0
    3.7981  -10.1919    0.0000 F    0  0  0  0  0  0  0  0  0  0  0  0
    3.0891  -13.0694    0.0000 C    0  0  0  0  0  0  0  0  0  0  0  0
    3.7981  -13.4799    0.0000 C    0  0  0  0  0  0  0  0  0  0  0  0
    2.3717  -11.8255    0.0000 Cl   0  0  0  0  0  0  0  0  0  0  0  0
    8.3716  -10.7723    0.0000 C    0  0  0  0  0  0  0  0  0  0  0  0
  2  1  2  0  0  0  0
  3 14  1  0  0  0  0
  3 13  2  0  0  0  0
  4  1  1  0  0  0  0
  5  3  1  0  0  0  0
  6  2  1  0  0  0  0
  7  4  2  0  0  0  0
  8  6  1  0  0  0  0
  9  2  1  0  0  0  0
  9  7  1  0  0  0  0
 10 24  1  0  0  0  0
 11  8  1  0  0  0  0
 12 10  3  0  0  0  0
 13 21  1  0  0  0  0
 14 15  2  0  0  0  0
 15 11  1  0  0  0  0
 16  8  2  0  0  0  0
 17  4  1  0  0  0  0
 18  5  1  0  0  0  0
 19  5  1  0  0  0  0
 20  5  1  0  0  0  0
 21 22  2  0  0  0  0
 22 15  1  0  0  0  0
 23 13  1  0  0  0  0
 24 17  1  0  0  0  0
M  END
> <CdId>
272

> <Mol Weight>
392.807

> <Formula>
C13H8ClF3N4OS2

> <Click_ID>
CLK004_D03 __ __ 

$$$$
