CLK037E05
 OpenBabel03181404502D

 21 21  0  0  0  0  0  0  0  0999 V2000
   -1.8042    1.4375    0.0000 N   0  3  0  0  0  0  0  0  0  0  0  0
   -1.0917    1.8500    0.0000 C   0  0  0  0  0  0  0  0  0  0  0  0
    1.0542   -2.6875    0.0000 C   0  0  0  0  0  0  0  0  0  0  0  0
    1.0542   -3.5125    0.0000 C   0  0  0  0  0  0  0  0  0  0  0  0
    0.3375   -0.6250    0.0000 C   0  0  0  0  0  0  0  0  0  0  0  0
   -2.5208    1.8500    0.0000 O   0  5  0  0  0  0  0  0  0  0  0  0
   -0.3750    1.4375    0.0000 C   0  0  0  0  0  0  0  0  0  0  0  0
    1.0542   -1.0375    0.0000 N   0  0  0  0  0  0  0  0  0  0  0  0
   -1.8042    0.6125    0.0000 O   0  0  0  0  0  0  0  0  0  0  0  0
    1.0542   -1.8625    0.0000 C   0  0  0  0  0  0  0  0  0  0  0  0
   -0.3750    0.6125    0.0000 O   0  0  0  0  0  0  0  0  0  0  0  0
   -0.3750   -1.0375    0.0000 O   0  0  0  0  0  0  0  0  0  0  0  0
    0.3375    0.2000    0.0000 C   0  0  0  0  0  0  0  0  0  0  0  0
   -1.0917    2.6750    0.0000 C   0  0  0  0  0  0  0  0  0  0  0  0
    0.2292   -1.8625    0.0000 C   0  0  0  0  0  0  0  0  0  0  0  0
    1.8792   -1.8625    0.0000 C   0  0  0  0  0  0  0  0  0  0  0  0
    0.3375    1.8500    0.0000 C   0  0  0  0  0  0  0  0  0  0  0  0
   -0.3750    3.0875    0.0000 C   0  0  0  0  0  0  0  0  0  0  0  0
   -0.1833   -1.1500    0.0000 C   0  0  0  0  0  0  0  0  0  0  0  0
    2.2917   -2.5792    0.0000 C   0  0  0  0  0  0  0  0  0  0  0  0
    0.3375    2.6750    0.0000 C   0  0  0  0  0  0  0  0  0  0  0  0
  2  1  1  0  0  0  0
  3 10  1  0  0  0  0
  4  3  3  0  0  0  0
  5 13  1  0  0  0  0
  6  1  1  0  0  0  0
  7  2  2  0  0  0  0
  8  5  1  0  0  0  0
  9  1  2  0  0  0  0
 10  8  1  0  0  0  0
 11  7  1  0  0  0  0
 12  5  2  0  0  0  0
 13 11  1  0  0  0  0
 14  2  1  0  0  0  0
 15 10  1  0  0  0  0
 16 10  1  0  0  0  0
 17  7  1  0  0  0  0
 18 14  2  0  0  0  0
 18 21  1  0  0  0  0
 19 15  1  0  0  0  0
 20 16  1  0  0  0  0
 21 17  2  0  0  0  0
M  END
> <CdId>
2797

> <Mol Weight>
290.3144

> <Formula>
C15H18N2O4

> <Click_ID>
CLK037E05 __ __ 

$$$$
