CLK013_C11
 OpenBabel03181404502D

 26 28  0  0  0  0  0  0  0  0999 V2000
    1.5599   -0.8132    0.0000 N   0  0  0  0  0  0  0  0  0  0  0  0
    1.8171   -1.5972    0.0000 C   0  0  0  0  0  0  0  0  0  0  0  0
    4.5345    1.3898    0.0000 N   0  0  0  0  0  0  0  0  0  0  0  0
    2.8916   -0.8132    0.0000 C   0  0  0  0  0  0  0  0  0  0  0  0
    2.2278   -0.3278    0.0000 C   0  0  0  0  0  0  0  0  0  0  0  0
    3.8582    0.2447    0.0000 C   0  0  0  0  0  0  0  0  0  0  0  0
    2.6385   -1.5972    0.0000 S   0  0  0  0  0  0  0  0  0  0  0  0
    3.7379    1.5640    0.0000 C   0  0  0  0  0  0  0  0  0  0  0  0
    4.6091    0.5725    0.0000 C   0  0  0  0  0  0  0  0  0  0  0  0
    3.6757   -0.5601    0.0000 C   0  0  0  0  0  0  0  0  0  0  0  0
    3.3148    0.8463    0.0000 C   0  0  0  0  0  0  0  0  0  0  0  0
    5.1568    1.9291    0.0000 C   0  0  0  0  0  0  0  0  0  0  0  0
    0.6098    0.2447    0.0000 C   0  0  0  0  0  0  0  0  0  0  0  0
    0.3900    1.0413    0.0000 C   0  0  0  0  0  0  0  0  0  0  0  0
    1.3317   -2.2569    0.0000 O   0  0  0  0  0  0  0  0  0  0  0  0
    2.2195    0.4937    0.0000 O   0  0  0  0  0  0  0  0  0  0  0  0
    4.9950    2.7463    0.0000 C   0  0  0  0  0  0  0  0  0  0  0  0
    5.9408    1.6636    0.0000 C   0  0  0  0  0  0  0  0  0  0  0  0
    0.7841   -0.5601    0.0000 C   0  0  0  0  0  0  0  0  0  0  0  0
    5.6173    3.2815    0.0000 C   0  0  0  0  0  0  0  0  0  0  0  0
    6.5590    2.2112    0.0000 C   0  0  0  0  0  0  0  0  0  0  0  0
    6.3972    3.0202    0.0000 C   0  0  0  0  0  0  0  0  0  0  0  0
    3.4019    2.3274    0.0000 C   0  0  0  0  0  0  0  0  0  0  0  0
    5.3186    0.1452    0.0000 C   0  0  0  0  0  0  0  0  0  0  0  0
    7.3430    1.9374    0.0000 C   0  0  0  0  0  0  0  0  0  0  0  0
    5.4555    4.0864    0.0000 C   0  0  0  0  0  0  0  0  0  0  0  0
  2  1  1  0  0  0  0
  3  9  1  0  0  0  0
  4  5  1  0  0  0  0
  5  1  1  0  0  0  0
  6 10  1  0  0  0  0
  7  2  1  0  0  0  0
  7  4  1  0  0  0  0
  8 11  2  0  0  0  0
  8  3  1  0  0  0  0
  9  6  2  0  0  0  0
 10  4  2  0  0  0  0
 11  6  1  0  0  0  0
 12  3  1  0  0  0  0
 13 19  1  0  0  0  0
 14 13  3  0  0  0  0
 15  2  2  0  0  0  0
 16  5  2  0  0  0  0
 17 12  1  0  0  0  0
 18 12  2  0  0  0  0
 19  1  1  0  0  0  0
 20 17  2  0  0  0  0
 20 22  1  0  0  0  0
 21 18  1  0  0  0  0
 22 21  2  0  0  0  0
 23  8  1  0  0  0  0
 24  9  1  0  0  0  0
 25 21  1  0  0  0  0
 26 20  1  0  0  0  0
M  END
> <CdId>
946

> <Mol Weight>
364.461

> <Formula>
C21H20N2O2S

> <Click_ID>
CLK013_C11 __ __ 

$$$$
