CLK020_H10
 OpenBabel03181404502D

 20 21  0  0  0  0  0  0  0  0999 V2000
    6.9167   -2.7292    0.0000 N   0  0  0  0  0  0  0  0  0  0  0  0
    6.0917   -2.7292    0.0000 C   0  0  0  0  0  0  0  0  0  0  0  0
    6.5042   -4.0000    0.0000 C   0  0  0  0  0  0  0  0  0  0  0  0
    7.1750   -3.5167    0.0000 C   0  0  0  0  0  0  0  0  0  0  0  0
    5.8375   -3.5167    0.0000 S   0  0  0  0  0  0  0  0  0  0  0  0
    6.5125   -4.8250    0.0000 C   0  0  0  0  0  0  0  0  0  0  0  0
    5.8000   -5.2417    0.0000 C   0  0  0  0  0  0  0  0  0  0  0  0
    5.8000   -6.0667    0.0000 C   0  0  0  0  0  0  0  0  0  0  0  0
    7.2292   -7.7167    0.0000 C   0  0  0  0  0  0  0  0  0  0  0  0
    7.2292   -8.5417    0.0000 C   0  0  0  0  0  0  0  0  0  0  0  0
    5.6042   -2.0667    0.0000 S   0  0  0  0  0  0  0  0  0  0  0  0
    7.9542   -3.7667    0.0000 O   0  0  0  0  0  0  0  0  0  0  0  0
    5.0792   -6.4792    0.0000 C   0  0  0  0  0  0  0  0  0  0  0  0
    6.5167   -6.4792    0.0000 O   0  0  0  0  0  0  0  0  0  0  0  0
    5.0792   -7.3125    0.0000 O   0  0  0  0  0  0  0  0  0  0  0  0
    6.5167   -7.3042    0.0000 C   0  0  0  0  0  0  0  0  0  0  0  0
    5.0792   -4.8292    0.0000 C   0  0  0  0  0  0  0  0  0  0  0  0
    4.3667   -5.2417    0.0000 C   0  0  0  0  0  0  0  0  0  0  0  0
    4.3667   -6.0667    0.0000 C   0  0  0  0  0  0  0  0  0  0  0  0
    4.3625   -7.7167    0.0000 C   0  0  0  0  0  0  0  0  0  0  0  0
  2  1  1  0  0  0  0
  3  4  1  0  0  0  0
  3  5  1  0  0  0  0
  4  1  1  0  0  0  0
  5  2  1  0  0  0  0
  6  3  2  0  0  0  0
  7  6  1  0  0  0  0
  8  7  1  0  0  0  0
  9 16  1  0  0  0  0
 10  9  3  0  0  0  0
 11  2  2  0  0  0  0
 12  4  2  0  0  0  0
 13  8  2  0  0  0  0
 14  8  1  0  0  0  0
 15 13  1  0  0  0  0
 16 14  1  0  0  0  0
 17  7  2  0  0  0  0
 18 17  1  0  0  0  0
 19 18  2  0  0  0  0
 19 13  1  0  0  0  0
 20 15  1  0  0  0  0
M  END
> <CdId>
1555

> <Mol Weight>
305.372

> <Formula>
C14H11NO3S2

> <Click_ID>
CLK020_H10 __ __ 

$$$$
