CLK038G09
 OpenBabel03181404502D

 30 31  0  0  0  0  0  0  0  0999 V2000
    4.7797    0.5626    0.0000 C    0  0  0  0  0  0  0  0  0  0  0  0
    3.5129    0.1500    0.0000 N    0  0  0  0  0  0  0  0  0  0  0  0
    3.9962   -0.5168    0.0000 N    0  0  0  0  0  0  0  0  0  0  0  0
    3.9962    0.8168    0.0000 C    0  0  0  0  0  0  0  0  0  0  0  0
    4.7797   -0.2625    0.0000 C    0  0  0  0  0  0  0  0  0  0  0  0
   -0.2083   -0.3542    0.0000 C    0  0  0  0  0  0  0  0  0  0  0  0
    0.2042    0.3583    0.0000 C    0  0  0  0  0  0  0  0  0  0  0  0
    4.2921   -1.9169    0.0000 C    0  0  0  0  0  0  0  0  0  0  0  0
    3.7421   -1.3043    0.0000 C    0  0  0  0  0  0  0  0  0  0  0  0
    7.6216    0.8584    0.0000 C    0  0  0  0  0  0  0  0  0  0  0  0
    8.3759    0.5251    0.0000 C    0  0  0  0  0  0  0  0  0  0  0  0
    3.7421    1.6002    0.0000 C    0  0  0  0  0  0  0  0  0  0  0  0
    4.0379   -2.7003    0.0000 C    0  0  0  0  0  0  0  0  0  0  0  0
    0.2042   -1.0709    0.0000 O    0  0  0  0  0  0  0  0  0  0  0  0
    1.0293    0.3583    0.0000 O    0  0  0  0  0  0  0  0  0  0  0  0
    5.4506    1.0459    0.0000 C    0  0  0  0  0  0  0  0  0  0  0  0
   -0.2083    1.0751    0.0000 O    0  0  0  0  0  0  0  0  0  0  0  0
   -1.0334   -0.3542    0.0000 O    0  0  0  0  0  0  0  0  0  0  0  0
    3.2295   -2.8711    0.0000 Cl   0  0  0  0  0  0  0  0  0  0  0  0
    6.2006    0.7126    0.0000 N    0  0  0  0  0  0  0  0  0  0  0  0
    6.8715    1.1959    0.0000 C    0  0  0  0  0  0  0  0  0  0  0  0
    5.1005   -1.7460    0.0000 C    0  0  0  0  0  0  0  0  0  0  0  0
    4.5922   -3.3128    0.0000 C    0  0  0  0  0  0  0  0  0  0  0  0
    4.2921    2.2127    0.0000 C    0  0  0  0  0  0  0  0  0  0  0  0
    2.9336    1.7710    0.0000 C    0  0  0  0  0  0  0  0  0  0  0  0
    5.6548   -2.3585    0.0000 C    0  0  0  0  0  0  0  0  0  0  0  0
    4.0379    3.0003    0.0000 C    0  0  0  0  0  0  0  0  0  0  0  0
    2.6795    2.5586    0.0000 C    0  0  0  0  0  0  0  0  0  0  0  0
    5.3964   -3.1420    0.0000 C    0  0  0  0  0  0  0  0  0  0  0  0
    3.2295    3.1711    0.0000 C    0  0  0  0  0  0  0  0  0  0  0  0
  2  4  2  0  0  0  0
  2  3  1  0  0  0  0
  3  5  1  0  0  0  0
  4  1  1  0  0  0  0
  5  1  2  0  0  0  0
  7  6  1  0  0  0  0
  8  9  1  0  0  0  0
  9  3  1  0  0  0  0
 10 21  1  0  0  0  0
 11 10  3  0  0  0  0
 12  4  1  0  0  0  0
 13  8  2  0  0  0  0
 14  6  2  0  0  0  0
 15  7  2  0  0  0  0
 16  1  1  0  0  0  0
 17  7  1  0  0  0  0
 18  6  1  0  0  0  0
 19 13  1  0  0  0  0
 20 16  1  0  0  0  0
 21 20  1  0  0  0  0
 22  8  1  0  0  0  0
 23 13  1  0  0  0  0
 24 12  1  0  0  0  0
 25 12  2  0  0  0  0
 26 22  2  0  0  0  0
 26 29  1  0  0  0  0
 27 24  2  0  0  0  0
 28 25  1  0  0  0  0
 29 23  2  0  0  0  0
 30 28  2  0  0  0  0
 30 27  1  0  0  0  0
M  END
> <CdId>
2911

> <Mol Weight>
425.865

> <Formula>
C22H20ClN3O4

> <Click_ID>
CLK038G09 __ __ 

$$$$
