CLK001_F08
 OpenBabel03181404502D

 17 19  0  0  0  0  0  0  0  0999 V2000
    0.4938    0.2470    0.0000 C   0  0  0  0  0  0  0  0  0  0  0  0
    1.3122    0.2470    0.0000 C   0  0  0  0  0  0  0  0  0  0  0  0
    0.2422   -0.5386    0.0000 C   0  0  0  0  0  0  0  0  0  0  0  0
   -0.0659    0.8537    0.0000 N   0  0  0  0  0  0  0  0  0  0  0  0
    1.5780   -0.5386    0.0000 C   0  0  0  0  0  0  0  0  0  0  0  0
    1.8649    0.8655    0.0000 C   0  0  0  0  0  0  0  0  0  0  0  0
    0.9171   -1.0300    0.0000 N   0  0  0  0  0  0  0  0  0  0  0  0
   -0.5714   -0.7149    0.0000 N   0  0  0  0  0  0  0  0  0  0  0  0
   -0.8560    0.6679    0.0000 N   0  0  0  0  0  0  0  0  0  0  0  0
    2.3893   -0.7031    0.0000 C   0  0  0  0  0  0  0  0  0  0  0  0
    2.6692    0.6961    0.0000 C   0  0  0  0  0  0  0  0  0  0  0  0
   -1.1170   -0.1153    0.0000 C   0  0  0  0  0  0  0  0  0  0  0  0
    2.9279   -0.0893    0.0000 C   0  0  0  0  0  0  0  0  0  0  0  0
   -1.9284   -0.2869    0.0000 S   0  0  0  0  0  0  0  0  0  0  0  0
   -2.4810    0.3199    0.0000 C   0  0  0  0  0  0  0  0  0  0  0  0
   -3.2853    0.1505    0.0000 C   0  0  0  0  0  0  0  0  0  0  0  0
   -4.0896   -0.0329    0.0000 C   0  0  0  0  0  0  0  0  0  0  0  0
  1  2  1  0  0  0  0
  1  3  1  0  0  0  0
  1  4  2  0  0  0  0
  2  5  1  0  0  0  0
  2  6  2  0  0  0  0
  3  7  1  0  0  0  0
  3  8  2  0  0  0  0
  4  9  1  0  0  0  0
  5 10  2  0  0  0  0
  5  7  1  0  0  0  0
  6 11  1  0  0  0  0
  8 12  1  0  0  0  0
  9 12  2  0  0  0  0
 10 13  1  0  0  0  0
 11 13  2  0  0  0  0
 12 14  1  0  0  0  0
 14 15  1  0  0  0  0
 15 16  1  0  0  0  0
 16 17  3  0  0  0  0
M  END
> <CdId>
57

> <Mol Weight>
240.284

> <Formula>
C12H8N4S

> <Click_ID>
CLK001_F08 __ __ 

$$$$
