CLK033_E08
 OpenBabel03181404502D

 33 36  0  0  0  0  0  0  0  0999 V2000
   -4.5711    2.5432    0.0000 C   0  0  0  0  0  0  0  0  0  0  0  0
   -0.9973    5.4355    0.0000 S   0  0  0  0  0  0  0  0  0  0  0  0
   -3.8605    2.9629    0.0000 N   0  0  0  0  0  0  0  0  0  0  0  0
   -4.6708    1.7287    0.0000 N   0  0  0  0  0  0  0  0  0  0  0  0
   -5.3066    2.8881    0.0000 S   0  0  0  0  0  0  0  0  0  0  0  0
   -5.4729    1.5708    0.0000 C   0  0  0  0  0  0  0  0  0  0  0  0
   -5.8801    2.2897    0.0000 C   0  0  0  0  0  0  0  0  0  0  0  0
   -0.2825    5.8386    0.0000 N   0  0  0  0  0  0  0  0  0  0  0  0
   -3.8605    3.7899    0.0000 C   0  0  0  0  0  0  0  0  0  0  0  0
   -1.7162    5.0158    0.0000 C   0  0  0  0  0  0  0  0  0  0  0  0
   -4.2387    0.3491    0.0000 C   0  0  0  0  0  0  0  0  0  0  0  0
   -0.5859    4.7166    0.0000 O   0  0  0  0  0  0  0  0  0  0  0  0
   -1.4087    6.1502    0.0000 O   0  0  0  0  0  0  0  0  0  0  0  0
   -4.4215   -0.4613    0.0000 C   0  0  0  0  0  0  0  0  0  0  0  0
   -3.1499    4.2013    0.0000 C   0  0  0  0  0  0  0  0  0  0  0  0
   -5.8967    0.8685    0.0000 C   0  0  0  0  0  0  0  0  0  0  0  0
   -4.5835    4.1930    0.0000 O   0  0  0  0  0  0  0  0  0  0  0  0
   -4.0517    1.1552    0.0000 C   0  0  0  0  0  0  0  0  0  0  0  0
   -1.7204    4.1930    0.0000 C   0  0  0  0  0  0  0  0  0  0  0  0
   -2.4310    5.4355    0.0000 C   0  0  0  0  0  0  0  0  0  0  0  0
   -2.4310    3.7981    0.0000 C   0  0  0  0  0  0  0  0  0  0  0  0
   -3.1499    5.0158    0.0000 C   0  0  0  0  0  0  0  0  0  0  0  0
    1.1511    6.6738    0.0000 O   0  0  0  0  0  0  0  0  0  0  0  0
   -0.2825    6.6738    0.0000 C   0  0  0  0  0  0  0  0  0  0  0  0
    0.4281    5.4396    0.0000 C   0  0  0  0  0  0  0  0  0  0  0  0
   -6.6863    2.3063    0.0000 C   0  0  0  0  0  0  0  0  0  0  0  0
   -5.5061    0.1371    0.0000 O   0  0  0  0  0  0  0  0  0  0  0  0
    1.1469    5.8510    0.0000 C   0  0  0  0  0  0  0  0  0  0  0  0
    0.4363    7.0852    0.0000 C   0  0  0  0  0  0  0  0  0  0  0  0
   -7.1226    1.6040    0.0000 C   0  0  0  0  0  0  0  0  0  0  0  0
   -6.7112    0.8809    0.0000 C   0  0  0  0  0  0  0  0  0  0  0  0
   -5.9299   -0.5652    0.0000 C   0  0  0  0  0  0  0  0  0  0  0  0
   -5.5477   -1.2758    0.0000 C   0  0  0  0  0  0  0  0  0  0  0  0
  2 10  1  0  0  0  0
  3  1  2  0  0  0  0
  4  1  1  0  0  0  0
  5  1  1  0  0  0  0
  6  4  1  0  0  0  0
  7  5  1  0  0  0  0
  7  6  2  0  0  0  0
  8  2  1  0  0  0  0
  9  3  1  0  0  0  0
 10 20  1  0  0  0  0
 10 19  2  0  0  0  0
 11 18  1  0  0  0  0
 12  2  2  0  0  0  0
 13  2  2  0  0  0  0
 14 11  3  0  0  0  0
 15  9  1  0  0  0  0
 16  6  1  0  0  0  0
 17  9  2  0  0  0  0
 18  4  1  0  0  0  0
 19 21  1  0  0  0  0
 20 22  2  0  0  0  0
 21 15  2  0  0  0  0
 22 15  1  0  0  0  0
 23 28  1  0  0  0  0
 23 29  1  0  0  0  0
 24  8  1  0  0  0  0
 25  8  1  0  0  0  0
 26  7  1  0  0  0  0
 27 16  1  0  0  0  0
 28 25  1  0  0  0  0
 29 24  1  0  0  0  0
 30 26  2  0  0  0  0
 31 16  2  0  0  0  0
 31 30  1  0  0  0  0
 32 27  1  0  0  0  0
 33 32  1  0  0  0  0
M  END
> <CdId>
2532

> <Mol Weight>
485.576

> <Formula>
C23H23N3O5S2

> <Click_ID>
CLK033_E08 __ __ 

$$$$
