CLK010_D02
 OpenBabel03181404502D

 24 25  0  0  0  0  0  0  0  0999 V2000
   -0.7129    0.4202    0.0000 S    0  0  0  0  0  0  0  0  0  0  0  0
    0.0000    0.0000    0.0000 N    0  0  0  0  0  0  0  0  0  0  0  0
    2.0619   -0.7054    0.0000 C    0  0  0  0  0  0  0  0  0  0  0  0
   -1.4334    0.8536    0.0000 C    0  0  0  0  0  0  0  0  0  0  0  0
    0.8236    0.0000    0.0000 N    0  0  0  0  0  0  0  0  0  0  0  0
    4.9155   -1.3583    0.0000 C    0  0  0  0  0  0  0  0  0  0  0  0
    5.2532   -0.6473    0.0000 C    0  0  0  0  0  0  0  0  0  0  0  0
   -0.2908    1.1350    0.0000 O    0  0  0  0  0  0  0  0  0  0  0  0
   -1.1350   -0.2946    0.0000 O    0  0  0  0  0  0  0  0  0  0  0  0
    2.4896    0.0000    0.0000 C    0  0  0  0  0  0  0  0  0  0  0  0
    2.4896   -1.4127    0.0000 C    0  0  0  0  0  0  0  0  0  0  0  0
    1.2289   -0.7054    0.0000 C    0  0  0  0  0  0  0  0  0  0  0  0
   -2.1463    0.4334    0.0000 C    0  0  0  0  0  0  0  0  0  0  0  0
   -1.4334    1.6754    0.0000 C    0  0  0  0  0  0  0  0  0  0  0  0
    3.3001    0.0000    0.0000 C    0  0  0  0  0  0  0  0  0  0  0  0
    3.3001   -1.4127    0.0000 C    0  0  0  0  0  0  0  0  0  0  0  0
    2.0619    0.7411    0.0000 Br   0  0  0  0  0  0  0  0  0  0  0  0
    3.7279   -0.7054    0.0000 C    0  0  0  0  0  0  0  0  0  0  0  0
   -2.1463    2.0788    0.0000 C    0  0  0  0  0  0  0  0  0  0  0  0
   -2.8536    0.8536    0.0000 C    0  0  0  0  0  0  0  0  0  0  0  0
   -2.8536    1.6754    0.0000 C    0  0  0  0  0  0  0  0  0  0  0  0
    4.5384   -2.1238    0.0000 C    0  0  0  0  0  0  0  0  0  0  0  0
    3.7279   -2.1557    0.0000 O    0  0  0  0  0  0  0  0  0  0  0  0
   -3.5647    2.0938    0.0000 C    0  0  0  0  0  0  0  0  0  0  0  0
  2  1  1  0  0  0  0
  3 12  1  0  0  0  0
  4  1  1  0  0  0  0
  5  2  1  0  0  0  0
  6 22  1  0  0  0  0
  7  6  3  0  0  0  0
  8  1  2  0  0  0  0
  9  1  2  0  0  0  0
 10  3  1  0  0  0  0
 11  3  2  0  0  0  0
 12  5  2  0  0  0  0
 13  4  1  0  0  0  0
 14  4  2  0  0  0  0
 15 10  2  0  0  0  0
 15 18  1  0  0  0  0
 16 11  1  0  0  0  0
 17 10  1  0  0  0  0
 18 16  2  0  0  0  0
 19 14  1  0  0  0  0
 20 13  2  0  0  0  0
 20 21  1  0  0  0  0
 21 19  2  0  0  0  0
 22 23  1  0  0  0  0
 23 16  1  0  0  0  0
 24 21  1  0  0  0  0
M  END
> <CdId>
707

> <Mol Weight>
407.282

> <Formula>
C17H15BrN2O3S

> <Click_ID>
CLK010_D02 __ __ 

$$$$
