CLK002_E05
 OpenBabel03181404502D

 36 39  0  0  0  0  0  0  0  0999 V2000
   -2.0005    1.5460    0.0000 C    0  0  0  0  0  0  0  0  0  0  0  0
   -1.2669    1.1738    0.0000 C    0  0  0  0  0  0  0  0  0  0  0  0
   -2.1257    2.3726    0.0000 N    0  0  0  0  0  0  0  0  0  0  0  0
   -2.7376    1.1774    0.0000 C    0  0  0  0  0  0  0  0  0  0  0  0
   -0.5762    1.6212    0.0000 C    0  0  0  0  0  0  0  0  0  0  0  0
   -1.2275    0.3471    0.0000 C    0  0  0  0  0  0  0  0  0  0  0  0
   -2.9417    2.4979    0.0000 C    0  0  0  0  0  0  0  0  0  0  0  0
   -3.3175    1.7643    0.0000 S    0  0  0  0  0  0  0  0  0  0  0  0
    0.1574    1.2347    0.0000 C    0  0  0  0  0  0  0  0  0  0  0  0
   -0.5046   -0.0358    0.0000 C    0  0  0  0  0  0  0  0  0  0  0  0
   -3.3138    3.2387    0.0000 N    0  0  0  0  0  0  0  0  0  0  0  0
    0.1897    0.4116    0.0000 C    0  0  0  0  0  0  0  0  0  0  0  0
   -4.1369    3.2852    0.0000 C    0  0  0  0  0  0  0  0  0  0  0  0
    0.9269    0.0358    0.0000 C    0  0  0  0  0  0  0  0  0  0  0  0
   -4.5878    2.5910    0.0000 C    0  0  0  0  0  0  0  0  0  0  0  0
   -4.5127    4.0224    0.0000 C    0  0  0  0  0  0  0  0  0  0  0  0
    0.9627   -0.7909    0.0000 N    0  0  0  0  0  0  0  0  0  0  0  0
    1.6212    0.4724    0.0000 O    0  0  0  0  0  0  0  0  0  0  0  0
   -5.4145    2.6339    0.0000 C    0  0  0  0  0  0  0  0  0  0  0  0
   -5.3393    4.0653    0.0000 C    0  0  0  0  0  0  0  0  0  0  0  0
    1.6891   -1.1774    0.0000 N    0  0  0  0  0  0  0  0  0  0  0  0
   -5.7867    3.3711    0.0000 C    0  0  0  0  0  0  0  0  0  0  0  0
    1.7249   -2.0005    0.0000 C    0  0  0  0  0  0  0  0  0  0  0  0
   -6.6133    3.4212    0.0000 Cl   0  0  0  0  0  0  0  0  0  0  0  0
    2.4586   -2.3798    0.0000 C    0  0  0  0  0  0  0  0  0  0  0  0
    3.1599   -1.9397    0.0000 C    0  0  0  0  0  0  0  0  0  0  0  0
    2.4979   -3.2029    0.0000 C    0  0  0  0  0  0  0  0  0  0  0  0
    3.8900   -2.3225    0.0000 C    0  0  0  0  0  0  0  0  0  0  0  0
    3.2279   -3.5787    0.0000 C    0  0  0  0  0  0  0  0  0  0  0  0
    3.9150   -3.1421    0.0000 C    0  0  0  0  0  0  0  0  0  0  0  0
    4.5770   -1.8895    0.0000 O    0  0  0  0  0  0  0  0  0  0  0  0
    4.6487   -3.5286    0.0000 O    0  0  0  0  0  0  0  0  0  0  0  0
    4.5485   -1.0736    0.0000 C    0  0  0  0  0  0  0  0  0  0  0  0
    4.6773   -4.3553    0.0000 C    0  0  0  0  0  0  0  0  0  0  0  0
    5.4001   -4.7417    0.0000 C    0  0  0  0  0  0  0  0  0  0  0  0
    6.1266   -5.1282    0.0000 C    0  0  0  0  0  0  0  0  0  0  0  0
  1  2  1  0  0  0  0
  1  3  1  0  0  0  0
  1  4  2  0  0  0  0
  2  5  1  0  0  0  0
  2  6  2  0  0  0  0
  3  7  2  0  0  0  0
  4  8  1  0  0  0  0
  5  9  2  0  0  0  0
  6 10  1  0  0  0  0
  7 11  1  0  0  0  0
  7  8  1  0  0  0  0
  9 12  1  0  0  0  0
 10 12  2  0  0  0  0
 11 13  1  0  0  0  0
 12 14  1  0  0  0  0
 13 15  1  0  0  0  0
 13 16  2  0  0  0  0
 14 17  1  0  0  0  0
 14 18  2  0  0  0  0
 15 19  2  0  0  0  0
 16 20  1  0  0  0  0
 17 21  1  0  0  0  0
 19 22  1  0  0  0  0
 20 22  2  0  0  0  0
 21 23  2  0  0  0  0
 22 24  1  0  0  0  0
 23 25  1  0  0  0  0
 25 26  2  0  0  0  0
 25 27  1  0  0  0  0
 26 28  1  0  0  0  0
 27 29  2  0  0  0  0
 28 30  2  0  0  0  0
 28 31  1  0  0  0  0
 29 30  1  0  0  0  0
 30 32  1  0  0  0  0
 31 33  1  0  0  0  0
 32 34  1  0  0  0  0
 34 35  1  0  0  0  0
 35 36  3  0  0  0  0
M  END
> <CdId>
124

> <Mol Weight>
516.999

> <Formula>
C27H21ClN4O3S

> <Click_ID>
CLK002_E05 __ __ 

$$$$
