CLK027_G02
 OpenBabel03181404502D

 32 36  0  0  0  0  0  0  0  0999 V2000
   -1.2851   -0.0928    0.0000 C   0  0  0  0  0  0  0  0  0  0  0  0
   -1.3504    0.7319    0.0000 C   0  0  0  0  0  0  0  0  0  0  0  0
   -2.1509    0.9174    0.0000 C   0  0  0  0  0  0  0  0  0  0  0  0
   -2.0445   -0.4055    0.0000 O   0  0  0  0  0  0  0  0  0  0  0  0
   -0.5738   -0.5154    0.0000 C   0  0  0  0  0  0  0  0  0  0  0  0
   -2.5839    0.2199    0.0000 C   0  0  0  0  0  0  0  0  0  0  0  0
    2.2953   -0.5910    0.0000 C   0  0  0  0  0  0  0  0  0  0  0  0
   -2.5461    1.6355    0.0000 C   0  0  0  0  0  0  0  0  0  0  0  0
    2.2713   -1.4157    0.0000 C   0  0  0  0  0  0  0  0  0  0  0  0
    3.7899    1.8452    0.0000 C   0  0  0  0  0  0  0  0  0  0  0  0
    3.7796    2.6698    0.0000 C   0  0  0  0  0  0  0  0  0  0  0  0
    0.8624   -0.5395    0.0000 N   0  0  0  0  0  0  0  0  0  0  0  0
    3.0203   -0.1924    0.0000 C   0  0  0  0  0  0  0  0  0  0  0  0
    0.1512   -0.1169    0.0000 N   0  0  0  0  0  0  0  0  0  0  0  0
    1.5943   -0.1546    0.0000 C   0  0  0  0  0  0  0  0  0  0  0  0
   -0.5910   -1.3401    0.0000 O   0  0  0  0  0  0  0  0  0  0  0  0
   -3.3982    0.2336    0.0000 C   0  0  0  0  0  0  0  0  0  0  0  0
    2.9791   -1.8520    0.0000 C   0  0  0  0  0  0  0  0  0  0  0  0
   -3.3708    1.6561    0.0000 C   0  0  0  0  0  0  0  0  0  0  0  0
    3.7315   -0.6288    0.0000 C   0  0  0  0  0  0  0  0  0  0  0  0
   -3.7934    0.9483    0.0000 C   0  0  0  0  0  0  0  0  0  0  0  0
    3.7075   -1.4603    0.0000 C   0  0  0  0  0  0  0  0  0  0  0  0
    3.0444    0.6323    0.0000 O   0  0  0  0  0  0  0  0  0  0  0  0
    3.7693    1.0240    0.0000 C   0  0  0  0  0  0  0  0  0  0  0  0
    1.5428   -1.8108    0.0000 C   0  0  0  0  0  0  0  0  0  0  0  0
   -2.1200    2.3331    0.0000 C   0  0  0  0  0  0  0  0  0  0  0  0
   -3.7590    2.3709    0.0000 C   0  0  0  0  0  0  0  0  0  0  0  0
    2.9550   -2.6767    0.0000 C   0  0  0  0  0  0  0  0  0  0  0  0
    1.5221   -2.6389    0.0000 C   0  0  0  0  0  0  0  0  0  0  0  0
   -2.5117    3.0581    0.0000 C   0  0  0  0  0  0  0  0  0  0  0  0
    2.2300   -3.0753    0.0000 C   0  0  0  0  0  0  0  0  0  0  0  0
   -3.3364    3.0787    0.0000 C   0  0  0  0  0  0  0  0  0  0  0  0
  2  1  2  0  0  0  0
  3  2  1  0  0  0  0
  4  1  1  0  0  0  0
  5  1  1  0  0  0  0
  6  4  1  0  0  0  0
  6  3  2  0  0  0  0
  7 15  1  0  0  0  0
  8  3  1  0  0  0  0
  9  7  2  0  0  0  0
 10 24  1  0  0  0  0
 11 10  3  0  0  0  0
 12 14  1  0  0  0  0
 13  7  1  0  0  0  0
 14  5  1  0  0  0  0
 15 12  2  0  0  0  0
 16  5  2  0  0  0  0
 17  6  1  0  0  0  0
 18  9  1  0  0  0  0
 18 22  2  0  0  0  0
 19  8  1  0  0  0  0
 19 21  1  0  0  0  0
 20 13  2  0  0  0  0
 21 17  2  0  0  0  0
 22 20  1  0  0  0  0
 23 13  1  0  0  0  0
 24 23  1  0  0  0  0
 25  9  1  0  0  0  0
 26  8  2  0  0  0  0
 27 19  2  0  0  0  0
 28 18  1  0  0  0  0
 29 25  2  0  0  0  0
 30 26  1  0  0  0  0
 31 29  1  0  0  0  0
 31 28  2  0  0  0  0
 32 30  2  0  0  0  0
 32 27  1  0  0  0  0
M  END
> <CdId>
2070

> <Mol Weight>
418.4434

> <Formula>
C27H18N2O3

> <Click_ID>
CLK027_G02 __ __ 

$$$$
