CLK004_F07
 OpenBabel03181404502D

 30 32  0  0  0  0  0  0  0  0999 V2000
    1.1416    0.0967    0.0000 N   0  0  0  0  0  0  0  0  0  0  0  0
    0.6656   -0.5765    0.0000 C   0  0  3  0  0  0  0  0  0  0  0  0
    0.7964    0.8457    0.0000 C   0  0  0  0  0  0  0  0  0  0  0  0
    1.9645    0.0208    0.0000 C   0  0  0  0  0  0  0  0  0  0  0  0
    1.0126   -1.3179    0.0000 C   0  0  0  0  0  0  0  0  0  0  0  0
   -0.1574   -0.5006    0.0000 C   0  0  0  0  0  0  0  0  0  0  0  0
   -0.0266    0.9216    0.0000 C   0  0  0  0  0  0  0  0  0  0  0  0
    1.2724    1.5189    0.0000 C   0  0  0  0  0  0  0  0  0  0  0  0
    2.4386    0.6940    0.0000 C   0  0  0  0  0  0  0  0  0  0  0  0
    2.3078   -0.7281    0.0000 O   0  0  0  0  0  0  0  0  0  0  0  0
    0.6106   -2.0385    0.0000 C   0  0  0  0  0  0  0  0  0  0  0  0
    1.8223   -1.4829    0.0000 S   0  0  0  0  0  0  0  0  0  0  0  0
   -0.6315   -1.1738    0.0000 N   0  0  0  0  0  0  0  0  0  0  0  0
   -0.5006    0.2484    0.0000 O   0  0  0  0  0  0  0  0  0  0  0  0
   -0.3698    1.6706    0.0000 C   0  0  0  0  0  0  0  0  0  0  0  0
    0.9273    2.2679    0.0000 C   0  0  0  0  0  0  0  0  0  0  0  0
    2.9164    1.3729    0.0000 C   0  0  0  0  0  0  0  0  0  0  0  0
    1.1700   -2.6490    0.0000 C   0  0  0  0  0  0  0  0  0  0  0  0
    1.9190   -2.3002    0.0000 C   0  0  0  0  0  0  0  0  0  0  0  0
   -1.4506   -1.0980    0.0000 C   0  0  0  0  0  0  0  0  0  0  0  0
    0.1043    2.3438    0.0000 C   0  0  0  0  0  0  0  0  0  0  0  0
   -1.1946    1.7465    0.0000 C   0  0  0  0  0  0  0  0  0  0  0  0
   -1.9304   -1.7711    0.0000 C   0  0  0  0  0  0  0  0  0  0  0  0
   -1.7995   -0.3508    0.0000 C   0  0  0  0  0  0  0  0  0  0  0  0
   -2.0157    1.6782    0.0000 F   0  0  0  0  0  0  0  0  0  0  0  0
   -1.1946    0.9216    0.0000 F   0  0  0  0  0  0  0  0  0  0  0  0
   -1.3330    2.5580    0.0000 F   0  0  0  0  0  0  0  0  0  0  0  0
   -2.7477   -1.6953    0.0000 C   0  0  0  0  0  0  0  0  0  0  0  0
   -2.6244   -0.2768    0.0000 C   0  0  0  0  0  0  0  0  0  0  0  0
   -3.0947   -0.9462    0.0000 C   0  0  0  0  0  0  0  0  0  0  0  0
  1  2  1  0  0  0  0
  1  3  1  0  0  0  0
  1  4  1  0  0  0  0
  2  5  1  0  0  0  0
  2  6  1  0  0  0  0
  3  7  1  0  0  0  0
  3  8  2  0  0  0  0
  4  9  1  0  0  0  0
  4 10  2  0  0  0  0
  5 11  2  0  0  0  0
  5 12  1  0  0  0  0
  6 13  1  0  0  0  0
  6 14  2  0  0  0  0
  7 15  2  0  0  0  0
  8 16  1  0  0  0  0
  9 17  3  0  0  0  0
 11 18  1  0  0  0  0
 12 19  1  0  0  0  0
 13 20  1  0  0  0  0
 15 21  1  0  0  0  0
 15 22  1  0  0  0  0
 16 21  2  0  0  0  0
 18 19  2  0  0  0  0
 20 23  1  0  0  0  0
 20 24  1  0  0  0  0
 22 25  1  0  0  0  0
 22 26  1  0  0  0  0
 22 27  1  0  0  0  0
 23 28  1  0  0  0  0
 24 29  1  0  0  0  0
 28 30  1  0  0  0  0
 29 30  1  0  0  0  0
M  END
> <CdId>
296

> <Mol Weight>
434.475

> <Formula>
C22H21F3N2O2S

> <Click_ID>
CLK004_F07 __ __ 

$$$$
