CLK022_C07
 OpenBabel03181404502D

 21 22  0  0  0  0  0  0  0  0999 V2000
    1.7911    2.5286    0.0000 C   0  0  0  0  0  0  0  0  0  0  0  0
    2.5057    2.1163    0.0000 N   0  0  0  0  0  0  0  0  0  0  0  0
    4.6495    0.8795    0.0000 C   0  0  0  0  0  0  0  0  0  0  0  0
   -2.4965    0.8795    0.0000 C   0  0  0  0  0  0  0  0  0  0  0  0
   -3.2111    0.4672    0.0000 C   0  0  0  0  0  0  0  0  0  0  0  0
    1.0765    2.1163    0.0000 C   0  0  0  0  0  0  0  0  0  0  0  0
    3.9349    1.2918    0.0000 C   0  0  0  0  0  0  0  0  0  0  0  0
    3.2203    2.5286    0.0000 C   0  0  0  0  0  0  0  0  0  0  0  0
    2.5057    1.2918    0.0000 C   0  0  0  0  0  0  0  0  0  0  0  0
    1.7911    3.3531    0.0000 O   0  0  0  0  0  0  0  0  0  0  0  0
    4.6495    0.0550    0.0000 O   0  0  0  0  0  0  0  0  0  0  0  0
    3.9349    2.1163    0.0000 C   0  0  0  0  0  0  0  0  0  0  0  0
    3.2203    0.8795    0.0000 C   0  0  0  0  0  0  0  0  0  0  0  0
    0.3619    2.5286    0.0000 C   0  0  0  0  0  0  0  0  0  0  0  0
    1.0765    1.2918    0.0000 C   0  0  0  0  0  0  0  0  0  0  0  0
    5.3641    1.2918    0.0000 N   0  0  0  0  0  0  0  0  0  0  0  0
   -0.3527    1.2918    0.0000 C   0  0  0  0  0  0  0  0  0  0  0  0
    0.3619    0.8795    0.0000 C   0  0  0  0  0  0  0  0  0  0  0  0
   -0.3527    2.1163    0.0000 C   0  0  0  0  0  0  0  0  0  0  0  0
   -1.7819    1.2918    0.0000 C   0  0  0  0  0  0  0  0  0  0  0  0
   -1.0673    0.8795    0.0000 O   0  0  0  0  0  0  0  0  0  0  0  0
  2  1  1  0  0  0  0
  3  7  1  0  0  0  0
  4 20  1  0  0  0  0
  5  4  3  0  0  0  0
  6  1  1  0  0  0  0
  7 13  1  0  0  0  0
  8  2  1  0  0  0  0
  9  2  1  0  0  0  0
 10  1  2  0  0  0  0
 11  3  2  0  0  0  0
 12  8  1  0  0  0  0
 12  7  1  0  0  0  0
 13  9  1  0  0  0  0
 14  6  1  0  0  0  0
 15  6  2  0  0  0  0
 16  3  1  0  0  0  0
 17 18  2  0  0  0  0
 18 15  1  0  0  0  0
 19 14  2  0  0  0  0
 19 17  1  0  0  0  0
 20 21  1  0  0  0  0
 21 17  1  0  0  0  0
M  END
> <CdId>
1658

> <Mol Weight>
286.3257

> <Formula>
C16H18N2O3

> <Click_ID>
CLK022_C07 __ __ 

$$$$
