CLK040F05
 OpenBabel03181404502D

 20 21  0  0  0  0  0  0  0  0999 V2000
   -0.2875   -0.5750    0.0000 C   0  0  0  0  0  0  0  0  0  0  0  0
   -1.0042    0.6625    0.0000 N   0  0  0  0  0  0  0  0  0  0  0  0
   -0.2875    3.5500    0.0000 C   0  0  0  0  0  0  0  0  0  0  0  0
   -1.0042    2.3125    0.0000 N   0  0  0  0  0  0  0  0  0  0  0  0
    0.4250    3.9625    0.0000 C   0  0  0  0  0  0  0  0  0  0  0  0
   -0.2875   -1.4000    0.0000 N   0  0  0  0  0  0  0  0  0  0  0  0
   -1.0042   -0.1625    0.0000 C   0  0  0  0  0  0  0  0  0  0  0  0
    0.4250   -1.8125    0.0000 C   0  0  0  0  0  0  0  0  0  0  0  0
    0.4250   -0.1625    0.0000 O   0  0  0  0  0  0  0  0  0  0  0  0
    0.4250   -2.6375    0.0000 C   0  0  0  0  0  0  0  0  0  0  0  0
   -1.7167    1.0750    0.0000 C   0  0  0  0  0  0  0  0  0  0  0  0
   -0.2875    1.0750    0.0000 C   0  0  0  0  0  0  0  0  0  0  0  0
   -0.2875    1.9000    0.0000 C   0  0  0  0  0  0  0  0  0  0  0  0
   -1.7167    1.9000    0.0000 C   0  0  0  0  0  0  0  0  0  0  0  0
   -1.0042    3.1375    0.0000 C   0  0  0  0  0  0  0  0  0  0  0  0
    1.1417   -3.0500    0.0000 C   0  0  0  0  0  0  0  0  0  0  0  0
    1.1417   -3.8750    0.0000 F   0  0  0  0  0  0  0  0  0  0  0  0
    1.8542   -1.8125    0.0000 C   0  0  0  0  0  0  0  0  0  0  0  0
    1.1417   -1.4000    0.0000 C   0  0  0  0  0  0  0  0  0  0  0  0
    1.8542   -2.6375    0.0000 C   0  0  0  0  0  0  0  0  0  0  0  0
  2  7  1  0  0  0  0
  3 15  1  0  0  0  0
  4 14  1  0  0  0  0
  4 13  1  0  0  0  0
  5  3  3  0  0  0  0
  6  1  1  0  0  0  0
  7  1  1  0  0  0  0
  8  6  1  0  0  0  0
  9  1  2  0  0  0  0
 10  8  1  0  0  0  0
 11  2  1  0  0  0  0
 12  2  1  0  0  0  0
 13 12  1  0  0  0  0
 14 11  1  0  0  0  0
 15  4  1  0  0  0  0
 16 10  2  0  0  0  0
 17 16  1  0  0  0  0
 18 19  1  0  0  0  0
 18 20  2  0  0  0  0
 19  8  2  0  0  0  0
 20 16  1  0  0  0  0
M  END
> <CdId>
3038

> <Mol Weight>
275.3213

> <Formula>
C15H18FN3O

> <Click_ID>
CLK040F05 __ __ 

$$$$
