CLK037H05
 OpenBabel03181404502D

 18 18  0  0  0  0  0  0  0  0999 V2000
   -0.2792   -0.0667    0.0000 C   0  0  0  0  0  0  0  0  0  0  0  0
   -0.2792    0.7583    0.0000 C   0  0  0  0  0  0  0  0  0  0  0  0
    0.4333   -0.4792    0.0000 N   0  0  0  0  0  0  0  0  0  0  0  0
    0.4333   -2.1292    0.0000 C   0  0  0  0  0  0  0  0  0  0  0  0
    0.4333   -2.9542    0.0000 C   0  0  0  0  0  0  0  0  0  0  0  0
    0.4333   -1.3042    0.0000 C   0  0  0  0  0  0  0  0  0  0  0  0
   -0.9958   -0.4792    0.0000 O   0  0  0  0  0  0  0  0  0  0  0  0
   -0.9958    1.1708    0.0000 C   0  0  0  0  0  0  0  0  0  0  0  0
    0.4333    1.1708    0.0000 C   0  0  0  0  0  0  0  0  0  0  0  0
   -0.9958    1.9958    0.0000 C   0  0  0  0  0  0  0  0  0  0  0  0
    0.4333    1.9958    0.0000 C   0  0  0  0  0  0  0  0  0  0  0  0
   -0.2792    2.4083    0.0000 C   0  0  0  0  0  0  0  0  0  0  0  0
   -0.3917   -1.3042    0.0000 C   0  0  0  0  0  0  0  0  0  0  0  0
    1.2583   -1.3042    0.0000 C   0  0  0  0  0  0  0  0  0  0  0  0
   -1.7083    0.7583    0.0000 C   0  0  0  0  0  0  0  0  0  0  0  0
    1.1500    2.4083    0.0000 C   0  0  0  0  0  0  0  0  0  0  0  0
   -0.8042   -0.5917    0.0000 C   0  0  0  0  0  0  0  0  0  0  0  0
    1.6708   -2.0167    0.0000 C   0  0  0  0  0  0  0  0  0  0  0  0
  2  1  1  0  0  0  0
  3  1  1  0  0  0  0
  4  6  1  0  0  0  0
  5  4  3  0  0  0  0
  6  3  1  0  0  0  0
  7  1  2  0  0  0  0
  8  2  2  0  0  0  0
  9  2  1  0  0  0  0
 10  8  1  0  0  0  0
 11  9  2  0  0  0  0
 12 10  2  0  0  0  0
 12 11  1  0  0  0  0
 13  6  1  0  0  0  0
 14  6  1  0  0  0  0
 15  8  1  0  0  0  0
 16 11  1  0  0  0  0
 17 13  1  0  0  0  0
 18 14  1  0  0  0  0
M  END
> <CdId>
2800

> <Mol Weight>
243.344

> <Formula>
C16H21NO

> <Click_ID>
CLK037H05 __ __ 

$$$$
