CLK039F04
 OpenBabel03181404502D

 15 15  0  0  0  0  0  0  0  0999 V2000
   -0.1917   -0.2750    0.0000 S    0  0  0  0  0  0  0  0  0  0  0  0
    0.5208    0.1375    0.0000 C    0  0  0  0  0  0  0  0  0  0  0  0
   -2.3375   -0.6875    0.0000 C    0  0  0  0  0  0  0  0  0  0  0  0
   -3.0500   -1.1000    0.0000 C    0  0  0  0  0  0  0  0  0  0  0  0
    0.2208   -0.9875    0.0000 O    0  0  0  0  0  0  0  0  0  0  0  0
   -0.6042    0.4417    0.0000 O    0  0  0  0  0  0  0  0  0  0  0  0
   -0.9083   -0.6875    0.0000 N    0  0  0  0  0  0  0  0  0  0  0  0
    0.5208    0.9625    0.0000 C    0  0  0  0  0  0  0  0  0  0  0  0
    1.2375   -0.2750    0.0000 C    0  0  0  0  0  0  0  0  0  0  0  0
   -0.1917    1.3750    0.0000 Cl   0  0  0  0  0  0  0  0  0  0  0  0
    1.2375   -1.1000    0.0000 Cl   0  0  0  0  0  0  0  0  0  0  0  0
   -1.6208   -0.2750    0.0000 C    0  0  0  0  0  0  0  0  0  0  0  0
    1.9500    0.9625    0.0000 C    0  0  0  0  0  0  0  0  0  0  0  0
    1.9500    0.1375    0.0000 C    0  0  0  0  0  0  0  0  0  0  0  0
    1.2375    1.3750    0.0000 C    0  0  0  0  0  0  0  0  0  0  0  0
  2  1  1  0  0  0  0
  3 12  1  0  0  0  0
  4  3  3  0  0  0  0
  5  1  2  0  0  0  0
  6  1  2  0  0  0  0
  7  1  1  0  0  0  0
  8  2  1  0  0  0  0
  9  2  2  0  0  0  0
 10  8  1  0  0  0  0
 11  9  1  0  0  0  0
 12  7  1  0  0  0  0
 13 14  2  0  0  0  0
 14  9  1  0  0  0  0
 15  8  2  0  0  0  0
 15 13  1  0  0  0  0
M  END
> <CdId>
2950

> <Mol Weight>
264.128

> <Formula>
C9H7Cl2NO2S

> <Click_ID>
CLK039F04 __ __ 

$$$$
