CLK020_E11
 OpenBabel03181404502D

 23 24  0  0  0  0  0  0  0  0999 V2000
    7.9293   -6.8346    0.0000 C   0  0  0  0  0  0  0  0  0  0  0  0
    9.1708   -7.5492    0.0000 N   0  0  0  0  0  0  0  0  0  0  0  0
    8.7539   -6.8346    0.0000 C   0  0  0  0  0  0  0  0  0  0  0  0
    7.5171   -6.1154    0.0000 N   0  3  0  0  0  0  0  0  0  0  0  0
    7.5080   -7.5492    0.0000 C   0  0  0  0  0  0  0  0  0  0  0  0
    8.7539   -8.2638    0.0000 C   0  0  0  0  0  0  0  0  0  0  0  0
    7.9293   -8.2638    0.0000 N   0  0  0  0  0  0  0  0  0  0  0  0
    6.6834   -7.5492    0.0000 C   0  0  0  0  0  0  0  0  0  0  0  0
    2.5607   -8.9738    0.0000 C   0  0  0  0  0  0  0  0  0  0  0  0
    2.1484   -9.6884    0.0000 C   0  0  0  0  0  0  0  0  0  0  0  0
    7.9293   -5.4008    0.0000 O   0  5  0  0  0  0  0  0  0  0  0  0
    6.2711   -6.8346    0.0000 C   0  0  0  0  0  0  0  0  0  0  0  0
    6.6925   -6.1154    0.0000 O   0  0  0  0  0  0  0  0  0  0  0  0
    9.1570   -6.1154    0.0000 O   0  0  0  0  0  0  0  0  0  0  0  0
    9.1570   -8.9784    0.0000 O   0  0  0  0  0  0  0  0  0  0  0  0
    5.4466   -6.8346    0.0000 C   0  0  0  0  0  0  0  0  0  0  0  0
    5.0343   -7.5492    0.0000 C   0  0  0  0  0  0  0  0  0  0  0  0
    4.2098   -7.5492    0.0000 C   0  0  0  0  0  0  0  0  0  0  0  0
    2.9730   -8.2638    0.0000 C   0  0  0  0  0  0  0  0  0  0  0  0
    3.7975   -8.2638    0.0000 O   0  0  0  0  0  0  0  0  0  0  0  0
    4.2098   -6.1200    0.0000 C   0  0  0  0  0  0  0  0  0  0  0  0
    5.0343   -6.1200    0.0000 C   0  0  0  0  0  0  0  0  0  0  0  0
    3.7975   -6.8346    0.0000 C   0  0  0  0  0  0  0  0  0  0  0  0
  2  3  1  0  0  0  0
  3  1  2  0  0  0  0
  4  1  1  0  0  0  0
  5  1  1  0  0  0  0
  6  7  1  0  0  0  0
  6  2  2  0  0  0  0
  7  5  2  0  0  0  0
  8  5  1  0  0  0  0
  9 19  1  0  0  0  0
 10  9  3  0  0  0  0
 11  4  1  0  0  0  0
 12  8  2  0  0  0  0
 13  4  2  0  0  0  0
 14  3  1  0  0  0  0
 15  6  1  0  0  0  0
 16 12  1  0  0  0  0
 17 16  2  0  0  0  0
 18 17  1  0  0  0  0
 19 20  1  0  0  0  0
 20 18  1  0  0  0  0
 21 22  2  0  0  0  0
 22 16  1  0  0  0  0
 23 21  1  0  0  0  0
 23 18  2  0  0  0  0
M  END
> <CdId>
1526

> <Mol Weight>
313.2649

> <Formula>
C15H11N3O5

> <Click_ID>
CLK020_E11 __ __ 

$$$$
