CLK014_G11
 OpenBabel03181404502D

 22 23  0  0  0  0  0  0  0  0999 V2000
    1.5650   -0.8158    0.0000 N   0  0  0  0  0  0  0  0  0  0  0  0
    1.8230   -1.6024    0.0000 C   0  0  0  0  0  0  0  0  0  0  0  0
    2.2350   -0.3288    0.0000 C   0  0  0  0  0  0  0  0  0  0  0  0
    2.9010   -0.8158    0.0000 C   0  0  0  0  0  0  0  0  0  0  0  0
    2.6470   -1.6024    0.0000 S   0  0  0  0  0  0  0  0  0  0  0  0
    3.6876   -0.5619    0.0000 C   0  0  0  0  0  0  0  0  0  0  0  0
    0.6118    0.2455    0.0000 C   0  0  0  0  0  0  0  0  0  0  0  0
    0.3913    1.0446    0.0000 C   0  0  0  0  0  0  0  0  0  0  0  0
    1.3360   -2.2642    0.0000 O   0  0  0  0  0  0  0  0  0  0  0  0
    2.2267    0.4952    0.0000 O   0  0  0  0  0  0  0  0  0  0  0  0
    2.9842    2.9550    0.0000 C   0  0  0  0  0  0  0  0  0  0  0  0
    0.7866   -0.5619    0.0000 C   0  0  0  0  0  0  0  0  0  0  0  0
    2.8094    2.1476    0.0000 O   0  0  0  0  0  0  0  0  0  0  0  0
    3.8582    0.2455    0.0000 C   0  0  0  0  0  0  0  0  0  0  0  0
    4.3743    2.6553    0.0000 O   0  0  0  0  0  0  0  0  0  0  0  0
    3.7625    3.2089    0.0000 C   0  0  0  0  0  0  0  0  0  0  0  0
    2.3641    3.5044    0.0000 N   0  0  0  0  0  0  0  0  0  0  0  0
    4.1995    1.8562    0.0000 C   0  0  0  0  0  0  0  0  0  0  0  0
    3.2464    0.7949    0.0000 C   0  0  0  0  0  0  0  0  0  0  0  0
    4.6365    0.4952    0.0000 C   0  0  0  0  0  0  0  0  0  0  0  0
    3.4212    1.5940    0.0000 C   0  0  0  0  0  0  0  0  0  0  0  0
    4.8113    1.2986    0.0000 C   0  0  0  0  0  0  0  0  0  0  0  0
  2  1  1  0  0  0  0
  3  1  1  0  0  0  0
  4  3  1  0  0  0  0
  4  5  1  0  0  0  0
  5  2  1  0  0  0  0
  6  4  2  0  0  0  0
  7 12  1  0  0  0  0
  8  7  3  0  0  0  0
  9  2  2  0  0  0  0
 10  3  2  0  0  0  0
 11 16  1  0  0  0  0
 12  1  1  0  0  0  0
 13 11  2  0  0  0  0
 14  6  1  0  0  0  0
 15 18  1  0  0  0  0
 16 15  1  0  0  0  0
 17 11  1  0  0  0  0
 18 22  2  0  0  0  0
 18 21  1  0  0  0  0
 19 14  1  0  0  0  0
 20 14  2  0  0  0  0
 21 19  2  0  0  0  0
 22 20  1  0  0  0  0
M  END
> <CdId>
1066

> <Mol Weight>
316.332

> <Formula>
C15H12N2O4S

> <Click_ID>
CLK014_G11 __ __ 

$$$$
