CLK026_G02
 OpenBabel03181404502D

 28 30  0  0  0  0  0  0  0  0999 V2000
    2.2782   -0.2254    0.0000 C    0  0  0  0  0  0  0  0  0  0  0  0
    2.9825    0.1937    0.0000 C    0  0  0  0  0  0  0  0  0  0  0  0
    1.5564    0.1796    0.0000 C    0  0  0  0  0  0  0  0  0  0  0  0
    2.9965   -2.2747    0.0000 C    0  0  0  0  0  0  0  0  0  0  0  0
    3.7114   -2.6867    0.0000 C    0  0  0  0  0  0  0  0  0  0  0  0
    2.9825    1.0176    0.0000 C    0  0  0  0  0  0  0  0  0  0  0  0
    1.5564    1.0035    0.0000 C    0  0  0  0  0  0  0  0  0  0  0  0
    2.2712    1.4155    0.0000 C    0  0  0  0  0  0  0  0  0  0  0  0
    1.4895    2.6902    0.0000 N    0  0  0  0  0  0  0  0  0  0  0  0
   -1.5845    0.9085    0.0000 O    0  0  0  0  0  0  0  0  0  0  0  0
    3.7043   -0.2183    0.0000 Cl   0  0  0  0  0  0  0  0  0  0  0  0
    0.7078    2.2219    0.0000 C    0  0  0  0  0  0  0  0  0  0  0  0
    2.2712    2.2359    0.0000 C    0  0  0  0  0  0  0  0  0  0  0  0
    2.2853   -1.0493    0.0000 O    0  0  0  0  0  0  0  0  0  0  0  0
   -0.8698    1.3169    0.0000 C    0  0  0  0  0  0  0  0  0  0  0  0
    0.8521   -0.2324    0.0000 O    0  0  0  0  0  0  0  0  0  0  0  0
   -2.2887    1.3240    0.0000 C    0  0  0  0  0  0  0  0  0  0  0  0
    0.7078    1.3169    0.0000 C    0  0  0  0  0  0  0  0  0  0  0  0
   -0.0881    2.6761    0.0000 C    0  0  0  0  0  0  0  0  0  0  0  0
   -0.0881    0.8662    0.0000 C    0  0  0  0  0  0  0  0  0  0  0  0
   -0.8698    2.2219    0.0000 C    0  0  0  0  0  0  0  0  0  0  0  0
    2.9965   -1.4508    0.0000 C    0  0  0  0  0  0  0  0  0  0  0  0
    0.1409    0.1726    0.0000 C    0  0  0  0  0  0  0  0  0  0  0  0
   -2.2887    2.1444    0.0000 C    0  0  0  0  0  0  0  0  0  0  0  0
   -3.0000    0.9120    0.0000 C    0  0  0  0  0  0  0  0  0  0  0  0
   -3.0000    2.5564    0.0000 C    0  0  0  0  0  0  0  0  0  0  0  0
   -3.7148    1.3240    0.0000 C    0  0  0  0  0  0  0  0  0  0  0  0
   -3.7148    2.1444    0.0000 C    0  0  0  0  0  0  0  0  0  0  0  0
  2  1  2  0  0  0  0
  3  1  1  0  0  0  0
  4 22  1  0  0  0  0
  5  4  3  0  0  0  0
  6  2  1  0  0  0  0
  6  8  2  0  0  0  0
  7  3  2  0  0  0  0
  8  7  1  0  0  0  0
  9 13  1  0  0  0  0
 10 15  1  0  0  0  0
 11  2  1  0  0  0  0
 12  9  1  0  0  0  0
 13  8  1  0  0  0  0
 14  1  1  0  0  0  0
 15 21  2  0  0  0  0
 15 20  1  0  0  0  0
 16  3  1  0  0  0  0
 17 10  1  0  0  0  0
 18 12  1  0  0  0  0
 19 12  2  0  0  0  0
 20 18  2  0  0  0  0
 21 19  1  0  0  0  0
 22 14  1  0  0  0  0
 23 16  1  0  0  0  0
 24 17  2  0  0  0  0
 25 17  1  0  0  0  0
 26 24  1  0  0  0  0
 27 25  2  0  0  0  0
 28 27  1  0  0  0  0
 28 26  2  0  0  0  0
M  END
> <CdId>
1997

> <Mol Weight>
393.863

> <Formula>
C23H20ClNO3

> <Click_ID>
CLK026_G02 __ __ 

$$$$
