CLK024_H11
 OpenBabel03181404502D

 25 27  0  0  0  0  0  0  0  0999 V2000
   -0.5972   -1.9083    0.0000 N    0  0  0  0  0  0  0  0  0  0  0  0
   -0.3398   -2.7011    0.0000 C    0  0  0  0  0  0  0  0  0  0  0  0
    0.0755   -1.4209    0.0000 C    0  0  0  0  0  0  0  0  0  0  0  0
    0.7448   -1.9083    0.0000 C    0  0  0  0  0  0  0  0  0  0  0  0
    0.4805   -2.7011    0.0000 N    0  0  0  0  0  0  0  0  0  0  0  0
   -1.3797   -1.6543    0.0000 C    0  0  0  0  0  0  0  0  0  0  0  0
    1.5342   -1.6543    0.0000 C    0  0  0  0  0  0  0  0  0  0  0  0
   -1.9907   -2.2103    0.0000 C    0  0  0  0  0  0  0  0  0  0  0  0
    3.2022    2.5810    0.0000 C    0  0  0  0  0  0  0  0  0  0  0  0
    3.3910    3.3635    0.0000 C    0  0  0  0  0  0  0  0  0  0  0  0
   -0.8272   -3.3635    0.0000 O    0  0  0  0  0  0  0  0  0  0  0  0
    0.0686   -0.5937    0.0000 O    0  0  0  0  0  0  0  0  0  0  0  0
    1.7058   -0.8546    0.0000 C    0  0  0  0  0  0  0  0  0  0  0  0
   -2.7801   -1.9598    0.0000 C    0  0  0  0  0  0  0  0  0  0  0  0
    2.0593    0.7516    0.0000 C    0  0  0  0  0  0  0  0  0  0  0  0
   -1.5513   -0.8443    0.0000 C    0  0  0  0  0  0  0  0  0  0  0  0
   -3.3944   -2.5123    0.0000 Cl   0  0  0  0  0  0  0  0  0  0  0  0
    2.4746   -0.6040    0.0000 C    0  0  0  0  0  0  0  0  0  0  0  0
    1.0949   -0.2986    0.0000 C    0  0  0  0  0  0  0  0  0  0  0  0
    1.2802    0.4977    0.0000 C    0  0  0  0  0  0  0  0  0  0  0  0
    2.6633    0.1991    0.0000 C    0  0  0  0  0  0  0  0  0  0  0  0
    3.0237    1.7916    0.0000 C    0  0  0  0  0  0  0  0  0  0  0  0
    2.2378    1.5410    0.0000 O    0  0  0  0  0  0  0  0  0  0  0  0
   -2.3408   -0.5937    0.0000 C    0  0  0  0  0  0  0  0  0  0  0  0
   -2.9551   -1.1429    0.0000 C    0  0  0  0  0  0  0  0  0  0  0  0
  2  1  1  0  0  0  0
  3  1  1  0  0  0  0
  4  3  1  0  0  0  0
  4  5  1  0  0  0  0
  5  2  1  0  0  0  0
  6  1  1  0  0  0  0
  7  4  2  0  0  0  0
  8  6  1  0  0  0  0
  9 22  1  0  0  0  0
 10  9  3  0  0  0  0
 11  2  2  0  0  0  0
 12  3  2  0  0  0  0
 13  7  1  0  0  0  0
 14  8  2  0  0  0  0
 15 20  2  0  0  0  0
 15 21  1  0  0  0  0
 16  6  2  0  0  0  0
 17 14  1  0  0  0  0
 18 13  1  0  0  0  0
 19 13  2  0  0  0  0
 20 19  1  0  0  0  0
 21 18  2  0  0  0  0
 22 23  1  0  0  0  0
 23 15  1  0  0  0  0
 24 16  1  0  0  0  0
 25 24  2  0  0  0  0
 25 14  1  0  0  0  0
M  END
> <CdId>
1856

> <Mol Weight>
352.771

> <Formula>
C19H13ClN2O3

> <Click_ID>
CLK024_H11 __ __ 

$$$$
