CLK017_B11
 OpenBabel03181404502D

 29 31  0  0  0  0  0  0  0  0999 V2000
    5.4234   -2.8012    0.0000 N    0  0  0  0  0  0  0  0  0  0  0  0
    5.0114   -3.5130    0.0000 C    0  0  0  0  0  0  0  0  0  0  0  0
    4.8698   -2.1894    0.0000 C    0  0  0  0  0  0  0  0  0  0  0  0
    4.1123   -2.5223    0.0000 C    0  0  0  0  0  0  0  0  0  0  0  0
    4.1997   -3.3381    0.0000 S    0  0  0  0  0  0  0  0  0  0  0  0
    6.2433   -2.7138    0.0000 C    0  0  0  0  0  0  0  0  0  0  0  0
    3.4006   -2.1102    0.0000 C    0  0  0  0  0  0  0  0  0  0  0  0
    1.2362   -3.3589    0.0000 C    0  0  0  0  0  0  0  0  0  0  0  0
    1.2404   -2.5140    0.0000 C    0  0  0  0  0  0  0  0  0  0  0  0
    1.9646   -3.7627    0.0000 C    0  0  0  0  0  0  0  0  0  0  0  0
    2.6763   -2.5265    0.0000 C    0  0  0  0  0  0  0  0  0  0  0  0
   -0.1956   -5.0196    0.0000 C    0  0  0  0  0  0  0  0  0  0  0  0
   -0.9073   -5.4317    0.0000 C    0  0  0  0  0  0  0  0  0  0  0  0
    5.3443   -4.2622    0.0000 O    0  0  0  0  0  0  0  0  0  0  0  0
    5.0363   -1.3777    0.0000 O    0  0  0  0  0  0  0  0  0  0  0  0
    1.9604   -2.1020    0.0000 C    0  0  0  0  0  0  0  0  0  0  0  0
    2.6763   -3.3506    0.0000 C    0  0  0  0  0  0  0  0  0  0  0  0
    6.5722   -1.9604    0.0000 C    0  0  0  0  0  0  0  0  0  0  0  0
    0.5286   -2.1102    0.0000 Cl   0  0  0  0  0  0  0  0  0  0  0  0
    0.5161   -3.7752    0.0000 O    0  0  0  0  0  0  0  0  0  0  0  0
    1.9604   -4.5868    0.0000 O    0  0  0  0  0  0  0  0  0  0  0  0
    6.0852   -1.2986    0.0000 O    0  0  0  0  0  0  0  0  0  0  0  0
    0.5161   -4.5993    0.0000 C    0  0  0  0  0  0  0  0  0  0  0  0
    6.7220   -3.3839    0.0000 C    0  0  0  0  0  0  0  0  0  0  0  0
    7.3921   -1.8772    0.0000 C    0  0  0  0  0  0  0  0  0  0  0  0
    2.6763   -5.0072    0.0000 C    0  0  0  0  0  0  0  0  0  0  0  0
    6.4224   -0.5411    0.0000 C    0  0  0  0  0  0  0  0  0  0  0  0
    7.5337   -3.2965    0.0000 C    0  0  0  0  0  0  0  0  0  0  0  0
    7.8791   -2.5473    0.0000 C    0  0  0  0  0  0  0  0  0  0  0  0
  2  1  1  0  0  0  0
  3  1  1  0  0  0  0
  4  3  1  0  0  0  0
  4  5  1  0  0  0  0
  5  2  1  0  0  0  0
  6  1  1  0  0  0  0
  7  4  2  0  0  0  0
  8 10  1  0  0  0  0
  9 16  1  0  0  0  0
  9  8  2  0  0  0  0
 10 17  2  0  0  0  0
 11  7  1  0  0  0  0
 12 23  1  0  0  0  0
 13 12  3  0  0  0  0
 14  2  2  0  0  0  0
 15  3  2  0  0  0  0
 16 11  2  0  0  0  0
 17 11  1  0  0  0  0
 18  6  1  0  0  0  0
 19  9  1  0  0  0  0
 20  8  1  0  0  0  0
 21 10  1  0  0  0  0
 22 18  1  0  0  0  0
 23 20  1  0  0  0  0
 24  6  2  0  0  0  0
 25 18  2  0  0  0  0
 25 29  1  0  0  0  0
 26 21  1  0  0  0  0
 27 22  1  0  0  0  0
 28 24  1  0  0  0  0
 29 28  2  0  0  0  0
M  END
> <CdId>
1256

> <Mol Weight>
429.873

> <Formula>
C21H16ClNO5S

> <Click_ID>
CLK017_B11 __ __ 

$$$$
