CLK031_H09
 OpenBabel03181404502D

 27 29  0  0  0  0  0  0  0  0999 V2000
   -1.1649    2.3882    0.0000 C   0  0  0  0  0  0  0  0  0  0  0  0
    1.3194    3.8162    0.0000 N   0  0  0  0  0  0  0  0  0  0  0  0
   -4.5928    3.2192    0.0000 S   0  0  0  0  0  0  0  0  0  0  0  0
   -1.6492    1.7244    0.0000 N   0  0  0  0  0  0  0  0  0  0  0  0
   -0.3382    2.3799    0.0000 N   0  0  0  0  0  0  0  0  0  0  0  0
   -1.6492    3.0563    0.0000 S   0  0  0  0  0  0  0  0  0  0  0  0
   -2.4383    2.8016    0.0000 C   0  0  0  0  0  0  0  0  0  0  0  0
   -2.4383    1.9749    0.0000 C   0  0  0  0  0  0  0  0  0  0  0  0
    2.1336    3.8913    0.0000 C   0  0  0  0  0  0  0  0  0  0  0  0
    0.9812    4.5511    0.0000 C   0  0  0  0  0  0  0  0  0  0  0  0
    0.0752    3.0939    0.0000 C   0  0  0  0  0  0  0  0  0  0  0  0
   -3.8663    2.8016    0.0000 C   0  0  0  0  0  0  0  0  0  0  0  0
   -3.1523    3.2149    0.0000 C   0  0  0  0  0  0  0  0  0  0  0  0
    0.9019    3.0939    0.0000 C   0  0  0  0  0  0  0  0  0  0  0  0
   -1.9498    0.3215    0.0000 C   0  0  0  0  0  0  0  0  0  0  0  0
   -3.1523    1.5615    0.0000 C   0  0  0  0  0  0  0  0  0  0  0  0
   -2.5010   -0.2923    0.0000 C   0  0  0  0  0  0  0  0  0  0  0  0
   -4.1544    3.9164    0.0000 O   0  0  0  0  0  0  0  0  0  0  0  0
   -5.0312    2.5135    0.0000 O   0  0  0  0  0  0  0  0  0  0  0  0
   -5.2942    3.6534    0.0000 N   0  0  0  0  0  0  0  0  0  0  0  0
   -3.8663    1.9749    0.0000 C   0  0  0  0  0  0  0  0  0  0  0  0
    1.5950    5.1023    0.0000 C   0  0  0  0  0  0  0  0  0  0  0  0
    2.3173    4.7014    0.0000 C   0  0  0  0  0  0  0  0  0  0  0  0
    0.1796    4.7390    0.0000 O   0  0  0  0  0  0  0  0  0  0  0  0
    2.6931    3.2776    0.0000 O   0  0  0  0  0  0  0  0  0  0  0  0
   -0.3382    3.8079    0.0000 O   0  0  0  0  0  0  0  0  0  0  0  0
   -1.3987    0.9352    0.0000 C   0  0  0  0  0  0  0  0  0  0  0  0
  2 14  1  0  0  0  0
  3 12  1  0  0  0  0
  4  1  1  0  0  0  0
  5  1  2  0  0  0  0
  6  1  1  0  0  0  0
  7  6  1  0  0  0  0
  7  8  2  0  0  0  0
  8  4  1  0  0  0  0
  9  2  1  0  0  0  0
 10  2  1  0  0  0  0
 11  5  1  0  0  0  0
 12 13  2  0  0  0  0
 12 21  1  0  0  0  0
 13  7  1  0  0  0  0
 14 11  1  0  0  0  0
 15 27  1  0  0  0  0
 16  8  1  0  0  0  0
 17 15  3  0  0  0  0
 18  3  2  0  0  0  0
 19  3  2  0  0  0  0
 20  3  1  0  0  0  0
 21 16  2  0  0  0  0
 22 10  1  0  0  0  0
 22 23  1  0  0  0  0
 23  9  1  0  0  0  0
 24 10  2  0  0  0  0
 25  9  2  0  0  0  0
 26 11  2  0  0  0  0
 27  4  1  0  0  0  0
M  END
> <CdId>
2403

> <Mol Weight>
406.436

> <Formula>
C16H14N4O5S2

> <Click_ID>
CLK031_H09 __ __ 

$$$$
