CLK047B03
 OpenBabel03181404502D

 17 18  0  0  0  0  0  0  0  0999 V2000
    0.0000    0.3917    0.0000 C   0  0  0  0  0  0  0  0  0  0  0  0
    1.4250   -2.9083    0.0000 C   0  0  0  0  0  0  0  0  0  0  0  0
    1.4250   -3.7333    0.0000 C   0  0  0  0  0  0  0  0  0  0  0  0
    0.7125   -0.8458    0.0000 C   0  0  0  0  0  0  0  0  0  0  0  0
   -0.7167    0.8042    0.0000 C   0  0  0  0  0  0  0  0  0  0  0  0
    0.0000   -0.4333    0.0000 C   0  0  0  0  0  0  0  0  0  0  0  0
    1.4250   -0.4333    0.0000 O   0  0  0  0  0  0  0  0  0  0  0  0
    0.7125   -1.6708    0.0000 N   0  0  0  0  0  0  0  0  0  0  0  0
   -0.7167    1.6292    0.0000 C   0  0  0  0  0  0  0  0  0  0  0  0
    1.4250   -2.0833    0.0000 C   0  0  0  0  0  0  0  0  0  0  0  0
    0.7125    0.8042    0.0000 C   0  0  0  0  0  0  0  0  0  0  0  0
    0.7125    1.6292    0.0000 C   0  0  0  0  0  0  0  0  0  0  0  0
   -1.4292    0.3917    0.0000 C   0  0  0  0  0  0  0  0  0  0  0  0
    0.0000    2.0417    0.0000 C   0  0  0  0  0  0  0  0  0  0  0  0
   -1.4292    2.0417    0.0000 C   0  0  0  0  0  0  0  0  0  0  0  0
   -2.1458    0.8042    0.0000 C   0  0  0  0  0  0  0  0  0  0  0  0
   -2.1458    1.6292    0.0000 C   0  0  0  0  0  0  0  0  0  0  0  0
  2 10  1  0  0  0  0
  3  2  3  0  0  0  0
  4  6  1  0  0  0  0
  5  1  2  0  0  0  0
  6  1  1  0  0  0  0
  7  4  2  0  0  0  0
  8  4  1  0  0  0  0
  9  5  1  0  0  0  0
 10  8  1  0  0  0  0
 11  1  1  0  0  0  0
 12 11  2  0  0  0  0
 13  5  1  0  0  0  0
 14  9  2  0  0  0  0
 14 12  1  0  0  0  0
 15  9  1  0  0  0  0
 16 13  2  0  0  0  0
 16 17  1  0  0  0  0
 17 15  2  0  0  0  0
M  END
> <CdId>
3578

> <Mol Weight>
223.2698

> <Formula>
C15H13NO

> <Click_ID>
CLK047B03 __ __ 

$$$$
