CLK035_E08
 OpenBabel03181404502D

 23 25  0  0  0  0  0  0  0  0999 V2000
   -3.1426    0.1736    0.0000 N   0  0  0  0  0  0  0  0  0  0  0  0
   -2.5638   -0.8308    0.0000 N   0  0  0  0  0  0  0  0  0  0  0  0
   -1.9816   -0.4937    0.0000 C   0  0  0  0  0  0  0  0  0  0  0  0
   -3.1426   -0.5005    0.0000 C   0  0  0  0  0  0  0  0  0  0  0  0
   -2.5638    0.5175    0.0000 C   0  0  0  0  0  0  0  0  0  0  0  0
   -1.9816    0.1736    0.0000 C   0  0  0  0  0  0  0  0  0  0  0  0
   -1.3994   -0.8308    0.0000 N   0  0  0  0  0  0  0  0  0  0  0  0
   -1.4062    0.5107    0.0000 C   0  0  0  0  0  0  0  0  0  0  0  0
   -0.8239    0.1804    0.0000 N   0  0  0  0  0  0  0  0  0  0  0  0
   -0.8172   -0.4937    0.0000 C   0  0  0  0  0  0  0  0  0  0  0  0
   -0.0204    2.8362    0.0000 C   0  0  0  0  0  0  0  0  0  0  0  0
   -3.7283   -0.8376    0.0000 O   0  0  0  0  0  0  0  0  0  0  0  0
    0.7082    2.4413    0.0000 C   0  0  0  0  0  0  0  0  0  0  0  0
   -2.5638    1.1917    0.0000 O   0  0  0  0  0  0  0  0  0  0  0  0
   -1.4572    2.7988    0.0000 S   0  0  0  0  0  0  0  0  0  0  0  0
   -0.1021   -0.9091    0.0000 C   0  0  0  0  0  0  0  0  0  0  0  0
   -3.7283    0.5107    0.0000 C   0  0  0  0  0  0  0  0  0  0  0  0
   -2.5604   -1.5050    0.0000 C   0  0  0  0  0  0  0  0  0  0  0  0
   -0.7524    3.2346    0.0000 C   0  0  0  0  0  0  0  0  0  0  0  0
   -0.0170   -1.7297    0.0000 C   0  0  0  0  0  0  0  0  0  0  0  0
    0.6537   -0.5720    0.0000 C   0  0  0  0  0  0  0  0  0  0  0  0
    0.7967   -1.9033    0.0000 C   0  0  0  0  0  0  0  0  0  0  0  0
    1.2053   -1.1849    0.0000 C   0  0  0  0  0  0  0  0  0  0  0  0
  2  4  1  0  0  0  0
  3  6  2  0  0  0  0
  3  2  1  0  0  0  0
  4  1  1  0  0  0  0
  5  1  1  0  0  0  0
  6  5  1  0  0  0  0
  7  3  1  0  0  0  0
  8  6  1  0  0  0  0
  9  8  2  0  0  0  0
 10  9  1  0  0  0  0
 10  7  2  0  0  0  0
 11 19  1  0  0  0  0
 12  4  2  0  0  0  0
 13 11  3  0  0  0  0
 14  5  2  0  0  0  0
 15  8  1  0  0  0  0
 16 10  1  0  0  0  0
 17  1  1  0  0  0  0
 18  2  1  0  0  0  0
 19 15  1  0  0  0  0
 20 16  1  0  0  0  0
 21 16  1  0  0  0  0
 22 20  1  0  0  0  0
 23 21  1  0  0  0  0
 23 22  1  0  0  0  0
M  END
> <CdId>
2692

> <Mol Weight>
330.405

> <Formula>
C16H18N4O2S

> <Click_ID>
CLK035_E08 __ __ 

$$$$
