CLK030_G07
 OpenBabel03181404502D

 28 30  0  0  0  0  0  0  0  0999 V2000
   -1.1649    2.3882    0.0000 C   0  0  0  0  0  0  0  0  0  0  0  0
   -0.3382    2.3799    0.0000 N   0  0  0  0  0  0  0  0  0  0  0  0
   -1.6492    1.7244    0.0000 N   0  0  0  0  0  0  0  0  0  0  0  0
   -1.6492    3.0563    0.0000 S   0  0  0  0  0  0  0  0  0  0  0  0
    0.0752    3.0939    0.0000 C   0  0  0  0  0  0  0  0  0  0  0  0
    0.9019    4.5135    0.0000 N   0  3  0  0  0  0  0  0  0  0  0  0
   -4.5928    3.2192    0.0000 S   0  0  0  0  0  0  0  0  0  0  0  0
    0.9019    3.0939    0.0000 C   0  0  0  0  0  0  0  0  0  0  0  0
   -2.4383    2.8016    0.0000 C   0  0  0  0  0  0  0  0  0  0  0  0
   -2.4383    1.9749    0.0000 C   0  0  0  0  0  0  0  0  0  0  0  0
    1.3152    3.8037    0.0000 C   0  0  0  0  0  0  0  0  0  0  0  0
   -3.8663    2.8016    0.0000 C   0  0  0  0  0  0  0  0  0  0  0  0
   -3.1523    3.2149    0.0000 C   0  0  0  0  0  0  0  0  0  0  0  0
   -1.9498    0.3215    0.0000 C   0  0  0  0  0  0  0  0  0  0  0  0
   -3.1523    1.5615    0.0000 C   0  0  0  0  0  0  0  0  0  0  0  0
   -2.5010   -0.2923    0.0000 C   0  0  0  0  0  0  0  0  0  0  0  0
    1.3069    5.2275    0.0000 O   0  5  0  0  0  0  0  0  0  0  0  0
   -4.1544    3.9164    0.0000 O   0  0  0  0  0  0  0  0  0  0  0  0
   -5.0312    2.5135    0.0000 O   0  0  0  0  0  0  0  0  0  0  0  0
    0.0752    4.5135    0.0000 O   0  0  0  0  0  0  0  0  0  0  0  0
   -0.3382    3.8079    0.0000 O   0  0  0  0  0  0  0  0  0  0  0  0
   -3.8663    1.9749    0.0000 C   0  0  0  0  0  0  0  0  0  0  0  0
   -1.3987    0.9352    0.0000 C   0  0  0  0  0  0  0  0  0  0  0  0
   -5.2942    3.6534    0.0000 C   0  0  0  0  0  0  0  0  0  0  0  0
    1.3194    2.3757    0.0000 C   0  0  0  0  0  0  0  0  0  0  0  0
    2.1336    3.8037    0.0000 C   0  0  0  0  0  0  0  0  0  0  0  0
    2.1336    2.3757    0.0000 C   0  0  0  0  0  0  0  0  0  0  0  0
    2.5595    3.0897    0.0000 C   0  0  0  0  0  0  0  0  0  0  0  0
  2  1  2  0  0  0  0
  3  1  1  0  0  0  0
  4  1  1  0  0  0  0
  5  2  1  0  0  0  0
  6 11  1  0  0  0  0
  7 12  1  0  0  0  0
  8  5  1  0  0  0  0
  9  4  1  0  0  0  0
  9 10  2  0  0  0  0
 10  3  1  0  0  0  0
 11  8  1  0  0  0  0
 12 13  2  0  0  0  0
 12 22  1  0  0  0  0
 13  9  1  0  0  0  0
 14 23  1  0  0  0  0
 15 10  1  0  0  0  0
 16 14  3  0  0  0  0
 17  6  1  0  0  0  0
 18  7  2  0  0  0  0
 19  7  2  0  0  0  0
 20  6  2  0  0  0  0
 21  5  2  0  0  0  0
 22 15  2  0  0  0  0
 23  3  1  0  0  0  0
 24  7  1  0  0  0  0
 25  8  2  0  0  0  0
 26 11  2  0  0  0  0
 27 25  1  0  0  0  0
 28 27  2  0  0  0  0
 28 26  1  0  0  0  0
M  END
> <CdId>
2311

> <Mol Weight>
415.443

> <Formula>
C18H13N3O5S2

> <Click_ID>
CLK030_G07 __ __ 

$$$$
