CLK028_G11
 OpenBabel03181404502D

 21 21  0  0  0  0  0  0  0  0999 V2000
    1.0724   -0.6222    0.0000 C    0  0  0  0  0  0  0  0  0  0  0  0
    1.0690    0.2062    0.0000 C    0  0  0  0  0  0  0  0  0  0  0  0
    0.3575   -1.0347    0.0000 C    0  0  0  0  0  0  0  0  0  0  0  0
   -3.9185    2.2755    0.0000 N    0  0  0  0  0  0  0  0  0  0  0  0
   -3.9254    1.4505    0.0000 C    0  0  0  0  0  0  0  0  0  0  0  0
    3.2105   -1.0312    0.0000 C    0  0  0  0  0  0  0  0  0  0  0  0
    3.9220   -0.6187    0.0000 C    0  0  0  0  0  0  0  0  0  0  0  0
   -3.2139    0.2131    0.0000 C    0  0  0  0  0  0  0  0  0  0  0  0
   -1.7874    0.2062    0.0000 N    0  0  0  0  0  0  0  0  0  0  0  0
   -3.9254    0.6256    0.0000 C    0  0  0  0  0  0  0  0  0  0  0  0
    0.3471    0.6187    0.0000 C    0  0  0  0  0  0  0  0  0  0  0  0
   -0.3644   -0.6222    0.0000 C    0  0  0  0  0  0  0  0  0  0  0  0
   -0.3644    0.2062    0.0000 C    0  0  0  0  0  0  0  0  0  0  0  0
   -2.5023    0.6256    0.0000 N    0  0  0  0  0  0  0  0  0  0  0  0
   -3.2276   -0.6119    0.0000 O    0  0  0  0  0  0  0  0  0  0  0  0
   -1.0690    0.6153    0.0000 C    0  0  0  0  0  0  0  0  0  0  0  0
    1.7840    0.6187    0.0000 Cl   0  0  0  0  0  0  0  0  0  0  0  0
    1.7805   -1.0312    0.0000 O    0  0  0  0  0  0  0  0  0  0  0  0
    0.3471   -1.8596    0.0000 O    0  0  0  0  0  0  0  0  0  0  0  0
    2.4989   -0.6187    0.0000 C    0  0  0  0  0  0  0  0  0  0  0  0
    1.0621   -2.2721    0.0000 C    0  0  0  0  0  0  0  0  0  0  0  0
  2  1  1  0  0  0  0
  3  1  2  0  0  0  0
  4  5  3  0  0  0  0
  5 10  1  0  0  0  0
  6 20  1  0  0  0  0
  7  6  3  0  0  0  0
  8 14  1  0  0  0  0
  9 16  2  0  0  0  0
 10  8  1  0  0  0  0
 11  2  2  0  0  0  0
 12  3  1  0  0  0  0
 13 12  2  0  0  0  0
 13 11  1  0  0  0  0
 14  9  1  0  0  0  0
 15  8  2  0  0  0  0
 16 13  1  0  0  0  0
 17  2  1  0  0  0  0
 18  1  1  0  0  0  0
 19  3  1  0  0  0  0
 20 18  1  0  0  0  0
 21 19  1  0  0  0  0
M  END
> <CdId>
2155

> <Mol Weight>
305.716

> <Formula>
C14H12ClN3O3

> <Click_ID>
CLK028_G11 __ __ 

$$$$
