CLK001_C09
 OpenBabel03181404502D

 29 33  0  0  0  0  0  0  0  0999 V2000
   -1.2436   -0.7153    0.0000 C   0  0  0  0  0  0  0  0  0  0  0  0
   -0.5365   -0.3496    0.0000 C   0  0  0  0  0  0  0  0  0  0  0  0
   -1.9752   -0.3496    0.0000 C   0  0  0  0  0  0  0  0  0  0  0  0
   -1.9385   -1.1176    0.0000 C   0  0  0  0  0  0  0  0  0  0  0  0
   -0.5365   -1.1258    0.0000 C   0  0  0  0  0  0  0  0  0  0  0  0
   -0.5365    0.4836    0.0000 C   0  0  0  0  0  0  0  0  0  0  0  0
    0.1829   -0.7153    0.0000 C   0  0  0  0  0  0  0  0  0  0  0  0
   -1.9752    0.4836    0.0000 C   0  0  0  0  0  0  0  0  0  0  0  0
   -1.9385   -1.9670    0.0000 C   0  0  0  0  0  0  0  0  0  0  0  0
   -0.5365   -1.9670    0.0000 C   0  0  0  0  0  0  0  0  0  0  0  0
   -1.2436    0.9469    0.0000 C   0  0  0  0  0  0  0  0  0  0  0  0
    0.1829    0.9469    0.0000 N   0  0  0  0  0  0  0  0  0  0  0  0
    0.9266   -0.3496    0.0000 N   0  0  0  0  0  0  0  0  0  0  0  0
    0.1829   -1.5768    0.0000 O   0  0  0  0  0  0  0  0  0  0  0  0
   -2.6823    0.9469    0.0000 C   0  0  0  0  0  0  0  0  0  0  0  0
   -1.2436    1.7719    0.0000 C   0  0  0  0  0  0  0  0  0  0  0  0
    0.9266    0.4836    0.0000 C   0  0  0  0  0  0  0  0  0  0  0  0
    1.6216   -0.7518    0.0000 C   0  0  0  0  0  0  0  0  0  0  0  0
   -2.6823    1.7719    0.0000 C   0  0  0  0  0  0  0  0  0  0  0  0
   -1.9752    2.1824    0.0000 C   0  0  0  0  0  0  0  0  0  0  0  0
    1.6784    0.8778    0.0000 S   0  0  0  0  0  0  0  0  0  0  0  0
    2.3409   -0.3496    0.0000 C   0  0  0  0  0  0  0  0  0  0  0  0
    1.6216   -1.5768    0.0000 C   0  0  0  0  0  0  0  0  0  0  0  0
    1.6784    1.7028    0.0000 C   0  0  0  0  0  0  0  0  0  0  0  0
    3.0603   -0.7518    0.0000 C   0  0  0  0  0  0  0  0  0  0  0  0
    2.3531   -1.9996    0.0000 C   0  0  0  0  0  0  0  0  0  0  0  0
    0.9631    2.1254    0.0000 C   0  0  0  0  0  0  0  0  0  0  0  0
    3.0603   -1.5768    0.0000 C   0  0  0  0  0  0  0  0  0  0  0  0
    0.2560    2.5359    0.0000 C   0  0  0  0  0  0  0  0  0  0  0  0
  1  2  1  0  0  0  0
  1  3  1  0  0  0  0
  1  4  1  0  0  0  0
  1  5  1  0  0  0  0
  2  6  2  0  0  0  0
  2  7  1  0  0  0  0
  3  8  1  0  0  0  0
  4  9  1  0  0  0  0
  5 10  1  0  0  0  0
  6 11  1  0  0  0  0
  6 12  1  0  0  0  0
  7 13  1  0  0  0  0
  7 14  2  0  0  0  0
  8 15  2  0  0  0  0
  8 11  1  0  0  0  0
  9 10  1  0  0  0  0
 11 16  2  0  0  0  0
 12 17  2  0  0  0  0
 13 18  1  0  0  0  0
 13 17  1  0  0  0  0
 15 19  1  0  0  0  0
 16 20  1  0  0  0  0
 17 21  1  0  0  0  0
 18 22  1  0  0  0  0
 18 23  1  0  0  0  0
 19 20  2  0  0  0  0
 21 24  1  0  0  0  0
 22 25  1  0  0  0  0
 23 26  1  0  0  0  0
 24 27  1  0  0  0  0
 25 28  1  0  0  0  0
 26 28  1  0  0  0  0
 27 29  3  0  0  0  0
M  END
> <CdId>
28

> <Mol Weight>
404.568

> <Formula>
C25H28N2OS

> <Click_ID>
CLK001_C09 __ __ 

$$$$
