CLK008_D06
 OpenBabel03181404502D

 12 11  0  0  0  0  0  0  0  0999 V2000
   -0.4240    0.9191    0.0000 C   0  0  0  0  0  0  0  0  0  0  0  0
    0.2923    0.5136    0.0000 C   0  0  0  0  0  0  0  0  0  0  0  0
   -1.1387    0.5136    0.0000 O   0  0  0  0  0  0  0  0  0  0  0  0
   -0.4240    1.7486    0.0000 O   0  0  0  0  0  0  0  0  0  0  0  0
    0.2923   -0.3142    0.0000 C   0  0  0  0  0  0  0  0  0  0  0  0
   -1.1387   -0.3142    0.0000 C   0  0  0  0  0  0  0  0  0  0  0  0
    1.0069   -0.7265    0.0000 C   0  0  0  0  0  0  0  0  0  0  0  0
   -1.8398   -0.7265    0.0000 C   0  0  0  0  0  0  0  0  0  0  0  0
    1.7215   -0.3092    0.0000 C   0  0  0  0  0  0  0  0  0  0  0  0
   -2.5359   -1.1235    0.0000 C   0  0  0  0  0  0  0  0  0  0  0  0
    2.4565   -0.6927    0.0000 O   0  0  0  0  0  0  0  0  0  0  0  0
    1.7317    0.5136    0.0000 O   0  0  0  0  0  0  0  0  0  0  0  0
  1  2  1  0  0  0  0
  1  3  1  0  0  0  0
  1  4  2  0  0  0  0
  2  5  1  0  0  0  0
  3  6  1  0  0  0  0
  5  7  1  0  0  0  0
  6  8  1  0  0  0  0
  7  9  1  0  0  0  0
  8 10  3  0  0  0  0
  9 11  1  0  0  0  0
  9 12  2  0  0  0  0
M  END
> <CdId>
580

> <Mol Weight>
170.1626

> <Formula>
C8H10O4

> <Click_ID>
CLK008_D06 __ __ 

$$$$
