CLK042D09
 OpenBabel03181404502D

 22 24  0  0  0  0  0  0  0  0999 V2000
    0.0375   -0.2583    0.0000 C   0  0  0  0  0  0  0  0  0  0  0  0
   -0.4458    0.4083    0.0000 N   0  0  0  0  0  0  0  0  0  0  0  0
    0.0375    1.0792    0.0000 N   0  0  0  0  0  0  0  0  0  0  0  0
    0.8208   -0.0042    0.0000 C   0  0  0  0  0  0  0  0  0  0  0  0
    0.8208    0.8208    0.0000 C   0  0  0  0  0  0  0  0  0  0  0  0
   -0.2167   -1.0417    0.0000 C   0  0  0  0  0  0  0  0  0  0  0  0
    1.4875    1.3083    0.0000 C   0  0  0  0  0  0  0  0  0  0  0  0
    1.4875    2.1333    0.0000 S   0  0  0  0  0  0  0  0  0  0  0  0
    0.6333   -3.0542    0.0000 C   0  0  0  0  0  0  0  0  0  0  0  0
    1.1833   -3.6667    0.0000 C   0  0  0  0  0  0  0  0  0  0  0  0
   -1.2708    0.4083    0.0000 C   0  0  0  0  0  0  0  0  0  0  0  0
    2.2750    1.0542    0.0000 C   0  0  0  0  0  0  0  0  0  0  0  0
    2.2750    2.3875    0.0000 C   0  0  0  0  0  0  0  0  0  0  0  0
   -1.0250   -1.2125    0.0000 O   0  0  0  0  0  0  0  0  0  0  0  0
    2.7583    1.7208    0.0000 C   0  0  0  0  0  0  0  0  0  0  0  0
    0.3333   -1.6542    0.0000 N   0  0  0  0  0  0  0  0  0  0  0  0
    0.0792   -2.4375    0.0000 C   0  0  0  0  0  0  0  0  0  0  0  0
   -1.6833   -0.3042    0.0000 C   0  0  0  0  0  0  0  0  0  0  0  0
   -1.6833    1.1250    0.0000 C   0  0  0  0  0  0  0  0  0  0  0  0
   -2.5083    1.1250    0.0000 C   0  0  0  0  0  0  0  0  0  0  0  0
   -2.5083   -0.3042    0.0000 C   0  0  0  0  0  0  0  0  0  0  0  0
   -2.9208    0.4083    0.0000 C   0  0  0  0  0  0  0  0  0  0  0  0
  2  1  1  0  0  0  0
  3  2  1  0  0  0  0
  3  5  2  0  0  0  0
  4  1  2  0  0  0  0
  5  4  1  0  0  0  0
  6  1  1  0  0  0  0
  7  5  1  0  0  0  0
  8  7  1  0  0  0  0
  9 17  1  0  0  0  0
 10  9  3  0  0  0  0
 11  2  1  0  0  0  0
 12  7  2  0  0  0  0
 13  8  1  0  0  0  0
 13 15  2  0  0  0  0
 14  6  2  0  0  0  0
 15 12  1  0  0  0  0
 16  6  1  0  0  0  0
 17 16  1  0  0  0  0
 18 11  2  0  0  0  0
 19 11  1  0  0  0  0
 20 19  2  0  0  0  0
 21 18  1  0  0  0  0
 22 21  2  0  0  0  0
 22 20  1  0  0  0  0
M  END
> <CdId>
3228

> <Mol Weight>
307.37

> <Formula>
C17H13N3OS

> <Click_ID>
CLK042D09 __ __ 

$$$$
