CLK031_E04
 OpenBabel03181404502D

 34 38  0  0  0  0  0  0  0  0999 V2000
   -1.1625    2.3833    0.0000 C   0  0  0  0  0  0  0  0  0  0  0  0
   -0.3375    2.3750    0.0000 N   0  0  0  0  0  0  0  0  0  0  0  0
   -4.5833    3.2125    0.0000 S   0  0  0  0  0  0  0  0  0  0  0  0
   -1.6458    1.7208    0.0000 N   0  0  0  0  0  0  0  0  0  0  0  0
   -1.6458    3.0500    0.0000 S   0  0  0  0  0  0  0  0  0  0  0  0
    0.0750    3.0875    0.0000 C   0  0  0  0  0  0  0  0  0  0  0  0
   -2.4333    2.7958    0.0000 C   0  0  0  0  0  0  0  0  0  0  0  0
    0.9000    3.0875    0.0000 C   0  0  0  0  0  0  0  0  0  0  0  0
   -2.4333    1.9708    0.0000 C   0  0  0  0  0  0  0  0  0  0  0  0
    2.5625    3.0833    0.0000 N   0  0  0  0  0  0  0  0  0  0  0  0
    2.1500    3.8083    0.0000 C   0  0  0  0  0  0  0  0  0  0  0  0
   -3.8583    2.7958    0.0000 C   0  0  0  0  0  0  0  0  0  0  0  0
    1.3250    3.8083    0.0000 C   0  0  0  0  0  0  0  0  0  0  0  0
   -3.1458    3.2083    0.0000 C   0  0  0  0  0  0  0  0  0  0  0  0
    2.5667    4.5167    0.0000 C   0  0  0  0  0  0  0  0  0  0  0  0
    1.3167    2.3708    0.0000 C   0  0  0  0  0  0  0  0  0  0  0  0
    2.1417    2.3708    0.0000 C   0  0  0  0  0  0  0  0  0  0  0  0
   -1.9458    0.3208    0.0000 C   0  0  0  0  0  0  0  0  0  0  0  0
    3.3917    4.5125    0.0000 S   0  0  0  0  0  0  0  0  0  0  0  0
   -3.1458    1.5583    0.0000 C   0  0  0  0  0  0  0  0  0  0  0  0
   -2.4958   -0.2917    0.0000 C   0  0  0  0  0  0  0  0  0  0  0  0
   -4.1458    3.9083    0.0000 O   0  0  0  0  0  0  0  0  0  0  0  0
   -5.0208    2.5083    0.0000 O   0  0  0  0  0  0  0  0  0  0  0  0
   -0.3375    3.8000    0.0000 O   0  0  0  0  0  0  0  0  0  0  0  0
   -5.2833    3.6458    0.0000 N   0  0  0  0  0  0  0  0  0  0  0  0
   -3.8583    1.9708    0.0000 C   0  0  0  0  0  0  0  0  0  0  0  0
    2.3167    5.3042    0.0000 C   0  0  0  0  0  0  0  0  0  0  0  0
    3.6625    5.2917    0.0000 C   0  0  0  0  0  0  0  0  0  0  0  0
   -1.3958    0.9333    0.0000 C   0  0  0  0  0  0  0  0  0  0  0  0
    2.9917    5.7750    0.0000 C   0  0  0  0  0  0  0  0  0  0  0  0
    0.8917    1.6583    0.0000 C   0  0  0  0  0  0  0  0  0  0  0  0
    2.5542    1.6500    0.0000 C   0  0  0  0  0  0  0  0  0  0  0  0
    1.3167    0.9333    0.0000 C   0  0  0  0  0  0  0  0  0  0  0  0
    2.1417    0.9333    0.0000 C   0  0  0  0  0  0  0  0  0  0  0  0
  2  1  2  0  0  0  0
  3 12  1  0  0  0  0
  4  1  1  0  0  0  0
  5  1  1  0  0  0  0
  6  2  1  0  0  0  0
  7  5  1  0  0  0  0
  7  9  2  0  0  0  0
  8  6  1  0  0  0  0
  9  4  1  0  0  0  0
 10 17  1  0  0  0  0
 11 13  1  0  0  0  0
 11 10  2  0  0  0  0
 12 14  2  0  0  0  0
 12 26  1  0  0  0  0
 13  8  2  0  0  0  0
 14  7  1  0  0  0  0
 15 11  1  0  0  0  0
 16  8  1  0  0  0  0
 17 16  2  0  0  0  0
 18 29  1  0  0  0  0
 19 15  1  0  0  0  0
 20  9  1  0  0  0  0
 21 18  3  0  0  0  0
 22  3  2  0  0  0  0
 23  3  2  0  0  0  0
 24  6  2  0  0  0  0
 25  3  1  0  0  0  0
 26 20  2  0  0  0  0
 27 15  2  0  0  0  0
 28 19  1  0  0  0  0
 28 30  2  0  0  0  0
 29  4  1  0  0  0  0
 30 27  1  0  0  0  0
 31 16  1  0  0  0  0
 32 17  1  0  0  0  0
 33 31  2  0  0  0  0
 34 33  1  0  0  0  0
 34 32  2  0  0  0  0
M  END
> <CdId>
2368

> <Mol Weight>
504.604

> <Formula>
C24H16N4O3S3

> <Click_ID>
CLK031_E04 __ __ 

$$$$
