CLK033_H03
 OpenBabel03181404502D

 31 33  0  0  0  0  0  0  0  0999 V2000
   -4.5934    2.5569    0.0000 C   0  0  0  0  0  0  0  0  0  0  0  0
   -0.9995    5.4388    0.0000 S   0  0  0  0  0  0  0  0  0  0  0  0
   -3.8604    2.9817    0.0000 N   0  0  0  0  0  0  0  0  0  0  0  0
   -4.6808    1.7324    0.0000 N   0  0  0  0  0  0  0  0  0  0  0  0
   -5.3180    2.8943    0.0000 S   0  0  0  0  0  0  0  0  0  0  0  0
   -5.4846    1.5825    0.0000 C   0  0  0  0  0  0  0  0  0  0  0  0
   -5.8927    2.2988    0.0000 C   0  0  0  0  0  0  0  0  0  0  0  0
   -3.8687    3.7980    0.0000 C   0  0  0  0  0  0  0  0  0  0  0  0
   -1.7199    5.0265    0.0000 C   0  0  0  0  0  0  0  0  0  0  0  0
   -0.2831    5.8511    0.0000 N   0  0  0  0  0  0  0  0  0  0  0  0
   -4.2560    0.3581    0.0000 C   0  0  0  0  0  0  0  0  0  0  0  0
   -0.5872    4.7267    0.0000 O   0  0  0  0  0  0  0  0  0  0  0  0
   -1.4117    6.1634    0.0000 O   0  0  0  0  0  0  0  0  0  0  0  0
   -4.4434   -0.4540    0.0000 C   0  0  0  0  0  0  0  0  0  0  0  0
   -3.1566    4.2103    0.0000 C   0  0  0  0  0  0  0  0  0  0  0  0
   -5.9176    0.8828    0.0000 C   0  0  0  0  0  0  0  0  0  0  0  0
   -4.5809    4.2145    0.0000 O   0  0  0  0  0  0  0  0  0  0  0  0
   -4.0686    1.1619    0.0000 C   0  0  0  0  0  0  0  0  0  0  0  0
   -1.7241    4.2020    0.0000 C   0  0  0  0  0  0  0  0  0  0  0  0
   -2.4362    5.4471    0.0000 C   0  0  0  0  0  0  0  0  0  0  0  0
   -2.4362    3.8063    0.0000 C   0  0  0  0  0  0  0  0  0  0  0  0
   -3.1483    5.0390    0.0000 C   0  0  0  0  0  0  0  0  0  0  0  0
   -6.7006    2.3196    0.0000 C   0  0  0  0  0  0  0  0  0  0  0  0
   -5.5179    0.1457    0.0000 O   0  0  0  0  0  0  0  0  0  0  0  0
   -7.1379    1.6199    0.0000 C   0  0  0  0  0  0  0  0  0  0  0  0
   -0.2831    6.6881    0.0000 C   0  0  0  0  0  0  0  0  0  0  0  0
    0.4290    5.4471    0.0000 C   0  0  0  0  0  0  0  0  0  0  0  0
   -6.7256    0.8870    0.0000 C   0  0  0  0  0  0  0  0  0  0  0  0
   -5.9551   -0.5539    0.0000 C   0  0  0  0  0  0  0  0  0  0  0  0
    1.1494    5.8511    0.0000 C   0  0  0  0  0  0  0  0  0  0  0  0
   -0.9953    7.1004    0.0000 C   0  0  0  0  0  0  0  0  0  0  0  0
  2  9  1  0  0  0  0
  3  1  2  0  0  0  0
  4  1  1  0  0  0  0
  5  1  1  0  0  0  0
  6  4  1  0  0  0  0
  7  5  1  0  0  0  0
  7  6  2  0  0  0  0
  8  3  1  0  0  0  0
  9 20  1  0  0  0  0
  9 19  2  0  0  0  0
 10  2  1  0  0  0  0
 11 18  1  0  0  0  0
 12  2  2  0  0  0  0
 13  2  2  0  0  0  0
 14 11  3  0  0  0  0
 15  8  1  0  0  0  0
 16  6  1  0  0  0  0
 17  8  2  0  0  0  0
 18  4  1  0  0  0  0
 19 21  1  0  0  0  0
 20 22  2  0  0  0  0
 21 15  2  0  0  0  0
 22 15  1  0  0  0  0
 23  7  1  0  0  0  0
 24 16  1  0  0  0  0
 25 23  2  0  0  0  0
 26 10  1  0  0  0  0
 27 10  1  0  0  0  0
 28 16  2  0  0  0  0
 28 25  1  0  0  0  0
 29 24  1  0  0  0  0
 30 27  1  0  0  0  0
 31 26  1  0  0  0  0
M  END
> <CdId>
2557

> <Mol Weight>
457.566

> <Formula>
C22H23N3O4S2

> <Click_ID>
CLK033_H03 __ __ 

$$$$
