CLK034_H05
 OpenBabel03181404502D

 35 38  0  0  0  0  0  0  0  0999 V2000
   -4.5726    2.5440    0.0000 C   0  0  0  0  0  0  0  0  0  0  0  0
   -0.9977    5.4415    0.0000 S   0  0  0  0  0  0  0  0  0  0  0  0
   -0.2868    5.8530    0.0000 N   0  0  0  0  0  0  0  0  0  0  0  0
   -3.8618    2.9639    0.0000 N   0  0  0  0  0  0  0  0  0  0  0  0
   -4.6724    1.7293    0.0000 N   0  0  0  0  0  0  0  0  0  0  0  0
   -5.3084    2.8890    0.0000 S   0  0  0  0  0  0  0  0  0  0  0  0
   -5.4747    1.5713    0.0000 C   0  0  0  0  0  0  0  0  0  0  0  0
   -5.8820    2.2904    0.0000 C   0  0  0  0  0  0  0  0  0  0  0  0
   -3.8618    3.7911    0.0000 C   0  0  0  0  0  0  0  0  0  0  0  0
   -0.2868    6.6761    0.0000 C   0  0  0  0  0  0  0  0  0  0  0  0
    0.4282    5.4373    0.0000 C   0  0  0  0  0  0  0  0  0  0  0  0
   -1.7168    5.0175    0.0000 C   0  0  0  0  0  0  0  0  0  0  0  0
   -1.4092    6.1523    0.0000 O   0  0  0  0  0  0  0  0  0  0  0  0
   -0.5861    4.7182    0.0000 O   0  0  0  0  0  0  0  0  0  0  0  0
   -4.2401    0.3492    0.0000 C   0  0  0  0  0  0  0  0  0  0  0  0
    1.1473    6.6761    0.0000 O   0  0  0  0  0  0  0  0  0  0  0  0
   -4.4229   -0.4614    0.0000 C   0  0  0  0  0  0  0  0  0  0  0  0
   -3.1509    4.2027    0.0000 C   0  0  0  0  0  0  0  0  0  0  0  0
   -5.8987    0.8688    0.0000 C   0  0  0  0  0  0  0  0  0  0  0  0
    1.1390    5.8530    0.0000 C   0  0  3  0  0  0  0  0  0  0  0  0
    0.4282    7.0876    0.0000 C   0  0  3  0  0  0  0  0  0  0  0  0
   -4.5851    4.1944    0.0000 O   0  0  0  0  0  0  0  0  0  0  0  0
   -4.0530    1.1556    0.0000 C   0  0  0  0  0  0  0  0  0  0  0  0
   -2.4318    5.4373    0.0000 C   0  0  0  0  0  0  0  0  0  0  0  0
   -1.7168    4.1944    0.0000 C   0  0  0  0  0  0  0  0  0  0  0  0
   -2.4276    3.7994    0.0000 C   0  0  0  0  0  0  0  0  0  0  0  0
   -3.1426    5.0175    0.0000 C   0  0  0  0  0  0  0  0  0  0  0  0
   -6.6885    2.3071    0.0000 C   0  0  0  0  0  0  0  0  0  0  0  0
   -5.5079    0.1372    0.0000 O   0  0  0  0  0  0  0  0  0  0  0  0
   -7.1250    1.6045    0.0000 C   0  0  0  0  0  0  0  0  0  0  0  0
   -6.7135    0.8812    0.0000 C   0  0  0  0  0  0  0  0  0  0  0  0
    0.4282    7.9107    0.0000 C   0  0  0  0  0  0  0  0  0  0  0  0
    1.8623    5.4290    0.0000 C   0  0  0  0  0  0  0  0  0  0  0  0
   -5.9319   -0.5654    0.0000 C   0  0  0  0  0  0  0  0  0  0  0  0
   -5.5495   -1.2762    0.0000 C   0  0  0  0  0  0  0  0  0  0  0  0
  2 12  1  0  0  0  0
  3  2  1  0  0  0  0
  4  1  2  0  0  0  0
  5  1  1  0  0  0  0
  6  1  1  0  0  0  0
  7  5  1  0  0  0  0
  8  6  1  0  0  0  0
  8  7  2  0  0  0  0
  9  4  1  0  0  0  0
 10  3  1  0  0  0  0
 11  3  1  0  0  0  0
 12 24  1  0  0  0  0
 12 25  2  0  0  0  0
 13  2  2  0  0  0  0
 14  2  2  0  0  0  0
 15 23  1  0  0  0  0
 16 20  1  0  0  0  0
 16 21  1  0  0  0  0
 17 15  3  0  0  0  0
 18  9  1  0  0  0  0
 19  7  1  0  0  0  0
 20 11  1  0  0  0  0
 21 10  1  0  0  0  0
 22  9  2  0  0  0  0
 23  5  1  0  0  0  0
 24 27  2  0  0  0  0
 25 26  1  0  0  0  0
 26 18  2  0  0  0  0
 27 18  1  0  0  0  0
 28  8  1  0  0  0  0
 29 19  1  0  0  0  0
 30 28  2  0  0  0  0
 31 19  2  0  0  0  0
 31 30  1  0  0  0  0
 32 21  1  0  0  0  0
 33 20  1  0  0  0  0
 34 29  1  0  0  0  0
 35 34  1  0  0  0  0
M  END
> <CdId>
2639

> <Mol Weight>
513.629

> <Formula>
C25H27N3O5S2

> <Click_ID>
CLK034_H05 __ __ 

$$$$
