CLK029_A06
 OpenBabel03181404502D

 27 30  0  0  0  0  0  0  0  0999 V2000
   -4.7247    5.0205    0.0000 C   0  0  0  0  0  0  0  0  0  0  0  0
   -2.6377    5.3902    0.0000 N   0  0  0  0  0  0  0  0  0  0  0  0
   -5.1930    5.6615    0.0000 N   0  0  0  0  0  0  0  0  0  0  0  0
   -5.1930    4.3549    0.0000 N   0  0  0  0  0  0  0  0  0  0  0  0
   -3.9112    4.9712    0.0000 C   0  0  3  0  0  0  0  0  0  0  0  0
   -2.6377    4.5605    0.0000 C   0  0  0  0  0  0  0  0  0  0  0  0
   -1.9638    5.8340    0.0000 C   0  0  0  0  0  0  0  0  0  0  0  0
   -3.4181    5.6368    0.0000 C   0  0  0  0  0  0  0  0  0  0  0  0
   -5.9819    4.6015    0.0000 C   0  0  0  0  0  0  0  0  0  0  0  0
   -5.9819    5.4149    0.0000 C   0  0  0  0  0  0  0  0  0  0  0  0
   -2.0131    6.6475    0.0000 C   0  0  0  0  0  0  0  0  0  0  0  0
   -1.2242    5.4725    0.0000 C   0  0  0  0  0  0  0  0  0  0  0  0
   -3.4181    4.3056    0.0000 C   0  0  0  0  0  0  0  0  0  0  0  0
   -5.4725    2.9335    0.0000 C   0  0  0  0  0  0  0  0  0  0  0  0
   -6.0148    2.3172    0.0000 C   0  0  0  0  0  0  0  0  0  0  0  0
   -0.5341    5.9326    0.0000 C   0  0  0  0  0  0  0  0  0  0  0  0
   -1.3311    7.1158    0.0000 C   0  0  0  0  0  0  0  0  0  0  0  0
   -1.9638    4.0838    0.0000 O   0  0  0  0  0  0  0  0  0  0  0  0
   -4.9219    3.5661    0.0000 C   0  0  0  0  0  0  0  0  0  0  0  0
   -0.5834    6.7461    0.0000 C   0  0  0  0  0  0  0  0  0  0  0  0
   -1.1503    4.6508    0.0000 C   0  0  0  0  0  0  0  0  0  0  0  0
   -2.7609    7.0172    0.0000 C   0  0  0  0  0  0  0  0  0  0  0  0
   -6.6804    4.1823    0.0000 C   0  0  0  0  0  0  0  0  0  0  0  0
   -6.6804    5.8340    0.0000 C   0  0  0  0  0  0  0  0  0  0  0  0
    0.1232    7.2144    0.0000 C   0  0  0  0  0  0  0  0  0  0  0  0
   -7.3952    4.6015    0.0000 C   0  0  0  0  0  0  0  0  0  0  0  0
   -7.3952    5.4149    0.0000 C   0  0  0  0  0  0  0  0  0  0  0  0
  2  8  1  0  0  0  0
  3  1  2  0  0  0  0
  4  1  1  0  0  0  0
  5  1  1  0  0  0  0
  6 13  1  0  0  0  0
  6  2  1  0  0  0  0
  7  2  1  0  0  0  0
  8  5  1  0  0  0  0
  9  4  1  0  0  0  0
  9 10  2  0  0  0  0
 10  3  1  0  0  0  0
 11  7  2  0  0  0  0
 12  7  1  0  0  0  0
 13  5  1  0  0  0  0
 14 19  1  0  0  0  0
 15 14  3  0  0  0  0
 16 12  2  0  0  0  0
 17 11  1  0  0  0  0
 18  6  2  0  0  0  0
 19  4  1  0  0  0  0
 20 16  1  0  0  0  0
 20 17  2  0  0  0  0
 21 12  1  0  0  0  0
 22 11  1  0  0  0  0
 23  9  1  0  0  0  0
 24 10  1  0  0  0  0
 25 20  1  0  0  0  0
 26 23  2  0  0  0  0
 27 24  2  0  0  0  0
 27 26  1  0  0  0  0
M  END
> <CdId>
2170

> <Mol Weight>
357.4482

> <Formula>
C23H23N3O

> <Click_ID>
CLK029_A06 __ __ 

$$$$
