CLK034_C03
 OpenBabel03181404502D

 27 29  0  0  0  0  0  0  0  0999 V2000
   -4.5756    2.5457    0.0000 C   0  0  0  0  0  0  0  0  0  0  0  0
   -3.8643    2.9658    0.0000 N   0  0  0  0  0  0  0  0  0  0  0  0
   -4.6671    1.7304    0.0000 N   0  0  0  0  0  0  0  0  0  0  0  0
   -5.3118    2.8909    0.0000 S   0  0  0  0  0  0  0  0  0  0  0  0
   -5.4740    1.5681    0.0000 C   0  0  0  0  0  0  0  0  0  0  0  0
   -5.8734    2.2919    0.0000 C   0  0  0  0  0  0  0  0  0  0  0  0
   -3.8643    3.7936    0.0000 C   0  0  0  0  0  0  0  0  0  0  0  0
   -6.6929    2.3044    0.0000 C   0  0  0  0  0  0  0  0  0  0  0  0
   -3.1530    4.2054    0.0000 C   0  0  0  0  0  0  0  0  0  0  0  0
   -4.2386    0.3494    0.0000 C   0  0  0  0  0  0  0  0  0  0  0  0
   -4.4133   -0.4534    0.0000 C   0  0  0  0  0  0  0  0  0  0  0  0
   -3.1447    5.0332    0.0000 C   0  0  0  0  0  0  0  0  0  0  0  0
   -2.4292    5.4450    0.0000 C   0  0  0  0  0  0  0  0  0  0  0  0
   -5.8983    0.8693    0.0000 C   0  0  0  0  0  0  0  0  0  0  0  0
   -7.1172    1.5973    0.0000 C   0  0  0  0  0  0  0  0  0  0  0  0
   -4.5880    4.2054    0.0000 O   0  0  0  0  0  0  0  0  0  0  0  0
   -1.7096    5.0207    0.0000 C   0  0  0  0  0  0  0  0  0  0  0  0
   -6.7054    0.8818    0.0000 C   0  0  0  0  0  0  0  0  0  0  0  0
   -4.0514    1.1605    0.0000 C   0  0  0  0  0  0  0  0  0  0  0  0
   -2.4334    3.8019    0.0000 C   0  0  0  0  0  0  0  0  0  0  0  0
   -1.7179    4.2054    0.0000 C   0  0  0  0  0  0  0  0  0  0  0  0
   -2.4292    6.2686    0.0000 O   0  0  0  0  0  0  0  0  0  0  0  0
   -0.9941    5.4408    0.0000 O   0  0  0  0  0  0  0  0  0  0  0  0
   -7.0922    3.0282    0.0000 C   0  0  0  0  0  0  0  0  0  0  0  0
   -7.1047    0.1580    0.0000 C   0  0  0  0  0  0  0  0  0  0  0  0
   -3.1405    6.6804    0.0000 C   0  0  0  0  0  0  0  0  0  0  0  0
   -0.2828    5.0207    0.0000 C   0  0  0  0  0  0  0  0  0  0  0  0
  2  1  2  0  0  0  0
  3  1  1  0  0  0  0
  4  1  1  0  0  0  0
  5  3  1  0  0  0  0
  6  4  1  0  0  0  0
  6  5  2  0  0  0  0
  7  2  1  0  0  0  0
  8  6  1  0  0  0  0
  9  7  1  0  0  0  0
 10 19  1  0  0  0  0
 11 10  3  0  0  0  0
 12  9  1  0  0  0  0
 13 12  2  0  0  0  0
 13 17  1  0  0  0  0
 14  5  1  0  0  0  0
 15  8  2  0  0  0  0
 16  7  2  0  0  0  0
 17 21  2  0  0  0  0
 18 14  2  0  0  0  0
 18 15  1  0  0  0  0
 19  3  1  0  0  0  0
 20  9  2  0  0  0  0
 21 20  1  0  0  0  0
 22 13  1  0  0  0  0
 23 17  1  0  0  0  0
 24  8  1  0  0  0  0
 25 18  1  0  0  0  0
 26 22  1  0  0  0  0
 27 23  1  0  0  0  0
M  END
> <CdId>
2587

> <Mol Weight>
380.46

> <Formula>
C21H20N2O3S

> <Click_ID>
CLK034_C03 __ __ 

$$$$
