CLK037H10
 OpenBabel03181404502D

 24 25  0  0  0  0  0  0  0  0999 V2000
   -0.3919    0.9338    0.0000 N   0  0  0  0  0  0  0  0  0  0  0  0
    0.3919    2.0136    0.0000 C   0  0  3  0  0  0  0  0  0  0  0  0
   -0.8755    1.6008    0.0000 C   0  0  0  0  0  0  0  0  0  0  0  0
    1.0631    2.5013    0.0000 C   0  0  0  0  0  0  0  0  0  0  0  0
    0.3919    1.1881    0.0000 C   0  0  0  0  0  0  0  0  0  0  0  0
   -0.3919    2.2679    0.0000 C   0  0  0  0  0  0  0  0  0  0  0  0
    3.2392    2.3137    0.0000 C   0  0  0  0  0  0  0  0  0  0  0  0
    3.9896    1.9760    0.0000 C   0  0  0  0  0  0  0  0  0  0  0  0
   -1.4132   -2.2054    0.0000 C   0  0  0  0  0  0  0  0  0  0  0  0
   -0.6461    0.1501    0.0000 C   0  0  0  0  0  0  0  0  0  0  0  0
   -1.7009    1.6008    0.0000 O   0  0  0  0  0  0  0  0  0  0  0  0
   -0.8588   -2.8182    0.0000 C   0  0  0  0  0  0  0  0  0  0  0  0
    0.9755    3.3226    0.0000 O   0  0  0  0  0  0  0  0  0  0  0  0
   -1.1589   -1.4216    0.0000 C   0  0  0  0  0  0  0  0  0  0  0  0
    1.8135    2.1636    0.0000 N   0  0  0  0  0  0  0  0  0  0  0  0
   -0.0542   -2.6472    0.0000 C   0  0  0  0  0  0  0  0  0  0  0  0
   -0.3502   -1.2507    0.0000 C   0  0  0  0  0  0  0  0  0  0  0  0
   -0.0959   -0.4627    0.0000 C   0  0  0  0  0  0  0  0  0  0  0  0
    0.2043   -1.8635    0.0000 C   0  0  0  0  0  0  0  0  0  0  0  0
   -2.2179   -2.3763    0.0000 O   0  0  0  0  0  0  0  0  0  0  0  0
    2.4846    2.6472    0.0000 C   0  0  0  0  0  0  0  0  0  0  0  0
   -1.1131   -3.6061    0.0000 O   0  0  0  0  0  0  0  0  0  0  0  0
   -2.7723   -1.7634    0.0000 C   0  0  0  0  0  0  0  0  0  0  0  0
   -0.5628   -4.2189    0.0000 C   0  0  0  0  0  0  0  0  0  0  0  0
  2  5  1  0  0  0  0
  3  1  1  0  0  0  0
  4  2  1  0  0  0  0
  5  1  1  0  0  0  0
  6  3  1  0  0  0  0
  6  2  1  0  0  0  0
  7 21  1  0  0  0  0
  8  7  3  0  0  0  0
  9 14  1  0  0  0  0
 10  1  1  0  0  0  0
 11  3  2  0  0  0  0
 12  9  2  0  0  0  0
 13  4  2  0  0  0  0
 14 17  2  0  0  0  0
 15  4  1  0  0  0  0
 16 19  2  0  0  0  0
 16 12  1  0  0  0  0
 17 18  1  0  0  0  0
 18 10  1  0  0  0  0
 19 17  1  0  0  0  0
 20  9  1  0  0  0  0
 21 15  1  0  0  0  0
 22 12  1  0  0  0  0
 23 20  1  0  0  0  0
 24 22  1  0  0  0  0
M  END
> <CdId>
2840

> <Mol Weight>
330.3783

> <Formula>
C18H22N2O4

> <Click_ID>
CLK037H10 __ __ 

$$$$
