CLK028_G08
 OpenBabel03181404502D

 29 32  0  0  0  0  0  0  0  0999 V2000
    1.4954    0.0138    0.0000 C   0  0  0  0  0  0  0  0  0  0  0  0
    1.1757   -0.7391    0.0000 C   0  0  0  0  0  0  0  0  0  0  0  0
    1.7980   -1.2857    0.0000 N   0  0  0  0  0  0  0  0  0  0  0  0
    2.3205   -0.0550    0.0000 C   0  0  0  0  0  0  0  0  0  0  0  0
    2.4992   -0.8628    0.0000 C   0  0  0  0  0  0  0  0  0  0  0  0
    1.0726    0.7185    0.0000 N   0  0  0  0  0  0  0  0  0  0  0  0
   -0.1788    1.4164    0.0000 C   0  0  0  0  0  0  0  0  0  0  0  0
    0.2475    0.7048    0.0000 N   0  0  0  0  0  0  0  0  0  0  0  0
    0.9763   -2.4545    0.0000 C   0  0  0  0  0  0  0  0  0  0  0  0
    0.2304   -2.7983    0.0000 C   0  0  0  0  0  0  0  0  0  0  0  0
    0.3713   -0.9316    0.0000 O   0  0  0  0  0  0  0  0  0  0  0  0
   -1.4267    2.1004    0.0000 N   0  0  0  0  0  0  0  0  0  0  0  0
   -2.6470    1.3648    0.0000 C   0  0  0  0  0  0  0  0  0  0  0  0
   -2.2517    2.0867    0.0000 C   0  0  0  0  0  0  0  0  0  0  0  0
    1.7258   -2.1073    0.0000 C   0  0  0  0  0  0  0  0  0  0  0  0
    0.2200    2.1348    0.0000 O   0  0  0  0  0  0  0  0  0  0  0  0
   -1.0004    1.4026    0.0000 C   0  0  0  0  0  0  0  0  0  0  0  0
   -3.4755    1.3510    0.0000 C   0  0  0  0  0  0  0  0  0  0  0  0
    2.9186    0.5019    0.0000 C   0  0  0  0  0  0  0  0  0  0  0  0
    3.2899   -1.0967    0.0000 C   0  0  0  0  0  0  0  0  0  0  0  0
   -3.4996    2.7880    0.0000 C   0  0  0  0  0  0  0  0  0  0  0  0
   -2.6780    2.8017    0.0000 C   0  0  0  0  0  0  0  0  0  0  0  0
   -2.2242    0.6669    0.0000 C   0  0  0  0  0  0  0  0  0  0  0  0
   -3.8984    2.0661    0.0000 C   0  0  0  0  0  0  0  0  0  0  0  0
   -3.8846    0.6326    0.0000 C   0  0  0  0  0  0  0  0  0  0  0  0
    3.7059    0.2613    0.0000 C   0  0  0  0  0  0  0  0  0  0  0  0
    3.8949   -0.5431    0.0000 C   0  0  0  0  0  0  0  0  0  0  0  0
   -2.6264   -0.0653    0.0000 C   0  0  0  0  0  0  0  0  0  0  0  0
   -3.4584   -0.0790    0.0000 C   0  0  0  0  0  0  0  0  0  0  0  0
  2  1  1  0  0  0  0
  3  2  1  0  0  0  0
  4  1  1  0  0  0  0
  5  4  2  0  0  0  0
  5  3  1  0  0  0  0
  6  1  2  0  0  0  0
  7  8  1  0  0  0  0
  8  6  1  0  0  0  0
  9 15  1  0  0  0  0
 10  9  3  0  0  0  0
 11  2  2  0  0  0  0
 12 17  1  0  0  0  0
 13 14  1  0  0  0  0
 14 12  1  0  0  0  0
 15  3  1  0  0  0  0
 16  7  2  0  0  0  0
 17  7  1  0  0  0  0
 18 13  1  0  0  0  0
 19  4  1  0  0  0  0
 20  5  1  0  0  0  0
 21 22  1  0  0  0  0
 22 14  2  0  0  0  0
 23 13  2  0  0  0  0
 24 21  2  0  0  0  0
 24 18  1  0  0  0  0
 25 18  2  0  0  0  0
 26 19  2  0  0  0  0
 27 26  1  0  0  0  0
 27 20  2  0  0  0  0
 28 23  1  0  0  0  0
 29 28  2  0  0  0  0
 29 25  1  0  0  0  0
M  END
> <CdId>
2152

> <Mol Weight>
382.4146

> <Formula>
C23H18N4O2

> <Click_ID>
CLK028_G08 __ __ 

$$$$
