CLK004_H05
 OpenBabel03181404502D

 23 25  0  0  0  0  0  0  0  0999 V2000
    0.8171    0.1662    0.0000 C   0  0  3  0  0  0  0  0  0  0  0  0
    1.2257   -0.5505    0.0000 C   0  0  0  0  0  0  0  0  0  0  0  0
   -0.0103    0.1662    0.0000 C   0  0  0  0  0  0  0  0  0  0  0  0
    1.2326    0.8726    0.0000 C   0  0  0  0  0  0  0  0  0  0  0  0
    2.0532   -0.5575    0.0000 C   0  0  0  0  0  0  0  0  0  0  0  0
    0.9695   -1.3400    0.0000 C   0  0  0  0  0  0  0  0  0  0  0  0
   -0.4224   -0.5367    0.0000 C   0  0  0  0  0  0  0  0  0  0  0  0
   -0.4189    0.8933    0.0000 C   0  0  0  0  0  0  0  0  0  0  0  0
    2.0532    0.8690    0.0000 C   0  0  0  0  0  0  0  0  0  0  0  0
    0.8241    1.5962    0.0000 C   0  0  0  0  0  0  0  0  0  0  0  0
    2.4687    0.1523    0.0000 O   0  0  0  0  0  0  0  0  0  0  0  0
    2.3025   -1.3469    0.0000 N   0  0  0  0  0  0  0  0  0  0  0  0
    1.6343   -1.8282    0.0000 N   0  0  0  0  0  0  0  0  0  0  0  0
    0.1800   -1.5893    0.0000 C   0  0  0  0  0  0  0  0  0  0  0  0
   -1.2465   -0.5367    0.0000 C   0  0  0  0  0  0  0  0  0  0  0  0
   -1.2396    0.8933    0.0000 C   0  0  0  0  0  0  0  0  0  0  0  0
    2.4756    1.5858    0.0000 N   0  0  0  0  0  0  0  0  0  0  0  0
    0.4224    2.3128    0.0000 N   0  0  0  0  0  0  0  0  0  0  0  0
   -1.6654    0.1800    0.0000 C   0  0  0  0  0  0  0  0  0  0  0  0
   -2.4895    0.1800    0.0000 O   0  0  0  0  0  0  0  0  0  0  0  0
   -2.8980   -0.5228    0.0000 C   0  0  0  0  0  0  0  0  0  0  0  0
   -3.7221   -0.5332    0.0000 C   0  0  0  0  0  0  0  0  0  0  0  0
   -4.5392   -0.5228    0.0000 C   0  0  0  0  0  0  0  0  0  0  0  0
  1  2  1  0  0  0  0
  1  3  1  0  0  0  0
  1  4  1  0  0  0  0
  2  5  2  0  0  0  0
  2  6  1  0  0  0  0
  3  7  1  0  0  0  0
  3  8  2  0  0  0  0
  4  9  2  0  0  0  0
  4 10  1  0  0  0  0
  5 11  1  0  0  0  0
  5 12  1  0  0  0  0
  6 13  2  0  0  0  0
  6 14  1  0  0  0  0
  7 15  2  0  0  0  0
  8 16  1  0  0  0  0
  9 17  1  0  0  0  0
  9 11  1  0  0  0  0
 10 18  3  0  0  0  0
 12 13  1  0  0  0  0
 15 19  1  0  0  0  0
 16 19  2  0  0  0  0
 19 20  1  0  0  0  0
 20 21  1  0  0  0  0
 21 22  1  0  0  0  0
 22 23  3  0  0  0  0
M  END
> <CdId>
314

> <Mol Weight>
306.3187

> <Formula>
C17H14N4O2

> <Click_ID>
CLK004_H05 __ __ 

$$$$
