CLK028_E11
 OpenBabel03181404502D

 27 29  0  0  0  0  0  0  0  0999 V2000
   -2.2817    0.3372    0.0000 C    0  0  0  0  0  0  0  0  0  0  0  0
    2.8909    0.3510    0.0000 C    0  0  0  0  0  0  0  0  0  0  0  0
   -0.2856   -1.7104    0.0000 C    0  0  0  0  0  0  0  0  0  0  0  0
    0.5197   -1.9342    0.0000 C    0  0  0  0  0  0  0  0  0  0  0  0
   -0.9017    0.6917    0.0000 N    0  0  0  0  0  0  0  0  0  0  0  0
    0.4818    1.0359    0.0000 C    0  0  0  0  0  0  0  0  0  0  0  0
    3.4725    0.9327    0.0000 C    0  0  0  0  0  0  0  0  0  0  0  0
   -2.0821   -0.4543    0.0000 C    0  0  0  0  0  0  0  0  0  0  0  0
   -3.0802    0.5679    0.0000 C    0  0  0  0  0  0  0  0  0  0  0  0
    2.0994    0.5644    0.0000 C    0  0  0  0  0  0  0  0  0  0  0  0
    3.1042   -0.4405    0.0000 O    0  0  0  0  0  0  0  0  0  0  0  0
    4.2641    0.7193    0.0000 O    0  0  0  0  0  0  0  0  0  0  0  0
   -0.3029    1.2699    0.0000 N    0  0  0  0  0  0  0  0  0  0  0  0
   -1.6932    0.9154    0.0000 C    0  0  0  0  0  0  0  0  0  0  0  0
    1.8756    1.3697    0.0000 C    0  0  0  0  0  0  0  0  0  0  0  0
    0.6780    0.2271    0.0000 O    0  0  0  0  0  0  0  0  0  0  0  0
    3.2591    1.7242    0.0000 C    0  0  0  0  0  0  0  0  0  0  0  0
    1.0841    1.6072    0.0000 C    0  0  0  0  0  0  0  0  0  0  0  0
   -2.6775   -1.0325    0.0000 C    0  0  0  0  0  0  0  0  0  0  0  0
   -3.6790   -0.0103    0.0000 C    0  0  0  0  0  0  0  0  0  0  0  0
    2.4538    1.9376    0.0000 C    0  0  0  0  0  0  0  0  0  0  0  0
   -3.4691   -0.8053    0.0000 C    0  0  0  0  0  0  0  0  0  0  0  0
   -4.4809    0.2133    0.0000 Br   0  0  0  0  0  0  0  0  0  0  0  0
   -1.2803   -0.6780    0.0000 O    0  0  0  0  0  0  0  0  0  0  0  0
   -1.0772   -1.4833    0.0000 C    0  0  0  0  0  0  0  0  0  0  0  0
    3.9096   -0.6539    0.0000 C    0  0  0  0  0  0  0  0  0  0  0  0
    4.4774   -0.0826    0.0000 C    0  0  0  0  0  0  0  0  0  0  0  0
  2 10  2  0  0  0  0
  3 25  1  0  0  0  0
  4  3  3  0  0  0  0
  5 14  2  0  0  0  0
  6 13  1  0  0  0  0
  7 17  2  0  0  0  0
  7  2  1  0  0  0  0
  8  1  2  0  0  0  0
  9  1  1  0  0  0  0
 10 15  1  0  0  0  0
 11  2  1  0  0  0  0
 12  7  1  0  0  0  0
 13  5  1  0  0  0  0
 14  1  1  0  0  0  0
 15 18  1  0  0  0  0
 16  6  2  0  0  0  0
 17 21  1  0  0  0  0
 18  6  1  0  0  0  0
 19  8  1  0  0  0  0
 19 22  2  0  0  0  0
 20  9  2  0  0  0  0
 21 15  2  0  0  0  0
 22 20  1  0  0  0  0
 23 20  1  0  0  0  0
 24  8  1  0  0  0  0
 25 24  1  0  0  0  0
 26 11  1  0  0  0  0
 27 12  1  0  0  0  0
 27 26  1  0  0  0  0
M  END
> <CdId>
2135

> <Mol Weight>
429.264

> <Formula>
C20H17BrN2O4

> <Click_ID>
CLK028_E11 __ __ 

$$$$
