CLK014_G05
 OpenBabel03181404502D

 22 23  0  0  0  0  0  0  0  0999 V2000
    1.5596   -0.8130    0.0000 N    0  0  0  0  0  0  0  0  0  0  0  0
    1.8167   -1.5969    0.0000 C    0  0  0  0  0  0  0  0  0  0  0  0
    2.2273   -0.3277    0.0000 C    0  0  0  0  0  0  0  0  0  0  0  0
    2.8910   -0.8130    0.0000 C    0  0  0  0  0  0  0  0  0  0  0  0
    2.6379   -1.5969    0.0000 S    0  0  0  0  0  0  0  0  0  0  0  0
    3.6749   -0.5599    0.0000 C    0  0  0  0  0  0  0  0  0  0  0  0
    4.1975    1.8665    0.0000 C    0  0  0  0  0  0  0  0  0  0  0  0
    0.6097    0.2447    0.0000 C    0  0  0  0  0  0  0  0  0  0  0  0
    3.4094    1.6052    0.0000 C    0  0  0  0  0  0  0  0  0  0  0  0
    0.3899    1.0410    0.0000 C    0  0  0  0  0  0  0  0  0  0  0  0
    1.3314   -2.2564    0.0000 O    0  0  0  0  0  0  0  0  0  0  0  0
    2.2191    0.4935    0.0000 O    0  0  0  0  0  0  0  0  0  0  0  0
    3.8449    0.2447    0.0000 C    0  0  0  0  0  0  0  0  0  0  0  0
    4.3593    2.6628    0.0000 O    0  0  0  0  0  0  0  0  0  0  0  0
    0.7839   -0.5599    0.0000 C    0  0  0  0  0  0  0  0  0  0  0  0
    3.2352    0.7964    0.0000 C    0  0  0  0  0  0  0  0  0  0  0  0
    4.8072    1.3148    0.0000 C    0  0  0  0  0  0  0  0  0  0  0  0
    2.7997    2.1609    0.0000 Br   0  0  0  0  0  0  0  0  0  0  0  0
    4.6330    0.5060    0.0000 C    0  0  0  0  0  0  0  0  0  0  0  0
    5.1432    2.9199    0.0000 C    0  0  0  0  0  0  0  0  0  0  0  0
    5.7612    2.3724    0.0000 C    0  0  0  0  0  0  0  0  0  0  0  0
    5.3174    3.7287    0.0000 C    0  0  0  0  0  0  0  0  0  0  0  0
  2  1  1  0  0  0  0
  3  1  1  0  0  0  0
  4  3  1  0  0  0  0
  4  5  1  0  0  0  0
  5  2  1  0  0  0  0
  6  4  2  0  0  0  0
  7 17  1  0  0  0  0
  7  9  2  0  0  0  0
  8 15  1  0  0  0  0
  9 16  1  0  0  0  0
 10  8  3  0  0  0  0
 11  2  2  0  0  0  0
 12  3  2  0  0  0  0
 13  6  1  0  0  0  0
 14  7  1  0  0  0  0
 15  1  1  0  0  0  0
 16 13  2  0  0  0  0
 17 19  2  0  0  0  0
 18  9  1  0  0  0  0
 19 13  1  0  0  0  0
 20 14  1  0  0  0  0
 21 20  1  0  0  0  0
 22 20  1  0  0  0  0
M  END
> <CdId>
1060

> <Mol Weight>
380.256

> <Formula>
C16H14BrNO3S

> <Click_ID>
CLK014_G05 __ __ 

$$$$
