CLK010_C04
 OpenBabel03181404502D

 32 36  0  0  0  0  0  0  0  0999 V2000
    1.7075   -1.3400    0.0000 N   0  0  0  0  0  0  0  0  0  0  0  0
   -1.1709   -1.3660    0.0000 N   0  0  0  0  0  0  0  0  0  0  0  0
    1.8474   -0.5464    0.0000 C   0  0  0  0  0  0  0  0  0  0  0  0
   -1.8831   -1.7856    0.0000 C   0  0  0  0  0  0  0  0  0  0  0  0
   -1.1709   -0.5464    0.0000 C   0  0  0  0  0  0  0  0  0  0  0  0
    2.6670   -0.4326    0.0000 N   0  0  0  0  0  0  0  0  0  0  0  0
   -2.6019   -1.3790    0.0000 C   0  0  0  0  0  0  0  0  0  0  0  0
   -1.8831   -0.1301    0.0000 C   0  0  0  0  0  0  0  0  0  0  0  0
   -2.6019   -0.5464    0.0000 C   0  0  0  0  0  0  0  0  0  0  0  0
    0.9985   -1.7693    0.0000 C   0  0  0  0  0  0  0  0  0  0  0  0
    2.4198   -1.7563    0.0000 C   0  0  0  0  0  0  0  0  0  0  0  0
    3.0280   -1.1839    0.0000 C   0  0  0  0  0  0  0  0  0  0  0  0
   -0.4456   -1.7856    0.0000 C   0  0  0  0  0  0  0  0  0  0  0  0
    0.2634   -1.3660    0.0000 C   0  0  0  0  0  0  0  0  0  0  0  0
    0.9595    1.4148    0.0000 C   0  0  0  0  0  0  0  0  0  0  0  0
    1.1937    2.2018    0.0000 C   0  0  0  0  0  0  0  0  0  0  0  0
   -0.4456   -0.1301    0.0000 O   0  0  0  0  0  0  0  0  0  0  0  0
   -1.8831   -2.6182    0.0000 O   0  0  0  0  0  0  0  0  0  0  0  0
    1.3010    0.0488    0.0000 S   0  0  0  0  0  0  0  0  0  0  0  0
    0.9985   -2.6052    0.0000 O   0  0  0  0  0  0  0  0  0  0  0  0
   -3.3142   -0.1301    0.0000 C   0  0  0  0  0  0  0  0  0  0  0  0
   -3.3142   -1.7856    0.0000 C   0  0  0  0  0  0  0  0  0  0  0  0
   -1.9091    0.7025    0.0000 C   0  0  0  0  0  0  0  0  0  0  0  0
    1.5254    0.8294    0.0000 C   0  0  0  0  0  0  0  0  0  0  0  0
    2.6149   -2.5499    0.0000 C   0  0  0  0  0  0  0  0  0  0  0  0
    3.8086   -1.4083    0.0000 C   0  0  0  0  0  0  0  0  0  0  0  0
   -4.0264   -1.3660    0.0000 C   0  0  0  0  0  0  0  0  0  0  0  0
   -2.6019    1.0928    0.0000 C   0  0  0  0  0  0  0  0  0  0  0  0
   -3.3142    0.6895    0.0000 C   0  0  0  0  0  0  0  0  0  0  0  0
   -4.0264   -0.5594    0.0000 C   0  0  0  0  0  0  0  0  0  0  0  0
    3.3988   -2.7841    0.0000 C   0  0  0  0  0  0  0  0  0  0  0  0
    4.0037   -2.2149    0.0000 C   0  0  0  0  0  0  0  0  0  0  0  0
  2 13  1  0  0  0  0
  3  1  1  0  0  0  0
  4  2  1  0  0  0  0
  5  2  1  0  0  0  0
  6  3  2  0  0  0  0
  7  4  1  0  0  0  0
  8  5  1  0  0  0  0
  9  8  1  0  0  0  0
  9  7  2  0  0  0  0
 10  1  1  0  0  0  0
 11  1  1  0  0  0  0
 12 11  1  0  0  0  0
 12  6  1  0  0  0  0
 13 14  1  0  0  0  0
 14 10  1  0  0  0  0
 15 24  1  0  0  0  0
 16 15  3  0  0  0  0
 17  5  2  0  0  0  0
 18  4  2  0  0  0  0
 19  3  1  0  0  0  0
 20 10  2  0  0  0  0
 21  9  1  0  0  0  0
 21 29  1  0  0  0  0
 22  7  1  0  0  0  0
 23  8  2  0  0  0  0
 24 19  1  0  0  0  0
 25 11  2  0  0  0  0
 26 12  2  0  0  0  0
 26 32  1  0  0  0  0
 27 22  2  0  0  0  0
 28 23  1  0  0  0  0
 29 28  2  0  0  0  0
 30 21  2  0  0  0  0
 30 27  1  0  0  0  0
 31 25  1  0  0  0  0
 32 31  2  0  0  0  0
M  END
> <CdId>
699

> <Mol Weight>
439.486

> <Formula>
C25H17N3O3S

> <Click_ID>
CLK010_C04 __ __ 

$$$$
