CLK043F08
 OpenBabel03181404502D

 23 24  0  0  0  0  0  0  0  0999 V2000
   -0.5000    3.7667    0.0000 C   0  0  0  0  0  0  0  0  0  0  0  0
   -1.2125    4.1750    0.0000 C   0  0  0  0  0  0  0  0  0  0  0  0
    0.2167    0.8792    0.0000 C   0  0  0  0  0  0  0  0  0  0  0  0
    0.9292    1.2917    0.0000 N   0  0  0  0  0  0  0  0  0  0  0  0
   -0.5000   -3.6583    0.0000 C   0  0  0  0  0  0  0  0  0  0  0  0
   -0.5000   -2.8333    0.0000 C   0  0  0  0  0  0  0  0  0  0  0  0
    0.9292    2.1167    0.0000 C   0  0  0  0  0  0  0  0  0  0  0  0
   -0.5000    1.2917    0.0000 O   0  0  0  0  0  0  0  0  0  0  0  0
   -1.2125   -4.0708    0.0000 O   0  0  0  0  0  0  0  0  0  0  0  0
    0.2167   -2.4208    0.0000 C   0  0  0  0  0  0  0  0  0  0  0  0
   -1.2125   -2.4208    0.0000 C   0  0  0  0  0  0  0  0  0  0  0  0
    0.2167    3.3542    0.0000 C   0  0  0  0  0  0  0  0  0  0  0  0
   -0.5000   -0.3583    0.0000 O   0  0  0  0  0  0  0  0  0  0  0  0
    0.2167    0.0542    0.0000 C   0  0  0  0  0  0  0  0  0  0  0  0
    0.2167    2.5292    0.0000 C   0  0  0  0  0  0  0  0  0  0  0  0
   -0.5000   -1.1833    0.0000 C   0  0  0  0  0  0  0  0  0  0  0  0
   -1.2125   -1.5958    0.0000 C   0  0  0  0  0  0  0  0  0  0  0  0
    0.2167   -1.5958    0.0000 C   0  0  0  0  0  0  0  0  0  0  0  0
    1.6458    3.3542    0.0000 C   0  0  0  0  0  0  0  0  0  0  0  0
    0.2167   -4.0708    0.0000 C   0  0  0  0  0  0  0  0  0  0  0  0
    1.6458    2.5292    0.0000 C   0  0  0  0  0  0  0  0  0  0  0  0
    0.9292    3.7667    0.0000 C   0  0  0  0  0  0  0  0  0  0  0  0
    0.2167   -4.8958    0.0000 C   0  0  0  0  0  0  0  0  0  0  0  0
  2  1  3  0  0  0  0
  3  4  1  0  0  0  0
  4  7  1  0  0  0  0
  5  6  1  0  0  0  0
  6 11  2  0  0  0  0
  7 15  2  0  0  0  0
  8  3  2  0  0  0  0
  9  5  2  0  0  0  0
 10 18  2  0  0  0  0
 10  6  1  0  0  0  0
 11 17  1  0  0  0  0
 12  1  1  0  0  0  0
 13 14  1  0  0  0  0
 14  3  1  0  0  0  0
 15 12  1  0  0  0  0
 16 13  1  0  0  0  0
 17 16  2  0  0  0  0
 18 16  1  0  0  0  0
 19 22  1  0  0  0  0
 19 21  2  0  0  0  0
 20  5  1  0  0  0  0
 21  7  1  0  0  0  0
 22 12  2  0  0  0  0
 23 20  1  0  0  0  0
M  END
> <CdId>
3302

> <Mol Weight>
307.3432

> <Formula>
C19H17NO3

> <Click_ID>
CLK043F08 __ __ 

$$$$
