CLK038E05
 OpenBabel03181404502D

 16 16  0  0  0  0  0  0  0  0999 V2000
    0.4458   -0.2542    0.0000 C   0  0  0  0  0  0  0  0  0  0  0  0
    1.1583   -2.3167    0.0000 C   0  0  0  0  0  0  0  0  0  0  0  0
    1.1583   -3.1417    0.0000 C   0  0  0  0  0  0  0  0  0  0  0  0
   -0.2708    0.1583    0.0000 C   0  0  3  0  0  0  0  0  0  0  0  0
    1.1583    0.1583    0.0000 O   0  0  0  0  0  0  0  0  0  0  0  0
   -0.2708    0.9833    0.0000 C   0  0  0  0  0  0  0  0  0  0  0  0
    0.4458   -1.0792    0.0000 N   0  0  0  0  0  0  0  0  0  0  0  0
    1.1583   -1.4917    0.0000 C   0  0  0  0  0  0  0  0  0  0  0  0
   -0.9833   -0.2542    0.0000 C   0  0  0  0  0  0  0  0  0  0  0  0
    0.4458    1.3958    0.0000 C   0  0  0  0  0  0  0  0  0  0  0  0
   -0.9833    1.3958    0.0000 C   0  0  0  0  0  0  0  0  0  0  0  0
   -0.9833   -1.0792    0.0000 C   0  0  0  0  0  0  0  0  0  0  0  0
   -1.7000   -1.4917    0.0000 C   0  0  0  0  0  0  0  0  0  0  0  0
   -0.9833    2.2208    0.0000 C   0  0  0  0  0  0  0  0  0  0  0  0
    0.4458    2.2208    0.0000 C   0  0  0  0  0  0  0  0  0  0  0  0
   -0.2708    2.6333    0.0000 C   0  0  0  0  0  0  0  0  0  0  0  0
  2  8  1  0  0  0  0
  3  2  3  0  0  0  0
  4  1  1  0  0  0  0
  5  1  2  0  0  0  0
  6  4  1  0  0  0  0
  7  1  1  0  0  0  0
  8  7  1  0  0  0  0
  9  4  1  0  0  0  0
 10  6  1  0  0  0  0
 11  6  2  0  0  0  0
 12  9  1  0  0  0  0
 13 12  1  0  0  0  0
 14 11  1  0  0  0  0
 15 10  2  0  0  0  0
 16 14  2  0  0  0  0
 16 15  1  0  0  0  0
M  END
> <CdId>
2877

> <Mol Weight>
215.2909

> <Formula>
C14H17NO

> <Click_ID>
CLK038E05 __ __ 

$$$$
