CLK011_G02
 OpenBabel03181404502D

 27 29  0  0  0  0  0  0  0  0999 V2000
    3.1701   -0.8187    0.0000 N   0  0  0  0  0  0  0  0  0  0  0  0
    2.9112   -1.6081    0.0000 C   0  0  0  0  0  0  0  0  0  0  0  0
    2.4977   -0.3300    0.0000 C   0  0  0  0  0  0  0  0  0  0  0  0
    1.8336   -0.8187    0.0000 C   0  0  0  0  0  0  0  0  0  0  0  0
    2.0842   -1.6081    0.0000 S   0  0  0  0  0  0  0  0  0  0  0  0
    1.0442   -0.5639    0.0000 C   0  0  0  0  0  0  0  0  0  0  0  0
   -2.7900   -3.0615    0.0000 C   0  0  0  0  0  0  0  0  0  0  0  0
    3.9595   -0.5639    0.0000 C   0  0  0  0  0  0  0  0  0  0  0  0
   -3.4082   -3.6087    0.0000 C   0  0  0  0  0  0  0  0  0  0  0  0
    3.3999   -2.2722    0.0000 O   0  0  0  0  0  0  0  0  0  0  0  0
    0.0000   -2.4726    0.0000 C   0  0  0  0  0  0  0  0  0  0  0  0
    2.4977    0.4970    0.0000 O   0  0  0  0  0  0  0  0  0  0  0  0
    0.4386   -1.1194    0.0000 C   0  0  0  0  0  0  0  0  0  0  0  0
    0.6057   -1.9213    0.0000 C   0  0  0  0  0  0  0  0  0  0  0  0
   -0.7769   -2.2220    0.0000 C   0  0  0  0  0  0  0  0  0  0  0  0
   -0.9481   -1.4201    0.0000 C   0  0  0  0  0  0  0  0  0  0  0  0
   -0.3341   -0.8688    0.0000 C   0  0  0  0  0  0  0  0  0  0  0  0
    0.1671   -3.2746    0.0000 O   0  0  0  0  0  0  0  0  0  0  0  0
   -1.3992   -2.7691    0.0000 O   0  0  0  0  0  0  0  0  0  0  0  0
   -2.1760   -2.5102    0.0000 C   0  0  0  0  0  0  0  0  0  0  0  0
    4.5652   -1.1194    0.0000 C   0  0  0  0  0  0  0  0  0  0  0  0
    4.1266    0.2464    0.0000 C   0  0  0  0  0  0  0  0  0  0  0  0
    0.9440   -3.5252    0.0000 C   0  0  0  0  0  0  0  0  0  0  0  0
    1.1194   -4.3271    0.0000 C   0  0  0  0  0  0  0  0  0  0  0  0
    5.3545   -0.8688    0.0000 C   0  0  0  0  0  0  0  0  0  0  0  0
    4.9160    0.4970    0.0000 C   0  0  0  0  0  0  0  0  0  0  0  0
    5.5300   -0.0627    0.0000 C   0  0  0  0  0  0  0  0  0  0  0  0
  2  1  1  0  0  0  0
  3  1  1  0  0  0  0
  4  3  1  0  0  0  0
  5  2  1  0  0  0  0
  5  4  1  0  0  0  0
  6  4  2  0  0  0  0
  7 20  1  0  0  0  0
  8  1  1  0  0  0  0
  9  7  3  0  0  0  0
 10  2  2  0  0  0  0
 11 14  1  0  0  0  0
 12  3  2  0  0  0  0
 13  6  1  0  0  0  0
 14 13  2  0  0  0  0
 15 16  1  0  0  0  0
 15 11  2  0  0  0  0
 16 17  2  0  0  0  0
 17 13  1  0  0  0  0
 18 11  1  0  0  0  0
 19 15  1  0  0  0  0
 20 19  1  0  0  0  0
 21  8  2  0  0  0  0
 22  8  1  0  0  0  0
 23 18  1  0  0  0  0
 24 23  1  0  0  0  0
 25 21  1  0  0  0  0
 26 22  2  0  0  0  0
 27 26  1  0  0  0  0
 27 25  2  0  0  0  0
M  END
> <CdId>
817

> <Mol Weight>
379.429

> <Formula>
C21H17NO4S

> <Click_ID>
CLK011_G02 __ __ 

$$$$
