CLK007_G02
 OpenBabel03181404502D

 33 37  0  0  0  0  0  0  0  0999 V2000
   -0.1657    0.5764    0.0000 C    0  0  3  0  0  0  0  0  0  0  0  0
   -0.8767    0.1657    0.0000 C    0  0  0  0  0  0  0  0  0  0  0  0
    0.6282    0.7904    0.0000 C    0  0  0  0  0  0  0  0  0  0  0  0
    0.5488    0.1657    0.0000 C    0  0  0  0  0  0  0  0  0  0  0  0
   -0.6144    1.2667    0.0000 C    0  0  0  0  0  0  0  0  0  0  0  0
   -0.8870   -0.6627    0.0000 C    0  0  0  0  0  0  0  0  0  0  0  0
   -1.5912    0.5764    0.0000 C    0  0  0  0  0  0  0  0  0  0  0  0
    0.6730    1.6153    0.0000 C    0  0  0  0  0  0  0  0  0  0  0  0
    1.3253    0.3520    0.0000 C    0  0  0  0  0  0  0  0  0  0  0  0
    0.5488   -0.6627    0.0000 C    0  0  0  0  0  0  0  0  0  0  0  0
    1.2633   -0.2485    0.0000 C    0  0  0  0  0  0  0  0  0  0  0  0
   -0.1001    1.9156    0.0000 N    0  0  0  0  0  0  0  0  0  0  0  0
   -1.2011    1.8534    0.0000 O    0  0  0  0  0  0  0  0  0  0  0  0
   -0.1726   -1.0734    0.0000 N    0  0  0  0  0  0  0  0  0  0  0  0
   -1.5912   -1.0734    0.0000 C    0  0  0  0  0  0  0  0  0  0  0  0
   -2.3022    0.1657    0.0000 C    0  0  0  0  0  0  0  0  0  0  0  0
   -2.1779    1.1666    0.0000 O    0  0  0  0  0  0  0  0  0  0  0  0
    1.4047    2.0019    0.0000 C    0  0  0  0  0  0  0  0  0  0  0  0
    2.0640    0.7283    0.0000 C    0  0  0  0  0  0  0  0  0  0  0  0
    1.2529   -1.0872    0.0000 N    0  0  0  0  0  0  0  0  0  0  0  0
    1.9742   -0.6627    0.0000 N    0  0  0  0  0  0  0  0  0  0  0  0
   -0.3210    2.7094    0.0000 C    0  0  0  0  0  0  0  0  0  0  0  0
   -0.1761   -1.9018    0.0000 C    0  0  0  0  0  0  0  0  0  0  0  0
   -2.3022   -0.6627    0.0000 C    0  0  0  0  0  0  0  0  0  0  0  0
    2.1020    1.5532    0.0000 C    0  0  0  0  0  0  0  0  0  0  0  0
    0.2519    3.2962    0.0000 C    0  0  0  0  0  0  0  0  0  0  0  0
    0.5350   -2.3125    0.0000 C    0  0  0  0  0  0  0  0  0  0  0  0
   -0.8974   -2.3022    0.0000 C    0  0  0  0  0  0  0  0  0  0  0  0
    0.0414    4.0935    0.0000 C    0  0  0  0  0  0  0  0  0  0  0  0
    0.5281   -3.1374    0.0000 C    0  0  0  0  0  0  0  0  0  0  0  0
    1.3288   -2.5265    0.0000 Cl   0  0  0  0  0  0  0  0  0  0  0  0
   -0.9008   -3.1270    0.0000 C    0  0  0  0  0  0  0  0  0  0  0  0
   -0.1899   -3.5516    0.0000 C    0  0  0  0  0  0  0  0  0  0  0  0
  1  2  1  0  0  0  0
  1  3  1  0  0  0  0
  1  4  1  0  0  0  0
  1  5  1  0  0  0  0
  2  6  2  0  0  0  0
  2  7  1  0  0  0  0
  3  8  2  0  0  0  0
  3  9  1  0  0  0  0
  4 10  2  0  0  0  0
  4 11  1  0  0  0  0
  5 12  1  0  0  0  0
  5 13  2  0  0  0  0
  6 14  1  0  0  0  0
  6 15  1  0  0  0  0
  7 16  1  0  0  0  0
  7 17  2  0  0  0  0
  8 18  1  0  0  0  0
  8 12  1  0  0  0  0
  9 19  2  0  0  0  0
 10 20  1  0  0  0  0
 10 14  1  0  0  0  0
 11 21  3  0  0  0  0
 12 22  1  0  0  0  0
 14 23  1  0  0  0  0
 15 24  1  0  0  0  0
 16 24  1  0  0  0  0
 18 25  2  0  0  0  0
 19 25  1  0  0  0  0
 22 26  1  0  0  0  0
 23 27  1  0  0  0  0
 23 28  2  0  0  0  0
 26 29  3  0  0  0  0
 27 30  2  0  0  0  0
 27 31  1  0  0  0  0
 28 32  1  0  0  0  0
 30 33  1  0  0  0  0
 32 33  2  0  0  0  0
M  END
> <CdId>
541

> <Mol Weight>
454.908

> <Formula>
C26H19ClN4O2

> <Click_ID>
CLK007_G02 __ __ 

$$$$
