CLK048F11
 OpenBabel03181404502D

 14 14  0  0  0  0  0  0  0  0999 V2000
    0.4042   -0.1167    0.0000 C    0  0  0  0  0  0  0  0  0  0  0  0
   -0.3083   -0.5292    0.0000 C    0  0  0  0  0  0  0  0  0  0  0  0
   -2.4500   -0.1167    0.0000 C    0  0  0  0  0  0  0  0  0  0  0  0
   -3.1667    0.2958    0.0000 C    0  0  0  0  0  0  0  0  0  0  0  0
    1.1208   -0.5292    0.0000 C    0  0  0  0  0  0  0  0  0  0  0  0
    0.4042    0.7083    0.0000 C    0  0  0  0  0  0  0  0  0  0  0  0
   -0.3083   -1.3542    0.0000 O    0  0  0  0  0  0  0  0  0  0  0  0
   -1.0208   -0.1167    0.0000 N    0  0  0  0  0  0  0  0  0  0  0  0
    1.8333   -0.1167    0.0000 C    0  0  0  0  0  0  0  0  0  0  0  0
    1.1208    1.1208    0.0000 C    0  0  0  0  0  0  0  0  0  0  0  0
    1.8333    0.7083    0.0000 C    0  0  0  0  0  0  0  0  0  0  0  0
    1.1208   -1.3542    0.0000 O    0  0  0  0  0  0  0  0  0  0  0  0
    1.1208    1.9458    0.0000 Cl   0  0  0  0  0  0  0  0  0  0  0  0
   -1.7375   -0.5292    0.0000 C    0  0  0  0  0  0  0  0  0  0  0  0
  2  1  1  0  0  0  0
  3 14  1  0  0  0  0
  4  3  3  0  0  0  0
  5  1  2  0  0  0  0
  6  1  1  0  0  0  0
  7  2  2  0  0  0  0
  8  2  1  0  0  0  0
  9  5  1  0  0  0  0
 10  6  2  0  0  0  0
 10 11  1  0  0  0  0
 11  9  2  0  0  0  0
 12  5  1  0  0  0  0
 13 10  1  0  0  0  0
 14  8  1  0  0  0  0
M  END
> <CdId>
3726

> <Mol Weight>
209.629

> <Formula>
C10H8ClNO2

> <Click_ID>
CLK048F11 __ __ 

$$$$
