CLK016_E08
 OpenBabel03181404502D

 30 33  0  0  0  0  0  0  0  0999 V2000
    1.5701   -0.8185    0.0000 N   0  0  0  0  0  0  0  0  0  0  0  0
    1.8290   -1.6077    0.0000 C   0  0  0  0  0  0  0  0  0  0  0  0
    2.9106   -0.8185    0.0000 C   0  0  0  0  0  0  0  0  0  0  0  0
    2.2424   -0.3299    0.0000 C   0  0  0  0  0  0  0  0  0  0  0  0
    2.6558   -1.6077    0.0000 S   0  0  0  0  0  0  0  0  0  0  0  0
    3.9837   -0.4677    0.0000 C   0  0  0  0  0  0  0  0  0  0  0  0
    4.1591    0.3340    0.0000 C   0  0  0  0  0  0  0  0  0  0  0  0
    4.9400    0.5846    0.0000 C   0  0  0  0  0  0  0  0  0  0  0  0
    0.6138    0.2463    0.0000 C   0  0  0  0  0  0  0  0  0  0  0  0
    0.3926    1.0481    0.0000 C   0  0  0  0  0  0  0  0  0  0  0  0
    3.5494    0.8894    0.0000 C   0  0  0  0  0  0  0  0  0  0  0  0
    1.3404   -2.2717    0.0000 O   0  0  0  0  0  0  0  0  0  0  0  0
    2.2341    0.4969    0.0000 O   0  0  0  0  0  0  0  0  0  0  0  0
    0.7892   -0.5637    0.0000 C   0  0  0  0  0  0  0  0  0  0  0  0
    2.7602    0.6389    0.0000 O   0  0  0  0  0  0  0  0  0  0  0  0
    5.1154    1.3905    0.0000 C   0  0  0  0  0  0  0  0  0  0  0  0
    3.7206    1.6995    0.0000 C   0  0  0  0  0  0  0  0  0  0  0  0
    4.5015    1.9501    0.0000 C   0  0  0  0  0  0  0  0  0  0  0  0
    2.1547    1.1984    0.0000 C   0  0  0  0  0  0  0  0  0  0  0  0
    2.6851    3.6162    0.0000 C   0  0  0  0  0  0  0  0  0  0  0  0
    2.3218    2.0002    0.0000 C   0  0  0  0  0  0  0  0  0  0  0  0
    2.8688    4.4013    0.0000 F   0  0  0  0  0  0  0  0  0  0  0  0
    3.2947    3.0525    0.0000 C   0  0  0  0  0  0  0  0  0  0  0  0
    1.8958    3.3656    0.0000 C   0  0  0  0  0  0  0  0  0  0  0  0
    1.7205    2.5514    0.0000 C   0  0  0  0  0  0  0  0  0  0  0  0
    3.1193    2.2507    0.0000 C   0  0  0  0  0  0  0  0  0  0  0  0
    5.5538    0.0334    0.0000 C   0  0  0  0  0  0  0  0  0  0  0  0
    5.8921    1.6494    0.0000 C   0  0  0  0  0  0  0  0  0  0  0  0
    6.3305    0.2881    0.0000 C   0  0  0  0  0  0  0  0  0  0  0  0
    6.5059    1.0982    0.0000 C   0  0  0  0  0  0  0  0  0  0  0  0
  2  1  1  0  0  0  0
  3  4  1  0  0  0  0
  3  5  1  0  0  0  0
  4  1  1  0  0  0  0
  5  2  1  0  0  0  0
  6  3  2  0  0  0  0
  7  6  1  0  0  0  0
  8  7  1  0  0  0  0
  9 14  1  0  0  0  0
 10  9  3  0  0  0  0
 11  7  2  0  0  0  0
 12  2  2  0  0  0  0
 13  4  2  0  0  0  0
 14  1  1  0  0  0  0
 15 11  1  0  0  0  0
 16  8  1  0  0  0  0
 16 18  1  0  0  0  0
 17 11  1  0  0  0  0
 18 17  2  0  0  0  0
 19 15  1  0  0  0  0
 20 23  2  0  0  0  0
 21 19  1  0  0  0  0
 22 20  1  0  0  0  0
 23 26  1  0  0  0  0
 24 25  2  0  0  0  0
 24 20  1  0  0  0  0
 25 21  1  0  0  0  0
 26 21  2  0  0  0  0
 27  8  2  0  0  0  0
 28 16  2  0  0  0  0
 29 27  1  0  0  0  0
 30 29  2  0  0  0  0
 30 28  1  0  0  0  0
M  END
> <CdId>
1203

> <Mol Weight>
417.452

> <Formula>
C24H16FNO3S

> <Click_ID>
CLK016_E08 __ __ 

$$$$
