CLK023_D03
 OpenBabel03181404502D

 27 30  0  0  0  0  0  0  0  0999 V2000
   -2.4687   -0.2095    0.0000 N    0  0  0  0  0  0  0  0  0  0  0  0
   -1.9812    0.4532    0.0000 C    0  0  0  0  0  0  0  0  0  0  0  0
   -1.9846   -0.8824    0.0000 C    0  0  0  0  0  0  0  0  0  0  0  0
   -1.2052   -0.6318    0.0000 C    0  0  0  0  0  0  0  0  0  0  0  0
   -2.4584    1.1159    0.0000 N    0  0  0  0  0  0  0  0  0  0  0  0
   -1.1949    0.1889    0.0000 S    0  0  0  0  0  0  0  0  0  0  0  0
   -3.2447    0.0377    0.0000 C    0  0  0  0  0  0  0  0  0  0  0  0
   -3.2447    0.8584    0.0000 C    0  0  0  0  0  0  0  0  0  0  0  0
   -0.5391   -1.1193    0.0000 C    0  0  0  0  0  0  0  0  0  0  0  0
    1.7271   -0.1201    0.0000 C    0  0  0  0  0  0  0  0  0  0  0  0
    1.6378   -0.9374    0.0000 C    0  0  0  0  0  0  0  0  0  0  0  0
    1.0713    0.3674    0.0000 C    0  0  0  0  0  0  0  0  0  0  0  0
    0.2232   -0.7829    0.0000 C    0  0  0  0  0  0  0  0  0  0  0  0
    3.9178    0.0309    0.0000 C    0  0  0  0  0  0  0  0  0  0  0  0
    4.6663    0.3640    0.0000 C    0  0  0  0  0  0  0  0  0  0  0  0
   -2.2421   -1.6619    0.0000 O    0  0  0  0  0  0  0  0  0  0  0  0
    0.8756   -1.2738    0.0000 C    0  0  0  0  0  0  0  0  0  0  0  0
    0.3125    0.0377    0.0000 C    0  0  0  0  0  0  0  0  0  0  0  0
    2.3005   -1.4353    0.0000 Br   0  0  0  0  0  0  0  0  0  0  0  0
    2.4893    0.2026    0.0000 O    0  0  0  0  0  0  0  0  0  0  0  0
    1.1640    1.1778    0.0000 O    0  0  0  0  0  0  0  0  0  0  0  0
    3.1520   -0.2953    0.0000 C    0  0  0  0  0  0  0  0  0  0  0  0
   -3.9590   -0.3743    0.0000 C    0  0  0  0  0  0  0  0  0  0  0  0
   -3.9590    1.2773    0.0000 C    0  0  0  0  0  0  0  0  0  0  0  0
    0.5116    1.6653    0.0000 C    0  0  0  0  0  0  0  0  0  0  0  0
   -4.6697    0.0309    0.0000 C    0  0  0  0  0  0  0  0  0  0  0  0
   -4.6697    0.8584    0.0000 C    0  0  0  0  0  0  0  0  0  0  0  0
  2  1  1  0  0  0  0
  3  1  1  0  0  0  0
  4  3  1  0  0  0  0
  4  6  1  0  0  0  0
  5  2  2  0  0  0  0
  5  8  1  0  0  0  0
  6  2  1  0  0  0  0
  7  1  1  0  0  0  0
  8  7  1  0  0  0  0
  9  4  2  0  0  0  0
 10 12  2  0  0  0  0
 11 17  2  0  0  0  0
 11 10  1  0  0  0  0
 12 18  1  0  0  0  0
 13  9  1  0  0  0  0
 14 22  1  0  0  0  0
 15 14  3  0  0  0  0
 16  3  2  0  0  0  0
 17 13  1  0  0  0  0
 18 13  2  0  0  0  0
 19 11  1  0  0  0  0
 20 10  1  0  0  0  0
 21 12  1  0  0  0  0
 22 20  1  0  0  0  0
 23  7  2  0  0  0  0
 24  8  2  0  0  0  0
 24 27  1  0  0  0  0
 25 21  1  0  0  0  0
 26 23  1  0  0  0  0
 27 26  2  0  0  0  0
M  END
> <CdId>
1728

> <Mol Weight>
441.298

> <Formula>
C20H13BrN2O3S

> <Click_ID>
CLK023_D03 __ __ 

$$$$
