CLK024_F06
 OpenBabel03181404502D

 23 25  0  0  0  0  0  0  0  0999 V2000
    3.0891    0.0000    0.0000 C   0  0  0  0  0  0  0  0  0  0  0  0
   -1.9311    0.5738    0.0000 N   0  0  0  0  0  0  0  0  0  0  0  0
    2.6115   -0.6666    0.0000 N   0  0  0  0  0  0  0  0  0  0  0  0
   -2.3435   -0.1375    0.0000 C   0  0  0  0  0  0  0  0  0  0  0  0
    2.6046    0.6700    0.0000 N   0  0  0  0  0  0  0  0  0  0  0  0
   -1.1236    0.4089    0.0000 C   0  0  0  0  0  0  0  0  0  0  0  0
   -1.0446   -0.4123    0.0000 C   0  0  0  0  0  0  0  0  0  0  0  0
    1.8246   -0.4158    0.0000 C   0  0  0  0  0  0  0  0  0  0  0  0
   -1.7937   -0.7490    0.0000 S   0  0  0  0  0  0  0  0  0  0  0  0
    1.8246    0.4089    0.0000 C   0  0  0  0  0  0  0  0  0  0  0  0
   -0.3230   -0.8281    0.0000 C   0  0  0  0  0  0  0  0  0  0  0  0
   -3.0857    1.4123    0.0000 C   0  0  0  0  0  0  0  0  0  0  0  0
    1.1030    0.8212    0.0000 C   0  0  0  0  0  0  0  0  0  0  0  0
   -3.9172    1.4569    0.0000 C   0  0  0  0  0  0  0  0  0  0  0  0
    3.9137    0.0068    0.0000 O   0  0  0  0  0  0  0  0  0  0  0  0
    1.0995   -0.8247    0.0000 C   0  0  0  0  0  0  0  0  0  0  0  0
   -3.1612   -0.2165    0.0000 O   0  0  0  0  0  0  0  0  0  0  0  0
   -0.5120    0.9587    0.0000 O   0  0  0  0  0  0  0  0  0  0  0  0
    0.3917   -0.4158    0.0000 C   0  0  0  0  0  0  0  0  0  0  0  0
   -2.2678    1.3229    0.0000 C   0  0  0  0  0  0  0  0  0  0  0  0
    0.3986    0.4123    0.0000 C   0  0  0  0  0  0  0  0  0  0  0  0
    2.8623   -1.4535    0.0000 C   0  0  0  0  0  0  0  0  0  0  0  0
    2.8623    1.4569    0.0000 C   0  0  0  0  0  0  0  0  0  0  0  0
  2  6  1  0  0  0  0
  2  4  1  0  0  0  0
  3  1  1  0  0  0  0
  4  9  1  0  0  0  0
  5  1  1  0  0  0  0
  6  7  1  0  0  0  0
  7 11  2  0  0  0  0
  8  3  1  0  0  0  0
  8 10  1  0  0  0  0
  9  7  1  0  0  0  0
 10  5  1  0  0  0  0
 11 19  1  0  0  0  0
 12 20  1  0  0  0  0
 13 10  2  0  0  0  0
 14 12  3  0  0  0  0
 15  1  2  0  0  0  0
 16  8  2  0  0  0  0
 17  4  2  0  0  0  0
 18  6  2  0  0  0  0
 19 16  1  0  0  0  0
 19 21  2  0  0  0  0
 20  2  1  0  0  0  0
 21 13  1  0  0  0  0
 22  3  1  0  0  0  0
 23  5  1  0  0  0  0
M  END
> <CdId>
1831

> <Mol Weight>
327.358

> <Formula>
C16H13N3O3S

> <Click_ID>
CLK024_F06 __ __ 

$$$$
