CLK030_D02
 OpenBabel03181404502D

 25 28  0  0  0  0  0  0  0  0999 V2000
   -1.1625    2.3833    0.0000 C    0  0  0  0  0  0  0  0  0  0  0  0
   -0.3375    2.3750    0.0000 N    0  0  0  0  0  0  0  0  0  0  0  0
    0.9000    3.0875    0.0000 C    0  0  0  0  0  0  0  0  0  0  0  0
   -1.6458    1.7208    0.0000 N    0  0  0  0  0  0  0  0  0  0  0  0
   -1.6458    3.0500    0.0000 S    0  0  0  0  0  0  0  0  0  0  0  0
    1.3917    3.7708    0.0000 N    0  0  0  0  0  0  0  0  0  0  0  0
    0.0750    3.0875    0.0000 C    0  0  0  0  0  0  0  0  0  0  0  0
   -2.4333    2.7958    0.0000 C    0  0  0  0  0  0  0  0  0  0  0  0
    1.3750    2.4333    0.0000 S    0  0  0  0  0  0  0  0  0  0  0  0
   -2.4333    1.9708    0.0000 C    0  0  0  0  0  0  0  0  0  0  0  0
    2.1792    3.5000    0.0000 C    0  0  0  0  0  0  0  0  0  0  0  0
    2.1542    2.6708    0.0000 C    0  0  0  0  0  0  0  0  0  0  0  0
   -3.1458    3.2083    0.0000 C    0  0  0  0  0  0  0  0  0  0  0  0
   -1.9458    0.3208    0.0000 C    0  0  0  0  0  0  0  0  0  0  0  0
   -2.4958   -0.2917    0.0000 C    0  0  0  0  0  0  0  0  0  0  0  0
   -3.1458    1.5583    0.0000 C    0  0  0  0  0  0  0  0  0  0  0  0
   -0.3375    3.8000    0.0000 O    0  0  0  0  0  0  0  0  0  0  0  0
   -1.3958    0.9333    0.0000 C    0  0  0  0  0  0  0  0  0  0  0  0
   -3.8583    2.7958    0.0000 C    0  0  0  0  0  0  0  0  0  0  0  0
   -3.8583    1.9708    0.0000 C    0  0  0  0  0  0  0  0  0  0  0  0
   -4.5833    3.2125    0.0000 Br   0  0  0  0  0  0  0  0  0  0  0  0
    2.9042    3.9083    0.0000 C    0  0  0  0  0  0  0  0  0  0  0  0
    2.8750    2.2458    0.0000 C    0  0  0  0  0  0  0  0  0  0  0  0
    3.5917    2.6333    0.0000 C    0  0  0  0  0  0  0  0  0  0  0  0
    3.6167    3.4833    0.0000 C    0  0  0  0  0  0  0  0  0  0  0  0
  2  1  2  0  0  0  0
  3  7  1  0  0  0  0
  4  1  1  0  0  0  0
  5  1  1  0  0  0  0
  6  3  2  0  0  0  0
  7  2  1  0  0  0  0
  8  5  1  0  0  0  0
  8 10  2  0  0  0  0
  9  3  1  0  0  0  0
 10  4  1  0  0  0  0
 11  6  1  0  0  0  0
 11 12  2  0  0  0  0
 12  9  1  0  0  0  0
 13  8  1  0  0  0  0
 14 18  1  0  0  0  0
 15 14  3  0  0  0  0
 16 10  1  0  0  0  0
 17  7  2  0  0  0  0
 18  4  1  0  0  0  0
 19 13  2  0  0  0  0
 19 20  1  0  0  0  0
 20 16  2  0  0  0  0
 21 19  1  0  0  0  0
 22 11  1  0  0  0  0
 23 12  1  0  0  0  0
 24 23  2  0  0  0  0
 25 22  2  0  0  0  0
 25 24  1  0  0  0  0
M  END
> <CdId>
2276

> <Mol Weight>
428.326

> <Formula>
C18H10BrN3OS2

> <Click_ID>
CLK030_D02 __ __ 

$$$$
