CLK006_B11
 OpenBabel03181404502D

 29 31  0  0  0  0  0  0  0  0999 V2000
   -0.7887   -1.2060    0.0000 N    0  0  0  0  0  0  0  0  0  0  0  0
   -0.5466   -1.9947    0.0000 C    0  0  0  0  0  0  0  0  0  0  0  0
   -0.1252   -0.7261    0.0000 C    0  0  0  0  0  0  0  0  0  0  0  0
    0.5425   -1.2060    0.0000 C    0  0  0  0  0  0  0  0  0  0  0  0
    0.2796   -1.9947    0.0000 S    0  0  0  0  0  0  0  0  0  0  0  0
   -1.5857   -0.9556    0.0000 C    0  0  0  0  0  0  0  0  0  0  0  0
   -2.1908   -1.5065    0.0000 C    0  0  0  0  0  0  0  0  0  0  0  0
    1.3312   -0.9556    0.0000 C    0  0  0  0  0  0  0  0  0  0  0  0
    1.8403    1.4605    0.0000 C    0  0  0  0  0  0  0  0  0  0  0  0
   -2.9878   -1.2561    0.0000 N    0  0  0  0  0  0  0  0  0  0  0  0
    2.4454    0.9222    0.0000 C    0  0  0  0  0  0  0  0  0  0  0  0
    1.0558    1.2226    0.0000 C    0  0  0  0  0  0  0  0  0  0  0  0
    1.5023   -0.1377    0.0000 C    0  0  0  0  0  0  0  0  0  0  0  0
    2.9962    3.3258    0.0000 C    0  0  0  0  0  0  0  0  0  0  0  0
    3.1798    4.1145    0.0000 C    0  0  0  0  0  0  0  0  0  0  0  0
   -1.0265   -2.6582    0.0000 O    0  0  0  0  0  0  0  0  0  0  0  0
   -0.1252    0.1002    0.0000 O    0  0  0  0  0  0  0  0  0  0  0  0
    2.2784    0.1002    0.0000 C    0  0  0  0  0  0  0  0  0  0  0  0
    0.8805    0.4089    0.0000 C    0  0  0  0  0  0  0  0  0  0  0  0
   -2.0238   -2.3160    0.0000 O    0  0  0  0  0  0  0  0  0  0  0  0
    3.2424    1.1643    0.0000 Cl   0  0  0  0  0  0  0  0  0  0  0  0
    2.0197    2.2742    0.0000 O    0  0  0  0  0  0  0  0  0  0  0  0
    0.4549    1.7652    0.0000 O    0  0  0  0  0  0  0  0  0  0  0  0
    2.8167    2.5121    0.0000 C    0  0  0  0  0  0  0  0  0  0  0  0
   -3.6513   -1.7318    0.0000 C    0  0  0  0  0  0  0  0  0  0  0  0
   -3.2299   -0.4674    0.0000 C    0  0  0  0  0  0  0  0  0  0  0  0
   -0.3213    1.5148    0.0000 C    0  0  0  0  0  0  0  0  0  0  0  0
   -4.0644   -0.4674    0.0000 C    0  0  0  0  0  0  0  0  0  0  0  0
   -4.3065   -1.2519    0.0000 C    0  0  0  0  0  0  0  0  0  0  0  0
  2  1  1  0  0  0  0
  3  1  1  0  0  0  0
  4  3  1  0  0  0  0
  5  2  1  0  0  0  0
  5  4  1  0  0  0  0
  6  1  1  0  0  0  0
  7  6  1  0  0  0  0
  8  4  2  0  0  0  0
  9 12  2  0  0  0  0
  9 11  1  0  0  0  0
 10  7  1  0  0  0  0
 11 18  2  0  0  0  0
 12 19  1  0  0  0  0
 13  8  1  0  0  0  0
 14 24  1  0  0  0  0
 15 14  3  0  0  0  0
 16  2  2  0  0  0  0
 17  3  2  0  0  0  0
 18 13  1  0  0  0  0
 19 13  2  0  0  0  0
 20  7  2  0  0  0  0
 21 11  1  0  0  0  0
 22  9  1  0  0  0  0
 23 12  1  0  0  0  0
 24 22  1  0  0  0  0
 25 10  1  0  0  0  0
 26 10  1  0  0  0  0
 27 23  1  0  0  0  0
 28 26  1  0  0  0  0
 28 29  1  0  0  0  0
 29 25  1  0  0  0  0
M  END
> <CdId>
420

> <Mol Weight>
434.893

> <Formula>
C20H19ClN2O5S

> <Click_ID>
CLK006_B11 __ __ 

$$$$
