CLK039B08
 OpenBabel03181404502D

 18 19  0  0  0  0  0  0  0  0999 V2000
   -0.2417    1.6958    0.0000 C   0  0  0  0  0  0  0  0  0  0  0  0
   -0.2417   -1.6042    0.0000 C   0  0  0  0  0  0  0  0  0  0  0  0
   -0.2417   -0.7792    0.0000 N   0  0  0  0  0  0  0  0  0  0  0  0
   -0.2417    0.8708    0.0000 N   0  0  0  0  0  0  0  0  0  0  0  0
    1.1875   -3.2542    0.0000 C   0  0  0  0  0  0  0  0  0  0  0  0
    1.9042   -3.6667    0.0000 C   0  0  0  0  0  0  0  0  0  0  0  0
    0.4750    2.1083    0.0000 N   0  0  0  0  0  0  0  0  0  0  0  0
   -0.9542    2.1083    0.0000 N   0  0  0  0  0  0  0  0  0  0  0  0
   -0.9542   -0.3667    0.0000 C   0  0  0  0  0  0  0  0  0  0  0  0
    0.4750   -0.3667    0.0000 C   0  0  0  0  0  0  0  0  0  0  0  0
    0.4750    0.4583    0.0000 C   0  0  0  0  0  0  0  0  0  0  0  0
   -0.9542    0.4583    0.0000 C   0  0  0  0  0  0  0  0  0  0  0  0
   -0.9542   -2.0167    0.0000 O   0  0  0  0  0  0  0  0  0  0  0  0
    0.4750   -2.0167    0.0000 N   0  0  0  0  0  0  0  0  0  0  0  0
    0.4750   -2.8417    0.0000 C   0  0  0  0  0  0  0  0  0  0  0  0
   -0.2417    3.3458    0.0000 C   0  0  0  0  0  0  0  0  0  0  0  0
   -0.9542    2.9333    0.0000 C   0  0  0  0  0  0  0  0  0  0  0  0
    0.4750    2.9333    0.0000 C   0  0  0  0  0  0  0  0  0  0  0  0
  2  3  1  0  0  0  0
  3  9  1  0  0  0  0
  4  1  1  0  0  0  0
  5 15  1  0  0  0  0
  6  5  3  0  0  0  0
  7  1  1  0  0  0  0
  8  1  2  0  0  0  0
  9 12  1  0  0  0  0
 10 11  1  0  0  0  0
 10  3  1  0  0  0  0
 11  4  1  0  0  0  0
 12  4  1  0  0  0  0
 13  2  2  0  0  0  0
 14  2  1  0  0  0  0
 15 14  1  0  0  0  0
 16 17  2  0  0  0  0
 16 18  1  0  0  0  0
 17  8  1  0  0  0  0
 18  7  2  0  0  0  0
M  END
> <CdId>
2978

> <Mol Weight>
245.2804

> <Formula>
C12H15N5O

> <Click_ID>
CLK039B08 __ __ 

$$$$
