CLK039F09
 OpenBabel03181404502D

 30 32  0  0  0  0  0  0  0  0999 V2000
   -2.2417    2.5875    0.0000 S   0  0  0  0  0  0  0  0  0  0  0  0
   -0.8125    0.1125    0.0000 C   0  0  0  0  0  0  0  0  0  0  0  0
   -0.0958   -0.3000    0.0000 N   0  0  0  0  0  0  0  0  0  0  0  0
   -1.5250    2.1750    0.0000 C   0  0  0  0  0  0  0  0  0  0  0  0
   -0.8125    0.9375    0.0000 C   0  0  0  0  0  0  0  0  0  0  0  0
   -3.6708    4.2333    0.0000 C   0  0  0  0  0  0  0  0  0  0  0  0
   -1.5250    1.3500    0.0000 C   0  0  0  0  0  0  0  0  0  0  0  0
   -4.3833    4.6458    0.0000 C   0  0  0  0  0  0  0  0  0  0  0  0
   -2.6542    1.8708    0.0000 O   0  0  0  0  0  0  0  0  0  0  0  0
   -1.8292    3.3000    0.0000 O   0  0  0  0  0  0  0  0  0  0  0  0
   -2.9542    3.0000    0.0000 N   0  0  0  0  0  0  0  0  0  0  0  0
   -0.0958   -1.1250    0.0000 C   0  0  3  0  0  0  0  0  0  0  0  0
    0.6167   -1.5375    0.0000 C   0  0  0  0  0  0  0  0  0  0  0  0
   -1.5250   -0.3000    0.0000 O   0  0  0  0  0  0  0  0  0  0  0  0
    2.0458   -2.3625    0.0000 C   0  0  0  0  0  0  0  0  0  0  0  0
    0.6167   -2.3625    0.0000 C   0  0  0  0  0  0  0  0  0  0  0  0
    1.3333   -1.1250    0.0000 C   0  0  0  0  0  0  0  0  0  0  0  0
    2.0458   -1.5375    0.0000 C   0  0  0  0  0  0  0  0  0  0  0  0
    1.3333   -2.7750    0.0000 C   0  0  0  0  0  0  0  0  0  0  0  0
    2.7625   -2.7750    0.0000 C   0  0  0  0  0  0  0  0  0  0  0  0
   -2.9542    3.8250    0.0000 C   0  0  0  0  0  0  0  0  0  0  0  0
   -0.8125    2.5875    0.0000 C   0  0  0  0  0  0  0  0  0  0  0  0
   -0.0958    1.3500    0.0000 C   0  0  0  0  0  0  0  0  0  0  0  0
   -0.0958    2.1750    0.0000 C   0  0  0  0  0  0  0  0  0  0  0  0
   -0.8125   -1.5375    0.0000 C   0  0  0  0  0  0  0  0  0  0  0  0
    2.7625   -3.6000    0.0000 C   0  0  0  0  0  0  0  0  0  0  0  0
    3.4750   -2.3625    0.0000 C   0  0  0  0  0  0  0  0  0  0  0  0
    4.1875   -2.7750    0.0000 C   0  0  0  0  0  0  0  0  0  0  0  0
    3.4750   -4.0125    0.0000 C   0  0  0  0  0  0  0  0  0  0  0  0
    4.1875   -3.6000    0.0000 C   0  0  0  0  0  0  0  0  0  0  0  0
  2  5  1  0  0  0  0
  3  2  1  0  0  0  0
  4  1  1  0  0  0  0
  5  7  2  0  0  0  0
  6 21  1  0  0  0  0
  7  4  1  0  0  0  0
  8  6  3  0  0  0  0
  9  1  2  0  0  0  0
 10  1  2  0  0  0  0
 11  1  1  0  0  0  0
 12  3  1  0  0  0  0
 13 12  1  0  0  0  0
 14  2  2  0  0  0  0
 15 18  2  0  0  0  0
 15 19  1  0  0  0  0
 16 13  1  0  0  0  0
 17 13  2  0  0  0  0
 18 17  1  0  0  0  0
 19 16  2  0  0  0  0
 20 15  1  0  0  0  0
 21 11  1  0  0  0  0
 22  4  2  0  0  0  0
 23  5  1  0  0  0  0
 24 22  1  0  0  0  0
 24 23  2  0  0  0  0
 25 12  1  0  0  0  0
 26 20  1  0  0  0  0
 27 20  2  0  0  0  0
 28 27  1  0  0  0  0
 29 26  2  0  0  0  0
 30 28  2  0  0  0  0
 30 29  1  0  0  0  0
M  END
> <CdId>
2990

> <Mol Weight>
418.508

> <Formula>
C24H22N2O3S

> <Click_ID>
CLK039F09 __ __ 

$$$$
