CLK012_G11
 OpenBabel03181404502D

 22 23  0  0  0  0  0  0  0  0999 V2000
    1.5644   -0.8155    0.0000 N    0  0  0  0  0  0  0  0  0  0  0  0
    1.8223   -1.6018    0.0000 C    0  0  0  0  0  0  0  0  0  0  0  0
    2.2342   -0.3287    0.0000 C    0  0  0  0  0  0  0  0  0  0  0  0
    2.8999   -0.8155    0.0000 C    0  0  0  0  0  0  0  0  0  0  0  0
    2.6461   -1.6018    0.0000 S    0  0  0  0  0  0  0  0  0  0  0  0
    3.6862   -0.5617    0.0000 C    0  0  0  0  0  0  0  0  0  0  0  0
    4.2104    1.8597    0.0000 C    0  0  0  0  0  0  0  0  0  0  0  0
    4.8220    1.3064    0.0000 C    0  0  0  0  0  0  0  0  0  0  0  0
    3.4199    1.6059    0.0000 C    0  0  0  0  0  0  0  0  0  0  0  0
    3.8567    0.2454    0.0000 C    0  0  0  0  0  0  0  0  0  0  0  0
    0.6116    0.2454    0.0000 C    0  0  0  0  0  0  0  0  0  0  0  0
    0.3911    1.0442    0.0000 C    0  0  0  0  0  0  0  0  0  0  0  0
    1.3355   -2.2633    0.0000 O    0  0  0  0  0  0  0  0  0  0  0  0
    3.2494    0.8071    0.0000 C    0  0  0  0  0  0  0  0  0  0  0  0
    4.6431    0.4951    0.0000 C    0  0  0  0  0  0  0  0  0  0  0  0
    2.2259    0.4951    0.0000 O    0  0  0  0  0  0  0  0  0  0  0  0
    0.7863   -0.5617    0.0000 C    0  0  0  0  0  0  0  0  0  0  0  0
    5.6041    1.5477    0.0000 Cl   0  0  0  0  0  0  0  0  0  0  0  0
    2.8125    2.1676    0.0000 Cl   0  0  0  0  0  0  0  0  0  0  0  0
    4.3976    2.6710    0.0000 O    0  0  0  0  0  0  0  0  0  0  0  0
    5.1840    2.9165    0.0000 C    0  0  0  0  0  0  0  0  0  0  0  0
    5.3670    3.7153    0.0000 C    0  0  0  0  0  0  0  0  0  0  0  0
  2  1  1  0  0  0  0
  3  1  1  0  0  0  0
  4  3  1  0  0  0  0
  4  5  1  0  0  0  0
  5  2  1  0  0  0  0
  6  4  2  0  0  0  0
  7  8  1  0  0  0  0
  7  9  2  0  0  0  0
  8 15  2  0  0  0  0
  9 14  1  0  0  0  0
 10  6  1  0  0  0  0
 11 17  1  0  0  0  0
 12 11  3  0  0  0  0
 13  2  2  0  0  0  0
 14 10  2  0  0  0  0
 15 10  1  0  0  0  0
 16  3  2  0  0  0  0
 17  1  1  0  0  0  0
 18  8  1  0  0  0  0
 19  9  1  0  0  0  0
 20  7  1  0  0  0  0
 21 20  1  0  0  0  0
 22 21  1  0  0  0  0
M  END
> <CdId>
906

> <Mol Weight>
356.224

> <Formula>
C15H11Cl2NO3S

> <Click_ID>
CLK012_G11 __ __ 

$$$$
