CLK022_F06
 OpenBabel03181404502D

 22 23  0  0  0  0  0  0  0  0999 V2000
    2.0763    3.2816    0.0000 C   0  0  0  0  0  0  0  0  0  0  0  0
    4.1388    2.7500    0.0000 C   0  0  0  0  0  0  0  0  0  0  0  0
    3.5063    3.2816    0.0000 N   0  0  0  0  0  0  0  0  0  0  0  0
    2.7913    2.8691    0.0000 C   0  0  0  0  0  0  0  0  0  0  0  0
    2.0763    4.1066    0.0000 C   0  0  0  0  0  0  0  0  0  0  0  0
    8.5434    3.5291    0.0000 C   0  0  0  0  0  0  0  0  0  0  0  0
    9.3134    3.8088    0.0000 C   0  0  0  0  0  0  0  0  0  0  0  0
    4.9134    3.0341    0.0000 C   0  0  0  0  0  0  0  0  0  0  0  0
    3.9921    1.9341    0.0000 O   0  0  0  0  0  0  0  0  0  0  0  0
    1.3613    4.5009    0.0000 O   0  0  0  0  0  0  0  0  0  0  0  0
    5.5459    2.4979    0.0000 C   0  0  0  0  0  0  0  0  0  0  0  0
    5.0509    3.8454    0.0000 C   0  0  0  0  0  0  0  0  0  0  0  0
    2.5759    4.3954    0.0000 N   0  0  0  0  0  0  0  0  0  0  0  0
    6.4625    3.5979    0.0000 C   0  0  0  0  0  0  0  0  0  0  0  0
    5.8300    4.1250    0.0000 C   0  0  0  0  0  0  0  0  0  0  0  0
    6.3159    2.7866    0.0000 C   0  0  0  0  0  0  0  0  0  0  0  0
    1.3613    2.8691    0.0000 C   0  0  0  0  0  0  0  0  0  0  0  0
    7.7688    3.2541    0.0000 C   0  0  0  0  0  0  0  0  0  0  0  0
    7.2371    3.8775    0.0000 O   0  0  0  0  0  0  0  0  0  0  0  0
    2.7913    2.0441    0.0000 C   0  0  0  0  0  0  0  0  0  0  0  0
    1.3613    2.0441    0.0000 C   0  0  0  0  0  0  0  0  0  0  0  0
    2.0763    1.6316    0.0000 C   0  0  0  0  0  0  0  0  0  0  0  0
  2  3  1  0  0  0  0
  3  4  1  0  0  0  0
  4  1  1  0  0  0  0
  5  1  1  0  0  0  0
  6 18  1  0  0  0  0
  7  6  3  0  0  0  0
  8  2  1  0  0  0  0
  9  2  2  0  0  0  0
 10  5  2  0  0  0  0
 11  8  2  0  0  0  0
 12  8  1  0  0  0  0
 13  5  1  0  0  0  0
 14 15  1  0  0  0  0
 14 16  2  0  0  0  0
 15 12  2  0  0  0  0
 16 11  1  0  0  0  0
 17  1  2  0  0  0  0
 18 19  1  0  0  0  0
 19 14  1  0  0  0  0
 20  4  2  0  0  0  0
 21 17  1  0  0  0  0
 22 21  2  0  0  0  0
 22 20  1  0  0  0  0
M  END
> <CdId>
1680

> <Mol Weight>
294.3047

> <Formula>
C17H14N2O3

> <Click_ID>
CLK022_F06 __ __ 

$$$$
