CLK045E10
 OpenBabel03181404502D

 23 24  0  0  0  0  0  0  0  0999 V2000
   -2.9542   -0.3042    0.0000 O   0  0  0  0  0  0  0  0  0  0  0  0
   -2.2375    0.1083    0.0000 C   0  0  0  0  0  0  0  0  0  0  0  0
   -3.6667    0.1083    0.0000 C   0  0  0  0  0  0  0  0  0  0  0  0
    3.4792   -0.7167    0.0000 C   0  0  0  0  0  0  0  0  0  0  0  0
   -2.9542    1.3458    0.0000 C   0  0  0  0  0  0  0  0  0  0  0  0
   -3.6667    0.9333    0.0000 C   0  0  0  0  0  0  0  0  0  0  0  0
   -2.2375    0.9333    0.0000 C   0  0  0  0  0  0  0  0  0  0  0  0
    4.1917   -1.1292    0.0000 C   0  0  0  0  0  0  0  0  0  0  0  0
   -1.5250   -0.3042    0.0000 C   0  0  0  0  0  0  0  0  0  0  0  0
    1.3333   -0.3042    0.0000 C   0  0  0  0  0  0  0  0  0  0  0  0
    2.0500    0.1083    0.0000 N   0  0  0  0  0  0  0  0  0  0  0  0
    2.7625   -0.3042    0.0000 C   0  0  0  0  0  0  0  0  0  0  0  0
   -4.3833   -0.3042    0.0000 O   0  0  0  0  0  0  0  0  0  0  0  0
    1.3333   -1.1292    0.0000 O   0  0  0  0  0  0  0  0  0  0  0  0
   -0.8083    0.1083    0.0000 C   0  0  0  0  0  0  0  0  0  0  0  0
   -1.5250    1.3458    0.0000 C   0  0  0  0  0  0  0  0  0  0  0  0
   -0.0958   -0.3042    0.0000 O   0  0  0  0  0  0  0  0  0  0  0  0
    0.6208    0.1083    0.0000 C   0  0  0  0  0  0  0  0  0  0  0  0
   -0.8083    0.9333    0.0000 C   0  0  0  0  0  0  0  0  0  0  0  0
    3.1750    0.4125    0.0000 C   0  0  0  0  0  0  0  0  0  0  0  0
    2.3500   -1.0167    0.0000 C   0  0  0  0  0  0  0  0  0  0  0  0
    4.0000    0.4125    0.0000 C   0  0  0  0  0  0  0  0  0  0  0  0
    1.5250   -1.0167    0.0000 C   0  0  0  0  0  0  0  0  0  0  0  0
  2  1  1  0  0  0  0
  3  1  1  0  0  0  0
  4 12  1  0  0  0  0
  5  7  1  0  0  0  0
  6  3  1  0  0  0  0
  6  5  2  0  0  0  0
  7  2  2  0  0  0  0
  8  4  3  0  0  0  0
  9  2  1  0  0  0  0
 10 18  1  0  0  0  0
 11 10  1  0  0  0  0
 12 11  1  0  0  0  0
 13  3  2  0  0  0  0
 14 10  2  0  0  0  0
 15  9  2  0  0  0  0
 16  7  1  0  0  0  0
 16 19  2  0  0  0  0
 17 15  1  0  0  0  0
 18 17  1  0  0  0  0
 19 15  1  0  0  0  0
 20 12  1  0  0  0  0
 21 12  1  0  0  0  0
 22 20  1  0  0  0  0
 23 21  1  0  0  0  0
M  END
> <CdId>
3477

> <Mol Weight>
313.3478

> <Formula>
C18H19NO4

> <Click_ID>
CLK045E10 __ __ 

$$$$
