CLK010_F02
 OpenBabel03181404502D

 24 26  0  0  0  0  0  0  0  0999 V2000
    4.5625   -1.6353    0.0000 C   0  0  0  0  0  0  0  0  0  0  0  0
    4.6449   -2.4508    0.0000 C   0  0  0  0  0  0  0  0  0  0  0  0
    5.4466   -2.6294    0.0000 N   0  0  0  0  0  0  0  0  0  0  0  0
    5.3092   -1.2964    0.0000 C   0  0  0  0  0  0  0  0  0  0  0  0
    5.8589   -1.9148    0.0000 C   0  0  0  0  0  0  0  0  0  0  0  0
    3.8479   -1.2231    0.0000 N   0  0  0  0  0  0  0  0  0  0  0  0
    3.1333    0.0137    0.0000 C   0  0  0  0  0  0  0  0  0  0  0  0
    2.4095   -0.3985    0.0000 C   0  0  0  0  0  0  0  0  0  0  0  0
    3.8479   -0.3985    0.0000 N   0  0  0  0  0  0  0  0  0  0  0  0
    5.2954   -4.0449    0.0000 C   0  0  0  0  0  0  0  0  0  0  0  0
    1.6949   -1.6400    0.0000 N   0  0  0  0  0  0  0  0  0  0  0  0
    4.8144   -4.7136    0.0000 C   0  0  0  0  0  0  0  0  0  0  0  0
    4.0311   -3.0005    0.0000 O   0  0  0  0  0  0  0  0  0  0  0  0
    2.4095   -1.2277    0.0000 C   0  0  0  0  0  0  0  0  0  0  0  0
    5.7855   -3.3806    0.0000 C   0  0  0  0  0  0  0  0  0  0  0  0
    3.1333    0.8383    0.0000 O   0  0  0  0  0  0  0  0  0  0  0  0
    1.6949    0.0229    0.0000 C   0  0  0  0  0  0  0  0  0  0  0  0
    0.9895   -1.2277    0.0000 C   0  0  0  0  0  0  0  0  0  0  0  0
    5.5703   -0.5131    0.0000 C   0  0  0  0  0  0  0  0  0  0  0  0
    0.9895   -0.3985    0.0000 C   0  0  0  0  0  0  0  0  0  0  0  0
    6.6697   -1.7453    0.0000 C   0  0  0  0  0  0  0  0  0  0  0  0
    0.2748   -1.6400    0.0000 C   0  0  0  0  0  0  0  0  0  0  0  0
    6.3765   -0.3482    0.0000 C   0  0  0  0  0  0  0  0  0  0  0  0
    6.9262   -0.9528    0.0000 C   0  0  0  0  0  0  0  0  0  0  0  0
  2  1  1  0  0  0  0
  3  2  1  0  0  0  0
  3  5  1  0  0  0  0
  4  1  1  0  0  0  0
  5  4  2  0  0  0  0
  6  1  2  0  0  0  0
  7  9  1  0  0  0  0
  8  7  1  0  0  0  0
  9  6  1  0  0  0  0
 10 15  1  0  0  0  0
 11 14  1  0  0  0  0
 12 10  3  0  0  0  0
 13  2  2  0  0  0  0
 14  8  2  0  0  0  0
 15  3  1  0  0  0  0
 16  7  2  0  0  0  0
 17  8  1  0  0  0  0
 18 20  1  0  0  0  0
 18 11  2  0  0  0  0
 19  4  1  0  0  0  0
 20 17  2  0  0  0  0
 21  5  1  0  0  0  0
 21 24  2  0  0  0  0
 22 18  1  0  0  0  0
 23 19  2  0  0  0  0
 24 23  1  0  0  0  0
M  END
> <CdId>
727

> <Mol Weight>
318.3294

> <Formula>
C18H14N4O2

> <Click_ID>
CLK010_F02 __ __ 

$$$$
