DB00114
 OpenBabel03171413522D

 16 16  0  0  0  0  0  0  0  0999 V2000
    6.3799    0.2063    0.0000 P   0  0  0  0  0  0  0  0  0  0  0  0
    5.6655   -0.2063    0.0000 O   0  0  0  0  0  0  0  0  0  0  0  0
    2.0930    0.2063    0.0000 O   0  0  0  0  0  0  0  0  0  0  0  0
    6.7925   -0.5082    0.0000 O   0  0  0  0  0  0  0  0  0  0  0  0
    7.0944    0.6188    0.0000 O   0  0  0  0  0  0  0  0  0  0  0  0
    2.8075    1.4438    0.0000 O   0  0  0  0  0  0  0  0  0  0  0  0
    5.9674    0.9207    0.0000 O   0  0  0  0  0  0  0  0  0  0  0  0
    3.5220   -1.4438    0.0000 N   0  0  0  0  0  0  0  0  0  0  0  0
    4.2365   -0.2063    0.0000 C   0  0  0  0  0  0  0  0  0  0  0  0
    3.5220    0.2063    0.0000 C   0  0  0  0  0  0  0  0  0  0  0  0
    4.9509    0.2063    0.0000 C   0  0  0  0  0  0  0  0  0  0  0  0
    2.8075   -0.2063    0.0000 C   0  0  0  0  0  0  0  0  0  0  0  0
    2.8075   -1.0313    0.0000 C   0  0  0  0  0  0  0  0  0  0  0  0
    4.2365   -1.0313    0.0000 C   0  0  0  0  0  0  0  0  0  0  0  0
    2.0930   -1.4438    0.0000 C   0  0  0  0  0  0  0  0  0  0  0  0
    3.5220    1.0313    0.0000 C   0  0  0  0  0  0  0  0  0  0  0  0
  1  2  1  0  0  0  0
  1  4  1  0  0  0  0
  1  5  1  0  0  0  0
  1  7  2  0  0  0  0
  2 11  1  0  0  0  0
  3 12  1  0  0  0  0
  6 16  2  0  0  0  0
  8 13  2  0  0  0  0
  8 14  1  0  0  0  0
  9 10  1  0  0  0  0
  9 11  1  0  0  0  0
  9 14  2  0  0  0  0
 10 12  2  0  0  0  0
 10 16  1  0  0  0  0
 12 13  1  0  0  0  0
 13 15  1  0  0  0  0
M  END
>  <DRUGBANK_ID>
DB00114

>  <DRUG_GROUPS>
nutraceutical

>  <GENERIC_NAME>
Pyridoxal Phosphate

>  <SYNONYMS>
Codecarboxylase; PLP; Pyridoxal 5-phosphate; Pyridoxal 5'-phosphate; Pyridoxal P; Pyridoxal-5P; Pyridoxal-P; Pyromijin; Vitamin B6

>  <BRANDS>
Biosechs; Hairoxal; Hiadelon; Himitan; Pidopidon; Vitazechs

>  <CHEMICAL_FORMULA>
C8H10NO6P

>  <MOLECULAR_WEIGHT>
247.1419

>  <EXACT_MASS>
247.024573569

>  <IUPAC_NAME>
[(4-formyl-5-hydroxy-6-methylpyridin-3-yl)methoxy]phosphonic acid

>  <INCHI_IDENTIFIER>
InChI=1S/C8H10NO6P/c1-5-8(11)7(3-10)6(2-9-5)4-15-16(12,13)14/h2-3,11H,4H2,1H3,(H2,12,13,14)

>  <INCHI_KEY>
InChIKey=NGVDGCNFYWLIFO-UHFFFAOYSA-N

>  <SMILES>
CC1=NC=C(COP(O)(O)=O)C(C=O)=C1O

>  <JCHEM_ACCEPTOR_COUNT>
6

>  <JCHEM_DONOR_COUNT>
3

>  <JCHEM_ACIDIC_PKA>
1.68

>  <JCHEM_BASIC_PKA>
4.11

>  <JCHEM_PHYSIOLOGICAL_CHARGE>
-2

>  <ALOGPS_LOGP>
-0.55

>  <JCHEM_LOGP>
-2.1

>  <ALOGPS_LOGS>
-1.6

>  <JCHEM_POLARIZABILITY>
20.9

>  <JCHEM_POLAR_SURFACE_AREA>
116.95

>  <JCHEM_REFRACTIVITY>
54.75

>  <JCHEM_ROTATABLE_BOND_COUNT>
4

>  <ALOGPS_SOLUBILITY>
5.70e+00 g/l __

$$$$
DB00115
 OpenBabel03171413522D

 95106  0  0  1  0  0  0  0  0999 V2000
   -0.6472   -1.5655    0.0000 C   0  0  0  0  0  0  0  0  0  0  0  0
   -0.7591   -0.7620    0.0000 N   0  0  0  0  0  0  0  0  0  0  0  0
   -1.9518   -1.3667    0.0000 C   0  0  1  0  0  0  0  0  0  0  0  0
   -2.6231   -1.8463    0.0000 C   0  0  0  0  0  0  0  0  0  0  0  0
   -3.3741   -1.5048    0.0000 C   0  0  0  0  0  0  0  0  0  0  0  0
   -3.4538   -0.6837    0.0000 O   0  0  0  0  0  0  0  0  0  0  0  0
   -0.7591    0.9361    0.0000 N   0  0  0  0  0  0  0  0  0  0  0  0
   -0.6472    1.7396    0.0000 C   0  0  0  0  0  0  0  0  0  0  0  0
   -1.3596    2.1164    0.0000 C   0  0  1  0  0  0  0  0  0  0  0  0
   -1.4780    2.9329    0.0000 C   0  0  0  0  0  0  0  0  0  0  0  0
   -0.8302    3.4437    0.0000 C   0  0  0  0  0  0  0  0  0  0  0  0
   -0.9487    4.2601    0.0000 C   0  0  0  0  0  0  0  0  0  0  0  0
   -1.7149    4.5657    0.0000 O   0  0  0  0  0  0  0  0  0  0  0  0
   -1.9518    1.5366    0.0000 C   0  0  2  0  0  0  0  0  0  0  0  0
   -2.5935    2.0551    0.0000 C   0  0  0  0  0  0  0  0  0  0  0  0
   -2.7217    1.2401    0.0000 C   0  0  0  0  0  0  0  0  0  0  0  0
   -3.3634    1.7586    0.0000 C   0  0  0  0  0  0  0  0  0  0  0  0
   -4.1333    1.4621    0.0000 O   0  0  0  0  0  0  0  0  0  0  0  0
    0.7940    1.7396    0.0000 C   0  0  0  0  0  0  0  0  0  0  0  0
    0.9183    0.9361    0.0000 N   0  0  0  0  0  0  0  0  0  0  0  0
    1.7425    0.7870    0.0000 C   0  0  0  0  0  0  0  0  0  0  0  0
    2.1566    0.0870    0.0000 C   0  0  0  0  0  0  0  0  0  0  0  0
    1.7425   -0.6171    0.0000 C   0  0  0  0  0  0  0  0  0  0  0  0
    0.9183   -0.7620    0.0000 N   0  0  0  0  0  0  0  0  0  0  0  0
    0.7940   -1.5655    0.0000 C   0  0  0  0  0  0  0  0  0  0  0  0
    1.5313   -1.9465    0.0000 C   0  0  1  0  0  0  0  0  0  0  0  0
    1.6536   -2.7624    0.0000 C   0  0  0  0  0  0  0  0  0  0  0  0
    2.4214   -3.0643    0.0000 C   0  0  0  0  0  0  0  0  0  0  0  0
    2.5437   -3.8802    0.0000 C   0  0  0  0  0  0  0  0  0  0  0  0
    3.3114   -4.1822    0.0000 O   0  0  0  0  0  0  0  0  0  0  0  0
    2.1235   -1.3667    0.0000 C   0  0  0  0  0  0  0  0  0  0  0  0
    2.7616   -1.8896    0.0000 C   0  0  0  0  0  0  0  0  0  0  0  0
    2.8954   -1.0755    0.0000 C   0  0  0  0  0  0  0  0  0  0  0  0
    2.1235    1.5366    0.0000 C   0  0  1  0  0  0  0  0  0  0  0  0
    2.7961    2.0143    0.0000 C   0  0  0  0  0  0  0  0  0  0  0  0
    3.5462    1.6707    0.0000 C   0  0  0  0  0  0  0  0  0  0  0  0
    4.2188    2.1484    0.0000 C   0  0  0  0  0  0  0  0  0  0  0  0
    4.1413    2.9697    0.0000 O   0  0  0  0  0  0  0  0  0  0  0  0
    1.5313    2.1164    0.0000 C   0  0  1  0  0  0  0  0  0  0  0  0
    2.2821    2.4583    0.0000 C   0  0  0  0  0  0  0  0  0  0  0  0
    1.6106    2.9376    0.0000 C   0  0  0  0  0  0  0  0  0  0  0  0
    2.3614    3.2795    0.0000 C   0  0  0  0  0  0  0  0  0  0  0  0
    2.4408    4.1007    0.0000 O   0  0  0  0  0  0  0  0  0  0  0  0
    0.0900    2.1495    0.0000 C   0  0  0  0  0  0  0  0  0  0  0  0
    0.0900    2.9745    0.0000 C   0  0  0  0  0  0  0  0  0  0  0  0
    0.0900   -1.9797    0.0000 C   0  0  0  0  0  0  0  0  0  0  0  0
    0.0900   -2.8047    0.0000 C   0  0  0  0  0  0  0  0  0  0  0  0
   -1.5708   -0.6171    0.0000 C   0  0  2  0  0  0  0  0  0  0  0  0
   -2.3677   -0.4036    0.0000 H   0  0  0  0  0  0  0  0  0  0  0  0
   -1.5708    0.8118    0.0000 C   0  0  2  0  0  0  0  0  0  0  0  0
   -2.3677    0.5983    0.0000 C   0  0  0  0  0  0  0  0  0  0  0  0
   -2.0741   -3.1840    0.0000 C   0  0  0  0  0  0  0  0  0  0  0  0
   -2.7885   -3.5965    0.0000 C   0  0  0  0  0  0  0  0  0  0  0  0
   -3.5030   -3.1840    0.0000 O   0  0  0  0  0  0  0  0  0  0  0  0
   -2.7885   -4.4215    0.0000 N   0  0  0  0  0  0  0  0  0  0  0  0
   -3.5030   -4.8340    0.0000 C   0  0  0  0  0  0  0  0  0  0  0  0
   -3.5030   -5.6590    0.0000 C   0  0  2  0  0  0  0  0  0  0  0  0
   -4.3280   -5.6590    0.0000 H   0  0  0  0  0  0  0  0  0  0  0  0
   -2.0741   -2.3590    0.0000 C   0  0  0  0  0  0  0  0  0  0  0  0
   -1.3596   -1.9465    0.0000 C   0  0  1  0  0  0  0  0  0  0  0  0
   -1.3596   -2.7715    0.0000 C   0  0  0  0  0  0  0  0  0  0  0  0
   -0.3008    4.7709    0.0000 N   0  0  0  0  0  0  0  0  0  0  0  0
    3.0329    2.8002    0.0000 N   0  0  0  0  0  0  0  0  0  0  0  0
    4.9688    1.8048    0.0000 N   0  0  0  0  0  0  0  0  0  0  0  0
    1.8983   -4.3941    0.0000 N   0  0  0  0  0  0  0  0  0  0  0  0
   -3.2353    2.5736    0.0000 N   0  0  0  0  0  0  0  0  0  0  0  0
   -4.0453   -1.9845    0.0000 N   0  0  0  0  0  0  0  0  0  0  0  0
    2.5001   -5.6865    0.0000 C   0  0  0  0  0  0  0  0  0  0  0  0
    1.6751   -7.1154    0.0000 C   0  0  0  0  0  0  0  0  0  0  0  0
    1.6751   -5.6865    0.0000 C   0  0  0  0  0  0  0  0  0  0  0  0
    0.3694   -5.4090    0.0000 C   0  0  0  0  0  0  0  0  0  0  0  0
    1.2626   -6.4010    0.0000 C   0  0  0  0  0  0  0  0  0  0  0  0
    1.1231   -5.0734    0.0000 N   0  0  0  0  0  0  0  0  0  0  0  0
    0.4556   -6.2294    0.0000 N   0  0  0  0  0  0  0  0  0  0  0  0
    2.9126   -6.4010    0.0000 C   0  0  0  0  0  0  0  0  0  0  0  0
    3.7376   -6.4010    0.0000 C   0  0  0  0  0  0  0  0  0  0  0  0
    2.5001   -7.1154    0.0000 C   0  0  0  0  0  0  0  0  0  0  0  0
    2.9126   -7.8299    0.0000 C   0  0  0  0  0  0  0  0  0  0  0  0
   -0.1575   -6.7815    0.0000 C   0  0  1  0  0  0  0  0  0  0  0  0
   -0.0712   -7.6020    0.0000 O   0  0  0  0  0  0  0  0  0  0  0  0
   -0.8249   -7.9375    0.0000 C   0  0  2  0  0  0  0  0  0  0  0  0
   -0.9964   -8.7445    0.0000 C   0  0  0  0  0  0  0  0  0  0  0  0
   -1.7811   -8.9994    0.0000 O   0  0  0  0  0  0  0  0  0  0  0  0
   -0.9645   -6.6099    0.0000 C   0  0  2  0  0  0  0  0  0  0  0  0
   -1.3000   -5.8563    0.0000 O   0  0  0  0  0  0  0  0  0  0  0  0
   -1.3770   -7.3244    0.0000 C   0  0  2  0  0  0  0  0  0  0  0  0
   -2.1974   -7.4107    0.0000 O   0  0  0  0  0  0  0  0  0  0  0  0
   -2.8457   -7.2080    0.0000 O   0  0  0  0  0  0  0  0  0  0  0  0
   -2.6780   -5.6590    0.0000 O   0  0  0  0  0  0  0  0  0  0  0  0
   -3.5030   -6.4840    0.0000 C   0  0  0  0  0  0  0  0  0  0  0  0
   -2.1984   -6.5819    0.0000 P   0  0  3  0  0  0  0  0  0  0  0  0
   -1.4419   -6.6140    0.0000 O   0  0  0  0  0  0  0  0  0  0  0  0
    0.0601    0.1366    0.0000 Co  0  0  0  0  0  0  0  0  0  0  0  0
   -0.4324    2.9513    0.0000 C   0  0  0  0  0  0  0  0  0  0  0  0
   -0.0593    3.8036    0.0000 N   0  0  0  0  0  0  0  0  0  0  0  0
  1  2  1  0  0  0  0
  2 93  1  0  0  0  0
  3  4  1  1  0  0  0
  3 60  1  0  0  0  0
  4  5  1  0  0  0  0
  5 67  1  0  0  0  0
  5  6  2  0  0  0  0
  7  8  2  0  0  0  0
  7 93  8  0  0  0  0
  8 44  1  0  0  0  0
  9  8  1  0  0  0  0
  9 10  1  6  0  0  0
 10 11  1  0  0  0  0
 11 12  1  0  0  0  0
 12 62  1  0  0  0  0
 12 13  2  0  0  0  0
 14  9  1  0  0  0  0
 14 15  1  6  0  0  0
 14 16  1  0  0  0  0
 16 17  1  0  0  0  0
 17 66  1  0  0  0  0
 17 18  2  0  0  0  0
 19 20  1  0  0  0  0
 19 39  1  0  0  0  0
 20 21  2  0  0  0  0
 20 93  8  0  0  0  0
 21 22  1  0  0  0  0
 21 34  1  0  0  0  0
 22 23  2  0  0  0  0
 23 24  1  0  0  0  0
 23 31  1  0  0  0  0
 24 25  2  0  0  0  0
 24 93  8  0  0  0  0
 25 26  1  0  0  0  0
 26 27  1  6  0  0  0
 26 31  1  0  0  0  0
 27 28  1  0  0  0  0
 28 29  1  0  0  0  0
 29 65  1  0  0  0  0
 29 30  2  0  0  0  0
 31 32  1  0  0  0  0
 31 33  1  0  0  0  0
 34 35  1  6  0  0  0
 34 39  1  0  0  0  0
 35 36  1  0  0  0  0
 36 37  1  0  0  0  0
 37 64  1  0  0  0  0
 37 38  2  0  0  0  0
 39 40  1  6  0  0  0
 39 41  1  0  0  0  0
 41 42  1  0  0  0  0
 42 63  1  0  0  0  0
 42 43  2  0  0  0  0
 44 19  2  0  0  0  0
 44 45  1  0  0  0  0
 46  1  2  0  0  0  0
 46 47  1  0  0  0  0
 46 25  1  0  0  0  0
 48  2  1  0  0  0  0
 48  3  1  0  0  0  0
 48 50  1  0  0  0  0
 48 49  1  1  0  0  0
 50  7  1  0  0  0  0
 50 14  1  0  0  0  0
 50 51  1  6  0  0  0
 52 53  1  0  0  0  0
 53 55  1  0  0  0  0
 53 54  2  0  0  0  0
 56 55  1  0  0  0  0
 57 56  1  0  0  0  0
 57 89  1  0  0  0  0
 57 58  1  1  0  0  0
 57 90  1  0  0  0  0
 59 52  1  0  0  0  0
 60  1  1  0  0  0  0
 60 59  1  0  0  0  0
 60 61  1  1  0  0  0
 68 70  2  0  0  0  0
 68 75  1  0  0  0  0
 69 77  1  0  0  0  0
 70 73  1  0  0  0  0
 70 72  1  0  0  0  0
 71 74  1  0  0  0  0
 71 73  2  0  0  0  0
 72 69  2  0  0  0  0
 73 93  8  0  0  0  0
 74 72  1  0  0  0  0
 75 76  1  0  0  0  0
 77 75  2  0  0  0  0
 77 78  1  0  0  0  0
 79 74  1  1  0  0  0
 79 84  1  0  0  0  0
 79 80  1  0  0  0  0
 81 80  1  0  0  0  0
 81 82  1  6  0  0  0
 82 83  1  0  0  0  0
 84 86  1  0  0  0  0
 84 85  1  1  0  0  0
 86 81  1  0  0  0  0
 86 87  1  1  0  0  0
 91 87  1  0  0  0  0
 91 88  1  0  0  0  0
 91 89  1  0  0  0  0
 91 92  2  0  0  0  0
 93 94  1  0  0  0  0
 94 95  3  0  0  0  0
M  END
>  <DRUGBANK_ID>
DB00115

>  <DRUG_GROUPS>
approved; nutraceutical

>  <GENERIC_NAME>
Cyanocobalamin

>  <SYNONYMS>
Cyanocob(III)alamin; Vitamin B12; Vitamin B12 complex

>  <BRANDS>
Bedoz; Berocca PN; Berubigen; Cobex; Cobolin-M; Crystamine; Cyanoject; Cyomin; Depinar; Neuroforte-R; Primabalt; Rubivite; Rubramin PC; Ruvite; Shovite; Vibal; Vitabee 12

>  <CHEMICAL_FORMULA>
C63H89CoN14O14P

>  <MOLECULAR_WEIGHT>
1356.3731

>  <EXACT_MASS>
1355.575230332

>  <INCHI_IDENTIFIER>
InChI=1S/C62H90N13O14P.CN.Co/c1-29-20-39-40(21-30(29)2)75(28-70-39)57-52(84)53(41(27-76)87-57)89-90(85,86)88-31(3)26-69-49(83)18-19-59(8)37(22-46(66)80)56-62(11)61(10,25-48(68)82)36(14-17-45(65)79)51(74-62)33(5)55-60(9,24-47(67)81)34(12-15-43(63)77)38(71-55)23-42-58(6,7)35(13-16-44(64)78)50(72-42)32(4)54(59)73-56;1-2;/h20-21,23,28,31,34-37,41,52-53,56-57,76,84H,12-19,22,24-27H2,1-11H3,(H15,63,64,65,66,67,68,69,71,72,73,74,77,78,79,80,81,82,83,85,86);;/q;;+1/p-1/t31-,34-,35-,36-,37+,41-,52-,53-,56-,57+,59-,60+,61+,62+;;/m1../s1

>  <INCHI_KEY>
InChIKey=SEKGMJVHSBBHRD-WZHZPDAFSA-M

>  <SMILES>
OC[C@H]1O[C@@H]([C@H](O)[C@@H]1OP(O)(=O)O[C@]([H])(C)CNC(=O)CC[C@]1(C)[C@@H](CC(=O)N)[C@@]2([H])N([Co]C#N)\C1=C(C)/C1=N/C(=C\C3=N\C(=C(C)/C4=N[C@]2(C)[C@@](C)(CC(=O)N)[C@@H]4CCC(=O)N)\[C@@](C)(CC(=O)N)[C@@H]3CCC(=O)N)/C(C)(C)[C@@H]1CCC(=O)N)N1C=NC2=CC(C)=C(C)C=C12

>  <JCHEM_ACIDIC_PKA>
1.84

>  <JCHEM_BASIC_PKA>
8.77

>  <JCHEM_PHYSIOLOGICAL_CHARGE>
2

>  <ALOGPS_LOGP>
1.87

>  <ALOGPS_LOGS>
-4.5

>  <ALOGPS_SOLUBILITY>
3.84e-02 g/l __

$$$$
DB00116
 OpenBabel03171413522D

 32 34  0  0  1  0  0  0  0  0999 V2000
    3.5220   -0.2143    0.0000 O   0  0  0  0  0  0  0  0  0  0  0  0
    9.9988    1.0569    0.0000 O   0  0  0  0  0  0  0  0  0  0  0  0
   12.8598    0.2429    0.0000 O   0  0  0  0  0  0  0  0  0  0  0  0
   12.1501   -0.9974    0.0000 O   0  0  0  0  0  0  0  0  0  0  0  0
   12.8502    2.7179    0.0000 O   0  0  0  0  0  0  0  0  0  0  0  0
   11.4213    2.7124    0.0000 O   0  0  0  0  0  0  0  0  0  0  0  0
    4.9740   -1.0107    0.0000 N   0  0  0  0  0  0  0  0  0  0  0  0
    4.9740   -2.7179    0.0000 N   0  0  0  0  0  0  0  0  0  0  0  0
    7.1504   -1.4292    0.0000 N   0  0  0  0  0  0  0  0  0  0  0  0
    3.5220   -2.6894    0.0000 N   0  0  0  0  0  0  0  0  0  0  0  0
    2.8075   -1.4518    0.0000 N   0  0  0  0  0  0  0  0  0  0  0  0
   10.7180   -0.1779    0.0000 N   0  0  0  0  0  0  0  0  0  0  0  0
    2.0930   -2.6894    0.0000 N   0  0  0  0  0  0  0  0  0  0  0  0
    5.7214   -1.4347    0.0000 C   0  0  3  0  0  0  0  0  0  0  0  0
    5.7214   -2.2940    0.0000 C   0  0  0  0  0  0  0  0  0  0  0  0
    6.4343   -1.0194    0.0000 C   0  0  0  0  0  0  0  0  0  0  0  0
    4.2364   -1.4518    0.0000 C   0  0  0  0  0  0  0  0  0  0  0  0
    4.2364   -2.2769    0.0000 C   0  0  0  0  0  0  0  0  0  0  0  0
    7.8633   -1.0139    0.0000 C   0  0  0  0  0  0  0  0  0  0  0  0
    3.5220   -1.0393    0.0000 C   0  0  0  0  0  0  0  0  0  0  0  0
    2.8075   -2.2769    0.0000 C   0  0  0  0  0  0  0  0  0  0  0  0
   11.4309    0.2374    0.0000 C   0  0  1  0  0  0  0  0  0  0  0  0
   11.4277    1.0624    0.0000 C   0  0  0  0  0  0  0  0  0  0  0  0
    8.5793   -1.4236    0.0000 C   0  0  0  0  0  0  0  0  0  0  0  0
    7.8601   -0.1888    0.0000 C   0  0  0  0  0  0  0  0  0  0  0  0
    9.2890   -0.1834    0.0000 C   0  0  0  0  0  0  0  0  0  0  0  0
    9.2922   -1.0084    0.0000 C   0  0  0  0  0  0  0  0  0  0  0  0
    8.5730    0.2264    0.0000 C   0  0  0  0  0  0  0  0  0  0  0  0
   12.1406    1.4777    0.0000 C   0  0  0  0  0  0  0  0  0  0  0  0
   10.0019    0.2319    0.0000 C   0  0  0  0  0  0  0  0  0  0  0  0
   12.1469   -0.1723    0.0000 C   0  0  0  0  0  0  0  0  0  0  0  0
   12.1374    2.3027    0.0000 C   0  0  0  0  0  0  0  0  0  0  0  0
  1 20  2  0  0  0  0
  2 30  2  0  0  0  0
  3 31  1  0  0  0  0
  4 31  2  0  0  0  0
  5 32  1  0  0  0  0
  6 32  2  0  0  0  0
  7 14  1  0  0  0  0
  7 17  1  0  0  0  0
  8 15  1  0  0  0  0
  8 18  1  0  0  0  0
  9 16  1  0  0  0  0
  9 19  1  0  0  0  0
 10 18  1  0  0  0  0
 10 21  1  0  0  0  0
 11 20  1  0  0  0  0
 11 21  2  0  0  0  0
 12 30  1  0  0  0  0
 13 21  1  0  0  0  0
 14 15  1  0  0  0  0
 14 16  1  0  0  0  0
 17 18  2  0  0  0  0
 17 20  1  0  0  0  0
 19 24  2  0  0  0  0
 19 25  1  0  0  0  0
 22 12  1  1  0  0  0
 22 23  1  0  0  0  0
 22 31  1  0  0  0  0
 23 29  1  0  0  0  0
 24 27  1  0  0  0  0
 25 28  2  0  0  0  0
 26 27  2  0  0  0  0
 26 28  1  0  0  0  0
 26 30  1  0  0  0  0
 29 32  1  0  0  0  0
M  END
>  <DRUGBANK_ID>
DB00116

>  <DRUG_GROUPS>
approved; nutraceutical

>  <GENERIC_NAME>
Tetrahydrofolic acid

>  <SYNONYMS>
5,6,7,8-tetrahydrofolate; 5,6,7,8-tetrahydrofolic acid; tetrahydrofolate

>  <CHEMICAL_FORMULA>
C19H23N7O6

>  <MOLECULAR_WEIGHT>
445.4292

>  <EXACT_MASS>
445.170981503

>  <IUPAC_NAME>
(2S)-2-[(4-{[(2-amino-4-oxo-1,4,5,6,7,8-hexahydropteridin-6-yl)methyl]amino}phenyl)formamido]pentanedioic acid

>  <INCHI_IDENTIFIER>
InChI=1S/C19H23N7O6/c20-19-25-15-14(17(30)26-19)23-11(8-22-15)7-21-10-3-1-9(2-4-10)16(29)24-12(18(31)32)5-6-13(27)28/h1-4,11-12,21,23H,5-8H2,(H,24,29)(H,27,28)(H,31,32)(H4,20,22,25,26,30)/t11?,12-/m0/s1

>  <INCHI_KEY>
InChIKey=MSTNYGQPCMXVAQ-KIYNQFGBSA-N

>  <SMILES>
NC1=NC(=O)C2=C(NCC(CNC3=CC=C(C=C3)C(=O)N[C@@H](CCC(O)=O)C(O)=O)N2)N1

>  <JCHEM_ACCEPTOR_COUNT>
12

>  <JCHEM_DONOR_COUNT>
8

>  <JCHEM_ACIDIC_PKA>
3.51

>  <JCHEM_BASIC_PKA>
3.58

>  <JCHEM_PHYSIOLOGICAL_CHARGE>
-2

>  <ALOGPS_LOGP>
-0.96

>  <JCHEM_LOGP>
-4.2

>  <ALOGPS_LOGS>
-3.2

>  <JCHEM_POLARIZABILITY>
42.95

>  <JCHEM_POLAR_SURFACE_AREA>
207.27

>  <JCHEM_REFRACTIVITY>
121.39

>  <JCHEM_ROTATABLE_BOND_COUNT>
9

>  <ALOGPS_SOLUBILITY>
2.69e-01 g/l __

$$$$
DB00117
 OpenBabel03171413522D

 11 11  0  0  1  0  0  0  0  0999 V2000
    5.7803    0.3693    0.0000 O   0  0  0  0  0  0  0  0  0  0  0  0
    5.3388   -0.9898    0.0000 O   0  0  0  0  0  0  0  0  0  0  0  0
    2.3174   -0.7099    0.0000 N   0  0  0  0  0  0  0  0  0  0  0  0
    4.2111    0.8791    0.0000 N   0  0  0  0  0  0  0  0  0  0  0  0
    1.9049    0.5597    0.0000 N   0  0  0  0  0  0  0  0  0  0  0  0
    3.7695   -0.4799    0.0000 C   0  0  0  0  0  0  0  0  0  0  0  0
    4.3826    0.0721    0.0000 C   0  0  1  0  0  0  0  0  0  0  0  0
    2.9849   -0.2250    0.0000 C   0  0  0  0  0  0  0  0  0  0  0  0
    5.1672   -0.1828    0.0000 C   0  0  0  0  0  0  0  0  0  0  0  0
    2.7299    0.5597    0.0000 C   0  0  0  0  0  0  0  0  0  0  0  0
    1.6500   -0.2250    0.0000 C   0  0  0  0  0  0  0  0  0  0  0  0
  1  9  1  0  0  0  0
  2  9  2  0  0  0  0
  3  8  1  0  0  0  0
  3 11  1  0  0  0  0
  5 10  1  0  0  0  0
  5 11  2  0  0  0  0
  6  7  1  0  0  0  0
  6  8  1  0  0  0  0
  7  4  1  6  0  0  0
  7  9  1  0  0  0  0
  8 10  2  0  0  0  0
M  END
>  <DRUGBANK_ID>
DB00117

>  <DRUG_GROUPS>
approved; nutraceutical

>  <GENERIC_NAME>
L-Histidine

>  <SYNONYMS>
(S)-4-(2-Amino-2-carboxyethyl)imidazole; (S)-a-Amino-1H-imidazole-4-propanoic acid; (S)-alpha-Amino-1H-imidazole-4-propionic acid; (S)-Histidine; Glyoxaline-5-alanine; Histidine; L-(-)-Histidine

>  <CHEMICAL_FORMULA>
C6H9N3O2

>  <MOLECULAR_WEIGHT>
155.1546

>  <EXACT_MASS>
155.069476547

>  <IUPAC_NAME>
(2S)-2-amino-3-(1H-imidazol-5-yl)propanoic acid

>  <INCHI_IDENTIFIER>
InChI=1S/C6H9N3O2/c7-5(6(10)11)1-4-2-8-3-9-4/h2-3,5H,1,7H2,(H,8,9)(H,10,11)/t5-/m0/s1

>  <INCHI_KEY>
InChIKey=HNDVDQJCIGZPNO-YFKPBYRVSA-N

>  <SMILES>
N[C@@H](CC1=CN=CN1)C(O)=O

>  <JCHEM_ACCEPTOR_COUNT>
4

>  <JCHEM_DONOR_COUNT>
3

>  <JCHEM_ACIDIC_PKA>
1.85

>  <JCHEM_BASIC_PKA>
9.44

>  <JCHEM_PHYSIOLOGICAL_CHARGE>
0

>  <ALOGPS_LOGP>
-3.1

>  <JCHEM_LOGP>
-3.6

>  <ALOGPS_LOGS>
-0.4

>  <JCHEM_POLARIZABILITY>
14.67

>  <JCHEM_POLAR_SURFACE_AREA>
92

>  <JCHEM_REFRACTIVITY>
38.06

>  <JCHEM_ROTATABLE_BOND_COUNT>
3

>  <ALOGPS_SOLUBILITY>
6.20e+01 g/l __

$$$$
DB00118
 OpenBabel03171413522D

 27 29  0  0  1  0  0  0  0  0999 V2000
    6.3238    1.4141    0.0000 S   0  3  3  0  0  0  0  0  0  0  0  0
    4.9010    0.4421    0.0000 O   0  0  0  0  0  0  0  0  0  0  0  0
    3.8647    2.3086    0.0000 O   0  0  0  0  0  0  0  0  0  0  0  0
    2.8071    0.8583    0.0000 O   0  0  0  0  0  0  0  0  0  0  0  0
    9.8349    2.1917    0.0000 O   0  0  0  0  0  0  0  0  0  0  0  0
    9.2515    0.8872    0.0000 O   0  0  0  0  0  0  0  0  0  0  0  0
    3.8597   -0.5957    0.0000 N   0  0  0  0  0  0  0  0  0  0  0  0
    3.8597   -1.9234    0.0000 N   0  0  0  0  0  0  0  0  0  0  0  0
    2.3645   -0.4345    0.0000 N   0  0  0  0  0  0  0  0  0  0  0  0
    8.3287    2.8654    0.0000 N   0  0  0  0  0  0  0  0  0  0  0  0
    1.6500   -1.6721    0.0000 N   0  0  0  0  0  0  0  0  0  0  0  0
    2.3645   -2.9096    0.0000 N   0  0  0  0  0  0  0  0  0  0  0  0
    4.9025    1.2671    0.0000 C   0  0  1  0  0  0  0  0  0  0  0  0
    4.1182    1.5235    0.0000 C   0  0  2  0  0  0  0  0  0  0  0  0
    3.6321    0.8569    0.0000 C   0  0  2  0  0  0  0  0  0  0  0  0
    4.1159    0.1886    0.0000 C   0  0  1  0  0  0  0  0  0  0  0  0
    5.5707    1.7509    0.0000 C   0  0  0  0  0  0  0  0  0  0  0  0
    6.9922    1.8979    0.0000 C   0  0  0  0  0  0  0  0  0  0  0  0
    3.0790   -0.8470    0.0000 C   0  0  0  0  0  0  0  0  0  0  0  0
    4.3411   -1.2595    0.0000 C   0  0  0  0  0  0  0  0  0  0  0  0
    7.7452    1.5610    0.0000 C   0  0  0  0  0  0  0  0  0  0  0  0
    6.4086    0.5934    0.0000 C   0  0  0  0  0  0  0  0  0  0  0  0
    3.0790   -1.6721    0.0000 C   0  0  0  0  0  0  0  0  0  0  0  0
    8.4135    2.0447    0.0000 C   0  0  1  0  0  0  0  0  0  0  0  0
    2.3645   -2.0846    0.0000 C   0  0  0  0  0  0  0  0  0  0  0  0
    9.1667    1.7079    0.0000 C   0  0  0  0  0  0  0  0  0  0  0  0
    1.6500   -0.8470    0.0000 C   0  0  0  0  0  0  0  0  0  0  0  0
  1 17  1  0  0  0  0
  1 18  1  0  0  0  0
  1 22  1  0  0  0  0
  2 13  1  0  0  0  0
  2 16  1  0  0  0  0
  5 26  1  0  0  0  0
  6 26  2  0  0  0  0
  7 19  1  0  0  0  0
  7 20  1  0  0  0  0
  8 20  2  0  0  0  0
  8 23  1  0  0  0  0
  9 19  2  0  0  0  0
  9 27  1  0  0  0  0
 11 25  1  0  0  0  0
 11 27  2  0  0  0  0
 12 25  1  0  0  0  0
 13 14  1  0  0  0  0
 13 17  1  1  0  0  0
 14  3  1  6  0  0  0
 14 15  1  0  0  0  0
 15  4  1  6  0  0  0
 15 16  1  0  0  0  0
 16  7  1  1  0  0  0
 18 21  1  0  0  0  0
 19 23  1  0  0  0  0
 21 24  1  0  0  0  0
 23 25  2  0  0  0  0
 24 10  1  6  0  0  0
 24 26  1  0  0  0  0
M  CHG  1   1   1
M  END
>  <DRUGBANK_ID>
DB00118

>  <DRUG_GROUPS>
approved; nutraceutical

>  <GENERIC_NAME>
S-Adenosylmethionine

>  <SYNONYMS>
Acylcarnitine; AdoMet; S-adenosyl-L-methionine; SAM; SAM-e; SAMe

>  <BRANDS>
Sam-Sulfate; SAMe Rx-Mood

>  <CHEMICAL_FORMULA>
C15H23N6O5S

>  <MOLECULAR_WEIGHT>
399.445

>  <EXACT_MASS>
399.145063566

>  <IUPAC_NAME>
[(3S)-3-amino-3-carboxypropyl]({[(2S,3S,4R,5R)-5-(6-amino-9H-purin-9-yl)-3,4-dihydroxyoxolan-2-yl]methyl})methylsulfanium

>  <INCHI_IDENTIFIER>
InChI=1S/C15H22N6O5S/c1-27(3-2-7(16)15(24)25)4-8-10(22)11(23)14(26-8)21-6-20-9-12(17)18-5-19-13(9)21/h5-8,10-11,14,22-23H,2-4,16H2,1H3,(H2-,17,18,19,24,25)/p+1/t7-,8+,10+,11+,14+,27?/m0/s1

>  <INCHI_KEY>
InChIKey=MEFKEPWMEQBLKI-AIRLBKTGSA-O

>  <SMILES>
C[S+](CC[C@H](N)C(O)=O)C[C@H]1O[C@H]([C@H](O)[C@@H]1O)N1C=NC2=C(N)N=CN=C12

>  <JCHEM_ACCEPTOR_COUNT>
10

>  <JCHEM_DONOR_COUNT>
5

>  <JCHEM_ACIDIC_PKA>
1.71

>  <JCHEM_BASIC_PKA>
9.41

>  <JCHEM_PHYSIOLOGICAL_CHARGE>
1

>  <ALOGPS_LOGP>
-2

>  <JCHEM_LOGP>
-5.3

>  <ALOGPS_LOGS>
-2.6

>  <JCHEM_POLARIZABILITY>
40.37

>  <JCHEM_POLAR_SURFACE_AREA>
182.63

>  <JCHEM_REFRACTIVITY>
96.23

>  <JCHEM_ROTATABLE_BOND_COUNT>
7

>  <ALOGPS_SOLUBILITY>
1.19e+00 g/l __

$$$$
DB00119
 OpenBabel03171413522D

  6  5  0  0  0  0  0  0  0  0999 V2000
    2.0928    0.2063    0.0000 O   0  0  0  0  0  0  0  0  0  0  0  0
    3.5217    1.0312    0.0000 O   0  0  0  0  0  0  0  0  0  0  0  0
    2.8072   -1.0312    0.0000 O   0  0  0  0  0  0  0  0  0  0  0  0
    3.5217    0.2063    0.0000 C   0  0  0  0  0  0  0  0  0  0  0  0
    4.2361   -0.2063    0.0000 C   0  0  0  0  0  0  0  0  0  0  0  0
    2.8072   -0.2063    0.0000 C   0  0  0  0  0  0  0  0  0  0  0  0
  1  6  1  0  0  0  0
  2  4  2  0  0  0  0
  3  6  2  0  0  0  0
  4  5  1  0  0  0  0
  4  6  1  0  0  0  0
M  END
>  <DRUGBANK_ID>
DB00119

>  <DRUG_GROUPS>
approved; nutraceutical

>  <GENERIC_NAME>
Pyruvic acid

>  <SYNONYMS>
2-Oxopropanoate; 2-Oxopropanoic acid; 2-Oxopropionic acid; a-Ketopropionic acid; Acetylformic acid; BTS; Pyroracemic acid; Pyruvate

>  <CHEMICAL_FORMULA>
C3H4O3

>  <MOLECULAR_WEIGHT>
88.0621

>  <EXACT_MASS>
88.016043994

>  <IUPAC_NAME>
2-oxopropanoic acid

>  <INCHI_IDENTIFIER>
InChI=1S/C3H4O3/c1-2(4)3(5)6/h1H3,(H,5,6)

>  <INCHI_KEY>
InChIKey=LCTONWCANYUPML-UHFFFAOYSA-N

>  <SMILES>
CC(=O)C(O)=O

>  <JCHEM_ACCEPTOR_COUNT>
3

>  <JCHEM_DONOR_COUNT>
1

>  <JCHEM_ACIDIC_PKA>
2.93

>  <JCHEM_BASIC_PKA>
-9.6

>  <JCHEM_PHYSIOLOGICAL_CHARGE>
-1

>  <ALOGPS_LOGP>
-0.38

>  <JCHEM_LOGP>
0.066

>  <ALOGPS_LOGS>
0.18

>  <JCHEM_POLARIZABILITY>
7.31

>  <JCHEM_POLAR_SURFACE_AREA>
54.37

>  <JCHEM_REFRACTIVITY>
17.99

>  <JCHEM_ROTATABLE_BOND_COUNT>
1

>  <ALOGPS_SOLUBILITY>
1.34e+02 g/l __

$$$$
DB00120
 OpenBabel03171413522D

 12 12  0  0  1  0  0  0  0  0999 V2000
    3.7934    1.8067    0.0000 O   0  0  0  0  0  0  0  0  0  0  0  0
    2.3644    1.8067    0.0000 O   0  0  0  0  0  0  0  0  0  0  0  0
    3.7934    0.1568    0.0000 N   0  0  0  0  0  0  0  0  0  0  0  0
    2.3644    0.1568    0.0000 C   0  0  0  0  0  0  0  0  0  0  0  0
    3.0790    0.5692    0.0000 C   0  0  1  0  0  0  0  0  0  0  0  0
    2.3644   -0.6683    0.0000 C   0  0  0  0  0  0  0  0  0  0  0  0
    3.0790   -1.0808    0.0000 C   0  0  0  0  0  0  0  0  0  0  0  0
    1.6500   -1.0808    0.0000 C   0  0  0  0  0  0  0  0  0  0  0  0
    3.0790    1.3942    0.0000 C   0  0  0  0  0  0  0  0  0  0  0  0
    3.0790   -1.9058    0.0000 C   0  0  0  0  0  0  0  0  0  0  0  0
    1.6500   -1.9058    0.0000 C   0  0  0  0  0  0  0  0  0  0  0  0
    2.3644   -2.3182    0.0000 C   0  0  0  0  0  0  0  0  0  0  0  0
  1  9  1  0  0  0  0
  2  9  2  0  0  0  0
  4  5  1  0  0  0  0
  4  6  1  0  0  0  0
  5  3  1  1  0  0  0
  5  9  1  0  0  0  0
  6  7  2  0  0  0  0
  6  8  1  0  0  0  0
  7 10  1  0  0  0  0
  8 11  2  0  0  0  0
 10 12  2  0  0  0  0
 11 12  1  0  0  0  0
M  END
>  <DRUGBANK_ID>
DB00120

>  <DRUG_GROUPS>
approved; nutraceutical

>  <GENERIC_NAME>
L-Phenylalanine

>  <SYNONYMS>
(S)-alpha-Amino-beta-phenylpropionic acid; 3-phenyl-L-alanine; Phe; β-phenyl-L-alanine

>  <CHEMICAL_FORMULA>
C9H11NO2

>  <MOLECULAR_WEIGHT>
165.1891

>  <EXACT_MASS>
165.078978601

>  <IUPAC_NAME>
(2S)-2-amino-3-phenylpropanoic acid

>  <INCHI_IDENTIFIER>
InChI=1S/C9H11NO2/c10-8(9(11)12)6-7-4-2-1-3-5-7/h1-5,8H,6,10H2,(H,11,12)/t8-/m0/s1

>  <INCHI_KEY>
InChIKey=COLNVLDHVKWLRT-QMMMGPOBSA-N

>  <SMILES>
N[C@@H](CC1=CC=CC=C1)C(O)=O

>  <JCHEM_ACCEPTOR_COUNT>
3

>  <JCHEM_DONOR_COUNT>
2

>  <JCHEM_ACIDIC_PKA>
2.47

>  <JCHEM_BASIC_PKA>
9.45

>  <JCHEM_PHYSIOLOGICAL_CHARGE>
0

>  <ALOGPS_LOGP>
-1.4

>  <JCHEM_LOGP>
-1.2

>  <ALOGPS_LOGS>
-1.6

>  <JCHEM_POLARIZABILITY>
17.03

>  <JCHEM_POLAR_SURFACE_AREA>
63.32

>  <JCHEM_REFRACTIVITY>
45.12

>  <JCHEM_ROTATABLE_BOND_COUNT>
3

>  <ALOGPS_SOLUBILITY>
4.14e+00 g/l __

$$$$
DB00121
 OpenBabel03171413522D

 18 19  0  0  1  0  0  0  0  0999 V2000
    5.0072   -1.4297    0.0000 S   0  0  0  0  0  0  0  0  0  0  0  0
    1.6501   -1.4297    0.0000 O   0  0  0  0  0  0  0  0  0  0  0  0
    7.7167    2.0975    0.0000 O   0  0  0  0  0  0  0  0  0  0  0  0
    6.3583    2.5414    0.0000 O   0  0  0  0  0  0  0  0  0  0  0  0
    2.9603   -0.7622    0.0000 N   0  0  0  0  0  0  0  0  0  0  0  0
    2.9603   -2.0972    0.0000 N   0  0  0  0  0  0  0  0  0  0  0  0
    3.7448   -1.0172    0.0000 C   0  0  1  0  0  0  0  0  0  0  0  0
    3.7448   -1.8423    0.0000 C   0  0  2  0  0  0  0  0  0  0  0  0
    4.5257   -0.7658    0.0000 C   0  0  2  0  0  0  0  0  0  0  0  0
    4.5257   -2.0937    0.0000 C   0  0  0  0  0  0  0  0  0  0  0  0
    4.7819    0.0186    0.0000 C   0  0  0  0  0  0  0  0  0  0  0  0
    5.5893    0.1887    0.0000 C   0  0  0  0  0  0  0  0  0  0  0  0
    2.4752   -1.4297    0.0000 C   0  0  0  0  0  0  0  0  0  0  0  0
    5.8456    0.9729    0.0000 C   0  0  0  0  0  0  0  0  0  0  0  0
    6.6530    1.1431    0.0000 C   0  0  0  0  0  0  0  0  0  0  0  0
    6.9093    1.9273    0.0000 C   0  0  0  0  0  0  0  0  0  0  0  0
    3.7458   -0.3571    0.0000 H   0  0  0  0  0  0  0  0  0  0  0  0
    3.7458   -2.5023    0.0000 H   0  0  0  0  0  0  0  0  0  0  0  0
  1  9  1  0  0  0  0
  1 10  1  0  0  0  0
  2 13  2  0  0  0  0
  3 16  1  0  0  0  0
  4 16  2  0  0  0  0
  5  7  1  0  0  0  0
  5 13  1  0  0  0  0
  6  8  1  0  0  0  0
  6 13  1  0  0  0  0
  7  8  1  0  0  0  0
  7  9  1  0  0  0  0
  7 17  1  1  0  0  0
  8 10  1  0  0  0  0
  8 18  1  1  0  0  0
  9 11  1  6  0  0  0
 11 12  1  0  0  0  0
 12 14  1  0  0  0  0
 14 15  1  0  0  0  0
 15 16  1  0  0  0  0
M  END
>  <DRUGBANK_ID>
DB00121

>  <DRUG_GROUPS>
approved; nutraceutical

>  <GENERIC_NAME>
Biotin

>  <SYNONYMS>
(+)-cis-Hexahydro-2-oxo-1H-thieno[3,4]imidazole-4-valeric acid; cis-(+)-Tetrahydro-2-oxothieno[3,4]imidazoline-4-valeric acid; Coenzyme R; D-Biotin; D(+)-Biotin; Vitamin B7; Vitamin H

>  <BRANDS>
Biodermatin; Bioepiderm; Bios II; Biotin Forte; Factor S; Lutavit H2; Meribin; Rovimix H2

>  <CHEMICAL_FORMULA>
C10H16N2O3S

>  <MOLECULAR_WEIGHT>
244.311

>  <EXACT_MASS>
244.088163078

>  <IUPAC_NAME>
5-[(3aS,4S,6aR)-2-oxo-hexahydro-1H-thieno[3,4-d]imidazolidin-4-yl]pentanoic acid

>  <INCHI_IDENTIFIER>
InChI=1S/C10H16N2O3S/c13-8(14)4-2-1-3-7-9-6(5-16-7)11-10(15)12-9/h6-7,9H,1-5H2,(H,13,14)(H2,11,12,15)/t6-,7-,9-/m0/s1

>  <INCHI_KEY>
InChIKey=YBJHBAHKTGYVGT-ZKWXMUAHSA-N

>  <SMILES>
[H][C@]12CS[C@@H](CCCCC(O)=O)[C@@]1([H])NC(=O)N2

>  <JCHEM_ACCEPTOR_COUNT>
3

>  <JCHEM_DONOR_COUNT>
3

>  <JCHEM_ACIDIC_PKA>
4.4

>  <JCHEM_BASIC_PKA>
-1.9

>  <JCHEM_PHYSIOLOGICAL_CHARGE>
-1

>  <ALOGPS_LOGP>
0.17

>  <JCHEM_LOGP>
0.32

>  <ALOGPS_LOGS>
-2.3

>  <JCHEM_POLARIZABILITY>
24.92

>  <JCHEM_POLAR_SURFACE_AREA>
78.43

>  <JCHEM_REFRACTIVITY>
60.05

>  <JCHEM_ROTATABLE_BOND_COUNT>
5

>  <ALOGPS_SOLUBILITY>
1.22e+00 g/l __

$$$$
DB00122
 OpenBabel03171413522D

  7  6  0  0  0  0  0  0  0  0999 V2000
    4.5080    0.4125    0.0000 O   0  0  0  0  0  0  0  0  0  0  0  0
    2.3645    0.0000    0.0000 N   0  3  0  0  0  0  0  0  0  0  0  0
    3.0791    0.4125    0.0000 C   0  0  0  0  0  0  0  0  0  0  0  0
    1.6501   -0.4125    0.0000 C   0  0  0  0  0  0  0  0  0  0  0  0
    1.9520    0.7145    0.0000 C   0  0  0  0  0  0  0  0  0  0  0  0
    2.7770   -0.7145    0.0000 C   0  0  0  0  0  0  0  0  0  0  0  0
    3.7936    0.0000    0.0000 C   0  0  0  0  0  0  0  0  0  0  0  0
  1  7  1  0  0  0  0
  2  3  1  0  0  0  0
  2  4  1  0  0  0  0
  2  5  1  0  0  0  0
  2  6  1  0  0  0  0
  3  7  1  0  0  0  0
M  CHG  1   2   1
M  END
>  <DRUGBANK_ID>
DB00122

>  <DRUG_GROUPS>
approved; nutraceutical

>  <GENERIC_NAME>
Choline

>  <SYNONYMS>
Bilineurine; Choline cation; Choline ion; Cholinum; N-trimethylethanolamine; N,N,N-trimethylethanol-ammonium; trimethylethanolamine

>  <CHEMICAL_FORMULA>
C5H14NO

>  <MOLECULAR_WEIGHT>
104.1708

>  <EXACT_MASS>
104.107539075

>  <IUPAC_NAME>
(2-hydroxyethyl)trimethylazanium

>  <INCHI_IDENTIFIER>
InChI=1S/C5H14NO/c1-6(2,3)4-5-7/h7H,4-5H2,1-3H3/q+1

>  <INCHI_KEY>
InChIKey=OEYIOHPDSNJKLS-UHFFFAOYSA-N

>  <SMILES>
C[N+](C)(C)CCO

>  <JCHEM_ACCEPTOR_COUNT>
1

>  <JCHEM_DONOR_COUNT>
1

>  <JCHEM_ACIDIC_PKA>
13.97

>  <JCHEM_BASIC_PKA>
-3.2

>  <JCHEM_PHYSIOLOGICAL_CHARGE>
1

>  <ALOGPS_LOGP>
-3.6

>  <JCHEM_LOGP>
-4.7

>  <ALOGPS_LOGS>
-1.6

>  <JCHEM_POLARIZABILITY>
12.57

>  <JCHEM_POLAR_SURFACE_AREA>
20.23

>  <JCHEM_REFRACTIVITY>
42.19

>  <JCHEM_ROTATABLE_BOND_COUNT>
2

>  <ALOGPS_SOLUBILITY>
3.61e+00 g/l __

$$$$
DB00123
 OpenBabel03171413522D

 10  9  0  0  1  0  0  0  0  0999 V2000
    4.9509    1.1592    0.0000 O   0  0  0  0  0  0  0  0  0  0  0  0
    4.2365    2.3967    0.0000 O   0  0  0  0  0  0  0  0  0  0  0  0
    2.8075    1.5717    0.0000 N   0  0  0  0  0  0  0  0  0  0  0  0
    2.0930   -2.1409    0.0000 N   0  0  0  0  0  0  0  0  0  0  0  0
    2.8075   -0.0784    0.0000 C   0  0  0  0  0  0  0  0  0  0  0  0
    3.5220    0.3341    0.0000 C   0  0  0  0  0  0  0  0  0  0  0  0
    2.8075   -0.9034    0.0000 C   0  0  0  0  0  0  0  0  0  0  0  0
    3.5220    1.1592    0.0000 C   0  0  1  0  0  0  0  0  0  0  0  0
    2.0930   -1.3159    0.0000 C   0  0  0  0  0  0  0  0  0  0  0  0
    4.2365    1.5717    0.0000 C   0  0  0  0  0  0  0  0  0  0  0  0
  1 10  1  0  0  0  0
  2 10  2  0  0  0  0
  4  9  1  0  0  0  0
  5  6  1  0  0  0  0
  5  7  1  0  0  0  0
  6  8  1  0  0  0  0
  7  9  1  0  0  0  0
  8  3  1  6  0  0  0
  8 10  1  0  0  0  0
M  END
>  <DRUGBANK_ID>
DB00123

>  <DRUG_GROUPS>
approved; nutraceutical

>  <GENERIC_NAME>
L-Lysine

>  <SYNONYMS>
(S)-2,6-diaminohexanoic acid; (S)-lysine; (S)-α,ε-diaminocaproic acid; L-lys; LYS; lysine acid

>  <BRANDS>
Enisyl

>  <CHEMICAL_FORMULA>
C6H14N2O2

>  <MOLECULAR_WEIGHT>
146.1876

>  <EXACT_MASS>
146.105527702

>  <IUPAC_NAME>
(2S)-2,6-diaminohexanoic acid

>  <INCHI_IDENTIFIER>
InChI=1S/C6H14N2O2/c7-4-2-1-3-5(8)6(9)10/h5H,1-4,7-8H2,(H,9,10)/t5-/m0/s1

>  <INCHI_KEY>
InChIKey=KDXKERNSBIXSRK-YFKPBYRVSA-N

>  <SMILES>
NCCCC[C@H](N)C(O)=O

>  <JCHEM_ACCEPTOR_COUNT>
4

>  <JCHEM_DONOR_COUNT>
3

>  <JCHEM_ACIDIC_PKA>
2.74

>  <JCHEM_BASIC_PKA>
10.29

>  <JCHEM_PHYSIOLOGICAL_CHARGE>
1

>  <ALOGPS_LOGP>
-3.8

>  <JCHEM_LOGP>
-3.2

>  <ALOGPS_LOGS>
-0.14

>  <JCHEM_POLARIZABILITY>
15.84

>  <JCHEM_POLAR_SURFACE_AREA>
89.34

>  <JCHEM_REFRACTIVITY>
37.81

>  <JCHEM_ROTATABLE_BOND_COUNT>
5

>  <ALOGPS_SOLUBILITY>
1.05e+02 g/l __

$$$$
DB00125
 OpenBabel03171413522D

 12 11  0  0  1  0  0  0  0  0999 V2000
   14.1789  -10.6043    0.0000 C   0  0  0  0  0  0  0  0  0  0  0  0
   14.8861  -11.0267    0.0000 C   0  0  0  0  0  0  0  0  0  0  0  0
   13.4544  -11.0061    0.0000 C   0  0  1  0  0  0  0  0  0  0  0  0
   15.6071  -10.6250    0.0000 C   0  0  0  0  0  0  0  0  0  0  0  0
   12.7815  -10.5666    0.0000 C   0  0  0  0  0  0  0  0  0  0  0  0
   13.4818  -11.8301    0.0000 N   0  0  0  0  0  0  0  0  0  0  0  0
   16.3178  -11.0439    0.0000 N   0  0  0  0  0  0  0  0  0  0  0  0
   12.0605  -10.9683    0.0000 O   0  0  0  0  0  0  0  0  0  0  0  0
   12.7540   -9.7392    0.0000 O   0  0  0  0  0  0  0  0  0  0  0  0
   17.0389  -10.6455    0.0000 C   0  0  0  0  0  0  0  0  0  0  0  0
   17.7461  -11.0644    0.0000 N   0  0  0  0  0  0  0  0  0  0  0  0
   17.0492   -9.8182    0.0000 N   0  0  0  0  0  0  0  0  0  0  0  0
  1  2  1  0  0  0  0
  2  4  1  0  0  0  0
  3  1  1  6  0  0  0
  3  5  1  0  0  0  0
  3  6  1  0  0  0  0
  4  7  1  0  0  0  0
  5  8  1  0  0  0  0
  5  9  2  0  0  0  0
  7 10  1  0  0  0  0
 10 11  1  0  0  0  0
 10 12  2  0  0  0  0
M  END
>  <DRUGBANK_ID>
DB00125

>  <DRUG_GROUPS>
approved; nutraceutical

>  <GENERIC_NAME>
L-Arginine

>  <SYNONYMS>
(S)-2-Amino-5-guanidinovaleric acid; Arg; L-(+)-Arginine; L-Arg

>  <BRANDS>
Argamine; Argivene; Detoxargin; Levargin; Minophagen A; R-Gene 10

>  <CHEMICAL_FORMULA>
C6H14N4O2

>  <MOLECULAR_WEIGHT>
174.201

>  <EXACT_MASS>
174.111675712

>  <IUPAC_NAME>
(2S)-2-amino-5-carbamimidamidopentanoic acid

>  <INCHI_IDENTIFIER>
InChI=1S/C6H14N4O2/c7-4(5(11)12)2-1-3-10-6(8)9/h4H,1-3,7H2,(H,11,12)(H4,8,9,10)/t4-/m0/s1

>  <INCHI_KEY>
InChIKey=ODKSFYDXXFIFQN-BYPYZUCNSA-N

>  <SMILES>
N[C@@H](CCCNC(N)=N)C(O)=O

>  <JCHEM_ACCEPTOR_COUNT>
6

>  <JCHEM_DONOR_COUNT>
5

>  <JCHEM_ACIDIC_PKA>
2.41

>  <JCHEM_BASIC_PKA>
12.41

>  <JCHEM_PHYSIOLOGICAL_CHARGE>
1

>  <ALOGPS_LOGP>
-3.5

>  <JCHEM_LOGP>
-3.2

>  <ALOGPS_LOGS>
-1.9

>  <JCHEM_POLARIZABILITY>
17.94

>  <JCHEM_POLAR_SURFACE_AREA>
125.22

>  <JCHEM_REFRACTIVITY>
53.92

>  <JCHEM_ROTATABLE_BOND_COUNT>
5

>  <ALOGPS_SOLUBILITY>
2.28e+00 g/l __

$$$$
DB00126
 OpenBabel03171413522D

 13 13  0  0  1  0  0  0  0  0999 V2000
    0.0000    0.0000    0.0000 O   0  0  0  0  0  0  0  0  0  0  0  0
   -0.8974   -1.9370    0.0000 O   0  0  0  0  0  0  0  0  0  0  0  0
    0.8974   -1.9370    0.0000 O   0  0  0  0  0  0  0  0  0  0  0  0
    0.6674   -0.4849    0.0000 C   0  0  0  0  0  0  0  0  0  0  0  0
    1.4521   -0.2300    0.0000 O   0  0  0  0  0  0  0  0  0  0  0  0
    0.4125   -1.2695    0.0000 C   0  0  0  0  0  0  0  0  0  0  0  0
   -0.4125   -1.2695    0.0000 C   0  0  0  0  0  0  0  0  0  0  0  0
   -2.8109   -0.0724    0.0000 O   0  0  0  0  0  0  0  0  0  0  0  0
   -2.0964   -0.4849    0.0000 C   0  0  0  0  0  0  0  0  0  0  0  0
   -1.3819   -0.0724    0.0000 C   0  0  2  0  0  0  0  0  0  0  0  0
   -1.3819    0.7526    0.0000 O   0  0  0  0  0  0  0  0  0  0  0  0
   -0.6674   -0.4849    0.0000 C   0  0  1  0  0  0  0  0  0  0  0  0
   -1.2508   -1.0683    0.0000 H   0  0  0  0  0  0  0  0  0  0  0  0
  1  4  1  0  0  0  0
  4  5  2  0  0  0  0
  4  6  1  0  0  0  0
  6  3  1  0  0  0  0
  6  7  2  0  0  0  0
  7  2  1  0  0  0  0
  8  9  1  0  0  0  0
 10  9  1  6  0  0  0
 10 11  1  0  0  0  0
 12  1  1  0  0  0  0
 12  7  1  0  0  0  0
 12 10  1  0  0  0  0
 12 13  1  6  0  0  0
M  END
>  <DRUGBANK_ID>
DB00126

>  <DRUG_GROUPS>
approved; nutraceutical

>  <GENERIC_NAME>
Vitamin C

>  <SYNONYMS>
Ascorbate; Ascorbic Acid; L-Ascorbate; L-Ascorbic Acid; L-Lyxoascorbic Acid; L-Xyloascorbic Acid

>  <BRANDS>
Adenex; Allercorb; Antiscorbic Vitamin; Antiscorbutic Vitamin; Arco-Cee; Ascoltin; Ascor-B.I.D.; Ascorb; Ascorbajen; Ascorbicab; Ascorbicap; Ascorbicin; Ascorbin; Ascorbutina; Ascorin; Ascorteal; Ascorvit; C-Level; C-Long; C-Quin; C-Span; C-Vimin; Cantan; Cantaxin; Catavin C; Ce Lent; Cebicure; Cebid; Cebion; Cebione; Cecon; Cee-Caps Td; Cee-Vite; Cegiolan; Ceglion; Celaskon; Celin; Cemagyl; Cemill; Cenetone; Cenolate; Cereon; Cergona; Cescorbat; Cetamid; Cetane; Cetane-Caps Tc; Cetane-Caps Td; Cetebe; Cetemican; Cevalin; Cevatine; Cevex; Cevi-Bid; Cevimin; Cevital; Cevitamic Acid; Cevitamin; Cevitan; Cevitex; Cewin; Ciamin; Cipca; Citriscorb; Colascor; Concemin; Davitamon C; Duoscorb; Hicee; Hybrin; IDO-C; Kyselina Askorbova; Laroscorbine; Lemascorb; Liqui-Cee; Meri-C; Natrascorb; Planavit C; Proscorbin; Redoxon; Ribena; Roscorbic; Scorbacid; Scorbu-C; Secorbate; Sodascorbate; Testascorbic; Vicelat; Vicin; Vicomin C; Viforcit; Viscorin; Vitace; Vitacee; Vitacimin; Vitacin; Vitamisin; Vitascorbol; Xitix

>  <CHEMICAL_FORMULA>
C6H8O6

>  <MOLECULAR_WEIGHT>
176.1241

>  <EXACT_MASS>
176.032087988

>  <IUPAC_NAME>
(5R)-5-[(1S)-1,2-dihydroxyethyl]-3,4-dihydroxy-2,5-dihydrofuran-2-one

>  <INCHI_IDENTIFIER>
InChI=1S/C6H8O6/c7-1-2(8)5-3(9)4(10)6(11)12-5/h2,5,7-10H,1H2/t2-,5+/m0/s1

>  <INCHI_KEY>
InChIKey=CIWBSHSKHKDKBQ-JLAZNSOCSA-N

>  <SMILES>
[H][C@@]1(OC(=O)C(O)=C1O)[C@@H](O)CO

>  <JCHEM_ACCEPTOR_COUNT>
5

>  <JCHEM_DONOR_COUNT>
4

>  <JCHEM_ACIDIC_PKA>
4.36

>  <JCHEM_BASIC_PKA>
-3

>  <JCHEM_PHYSIOLOGICAL_CHARGE>
-1

>  <ALOGPS_LOGP>
-1.6

>  <JCHEM_LOGP>
-1.9

>  <ALOGPS_LOGS>
0.14

>  <JCHEM_POLARIZABILITY>
14.93

>  <JCHEM_POLAR_SURFACE_AREA>
107.22

>  <JCHEM_REFRACTIVITY>
37.03

>  <JCHEM_ROTATABLE_BOND_COUNT>
2

>  <ALOGPS_SOLUBILITY>
2.45e+02 g/l __

$$$$
DB00127
 OpenBabel03171413522D

 14 13  0  0  0  0  0  0  0  0999 V2000
    4.9504    0.2063    0.0000 N   0  0  0  0  0  0  0  0  0  0  0  0
    8.5226   -0.2063    0.0000 N   0  0  0  0  0  0  0  0  0  0  0  0
    2.0928    0.2063    0.0000 N   0  0  0  0  0  0  0  0  0  0  0  0
   11.3804   -0.2063    0.0000 N   0  0  0  0  0  0  0  0  0  0  0  0
    6.3793    0.2063    0.0000 C   0  0  0  0  0  0  0  0  0  0  0  0
    7.0938   -0.2063    0.0000 C   0  0  0  0  0  0  0  0  0  0  0  0
    5.6650   -0.2063    0.0000 C   0  0  0  0  0  0  0  0  0  0  0  0
    7.8082    0.2063    0.0000 C   0  0  0  0  0  0  0  0  0  0  0  0
    4.2361   -0.2063    0.0000 C   0  0  0  0  0  0  0  0  0  0  0  0
    9.2371    0.2063    0.0000 C   0  0  0  0  0  0  0  0  0  0  0  0
    3.5217    0.2063    0.0000 C   0  0  0  0  0  0  0  0  0  0  0  0
    9.9515   -0.2063    0.0000 C   0  0  0  0  0  0  0  0  0  0  0  0
    2.8072   -0.2063    0.0000 C   0  0  0  0  0  0  0  0  0  0  0  0
   10.6658    0.2063    0.0000 C   0  0  0  0  0  0  0  0  0  0  0  0
  1  7  1  0  0  0  0
  1  9  1  0  0  0  0
  2  8  1  0  0  0  0
  2 10  1  0  0  0  0
  3 13  1  0  0  0  0
  4 14  1  0  0  0  0
  5  6  1  0  0  0  0
  5  7  1  0  0  0  0
  6  8  1  0  0  0  0
  9 11  1  0  0  0  0
 10 12  1  0  0  0  0
 11 13  1  0  0  0  0
 12 14  1  0  0  0  0
M  END
>  <DRUGBANK_ID>
DB00127

>  <DRUG_GROUPS>
approved; nutraceutical

>  <GENERIC_NAME>
Spermine

>  <SYNONYMS>
1, 4-Bis(aminopropyl)butanediamine; 4,9-Diaza-1,12-dodecanediamine; 4,9-Diazadodecane-1,12-diamine; Spermin; Spermine dihydrate

>  <BRANDS>
Gerontine; Musculamine; Neuridine

>  <CHEMICAL_FORMULA>
C10H26N4

>  <MOLECULAR_WEIGHT>
202.3402

>  <EXACT_MASS>
202.215746852

>  <IUPAC_NAME>
(3-aminopropyl)({4-[(3-aminopropyl)amino]butyl})amine

>  <INCHI_IDENTIFIER>
InChI=1S/C10H26N4/c11-5-3-9-13-7-1-2-8-14-10-4-6-12/h13-14H,1-12H2

>  <INCHI_KEY>
InChIKey=PFNFFQXMRSDOHW-UHFFFAOYSA-N

>  <SMILES>
NCCCNCCCCNCCCN

>  <JCHEM_ACCEPTOR_COUNT>
4

>  <JCHEM_DONOR_COUNT>
4

>  <JCHEM_BASIC_PKA>
11.1

>  <JCHEM_PHYSIOLOGICAL_CHARGE>
4

>  <ALOGPS_LOGP>
-0.66

>  <JCHEM_LOGP>
-1.5

>  <ALOGPS_LOGS>
-2

>  <JCHEM_POLARIZABILITY>
26.69

>  <JCHEM_POLAR_SURFACE_AREA>
76.1

>  <JCHEM_REFRACTIVITY>
62.56

>  <JCHEM_ROTATABLE_BOND_COUNT>
11

>  <ALOGPS_SOLUBILITY>
2.19e+00 g/l __

$$$$
DB00128
 OpenBabel03171413522D

  9  8  0  0  1  0  0  0  0  0999 V2000
    5.6655   -0.0784    0.0000 O   0  0  0  0  0  0  0  0  0  0  0  0
    2.0930    0.3341    0.0000 O   0  0  0  0  0  0  0  0  0  0  0  0
    4.9509    1.1592    0.0000 O   0  0  0  0  0  0  0  0  0  0  0  0
    2.8075   -0.9034    0.0000 O   0  0  0  0  0  0  0  0  0  0  0  0
    4.2365   -0.9034    0.0000 N   0  0  0  0  0  0  0  0  0  0  0  0
    4.2365   -0.0784    0.0000 C   0  0  1  0  0  0  0  0  0  0  0  0
    3.5220    0.3341    0.0000 C   0  0  0  0  0  0  0  0  0  0  0  0
    4.9509    0.3341    0.0000 C   0  0  0  0  0  0  0  0  0  0  0  0
    2.8075   -0.0784    0.0000 C   0  0  0  0  0  0  0  0  0  0  0  0
  1  8  1  0  0  0  0
  2  9  1  0  0  0  0
  3  8  2  0  0  0  0
  4  9  2  0  0  0  0
  6  5  1  1  0  0  0
  6  7  1  0  0  0  0
  6  8  1  0  0  0  0
  7  9  1  0  0  0  0
M  END
>  <DRUGBANK_ID>
DB00128

>  <DRUG_GROUPS>
approved; nutraceutical

>  <GENERIC_NAME>
L-Aspartic Acid

>  <SYNONYMS>
(+)-Aspartic acid; (2S)-Aspartic acid; (L)-Aspartic acid; (S)-Aminobutanedioic acid; (S)-Aspartic acid; Acide aspartique [INN-French]; Acido aspartico [INN-Spanish]; Acidum asparticum; Aminosuccinic acid; Asparagic acid; Asparaginic acid; Asparaginsaeure [German]; Aspartate; Aspartic acid; H-Asp-OH; L-(+)-Aspartic acid; L-2-Aminobutanedioic acid; L-Aminosuccinic acid; L-Asparagic acid; L-Asparaginic acid; L-Asparaginsaeure; L-Asparaginsyra; L-Aspartinsaeure

>  <BRANDS>
Aspatofort

>  <CHEMICAL_FORMULA>
C4H7NO4

>  <MOLECULAR_WEIGHT>
133.1027

>  <EXACT_MASS>
133.037507717

>  <IUPAC_NAME>
(2S)-2-aminobutanedioic acid

>  <INCHI_IDENTIFIER>
InChI=1S/C4H7NO4/c5-2(4(8)9)1-3(6)7/h2H,1,5H2,(H,6,7)(H,8,9)/t2-/m0/s1

>  <INCHI_KEY>
InChIKey=CKLJMWTZIZZHCS-REOHCLBHSA-N

>  <SMILES>
N[C@@H](CC(O)=O)C(O)=O

>  <JCHEM_ACCEPTOR_COUNT>
5

>  <JCHEM_DONOR_COUNT>
3

>  <JCHEM_ACIDIC_PKA>
1.7

>  <JCHEM_BASIC_PKA>
9.61

>  <JCHEM_PHYSIOLOGICAL_CHARGE>
-1

>  <ALOGPS_LOGP>
-3.5

>  <JCHEM_LOGP>
-3.5

>  <ALOGPS_LOGS>
0.03

>  <JCHEM_POLARIZABILITY>
11.28

>  <JCHEM_POLAR_SURFACE_AREA>
100.62

>  <JCHEM_REFRACTIVITY>
26.53

>  <JCHEM_ROTATABLE_BOND_COUNT>
3

>  <ALOGPS_SOLUBILITY>
1.42e+02 g/l __

$$$$
DB00129
 OpenBabel03171413522D

  9  8  0  0  1  0  0  0  0  0999 V2000
    4.9509    0.8745    0.0000 O   0  0  0  0  0  0  0  0  0  0  0  0
    4.2365    2.1120    0.0000 O   0  0  0  0  0  0  0  0  0  0  0  0
    2.8075    1.2870    0.0000 N   0  0  0  0  0  0  0  0  0  0  0  0
    2.0930   -1.6005    0.0000 N   0  0  0  0  0  0  0  0  0  0  0  0
    3.5220    0.0495    0.0000 C   0  0  0  0  0  0  0  0  0  0  0  0
    2.8075   -0.3630    0.0000 C   0  0  0  0  0  0  0  0  0  0  0  0
    3.5220    0.8745    0.0000 C   0  0  1  0  0  0  0  0  0  0  0  0
    2.8075   -1.1880    0.0000 C   0  0  0  0  0  0  0  0  0  0  0  0
    4.2365    1.2870    0.0000 C   0  0  0  0  0  0  0  0  0  0  0  0
  1  9  1  0  0  0  0
  2  9  2  0  0  0  0
  4  8  1  0  0  0  0
  5  6  1  0  0  0  0
  5  7  1  0  0  0  0
  6  8  1  0  0  0  0
  7  3  1  6  0  0  0
  7  9  1  0  0  0  0
M  END
>  <DRUGBANK_ID>
DB00129

>  <DRUG_GROUPS>
approved; nutraceutical

>  <GENERIC_NAME>
L-Ornithine

>  <SYNONYMS>
(S)-2,5-Diaminopentanoate; (S)-2,5-Diaminopentanoic acid; (S)-2,5-diaminovaleric acid; (S)-ornithine

>  <BRANDS>
OKG

>  <CHEMICAL_FORMULA>
C5H12N2O2

>  <MOLECULAR_WEIGHT>
132.161

>  <EXACT_MASS>
132.089877638

>  <IUPAC_NAME>
(2S)-2,5-diaminopentanoic acid

>  <INCHI_IDENTIFIER>
InChI=1S/C5H12N2O2/c6-3-1-2-4(7)5(8)9/h4H,1-3,6-7H2,(H,8,9)/t4-/m0/s1

>  <INCHI_KEY>
InChIKey=AHLPHDHHMVZTML-BYPYZUCNSA-N

>  <SMILES>
NCCC[C@H](N)C(O)=O

>  <JCHEM_ACCEPTOR_COUNT>
4

>  <JCHEM_DONOR_COUNT>
3

>  <JCHEM_ACIDIC_PKA>
2.67

>  <JCHEM_BASIC_PKA>
10.29

>  <JCHEM_PHYSIOLOGICAL_CHARGE>
1

>  <ALOGPS_LOGP>
-3.6

>  <JCHEM_LOGP>
-3.7

>  <ALOGPS_LOGS>
0.11

>  <JCHEM_POLARIZABILITY>
13.77

>  <JCHEM_POLAR_SURFACE_AREA>
89.34

>  <JCHEM_REFRACTIVITY>
33.21

>  <JCHEM_ROTATABLE_BOND_COUNT>
4

>  <ALOGPS_SOLUBILITY>
1.72e+02 g/l __

$$$$
DB00130
 OpenBabel03171413522D

 10  9  0  0  1  0  0  0  0  0999 V2000
    4.9509    0.8745    0.0000 O   0  0  0  0  0  0  0  0  0  0  0  0
    4.2365    2.1120    0.0000 O   0  0  0  0  0  0  0  0  0  0  0  0
    3.5220   -1.6005    0.0000 O   0  0  0  0  0  0  0  0  0  0  0  0
    2.8075    1.2870    0.0000 N   0  0  0  0  0  0  0  0  0  0  0  0
    2.0930   -1.6005    0.0000 N   0  0  0  0  0  0  0  0  0  0  0  0
    3.5220    0.0495    0.0000 C   0  0  0  0  0  0  0  0  0  0  0  0
    3.5220    0.8745    0.0000 C   0  0  1  0  0  0  0  0  0  0  0  0
    2.8075   -0.3630    0.0000 C   0  0  0  0  0  0  0  0  0  0  0  0
    4.2365    1.2870    0.0000 C   0  0  0  0  0  0  0  0  0  0  0  0
    2.8075   -1.1880    0.0000 C   0  0  0  0  0  0  0  0  0  0  0  0
  1  9  1  0  0  0  0
  2  9  2  0  0  0  0
  3 10  2  0  0  0  0
  5 10  1  0  0  0  0
  6  7  1  0  0  0  0
  6  8  1  0  0  0  0
  7  4  1  6  0  0  0
  7  9  1  0  0  0  0
  8 10  1  0  0  0  0
M  END
>  <DRUGBANK_ID>
DB00130

>  <DRUG_GROUPS>
approved; nutraceutical; investigational

>  <GENERIC_NAME>
L-Glutamine

>  <SYNONYMS>
(S)-2,5-diamino-5-oxopentanoic acid; L-(+)-glutamine; L-2-aminoglutaramic acid; L-glutamic acid γ-amide

>  <BRANDS>
Cebrogen; Earthlink Science Glutamine Chews Chocolate; Glavamin; Glutamine Express; Glutamine Fuel Mega; Glutamine Fuel Powder ; L-Glutamine Power; Saforis; Stimulina

>  <CHEMICAL_FORMULA>
C5H10N2O3

>  <MOLECULAR_WEIGHT>
146.1445

>  <EXACT_MASS>
146.069142196

>  <IUPAC_NAME>
(2S)-2-amino-4-carbamoylbutanoic acid

>  <INCHI_IDENTIFIER>
InChI=1S/C5H10N2O3/c6-3(5(9)10)1-2-4(7)8/h3H,1-2,6H2,(H2,7,8)(H,9,10)/t3-/m0/s1

>  <INCHI_KEY>
InChIKey=ZDXPYRJPNDTMRX-VKHMYHEASA-N

>  <SMILES>
N[C@@H](CCC(N)=O)C(O)=O

>  <JCHEM_ACCEPTOR_COUNT>
4

>  <JCHEM_DONOR_COUNT>
3

>  <JCHEM_ACIDIC_PKA>
2.15

>  <JCHEM_BASIC_PKA>
9.31

>  <JCHEM_PHYSIOLOGICAL_CHARGE>
0

>  <ALOGPS_LOGP>
-3.3

>  <JCHEM_LOGP>
-4

>  <ALOGPS_LOGS>
-0.17

>  <JCHEM_POLARIZABILITY>
13.85

>  <JCHEM_POLAR_SURFACE_AREA>
106.41

>  <JCHEM_REFRACTIVITY>
33.11

>  <JCHEM_ROTATABLE_BOND_COUNT>
4

>  <ALOGPS_SOLUBILITY>
9.78e+01 g/l __

$$$$
DB00131
 OpenBabel03171413522D

 23 25  0  0  1  0  0  0  0  0999 V2000
    6.9922    2.1365    0.0000 P   0  0  0  0  0  0  0  0  0  0  0  0
    4.9010    0.6808    0.0000 O   0  0  0  0  0  0  0  0  0  0  0  0
    2.8071    1.0969    0.0000 O   0  0  0  0  0  0  0  0  0  0  0  0
    3.8647    2.5471    0.0000 O   0  0  0  0  0  0  0  0  0  0  0  0
    6.3238    1.6527    0.0000 O   0  0  0  0  0  0  0  0  0  0  0  0
    7.4759    1.4682    0.0000 O   0  0  0  0  0  0  0  0  0  0  0  0
    7.6604    2.6202    0.0000 O   0  0  0  0  0  0  0  0  0  0  0  0
    6.5084    2.8048    0.0000 O   0  0  0  0  0  0  0  0  0  0  0  0
    3.8597   -0.3570    0.0000 N   0  0  0  0  0  0  0  0  0  0  0  0
    3.8597   -1.6848    0.0000 N   0  0  0  0  0  0  0  0  0  0  0  0
    2.3645   -0.1959    0.0000 N   0  0  0  0  0  0  0  0  0  0  0  0
    1.6500   -1.4335    0.0000 N   0  0  0  0  0  0  0  0  0  0  0  0
    2.3645   -2.6710    0.0000 N   0  0  0  0  0  0  0  0  0  0  0  0
    3.6321    1.0955    0.0000 C   0  0  2  0  0  0  0  0  0  0  0  0
    4.1182    1.7621    0.0000 C   0  0  1  0  0  0  0  0  0  0  0  0
    4.1159    0.4272    0.0000 C   0  0  1  0  0  0  0  0  0  0  0  0
    4.9025    1.5058    0.0000 C   0  0  1  0  0  0  0  0  0  0  0  0
    5.5707    1.9896    0.0000 C   0  0  0  0  0  0  0  0  0  0  0  0
    3.0790   -0.6084    0.0000 C   0  0  0  0  0  0  0  0  0  0  0  0
    4.3411   -1.0210    0.0000 C   0  0  0  0  0  0  0  0  0  0  0  0
    3.0790   -1.4335    0.0000 C   0  0  0  0  0  0  0  0  0  0  0  0
    2.3645   -1.8460    0.0000 C   0  0  0  0  0  0  0  0  0  0  0  0
    1.6500   -0.6084    0.0000 C   0  0  0  0  0  0  0  0  0  0  0  0
  1  5  1  0  0  0  0
  1  6  1  0  0  0  0
  1  7  1  0  0  0  0
  1  8  2  0  0  0  0
  2 16  1  0  0  0  0
  2 17  1  0  0  0  0
  5 18  1  0  0  0  0
  9 19  1  0  0  0  0
  9 20  1  0  0  0  0
 10 20  2  0  0  0  0
 10 21  1  0  0  0  0
 11 19  2  0  0  0  0
 11 23  1  0  0  0  0
 12 22  1  0  0  0  0
 12 23  2  0  0  0  0
 13 22  1  0  0  0  0
 14  3  1  6  0  0  0
 14 15  1  0  0  0  0
 14 16  1  0  0  0  0
 15  4  1  6  0  0  0
 15 17  1  0  0  0  0
 16  9  1  1  0  0  0
 17 18  1  1  0  0  0
 19 21  1  0  0  0  0
 21 22  2  0  0  0  0
M  END
>  <DRUGBANK_ID>
DB00131

>  <DRUG_GROUPS>
approved; nutraceutical

>  <GENERIC_NAME>
Adenosine monophosphate

>  <SYNONYMS>
5'-Adenosine monophosphate; 5'-Adenylic acid; 5'-AMP; Adenosine 5'-(dihydrogen phosphate); Adenosine 5'-monophosphate; Adenosine 5'-phosphate; Adenosine 5'-phosphoric acid; Adenosine phosphate; Adenosine-5-monophosphoric acid; Adenosine-5'-Monophosphate; Adenosine-5'-monophosphoric acid; Adenylate; Adenylic acid; AMP; Phosphentaside

>  <BRANDS>
Adenovite; Cardiomone; Lycedan; My-B-Den; Phosaden; Phosphaden

>  <CHEMICAL_FORMULA>
C10H14N5O7P

>  <MOLECULAR_WEIGHT>
347.2212

>  <EXACT_MASS>
347.063084339

>  <IUPAC_NAME>
{[(2R,3S,4R,5R)-5-(6-amino-9H-purin-9-yl)-3,4-dihydroxyoxolan-2-yl]methoxy}phosphonic acid

>  <INCHI_IDENTIFIER>
InChI=1S/C10H14N5O7P/c11-8-5-9(13-2-12-8)15(3-14-5)10-7(17)6(16)4(22-10)1-21-23(18,19)20/h2-4,6-7,10,16-17H,1H2,(H2,11,12,13)(H2,18,19,20)/t4-,6-,7-,10-/m1/s1

>  <INCHI_KEY>
InChIKey=UDMBCSSLTHHNCD-KQYNXXCUSA-N

>  <SMILES>
NC1=C2N=CN([C@@H]3O[C@H](COP(O)(O)=O)[C@@H](O)[C@H]3O)C2=NC=N1

>  <JCHEM_ACCEPTOR_COUNT>
10

>  <JCHEM_DONOR_COUNT>
5

>  <JCHEM_ACIDIC_PKA>
1.23

>  <JCHEM_BASIC_PKA>
4.97

>  <JCHEM_PHYSIOLOGICAL_CHARGE>
-2

>  <ALOGPS_LOGP>
-3.1

>  <JCHEM_LOGP>
-4.8

>  <ALOGPS_LOGS>
-2

>  <JCHEM_POLARIZABILITY>
30

>  <JCHEM_POLAR_SURFACE_AREA>
186.07

>  <JCHEM_REFRACTIVITY>
74.07

>  <JCHEM_ROTATABLE_BOND_COUNT>
4

>  <ALOGPS_SOLUBILITY>
3.31e+00 g/l __

$$$$
DB00132
 OpenBabel03171413522D

 20 19  0  0  0  0  0  0  0  0999 V2000
    2.3645    3.2217    0.0000 O   0  0  0  0  0  0  0  0  0  0  0  0
    1.6500    1.9842    0.0000 O   0  0  0  0  0  0  0  0  0  0  0  0
    3.7935   -0.0784    0.0000 C   0  0  0  0  0  0  0  0  0  0  0  0
    4.5080   -0.4909    0.0000 C   0  0  0  0  0  0  0  0  0  0  0  0
    3.7935    0.7466    0.0000 C   0  0  0  0  0  0  0  0  0  0  0  0
    4.5080   -1.3159    0.0000 C   0  0  0  0  0  0  0  0  0  0  0  0
    3.0791    1.1592    0.0000 C   0  0  0  0  0  0  0  0  0  0  0  0
    5.2224   -1.7284    0.0000 C   0  0  0  0  0  0  0  0  0  0  0  0
    3.0791    1.9842    0.0000 C   0  0  0  0  0  0  0  0  0  0  0  0
    5.2224   -2.5534    0.0000 C   0  0  0  0  0  0  0  0  0  0  0  0
    2.3645    2.3967    0.0000 C   0  0  0  0  0  0  0  0  0  0  0  0
    5.9370   -2.9659    0.0000 C   0  0  0  0  0  0  0  0  0  0  0  0
    6.6515   -2.5534    0.0000 C   0  0  0  0  0  0  0  0  0  0  0  0
    7.3659   -2.9659    0.0000 C   0  0  0  0  0  0  0  0  0  0  0  0
    8.0804   -2.5534    0.0000 C   0  0  0  0  0  0  0  0  0  0  0  0
    8.0804   -1.7284    0.0000 C   0  0  0  0  0  0  0  0  0  0  0  0
    8.7949   -1.3159    0.0000 C   0  0  0  0  0  0  0  0  0  0  0  0
    8.7949   -0.4909    0.0000 C   0  0  0  0  0  0  0  0  0  0  0  0
    8.0804   -0.0784    0.0000 C   0  0  0  0  0  0  0  0  0  0  0  0
    8.0804    0.7466    0.0000 C   0  0  0  0  0  0  0  0  0  0  0  0
  1 11  1  0  0  0  0
  2 11  2  0  0  0  0
  3  4  1  0  0  0  0
  3  5  1  0  0  0  0
  4  6  1  0  0  0  0
  5  7  1  0  0  0  0
  6  8  1  0  0  0  0
  7  9  1  0  0  0  0
  8 10  1  0  0  0  0
  9 11  1  0  0  0  0
 10 12  2  0  0  0  0
 12 13  1  0  0  0  0
 13 14  1  0  0  0  0
 14 15  2  0  0  0  0
 15 16  1  0  0  0  0
 16 17  1  0  0  0  0
 17 18  2  0  0  0  0
 18 19  1  0  0  0  0
 19 20  1  0  0  0  0
M  END
>  <DRUGBANK_ID>
DB00132

>  <DRUG_GROUPS>
approved; nutraceutical

>  <GENERIC_NAME>
Alpha-Linolenic Acid

>  <SYNONYMS>
(9Z,12Z,15Z)-Octadecatrienoic acid; 9,12,15-Octadecatrienoic acid; ALA; alpha-Linolenate; linolenate

>  <CHEMICAL_FORMULA>
C18H30O2

>  <MOLECULAR_WEIGHT>
278.4296

>  <EXACT_MASS>
278.224580204

>  <IUPAC_NAME>
(9Z,12Z,15Z)-octadeca-9,12,15-trienoic acid

>  <INCHI_IDENTIFIER>
InChI=1S/C18H30O2/c1-2-3-4-5-6-7-8-9-10-11-12-13-14-15-16-17-18(19)20/h3-4,6-7,9-10H,2,5,8,11-17H2,1H3,(H,19,20)/b4-3-,7-6-,10-9-

>  <INCHI_KEY>
InChIKey=DTOSIQBPPRVQHS-PDBXOOCHSA-N

>  <SMILES>
CC\C=C/C\C=C/C\C=C/CCCCCCCC(O)=O

>  <JCHEM_ACCEPTOR_COUNT>
2

>  <JCHEM_DONOR_COUNT>
1

>  <JCHEM_ACIDIC_PKA>
4.99

>  <JCHEM_PHYSIOLOGICAL_CHARGE>
-1

>  <ALOGPS_LOGP>
6.62

>  <JCHEM_LOGP>
6.06

>  <ALOGPS_LOGS>
-6

>  <JCHEM_POLARIZABILITY>
34.98

>  <JCHEM_POLAR_SURFACE_AREA>
37.3

>  <JCHEM_REFRACTIVITY>
89.64

>  <JCHEM_ROTATABLE_BOND_COUNT>
13

>  <ALOGPS_SOLUBILITY>
2.66e-04 g/l __

$$$$
DB00133
 OpenBabel03171413522D

  7  6  0  0  1  0  0  0  0  0999 V2000
    2.0930   -0.9818    0.0000 O   0  0  0  0  0  0  0  0  0  0  0  0
    4.2365    0.2558    0.0000 O   0  0  0  0  0  0  0  0  0  0  0  0
    3.5220    1.4933    0.0000 O   0  0  0  0  0  0  0  0  0  0  0  0
    2.0930    0.6683    0.0000 N   0  0  0  0  0  0  0  0  0  0  0  0
    2.8075    0.2558    0.0000 C   0  0  1  0  0  0  0  0  0  0  0  0
    2.8075   -0.5693    0.0000 C   0  0  0  0  0  0  0  0  0  0  0  0
    3.5220    0.6683    0.0000 C   0  0  0  0  0  0  0  0  0  0  0  0
  1  6  1  0  0  0  0
  2  7  1  0  0  0  0
  3  7  2  0  0  0  0
  5  4  1  6  0  0  0
  5  6  1  0  0  0  0
  5  7  1  0  0  0  0
M  END
>  <DRUGBANK_ID>
DB00133

>  <DRUG_GROUPS>
approved; nutraceutical

>  <GENERIC_NAME>
L-Serine

>  <SYNONYMS>
(-)-Serine; (S)-2-Amino-3-hydroxypropanoic acid; (S)-a-Amino-b-hydroxypropionic acid; (S)-Serine; 2-Amino-3-hydroxypropionic acid; 3-Hydroxyalanine; b-Hydroxy-L-alanine; L-(-)-Serine; L-3-Hydroxy-2-aminopropionic acid; L-Ser; Serine

>  <CHEMICAL_FORMULA>
C3H7NO3

>  <MOLECULAR_WEIGHT>
105.0926

>  <EXACT_MASS>
105.042593095

>  <IUPAC_NAME>
(2S)-2-amino-3-hydroxypropanoic acid

>  <INCHI_IDENTIFIER>
InChI=1S/C3H7NO3/c4-2(1-5)3(6)7/h2,5H,1,4H2,(H,6,7)/t2-/m0/s1

>  <INCHI_KEY>
InChIKey=MTCFGRXMJLQNBG-REOHCLBHSA-N

>  <SMILES>
N[C@@H](CO)C(O)=O

>  <JCHEM_ACCEPTOR_COUNT>
4

>  <JCHEM_DONOR_COUNT>
3

>  <JCHEM_ACIDIC_PKA>
2.03

>  <JCHEM_BASIC_PKA>
8.93

>  <JCHEM_PHYSIOLOGICAL_CHARGE>
0

>  <ALOGPS_LOGP>
-3.4

>  <JCHEM_LOGP>
-3.9

>  <ALOGPS_LOGS>
0.66

>  <JCHEM_POLARIZABILITY>
9.43

>  <JCHEM_POLAR_SURFACE_AREA>
83.55

>  <JCHEM_REFRACTIVITY>
22.04

>  <JCHEM_ROTATABLE_BOND_COUNT>
2

>  <ALOGPS_SOLUBILITY>
4.80e+02 g/l __

$$$$
DB00134
 OpenBabel03171413522D

  9  8  0  0  1  0  0  0  0  0999 V2000
    2.3642   -1.4436    0.0000 S   0  0  0  0  0  0  0  0  0  0  0  0
    4.5075    0.6187    0.0000 O   0  0  0  0  0  0  0  0  0  0  0  0
    3.7930    1.8561    0.0000 O   0  0  0  0  0  0  0  0  0  0  0  0
    2.3642    1.0312    0.0000 N   0  0  0  0  0  0  0  0  0  0  0  0
    3.0787   -0.2063    0.0000 C   0  0  0  0  0  0  0  0  0  0  0  0
    3.0787    0.6187    0.0000 C   0  0  1  0  0  0  0  0  0  0  0  0
    2.3642   -0.6187    0.0000 C   0  0  0  0  0  0  0  0  0  0  0  0
    3.7930    1.0312    0.0000 C   0  0  0  0  0  0  0  0  0  0  0  0
    1.6498   -1.8561    0.0000 C   0  0  0  0  0  0  0  0  0  0  0  0
  1  7  1  0  0  0  0
  1  9  1  0  0  0  0
  2  8  1  0  0  0  0
  3  8  2  0  0  0  0
  5  6  1  0  0  0  0
  5  7  1  0  0  0  0
  6  4  1  6  0  0  0
  6  8  1  0  0  0  0
M  END
>  <DRUGBANK_ID>
DB00134

>  <DRUG_GROUPS>
approved; nutraceutical

>  <GENERIC_NAME>
L-Methionine

>  <SYNONYMS>
(S)-2-amino-4-(methylthio)butanoic acid; (S)-2-amino-4-(methylthio)butyric acid; (S)-methionine; L-(-)-Methionine; L-a-Amino-g-methylthiobutyric acid; Methionine

>  <BRANDS>
Acimethin; Cymethion

>  <CHEMICAL_FORMULA>
C5H11NO2S

>  <MOLECULAR_WEIGHT>
149.211

>  <EXACT_MASS>
149.051049291

>  <IUPAC_NAME>
(2S)-2-amino-4-(methylsulfanyl)butanoic acid

>  <INCHI_IDENTIFIER>
InChI=1S/C5H11NO2S/c1-9-3-2-4(6)5(7)8/h4H,2-3,6H2,1H3,(H,7,8)/t4-/m0/s1

>  <INCHI_KEY>
InChIKey=FFEARJCKVFRZRR-BYPYZUCNSA-N

>  <SMILES>
CSCC[C@H](N)C(O)=O

>  <JCHEM_ACCEPTOR_COUNT>
3

>  <JCHEM_DONOR_COUNT>
2

>  <JCHEM_ACIDIC_PKA>
2.53

>  <JCHEM_BASIC_PKA>
9.5

>  <JCHEM_PHYSIOLOGICAL_CHARGE>
0

>  <ALOGPS_LOGP>
-1.9

>  <JCHEM_LOGP>
-2.2

>  <ALOGPS_LOGS>
-0.8

>  <JCHEM_POLARIZABILITY>
15.5

>  <JCHEM_POLAR_SURFACE_AREA>
63.32

>  <JCHEM_REFRACTIVITY>
37.59

>  <JCHEM_ROTATABLE_BOND_COUNT>
4

>  <ALOGPS_SOLUBILITY>
2.39e+01 g/l __

$$$$
DB00135
 OpenBabel03171413522D

 13 13  0  0  1  0  0  0  0  0999 V2000
    3.7934    2.3471    0.0000 O   0  0  0  0  0  0  0  0  0  0  0  0
    2.3644   -2.6029    0.0000 O   0  0  0  0  0  0  0  0  0  0  0  0
    2.3644    2.3471    0.0000 O   0  0  0  0  0  0  0  0  0  0  0  0
    3.7934    0.6971    0.0000 N   0  0  0  0  0  0  0  0  0  0  0  0
    2.3644    0.6971    0.0000 C   0  0  0  0  0  0  0  0  0  0  0  0
    3.0790    1.1096    0.0000 C   0  0  1  0  0  0  0  0  0  0  0  0
    2.3644   -0.1279    0.0000 C   0  0  0  0  0  0  0  0  0  0  0  0
    3.0790   -0.5404    0.0000 C   0  0  0  0  0  0  0  0  0  0  0  0
    1.6500   -0.5404    0.0000 C   0  0  0  0  0  0  0  0  0  0  0  0
    3.0790    1.9346    0.0000 C   0  0  0  0  0  0  0  0  0  0  0  0
    3.0790   -1.3654    0.0000 C   0  0  0  0  0  0  0  0  0  0  0  0
    1.6500   -1.3654    0.0000 C   0  0  0  0  0  0  0  0  0  0  0  0
    2.3644   -1.7779    0.0000 C   0  0  0  0  0  0  0  0  0  0  0  0
  1 10  1  0  0  0  0
  2 13  1  0  0  0  0
  3 10  2  0  0  0  0
  5  6  1  0  0  0  0
  5  7  1  0  0  0  0
  6  4  1  1  0  0  0
  6 10  1  0  0  0  0
  7  8  2  0  0  0  0
  7  9  1  0  0  0  0
  8 11  1  0  0  0  0
  9 12  2  0  0  0  0
 11 13  2  0  0  0  0
 12 13  1  0  0  0  0
M  END
>  <DRUGBANK_ID>
DB00135

>  <DRUG_GROUPS>
approved; nutraceutical

>  <GENERIC_NAME>
L-Tyrosine

>  <SYNONYMS>
2-Amino-3-(p-hydroxyphenyl)propionic acid; 3-(p-Hydroxyphenyl)alanine; Free-Form L-Tyrosine

>  <BRANDS>
Rxosine; Tyrosine; Tyrosine Power

>  <CHEMICAL_FORMULA>
C9H11NO3

>  <MOLECULAR_WEIGHT>
181.1885

>  <EXACT_MASS>
181.073893223

>  <IUPAC_NAME>
(2S)-2-amino-3-(4-hydroxyphenyl)propanoic acid

>  <INCHI_IDENTIFIER>
InChI=1S/C9H11NO3/c10-8(9(12)13)5-6-1-3-7(11)4-2-6/h1-4,8,11H,5,10H2,(H,12,13)/t8-/m0/s1

>  <INCHI_KEY>
InChIKey=OUYCCCASQSFEME-QMMMGPOBSA-N

>  <SMILES>
N[C@@H](CC1=CC=C(O)C=C1)C(O)=O

>  <JCHEM_ACCEPTOR_COUNT>
4

>  <JCHEM_DONOR_COUNT>
3

>  <JCHEM_ACIDIC_PKA>
2

>  <JCHEM_BASIC_PKA>
9.19

>  <JCHEM_PHYSIOLOGICAL_CHARGE>
0

>  <ALOGPS_LOGP>
-2.4

>  <JCHEM_LOGP>
-1.5

>  <ALOGPS_LOGS>
-1.4

>  <JCHEM_POLARIZABILITY>
18.01

>  <JCHEM_POLAR_SURFACE_AREA>
83.55

>  <JCHEM_REFRACTIVITY>
47.1

>  <JCHEM_ROTATABLE_BOND_COUNT>
3

>  <ALOGPS_SOLUBILITY>
7.67e+00 g/l __

$$$$
DB00136
 OpenBabel03171413522D

 32 34  0  0  1  0  0  0  0  0999 V2000
   -1.0890    1.2765    0.0000 C   0  0  0  0  0  0  0  0  0  0  0  0
   -1.0890   -0.3735    0.0000 C   0  0  0  0  0  0  0  0  0  0  0  0
    0.4101   -0.2159    0.0000 C   0  0  0  0  0  0  0  0  0  0  0  0
    0.8950    0.4515    0.0000 C   0  0  0  0  0  0  0  0  0  0  0  0
   -1.8035    0.8640    0.0000 C   0  0  0  0  0  0  0  0  0  0  0  0
   -1.0890   -1.1985    0.0000 C   0  0  0  0  0  0  0  0  0  0  0  0
   -1.8035    0.0390    0.0000 C   0  0  0  0  0  0  0  0  0  0  0  0
   -1.8035   -1.6110    0.0000 C   0  0  0  0  0  0  0  0  0  0  0  0
   -1.8035   -2.4360    0.0000 C   0  0  0  0  0  0  0  0  0  0  0  0
   -1.0890   -2.8485    0.0000 C   0  0  0  0  0  0  0  0  0  0  0  0
   -2.5179   -2.8485    0.0000 C   0  0  0  0  0  0  0  0  0  0  0  0
   -0.3745   -2.4360    0.0000 C   0  0  0  0  0  0  0  0  0  0  0  0
   -2.5179   -3.6735    0.0000 C   0  0  2  0  0  0  0  0  0  0  0  0
   -1.8035   -4.0860    0.0000 C   0  0  0  0  0  0  0  0  0  0  0  0
   -3.2324   -4.0860    0.0000 O   0  0  0  0  0  0  0  0  0  0  0  0
   -0.3044    2.3565    0.0000 C   0  0  0  0  0  0  0  0  0  0  0  0
    0.4101    1.9440    0.0000 C   0  0  2  0  0  0  0  0  0  0  0  0
    1.1246    2.3565    0.0000 C   0  0  0  0  0  0  0  0  0  0  0  0
    1.8390    1.9440    0.0000 C   0  0  0  0  0  0  0  0  0  0  0  0
    3.9825    2.3565    0.0000 C   0  0  0  0  0  0  0  0  0  0  0  0
    3.2680    1.1190    0.0000 C   0  0  0  0  0  0  0  0  0  0  0  0
    2.5535    2.3565    0.0000 C   0  0  0  0  0  0  0  0  0  0  0  0
    0.4101    1.1190    0.0000 C   0  0  2  0  0  0  0  0  0  0  0  0
    1.1246    1.5315    0.0000 H   0  0  0  0  0  0  0  0  0  0  0  0
   -0.3745    0.0390    0.0000 C   0  0  2  0  0  0  0  0  0  0  0  0
   -0.3745   -0.7860    0.0000 H   0  0  0  0  0  0  0  0  0  0  0  0
   -0.3745    0.8640    0.0000 C   0  0  2  0  0  0  0  0  0  0  0  0
   -0.3745    1.6890    0.0000 C   0  0  0  0  0  0  0  0  0  0  0  0
    3.2680    1.9440    0.0000 C   0  0  0  0  0  0  0  0  0  0  0  0
    3.9825    1.5315    0.0000 O   0  0  0  0  0  0  0  0  0  0  0  0
   -1.0890   -3.6735    0.0000 C   0  0  2  0  0  0  0  0  0  0  0  0
   -0.3745   -4.0860    0.0000 O   0  0  0  0  0  0  0  0  0  0  0  0
  1  5  1  0  0  0  0
  2  6  2  0  0  0  0
  2  7  1  0  0  0  0
  3  4  1  0  0  0  0
  5  7  1  0  0  0  0
  6  8  1  0  0  0  0
  8  9  2  0  0  0  0
  9 10  1  0  0  0  0
  9 11  1  0  0  0  0
 10 31  1  0  0  0  0
 10 12  2  0  0  0  0
 11 13  1  0  0  0  0
 13 15  1  6  0  0  0
 13 14  1  0  0  0  0
 17 16  1  6  0  0  0
 17 18  1  0  0  0  0
 18 19  1  0  0  0  0
 19 22  1  0  0  0  0
 22 29  1  0  0  0  0
 23  4  1  0  0  0  0
 23 17  1  0  0  0  0
 23 24  1  6  0  0  0
 25 27  1  0  0  0  0
 25  2  1  0  0  0  0
 25  3  1  0  0  0  0
 25 26  1  6  0  0  0
 27 23  1  0  0  0  0
 27  1  1  0  0  0  0
 27 28  1  1  0  0  0
 29 20  1  0  0  0  0
 29 21  1  0  0  0  0
 29 30  1  0  0  0  0
 31 14  1  0  0  0  0
 31 32  1  1  0  0  0
M  END
>  <DRUGBANK_ID>
DB00136

>  <DRUG_GROUPS>
approved; nutraceutical

>  <GENERIC_NAME>
Calcitriol

>  <SYNONYMS>
1,25-(OH)<sub>2</sub>D3; 1,25-dihydroxycholecalciferol

>  <BRANDS>
Calcijex; Calcitriol Oral Solution; Decostriol; Rocaltrol

>  <CHEMICAL_FORMULA>
C27H44O3

>  <MOLECULAR_WEIGHT>
416.6365

>  <EXACT_MASS>
416.329045274

>  <IUPAC_NAME>
(1R,3S,5Z)-5-{2-[(1R,3aS,4E,7aR)-1-[(2R)-6-hydroxy-6-methylheptan-2-yl]-7a-methyl-octahydro-1H-inden-4-ylidene]ethylidene}-4-methylidenecyclohexane-1,3-diol

>  <INCHI_IDENTIFIER>
InChI=1S/C27H44O3/c1-18(8-6-14-26(3,4)30)23-12-13-24-20(9-7-15-27(23,24)5)10-11-21-16-22(28)17-25(29)19(21)2/h10-11,18,22-25,28-30H,2,6-9,12-17H2,1,3-5H3/b20-10+,21-11-/t18-,22-,23-,24+,25+,27-/m1/s1

>  <INCHI_KEY>
InChIKey=GMRQFYUYWCNGIN-NKMMMXOESA-N

>  <SMILES>
C[C@H](CCCC(C)(C)O)[C@@]1([H])CC[C@@]2([H])\C(CCC[C@]12C)=C\C=C1\C[C@@H](O)C[C@H](O)C1=C

>  <JCHEM_ACCEPTOR_COUNT>
3

>  <JCHEM_DONOR_COUNT>
3

>  <JCHEM_ACIDIC_PKA>
14.39

>  <JCHEM_BASIC_PKA>
-1.3

>  <JCHEM_PHYSIOLOGICAL_CHARGE>
0

>  <ALOGPS_LOGP>
5.51

>  <JCHEM_LOGP>
4.35

>  <ALOGPS_LOGS>
-4.8

>  <JCHEM_POLARIZABILITY>
51.02

>  <JCHEM_POLAR_SURFACE_AREA>
60.69

>  <JCHEM_REFRACTIVITY>
126.53

>  <JCHEM_ROTATABLE_BOND_COUNT>
6

>  <ALOGPS_SOLUBILITY>
6.67e-03 g/l __

$$$$
DB00137
 OpenBabel03171413522D

 42 43  0  0  1  0  0  0  0  0999 V2000
    3.1895   -8.4564    0.0000 O   0  0  0  0  0  0  0  0  0  0  0  0
    9.6200    8.4564    0.0000 O   0  0  0  0  0  0  0  0  0  0  0  0
    2.4751   -6.3939    0.0000 C   0  0  0  0  0  0  0  0  0  0  0  0
    3.1895   -5.9814    0.0000 C   0  0  3  0  0  0  0  0  0  0  0  0
    2.4751   -7.2189    0.0000 C   0  0  0  0  0  0  0  0  0  0  0  0
    3.1895   -7.6314    0.0000 C   0  0  3  0  0  0  0  0  0  0  0  0
    3.9041   -6.3939    0.0000 C   0  0  0  0  0  0  0  0  0  0  0  0
   10.3344    6.3939    0.0000 C   0  0  0  0  0  0  0  0  0  0  0  0
    2.0625   -5.6794    0.0000 C   0  0  0  0  0  0  0  0  0  0  0  0
    1.6500   -6.3939    0.0000 C   0  0  0  0  0  0  0  0  0  0  0  0
   10.3344    7.2189    0.0000 C   0  0  0  0  0  0  0  0  0  0  0  0
    3.9041   -7.2189    0.0000 C   0  0  0  0  0  0  0  0  0  0  0  0
    9.6200    7.6314    0.0000 C   0  0  3  0  0  0  0  0  0  0  0  0
    9.6200    5.9814    0.0000 C   0  0  0  0  0  0  0  0  0  0  0  0
    3.1895   -5.1564    0.0000 C   0  0  0  0  0  0  0  0  0  0  0  0
    8.9054    7.2189    0.0000 C   0  0  0  0  0  0  0  0  0  0  0  0
    8.9054    6.3939    0.0000 C   0  0  0  0  0  0  0  0  0  0  0  0
   10.7469    5.6794    0.0000 C   0  0  0  0  0  0  0  0  0  0  0  0
   11.1594    6.3939    0.0000 C   0  0  0  0  0  0  0  0  0  0  0  0
    4.6185   -5.9814    0.0000 C   0  0  0  0  0  0  0  0  0  0  0  0
    3.9041   -4.7439    0.0000 C   0  0  0  0  0  0  0  0  0  0  0  0
    9.6200    5.1564    0.0000 C   0  0  0  0  0  0  0  0  0  0  0  0
    8.1909    5.9814    0.0000 C   0  0  0  0  0  0  0  0  0  0  0  0
    3.9041   -3.9188    0.0000 C   0  0  0  0  0  0  0  0  0  0  0  0
    8.9054    4.7439    0.0000 C   0  0  0  0  0  0  0  0  0  0  0  0
    3.1895   -3.5063    0.0000 C   0  0  0  0  0  0  0  0  0  0  0  0
    8.9054    3.9188    0.0000 C   0  0  0  0  0  0  0  0  0  0  0  0
    4.6185   -3.5063    0.0000 C   0  0  0  0  0  0  0  0  0  0  0  0
    9.6200    3.5063    0.0000 C   0  0  0  0  0  0  0  0  0  0  0  0
    8.1909    3.5063    0.0000 C   0  0  0  0  0  0  0  0  0  0  0  0
    4.6185   -2.6813    0.0000 C   0  0  0  0  0  0  0  0  0  0  0  0
    8.1909    2.6813    0.0000 C   0  0  0  0  0  0  0  0  0  0  0  0
    5.3330   -2.2688    0.0000 C   0  0  0  0  0  0  0  0  0  0  0  0
    5.3330   -1.4438    0.0000 C   0  0  0  0  0  0  0  0  0  0  0  0
    7.4765    2.2688    0.0000 C   0  0  0  0  0  0  0  0  0  0  0  0
    7.4765    1.4438    0.0000 C   0  0  0  0  0  0  0  0  0  0  0  0
    4.6185   -1.0313    0.0000 C   0  0  0  0  0  0  0  0  0  0  0  0
    6.0475   -1.0313    0.0000 C   0  0  0  0  0  0  0  0  0  0  0  0
    6.7620    1.0313    0.0000 C   0  0  0  0  0  0  0  0  0  0  0  0
    8.1909    1.0313    0.0000 C   0  0  0  0  0  0  0  0  0  0  0  0
    6.0475   -0.2063    0.0000 C   0  0  0  0  0  0  0  0  0  0  0  0
    6.7620    0.2063    0.0000 C   0  0  0  0  0  0  0  0  0  0  0  0
  1  6  1  0  0  0  0
  2 13  1  0  0  0  0
  3  4  1  0  0  0  0
  3  5  1  0  0  0  0
  3  9  1  0  0  0  0
  3 10  1  0  0  0  0
  4  7  1  0  0  0  0
  4 15  1  0  0  0  0
  5  6  1  0  0  0  0
  6 12  1  0  0  0  0
  7 12  2  0  0  0  0
  7 20  1  0  0  0  0
  8 11  1  0  0  0  0
  8 14  1  0  0  0  0
  8 18  1  0  0  0  0
  8 19  1  0  0  0  0
 11 13  1  0  0  0  0
 13 16  1  0  0  0  0
 14 17  2  0  0  0  0
 14 22  1  0  0  0  0
 15 21  2  0  0  0  0
 16 17  1  0  0  0  0
 17 23  1  0  0  0  0
 21 24  1  0  0  0  0
 22 25  2  0  0  0  0
 24 26  1  0  0  0  0
 24 28  2  0  0  0  0
 25 27  1  0  0  0  0
 27 29  1  0  0  0  0
 27 30  2  0  0  0  0
 28 31  1  0  0  0  0
 30 32  1  0  0  0  0
 31 33  2  0  0  0  0
 32 35  2  0  0  0  0
 33 34  1  0  0  0  0
 34 37  1  0  0  0  0
 34 38  2  0  0  0  0
 35 36  1  0  0  0  0
 36 39  2  0  0  0  0
 36 40  1  0  0  0  0
 38 41  1  0  0  0  0
 39 42  1  0  0  0  0
 41 42  2  0  0  0  0
M  END
>  <DRUGBANK_ID>
DB00137

>  <DRUG_GROUPS>
approved; nutraceutical

>  <GENERIC_NAME>
Xanthophyll

>  <SYNONYMS>
(3R,3'R,6'R)-Lutein; (3R,3'R,6S)-4,5-Didehydro-5,6-Dihydro-Beta,Beta-Carotene-3,3'-Diol; (3R,3'R)-Beta,Beta-Carotene-3,3'-Diol, Lutein; 4,5-Didehydro-5,6-dihydro-beta,beta-carotene-3,3'-diol; All-trans-(+)-Xanthophyll; All-trans-Lutein; all-trans-Xanthophyll; beta,epsilon-Carotene-3,3'-diol; Lutein; Lutein ester; Luteine; Phylloxanthin; trans-Lutein; Vegetable lutein; Vegetable luteol

>  <BRANDS>
Bo-Xan

>  <CHEMICAL_FORMULA>
C40H56O2

>  <MOLECULAR_WEIGHT>
568.8714

>  <EXACT_MASS>
568.428031036

>  <IUPAC_NAME>
4-[(1E,3E,5E,7E,9E,11E,13E,15E,17E)-18-(4-hydroxy-2,6,6-trimethylcyclohex-1-en-1-yl)-3,7,12,16-tetramethyloctadeca-1,3,5,7,9,11,13,15,17-nonaen-1-yl]-3,5,5-trimethylcyclohex-2-en-1-ol

>  <INCHI_IDENTIFIER>
InChI=1S/C40H56O2/c1-29(17-13-19-31(3)21-23-37-33(5)25-35(41)27-39(37,7)8)15-11-12-16-30(2)18-14-20-32(4)22-24-38-34(6)26-36(42)28-40(38,9)10/h11-25,35-37,41-42H,26-28H2,1-10H3/b12-11+,17-13+,18-14+,23-21+,24-22+,29-15+,30-16+,31-19+,32-20+

>  <INCHI_KEY>
InChIKey=KBPHJBAIARWVSC-DKLMTRRASA-N

>  <SMILES>
C\C(\C=C\C=C(/C)\C=C\C1C(C)=CC(O)CC1(C)C)=C/C=C/C=C(\C)/C=C/C=C(\C)/C=C/C1=C(C)CC(O)CC1(C)C

>  <JCHEM_ACCEPTOR_COUNT>
2

>  <JCHEM_DONOR_COUNT>
2

>  <JCHEM_ACIDIC_PKA>
18.22

>  <JCHEM_BASIC_PKA>
-0.91

>  <JCHEM_PHYSIOLOGICAL_CHARGE>
0

>  <ALOGPS_LOGP>
8.29

>  <JCHEM_LOGP>
8.55

>  <ALOGPS_LOGS>
-5.9

>  <JCHEM_POLARIZABILITY>
72.79

>  <JCHEM_POLAR_SURFACE_AREA>
40.46

>  <JCHEM_REFRACTIVITY>
195.06

>  <JCHEM_ROTATABLE_BOND_COUNT>
10

>  <ALOGPS_SOLUBILITY>
7.32e-04 g/l __

$$$$
DB00138
 OpenBabel03171413522D

 14 13  0  0  1  0  0  0  0  0999 V2000
    3.7935    0.5404    0.0000 S   0  0  0  0  0  0  0  0  0  0  0  0
    3.7935   -0.2846    0.0000 S   0  0  0  0  0  0  0  0  0  0  0  0
    5.9370    1.7779    0.0000 O   0  0  0  0  0  0  0  0  0  0  0  0
    2.3645   -2.7597    0.0000 O   0  0  0  0  0  0  0  0  0  0  0  0
    5.2224    3.0154    0.0000 O   0  0  0  0  0  0  0  0  0  0  0  0
    1.6500   -1.5222    0.0000 O   0  0  0  0  0  0  0  0  0  0  0  0
    3.7935    2.1904    0.0000 N   0  0  0  0  0  0  0  0  0  0  0  0
    3.7935   -1.9347    0.0000 N   0  0  0  0  0  0  0  0  0  0  0  0
    4.5080    1.7779    0.0000 C   0  0  1  0  0  0  0  0  0  0  0  0
    3.0791   -1.5222    0.0000 C   0  0  1  0  0  0  0  0  0  0  0  0
    4.5080    0.9529    0.0000 C   0  0  0  0  0  0  0  0  0  0  0  0
    3.0791   -0.6971    0.0000 C   0  0  0  0  0  0  0  0  0  0  0  0
    5.2224    2.1904    0.0000 C   0  0  0  0  0  0  0  0  0  0  0  0
    2.3645   -1.9347    0.0000 C   0  0  0  0  0  0  0  0  0  0  0  0
  1  2  1  0  0  0  0
  1 11  1  0  0  0  0
  2 12  1  0  0  0  0
  3 13  1  0  0  0  0
  4 14  1  0  0  0  0
  5 13  2  0  0  0  0
  6 14  2  0  0  0  0
  9  7  1  6  0  0  0
  9 11  1  0  0  0  0
  9 13  1  0  0  0  0
 10  8  1  6  0  0  0
 10 12  1  0  0  0  0
 10 14  1  0  0  0  0
M  END
>  <DRUGBANK_ID>
DB00138

>  <DRUG_GROUPS>
approved; nutraceutical

>  <GENERIC_NAME>
L-Cystine

>  <SYNONYMS>
(-)-Cystine; Cysteine disulfide; Cystine acid; L-alpha-Diamino-beta-dithiolactic acid; L-Dicysteine

>  <CHEMICAL_FORMULA>
C6H12N2O4S2

>  <MOLECULAR_WEIGHT>
240.3

>  <EXACT_MASS>
240.023848262

>  <IUPAC_NAME>
(2R)-2-amino-3-{[(2R)-2-amino-2-carboxyethyl]disulfanyl}propanoic acid

>  <INCHI_IDENTIFIER>
InChI=1S/C6H12N2O4S2/c7-3(5(9)10)1-13-14-2-4(8)6(11)12/h3-4H,1-2,7-8H2,(H,9,10)(H,11,12)/t3-,4-/m0/s1

>  <INCHI_KEY>
InChIKey=LEVWYRKDKASIDU-IMJSIDKUSA-N

>  <SMILES>
N[C@@H](CSSC[C@H](N)C(O)=O)C(O)=O

>  <JCHEM_ACCEPTOR_COUNT>
6

>  <JCHEM_DONOR_COUNT>
4

>  <JCHEM_ACIDIC_PKA>
1.56

>  <JCHEM_BASIC_PKA>
9.34

>  <JCHEM_PHYSIOLOGICAL_CHARGE>
0

>  <ALOGPS_LOGP>
-3.2

>  <JCHEM_LOGP>
-5.9

>  <ALOGPS_LOGS>
-1.2

>  <JCHEM_POLARIZABILITY>
22.67

>  <JCHEM_POLAR_SURFACE_AREA>
126.64

>  <JCHEM_REFRACTIVITY>
54.87

>  <JCHEM_ROTATABLE_BOND_COUNT>
7

>  <ALOGPS_SOLUBILITY>
1.68e+01 g/l __

$$$$
DB00139
 OpenBabel03171413522D

  8  7  0  0  0  0  0  0  0  0999 V2000
    2.0928    0.2063    0.0000 O   0  0  0  0  0  0  0  0  0  0  0  0
    5.6650   -0.2063    0.0000 O   0  0  0  0  0  0  0  0  0  0  0  0
    2.8072   -1.0312    0.0000 O   0  0  0  0  0  0  0  0  0  0  0  0
    4.9504    1.0312    0.0000 O   0  0  0  0  0  0  0  0  0  0  0  0
    3.5217    0.2063    0.0000 C   0  0  0  0  0  0  0  0  0  0  0  0
    4.2361   -0.2063    0.0000 C   0  0  0  0  0  0  0  0  0  0  0  0
    2.8072   -0.2063    0.0000 C   0  0  0  0  0  0  0  0  0  0  0  0
    4.9504    0.2063    0.0000 C   0  0  0  0  0  0  0  0  0  0  0  0
  1  7  1  0  0  0  0
  2  8  1  0  0  0  0
  3  7  2  0  0  0  0
  4  8  2  0  0  0  0
  5  6  1  0  0  0  0
  5  7  1  0  0  0  0
  6  8  1  0  0  0  0
M  END
>  <DRUGBANK_ID>
DB00139

>  <DRUG_GROUPS>
approved; nutraceutical

>  <GENERIC_NAME>
Succinic acid

>  <SYNONYMS>
1,2-Ethanedicarboxylic acid; Amber acid; Asuccin; Bernsteinsaure; Butanedioic acid; Butanedionic acid; Spirit of amber; Succinate

>  <BRANDS>
Katasuccin; Kyselina jantarova

>  <CHEMICAL_FORMULA>
C4H6O4

>  <MOLECULAR_WEIGHT>
118.088

>  <EXACT_MASS>
118.02660868

>  <IUPAC_NAME>
butanedioic acid

>  <INCHI_IDENTIFIER>
InChI=1S/C4H6O4/c5-3(6)1-2-4(7)8/h1-2H2,(H,5,6)(H,7,8)

>  <INCHI_KEY>
InChIKey=KDYFGRWQOYBRFD-UHFFFAOYSA-N

>  <SMILES>
OC(=O)CCC(O)=O

>  <JCHEM_ACCEPTOR_COUNT>
4

>  <JCHEM_DONOR_COUNT>
2

>  <JCHEM_ACIDIC_PKA>
3.55

>  <JCHEM_PHYSIOLOGICAL_CHARGE>
-2

>  <ALOGPS_LOGP>
-0.53

>  <JCHEM_LOGP>
-0.4

>  <ALOGPS_LOGS>
0.25

>  <JCHEM_POLARIZABILITY>
10.14

>  <JCHEM_POLAR_SURFACE_AREA>
74.6

>  <JCHEM_REFRACTIVITY>
23.54

>  <JCHEM_ROTATABLE_BOND_COUNT>
3

>  <ALOGPS_SOLUBILITY>
2.11e+02 g/l __

$$$$
DB00140
 OpenBabel03171413522D

 27 29  0  0  0  0  0  0  0  0999 V2000
    0.7145    0.4125    0.0000 C   0  0  0  0  0  0  0  0  0  0  0  0
    0.7145   -0.4125    0.0000 C   0  0  0  0  0  0  0  0  0  0  0  0
   -0.7145    0.4125    0.0000 C   0  0  0  0  0  0  0  0  0  0  0  0
   -0.7145   -0.4125    0.0000 C   0  0  0  0  0  0  0  0  0  0  0  0
   -1.4289    0.8250    0.0000 C   0  0  0  0  0  0  0  0  0  0  0  0
   -1.4289   -0.8250    0.0000 C   0  0  0  0  0  0  0  0  0  0  0  0
   -2.1434   -0.4125    0.0000 C   0  0  0  0  0  0  0  0  0  0  0  0
   -2.1434    0.4125    0.0000 C   0  0  0  0  0  0  0  0  0  0  0  0
    2.1434    0.4125    0.0000 C   0  0  0  0  0  0  0  0  0  0  0  0
    0.0000   -0.8250    0.0000 N   0  0  0  0  0  0  0  0  0  0  0  0
    1.4289    0.8250    0.0000 N   0  0  0  0  0  0  0  0  0  0  0  0
    1.4289   -0.8250    0.0000 C   0  0  0  0  0  0  0  0  0  0  0  0
    1.4289   -1.6500    0.0000 O   0  0  0  0  0  0  0  0  0  0  0  0
    2.8579    0.8250    0.0000 O   0  0  0  0  0  0  0  0  0  0  0  0
    2.1434   -0.4125    0.0000 N   0  0  0  0  0  0  0  0  0  0  0  0
    0.0000    0.8250    0.0000 N   0  0  0  0  0  0  0  0  0  0  0  0
    0.0000    1.6500    0.0000 C   0  0  0  0  0  0  0  0  0  0  0  0
   -0.7145    2.0625    0.0000 C   0  0  1  0  0  0  0  0  0  0  0  0
   -0.7145    2.8875    0.0000 C   0  0  1  0  0  0  0  0  0  0  0  0
   -1.4289    1.6500    0.0000 O   0  0  0  0  0  0  0  0  0  0  0  0
   -1.4289    3.3000    0.0000 C   0  0  1  0  0  0  0  0  0  0  0  0
    0.0000    3.3000    0.0000 O   0  0  0  0  0  0  0  0  0  0  0  0
   -1.4289    4.1250    0.0000 C   0  0  0  0  0  0  0  0  0  0  0  0
   -2.1434    2.8875    0.0000 O   0  0  0  0  0  0  0  0  0  0  0  0
   -2.1434    4.5375    0.0000 O   0  0  0  0  0  0  0  0  0  0  0  0
   -2.8579    0.8250    0.0000 C   0  0  0  0  0  0  0  0  0  0  0  0
   -2.8579   -0.8250    0.0000 C   0  0  0  0  0  0  0  0  0  0  0  0
  2  1  1  0  0  0  0
  2 12  1  0  0  0  0
  3  4  1  0  0  0  0
  4 10  1  0  0  0  0
  5  3  2  0  0  0  0
  5  8  1  0  0  0  0
  6  4  2  0  0  0  0
  7  6  1  0  0  0  0
  7 27  1  0  0  0  0
  8  7  2  0  0  0  0
  8 26  1  0  0  0  0
  9 14  2  0  0  0  0
 10  2  2  0  0  0  0
 11  1  2  0  0  0  0
 11  9  1  0  0  0  0
 12 15  1  0  0  0  0
 12 13  2  0  0  0  0
 15  9  1  0  0  0  0
 16  3  1  0  0  0  0
 16  1  1  0  0  0  0
 16 17  1  0  0  0  0
 18 17  1  6  0  0  0
 18 19  1  0  0  0  0
 18 20  1  0  0  0  0
 19 21  1  0  0  0  0
 19 22  1  1  0  0  0
 21 23  1  6  0  0  0
 21 24  1  0  0  0  0
 23 25  1  0  0  0  0
M  END
>  <DRUGBANK_ID>
DB00140

>  <DRUG_GROUPS>
approved; nutraceutical

>  <GENERIC_NAME>
Riboflavin

>  <SYNONYMS>
Lactoflavin; Lactoflavine; Riboflavina [INN-Spanish]; Riboflavine [INN-French]; Riboflavinum [INN-Latin]; Russupteridine Yellow III; Vitamin B2; Vitamin Bi; Vitamin G

>  <BRANDS>
Aqua-Flave; Beflavin; Beflavine; Bisulase; Dermadram; Fiboflavin; Flavaxin; Flavin Bb; Flaxain; HSDB 817; Hyflavin; Hyre; Lactobene; Ovoflavin; Ribipca; Ribocrisina; Riboderm; Ribosyn; Ribotone; Ribovel; Vitaflavine; Vitasan B2

>  <CHEMICAL_FORMULA>
C17H20N4O6

>  <MOLECULAR_WEIGHT>
376.3639

>  <EXACT_MASS>
376.138284392

>  <IUPAC_NAME>
7,8-dimethyl-10-[(2S,3S,4R)-2,3,4,5-tetrahydroxypentyl]-2H,3H,4H,10H-benzo[g]pteridine-2,4-dione

>  <INCHI_IDENTIFIER>
InChI=1S/C17H20N4O6/c1-7-3-9-10(4-8(7)2)21(5-11(23)14(25)12(24)6-22)15-13(18-9)16(26)20-17(27)19-15/h3-4,11-12,14,22-25H,5-6H2,1-2H3,(H,20,26,27)/t11-,12+,14-/m0/s1

>  <INCHI_KEY>
InChIKey=AUNGANRZJHBGPY-SCRDCRAPSA-N

>  <SMILES>
CC1=C(C)C=C2N(C[C@H](O)[C@H](O)[C@H](O)CO)C3=NC(=O)NC(=O)C3=NC2=C1

>  <JCHEM_ACCEPTOR_COUNT>
9

>  <JCHEM_DONOR_COUNT>
5

>  <JCHEM_ACIDIC_PKA>
6.97

>  <JCHEM_BASIC_PKA>
0.76

>  <JCHEM_PHYSIOLOGICAL_CHARGE>
-1

>  <ALOGPS_LOGP>
-1.1

>  <JCHEM_LOGP>
-0.92

>  <ALOGPS_LOGS>
-2.8

>  <JCHEM_POLARIZABILITY>
37.5

>  <JCHEM_POLAR_SURFACE_AREA>
155.05

>  <JCHEM_REFRACTIVITY>
96.27

>  <JCHEM_ROTATABLE_BOND_COUNT>
5

>  <ALOGPS_SOLUBILITY>
6.57e-01 g/l __

$$$$
DB00141
 OpenBabel03171413522D

 16 15  0  0  1  0  0  0  0  0999 V2000
   12.1995   -5.4501    0.0000 C   0  0  0  0  0  0  0  0  0  0  0  0
   11.4851   -5.8626    0.0000 C   0  0  1  0  0  0  0  0  0  0  0  0
   10.7706   -5.4501    0.0000 C   0  0  2  0  0  0  0  0  0  0  0  0
   10.0561   -5.8626    0.0000 C   0  0  1  0  0  0  0  0  0  0  0  0
    9.3417   -5.4501    0.0000 C   0  0  2  0  0  0  0  0  0  0  0  0
   12.1995   -4.6251    0.0000 O   0  0  0  0  0  0  0  0  0  0  0  0
   10.7706   -4.6251    0.0000 O   0  0  0  0  0  0  0  0  0  0  0  0
   10.0561   -6.6876    0.0000 O   0  0  0  0  0  0  0  0  0  0  0  0
    9.3417   -4.6251    0.0000 O   0  0  0  0  0  0  0  0  0  0  0  0
   12.9140   -5.8626    0.0000 H   0  0  0  0  0  0  0  0  0  0  0  0
    8.6271   -5.8626    0.0000 C   0  0  0  0  0  0  0  0  0  0  0  0
    7.9127   -5.4501    0.0000 O   0  0  0  0  0  0  0  0  0  0  0  0
   11.4851   -6.6876    0.0000 N   0  0  0  0  0  0  0  0  0  0  0  0
   12.1995   -7.1001    0.0000 C   0  0  0  0  0  0  0  0  0  0  0  0
   12.9140   -6.6876    0.0000 O   0  0  0  0  0  0  0  0  0  0  0  0
   12.1995   -7.9251    0.0000 C   0  0  0  0  0  0  0  0  0  0  0  0
  2  1  1  6  0  0  0
  2 13  1  0  0  0  0
  3  2  1  0  0  0  0
  3  7  1  6  0  0  0
  4  3  1  0  0  0  0
  4  8  1  6  0  0  0
  5  4  1  0  0  0  0
  5  9  1  1  0  0  0
  6  1  2  0  0  0  0
 10  1  1  0  0  0  0
 11  5  1  0  0  0  0
 11 12  1  0  0  0  0
 13 14  1  0  0  0  0
 15 14  2  0  0  0  0
 16 14  1  0  0  0  0
M  END
>  <DRUGBANK_ID>
DB00141

>  <DRUG_GROUPS>
approved; nutraceutical

>  <GENERIC_NAME>
N-Acetyl-D-glucosamine

>  <SYNONYMS>
2-Acetamido-2-deoxy-D-glucose; GlcNAc; Glucosamine Complex; N-Acetylchitosamine

>  <BRANDS>
Aflexa; GS-500; Maxi GS; Natures Blend Glucosamine

>  <CHEMICAL_FORMULA>
C8H15NO6

>  <MOLECULAR_WEIGHT>
221.2078

>  <EXACT_MASS>
221.089937217

>  <IUPAC_NAME>
N-[(2R,3R,4S,5R)-3,4,5,6-tetrahydroxy-1-oxohexan-2-yl]acetamide

>  <INCHI_IDENTIFIER>
InChI=1S/C8H15NO6/c1-4(12)9-5(2-10)7(14)8(15)6(13)3-11/h2,5-8,11,13-15H,3H2,1H3,(H,9,12)/t5-,6+,7+,8+/m0/s1

>  <INCHI_KEY>
InChIKey=MBLBDJOUHNCFQT-LXGUWJNJSA-N

>  <SMILES>
[H]C(=O)[C@H](NC(C)=O)[C@@H](O)[C@H](O)[C@H](O)CO

>  <JCHEM_ACCEPTOR_COUNT>
6

>  <JCHEM_DONOR_COUNT>
5

>  <JCHEM_ACIDIC_PKA>
11.56

>  <JCHEM_BASIC_PKA>
-1.2

>  <JCHEM_PHYSIOLOGICAL_CHARGE>
0

>  <ALOGPS_LOGP>
-2.1

>  <JCHEM_LOGP>
-3.9

>  <ALOGPS_LOGS>
-0.18

>  <JCHEM_POLARIZABILITY>
20.49

>  <JCHEM_POLAR_SURFACE_AREA>
127.09

>  <JCHEM_REFRACTIVITY>
48.45

>  <JCHEM_ROTATABLE_BOND_COUNT>
6

>  <ALOGPS_SOLUBILITY>
1.48e+02 g/l __

$$$$
DB00142
 OpenBabel03171413522D

 10  9  0  0  1  0  0  0  0  0999 V2000
    4.5079    0.8745    0.0000 O   0  0  0  0  0  0  0  0  0  0  0  0
    1.6500   -1.6005    0.0000 O   0  0  0  0  0  0  0  0  0  0  0  0
    3.7935    2.1120    0.0000 O   0  0  0  0  0  0  0  0  0  0  0  0
    3.0790   -1.6005    0.0000 O   0  0  0  0  0  0  0  0  0  0  0  0
    2.3645    1.2870    0.0000 N   0  0  0  0  0  0  0  0  0  0  0  0
    3.0790    0.0495    0.0000 C   0  0  0  0  0  0  0  0  0  0  0  0
    3.0790    0.8745    0.0000 C   0  0  1  0  0  0  0  0  0  0  0  0
    2.3645   -0.3630    0.0000 C   0  0  0  0  0  0  0  0  0  0  0  0
    3.7935    1.2870    0.0000 C   0  0  0  0  0  0  0  0  0  0  0  0
    2.3645   -1.1880    0.0000 C   0  0  0  0  0  0  0  0  0  0  0  0
  1  9  1  0  0  0  0
  2 10  1  0  0  0  0
  3  9  2  0  0  0  0
  4 10  2  0  0  0  0
  6  7  1  0  0  0  0
  6  8  1  0  0  0  0
  7  5  1  6  0  0  0
  7  9  1  0  0  0  0
  8 10  1  0  0  0  0
M  END
>  <DRUGBANK_ID>
DB00142

>  <DRUG_GROUPS>
approved; nutraceutical

>  <GENERIC_NAME>
L-Glutamic Acid

>  <SYNONYMS>
(2S)-2-Aminopentanedioic acid; (S)-(+)-Glutamic acid; (S)-2-Aminopentanedioic acid; (S)-Glutamic acid; 1-Aminopropane-1,3-dicarboxylic acid; 2-Aminoglutaric acid; 2-Aminopentanedioic acid; a-Aminoglutaric acid; a-Glutamic acid; Glutamic acid; Glutaminic acid; L-(+)-Glutamic acid; L-a-Aminoglutaric acid; L-Glutamate; L-Glutaminic acid

>  <BRANDS>
Aciglut; Glusate; Glutacid; Glutamicol; Glutamidex; Glutaminol; Glutaton

>  <CHEMICAL_FORMULA>
C5H9NO4

>  <MOLECULAR_WEIGHT>
147.1293

>  <EXACT_MASS>
147.053157781

>  <IUPAC_NAME>
(2S)-2-aminopentanedioic acid

>  <INCHI_IDENTIFIER>
InChI=1S/C5H9NO4/c6-3(5(9)10)1-2-4(7)8/h3H,1-2,6H2,(H,7,8)(H,9,10)/t3-/m0/s1

>  <INCHI_KEY>
InChIKey=WHUUTDBJXJRKMK-VKHMYHEASA-N

>  <SMILES>
N[C@@H](CCC(O)=O)C(O)=O

>  <JCHEM_ACCEPTOR_COUNT>
5

>  <JCHEM_DONOR_COUNT>
3

>  <JCHEM_ACIDIC_PKA>
1.88

>  <JCHEM_BASIC_PKA>
9.54

>  <JCHEM_PHYSIOLOGICAL_CHARGE>
-1

>  <ALOGPS_LOGP>
-3.5

>  <JCHEM_LOGP>
-3.2

>  <ALOGPS_LOGS>
-0.26

>  <JCHEM_POLARIZABILITY>
13.32

>  <JCHEM_POLAR_SURFACE_AREA>
100.62

>  <JCHEM_REFRACTIVITY>
31.29

>  <JCHEM_ROTATABLE_BOND_COUNT>
4

>  <ALOGPS_SOLUBILITY>
8.06e+01 g/l __

$$$$
DB00143
 OpenBabel03171413522D

 20 19  0  0  1  0  0  0  0  0999 V2000
    6.3799   -1.1096    0.0000 S   0  0  0  0  0  0  0  0  0  0  0  0
    5.6655   -0.6971    0.0000 O   0  0  0  0  0  0  0  0  0  0  0  0
    7.8089    1.3654    0.0000 O   0  0  0  0  0  0  0  0  0  0  0  0
    2.0930    0.5404    0.0000 O   0  0  0  0  0  0  0  0  0  0  0  0
    2.8075   -0.6971    0.0000 O   0  0  0  0  0  0  0  0  0  0  0  0
   10.6668    0.5404    0.0000 O   0  0  0  0  0  0  0  0  0  0  0  0
    9.9524   -0.6971    0.0000 O   0  0  0  0  0  0  0  0  0  0  0  0
    6.3799    0.5404    0.0000 N   0  0  0  0  0  0  0  0  0  0  0  0
    3.5220    1.3654    0.0000 N   0  0  0  0  0  0  0  0  0  0  0  0
    8.5234    0.1279    0.0000 N   0  0  0  0  0  0  0  0  0  0  0  0
    4.2365    0.1279    0.0000 C   0  0  0  0  0  0  0  0  0  0  0  0
    4.9509    0.5404    0.0000 C   0  0  0  0  0  0  0  0  0  0  0  0
    7.0944    0.1279    0.0000 C   0  0  1  0  0  0  0  0  0  0  0  0
    3.5220    0.5404    0.0000 C   0  0  1  0  0  0  0  0  0  0  0  0
    5.6655    0.1279    0.0000 C   0  0  0  0  0  0  0  0  0  0  0  0
    7.0944   -0.6971    0.0000 C   0  0  0  0  0  0  0  0  0  0  0  0
    7.8089    0.5404    0.0000 C   0  0  0  0  0  0  0  0  0  0  0  0
    2.8075    0.1279    0.0000 C   0  0  0  0  0  0  0  0  0  0  0  0
    9.2379    0.5404    0.0000 C   0  0  0  0  0  0  0  0  0  0  0  0
    9.9524    0.1279    0.0000 C   0  0  0  0  0  0  0  0  0  0  0  0
  1 16  1  0  0  0  0
  2 15  2  0  0  0  0
  3 17  2  0  0  0  0
  4 18  1  0  0  0  0
  5 18  2  0  0  0  0
  6 20  1  0  0  0  0
  7 20  2  0  0  0  0
  8 15  1  0  0  0  0
 10 17  1  0  0  0  0
 10 19  1  0  0  0  0
 11 12  1  0  0  0  0
 11 14  1  0  0  0  0
 12 15  1  0  0  0  0
 13  8  1  6  0  0  0
 13 16  1  0  0  0  0
 13 17  1  0  0  0  0
 14  9  1  1  0  0  0
 14 18  1  0  0  0  0
 19 20  1  0  0  0  0
M  END
>  <DRUGBANK_ID>
DB00143

>  <DRUG_GROUPS>
approved; nutraceutical

>  <GENERIC_NAME>
Glutathione

>  <SYNONYMS>
5-L-Glutamyl-L-cysteinylglycine; gamma-L-Glutamyl-L-cysteinyl-glycine; Gluthathione; GSH; N-(N-gamma-L-Glutamyl-L-cysteinyl)glycine

>  <BRANDS>
Copren; Isethion; Ledac; Neuthion; Tathion

>  <CHEMICAL_FORMULA>
C10H17N3O6S

>  <MOLECULAR_WEIGHT>
307.323

>  <EXACT_MASS>
307.083805981

>  <IUPAC_NAME>
(2S)-2-amino-4-{[(1R)-1-[(carboxymethyl)carbamoyl]-2-sulfanylethyl]carbamoyl}butanoic acid

>  <INCHI_IDENTIFIER>
InChI=1S/C10H17N3O6S/c11-5(10(18)19)1-2-7(14)13-6(4-20)9(17)12-3-8(15)16/h5-6,20H,1-4,11H2,(H,12,17)(H,13,14)(H,15,16)(H,18,19)/t5-,6-/m0/s1

>  <INCHI_KEY>
InChIKey=RWSXRVCMGQZWBV-WDSKDSINSA-N

>  <SMILES>
N[C@@H](CCC(=O)N[C@@H](CS)C(=O)NCC(O)=O)C(O)=O

>  <JCHEM_ACCEPTOR_COUNT>
7

>  <JCHEM_DONOR_COUNT>
6

>  <JCHEM_ACIDIC_PKA>
1.94

>  <JCHEM_BASIC_PKA>
9.22

>  <JCHEM_PHYSIOLOGICAL_CHARGE>
-1

>  <ALOGPS_LOGP>
-2.7

>  <JCHEM_LOGP>
-4.9

>  <ALOGPS_LOGS>
-2.5

>  <JCHEM_POLARIZABILITY>
29.11

>  <JCHEM_POLAR_SURFACE_AREA>
158.82

>  <JCHEM_REFRACTIVITY>
69.11

>  <JCHEM_ROTATABLE_BOND_COUNT>
9

>  <ALOGPS_SOLUBILITY>
8.79e-01 g/l __

$$$$
DB00144
 OpenBabel03171413522D

 25 24  0  0  1  0  0  0  0  0999 V2000
    7.3659    1.1096    0.0000 P   0  0  3  0  0  0  0  0  0  0  0  0
    4.5080    1.1096    0.0000 O   0  0  0  0  0  0  0  0  0  0  0  0
    6.6515    0.6971    0.0000 O   0  0  0  0  0  0  0  0  0  0  0  0
    4.5080   -0.5404    0.0000 O   0  0  0  0  0  0  0  0  0  0  0  0
    8.0804    1.5222    0.0000 O   0  0  0  0  0  0  0  0  0  0  0  0
    6.9534    1.8241    0.0000 O   0  0  0  0  0  0  0  0  0  0  0  0
    7.7784    0.3952    0.0000 O   0  0  0  0  0  0  0  0  0  0  0  0
    3.7935   -0.1279    0.0000 O   0  0  0  0  0  0  0  0  0  0  0  0
    5.2224   -1.7779    0.0000 O   0  0  0  0  0  0  0  0  0  0  0  0
   10.9383    1.5222    0.0000 O   0  0  0  0  0  0  0  0  0  0  0  0
   10.2239    0.2846    0.0000 O   0  0  0  0  0  0  0  0  0  0  0  0
    9.5094    2.3472    0.0000 N   0  0  0  0  0  0  0  0  0  0  0  0
    5.2224    0.6971    0.0000 C   0  0  1  0  0  0  0  0  0  0  0  0
    5.9370    1.1096    0.0000 C   0  0  0  0  0  0  0  0  0  0  0  0
    5.2224   -0.1279    0.0000 C   0  0  0  0  0  0  0  0  0  0  0  0
    3.0790    1.1096    0.0000 C   0  0  0  0  0  0  0  0  0  0  0  0
    3.7935    0.6971    0.0000 C   0  0  0  0  0  0  0  0  0  0  0  0
    2.3645    0.6971    0.0000 C   0  0  0  0  0  0  0  0  0  0  0  0
    8.7949    1.1096    0.0000 C   0  0  0  0  0  0  0  0  0  0  0  0
    9.5094    1.5222    0.0000 C   0  0  1  0  0  0  0  0  0  0  0  0
    1.6500    1.1096    0.0000 C   0  0  0  0  0  0  0  0  0  0  0  0
    4.5080   -1.3654    0.0000 C   0  0  0  0  0  0  0  0  0  0  0  0
    3.7935   -1.7779    0.0000 C   0  0  0  0  0  0  0  0  0  0  0  0
   10.2239    1.1096    0.0000 C   0  0  0  0  0  0  0  0  0  0  0  0
    3.7935   -2.6029    0.0000 C   0  0  0  0  0  0  0  0  0  0  0  0
  1  3  1  0  0  0  0
  1  5  1  0  0  0  0
  1  6  1  0  0  0  0
  1  7  2  0  0  0  0
  2 17  1  0  0  0  0
  3 14  1  0  0  0  0
  4 15  1  0  0  0  0
  4 22  1  0  0  0  0
  5 19  1  0  0  0  0
  8 17  2  0  0  0  0
  9 22  2  0  0  0  0
 10 24  1  0  0  0  0
 11 24  2  0  0  0  0
 13  2  1  1  0  0  0
 13 14  1  0  0  0  0
 13 15  1  0  0  0  0
 16 17  1  0  0  0  0
 16 18  1  0  0  0  0
 18 21  1  0  0  0  0
 19 20  1  0  0  0  0
 20 12  1  6  0  0  0
 20 24  1  0  0  0  0
 22 23  1  0  0  0  0
 23 25  1  0  0  0  0
M  END
>  <DRUGBANK_ID>
DB00144

>  <DRUG_GROUPS>
approved; nutraceutical

>  <GENERIC_NAME>
Phosphatidylserine

>  <SYNONYMS>
3-O-sn-Phosphatidyl-L-serine; O3-Phosphatidyl-L-serine; Phosphatidyl-L-serine

>  <BRANDS>
LifeExtension PS Caps

>  <CHEMICAL_FORMULA>
C13H24NO10P

>  <MOLECULAR_WEIGHT>
385.3041

>  <EXACT_MASS>
385.113782505

>  <IUPAC_NAME>
(2S)-2-amino-3-({[(2R)-2-(butanoyloxy)-3-(propanoyloxy)propoxy](hydroxy)phosphoryl}oxy)propanoic acid

>  <INCHI_IDENTIFIER>
InChI=1S/C13H24NO10P/c1-3-5-12(16)24-9(6-21-11(15)4-2)7-22-25(19,20)23-8-10(14)13(17)18/h9-10H,3-8,14H2,1-2H3,(H,17,18)(H,19,20)/t9-,10+/m1/s1

>  <INCHI_KEY>
InChIKey=UNJJBGNPUUVVFQ-ZJUUUORDSA-N

>  <SMILES>
CCCC(=O)O[C@H](COC(=O)CC)COP(O)(=O)OC[C@H](N)C(O)=O

>  <JCHEM_ACCEPTOR_COUNT>
7

>  <JCHEM_DONOR_COUNT>
3

>  <JCHEM_ACIDIC_PKA>
1.47

>  <JCHEM_BASIC_PKA>
9.38

>  <JCHEM_PHYSIOLOGICAL_CHARGE>
-1

>  <ALOGPS_LOGP>
-1

>  <JCHEM_LOGP>
-1.6

>  <ALOGPS_LOGS>
-2

>  <JCHEM_POLARIZABILITY>
35.58

>  <JCHEM_POLAR_SURFACE_AREA>
171.68

>  <JCHEM_REFRACTIVITY>
81.81

>  <JCHEM_ROTATABLE_BOND_COUNT>
15

>  <ALOGPS_SOLUBILITY>
3.70e+00 g/l __

$$$$
DB00145
 OpenBabel03171413522D

  5  4  0  0  0  0  0  0  0  0999 V2000
    2.0930    0.6188    0.0000 O   0  0  0  0  0  0  0  0  0  0  0  0
    2.8075   -0.6188    0.0000 O   0  0  0  0  0  0  0  0  0  0  0  0
    4.2365    0.2063    0.0000 N   0  0  0  0  0  0  0  0  0  0  0  0
    3.5220    0.6188    0.0000 C   0  0  0  0  0  0  0  0  0  0  0  0
    2.8075    0.2063    0.0000 C   0  0  0  0  0  0  0  0  0  0  0  0
  1  5  1  0  0  0  0
  2  5  2  0  0  0  0
  3  4  1  0  0  0  0
  4  5  1  0  0  0  0
M  END
>  <DRUGBANK_ID>
DB00145

>  <DRUG_GROUPS>
approved; nutraceutical

>  <GENERIC_NAME>
Glycine

>  <SYNONYMS>
2-Aminoacetic acid; Aminoacetic acid; Aminoethanoic acid; Gly

>  <BRANDS>
Aciport; Glicoamin; Glycocoll; Glycolixir; Glycosthene; Gyn-Hydralin; Padil

>  <CHEMICAL_FORMULA>
C2H5NO2

>  <MOLECULAR_WEIGHT>
75.0666

>  <EXACT_MASS>
75.032028409

>  <IUPAC_NAME>
2-aminoacetic acid

>  <INCHI_IDENTIFIER>
InChI=1S/C2H5NO2/c3-1-2(4)5/h1,3H2,(H,4,5)

>  <INCHI_KEY>
InChIKey=DHMQDGOQFOQNFH-UHFFFAOYSA-N

>  <SMILES>
NCC(O)=O

>  <JCHEM_ACCEPTOR_COUNT>
3

>  <JCHEM_DONOR_COUNT>
2

>  <JCHEM_ACIDIC_PKA>
2.31

>  <JCHEM_BASIC_PKA>
9.24

>  <JCHEM_PHYSIOLOGICAL_CHARGE>
0

>  <ALOGPS_LOGP>
-3.3

>  <JCHEM_LOGP>
-3.4

>  <ALOGPS_LOGS>
0.87

>  <JCHEM_POLARIZABILITY>
6.65

>  <JCHEM_POLAR_SURFACE_AREA>
63.32

>  <JCHEM_REFRACTIVITY>
16

>  <JCHEM_ROTATABLE_BOND_COUNT>
1

>  <ALOGPS_SOLUBILITY>
5.52e+02 g/l __

$$$$
DB00146
 OpenBabel03171413522D

 31 33  0  0  1  0  0  0  0  0999 V2000
   -1.0890    1.2765    0.0000 C   0  0  0  0  0  0  0  0  0  0  0  0
   -1.0890   -0.3735    0.0000 C   0  0  0  0  0  0  0  0  0  0  0  0
    0.4101   -0.2159    0.0000 C   0  0  0  0  0  0  0  0  0  0  0  0
    0.8950    0.4515    0.0000 C   0  0  0  0  0  0  0  0  0  0  0  0
   -1.8035    0.8640    0.0000 C   0  0  0  0  0  0  0  0  0  0  0  0
   -1.0890   -1.1985    0.0000 C   0  0  0  0  0  0  0  0  0  0  0  0
   -1.8035    0.0390    0.0000 C   0  0  0  0  0  0  0  0  0  0  0  0
   -1.8035   -1.6110    0.0000 C   0  0  0  0  0  0  0  0  0  0  0  0
   -1.8035   -2.4360    0.0000 C   0  0  0  0  0  0  0  0  0  0  0  0
   -1.0890   -2.8485    0.0000 C   0  0  0  0  0  0  0  0  0  0  0  0
   -2.5179   -2.8485    0.0000 C   0  0  0  0  0  0  0  0  0  0  0  0
   -1.0890   -3.6735    0.0000 C   0  0  0  0  0  0  0  0  0  0  0  0
   -0.3745   -2.4360    0.0000 C   0  0  0  0  0  0  0  0  0  0  0  0
   -2.5179   -3.6735    0.0000 C   0  0  2  0  0  0  0  0  0  0  0  0
   -1.8035   -4.0860    0.0000 C   0  0  0  0  0  0  0  0  0  0  0  0
   -3.2324   -4.0860    0.0000 O   0  0  0  0  0  0  0  0  0  0  0  0
   -0.3044    2.3565    0.0000 C   0  0  0  0  0  0  0  0  0  0  0  0
    0.4101    1.9440    0.0000 C   0  0  2  0  0  0  0  0  0  0  0  0
    1.1246    2.3565    0.0000 C   0  0  0  0  0  0  0  0  0  0  0  0
    1.8390    1.9440    0.0000 C   0  0  0  0  0  0  0  0  0  0  0  0
    3.9825    2.3565    0.0000 C   0  0  0  0  0  0  0  0  0  0  0  0
    3.2680    1.1190    0.0000 C   0  0  0  0  0  0  0  0  0  0  0  0
    2.5535    2.3565    0.0000 C   0  0  0  0  0  0  0  0  0  0  0  0
    0.4101    1.1190    0.0000 C   0  0  2  0  0  0  0  0  0  0  0  0
    1.1246    1.5315    0.0000 H   0  0  0  0  0  0  0  0  0  0  0  0
   -0.3745    0.0390    0.0000 C   0  0  2  0  0  0  0  0  0  0  0  0
   -0.3745   -0.7860    0.0000 H   0  0  0  0  0  0  0  0  0  0  0  0
   -0.3745    0.8640    0.0000 C   0  0  2  0  0  0  0  0  0  0  0  0
   -0.3745    1.6890    0.0000 C   0  0  0  0  0  0  0  0  0  0  0  0
    3.2680    1.9440    0.0000 C   0  0  0  0  0  0  0  0  0  0  0  0
    3.9825    1.5315    0.0000 O   0  0  0  0  0  0  0  0  0  0  0  0
  1  5  1  0  0  0  0
  2  6  2  0  0  0  0
  2  7  1  0  0  0  0
  3  4  1  0  0  0  0
  5  7  1  0  0  0  0
  6  8  1  0  0  0  0
  8  9  2  0  0  0  0
  9 10  1  0  0  0  0
  9 11  1  0  0  0  0
 10 12  1  0  0  0  0
 10 13  2  0  0  0  0
 11 14  1  0  0  0  0
 12 15  1  0  0  0  0
 14 16  1  6  0  0  0
 14 15  1  0  0  0  0
 18 17  1  6  0  0  0
 18 19  1  0  0  0  0
 19 20  1  0  0  0  0
 20 23  1  0  0  0  0
 23 30  1  0  0  0  0
 24  4  1  0  0  0  0
 24 18  1  0  0  0  0
 24 25  1  6  0  0  0
 26 28  1  0  0  0  0
 26  2  1  0  0  0  0
 26  3  1  0  0  0  0
 26 27  1  6  0  0  0
 28 24  1  0  0  0  0
 28  1  1  0  0  0  0
 28 29  1  1  0  0  0
 30 21  1  0  0  0  0
 30 22  1  0  0  0  0
 30 31  1  0  0  0  0
M  END
>  <DRUGBANK_ID>
DB00146

>  <DRUG_GROUPS>
approved; nutraceutical

>  <GENERIC_NAME>
Calcidiol

>  <SYNONYMS>
Calcifediol; Calcifediol Anhydrous; Calcifediolum [INN-Latin]; Calcifidiol

>  <BRANDS>
Calderol; Delakmin

>  <CHEMICAL_FORMULA>
C27H44O2

>  <MOLECULAR_WEIGHT>
400.6371

>  <EXACT_MASS>
400.334130652

>  <IUPAC_NAME>
(1S,3Z)-3-{2-[(1R,3aS,4E,7aR)-1-[(2R)-6-hydroxy-6-methylheptan-2-yl]-7a-methyl-octahydro-1H-inden-4-ylidene]ethylidene}-4-methylidenecyclohexan-1-ol

>  <INCHI_IDENTIFIER>
InChI=1S/C27H44O2/c1-19-10-13-23(28)18-22(19)12-11-21-9-7-17-27(5)24(14-15-25(21)27)20(2)8-6-16-26(3,4)29/h11-12,20,23-25,28-29H,1,6-10,13-18H2,2-5H3/b21-11+,22-12-/t20-,23+,24-,25+,27-/m1/s1

>  <INCHI_KEY>
InChIKey=JWUBBDSIWDLEOM-DTOXIADCSA-N

>  <SMILES>
C[C@H](CCCC(C)(C)O)[C@@]1([H])CC[C@@]2([H])\C(CCC[C@]12C)=C\C=C1\C[C@@H](O)CCC1=C

>  <JCHEM_ACCEPTOR_COUNT>
2

>  <JCHEM_DONOR_COUNT>
2

>  <JCHEM_ACIDIC_PKA>
18.38

>  <JCHEM_BASIC_PKA>
-0.98

>  <JCHEM_PHYSIOLOGICAL_CHARGE>
0

>  <ALOGPS_LOGP>
6.71

>  <JCHEM_LOGP>
5.65

>  <ALOGPS_LOGS>
-5.3

>  <JCHEM_POLARIZABILITY>
50.32

>  <JCHEM_POLAR_SURFACE_AREA>
40.46

>  <JCHEM_REFRACTIVITY>
125.06

>  <JCHEM_ROTATABLE_BOND_COUNT>
6

>  <ALOGPS_SOLUBILITY>
2.20e-03 g/l __

$$$$
DB00147
 OpenBabel03171413522D

 12 12  0  0  0  0  0  0  0  0999 V2000
    2.0930    0.2063    0.0000 O   0  0  0  0  0  0  0  0  0  0  0  0
    5.6655   -0.2063    0.0000 O   0  0  0  0  0  0  0  0  0  0  0  0
    2.8075    1.4438    0.0000 O   0  0  0  0  0  0  0  0  0  0  0  0
    3.5220   -1.4438    0.0000 N   0  0  0  0  0  0  0  0  0  0  0  0
    4.2365   -0.2063    0.0000 C   0  0  0  0  0  0  0  0  0  0  0  0
    3.5220    0.2063    0.0000 C   0  0  0  0  0  0  0  0  0  0  0  0
    2.8075   -0.2063    0.0000 C   0  0  0  0  0  0  0  0  0  0  0  0
    2.8075   -1.0313    0.0000 C   0  0  0  0  0  0  0  0  0  0  0  0
    4.9509    0.2063    0.0000 C   0  0  0  0  0  0  0  0  0  0  0  0
    4.2365   -1.0313    0.0000 C   0  0  0  0  0  0  0  0  0  0  0  0
    2.0930   -1.4438    0.0000 C   0  0  0  0  0  0  0  0  0  0  0  0
    3.5220    1.0313    0.0000 C   0  0  0  0  0  0  0  0  0  0  0  0
  1  7  1  0  0  0  0
  2  9  1  0  0  0  0
  3 12  2  0  0  0  0
  4  8  2  0  0  0  0
  4 10  1  0  0  0  0
  5  6  1  0  0  0  0
  5  9  1  0  0  0  0
  5 10  2  0  0  0  0
  6  7  2  0  0  0  0
  6 12  1  0  0  0  0
  7  8  1  0  0  0  0
  8 11  1  0  0  0  0
M  END
>  <DRUGBANK_ID>
DB00147

>  <DRUG_GROUPS>
approved; nutraceutical

>  <GENERIC_NAME>
Pyridoxal

>  <SYNONYMS>
PL; Pyridoxaldehyde; Vitamin B6 hydrochloride

>  <CHEMICAL_FORMULA>
C8H9NO3

>  <MOLECULAR_WEIGHT>
167.162

>  <EXACT_MASS>
167.058243159

>  <IUPAC_NAME>
3-hydroxy-5-(hydroxymethyl)-2-methylpyridine-4-carbaldehyde

>  <INCHI_IDENTIFIER>
InChI=1S/C8H9NO3/c1-5-8(12)7(4-11)6(3-10)2-9-5/h2,4,10,12H,3H2,1H3

>  <INCHI_KEY>
InChIKey=RADKZDMFGJYCBB-UHFFFAOYSA-N

>  <SMILES>
CC1=NC=C(CO)C(C=O)=C1O

>  <JCHEM_ACCEPTOR_COUNT>
4

>  <JCHEM_DONOR_COUNT>
2

>  <JCHEM_ACIDIC_PKA>
7.97

>  <JCHEM_BASIC_PKA>
4.11

>  <JCHEM_PHYSIOLOGICAL_CHARGE>
0

>  <ALOGPS_LOGP>
0.02

>  <JCHEM_LOGP>
0.18

>  <ALOGPS_LOGS>
-1.2

>  <JCHEM_POLARIZABILITY>
16.28

>  <JCHEM_POLAR_SURFACE_AREA>
70.42

>  <JCHEM_REFRACTIVITY>
43.87

>  <JCHEM_ROTATABLE_BOND_COUNT>
2

>  <ALOGPS_SOLUBILITY>
1.17e+01 g/l __

$$$$
DB00148
 OpenBabel03171413522D

  9  8  0  0  0  0  0  0  0  0999 V2000
    5.6655   -0.0784    0.0000 O   0  0  0  0  0  0  0  0  0  0  0  0
    4.9509    1.1592    0.0000 O   0  0  0  0  0  0  0  0  0  0  0  0
    3.5220    0.3341    0.0000 N   0  0  0  0  0  0  0  0  0  0  0  0
    2.0930    0.3341    0.0000 N   0  0  0  0  0  0  0  0  0  0  0  0
    2.8075   -0.9034    0.0000 N   0  0  0  0  0  0  0  0  0  0  0  0
    4.2365   -0.0784    0.0000 C   0  0  0  0  0  0  0  0  0  0  0  0
    3.5220    1.1592    0.0000 C   0  0  0  0  0  0  0  0  0  0  0  0
    2.8075   -0.0784    0.0000 C   0  0  0  0  0  0  0  0  0  0  0  0
    4.9509    0.3341    0.0000 C   0  0  0  0  0  0  0  0  0  0  0  0
  1  9  1  0  0  0  0
  2  9  2  0  0  0  0
  3  6  1  0  0  0  0
  3  7  1  0  0  0  0
  3  8  1  0  0  0  0
  4  8  1  0  0  0  0
  5  8  2  0  0  0  0
  6  9  1  0  0  0  0
M  END
>  <DRUGBANK_ID>
DB00148

>  <DRUG_GROUPS>
approved; nutraceutical

>  <GENERIC_NAME>
Creatine

>  <SYNONYMS>
(alpha-Methylguanido)acetic acid; Creatine (8CI); Creatine, hydrate; Methylguanidoacetic acid; N-Amidinosarcosine; N-Methyl-N-guanylglycine

>  <BRANDS>
Cosmocair C 100; Creatin; Kreatin; Krebiozon; Phosphagen; Pyrolysate

>  <CHEMICAL_FORMULA>
C4H9N3O2

>  <MOLECULAR_WEIGHT>
131.1332

>  <EXACT_MASS>
131.069476547

>  <IUPAC_NAME>
2-(1-methylcarbamimidamido)acetic acid

>  <INCHI_IDENTIFIER>
InChI=1S/C4H9N3O2/c1-7(4(5)6)2-3(8)9/h2H2,1H3,(H3,5,6)(H,8,9)

>  <INCHI_KEY>
InChIKey=CVSVTCORWBXHQV-UHFFFAOYSA-N

>  <SMILES>
CN(CC(O)=O)C(N)=N

>  <JCHEM_ACCEPTOR_COUNT>
5

>  <JCHEM_DONOR_COUNT>
3

>  <JCHEM_ACIDIC_PKA>
3.5

>  <JCHEM_BASIC_PKA>
12.43

>  <JCHEM_PHYSIOLOGICAL_CHARGE>
0

>  <ALOGPS_LOGP>
-1.6

>  <JCHEM_LOGP>
-2.9

>  <ALOGPS_LOGS>
-1.5

>  <JCHEM_POLARIZABILITY>
12.17

>  <JCHEM_POLAR_SURFACE_AREA>
90.41

>  <JCHEM_REFRACTIVITY>
42.01

>  <JCHEM_ROTATABLE_BOND_COUNT>
2

>  <ALOGPS_SOLUBILITY>
4.11e+00 g/l __

$$$$
DB00149
 OpenBabel03171413522D

  9  8  0  0  1  0  0  0  0  0999 V2000
    1.7862   -0.2063    0.0000 O   0  0  0  0  0  0  0  0  0  0  0  0
   -1.7862    0.2063    0.0000 C   0  0  0  0  0  0  0  0  0  0  0  0
   -0.3572    0.2063    0.0000 C   0  0  0  0  0  0  0  0  0  0  0  0
    1.0717    0.2062    0.0000 C   0  0  0  0  0  0  0  0  0  0  0  0
    1.0717    1.0312    0.0000 O   0  0  0  0  0  0  0  0  0  0  0  0
    0.3572   -0.2063    0.0000 C   0  0  1  0  0  0  0  0  0  0  0  0
    0.3572   -1.0313    0.0000 N   0  0  0  0  0  0  0  0  0  0  0  0
   -1.0717   -0.2062    0.0000 C   0  0  0  0  0  0  0  0  0  0  0  0
   -1.0717   -1.0313    0.0000 C   0  0  0  0  0  0  0  0  0  0  0  0
  1  4  1  0  0  0  0
  2  8  1  0  0  0  0
  3  6  1  0  0  0  0
  4  5  2  0  0  0  0
  6  4  1  1  0  0  0
  6  7  1  0  0  0  0
  8  3  1  0  0  0  0
  8  9  1  0  0  0  0
M  END
>  <DRUGBANK_ID>
DB00149

>  <DRUG_GROUPS>
approved; nutraceutical

>  <GENERIC_NAME>
L-Leucine

>  <SYNONYMS>
(2S)-2-Amino-4-methylpentanoic acid; (S)-(+)-Leucine; (S)-2-Amino-4-methylpentanoic acid; (S)-2-Amino-4-methylvaleric acid; (S)-Leucine; 1-Leucine; 2-Amino-4-methylpentanoic acid; 2-Amino-4-methylvaleric acid; alpha-Amino-gamma-methylvaleric acid; alpha-Aminoisocaproic acid; L-(-)-2-Amino-4-methylpentanoic acid; L-(+)-Leucine; L-a-Aminoisocaproic acid; Leu; Leucin; Leucine

>  <CHEMICAL_FORMULA>
C6H13NO2

>  <MOLECULAR_WEIGHT>
131.1729

>  <EXACT_MASS>
131.094628665

>  <IUPAC_NAME>
(2S)-2-amino-4-methylpentanoic acid

>  <INCHI_IDENTIFIER>
InChI=1S/C6H13NO2/c1-4(2)3-5(7)6(8)9/h4-5H,3,7H2,1-2H3,(H,8,9)/t5-/m0/s1

>  <INCHI_KEY>
InChIKey=ROHFNLRQFUQHCH-YFKPBYRVSA-N

>  <SMILES>
CC(C)C[C@H](N)C(O)=O

>  <JCHEM_ACCEPTOR_COUNT>
3

>  <JCHEM_DONOR_COUNT>
2

>  <JCHEM_ACIDIC_PKA>
2.79

>  <JCHEM_BASIC_PKA>
9.52

>  <JCHEM_PHYSIOLOGICAL_CHARGE>
0

>  <ALOGPS_LOGP>
-1.8

>  <JCHEM_LOGP>
-1.6

>  <ALOGPS_LOGS>
-0.27

>  <JCHEM_POLARIZABILITY>
14.16

>  <JCHEM_POLAR_SURFACE_AREA>
63.32

>  <JCHEM_REFRACTIVITY>
34.17

>  <JCHEM_ROTATABLE_BOND_COUNT>
3

>  <ALOGPS_SOLUBILITY>
6.98e+01 g/l __

$$$$
DB00150
 OpenBabel03171413522D

 15 16  0  0  1  0  0  0  0  0999 V2000
    5.9868    1.6183    0.0000 O   0  0  0  0  0  0  0  0  0  0  0  0
    4.6286    2.0622    0.0000 O   0  0  0  0  0  0  0  0  0  0  0  0
    3.8597   -1.6183    0.0000 N   0  0  0  0  0  0  0  0  0  0  0  0
    5.4742    0.0498    0.0000 N   0  0  0  0  0  0  0  0  0  0  0  0
    3.8597   -0.2904    0.0000 C   0  0  0  0  0  0  0  0  0  0  0  0
    4.1159    0.4938    0.0000 C   0  0  0  0  0  0  0  0  0  0  0  0
    3.0791   -0.5418    0.0000 C   0  0  0  0  0  0  0  0  0  0  0  0
    4.9232    0.6639    0.0000 C   0  0  1  0  0  0  0  0  0  0  0  0
    3.0791   -1.3668    0.0000 C   0  0  0  0  0  0  0  0  0  0  0  0
    4.3412   -0.9543    0.0000 C   0  0  0  0  0  0  0  0  0  0  0  0
    2.3645   -0.1293    0.0000 C   0  0  0  0  0  0  0  0  0  0  0  0
    2.3645   -1.7793    0.0000 C   0  0  0  0  0  0  0  0  0  0  0  0
    5.1795    1.4482    0.0000 C   0  0  0  0  0  0  0  0  0  0  0  0
    1.6500   -0.5418    0.0000 C   0  0  0  0  0  0  0  0  0  0  0  0
    1.6500   -1.3668    0.0000 C   0  0  0  0  0  0  0  0  0  0  0  0
  1 13  1  0  0  0  0
  2 13  2  0  0  0  0
  3  9  1  0  0  0  0
  3 10  1  0  0  0  0
  5  6  1  0  0  0  0
  5  7  1  0  0  0  0
  5 10  2  0  0  0  0
  6  8  1  0  0  0  0
  7  9  1  0  0  0  0
  7 11  2  0  0  0  0
  8  4  1  1  0  0  0
  8 13  1  0  0  0  0
  9 12  2  0  0  0  0
 11 14  1  0  0  0  0
 12 15  1  0  0  0  0
 14 15  2  0  0  0  0
M  END
>  <DRUGBANK_ID>
DB00150

>  <DRUG_GROUPS>
approved; nutraceutical

>  <GENERIC_NAME>
L-Tryptophan

>  <SYNONYMS>
(-)-Tryptophan; (S)-a-Amino-1H-indole-3-propanoic acid; (S)-a-Amino-b-indolepropionic acid; (S)-a-Aminoindole-3-propionic acid; (S)-Tryptophan; 2-Amino-3-indolylpropanoic acid; 3-Indol-3-ylalanine; alpha-Amino-beta-(3-indolyl)-propionic acid; L-(-)-Tryptophan; l-a-Aminoindole-3-propionic acid; l-b-3-Indolylalanine; L-Tryptophane; Tryptophan; Tryptophane

>  <BRANDS>
Alti-Tryptophan; Lyphan

>  <CHEMICAL_FORMULA>
C11H12N2O2

>  <MOLECULAR_WEIGHT>
204.2252

>  <EXACT_MASS>
204.089877638

>  <IUPAC_NAME>
(2S)-2-amino-3-(1H-indol-3-yl)propanoic acid

>  <INCHI_IDENTIFIER>
InChI=1S/C11H12N2O2/c12-9(11(14)15)5-7-6-13-10-4-2-1-3-8(7)10/h1-4,6,9,13H,5,12H2,(H,14,15)/t9-/m0/s1

>  <INCHI_KEY>
InChIKey=QIVBCDIJIAJPQS-VIFPVBQESA-N

>  <SMILES>
N[C@@H](CC1=CNC2=CC=CC=C12)C(O)=O

>  <JCHEM_ACCEPTOR_COUNT>
3

>  <JCHEM_DONOR_COUNT>
3

>  <JCHEM_ACIDIC_PKA>
2.54

>  <JCHEM_BASIC_PKA>
9.4

>  <JCHEM_PHYSIOLOGICAL_CHARGE>
0

>  <ALOGPS_LOGP>
-1.1

>  <JCHEM_LOGP>
-1.1

>  <ALOGPS_LOGS>
-2.2

>  <JCHEM_POLARIZABILITY>
21.05

>  <JCHEM_POLAR_SURFACE_AREA>
79.11

>  <JCHEM_REFRACTIVITY>
56.2

>  <JCHEM_ROTATABLE_BOND_COUNT>
3

>  <ALOGPS_SOLUBILITY>
1.36e+00 g/l __

$$$$
DB00151
 OpenBabel03171413522D

  7  6  0  0  1  0  0  0  0  0999 V2000
    2.0930   -0.9818    0.0000 S   0  0  0  0  0  0  0  0  0  0  0  0
    4.2365    0.2558    0.0000 O   0  0  0  0  0  0  0  0  0  0  0  0
    3.5220    1.4933    0.0000 O   0  0  0  0  0  0  0  0  0  0  0  0
    2.0930    0.6683    0.0000 N   0  0  0  0  0  0  0  0  0  0  0  0
    2.8075    0.2558    0.0000 C   0  0  1  0  0  0  0  0  0  0  0  0
    2.8075   -0.5693    0.0000 C   0  0  0  0  0  0  0  0  0  0  0  0
    3.5220    0.6683    0.0000 C   0  0  0  0  0  0  0  0  0  0  0  0
  1  6  1  0  0  0  0
  2  7  1  0  0  0  0
  3  7  2  0  0  0  0
  5  4  1  6  0  0  0
  5  6  1  0  0  0  0
  5  7  1  0  0  0  0
M  END
>  <DRUGBANK_ID>
DB00151

>  <DRUG_GROUPS>
approved; nutraceutical

>  <GENERIC_NAME>
L-Cysteine

>  <SYNONYMS>
(R)-2-Amino-3-mercaptopropanoic acid; (R)-Cysteine; 2-Amino-3-mercaptopropionic acid; 3-mercapto-L-Alanine; b-Mercaptoalanine; carbocysteine; Cys; Cystein; Half-cystine; L-(+)-Cysteine; L-2-Amino-3-mercaptopropionic acid; L-Cys; Thioserine

>  <CHEMICAL_FORMULA>
C3H7NO2S

>  <MOLECULAR_WEIGHT>
121.158

>  <EXACT_MASS>
121.019749163

>  <IUPAC_NAME>
(2R)-2-amino-3-sulfanylpropanoic acid

>  <INCHI_IDENTIFIER>
InChI=1S/C3H7NO2S/c4-2(1-7)3(5)6/h2,7H,1,4H2,(H,5,6)/t2-/m0/s1

>  <INCHI_KEY>
InChIKey=XUJNEKJLAYXESH-REOHCLBHSA-N

>  <SMILES>
N[C@@H](CS)C(O)=O

>  <JCHEM_ACCEPTOR_COUNT>
3

>  <JCHEM_DONOR_COUNT>
3

>  <JCHEM_ACIDIC_PKA>
2.35

>  <JCHEM_BASIC_PKA>
9.05

>  <JCHEM_PHYSIOLOGICAL_CHARGE>
0

>  <ALOGPS_LOGP>
-2.6

>  <JCHEM_LOGP>
-2.8

>  <ALOGPS_LOGS>
-0.72

>  <JCHEM_POLARIZABILITY>
11.46

>  <JCHEM_POLAR_SURFACE_AREA>
63.32

>  <JCHEM_REFRACTIVITY>
28.22

>  <JCHEM_ROTATABLE_BOND_COUNT>
2

>  <ALOGPS_SOLUBILITY>
2.31e+01 g/l __

$$$$
DB00152
 OpenBabel03171413522D

 18 19  0  0  0  0  0  0  0  0999 V2000
    1.9050    0.8501    0.0000 S   0  0  0  0  0  0  0  0  0  0  0  0
    3.3643    2.9387    0.0000 O   0  0  0  0  0  0  0  0  0  0  0  0
    2.3175   -0.4194    0.0000 N   0  3  0  0  0  0  0  0  0  0  0  0
    3.7465   -2.8945    0.0000 N   0  0  0  0  0  0  0  0  0  0  0  0
    4.4610   -1.6570    0.0000 N   0  0  0  0  0  0  0  0  0  0  0  0
    2.3175   -2.8945    0.0000 N   0  0  0  0  0  0  0  0  0  0  0  0
    2.9849    0.0655    0.0000 C   0  0  0  0  0  0  0  0  0  0  0  0
    2.3175   -1.2445    0.0000 C   0  0  0  0  0  0  0  0  0  0  0  0
    2.7300    0.8501    0.0000 C   0  0  0  0  0  0  0  0  0  0  0  0
    3.2149    1.5175    0.0000 C   0  0  0  0  0  0  0  0  0  0  0  0
    3.0319   -1.6570    0.0000 C   0  0  0  0  0  0  0  0  0  0  0  0
    1.6500    0.0655    0.0000 C   0  0  0  0  0  0  0  0  0  0  0  0
    3.7696   -0.1894    0.0000 C   0  0  0  0  0  0  0  0  0  0  0  0
    2.8794    2.2713    0.0000 C   0  0  0  0  0  0  0  0  0  0  0  0
    3.0319   -2.4820    0.0000 C   0  0  0  0  0  0  0  0  0  0  0  0
    3.7465   -1.2445    0.0000 C   0  0  0  0  0  0  0  0  0  0  0  0
    4.4610   -2.4820    0.0000 C   0  0  0  0  0  0  0  0  0  0  0  0
    5.1754   -2.8945    0.0000 C   0  0  0  0  0  0  0  0  0  0  0  0
  1  9  1  0  0  0  0
  1 12  1  0  0  0  0
  2 14  1  0  0  0  0
  3  7  1  0  0  0  0
  3  8  1  0  0  0  0
  3 12  2  0  0  0  0
  4 15  2  0  0  0  0
  4 17  1  0  0  0  0
  5 16  1  0  0  0  0
  5 17  2  0  0  0  0
  6 15  1  0  0  0  0
  7  9  2  0  0  0  0
  7 13  1  0  0  0  0
  8 11  1  0  0  0  0
  9 10  1  0  0  0  0
 10 14  1  0  0  0  0
 11 15  1  0  0  0  0
 11 16  2  0  0  0  0
 17 18  1  0  0  0  0
M  CHG  1   3   1
M  END
>  <DRUGBANK_ID>
DB00152

>  <DRUG_GROUPS>
approved; nutraceutical

>  <GENERIC_NAME>
Thiamine

>  <SYNONYMS>
Thiadoxine; Thiamin; Thiamine Hcl; thiamine(1+); Vitamin B1

>  <BRANDS>
Aneurin; Antiberiberi Factor; Betalin S; Betaxin; Bewon; Biamine; Vitaneuron

>  <CHEMICAL_FORMULA>
C12H17N4OS

>  <MOLECULAR_WEIGHT>
265.355

>  <EXACT_MASS>
265.112306876

>  <IUPAC_NAME>
3-[(4-amino-2-methylpyrimidin-5-yl)methyl]-5-(2-hydroxyethyl)-4-methyl-1,3-thiazol-3-ium

>  <INCHI_IDENTIFIER>
InChI=1S/C12H17N4OS/c1-8-11(3-4-17)18-7-16(8)6-10-5-14-9(2)15-12(10)13/h5,7,17H,3-4,6H2,1-2H3,(H2,13,14,15)/q+1

>  <INCHI_KEY>
InChIKey=JZRWCGZRTZMZEH-UHFFFAOYSA-N

>  <SMILES>
CC1=C(CCO)SC=[N+]1CC1=CN=C(C)N=C1N

>  <JCHEM_ACCEPTOR_COUNT>
4

>  <JCHEM_DONOR_COUNT>
2

>  <JCHEM_ACIDIC_PKA>
15.5

>  <JCHEM_BASIC_PKA>
5.54

>  <JCHEM_PHYSIOLOGICAL_CHARGE>
1

>  <ALOGPS_LOGP>
-2.1

>  <JCHEM_LOGP>
-3.1

>  <ALOGPS_LOGS>
-4.3

>  <JCHEM_POLARIZABILITY>
28.14

>  <JCHEM_POLAR_SURFACE_AREA>
75.91

>  <JCHEM_REFRACTIVITY>
73.4

>  <JCHEM_ROTATABLE_BOND_COUNT>
4

>  <ALOGPS_SOLUBILITY>
1.53e-02 g/l __

$$$$
DB00153
 OpenBabel03171413522D

 31 33  0  0  1  0  0  0  0  0999 V2000
    1.6500   -3.9985    0.0000 O   0  0  0  0  0  0  0  0  0  0  0  0
    4.5080    0.9517    0.0000 C   0  0  2  0  0  0  0  0  0  0  0  0
    5.2886    1.2030    0.0000 C   0  0  2  0  0  0  0  0  0  0  0  0
    4.5080    0.1266    0.0000 C   0  0  1  0  0  0  0  0  0  0  0  0
    5.7701    0.5391    0.0000 C   0  0  0  0  0  0  0  0  0  0  0  0
    5.2886   -0.1247    0.0000 C   0  0  0  0  0  0  0  0  0  0  0  0
    3.7935    1.3642    0.0000 C   0  0  0  0  0  0  0  0  0  0  0  0
    5.5449    1.9872    0.0000 C   0  0  2  0  0  0  0  0  0  0  0  0
    3.7935   -0.2859    0.0000 C   0  0  0  0  0  0  0  0  0  0  0  0
    4.5080    1.7767    0.0000 C   0  0  0  0  0  0  0  0  0  0  0  0
    3.0791    0.9517    0.0000 C   0  0  0  0  0  0  0  0  0  0  0  0
    3.0791    0.1266    0.0000 C   0  0  0  0  0  0  0  0  0  0  0  0
    4.9939    2.6013    0.0000 C   0  0  0  0  0  0  0  0  0  0  0  0
    6.3522    2.1574    0.0000 C   0  0  0  0  0  0  0  0  0  0  0  0
    3.7935   -1.1109    0.0000 C   0  0  0  0  0  0  0  0  0  0  0  0
    6.6086    2.9416    0.0000 C   0  0  0  0  0  0  0  0  0  0  0  0
    3.0791   -1.5234    0.0000 C   0  0  0  0  0  0  0  0  0  0  0  0
    7.4158    3.1117    0.0000 C   0  0  1  0  0  0  0  0  0  0  0  0
    3.0791   -2.3484    0.0000 C   0  0  0  0  0  0  0  0  0  0  0  0
    7.6721    3.8959    0.0000 C   0  0  0  0  0  0  0  0  0  0  0  0
    2.3645   -2.7609    0.0000 C   0  0  0  0  0  0  0  0  0  0  0  0
    7.9668    2.4977    0.0000 C   0  0  0  0  0  0  0  0  0  0  0  0
    3.7935   -2.7609    0.0000 C   0  0  0  0  0  0  0  0  0  0  0  0
    2.3645   -3.5859    0.0000 C   0  0  2  0  0  0  0  0  0  0  0  0
    3.7935   -3.5859    0.0000 C   0  0  0  0  0  0  0  0  0  0  0  0
    3.0791   -3.9985    0.0000 C   0  0  0  0  0  0  0  0  0  0  0  0
    7.1211    4.5100    0.0000 C   0  0  0  0  0  0  0  0  0  0  0  0
    8.4794    4.0660    0.0000 C   0  0  0  0  0  0  0  0  0  0  0  0
    4.5080   -2.3484    0.0000 C   0  0  0  0  0  0  0  0  0  0  0  0
    5.9406    1.3054    0.0000 H   0  0  0  0  0  0  0  0  0  0  0  0
    4.5779   -0.5297    0.0000 H   0  0  0  0  0  0  0  0  0  0  0  0
  2  3  1  0  0  0  0
  2  4  1  0  0  0  0
  2  7  1  0  0  0  0
  2 10  1  1  0  0  0
  3  5  1  0  0  0  0
  3  8  1  0  0  0  0
  3 30  1  6  0  0  0
  4  6  1  0  0  0  0
  4  9  1  0  0  0  0
  4 31  1  6  0  0  0
  5  6  1  0  0  0  0
  7 11  1  0  0  0  0
  8 13  1  6  0  0  0
  8 14  1  0  0  0  0
  9 12  1  0  0  0  0
  9 15  2  0  0  0  0
 11 12  1  0  0  0  0
 14 16  2  0  0  0  0
 15 17  1  0  0  0  0
 17 19  2  0  0  0  0
 18 16  1  1  0  0  0
 18 20  1  0  0  0  0
 18 22  1  0  0  0  0
 19 21  1  0  0  0  0
 19 23  1  0  0  0  0
 20 27  1  0  0  0  0
 20 28  1  0  0  0  0
 21 24  1  0  0  0  0
 23 25  1  0  0  0  0
 23 29  2  0  0  0  0
 24  1  1  6  0  0  0
 24 26  1  0  0  0  0
 25 26  1  0  0  0  0
M  END
>  <DRUGBANK_ID>
DB00153

>  <DRUG_GROUPS>
approved; nutraceutical

>  <GENERIC_NAME>
Ergocalciferol

>  <SYNONYMS>
Synthetic Vitamin D; Vitamin D2

>  <BRANDS>
Buco-D; Calciferol; Calciferon 2; Condacaps; Condocaps; Condol; Crtron; Crystallina; D-Arthin; D-Tracetten; Daral; Davitamon D; Davitin; De-Rat Concentrate; Decaps; Dee-Osterol; Dee-Ron; Dee-Ronal; Dee-Roual; Deltalin; Deratol; Detalup; Diactol; Divit Urto; Drisdol; Ercalciol; Ergorone; Ergosterol Activated; Ergosterol, Irradiated; Ertron; Fortodyl; Geltabs; Hi-Deratol; Infron; Metadee; Mulsiferol; Mykostin; Novovitamin-D; Oleovitamin D; Oleovitamin D, Synthetic; Oleovitamin D2; Ostelin; Radiostol; Radstein; Radsterin; Rodine C; Shock-Ferol; Shock-Ferol Sterogyl; Sterogyl; Uvesterol-D; Vio-D; Viostdrol; Viosterol; Viosterol in Oil; Vitavel-D

>  <CHEMICAL_FORMULA>
C28H44O

>  <MOLECULAR_WEIGHT>
396.6484

>  <EXACT_MASS>
396.33921603

>  <IUPAC_NAME>
(1S,3Z)-3-{2-[(1R,3aS,4E,7aR)-1-[(2R,3E,5R)-5,6-dimethylhept-3-en-2-yl]-7a-methyl-octahydro-1H-inden-4-ylidene]ethylidene}-4-methylidenecyclohexan-1-ol

>  <INCHI_IDENTIFIER>
InChI=1S/C28H44O/c1-19(2)20(3)9-10-22(5)26-15-16-27-23(8-7-17-28(26,27)6)12-13-24-18-25(29)14-11-21(24)4/h9-10,12-13,19-20,22,25-27,29H,4,7-8,11,14-18H2,1-3,5-6H3/b10-9+,23-12+,24-13-/t20-,22+,25-,26+,27-,28+/m0/s1

>  <INCHI_KEY>
InChIKey=MECHNRXZTMCUDQ-RKHKHRCZSA-N

>  <SMILES>
CC(C)[C@@H](C)\C=C\[C@@H](C)[C@@]1([H])CC[C@@]2([H])\C(CCC[C@]12C)=C\C=C1\C[C@@H](O)CCC1=C

>  <JCHEM_ACCEPTOR_COUNT>
1

>  <JCHEM_DONOR_COUNT>
1

>  <JCHEM_ACIDIC_PKA>
18.38

>  <JCHEM_BASIC_PKA>
-1.3

>  <JCHEM_PHYSIOLOGICAL_CHARGE>
0

>  <ALOGPS_LOGP>
7.59

>  <JCHEM_LOGP>
7.05

>  <ALOGPS_LOGS>
-6

>  <JCHEM_POLARIZABILITY>
50.73

>  <JCHEM_POLAR_SURFACE_AREA>
20.23

>  <JCHEM_REFRACTIVITY>
128.89

>  <JCHEM_ROTATABLE_BOND_COUNT>
5

>  <ALOGPS_SOLUBILITY>
4.33e-04 g/l __

$$$$
DB00154
 OpenBabel03171413522D

 22 21  0  0  0  0  0  0  0  0999 V2000
    1.6500    2.6813    0.0000 O   0  0  0  0  0  0  0  0  0  0  0  0
    3.0790    2.6813    0.0000 O   0  0  0  0  0  0  0  0  0  0  0  0
    3.7935   -0.2063    0.0000 C   0  0  0  0  0  0  0  0  0  0  0  0
    3.0790    0.2063    0.0000 C   0  0  0  0  0  0  0  0  0  0  0  0
    3.7935   -1.0313    0.0000 C   0  0  0  0  0  0  0  0  0  0  0  0
    3.0790    1.0313    0.0000 C   0  0  0  0  0  0  0  0  0  0  0  0
    4.5080   -1.4438    0.0000 C   0  0  0  0  0  0  0  0  0  0  0  0
    2.3645    1.4438    0.0000 C   0  0  0  0  0  0  0  0  0  0  0  0
    7.3659    1.0313    0.0000 C   0  0  0  0  0  0  0  0  0  0  0  0
    6.6515    1.4438    0.0000 C   0  0  0  0  0  0  0  0  0  0  0  0
    7.3659    0.2063    0.0000 C   0  0  0  0  0  0  0  0  0  0  0  0
    6.6515    2.2688    0.0000 C   0  0  0  0  0  0  0  0  0  0  0  0
    4.5080   -2.2688    0.0000 C   0  0  0  0  0  0  0  0  0  0  0  0
    5.2224   -2.6813    0.0000 C   0  0  0  0  0  0  0  0  0  0  0  0
    8.0804   -0.2063    0.0000 C   0  0  0  0  0  0  0  0  0  0  0  0
    2.3645    2.2688    0.0000 C   0  0  0  0  0  0  0  0  0  0  0  0
    5.9370    2.6813    0.0000 C   0  0  0  0  0  0  0  0  0  0  0  0
    5.9370   -2.2688    0.0000 C   0  0  0  0  0  0  0  0  0  0  0  0
    8.0804   -1.0313    0.0000 C   0  0  0  0  0  0  0  0  0  0  0  0
    7.3659   -1.4438    0.0000 C   0  0  0  0  0  0  0  0  0  0  0  0
    6.6515   -2.6813    0.0000 C   0  0  0  0  0  0  0  0  0  0  0  0
    7.3659   -2.2688    0.0000 C   0  0  0  0  0  0  0  0  0  0  0  0
  1 16  1  0  0  0  0
  2 16  2  0  0  0  0
  3  4  1  0  0  0  0
  3  5  1  0  0  0  0
  4  6  1  0  0  0  0
  5  7  1  0  0  0  0
  6  8  1  0  0  0  0
  7 13  1  0  0  0  0
  8 16  1  0  0  0  0
  9 10  1  0  0  0  0
  9 11  1  0  0  0  0
 10 12  1  0  0  0  0
 11 15  1  0  0  0  0
 12 17  1  0  0  0  0
 13 14  2  0  0  0  0
 14 18  1  0  0  0  0
 15 19  2  0  0  0  0
 18 21  1  0  0  0  0
 19 20  1  0  0  0  0
 20 22  1  0  0  0  0
 21 22  2  0  0  0  0
M  END
>  <DRUGBANK_ID>
DB00154

>  <DRUG_GROUPS>
approved; nutraceutical

>  <GENERIC_NAME>
gamma-Homolinolenic acid

>  <SYNONYMS>
(Z,Z,Z)-8,11,14-Eicosatrienoic acid; 8,11,14-Eicosatrienoic Acid; cis-8,11,14-Eicosatrienoic acid; DGLA; Dihomo-gamma-linolenic acid; Homo-gamma-linolenic acid

>  <BRANDS>
Star GLA (GNC); Tona-lean 1000 CLA (Action Labs)

>  <CHEMICAL_FORMULA>
C20H34O2

>  <MOLECULAR_WEIGHT>
306.4828

>  <EXACT_MASS>
306.255880332

>  <IUPAC_NAME>
(8Z,11Z,14Z)-icosa-8,11,14-trienoic acid

>  <INCHI_IDENTIFIER>
InChI=1S/C20H34O2/c1-2-3-4-5-6-7-8-9-10-11-12-13-14-15-16-17-18-19-20(21)22/h6-7,9-10,12-13H,2-5,8,11,14-19H2,1H3,(H,21,22)/b7-6-,10-9-,13-12-

>  <INCHI_KEY>
InChIKey=HOBAELRKJCKHQD-QNEBEIHSSA-N

>  <SMILES>
CCCCC\C=C/C\C=C/C\C=C/CCCCCCC(O)=O

>  <JCHEM_ACCEPTOR_COUNT>
2

>  <JCHEM_DONOR_COUNT>
1

>  <JCHEM_ACIDIC_PKA>
4.89

>  <JCHEM_PHYSIOLOGICAL_CHARGE>
-1

>  <ALOGPS_LOGP>
7.24

>  <JCHEM_LOGP>
6.95

>  <ALOGPS_LOGS>
-6.6

>  <JCHEM_POLARIZABILITY>
39.01

>  <JCHEM_POLAR_SURFACE_AREA>
37.3

>  <JCHEM_REFRACTIVITY>
98.84

>  <JCHEM_ROTATABLE_BOND_COUNT>
15

>  <ALOGPS_SOLUBILITY>
7.71e-05 g/l __

$$$$
DB00155
 OpenBabel03171413522D

 12 11  0  0  1  0  0  0  0  0999 V2000
    5.6655    1.4933    0.0000 O   0  0  0  0  0  0  0  0  0  0  0  0
    4.9509    2.7308    0.0000 O   0  0  0  0  0  0  0  0  0  0  0  0
    3.5220   -2.2193    0.0000 O   0  0  0  0  0  0  0  0  0  0  0  0
    2.8075   -0.9818    0.0000 N   0  0  0  0  0  0  0  0  0  0  0  0
    3.5220    1.9058    0.0000 N   0  0  0  0  0  0  0  0  0  0  0  0
    2.0930   -2.2193    0.0000 N   0  0  0  0  0  0  0  0  0  0  0  0
    4.2365    0.6683    0.0000 C   0  0  0  0  0  0  0  0  0  0  0  0
    3.5220    0.2558    0.0000 C   0  0  0  0  0  0  0  0  0  0  0  0
    4.2365    1.4933    0.0000 C   0  0  1  0  0  0  0  0  0  0  0  0
    3.5220   -0.5693    0.0000 C   0  0  0  0  0  0  0  0  0  0  0  0
    4.9509    1.9058    0.0000 C   0  0  0  0  0  0  0  0  0  0  0  0
    2.8075   -1.8068    0.0000 C   0  0  0  0  0  0  0  0  0  0  0  0
  1 11  1  0  0  0  0
  2 11  2  0  0  0  0
  3 12  2  0  0  0  0
  4 10  1  0  0  0  0
  4 12  1  0  0  0  0
  6 12  1  0  0  0  0
  7  8  1  0  0  0  0
  7  9  1  0  0  0  0
  8 10  1  0  0  0  0
  9  5  1  6  0  0  0
  9 11  1  0  0  0  0
M  END
>  <DRUGBANK_ID>
DB00155

>  <DRUG_GROUPS>
approved; nutraceutical

>  <GENERIC_NAME>
L-Citrulline

>  <SYNONYMS>
2-Amino-5-uredovaleric acid; Citrulline; delta-Ureidonorvaline; N5-(Aminocarbonyl)ornithine; N5-Carbamoyl-L-ornithine; N5-carbamoylornithine; N5-carbamylornithine; Sitrulline

>  <CHEMICAL_FORMULA>
C6H13N3O3

>  <MOLECULAR_WEIGHT>
175.1857

>  <EXACT_MASS>
175.095691297

>  <IUPAC_NAME>
(2S)-2-amino-5-(carbamoylamino)pentanoic acid

>  <INCHI_IDENTIFIER>
InChI=1S/C6H13N3O3/c7-4(5(10)11)2-1-3-9-6(8)12/h4H,1-3,7H2,(H,10,11)(H3,8,9,12)/t4-/m0/s1

>  <INCHI_KEY>
InChIKey=RHGKLRLOHDJJDR-BYPYZUCNSA-N

>  <SMILES>
N[C@@H](CCCNC(N)=O)C(O)=O

>  <JCHEM_ACCEPTOR_COUNT>
4

>  <JCHEM_DONOR_COUNT>
4

>  <JCHEM_ACIDIC_PKA>
2.27

>  <JCHEM_BASIC_PKA>
9.23

>  <JCHEM_PHYSIOLOGICAL_CHARGE>
0

>  <ALOGPS_LOGP>
-3.3

>  <JCHEM_LOGP>
-3.9

>  <ALOGPS_LOGS>
-0.9

>  <JCHEM_POLARIZABILITY>
17.35

>  <JCHEM_POLAR_SURFACE_AREA>
118.44

>  <JCHEM_REFRACTIVITY>
41.33

>  <JCHEM_ROTATABLE_BOND_COUNT>
5

>  <ALOGPS_SOLUBILITY>
2.18e+01 g/l __

$$$$
DB00156
 OpenBabel03171413522D

  8  7  0  0  1  0  0  0  0  0999 V2000
    4.9509   -0.0784    0.0000 O   0  0  0  0  0  0  0  0  0  0  0  0
    2.0930   -0.0784    0.0000 O   0  0  0  0  0  0  0  0  0  0  0  0
    2.8075    1.1592    0.0000 O   0  0  0  0  0  0  0  0  0  0  0  0
    3.5220   -0.9034    0.0000 N   0  0  0  0  0  0  0  0  0  0  0  0
    4.2365    0.3341    0.0000 C   0  0  1  0  0  0  0  0  0  0  0  0
    3.5220   -0.0784    0.0000 C   0  0  1  0  0  0  0  0  0  0  0  0
    4.2365    1.1592    0.0000 C   0  0  0  0  0  0  0  0  0  0  0  0
    2.8075    0.3341    0.0000 C   0  0  0  0  0  0  0  0  0  0  0  0
  2  8  1  0  0  0  0
  3  8  2  0  0  0  0
  5  1  1  1  0  0  0
  5  6  1  0  0  0  0
  5  7  1  0  0  0  0
  6  4  1  6  0  0  0
  6  8  1  0  0  0  0
M  END
>  <DRUGBANK_ID>
DB00156

>  <DRUG_GROUPS>
approved; nutraceutical

>  <GENERIC_NAME>
L-Threonine

>  <SYNONYMS>
(S)-Threonine; [R-(R*,S*)]-2-Amino-3-hydroxybutanoic acid; 2-Amino-3-hydroxybutyric acid; L-(-)-Threonine; Threonin; Threonine

>  <CHEMICAL_FORMULA>
C4H9NO3

>  <MOLECULAR_WEIGHT>
119.1192

>  <EXACT_MASS>
119.058243159

>  <IUPAC_NAME>
(2S,3R)-2-amino-3-hydroxybutanoic acid

>  <INCHI_IDENTIFIER>
InChI=1S/C4H9NO3/c1-2(6)3(5)4(7)8/h2-3,6H,5H2,1H3,(H,7,8)/t2-,3+/m1/s1

>  <INCHI_KEY>
InChIKey=AYFVYJQAPQTCCC-GBXIJSLDSA-N

>  <SMILES>
C[C@@H](O)[C@H](N)C(O)=O

>  <JCHEM_ACCEPTOR_COUNT>
4

>  <JCHEM_DONOR_COUNT>
3

>  <JCHEM_ACIDIC_PKA>
2.21

>  <JCHEM_BASIC_PKA>
9

>  <JCHEM_PHYSIOLOGICAL_CHARGE>
0

>  <ALOGPS_LOGP>
-3

>  <JCHEM_LOGP>
-3.5

>  <ALOGPS_LOGS>
0.6

>  <JCHEM_POLARIZABILITY>
11.12

>  <JCHEM_POLAR_SURFACE_AREA>
83.55

>  <JCHEM_REFRACTIVITY>
26.46

>  <JCHEM_ROTATABLE_BOND_COUNT>
2

>  <ALOGPS_SOLUBILITY>
4.77e+02 g/l __

$$$$
DB00157
 OpenBabel03171413522D

 44 48  0  0  1  0  0  0  0  0999 V2000
    6.9922    1.8744    0.0000 P   0  0  1  0  0  0  0  0  0  0  0  0
    8.4135    2.0213    0.0000 P   0  0  2  0  0  0  0  0  0  0  0  0
    4.9010    0.4187    0.0000 O   0  0  0  0  0  0  0  0  0  0  0  0
   11.3032    2.2426    0.0000 O   0  0  0  0  0  0  0  0  0  0  0  0
    3.8647    2.2851    0.0000 O   0  0  0  0  0  0  0  0  0  0  0  0
    2.8071    0.8348    0.0000 O   0  0  0  0  0  0  0  0  0  0  0  0
   10.2050    0.4119    0.0000 O   0  0  0  0  0  0  0  0  0  0  0  0
   11.9898    0.2212    0.0000 O   0  0  0  0  0  0  0  0  0  0  0  0
    6.3238    1.3906    0.0000 O   0  0  0  0  0  0  0  0  0  0  0  0
    9.1667    1.6844    0.0000 O   0  0  0  0  0  0  0  0  0  0  0  0
    7.6604    2.3582    0.0000 O   0  0  0  0  0  0  0  0  0  0  0  0
    7.4759    1.2061    0.0000 O   0  0  0  0  0  0  0  0  0  0  0  0
    8.7504    2.7744    0.0000 O   0  0  0  0  0  0  0  0  0  0  0  0
    6.5084    2.5427    0.0000 O   0  0  0  0  0  0  0  0  0  0  0  0
    8.0766    1.2682    0.0000 O   0  0  0  0  0  0  0  0  0  0  0  0
   14.3756    0.0175    0.0000 O   0  0  0  0  0  0  0  0  0  0  0  0
    3.8597   -0.6191    0.0000 N   0  0  0  0  0  0  0  0  0  0  0  0
   12.7226    1.8597    0.0000 N   0  0  0  0  0  0  0  0  0  0  0  0
    3.8597   -1.9469    0.0000 N   0  0  0  0  0  0  0  0  0  0  0  0
    2.3645   -0.4580    0.0000 N   0  0  0  0  0  0  0  0  0  0  0  0
    1.6500   -1.6955    0.0000 N   0  0  0  0  0  0  0  0  0  0  0  0
    2.3645   -2.9330    0.0000 N   0  0  0  0  0  0  0  0  0  0  0  0
   15.4392    0.9718    0.0000 N   0  0  0  0  0  0  0  0  0  0  0  0
    4.1182    1.5000    0.0000 C   0  0  1  0  0  0  0  0  0  0  0  0
    3.6321    0.8334    0.0000 C   0  0  2  0  0  0  0  0  0  0  0  0
    4.9025    1.2437    0.0000 C   0  0  1  0  0  0  0  0  0  0  0  0
    4.1159    0.1652    0.0000 C   0  0  1  0  0  0  0  0  0  0  0  0
   10.7582    1.0241    0.0000 C   0  0  1  0  0  0  0  0  0  0  0  0
   11.5785    0.9364    0.0000 C   0  0  2  0  0  0  0  0  0  0  0  0
   10.5880    1.8314    0.0000 C   0  0  1  0  0  0  0  0  0  0  0  0
   11.9154    1.6895    0.0000 C   0  0  1  0  0  0  0  0  0  0  0  0
    5.5707    1.7275    0.0000 C   0  0  0  0  0  0  0  0  0  0  0  0
    9.8349    2.1682    0.0000 C   0  0  0  0  0  0  0  0  0  0  0  0
    3.0790   -0.8705    0.0000 C   0  0  0  0  0  0  0  0  0  0  0  0
   13.2737    1.2456    0.0000 C   0  0  0  0  0  0  0  0  0  0  0  0
    4.3411   -1.2830    0.0000 C   0  0  0  0  0  0  0  0  0  0  0  0
   12.9790    2.6438    0.0000 C   0  0  0  0  0  0  0  0  0  0  0  0
    3.0790   -1.6955    0.0000 C   0  0  0  0  0  0  0  0  0  0  0  0
   14.0809    1.4157    0.0000 C   0  0  0  0  0  0  0  0  0  0  0  0
   14.3372    2.1999    0.0000 C   0  0  0  0  0  0  0  0  0  0  0  0
   13.7862    2.8140    0.0000 C   0  0  0  0  0  0  0  0  0  0  0  0
    2.3645   -2.1080    0.0000 C   0  0  0  0  0  0  0  0  0  0  0  0
   14.6319    0.8017    0.0000 C   0  0  0  0  0  0  0  0  0  0  0  0
    1.6500   -0.8705    0.0000 C   0  0  0  0  0  0  0  0  0  0  0  0
  1  9  1  1  0  0  0
  1 11  1  0  0  0  0
  1 12  1  0  0  0  0
  1 14  2  0  0  0  0
  2 10  1  6  0  0  0
  2 11  1  0  0  0  0
  2 13  1  0  0  0  0
  2 15  2  0  0  0  0
  3 26  1  0  0  0  0
  3 27  1  0  0  0  0
  4 30  1  0  0  0  0
  4 31  1  0  0  0  0
  9 32  1  0  0  0  0
 10 33  1  0  0  0  0
 16 43  2  0  0  0  0
 17 34  1  0  0  0  0
 17 36  1  0  0  0  0
 18 35  1  0  0  0  0
 18 37  1  0  0  0  0
 19 36  2  0  0  0  0
 19 38  1  0  0  0  0
 20 34  2  0  0  0  0
 20 44  1  0  0  0  0
 21 42  1  0  0  0  0
 21 44  2  0  0  0  0
 22 42  1  0  0  0  0
 23 43  1  0  0  0  0
 24  5  1  6  0  0  0
 24 25  1  0  0  0  0
 24 26  1  0  0  0  0
 25  6  1  6  0  0  0
 25 27  1  0  0  0  0
 26 32  1  1  0  0  0
 27 17  1  1  0  0  0
 28  7  1  6  0  0  0
 28 29  1  0  0  0  0
 28 30  1  0  0  0  0
 29  8  1  6  0  0  0
 29 31  1  0  0  0  0
 30 33  1  1  0  0  0
 31 18  1  1  0  0  0
 34 38  1  0  0  0  0
 35 39  2  0  0  0  0
 37 41  2  0  0  0  0
 38 42  2  0  0  0  0
 39 40  1  0  0  0  0
 39 43  1  0  0  0  0
 40 41  1  0  0  0  0
M  END
>  <DRUGBANK_ID>
DB00157

>  <DRUG_GROUPS>
approved; nutraceutical

>  <GENERIC_NAME>
NADH

>  <SYNONYMS>
beta-DPNH; beta-NADH; Coenzyme I, reduced; Cozymase I, reduced; dihydrodiphosphopyridine nucleotide; dihydronicotinamide adenine dinucleotide; Diphosphopyridine nucleotide; diphosphopyridine nucleotide reduced; DPN; DPN+; DPNH; NAD-reduced; NAD+; NADH+H+; NADH2; Nicotinamide adenine dinucleotide; nicotinamide adenine dinucleotide reduced; Nicotinaminde-Adenine-Dinucleotide

>  <BRANDS>
Nadide

>  <CHEMICAL_FORMULA>
C21H29N7O14P2

>  <MOLECULAR_WEIGHT>
665.441

>  <EXACT_MASS>
665.124771695

>  <IUPAC_NAME>
{[(2R,3S,4R,5R)-5-(6-amino-9H-purin-9-yl)-3,4-dihydroxyoxolan-2-yl]methoxy}[({[(2R,3S,4R,5R)-5-(3-carbamoyl-1,4-dihydropyridin-1-yl)-3,4-dihydroxyoxolan-2-yl]methoxy}(hydroxy)phosphoryl)oxy]phosphinic acid

>  <INCHI_IDENTIFIER>
InChI=1S/C21H29N7O14P2/c22-17-12-19(25-7-24-17)28(8-26-12)21-16(32)14(30)11(41-21)6-39-44(36,37)42-43(34,35)38-5-10-13(29)15(31)20(40-10)27-3-1-2-9(4-27)18(23)33/h1,3-4,7-8,10-11,13-16,20-21,29-32H,2,5-6H2,(H2,23,33)(H,34,35)(H,36,37)(H2,22,24,25)/t10-,11-,13-,14-,15-,16-,20-,21-/m1/s1

>  <INCHI_KEY>
InChIKey=BOPGDPNILDQYTO-NNYOXOHSSA-N

>  <SMILES>
NC(=O)C1=CN(C=CC1)[C@@H]1O[C@H](CO[P@](O)(=O)O[P@](O)(=O)OC[C@H]2O[C@H]([C@H](O)[C@@H]2O)N2C=NC3=C(N)N=CN=C23)[C@@H](O)[C@H]1O

>  <JCHEM_ACCEPTOR_COUNT>
16

>  <JCHEM_DONOR_COUNT>
8

>  <JCHEM_ACIDIC_PKA>
-7

>  <JCHEM_BASIC_PKA>
5

>  <JCHEM_PHYSIOLOGICAL_CHARGE>
-2

>  <ALOGPS_LOGP>
-1.4

>  <JCHEM_LOGP>
-6.5

>  <ALOGPS_LOGS>
-2.4

>  <JCHEM_POLARIZABILITY>
57.65

>  <JCHEM_POLAR_SURFACE_AREA>
317.62

>  <JCHEM_REFRACTIVITY>
143

>  <JCHEM_ROTATABLE_BOND_COUNT>
11

>  <ALOGPS_SOLUBILITY>
2.95e+00 g/l __

$$$$
DB00158
 OpenBabel03171413522D

 32 34  0  0  1  0  0  0  0  0999 V2000
   12.8598    0.2286    0.0000 O   0  0  0  0  0  0  0  0  0  0  0  0
    9.9988    1.0426    0.0000 O   0  0  0  0  0  0  0  0  0  0  0  0
   12.1501   -1.0116    0.0000 O   0  0  0  0  0  0  0  0  0  0  0  0
   12.8502    2.7036    0.0000 O   0  0  0  0  0  0  0  0  0  0  0  0
   11.4213    2.6981    0.0000 O   0  0  0  0  0  0  0  0  0  0  0  0
    3.5220   -0.2286    0.0000 O   0  0  0  0  0  0  0  0  0  0  0  0
   10.7180   -0.1921    0.0000 N   0  0  0  0  0  0  0  0  0  0  0  0
    7.1504   -1.4434    0.0000 N   0  0  0  0  0  0  0  0  0  0  0  0
    4.9740   -1.0250    0.0000 N   0  0  0  0  0  0  0  0  0  0  0  0
    3.5220   -2.7036    0.0000 N   0  0  0  0  0  0  0  0  0  0  0  0
    4.9740   -2.7322    0.0000 N   0  0  0  0  0  0  0  0  0  0  0  0
    2.8075   -1.4661    0.0000 N   0  0  0  0  0  0  0  0  0  0  0  0
    2.0930   -2.7036    0.0000 N   0  0  0  0  0  0  0  0  0  0  0  0
   11.4309    0.2231    0.0000 C   0  0  1  0  0  0  0  0  0  0  0  0
   11.4277    1.0481    0.0000 C   0  0  0  0  0  0  0  0  0  0  0  0
   12.1406    1.4634    0.0000 C   0  0  0  0  0  0  0  0  0  0  0  0
   10.0019    0.2176    0.0000 C   0  0  0  0  0  0  0  0  0  0  0  0
    9.2890   -0.1977    0.0000 C   0  0  0  0  0  0  0  0  0  0  0  0
   12.1469   -0.1866    0.0000 C   0  0  0  0  0  0  0  0  0  0  0  0
    7.8633   -1.0282    0.0000 C   0  0  0  0  0  0  0  0  0  0  0  0
    6.4343   -1.0337    0.0000 C   0  0  0  0  0  0  0  0  0  0  0  0
    9.2922   -1.0227    0.0000 C   0  0  0  0  0  0  0  0  0  0  0  0
    8.5730    0.2121    0.0000 C   0  0  0  0  0  0  0  0  0  0  0  0
    8.5793   -1.4379    0.0000 C   0  0  0  0  0  0  0  0  0  0  0  0
    7.8601   -0.2032    0.0000 C   0  0  0  0  0  0  0  0  0  0  0  0
    5.7214   -1.4490    0.0000 C   0  0  0  0  0  0  0  0  0  0  0  0
   12.1374    2.2883    0.0000 C   0  0  0  0  0  0  0  0  0  0  0  0
    4.2364   -1.4661    0.0000 C   0  0  0  0  0  0  0  0  0  0  0  0
    4.2364   -2.2911    0.0000 C   0  0  0  0  0  0  0  0  0  0  0  0
    5.7214   -2.3083    0.0000 C   0  0  0  0  0  0  0  0  0  0  0  0
    3.5220   -1.0536    0.0000 C   0  0  0  0  0  0  0  0  0  0  0  0
    2.8075   -2.2911    0.0000 C   0  0  0  0  0  0  0  0  0  0  0  0
  1 19  1  0  0  0  0
  2 17  2  0  0  0  0
  3 19  2  0  0  0  0
  4 27  1  0  0  0  0
  5 27  2  0  0  0  0
  6 31  2  0  0  0  0
  7 17  1  0  0  0  0
  8 20  1  0  0  0  0
  8 21  1  0  0  0  0
  9 26  1  0  0  0  0
  9 28  2  0  0  0  0
 10 29  1  0  0  0  0
 10 32  1  0  0  0  0
 11 29  2  0  0  0  0
 11 30  1  0  0  0  0
 12 31  1  0  0  0  0
 12 32  2  0  0  0  0
 13 32  1  0  0  0  0
 14  7  1  1  0  0  0
 14 15  1  0  0  0  0
 14 19  1  0  0  0  0
 15 16  1  0  0  0  0
 16 27  1  0  0  0  0
 17 18  1  0  0  0  0
 18 22  2  0  0  0  0
 18 23  1  0  0  0  0
 20 24  2  0  0  0  0
 20 25  1  0  0  0  0
 21 26  1  0  0  0  0
 22 24  1  0  0  0  0
 23 25  2  0  0  0  0
 26 30  2  0  0  0  0
 28 29  1  0  0  0  0
 28 31  1  0  0  0  0
M  END
>  <DRUGBANK_ID>
DB00158

>  <DRUG_GROUPS>
approved; nutraceutical

>  <GENERIC_NAME>
Folic Acid

>  <SYNONYMS>
Folate; Pteroyl-L-glutamic acid; Pteroyl-L-monoglutamic acid; Pteroylglutamic acid; Pteroylmonoglutamic acid; Vitamin B9; Vitamin Bc; Vitamin Be; Vitamin M

>  <BRANDS>
Acifolic; Apo-Folic; Cytofol; Dosfolat B activ; Folacid; Folacin; Folbal; Folcidin; Foldine; Folettes; Foliamin; Folicet; Folipac; Folsan; Folsaure; Folsav; Folvite; Folvron; Incafolic; Millafol

>  <CHEMICAL_FORMULA>
C19H19N7O6

>  <MOLECULAR_WEIGHT>
441.3975

>  <EXACT_MASS>
441.139681375

>  <IUPAC_NAME>
(2S)-2-[(4-{[(2-amino-4-oxo-1,4-dihydropteridin-6-yl)methyl]amino}phenyl)formamido]pentanedioic acid

>  <INCHI_IDENTIFIER>
InChI=1S/C19H19N7O6/c20-19-25-15-14(17(30)26-19)23-11(8-22-15)7-21-10-3-1-9(2-4-10)16(29)24-12(18(31)32)5-6-13(27)28/h1-4,8,12,21H,5-7H2,(H,24,29)(H,27,28)(H,31,32)(H3,20,22,25,26,30)/t12-/m0/s1

>  <INCHI_KEY>
InChIKey=OVBPIULPVIDEAO-LBPRGKRZSA-N

>  <SMILES>
NC1=NC(=O)C2=NC(CNC3=CC=C(C=C3)C(=O)N[C@@H](CCC(O)=O)C(O)=O)=CN=C2N1

>  <JCHEM_ACCEPTOR_COUNT>
12

>  <JCHEM_DONOR_COUNT>
6

>  <JCHEM_ACIDIC_PKA>
3.37

>  <JCHEM_BASIC_PKA>
2.09

>  <JCHEM_PHYSIOLOGICAL_CHARGE>
-2

>  <ALOGPS_LOGP>
-0.04

>  <JCHEM_LOGP>
-0.68

>  <ALOGPS_LOGS>
-3.8

>  <JCHEM_POLARIZABILITY>
42.06

>  <JCHEM_POLAR_SURFACE_AREA>
208.99

>  <JCHEM_REFRACTIVITY>
111.01

>  <JCHEM_ROTATABLE_BOND_COUNT>
9

>  <ALOGPS_SOLUBILITY>
7.61e-02 g/l __

$$$$
DB00159
 OpenBabel03171413522D

 22 21  0  0  0  0  0  0  0  0999 V2000
   12.8416  -10.9174    0.0000 C   0  0  0  0  0  0  0  0  0  0  0  0
   13.6781  -10.9174    0.0000 C   0  0  0  0  0  0  0  0  0  0  0  0
   12.0886  -11.3357    0.0000 C   0  0  0  0  0  0  0  0  0  0  0  0
   14.3892  -11.3357    0.0000 C   0  0  0  0  0  0  0  0  0  0  0  0
   11.3775  -10.9174    0.0000 C   0  0  0  0  0  0  0  0  0  0  0  0
   15.1003  -10.9174    0.0000 C   0  0  0  0  0  0  0  0  0  0  0  0
   10.5409  -10.9174    0.0000 C   0  0  0  0  0  0  0  0  0  0  0  0
   15.9369  -10.9174    0.0000 C   0  0  0  0  0  0  0  0  0  0  0  0
    9.8299  -11.3357    0.0000 C   0  0  0  0  0  0  0  0  0  0  0  0
   16.6898  -11.3357    0.0000 C   0  0  0  0  0  0  0  0  0  0  0  0
    9.0769  -10.9174    0.0000 C   0  0  0  0  0  0  0  0  0  0  0  0
   17.4009  -10.9174    0.0000 C   0  0  0  0  0  0  0  0  0  0  0  0
    8.3658  -11.3357    0.0000 C   0  0  0  0  0  0  0  0  0  0  0  0
   18.2375  -10.9174    0.0000 C   0  0  0  0  0  0  0  0  0  0  0  0
    7.6547  -10.9174    0.0000 C   0  0  0  0  0  0  0  0  0  0  0  0
   18.9486  -11.3357    0.0000 C   0  0  0  0  0  0  0  0  0  0  0  0
    6.9018  -11.3357    0.0000 O   0  0  0  0  0  0  0  0  0  0  0  0
    7.6547  -10.0808    0.0000 O   0  0  0  0  0  0  0  0  0  0  0  0
   19.7015  -10.9174    0.0000 C   0  0  0  0  0  0  0  0  0  0  0  0
   20.5381  -10.9174    0.0000 C   0  0  0  0  0  0  0  0  0  0  0  0
   21.2492  -11.3357    0.0000 C   0  0  0  0  0  0  0  0  0  0  0  0
   21.9603  -10.9174    0.0000 C   0  0  0  0  0  0  0  0  0  0  0  0
  1  2  2  0  0  0  0
  1  3  1  0  0  0  0
  2  4  1  0  0  0  0
  3  5  1  0  0  0  0
  4  6  1  0  0  0  0
  5  7  2  0  0  0  0
  6  8  2  0  0  0  0
  7  9  1  0  0  0  0
  8 10  1  0  0  0  0
  9 11  1  0  0  0  0
 10 12  1  0  0  0  0
 11 13  1  0  0  0  0
 12 14  2  0  0  0  0
 13 15  1  0  0  0  0
 14 16  1  0  0  0  0
 15 17  1  0  0  0  0
 15 18  2  0  0  0  0
 16 19  1  0  0  0  0
 19 20  2  0  0  0  0
 20 21  1  0  0  0  0
 21 22  1  0  0  0  0
M  END
>  <DRUGBANK_ID>
DB00159

>  <DRUG_GROUPS>
approved; nutraceutical

>  <GENERIC_NAME>
Icosapent

>  <SYNONYMS>
Eicosapentaenoic acid; EPA; Icosapentaenoic acid; Timnodonic acid

>  <CHEMICAL_FORMULA>
C20H30O2

>  <MOLECULAR_WEIGHT>
302.451

>  <EXACT_MASS>
302.224580204

>  <IUPAC_NAME>
(5Z,8Z,11Z,14Z,17Z)-icosa-5,8,11,14,17-pentaenoic acid

>  <INCHI_IDENTIFIER>
InChI=1/C20H30O2/c1-2-3-4-5-6-7-8-9-10-11-12-13-14-15-16-17-18-19-20(21)22/h3-4,6-7,9-10,12-13,15-16H,2,5,8,11,14,17-19H2,1H3,(H,21,22)/b4-3-,7-6-,10-9-,13-12-,16-15-

>  <INCHI_KEY>
InChIKey=JAZBEHYOTPTENJ-JLNKQSITNA-N

>  <SMILES>
CC\C=C/C\C=C/C\C=C/C\C=C/C\C=C/CCCC(O)=O

>  <JCHEM_ACCEPTOR_COUNT>
2

>  <JCHEM_DONOR_COUNT>
1

>  <JCHEM_ACIDIC_PKA>
4.82

>  <JCHEM_PHYSIOLOGICAL_CHARGE>
-1

>  <ALOGPS_LOGP>
6.53

>  <JCHEM_LOGP>
6.23

>  <ALOGPS_LOGS>
-6

>  <JCHEM_POLARIZABILITY>
35.93

>  <JCHEM_POLAR_SURFACE_AREA>
37.3

>  <JCHEM_REFRACTIVITY>
101.07

>  <JCHEM_ROTATABLE_BOND_COUNT>
13

>  <ALOGPS_SOLUBILITY>
2.89e-04 g/l __

$$$$
DB00160
 OpenBabel03171413522D

  6  5  0  0  1  0  0  0  0  0999 V2000
    4.2361   -0.2063    0.0000 O   0  0  0  0  0  0  0  0  0  0  0  0
    3.5217    1.0312    0.0000 O   0  0  0  0  0  0  0  0  0  0  0  0
    2.0928    0.2063    0.0000 N   0  0  0  0  0  0  0  0  0  0  0  0
    2.8072   -0.2063    0.0000 C   0  0  1  0  0  0  0  0  0  0  0  0
    2.8072   -1.0312    0.0000 C   0  0  0  0  0  0  0  0  0  0  0  0
    3.5217    0.2063    0.0000 C   0  0  0  0  0  0  0  0  0  0  0  0
  1  6  1  0  0  0  0
  2  6  2  0  0  0  0
  4  3  1  6  0  0  0
  4  5  1  0  0  0  0
  4  6  1  0  0  0  0
M  END
>  <DRUGBANK_ID>
DB00160

>  <DRUG_GROUPS>
approved; nutraceutical

>  <GENERIC_NAME>
L-Alanine

>  <SYNONYMS>
(2S)-2-Aminopropanoic acid; (S)-(+)-Alanine; (S)-2-Aminopropanoic acid; (S)-Alanine; 2-Aminopropanoic acid; 2-Aminopropionic acid; a-Alanine; a-Aminopropionic acid; ALA; Alanine; L-(+)-Alanine; L-2-Aminopropanoic acid; L-2-Aminopropionic acid; L-a-Alanine; L-a-Aminopropionic acid

>  <CHEMICAL_FORMULA>
C3H7NO2

>  <MOLECULAR_WEIGHT>
89.0932

>  <EXACT_MASS>
89.047678473

>  <IUPAC_NAME>
(2S)-2-aminopropanoic acid

>  <INCHI_IDENTIFIER>
InChI=1S/C3H7NO2/c1-2(4)3(5)6/h2H,4H2,1H3,(H,5,6)/t2-/m0/s1

>  <INCHI_KEY>
InChIKey=QNAYBMKLOCPYGJ-REOHCLBHSA-N

>  <SMILES>
C[C@H](N)C(O)=O

>  <JCHEM_ACCEPTOR_COUNT>
3

>  <JCHEM_DONOR_COUNT>
2

>  <JCHEM_ACIDIC_PKA>
2.47

>  <JCHEM_BASIC_PKA>
9.48

>  <JCHEM_PHYSIOLOGICAL_CHARGE>
0

>  <ALOGPS_LOGP>
-3

>  <JCHEM_LOGP>
-2.8

>  <ALOGPS_LOGS>
0.7

>  <JCHEM_POLARIZABILITY>
8.52

>  <JCHEM_POLAR_SURFACE_AREA>
63.32

>  <JCHEM_REFRACTIVITY>
20.5

>  <JCHEM_ROTATABLE_BOND_COUNT>
1

>  <ALOGPS_SOLUBILITY>
4.47e+02 g/l __

$$$$
DB00161
 OpenBabel03171413522D

  8  7  0  0  1  0  0  0  0  0999 V2000
   14.6656  -11.2582    0.0000 C   0  0  1  0  0  0  0  0  0  0  0  0
   15.3836  -10.8475    0.0000 C   0  0  0  0  0  0  0  0  0  0  0  0
   13.9476  -10.8372    0.0000 C   0  0  0  0  0  0  0  0  0  0  0  0
   14.6622  -12.0867    0.0000 N   0  0  0  0  0  0  0  0  0  0  0  0
   16.0948  -11.2651    0.0000 C   0  0  0  0  0  0  0  0  0  0  0  0
   15.3871  -10.0225    0.0000 C   0  0  0  0  0  0  0  0  0  0  0  0
   13.2330  -11.2479    0.0000 O   0  0  0  0  0  0  0  0  0  0  0  0
   13.9510  -10.0155    0.0000 O   0  0  0  0  0  0  0  0  0  0  0  0
  1  2  1  6  0  0  0
  1  3  1  0  0  0  0
  1  4  1  0  0  0  0
  2  5  1  0  0  0  0
  2  6  1  0  0  0  0
  3  7  1  0  0  0  0
  3  8  2  0  0  0  0
M  END
>  <DRUGBANK_ID>
DB00161

>  <DRUG_GROUPS>
approved; nutraceutical

>  <GENERIC_NAME>
L-Valine

>  <SYNONYMS>
(2S)-2-Amino-3-methylbutanoic acid; (S)-2-Amino-3-methylbutanoic acid; (S)-2-Amino-3-methylbutyric acid; (S)-a-Amino-b-methylbutyric acid; (S)-Valine; 2-Amino-3-methylbutanoic acid; 2-Amino-3-methylbutyric acid; L-(+)-a-Aminoisovaleric acid; L-a-Amino-b-methylbutyric acid; Valine

>  <CHEMICAL_FORMULA>
C5H11NO2

>  <MOLECULAR_WEIGHT>
117.1463

>  <EXACT_MASS>
117.078978601

>  <IUPAC_NAME>
(2S)-2-amino-3-methylbutanoic acid

>  <INCHI_IDENTIFIER>
InChI=1S/C5H11NO2/c1-3(2)4(6)5(7)8/h3-4H,6H2,1-2H3,(H,7,8)/t4-/m0/s1

>  <INCHI_KEY>
InChIKey=KZSNJWFQEVHDMF-BYPYZUCNSA-N

>  <SMILES>
CC(C)[C@H](N)C(O)=O

>  <JCHEM_ACCEPTOR_COUNT>
3

>  <JCHEM_DONOR_COUNT>
2

>  <JCHEM_ACIDIC_PKA>
2.72

>  <JCHEM_BASIC_PKA>
9.6

>  <JCHEM_PHYSIOLOGICAL_CHARGE>
0

>  <ALOGPS_LOGP>
-2.3

>  <JCHEM_LOGP>
-2

>  <ALOGPS_LOGS>
0.26

>  <JCHEM_POLARIZABILITY>
12.19

>  <JCHEM_POLAR_SURFACE_AREA>
63.32

>  <JCHEM_REFRACTIVITY>
29.49

>  <JCHEM_ROTATABLE_BOND_COUNT>
2

>  <ALOGPS_SOLUBILITY>
2.14e+02 g/l __

$$$$
DB00162
 OpenBabel03171413522D

 21 21  0  0  0  0  0  0  0  0999 V2000
    2.0930    0.0000    0.0000 O   0  0  0  0  0  0  0  0  0  0  0  0
    9.9524    0.4125    0.0000 C   0  0  0  0  0  0  0  0  0  0  0  0
   10.6668    0.0000    0.0000 C   0  0  0  0  0  0  0  0  0  0  0  0
   10.6668   -0.8250    0.0000 C   0  0  0  0  0  0  0  0  0  0  0  0
    9.2379    0.0000    0.0000 C   0  0  0  0  0  0  0  0  0  0  0  0
    9.9524   -1.2375    0.0000 C   0  0  0  0  0  0  0  0  0  0  0  0
    9.2379   -0.8250    0.0000 C   0  0  0  0  0  0  0  0  0  0  0  0
   10.3649    1.1270    0.0000 C   0  0  0  0  0  0  0  0  0  0  0  0
    9.5398    1.1270    0.0000 C   0  0  0  0  0  0  0  0  0  0  0  0
    8.5234    0.4125    0.0000 C   0  0  0  0  0  0  0  0  0  0  0  0
    8.5234   -1.2375    0.0000 C   0  0  0  0  0  0  0  0  0  0  0  0
    7.8089    0.0000    0.0000 C   0  0  0  0  0  0  0  0  0  0  0  0
    7.0944    0.4125    0.0000 C   0  0  0  0  0  0  0  0  0  0  0  0
    7.0944    1.2375    0.0000 C   0  0  0  0  0  0  0  0  0  0  0  0
    6.3799    0.0000    0.0000 C   0  0  0  0  0  0  0  0  0  0  0  0
    5.6655    0.4125    0.0000 C   0  0  0  0  0  0  0  0  0  0  0  0
    4.9509    0.0000    0.0000 C   0  0  0  0  0  0  0  0  0  0  0  0
    4.2365    0.4125    0.0000 C   0  0  0  0  0  0  0  0  0  0  0  0
    4.2365    1.2375    0.0000 C   0  0  0  0  0  0  0  0  0  0  0  0
    3.5220    0.0000    0.0000 C   0  0  0  0  0  0  0  0  0  0  0  0
    2.8075    0.4125    0.0000 C   0  0  0  0  0  0  0  0  0  0  0  0
  1 21  1  0  0  0  0
  2  3  1  0  0  0  0
  2  5  1  0  0  0  0
  2  8  1  0  0  0  0
  2  9  1  0  0  0  0
  3  4  1  0  0  0  0
  4  6  1  0  0  0  0
  5  7  2  0  0  0  0
  5 10  1  0  0  0  0
  6  7  1  0  0  0  0
  7 11  1  0  0  0  0
 10 12  2  3  0  0  0
 12 13  1  0  0  0  0
 13 14  1  0  0  0  0
 13 15  2  3  0  0  0
 15 16  1  0  0  0  0
 16 17  2  3  0  0  0
 17 18  1  0  0  0  0
 18 19  1  0  0  0  0
 18 20  2  3  0  0  0
 20 21  1  0  0  0  0
M  END
>  <DRUGBANK_ID>
DB00162

>  <DRUG_GROUPS>
approved; nutraceutical

>  <GENERIC_NAME>
Vitamin A

>  <SYNONYMS>
[11,12-3H]-Retinol; all-trans-retinol; All-trans-Retinyl alcohol; all-trans-Vitamin A; All-trans-Vitamin A alcohol; all-trans-Vitamin A1; beta-Retinol; Retin-11,12-t2-ol (9CI); Retinol; trans-Retinol; trans-Vitamin A alcohol; Vitamin A (Feed); Vitamin A alcohol; Vitamin A cryst; Vitamin A Palmitate; Vitamin A Solubilized; Vitamin A1; Vitamin A1 alcohol

>  <BRANDS>
A-Mulsal; A-Sol; A-Vi-Pel; A-Vitan; Acon; Afaxin; Agiolan; Agoncal; Alcovit A; alin; Alphalin; Alphasterol; Anatola; Anatola A; Anti-Infective vitamin; Antixerophthalmic vitamin; Aoral; Apexol; Apostavit; Aquasol A Parenteral; Aquasynth; asterol; Atars; Atav; Avibon; Avita; Avitol; Axerol; Axerophthol; Bentavit A; Biosterol; Chocola A; Cylasphere; Del-VI-A; Disatabs Tabs; Dofsol; Dohyfral A; Epiteliol; Hi-A-Vita; Homagenets Aoral; Homagenets aorl; Lard Factor; Mvc Plus; Myvpack; Nio-A-Let; Oleovitamin A; Ophthalamin; Plivit A; Prepalin; Retrovitamin A; Ro-a-vit; Sehkraft A; Solu-A; Super A; Testavol; Testavol S; Thalasphere; tROL; Vaflol; Vafol; Veroftal; Vi-a; Vi-Alpha; Vi-Dom-A; Vio-A; Vitavel A; Vitpex; Vogan; Vogan-Neu; Vogan-nu; Zineb; Zinosan N

>  <CHEMICAL_FORMULA>
C20H30O

>  <MOLECULAR_WEIGHT>
286.4516

>  <EXACT_MASS>
286.229665582

>  <IUPAC_NAME>
3,7-dimethyl-9-(2,6,6-trimethylcyclohex-1-en-1-yl)nona-2,4,6,8-tetraen-1-ol

>  <INCHI_IDENTIFIER>
InChI=1S/C20H30O/c1-16(8-6-9-17(2)13-15-21)11-12-19-18(3)10-7-14-20(19,4)5/h6,8-9,11-13,21H,7,10,14-15H2,1-5H3/b9-6+,12-11+,16-8+,17-13+

>  <INCHI_KEY>
InChIKey=FPIPGXGPPPQFEQ-OVSJKPMPSA-N

>  <SMILES>
CC(=CCO)C=CC=C(C)C=CC1=C(C)CCCC1(C)C

>  <JCHEM_ACCEPTOR_COUNT>
1

>  <JCHEM_DONOR_COUNT>
1

>  <JCHEM_ACIDIC_PKA>
16.44

>  <JCHEM_BASIC_PKA>
-2.2

>  <JCHEM_PHYSIOLOGICAL_CHARGE>
0

>  <ALOGPS_LOGP>
6.38

>  <JCHEM_LOGP>
4.69

>  <ALOGPS_LOGS>
-4.6

>  <JCHEM_POLARIZABILITY>
36.54

>  <JCHEM_POLAR_SURFACE_AREA>
20.23

>  <JCHEM_REFRACTIVITY>
97.92

>  <JCHEM_ROTATABLE_BOND_COUNT>
5

>  <ALOGPS_SOLUBILITY>
7.58e-03 g/l __

$$$$
DB00163
 OpenBabel03171413522D

 31 32  0  0  1  0  0  0  0  0999 V2000
    4.9740   -2.3009    0.0000 O   0  0  0  0  0  0  0  0  0  0  0  0
    2.0930   -0.6223    0.0000 O   0  0  0  0  0  0  0  0  0  0  0  0
    5.7215   -1.8770    0.0000 C   0  0  2  0  0  0  0  0  0  0  0  0
    6.5465   -1.8801    0.0000 C   0  0  0  0  0  0  0  0  0  0  0  0
    5.7215   -1.0177    0.0000 C   0  0  0  0  0  0  0  0  0  0  0  0
    6.9617   -1.1673    0.0000 C   0  0  0  0  0  0  0  0  0  0  0  0
    8.2021   -0.4576    0.0000 C   0  0  1  0  0  0  0  0  0  0  0  0
    7.7867   -1.1705    0.0000 C   0  0  0  0  0  0  0  0  0  0  0  0
    4.9740   -0.5937    0.0000 C   0  0  0  0  0  0  0  0  0  0  0  0
    9.0271   -0.4608    0.0000 C   0  0  0  0  0  0  0  0  0  0  0  0
    6.1313   -2.5930    0.0000 C   0  0  0  0  0  0  0  0  0  0  0  0
    4.2365   -1.0348    0.0000 C   0  0  0  0  0  0  0  0  0  0  0  0
    9.4423    0.2521    0.0000 C   0  0  0  0  0  0  0  0  0  0  0  0
    4.2365   -1.8598    0.0000 C   0  0  0  0  0  0  0  0  0  0  0  0
   10.2673    0.2490    0.0000 C   0  0  0  0  0  0  0  0  0  0  0  0
   10.6826    0.9619    0.0000 C   0  0  1  0  0  0  0  0  0  0  0  0
    7.7923    0.2585    0.0000 C   0  0  0  0  0  0  0  0  0  0  0  0
   11.5076    0.9587    0.0000 C   0  0  0  0  0  0  0  0  0  0  0  0
    3.5220   -0.6223    0.0000 C   0  0  0  0  0  0  0  0  0  0  0  0
    3.5220   -2.2723    0.0000 C   0  0  0  0  0  0  0  0  0  0  0  0
   11.9229    1.6716    0.0000 C   0  0  0  0  0  0  0  0  0  0  0  0
    2.8075   -1.8598    0.0000 C   0  0  0  0  0  0  0  0  0  0  0  0
   10.2729    1.6779    0.0000 C   0  0  0  0  0  0  0  0  0  0  0  0
    2.8075   -1.0348    0.0000 C   0  0  0  0  0  0  0  0  0  0  0  0
   12.7478    1.6683    0.0000 C   0  0  0  0  0  0  0  0  0  0  0  0
   13.1631    2.3812    0.0000 C   0  0  0  0  0  0  0  0  0  0  0  0
    3.5220    0.2027    0.0000 C   0  0  0  0  0  0  0  0  0  0  0  0
    3.5220   -3.0974    0.0000 C   0  0  0  0  0  0  0  0  0  0  0  0
    2.0930   -2.2723    0.0000 C   0  0  0  0  0  0  0  0  0  0  0  0
   12.7533    3.0974    0.0000 C   0  0  0  0  0  0  0  0  0  0  0  0
   13.9881    2.3781    0.0000 C   0  0  0  0  0  0  0  0  0  0  0  0
  1  3  1  0  0  0  0
  1 14  1  0  0  0  0
  2 24  1  0  0  0  0
  3  4  1  1  0  0  0
  3  5  1  0  0  0  0
  3 11  1  0  0  0  0
  4  6  1  0  0  0  0
  5  9  1  0  0  0  0
  6  8  1  0  0  0  0
  7  8  1  6  0  0  0
  7 10  1  0  0  0  0
  7 17  1  0  0  0  0
  9 12  1  0  0  0  0
 10 13  1  0  0  0  0
 12 14  2  0  0  0  0
 12 19  1  0  0  0  0
 13 15  1  0  0  0  0
 14 20  1  0  0  0  0
 16 15  1  6  0  0  0
 16 18  1  0  0  0  0
 16 23  1  0  0  0  0
 18 21  1  0  0  0  0
 19 24  2  0  0  0  0
 19 27  1  0  0  0  0
 20 22  2  0  0  0  0
 20 28  1  0  0  0  0
 21 25  1  0  0  0  0
 22 24  1  0  0  0  0
 22 29  1  0  0  0  0
 25 26  1  0  0  0  0
 26 30  1  0  0  0  0
 26 31  1  0  0  0  0
M  END
>  <DRUGBANK_ID>
DB00163

>  <DRUG_GROUPS>
approved; nutraceutical

>  <GENERIC_NAME>
Vitamin E

>  <SYNONYMS>
alpha-Tocopherol; Tocopherol

>  <BRANDS>
Amino-Opti-E; Aquasol E; Daltose; E-200 I.U. Softgels; E-Complex-600; E-Ferol; E-Vitamin succinate; Gordo-Vite E; Vitamin Plus E Softgells; Vitec

>  <CHEMICAL_FORMULA>
C29H50O2

>  <MOLECULAR_WEIGHT>
430.7061

>  <EXACT_MASS>
430.381080844

>  <IUPAC_NAME>
(2R)-2,5,7,8-tetramethyl-2-[(4R,8R)-4,8,12-trimethyltridecyl]-3,4-dihydro-2H-1-benzopyran-6-ol

>  <INCHI_IDENTIFIER>
InChI=1S/C29H50O2/c1-20(2)12-9-13-21(3)14-10-15-22(4)16-11-18-29(8)19-17-26-25(7)27(30)23(5)24(6)28(26)31-29/h20-22,30H,9-19H2,1-8H3/t21-,22-,29-/m1/s1

>  <INCHI_KEY>
InChIKey=GVJHHUAWPYXKBD-IEOSBIPESA-N

>  <SMILES>
CC(C)CCC[C@@H](C)CCC[C@@H](C)CCC[C@]1(C)CCC2=C(O1)C(C)=C(C)C(O)=C2C

>  <JCHEM_ACCEPTOR_COUNT>
2

>  <JCHEM_DONOR_COUNT>
1

>  <JCHEM_ACIDIC_PKA>
10.8

>  <JCHEM_BASIC_PKA>
-4.9

>  <JCHEM_PHYSIOLOGICAL_CHARGE>
0

>  <ALOGPS_LOGP>
8.84

>  <JCHEM_LOGP>
10.51

>  <ALOGPS_LOGS>
-7.8

>  <JCHEM_POLARIZABILITY>
55.29

>  <JCHEM_POLAR_SURFACE_AREA>
29.46

>  <JCHEM_REFRACTIVITY>
135.37

>  <JCHEM_ROTATABLE_BOND_COUNT>
12

>  <ALOGPS_SOLUBILITY>
7.04e-06 g/l __

$$$$
DB00165
 OpenBabel03171413522D

 12 12  0  0  0  0  0  0  0  0999 V2000
    2.5098   -1.5964    0.0000 O   0  0  0  0  0  0  0  0  0  0  0  0
    2.5098    0.8787    0.0000 O   0  0  0  0  0  0  0  0  0  0  0  0
    4.6533    1.2912    0.0000 O   0  0  0  0  0  0  0  0  0  0  0  0
    4.6532   -1.1839    0.0000 N   0  0  0  0  0  0  0  0  0  0  0  0
    3.2243   -0.3589    0.0000 C   0  0  0  0  0  0  0  0  0  0  0  0
    3.9388    0.0537    0.0000 C   0  0  0  0  0  0  0  0  0  0  0  0
    3.2243   -1.1839    0.0000 C   0  0  0  0  0  0  0  0  0  0  0  0
    3.9388   -1.5964    0.0000 C   0  0  0  0  0  0  0  0  0  0  0  0
    2.5098    0.0536    0.0000 C   0  0  0  0  0  0  0  0  0  0  0  0
    3.9388    0.8786    0.0000 C   0  0  0  0  0  0  0  0  0  0  0  0
    4.6533   -0.3588    0.0000 C   0  0  0  0  0  0  0  0  0  0  0  0
    3.9387   -2.4214    0.0000 C   0  0  0  0  0  0  0  0  0  0  0  0
  1  7  1  0  0  0  0
  2  9  1  0  0  0  0
  3 10  1  0  0  0  0
  4  8  2  0  0  0  0
  4 11  1  0  0  0  0
  5  6  1  0  0  0  0
  5  7  2  0  0  0  0
  5  9  1  0  0  0  0
  6 10  1  0  0  0  0
  6 11  2  0  0  0  0
  7  8  1  0  0  0  0
  8 12  1  0  0  0  0
M  END
>  <DRUGBANK_ID>
DB00165

>  <DRUG_GROUPS>
approved; nutraceutical

>  <GENERIC_NAME>
Pyridoxine

>  <SYNONYMS>
Pyridoxol; Vitamin B6

>  <SALTS>
pyridoxine hydrochloride

>  <BRANDS>
Aderoxine; Alestrol; Becilan; Beesix; Benadon; Bonasanit; Campoviton 6; Gravidox; Hexa-Betalin; Hexavibex; Hexermin; Hexermine; Hexobion; Hydoxin; Nestrex; Pydox; Pyridipca; Pyridox; Rodex TD; Tex Six T.R.

>  <CHEMICAL_FORMULA>
C8H11NO3

>  <MOLECULAR_WEIGHT>
169.1778

>  <EXACT_MASS>
169.073893223

>  <IUPAC_NAME>
4,5-bis(hydroxymethyl)-2-methylpyridin-3-ol

>  <INCHI_IDENTIFIER>
InChI=1S/C8H11NO3/c1-5-8(12)7(4-11)6(3-10)2-9-5/h2,10-12H,3-4H2,1H3

>  <INCHI_KEY>
InChIKey=LXNHXLLTXMVWPM-UHFFFAOYSA-N

>  <SMILES>
CC1=NC=C(CO)C(CO)=C1O

>  <JCHEM_ACCEPTOR_COUNT>
4

>  <JCHEM_DONOR_COUNT>
3

>  <JCHEM_ACIDIC_PKA>
9.4

>  <JCHEM_BASIC_PKA>
5.58

>  <JCHEM_PHYSIOLOGICAL_CHARGE>
0

>  <ALOGPS_LOGP>
-0.57

>  <JCHEM_LOGP>
-0.95

>  <ALOGPS_LOGS>
-1

>  <JCHEM_POLARIZABILITY>
17.12

>  <JCHEM_POLAR_SURFACE_AREA>
73.58

>  <JCHEM_REFRACTIVITY>
44.11

>  <JCHEM_ROTATABLE_BOND_COUNT>
2

>  <ALOGPS_SOLUBILITY>
1.61e+01 g/l __

$$$$
DB00166
 OpenBabel03171413522D

 12 12  0  0  0  0  0  0  0  0999 V2000
   -0.0308    0.7026    0.0000 C   0  0  0  0  0  0  0  0  0  0  0  0
    0.3817   -0.5669    0.0000 S   0  0  0  0  0  0  0  0  0  0  0  0
   -0.6982    0.2177    0.0000 C   0  0  0  0  0  0  0  0  0  0  0  0
   -0.4433   -0.5669    0.0000 S   0  0  0  0  0  0  0  0  0  0  0  0
    0.6366    0.2177    0.0000 C   0  0  3  0  0  0  0  0  0  0  0  0
    1.3511    0.6302    0.0000 C   0  0  0  0  0  0  0  0  0  0  0  0
    2.0656    0.2177    0.0000 C   0  0  0  0  0  0  0  0  0  0  0  0
    2.7801    0.6302    0.0000 C   0  0  0  0  0  0  0  0  0  0  0  0
    3.4945    0.2177    0.0000 C   0  0  0  0  0  0  0  0  0  0  0  0
    4.2090    0.6302    0.0000 C   0  0  0  0  0  0  0  0  0  0  0  0
    4.2090    1.4552    0.0000 O   0  0  0  0  0  0  0  0  0  0  0  0
    4.9235    0.2177    0.0000 O   0  0  0  0  0  0  0  0  0  0  0  0
  1  3  1  0  0  0  0
  2  4  1  0  0  0  0
  3  4  1  0  0  0  0
  5  1  1  0  0  0  0
  5  2  1  0  0  0  0
  5  6  1  0  0  0  0
  6  7  1  0  0  0  0
  7  8  1  0  0  0  0
  8  9  1  0  0  0  0
  9 10  1  0  0  0  0
 10 12  1  0  0  0  0
 10 11  2  0  0  0  0
M  END
>  <DRUGBANK_ID>
DB00166

>  <DRUG_GROUPS>
approved; nutraceutical

>  <GENERIC_NAME>
Lipoic Acid

>  <SYNONYMS>
1,2-Dithiolane-3R-pentanoic acid; alpha-Lipoic acid; Lipoate; Thioctic acid

>  <BRANDS>
Biletan; Heparlipon; Thioctsan

>  <CHEMICAL_FORMULA>
C8H14O2S2

>  <MOLECULAR_WEIGHT>
206.326

>  <EXACT_MASS>
206.043521072

>  <IUPAC_NAME>
5-(1,2-dithiolan-3-yl)pentanoic acid

>  <INCHI_IDENTIFIER>
InChI=1S/C8H14O2S2/c9-8(10)4-2-1-3-7-5-6-11-12-7/h7H,1-6H2,(H,9,10)

>  <INCHI_KEY>
InChIKey=AGBQKNBQESQNJD-UHFFFAOYSA-N

>  <SMILES>
OC(=O)CCCCC1CCSS1

>  <JCHEM_ACCEPTOR_COUNT>
2

>  <JCHEM_DONOR_COUNT>
1

>  <JCHEM_ACIDIC_PKA>
4.52

>  <JCHEM_PHYSIOLOGICAL_CHARGE>
-1

>  <ALOGPS_LOGP>
2.75

>  <JCHEM_LOGP>
2.11

>  <ALOGPS_LOGS>
-3

>  <JCHEM_POLARIZABILITY>
22

>  <JCHEM_POLAR_SURFACE_AREA>
37.3

>  <JCHEM_REFRACTIVITY>
54.37

>  <JCHEM_ROTATABLE_BOND_COUNT>
5

>  <ALOGPS_SOLUBILITY>
2.24e-01 g/l __

$$$$
DB00167
 OpenBabel03171413522D

  9  8  0  0  1  0  0  0  0  0999 V2000
    5.2224   -0.0784    0.0000 O   0  0  0  0  0  0  0  0  0  0  0  0
    4.5080    1.1592    0.0000 O   0  0  0  0  0  0  0  0  0  0  0  0
    3.7935   -0.9034    0.0000 N   0  0  0  0  0  0  0  0  0  0  0  0
    3.0791    0.3341    0.0000 C   0  0  2  0  0  0  0  0  0  0  0  0
    3.7935   -0.0784    0.0000 C   0  0  1  0  0  0  0  0  0  0  0  0
    2.3645   -0.0784    0.0000 C   0  0  0  0  0  0  0  0  0  0  0  0
    3.0791    1.1592    0.0000 C   0  0  0  0  0  0  0  0  0  0  0  0
    1.6500    0.3341    0.0000 C   0  0  0  0  0  0  0  0  0  0  0  0
    4.5080    0.3341    0.0000 C   0  0  0  0  0  0  0  0  0  0  0  0
  1  9  1  0  0  0  0
  2  9  2  0  0  0  0
  4  5  1  0  0  0  0
  4  6  1  6  0  0  0
  4  7  1  0  0  0  0
  5  3  1  1  0  0  0
  5  9  1  0  0  0  0
  6  8  1  0  0  0  0
M  END
>  <DRUGBANK_ID>
DB00167

>  <DRUG_GROUPS>
approved; nutraceutical

>  <GENERIC_NAME>
L-Isoleucine

>  <SYNONYMS>
(2S,3S)-2-Amino-3-methylpentanoic acid; (2S,3S)-a-Amino-b-methyl-n-valeric acid; (2S,3S)-a-Amino-b-methylvaleric acid; (S,S)-Isoleucine; (S)-Isoleucine; 2-Amino-3-methylvaleric acid; 2S,3S-Isoleucine; erythro-L-Isoleucine; Isoleucine; L-(+)-Isoleucine; L-Ile

>  <CHEMICAL_FORMULA>
C6H13NO2

>  <MOLECULAR_WEIGHT>
131.1729

>  <EXACT_MASS>
131.094628665

>  <IUPAC_NAME>
(2S,3S)-2-amino-3-methylpentanoic acid

>  <INCHI_IDENTIFIER>
InChI=1S/C6H13NO2/c1-3-4(2)5(7)6(8)9/h4-5H,3,7H2,1-2H3,(H,8,9)/t4-,5-/m0/s1

>  <INCHI_KEY>
InChIKey=AGPKZVBTJJNPAG-WHFBIAKZSA-N

>  <SMILES>
CC[C@H](C)[C@H](N)C(O)=O

>  <JCHEM_ACCEPTOR_COUNT>
3

>  <JCHEM_DONOR_COUNT>
2

>  <JCHEM_ACIDIC_PKA>
2.79

>  <JCHEM_BASIC_PKA>
9.59

>  <JCHEM_PHYSIOLOGICAL_CHARGE>
0

>  <ALOGPS_LOGP>
-1.7

>  <JCHEM_LOGP>
-1.5

>  <ALOGPS_LOGS>
-0.06

>  <JCHEM_POLARIZABILITY>
14.11

>  <JCHEM_POLAR_SURFACE_AREA>
63.32

>  <JCHEM_REFRACTIVITY>
34.09

>  <JCHEM_ROTATABLE_BOND_COUNT>
3

>  <ALOGPS_SOLUBILITY>
1.14e+02 g/l __

$$$$
DB00168
 OpenBabel03171413522D

 21 21  0  0  0  0  0  0  0  0999 V2000
   -4.5964   -0.8839    0.0000 C   0  0  0  0  0  0  0  0  0  0  0  0
   -3.8820   -0.4714    0.0000 C   0  0  0  0  0  0  0  0  0  0  0  0
   -3.1675   -0.8839    0.0000 C   0  0  1  0  0  0  0  0  0  0  0  0
   -2.4530   -0.4714    0.0000 C   0  0  0  0  0  0  0  0  0  0  0  0
   -1.7385   -0.8839    0.0000 N   0  0  0  0  0  0  0  0  0  0  0  0
   -1.0241   -0.4714    0.0000 C   0  0  1  0  0  0  0  0  0  0  0  0
   -0.3096   -0.8839    0.0000 C   0  0  0  0  0  0  0  0  0  0  0  0
    0.4049   -0.4714    0.0000 C   0  0  0  0  0  0  0  0  0  0  0  0
    1.1193    0.7661    0.0000 C   0  0  0  0  0  0  0  0  0  0  0  0
    0.4049    0.3536    0.0000 C   0  0  0  0  0  0  0  0  0  0  0  0
    1.1193   -0.8839    0.0000 C   0  0  0  0  0  0  0  0  0  0  0  0
    1.8338   -0.4714    0.0000 C   0  0  0  0  0  0  0  0  0  0  0  0
    1.8338    0.3536    0.0000 C   0  0  0  0  0  0  0  0  0  0  0  0
   -4.5964   -1.7089    0.0000 O   0  0  0  0  0  0  0  0  0  0  0  0
   -5.3109   -0.4714    0.0000 O   0  0  0  0  0  0  0  0  0  0  0  0
   -3.1675   -1.7089    0.0000 N   0  0  0  0  0  0  0  0  0  0  0  0
   -2.4530    0.3536    0.0000 O   0  0  0  0  0  0  0  0  0  0  0  0
   -1.0241    0.3536    0.0000 C   0  0  0  0  0  0  0  0  0  0  0  0
   -1.7385    0.7661    0.0000 O   0  0  0  0  0  0  0  0  0  0  0  0
   -0.3096    0.7661    0.0000 O   0  0  0  0  0  0  0  0  0  0  0  0
   -0.3096    1.5911    0.0000 C   0  0  0  0  0  0  0  0  0  0  0  0
  1  2  1  0  0  0  0
  1 14  2  0  0  0  0
  1 15  1  0  0  0  0
  3  2  1  1  0  0  0
  3  4  1  0  0  0  0
  3 16  1  0  0  0  0
  4  5  1  0  0  0  0
  4 17  2  0  0  0  0
  6  5  1  6  0  0  0
  6  7  1  0  0  0  0
  6 18  1  0  0  0  0
  7  8  1  0  0  0  0
  8 11  1  0  0  0  0
  9 10  1  0  0  0  0
  9 13  2  0  0  0  0
 10  8  2  0  0  0  0
 11 12  2  0  0  0  0
 12 13  1  0  0  0  0
 18 19  2  0  0  0  0
 18 20  1  0  0  0  0
 20 21  1  0  0  0  0
M  END
>  <DRUGBANK_ID>
DB00168

>  <DRUG_GROUPS>
approved; nutraceutical

>  <GENERIC_NAME>
Aspartame

>  <SYNONYMS>
1-Methyl N-L-alpha-aspartyl-L-phenylalanate; 1-Methyl N-L-alpha-aspartyl-L-phenylalanine; 3-Amino-N-(alpha-carboxyphenethyl)succinamic acid N-methyl ester; 3-Amino-N-(alpha-carboxyphenethyl)succinamic acid N-methyl ester, stereoisomer; 3-Amino-N-(alpha-methoxycarbonylphenethyl) succinamic acid; Asp-phe-ome; Aspartam [INN-French]; Aspartame [USAN:BAN:INN]; Aspartamo [INN-Spanish]; Aspartamum [INN-Latin]; Aspartylphenylalanine methyl ester; L-Aspartyl-L-phenylalanine methyl ester; Methyl aspartylphenylalanate; Methyl L-alpha-aspartyl-L-phenylalanate; Methyl L-aspartyl-L-phenylalanine; Methyl N-L-alpha-aspartyl-L-phenylalaninate; N-L-alpha-Aspartyl-L-phenylalanine 1-methyl ester

>  <BRANDS>
Aminosweet; Canderel; Equal; Nutrasweet; Tri-sweet

>  <CHEMICAL_FORMULA>
C14H18N2O5

>  <MOLECULAR_WEIGHT>
294.3031

>  <EXACT_MASS>
294.121571696

>  <IUPAC_NAME>
(3S)-3-amino-3-{[(2S)-1-methoxy-1-oxo-3-phenylpropan-2-yl]carbamoyl}propanoic acid

>  <INCHI_IDENTIFIER>
InChI=1S/C14H18N2O5/c1-21-14(20)11(7-9-5-3-2-4-6-9)16-13(19)10(15)8-12(17)18/h2-6,10-11H,7-8,15H2,1H3,(H,16,19)(H,17,18)/t10-,11-/m0/s1

>  <INCHI_KEY>
InChIKey=IAOZJIPTCAWIRG-QWRGUYRKSA-N

>  <SMILES>
COC(=O)[C@H](CC1=CC=CC=C1)NC(=O)[C@@H](N)CC(O)=O

>  <JCHEM_ACCEPTOR_COUNT>
5

>  <JCHEM_DONOR_COUNT>
3

>  <JCHEM_ACIDIC_PKA>
3.53

>  <JCHEM_BASIC_PKA>
8.53

>  <JCHEM_PHYSIOLOGICAL_CHARGE>
0

>  <ALOGPS_LOGP>
-1.2

>  <JCHEM_LOGP>
-2.2

>  <ALOGPS_LOGS>
-2.6

>  <JCHEM_POLARIZABILITY>
29.58

>  <JCHEM_POLAR_SURFACE_AREA>
118.72

>  <JCHEM_REFRACTIVITY>
73.22

>  <JCHEM_ROTATABLE_BOND_COUNT>
8

>  <ALOGPS_SOLUBILITY>
6.52e-01 g/l __

$$$$
DB00169
 OpenBabel03171413522D

 30 32  0  0  1  0  0  0  0  0999 V2000
   -1.0890    1.2765    0.0000 C   0  0  0  0  0  0  0  0  0  0  0  0
   -1.0890   -0.3735    0.0000 C   0  0  0  0  0  0  0  0  0  0  0  0
    0.4101   -0.2159    0.0000 C   0  0  0  0  0  0  0  0  0  0  0  0
    0.8950    0.4515    0.0000 C   0  0  0  0  0  0  0  0  0  0  0  0
   -1.8035    0.8640    0.0000 C   0  0  0  0  0  0  0  0  0  0  0  0
   -1.0890   -1.1985    0.0000 C   0  0  0  0  0  0  0  0  0  0  0  0
   -1.8035    0.0390    0.0000 C   0  0  0  0  0  0  0  0  0  0  0  0
   -1.8035   -1.6110    0.0000 C   0  0  0  0  0  0  0  0  0  0  0  0
   -1.8035   -2.4360    0.0000 C   0  0  0  0  0  0  0  0  0  0  0  0
   -1.0890   -2.8485    0.0000 C   0  0  0  0  0  0  0  0  0  0  0  0
   -2.5179   -2.8485    0.0000 C   0  0  0  0  0  0  0  0  0  0  0  0
   -1.0890   -3.6735    0.0000 C   0  0  0  0  0  0  0  0  0  0  0  0
   -0.3745   -2.4360    0.0000 C   0  0  0  0  0  0  0  0  0  0  0  0
   -2.5179   -3.6735    0.0000 C   0  0  2  0  0  0  0  0  0  0  0  0
   -1.8035   -4.0860    0.0000 C   0  0  0  0  0  0  0  0  0  0  0  0
   -3.2324   -4.0860    0.0000 O   0  0  0  0  0  0  0  0  0  0  0  0
   -0.3044    2.3565    0.0000 C   0  0  0  0  0  0  0  0  0  0  0  0
    0.4101    1.9440    0.0000 C   0  0  2  0  0  0  0  0  0  0  0  0
    1.1246    2.3565    0.0000 C   0  0  0  0  0  0  0  0  0  0  0  0
    1.8390    1.9440    0.0000 C   0  0  0  0  0  0  0  0  0  0  0  0
    3.9825    2.3565    0.0000 C   0  0  0  0  0  0  0  0  0  0  0  0
    3.2680    1.9440    0.0000 C   0  0  0  0  0  0  0  0  0  0  0  0
    3.2680    1.1190    0.0000 C   0  0  0  0  0  0  0  0  0  0  0  0
    2.5535    2.3565    0.0000 C   0  0  0  0  0  0  0  0  0  0  0  0
    0.4101    1.1190    0.0000 C   0  0  2  0  0  0  0  0  0  0  0  0
    1.1246    1.5315    0.0000 H   0  0  0  0  0  0  0  0  0  0  0  0
   -0.3745    0.0390    0.0000 C   0  0  2  0  0  0  0  0  0  0  0  0
   -0.3745   -0.7860    0.0000 H   0  0  0  0  0  0  0  0  0  0  0  0
   -0.3745    0.8640    0.0000 C   0  0  2  0  0  0  0  0  0  0  0  0
   -0.3745    1.6890    0.0000 C   0  0  0  0  0  0  0  0  0  0  0  0
  1  5  1  0  0  0  0
  2  6  2  0  0  0  0
  2  7  1  0  0  0  0
  3  4  1  0  0  0  0
  5  7  1  0  0  0  0
  6  8  1  0  0  0  0
  8  9  2  0  0  0  0
  9 10  1  0  0  0  0
  9 11  1  0  0  0  0
 10 12  1  0  0  0  0
 10 13  2  0  0  0  0
 11 14  1  0  0  0  0
 12 15  1  0  0  0  0
 14 16  1  6  0  0  0
 14 15  1  0  0  0  0
 18 17  1  6  0  0  0
 18 19  1  0  0  0  0
 19 20  1  0  0  0  0
 20 24  1  0  0  0  0
 22 21  1  0  0  0  0
 22 23  1  0  0  0  0
 24 22  1  0  0  0  0
 25  4  1  0  0  0  0
 25 18  1  0  0  0  0
 25 26  1  6  0  0  0
 27 29  1  0  0  0  0
 27  2  1  0  0  0  0
 27  3  1  0  0  0  0
 27 28  1  6  0  0  0
 29 25  1  0  0  0  0
 29  1  1  0  0  0  0
 29 30  1  1  0  0  0
M  END
>  <DRUGBANK_ID>
DB00169

>  <DRUG_GROUPS>
approved; nutraceutical

>  <GENERIC_NAME>
Cholecalciferol

>  <SYNONYMS>
(+)-vitamin D3; calciol; CC; Colecalciferol; Vitamin D3

>  <BRANDS>
Delsterol; Delta-D; Deparal; Ebivit; Micro-Dee; Oleovitamin D3; Provitamin D3; Provitamine; Provitina; Ricketon; Trivitan; Vigantol; Vigorsan

>  <CHEMICAL_FORMULA>
C27H44O

>  <MOLECULAR_WEIGHT>
384.6377

>  <EXACT_MASS>
384.33921603

>  <IUPAC_NAME>
(1S,3Z)-3-{2-[(1R,3aS,4E,7aR)-7a-methyl-1-[(2R)-6-methylheptan-2-yl]-octahydro-1H-inden-4-ylidene]ethylidene}-4-methylidenecyclohexan-1-ol

>  <INCHI_IDENTIFIER>
InChI=1S/C27H44O/c1-19(2)8-6-9-21(4)25-15-16-26-22(10-7-17-27(25,26)5)12-13-23-18-24(28)14-11-20(23)3/h12-13,19,21,24-26,28H,3,6-11,14-18H2,1-2,4-5H3/b22-12+,23-13-/t21-,24+,25-,26+,27-/m1/s1

>  <INCHI_KEY>
InChIKey=QYSXJUFSXHHAJI-YRZJJWOYSA-N

>  <SMILES>
CC(C)CCC[C@@H](C)[C@@]1([H])CC[C@@]2([H])\C(CCC[C@]12C)=C\C=C1\C[C@@H](O)CCC1=C

>  <JCHEM_ACCEPTOR_COUNT>
1

>  <JCHEM_DONOR_COUNT>
1

>  <JCHEM_ACIDIC_PKA>
18.38

>  <JCHEM_BASIC_PKA>
-1.3

>  <JCHEM_PHYSIOLOGICAL_CHARGE>
0

>  <ALOGPS_LOGP>
7.98

>  <JCHEM_LOGP>
7.13

>  <ALOGPS_LOGS>
-6

>  <JCHEM_POLARIZABILITY>
49.6

>  <JCHEM_POLAR_SURFACE_AREA>
20.23

>  <JCHEM_REFRACTIVITY>
123.22

>  <JCHEM_ROTATABLE_BOND_COUNT>
6

>  <ALOGPS_SOLUBILITY>
3.80e-04 g/l __

$$$$
DB00170
 OpenBabel03171413522D

 13 14  0  0  0  0  0  0  0  0999 V2000
    3.0786   -1.6498    0.0000 O   0  0  0  0  0  0  0  0  0  0  0  0
    3.0786    1.6498    0.0000 O   0  0  0  0  0  0  0  0  0  0  0  0
    3.7929   -0.4124    0.0000 C   0  0  0  0  0  0  0  0  0  0  0  0
    3.7929    0.4124    0.0000 C   0  0  0  0  0  0  0  0  0  0  0  0
    2.3641   -0.4124    0.0000 C   0  0  0  0  0  0  0  0  0  0  0  0
    3.0786   -0.8249    0.0000 C   0  0  0  0  0  0  0  0  0  0  0  0
    3.0786    0.8249    0.0000 C   0  0  0  0  0  0  0  0  0  0  0  0
    2.3641    0.4124    0.0000 C   0  0  0  0  0  0  0  0  0  0  0  0
    4.5303   -0.8535    0.0000 C   0  0  0  0  0  0  0  0  0  0  0  0
    4.5303    0.8535    0.0000 C   0  0  0  0  0  0  0  0  0  0  0  0
    1.6498   -0.8249    0.0000 C   0  0  0  0  0  0  0  0  0  0  0  0
    5.2777   -0.4296    0.0000 C   0  0  0  0  0  0  0  0  0  0  0  0
    5.2777    0.4296    0.0000 C   0  0  0  0  0  0  0  0  0  0  0  0
  1  6  2  0  0  0  0
  2  7  2  0  0  0  0
  3  4  1  0  0  0  0
  3  6  1  0  0  0  0
  3  9  2  0  0  0  0
  4  7  1  0  0  0  0
  4 10  2  0  0  0  0
  5  6  1  0  0  0  0
  5  8  2  0  0  0  0
  5 11  1  0  0  0  0
  7  8  1  0  0  0  0
  9 12  1  0  0  0  0
 10 13  1  0  0  0  0
 12 13  2  0  0  0  0
M  END
>  <DRUGBANK_ID>
DB00170

>  <DRUG_GROUPS>
approved; nutraceutical

>  <GENERIC_NAME>
Menadione

>  <SYNONYMS>
2-Methyl-1,4-Naphthalenedione; 2-Methyl-1,4-naphthoquinone; Kayquinone; Menaphthone; Thyloquinone; Vitamin K 3; Vitamin K3

>  <BRANDS>
Kappaxin; Kayklot; Klottone; Kolklot; Panosine; Synkavite; Synkayvite

>  <CHEMICAL_FORMULA>
C11H8O2

>  <MOLECULAR_WEIGHT>
172.18

>  <EXACT_MASS>
172.0524295

>  <IUPAC_NAME>
2-methyl-1,4-dihydronaphthalene-1,4-dione

>  <INCHI_IDENTIFIER>
InChI=1S/C11H8O2/c1-7-6-10(12)8-4-2-3-5-9(8)11(7)13/h2-6H,1H3

>  <INCHI_KEY>
InChIKey=MJVAVZPDRWSRRC-UHFFFAOYSA-N

>  <SMILES>
CC1=CC(=O)C2=CC=CC=C2C1=O

>  <JCHEM_ACCEPTOR_COUNT>
2

>  <JCHEM_DONOR_COUNT>
0

>  <JCHEM_ACIDIC_PKA>
12.94

>  <JCHEM_BASIC_PKA>
-7.2

>  <JCHEM_PHYSIOLOGICAL_CHARGE>
0

>  <ALOGPS_LOGP>
1.91

>  <JCHEM_LOGP>
1.89

>  <ALOGPS_LOGS>
-2.5

>  <JCHEM_POLARIZABILITY>
17.64

>  <JCHEM_POLAR_SURFACE_AREA>
34.14

>  <JCHEM_REFRACTIVITY>
50.54

>  <JCHEM_ROTATABLE_BOND_COUNT>
0

>  <ALOGPS_SOLUBILITY>
5.04e-01 g/l __

$$$$
DB00171
 OpenBabel03171413522D

 31 33  0  0  1  0  0  0  0  0999 V2000
    6.9922    1.8744    0.0000 P   0  0  2  0  0  0  0  0  0  0  0  0
    8.4135    2.0213    0.0000 P   0  0  2  0  0  0  0  0  0  0  0  0
    9.8349    2.1682    0.0000 P   0  0  0  0  0  0  0  0  0  0  0  0
    4.9010    0.4187    0.0000 O   0  0  0  0  0  0  0  0  0  0  0  0
    2.8071    0.8348    0.0000 O   0  0  0  0  0  0  0  0  0  0  0  0
    3.8647    2.2851    0.0000 O   0  0  0  0  0  0  0  0  0  0  0  0
    6.3238    1.3906    0.0000 O   0  0  0  0  0  0  0  0  0  0  0  0
    7.6604    2.3582    0.0000 O   0  0  0  0  0  0  0  0  0  0  0  0
    7.4759    1.2061    0.0000 O   0  0  0  0  0  0  0  0  0  0  0  0
    6.5084    2.5427    0.0000 O   0  0  0  0  0  0  0  0  0  0  0  0
    9.1667    1.6844    0.0000 O   0  0  0  0  0  0  0  0  0  0  0  0
    8.7504    2.7744    0.0000 O   0  0  0  0  0  0  0  0  0  0  0  0
    8.0766    1.2682    0.0000 O   0  0  0  0  0  0  0  0  0  0  0  0
   10.5032    2.6520    0.0000 O   0  0  0  0  0  0  0  0  0  0  0  0
   10.3187    1.5000    0.0000 O   0  0  0  0  0  0  0  0  0  0  0  0
    9.3511    2.8365    0.0000 O   0  0  0  0  0  0  0  0  0  0  0  0
    3.8597   -0.6191    0.0000 N   0  0  0  0  0  0  0  0  0  0  0  0
    3.8597   -1.9469    0.0000 N   0  0  0  0  0  0  0  0  0  0  0  0
    2.3645   -0.4580    0.0000 N   0  0  0  0  0  0  0  0  0  0  0  0
    1.6500   -1.6955    0.0000 N   0  0  0  0  0  0  0  0  0  0  0  0
    2.3645   -2.9330    0.0000 N   0  0  0  0  0  0  0  0  0  0  0  0
    3.6321    0.8334    0.0000 C   0  0  2  0  0  0  0  0  0  0  0  0
    4.1182    1.5000    0.0000 C   0  0  1  0  0  0  0  0  0  0  0  0
    4.1159    0.1652    0.0000 C   0  0  1  0  0  0  0  0  0  0  0  0
    4.9025    1.2437    0.0000 C   0  0  1  0  0  0  0  0  0  0  0  0
    5.5707    1.7275    0.0000 C   0  0  0  0  0  0  0  0  0  0  0  0
    3.0790   -0.8705    0.0000 C   0  0  0  0  0  0  0  0  0  0  0  0
    4.3411   -1.2830    0.0000 C   0  0  0  0  0  0  0  0  0  0  0  0
    3.0790   -1.6955    0.0000 C   0  0  0  0  0  0  0  0  0  0  0  0
    2.3645   -2.1080    0.0000 C   0  0  0  0  0  0  0  0  0  0  0  0
    1.6500   -0.8705    0.0000 C   0  0  0  0  0  0  0  0  0  0  0  0
  1  7  1  6  0  0  0
  1  8  1  0  0  0  0
  1  9  1  0  0  0  0
  1 10  2  0  0  0  0
  2  8  1  1  0  0  0
  2 11  1  0  0  0  0
  2 12  1  0  0  0  0
  2 13  2  0  0  0  0
  3 11  1  0  0  0  0
  3 14  1  0  0  0  0
  3 15  1  0  0  0  0
  3 16  2  0  0  0  0
  4 24  1  0  0  0  0
  4 25  1  0  0  0  0
  7 26  1  0  0  0  0
 17 27  1  0  0  0  0
 17 28  1  0  0  0  0
 18 28  2  0  0  0  0
 18 29  1  0  0  0  0
 19 27  2  0  0  0  0
 19 31  1  0  0  0  0
 20 30  1  0  0  0  0
 20 31  2  0  0  0  0
 21 30  1  0  0  0  0
 22  5  1  6  0  0  0
 22 23  1  0  0  0  0
 22 24  1  0  0  0  0
 23  6  1  6  0  0  0
 23 25  1  0  0  0  0
 24 17  1  1  0  0  0
 25 26  1  1  0  0  0
 27 29  1  0  0  0  0
 29 30  2  0  0  0  0
M  END
>  <DRUGBANK_ID>
DB00171

>  <DRUG_GROUPS>
approved; nutraceutical

>  <GENERIC_NAME>
Adenosine triphosphate

>  <SYNONYMS>
5'-ATP; Adenosine 5'-triphosphate; Adenosine 5'-triphosphoric acid; Adenosine-5'-triphosphate; Adenosine, 5'-(tetrahydrogen triphosphate); Adenylpyrophosphoric acid; ATP; Triphosphoric acid adenosine ester

>  <BRANDS>
Adephos; Adetol; Adynol; Atipi; Atriphos; Cardenosine; Fosfobion; Glucobasin; Myotriphos; Phosphobion; Striadyne; Triadenyl; Triphosphaden

>  <CHEMICAL_FORMULA>
C10H16N5O13P3

>  <MOLECULAR_WEIGHT>
507.181

>  <EXACT_MASS>
506.995745159

>  <IUPAC_NAME>
({[({[(2R,3S,4R,5R)-5-(6-amino-9H-purin-9-yl)-3,4-dihydroxyoxolan-2-yl]methoxy}(hydroxy)phosphoryl)oxy](hydroxy)phosphoryl}oxy)phosphonic acid

>  <INCHI_IDENTIFIER>
InChI=1S/C10H16N5O13P3/c11-8-5-9(13-2-12-8)15(3-14-5)10-7(17)6(16)4(26-10)1-25-30(21,22)28-31(23,24)27-29(18,19)20/h2-4,6-7,10,16-17H,1H2,(H,21,22)(H,23,24)(H2,11,12,13)(H2,18,19,20)/t4-,6-,7-,10-/m1/s1

>  <INCHI_KEY>
InChIKey=ZKHQWZAMYRWXGA-KQYNXXCUSA-N

>  <SMILES>
NC1=C2N=CN([C@@H]3O[C@H](CO[P@](O)(=O)O[P@](O)(=O)OP(O)(O)=O)[C@@H](O)[C@H]3O)C2=NC=N1

>  <JCHEM_ACCEPTOR_COUNT>
14

>  <JCHEM_DONOR_COUNT>
7

>  <JCHEM_ACIDIC_PKA>
0.9

>  <JCHEM_BASIC_PKA>
5

>  <JCHEM_PHYSIOLOGICAL_CHARGE>
-3

>  <ALOGPS_LOGP>
-0.84

>  <JCHEM_LOGP>
-6.2

>  <ALOGPS_LOGS>
-2

>  <JCHEM_POLARIZABILITY>
38.61

>  <JCHEM_POLAR_SURFACE_AREA>
279.13

>  <JCHEM_REFRACTIVITY>
95.81

>  <JCHEM_ROTATABLE_BOND_COUNT>
8

>  <ALOGPS_SOLUBILITY>
4.49e+00 g/l __

$$$$
DB00172
 OpenBabel03171413522D

  8  8  0  0  1  0  0  0  0  0999 V2000
    4.3828    0.4358    0.0000 O   0  0  0  0  0  0  0  0  0  0  0  0
    3.9413   -0.9233    0.0000 O   0  0  0  0  0  0  0  0  0  0  0  0
    2.3176   -0.3463    0.0000 N   0  0  0  0  0  0  0  0  0  0  0  0
    2.9850    0.1387    0.0000 C   0  0  1  0  0  0  0  0  0  0  0  0
    2.7301    0.9233    0.0000 C   0  0  0  0  0  0  0  0  0  0  0  0
    1.9050    0.9233    0.0000 C   0  0  0  0  0  0  0  0  0  0  0  0
    1.6501    0.1387    0.0000 C   0  0  0  0  0  0  0  0  0  0  0  0
    3.7697   -0.1163    0.0000 C   0  0  0  0  0  0  0  0  0  0  0  0
  1  8  1  0  0  0  0
  2  8  2  0  0  0  0
  3  4  1  0  0  0  0
  3  7  1  0  0  0  0
  4  5  1  0  0  0  0
  4  8  1  1  0  0  0
  5  6  1  0  0  0  0
  6  7  1  0  0  0  0
M  END
>  <DRUGBANK_ID>
DB00172

>  <DRUG_GROUPS>
approved; nutraceutical

>  <GENERIC_NAME>
L-Proline

>  <SYNONYMS>
(-)-2-Pyrrolidinecarboxylic acid; (-)-Proline; (S)-2-Carboxypyrrolidine; (S)-2-Pyrrolidinecarboxylic acid; (S)-Proline; 2-Pyrrolidinecarboxylic acid

>  <CHEMICAL_FORMULA>
C5H9NO2

>  <MOLECULAR_WEIGHT>
115.1305

>  <EXACT_MASS>
115.063328537

>  <IUPAC_NAME>
(2S)-pyrrolidine-2-carboxylic acid

>  <INCHI_IDENTIFIER>
InChI=1S/C5H9NO2/c7-5(8)4-2-1-3-6-4/h4,6H,1-3H2,(H,7,8)/t4-/m0/s1

>  <INCHI_KEY>
InChIKey=ONIBWKKTOPOVIA-BYPYZUCNSA-N

>  <SMILES>
OC(=O)[C@@H]1CCCN1

>  <JCHEM_ACCEPTOR_COUNT>
3

>  <JCHEM_DONOR_COUNT>
2

>  <JCHEM_ACIDIC_PKA>
1.94

>  <JCHEM_BASIC_PKA>
11.33

>  <JCHEM_PHYSIOLOGICAL_CHARGE>
0

>  <ALOGPS_LOGP>
-2.7

>  <JCHEM_LOGP>
-2.6

>  <ALOGPS_LOGS>
0.5

>  <JCHEM_POLARIZABILITY>
11.5

>  <JCHEM_POLAR_SURFACE_AREA>
49.33

>  <JCHEM_REFRACTIVITY>
28.06

>  <JCHEM_ROTATABLE_BOND_COUNT>
1

>  <ALOGPS_SOLUBILITY>
3.65e+02 g/l __

$$$$
DB00173
 OpenBabel03171413522D

 10 11  0  0  0  0  0  0  0  0999 V2000
    3.8596    0.1235    0.0000 N   0  0  0  0  0  0  0  0  0  0  0  0
    3.8596   -1.2043    0.0000 N   0  0  0  0  0  0  0  0  0  0  0  0
    2.3645   -1.3654    0.0000 N   0  0  0  0  0  0  0  0  0  0  0  0
    1.6500   -0.1279    0.0000 N   0  0  0  0  0  0  0  0  0  0  0  0
    2.3645    1.1096    0.0000 N   0  0  0  0  0  0  0  0  0  0  0  0
    3.0790   -0.1279    0.0000 C   0  0  0  0  0  0  0  0  0  0  0  0
    3.0790   -0.9529    0.0000 C   0  0  0  0  0  0  0  0  0  0  0  0
    2.3645    0.2846    0.0000 C   0  0  0  0  0  0  0  0  0  0  0  0
    4.3411   -0.5404    0.0000 C   0  0  0  0  0  0  0  0  0  0  0  0
    1.6500   -0.9529    0.0000 C   0  0  0  0  0  0  0  0  0  0  0  0
  1  6  1  0  0  0  0
  1  9  1  0  0  0  0
  2  7  1  0  0  0  0
  2  9  2  0  0  0  0
  3  7  2  0  0  0  0
  3 10  1  0  0  0  0
  4  8  1  0  0  0  0
  4 10  2  0  0  0  0
  5  8  1  0  0  0  0
  6  7  1  0  0  0  0
  6  8  2  0  0  0  0
M  END
>  <DRUGBANK_ID>
DB00173

>  <DRUG_GROUPS>
approved; nutraceutical

>  <GENERIC_NAME>
Adenine

>  <SYNONYMS>
1H-Purin-6-amine; 6-Aminopurine; Adenin; Adeninimine; Vitamin B4

>  <BRANDS>
Leuco-4; Pedatisectine B

>  <CHEMICAL_FORMULA>
C5H5N5

>  <MOLECULAR_WEIGHT>
135.1267

>  <EXACT_MASS>
135.054495185

>  <IUPAC_NAME>
7H-purin-6-amine

>  <INCHI_IDENTIFIER>
InChI=1S/C5H5N5/c6-4-3-5(9-1-7-3)10-2-8-4/h1-2H,(H3,6,7,8,9,10)

>  <INCHI_KEY>
InChIKey=GFFGJBXGBJISGV-UHFFFAOYSA-N

>  <SMILES>
NC1=C2NC=NC2=NC=N1

>  <JCHEM_ACCEPTOR_COUNT>
4

>  <JCHEM_DONOR_COUNT>
2

>  <JCHEM_ACIDIC_PKA>
10.29

>  <JCHEM_BASIC_PKA>
5.32

>  <JCHEM_PHYSIOLOGICAL_CHARGE>
0

>  <ALOGPS_LOGP>
-0.38

>  <JCHEM_LOGP>
-0.57

>  <ALOGPS_LOGS>
-1.1

>  <JCHEM_POLARIZABILITY>
12.29

>  <JCHEM_POLAR_SURFACE_AREA>
80.48

>  <JCHEM_REFRACTIVITY>
38.22

>  <JCHEM_ROTATABLE_BOND_COUNT>
0

>  <ALOGPS_SOLUBILITY>
1.15e+01 g/l __

$$$$
DB00174
 OpenBabel03171413522D

  9  8  0  0  1  0  0  0  0  0999 V2000
    5.6655   -0.0784    0.0000 O   0  0  0  0  0  0  0  0  0  0  0  0
    4.9509    1.1592    0.0000 O   0  0  0  0  0  0  0  0  0  0  0  0
    2.8075   -0.9034    0.0000 O   0  0  0  0  0  0  0  0  0  0  0  0
    4.2365   -0.9034    0.0000 N   0  0  0  0  0  0  0  0  0  0  0  0
    2.0930    0.3341    0.0000 N   0  0  0  0  0  0  0  0  0  0  0  0
    4.2365   -0.0784    0.0000 C   0  0  1  0  0  0  0  0  0  0  0  0
    3.5220    0.3341    0.0000 C   0  0  0  0  0  0  0  0  0  0  0  0
    4.9509    0.3341    0.0000 C   0  0  0  0  0  0  0  0  0  0  0  0
    2.8075   -0.0784    0.0000 C   0  0  0  0  0  0  0  0  0  0  0  0
  1  8  1  0  0  0  0
  2  8  2  0  0  0  0
  3  9  2  0  0  0  0
  5  9  1  0  0  0  0
  6  4  1  1  0  0  0
  6  7  1  0  0  0  0
  6  8  1  0  0  0  0
  7  9  1  0  0  0  0
M  END
>  <DRUGBANK_ID>
DB00174

>  <DRUG_GROUPS>
approved; nutraceutical

>  <GENERIC_NAME>
L-Asparagine

>  <SYNONYMS>
(-)-Asparagine; (S)-2,4-Diamino-4-oxobutanoic acid; (S)-Asparagine; 2-Aminosuccinamic acid; a-Aminosuccinamic acid; Asn; Asparagine; Asparagine acid; Asparamide; Aspartamic acid; Aspartic acid amide; Aspartic acid b-amide; L-2,4-Diamino-4-oxobutanoic acid; L-Aspartamine; L-b-Asparagine

>  <BRANDS>
Agedoite; Altheine; Crystal VI

>  <CHEMICAL_FORMULA>
C4H8N2O3

>  <MOLECULAR_WEIGHT>
132.1179

>  <EXACT_MASS>
132.053492132

>  <IUPAC_NAME>
(2S)-2-amino-3-carbamoylpropanoic acid

>  <INCHI_IDENTIFIER>
InChI=1S/C4H8N2O3/c5-2(4(8)9)1-3(6)7/h2H,1,5H2,(H2,6,7)(H,8,9)/t2-/m0/s1

>  <INCHI_KEY>
InChIKey=DCXYFEDJOCDNAF-REOHCLBHSA-N

>  <SMILES>
N[C@@H](CC(N)=O)C(O)=O

>  <JCHEM_ACCEPTOR_COUNT>
4

>  <JCHEM_DONOR_COUNT>
3

>  <JCHEM_ACIDIC_PKA>
2

>  <JCHEM_BASIC_PKA>
8.43

>  <JCHEM_PHYSIOLOGICAL_CHARGE>
0

>  <ALOGPS_LOGP>
-3.4

>  <JCHEM_LOGP>
-4.3

>  <ALOGPS_LOGS>
0.1

>  <JCHEM_POLARIZABILITY>
11.68

>  <JCHEM_POLAR_SURFACE_AREA>
106.41

>  <JCHEM_REFRACTIVITY>
28.35

>  <JCHEM_ROTATABLE_BOND_COUNT>
3

>  <ALOGPS_SOLUBILITY>
1.68e+02 g/l __

$$$$
DB00627
 OpenBabel03171413522D

  9  9  0  0  0  0  0  0  0  0999 V2000
    3.0790    1.1880    0.0000 O   0  0  0  0  0  0  0  0  0  0  0  0
    1.6500    1.1880    0.0000 O   0  0  0  0  0  0  0  0  0  0  0  0
    1.6500   -1.2870    0.0000 N   0  0  0  0  0  0  0  0  0  0  0  0
    2.3644   -0.0495    0.0000 C   0  0  0  0  0  0  0  0  0  0  0  0
    3.0790   -0.4620    0.0000 C   0  0  0  0  0  0  0  0  0  0  0  0
    1.6500   -0.4620    0.0000 C   0  0  0  0  0  0  0  0  0  0  0  0
    3.0790   -1.2870    0.0000 C   0  0  0  0  0  0  0  0  0  0  0  0
    2.3644   -1.6995    0.0000 C   0  0  0  0  0  0  0  0  0  0  0  0
    2.3644    0.7755    0.0000 C   0  0  0  0  0  0  0  0  0  0  0  0
  1  9  1  0  0  0  0
  2  9  2  0  0  0  0
  3  6  1  0  0  0  0
  3  8  2  0  0  0  0
  4  5  1  0  0  0  0
  4  6  2  0  0  0  0
  4  9  1  0  0  0  0
  5  7  2  0  0  0  0
  7  8  1  0  0  0  0
M  END
>  <DRUGBANK_ID>
DB00627

>  <DRUG_GROUPS>
approved; nutraceutical; investigational

>  <GENERIC_NAME>
Niacin

>  <SYNONYMS>
3-Pyridinecarboxylic acid; Acide Nicotinique; Acidum Nicotinicum; M-Pyridinecarboxylic Acid; Nicotine Acid; Nicotinic Acid; Pyridinecarboxylic Acid; Pyridylcarboxylic Acid; Vitamin B3

>  <BRANDS>
Akotin; Anti-Pellagra Vitamin; Apelagrin; Bionic; Daskil; Davitamon PP; Diacin; Direktan; Efacin; Kyselina Nikotinova; Linic; Naotin; Niac; Niaspan; Nicacid; Nicangin; NICO; Nico-Span; Nicocidin; Nicocrisina; Nicodan; Nicodelmine; Nicodon; Niconacid; Niconat; Niconazid; Nicorol; Nicosan 3; Nicoside; Nicosyl; Nicotamin; Nicotene; Nicotil; Nicotinipca; Nicotinsaure; Nicovasan; Nicovasen; Nicyl; Nipellen; Nyclin; P.P. Factor; Pellagra Preventive Factor; Pellagramin; Pellagrin; Pelonin; Peviton; PP Factor; Simcor; Sk-Niacin; Tega-Span; Tinic; Vitaplex N

>  <CHEMICAL_FORMULA>
C6H5NO2

>  <MOLECULAR_WEIGHT>
123.1094

>  <EXACT_MASS>
123.032028409

>  <IUPAC_NAME>
pyridine-3-carboxylic acid

>  <INCHI_IDENTIFIER>
InChI=1S/C6H5NO2/c8-6(9)5-2-1-3-7-4-5/h1-4H,(H,8,9)

>  <INCHI_KEY>
InChIKey=PVNIIMVLHYAWGP-UHFFFAOYSA-N

>  <SMILES>
OC(=O)C1=CN=CC=C1

>  <JCHEM_ACCEPTOR_COUNT>
3

>  <JCHEM_DONOR_COUNT>
1

>  <JCHEM_ACIDIC_PKA>
2.79

>  <JCHEM_BASIC_PKA>
4.19

>  <JCHEM_PHYSIOLOGICAL_CHARGE>
-1

>  <ALOGPS_LOGP>
0.29

>  <JCHEM_LOGP>
-0.17

>  <ALOGPS_LOGS>
-0.17

>  <JCHEM_POLARIZABILITY>
11.3

>  <JCHEM_POLAR_SURFACE_AREA>
50.19

>  <JCHEM_REFRACTIVITY>
31.16

>  <JCHEM_ROTATABLE_BOND_COUNT>
1

>  <ALOGPS_SOLUBILITY>
8.31e+01 g/l __

$$$$
DB00638
 OpenBabel03171413522D

419456  0  0  1  0  0  0  0  0999 V2000
    8.4235    0.1973    0.0000 O   0  0  0  0  0  0  0  0  0  0  0  0
    8.6343   -1.5827    0.0000 O   0  0  0  0  0  0  0  0  0  0  0  0
    8.3845    1.9893    0.0000 O   0  0  0  0  0  0  0  0  0  0  0  0
    8.6732   -3.3748    0.0000 O   0  0  0  0  0  0  0  0  0  0  0  0
    8.1737    3.7693    0.0000 O   0  0  0  0  0  0  0  0  0  0  0  0
    9.0511   -5.1283    0.0000 O   0  0  0  0  0  0  0  0  0  0  0  0
    8.1348    5.5613    0.0000 O   0  0  0  0  0  0  0  0  0  0  0  0
    7.9238    7.3413    0.0000 O   0  0  0  0  0  0  0  0  0  0  0  0
    9.4005   -6.8864    0.0000 O   0  0  0  0  0  0  0  0  0  0  0  0
    7.8850    9.1333    0.0000 O   0  0  0  0  0  0  0  0  0  0  0  0
    9.9173   -8.6027    0.0000 O   0  0  0  0  0  0  0  0  0  0  0  0
    7.6741   10.9133    0.0000 O   0  0  0  0  0  0  0  0  0  0  0  0
   10.2668  -10.3608    0.0000 O   0  0  0  0  0  0  0  0  0  0  0  0
    7.6352   12.7053    0.0000 O   0  0  0  0  0  0  0  0  0  0  0  0
   10.7836  -12.0771    0.0000 O   0  0  0  0  0  0  0  0  0  0  0  0
   11.1331  -13.8351    0.0000 O   0  0  0  0  0  0  0  0  0  0  0  0
    7.4243   14.4853    0.0000 O   0  0  0  0  0  0  0  0  0  0  0  0
   11.6499  -15.5515    0.0000 O   0  0  0  0  0  0  0  0  0  0  0  0
    7.3854   16.2773    0.0000 O   0  0  0  0  0  0  0  0  0  0  0  0
   11.9994  -17.3095    0.0000 O   0  0  0  0  0  0  0  0  0  0  0  0
    9.5858    0.0955    0.0000 O   0  0  0  0  0  0  0  0  0  0  0  0
    7.4044   -0.5136    0.0000 O   0  0  0  0  0  0  0  0  0  0  0  0
    7.1546    3.0584    0.0000 O   0  0  0  0  0  0  0  0  0  0  0  0
    9.8355   -3.4765    0.0000 O   0  0  0  0  0  0  0  0  0  0  0  0
    9.2429    4.9992    0.0000 O   0  0  0  0  0  0  0  0  0  0  0  0
    7.9771   -5.5842    0.0000 O   0  0  0  0  0  0  0  0  0  0  0  0
    6.9049    6.6305    0.0000 O   0  0  0  0  0  0  0  0  0  0  0  0
    7.1746   18.0573    0.0000 O   0  0  0  0  0  0  0  0  0  0  0  0
   10.5629   -6.7846    0.0000 O   0  0  0  0  0  0  0  0  0  0  0  0
    8.9931    8.5712    0.0000 O   0  0  0  0  0  0  0  0  0  0  0  0
    8.8433   -9.0586    0.0000 O   0  0  0  0  0  0  0  0  0  0  0  0
    6.6550   10.2025    0.0000 O   0  0  0  0  0  0  0  0  0  0  0  0
   11.4291  -10.2591    0.0000 O   0  0  0  0  0  0  0  0  0  0  0  0
    8.7432   12.1433    0.0000 O   0  0  0  0  0  0  0  0  0  0  0  0
    9.7096  -12.5330    0.0000 O   0  0  0  0  0  0  0  0  0  0  0  0
    6.4052   13.7746    0.0000 O   0  0  0  0  0  0  0  0  0  0  0  0
   12.2954  -13.7335    0.0000 O   0  0  0  0  0  0  0  0  0  0  0  0
    8.4935   15.7153    0.0000 O   0  0  0  0  0  0  0  0  0  0  0  0
   10.5759  -16.0074    0.0000 O   0  0  0  0  0  0  0  0  0  0  0  0
   12.5162  -19.0258    0.0000 O   0  0  0  0  0  0  0  0  0  0  0  0
    6.2486   16.0149    0.0000 O   0  0  0  0  0  0  0  0  0  0  0  0
    7.1357   19.8494    0.0000 O   0  0  0  0  0  0  0  0  0  0  0  0
   12.8387  -15.9126    0.0000 O   0  0  0  0  0  0  0  0  0  0  0  0
    8.3368   17.9557    0.0000 O   0  0  0  0  0  0  0  0  0  0  0  0
   11.4421  -19.4817    0.0000 O   0  0  0  0  0  0  0  0  0  0  0  0
   12.8656  -20.7839    0.0000 O   0  0  0  0  0  0  0  0  0  0  0  0
    6.9247   21.6294    0.0000 O   0  0  0  0  0  0  0  0  0  0  0  0
    5.9988   19.5869    0.0000 O   0  0  0  0  0  0  0  0  0  0  0  0
   13.7050  -19.3869    0.0000 O   0  0  0  0  0  0  0  0  0  0  0  0
   13.3824  -22.5002    0.0000 O   0  0  0  0  0  0  0  0  0  0  0  0
    8.0870   21.5277    0.0000 O   0  0  0  0  0  0  0  0  0  0  0  0
   11.9855  -21.6609    0.0000 O   0  0  0  0  0  0  0  0  0  0  0  0
    6.8859   23.4215    0.0000 O   0  0  0  0  0  0  0  0  0  0  0  0
    5.7490   23.1589    0.0000 O   0  0  0  0  0  0  0  0  0  0  0  0
   14.5712  -22.8613    0.0000 O   0  0  0  0  0  0  0  0  0  0  0  0
   13.7319  -24.2583    0.0000 O   0  0  0  0  0  0  0  0  0  0  0  0
    6.4343   25.2659    0.0000 O   0  0  0  0  0  0  0  0  0  0  0  0
    7.2737   26.6628    0.0000 O   0  0  0  0  0  0  0  0  0  0  0  0
   12.8517  -25.1353    0.0000 O   0  0  0  0  0  0  0  0  0  0  0  0
   14.2487  -25.9746    0.0000 O   0  0  0  0  0  0  0  0  0  0  0  0
    6.0849   27.0239    0.0000 O   0  0  0  0  0  0  0  0  0  0  0  0
    5.0109   26.5681    0.0000 O   0  0  0  0  0  0  0  0  0  0  0  0
   15.4375  -26.3358    0.0000 O   0  0  0  0  0  0  0  0  0  0  0  0
   14.5981  -27.7327    0.0000 O   0  0  0  0  0  0  0  0  0  0  0  0
    5.5681   28.7403    0.0000 O   0  0  0  0  0  0  0  0  0  0  0  0
    9.6075    2.2442    0.0000 O   0  0  0  0  0  0  0  0  0  0  0  0
    7.3827   -2.6622    0.0000 O   0  0  0  0  0  0  0  0  0  0  0  0
    7.5568    0.9619    0.0000 O   0  0  0  0  0  0  0  0  0  0  0  0
    9.4334   -1.3798    0.0000 O   0  0  0  0  0  0  0  0  0  0  0  0
    9.5635    2.8745    0.0000 O   0  0  0  0  0  0  0  0  0  0  0  0
    7.5679   -3.4685    0.0000 O   0  0  0  0  0  0  0  0  0  0  0  0
    7.3070    4.5339    0.0000 O   0  0  0  0  0  0  0  0  0  0  0  0
    9.8027   -4.7897    0.0000 O   0  0  0  0  0  0  0  0  0  0  0  0
    8.8866    6.4391    0.0000 O   0  0  0  0  0  0  0  0  0  0  0  0
    8.5780   -6.9403    0.0000 O   0  0  0  0  0  0  0  0  0  0  0  0
    7.0572    8.1059    0.0000 O   0  0  0  0  0  0  0  0  0  0  0  0
   10.6690   -8.2642    0.0000 O   0  0  0  0  0  0  0  0  0  0  0  0
    8.6368   10.0111    0.0000 O   0  0  0  0  0  0  0  0  0  0  0  0
    9.4443  -10.4147    0.0000 O   0  0  0  0  0  0  0  0  0  0  0  0
    6.8074   11.6779    0.0000 O   0  0  0  0  0  0  0  0  0  0  0  0
   11.5353  -11.7386    0.0000 O   0  0  0  0  0  0  0  0  0  0  0  0
    8.3870   13.5832    0.0000 O   0  0  0  0  0  0  0  0  0  0  0  0
   10.3105  -13.8891    0.0000 O   0  0  0  0  0  0  0  0  0  0  0  0
    6.3551   18.1471    0.0000 O   0  0  0  0  0  0  0  0  0  0  0  0
   13.1041  -18.0308    0.0000 O   0  0  0  0  0  0  0  0  0  0  0  0
    6.7304   28.8419    0.0000 O   0  0  0  0  0  0  0  0  0  0  0  0
   13.7180  -28.6096    0.0000 O   0  0  0  0  0  0  0  0  0  0  0  0
    7.9346   20.0523    0.0000 O   0  0  0  0  0  0  0  0  0  0  0  0
   11.1767  -17.3635    0.0000 O   0  0  0  0  0  0  0  0  0  0  0  0
    6.1053   21.7191    0.0000 O   0  0  0  0  0  0  0  0  0  0  0  0
   13.9703  -21.5053    0.0000 O   0  0  0  0  0  0  0  0  0  0  0  0
    8.1088   23.6764    0.0000 O   0  0  0  0  0  0  0  0  0  0  0  0
   12.7456  -23.6558    0.0000 O   0  0  0  0  0  0  0  0  0  0  0  0
   15.1150  -29.4490    0.0000 O   0  0  0  0  0  0  0  0  0  0  0  0
   10.9252    1.7580    0.0000 O   0  0  0  0  0  0  0  0  0  0  0  0
    6.0650   -2.1759    0.0000 O   0  0  0  0  0  0  0  0  0  0  0  0
    5.8152    1.3961    0.0000 O   0  0  0  0  0  0  0  0  0  0  0  0
   11.1749   -1.8141    0.0000 O   0  0  0  0  0  0  0  0  0  0  0  0
   10.8006    3.5394    0.0000 O   0  0  0  0  0  0  0  0  0  0  0  0
    6.1896   -4.4171    0.0000 O   0  0  0  0  0  0  0  0  0  0  0  0
    5.5654    4.9681    0.0000 O   0  0  0  0  0  0  0  0  0  0  0  0
   11.5933   -4.9150    0.0000 O   0  0  0  0  0  0  0  0  0  0  0  0
   10.5508    7.1114    0.0000 O   0  0  0  0  0  0  0  0  0  0  0  0
    7.0558   -7.8915    0.0000 O   0  0  0  0  0  0  0  0  0  0  0  0
    5.3156    8.5401    0.0000 O   0  0  0  0  0  0  0  0  0  0  0  0
   12.4596   -8.3894    0.0000 O   0  0  0  0  0  0  0  0  0  0  0  0
   10.3011   10.6835    0.0000 O   0  0  0  0  0  0  0  0  0  0  0  0
    7.9221  -11.3658    0.0000 O   0  0  0  0  0  0  0  0  0  0  0  0
    5.0659   12.1121    0.0000 O   0  0  0  0  0  0  0  0  0  0  0  0
   13.3257  -11.8637    0.0000 O   0  0  0  0  0  0  0  0  0  0  0  0
   10.0512   14.2555    0.0000 O   0  0  0  0  0  0  0  0  0  0  0  0
    8.7884  -14.8402    0.0000 O   0  0  0  0  0  0  0  0  0  0  0  0
    4.6909   17.4747    0.0000 O   0  0  0  0  0  0  0  0  0  0  0  0
   14.6262  -17.0797    0.0000 O   0  0  0  0  0  0  0  0  0  0  0  0
    9.6763   19.6180    0.0000 O   0  0  0  0  0  0  0  0  0  0  0  0
    9.6546  -18.3147    0.0000 O   0  0  0  0  0  0  0  0  0  0  0  0
    5.8555   25.2911    0.0000 O   0  0  0  0  0  0  0  0  0  0  0  0
   14.8366  -24.9796    0.0000 O   0  0  0  0  0  0  0  0  0  0  0  0
    4.4411   21.0467    0.0000 O   0  0  0  0  0  0  0  0  0  0  0  0
   15.4925  -20.5541    0.0000 O   0  0  0  0  0  0  0  0  0  0  0  0
    9.4264   23.1901    0.0000 O   0  0  0  0  0  0  0  0  0  0  0  0
   10.9550  -23.5306    0.0000 O   0  0  0  0  0  0  0  0  0  0  0  0
    5.2187   30.4983    0.0000 O   0  0  0  0  0  0  0  0  0  0  0  0
    7.9584   24.6261    0.0000 O   0  0  0  0  0  0  0  0  0  0  0  0
   13.6119  -27.1302    0.0000 O   0  0  0  0  0  0  0  0  0  0  0  0
    4.1913   24.6187    0.0000 O   0  0  0  0  0  0  0  0  0  0  0  0
   16.3588  -24.0284    0.0000 O   0  0  0  0  0  0  0  0  0  0  0  0
    9.0613   25.4957    0.0000 O   0  0  0  0  0  0  0  0  0  0  0  0
   11.8213  -27.0049    0.0000 O   0  0  0  0  0  0  0  0  0  0  0  0
    4.1447   30.0424    0.0000 O   0  0  0  0  0  0  0  0  0  0  0  0
   16.3037  -29.8101    0.0000 O   0  0  0  0  0  0  0  0  0  0  0  0
    4.7455   28.6863    0.0000 O   0  0  0  0  0  0  0  0  0  0  0  0
   15.7029  -28.4540    0.0000 O   0  0  0  0  0  0  0  0  0  0  0  0
    3.2234   27.7352    0.0000 O   0  0  0  0  0  0  0  0  0  0  0  0
   17.2250  -27.5028    0.0000 O   0  0  0  0  0  0  0  0  0  0  0  0
   15.4644  -31.2070    0.0000 O   0  0  0  0  0  0  0  0  0  0  0  0
    5.9703   30.8369    0.0000 O   0  0  0  0  0  0  0  0  0  0  0  0
   14.4781  -30.6046    0.0000 O   0  0  0  0  0  0  0  0  0  0  0  0
   11.7788    0.3548    0.0000 O   0  0  0  0  0  0  0  0  0  0  0  0
    5.9685    0.4391    0.0000 O   0  0  0  0  0  0  0  0  0  0  0  0
    5.7188    4.0112    0.0000 O   0  0  0  0  0  0  0  0  0  0  0  0
   12.0286   -3.2173    0.0000 O   0  0  0  0  0  0  0  0  0  0  0  0
   10.5321    6.1425    0.0000 O   0  0  0  0  0  0  0  0  0  0  0  0
    5.8113   -6.0154    0.0000 O   0  0  0  0  0  0  0  0  0  0  0  0
    5.4690    7.5832    0.0000 O   0  0  0  0  0  0  0  0  0  0  0  0
   12.6776   -6.1486    0.0000 O   0  0  0  0  0  0  0  0  0  0  0  0
   10.2823    9.7145    0.0000 O   0  0  0  0  0  0  0  0  0  0  0  0
    6.6776   -9.4898    0.0000 O   0  0  0  0  0  0  0  0  0  0  0  0
    5.2193   11.1552    0.0000 O   0  0  0  0  0  0  0  0  0  0  0  0
   13.5439   -9.6230    0.0000 O   0  0  0  0  0  0  0  0  0  0  0  0
    7.7608   30.7117    0.0000 O   0  0  0  0  0  0  0  0  0  0  0  0
   10.0325   13.2865    0.0000 O   0  0  0  0  0  0  0  0  0  0  0  0
    7.5438  -12.9641    0.0000 O   0  0  0  0  0  0  0  0  0  0  0  0
    4.7019   32.2146    0.0000 O   0  0  0  0  0  0  0  0  0  0  0  0
    4.9694   14.7272    0.0000 O   0  0  0  0  0  0  0  0  0  0  0  0
   14.4102  -13.0974    0.0000 O   0  0  0  0  0  0  0  0  0  0  0  0
   12.6876  -30.4793    0.0000 O   0  0  0  0  0  0  0  0  0  0  0  0
    9.7828   16.8585    0.0000 O   0  0  0  0  0  0  0  0  0  0  0  0
    8.4101  -16.4386    0.0000 O   0  0  0  0  0  0  0  0  0  0  0  0
    4.0408   15.9664    0.0000 O   0  0  0  0  0  0  0  0  0  0  0  0
   13.9099  -14.5629    0.0000 O   0  0  0  0  0  0  0  0  0  0  0  0
   10.5299   18.2149    0.0000 O   0  0  0  0  0  0  0  0  0  0  0  0
    9.2763  -19.9130    0.0000 O   0  0  0  0  0  0  0  0  0  0  0  0
    3.7911   19.5384    0.0000 O   0  0  0  0  0  0  0  0  0  0  0  0
   14.7761  -18.0372    0.0000 O   0  0  0  0  0  0  0  0  0  0  0  0
   10.2801   21.7869    0.0000 O   0  0  0  0  0  0  0  0  0  0  0  0
   10.4060  -20.9720    0.0000 O   0  0  0  0  0  0  0  0  0  0  0  0
    3.5412   23.1104    0.0000 O   0  0  0  0  0  0  0  0  0  0  0  0
   15.6424  -21.5116    0.0000 O   0  0  0  0  0  0  0  0  0  0  0  0
    3.8793   32.1607    0.0000 O   0  0  0  0  0  0  0  0  0  0  0  0
   16.5692  -31.9284    0.0000 O   0  0  0  0  0  0  0  0  0  0  0  0
    8.3449   28.0125    0.0000 O   0  0  0  0  0  0  0  0  0  0  0  0
   11.2723  -24.4464    0.0000 O   0  0  0  0  0  0  0  0  0  0  0  0
    5.8642   32.3163    0.0000 O   0  0  0  0  0  0  0  0  0  0  0  0
    2.3571   31.2096    0.0000 O   0  0  0  0  0  0  0  0  0  0  0  0
   18.0913  -30.9772    0.0000 O   0  0  0  0  0  0  0  0  0  0  0  0
    2.8451   26.1368    0.0000 O   0  0  0  0  0  0  0  0  0  0  0  0
   16.5087  -24.9860    0.0000 O   0  0  0  0  0  0  0  0  0  0  0  0
   16.1788  -32.4445    0.0000 O   0  0  0  0  0  0  0  0  0  0  0  0
    8.8451   29.4780    0.0000 O   0  0  0  0  0  0  0  0  0  0  0  0
   12.1385  -27.9208    0.0000 O   0  0  0  0  0  0  0  0  0  0  0  0
    5.1040   34.3112    0.0000 O   0  0  0  0  0  0  0  0  0  0  0  0
    1.9788   29.6113    0.0000 O   0  0  0  0  0  0  0  0  0  0  0  0
   18.4696  -29.3789    0.0000 O   0  0  0  0  0  0  0  0  0  0  0  0
   14.0354  -32.0320    0.0000 O   0  0  0  0  0  0  0  0  0  0  0  0
    6.8945   34.1861    0.0000 O   0  0  0  0  0  0  0  0  0  0  0  0
   14.0354  -33.6821    0.0000 O   0  0  0  0  0  0  0  0  0  0  0  0
   15.4644  -34.5071    0.0000 O   0  0  0  0  0  0  0  0  0  0  0  0
    4.3524   33.9727    0.0000 O   0  0  0  0  0  0  0  0  0  0  0  0
    7.9789   32.9524    0.0000 O   0  0  0  0  0  0  0  0  0  0  0  0
   16.8934  -34.5071    0.0000 O   0  0  0  0  0  0  0  0  0  0  0  0
    9.0554    0.7276    0.0000 C   0  0  2  0  0  0  0  0  0  0  0  0
    7.9347   -1.1455    0.0000 C   0  0  2  0  0  0  0  0  0  0  0  0
    7.6849    2.4265    0.0000 C   0  0  2  0  0  0  0  0  0  0  0  0
    9.3053   -2.8444    0.0000 C   0  0  2  0  0  0  0  0  0  0  0  0
    8.8056    4.2996    0.0000 C   0  0  2  0  0  0  0  0  0  0  0  0
    8.2862   -4.8193    0.0000 C   0  0  2  0  0  0  0  0  0  0  0  0
    7.4351    5.9985    0.0000 C   0  0  2  0  0  0  0  0  0  0  0  0
    9.9309   -6.2544    0.0000 C   0  0  2  0  0  0  0  0  0  0  0  0
    8.5559    7.8716    0.0000 C   0  0  2  0  0  0  0  0  0  0  0  0
    9.1525   -8.2936    0.0000 C   0  0  2  0  0  0  0  0  0  0  0  0
    7.1854    9.5705    0.0000 C   0  0  2  0  0  0  0  0  0  0  0  0
   10.7971   -9.7287    0.0000 C   0  0  2  0  0  0  0  0  0  0  0  0
    8.3061   11.4436    0.0000 C   0  0  2  0  0  0  0  0  0  0  0  0
   10.0186  -11.7680    0.0000 C   0  0  2  0  0  0  0  0  0  0  0  0
    6.9355   13.1425    0.0000 C   0  0  2  0  0  0  0  0  0  0  0  0
   11.6634  -13.2031    0.0000 C   0  0  2  0  0  0  0  0  0  0  0  0
    8.0563   15.0156    0.0000 C   0  0  2  0  0  0  0  0  0  0  0  0
   10.8849  -15.2424    0.0000 C   0  0  2  0  0  0  0  0  0  0  0  0
    6.6858   16.7146    0.0000 C   0  0  2  0  0  0  0  0  0  0  0  0
   12.5297  -16.6775    0.0000 C   0  0  2  0  0  0  0  0  0  0  0  0
    7.8065   18.5877    0.0000 C   0  0  2  0  0  0  0  0  0  0  0  0
   11.7512  -18.7168    0.0000 C   0  0  2  0  0  0  0  0  0  0  0  0
    6.4360   20.2866    0.0000 C   0  0  2  0  0  0  0  0  0  0  0  0
   13.3960  -20.1519    0.0000 C   0  0  2  0  0  0  0  0  0  0  0  0
    7.5568   22.1597    0.0000 C   0  0  2  0  0  0  0  0  0  0  0  0
   12.6175  -22.1912    0.0000 C   0  0  2  0  0  0  0  0  0  0  0  0
    6.1863   23.8586    0.0000 C   0  0  2  0  0  0  0  0  0  0  0  0
   14.2621  -23.6263    0.0000 C   0  0  1  0  0  0  0  0  0  0  0  0
    9.4926    1.4272    0.0000 C   0  0  2  0  0  0  0  0  0  0  0  0
    7.4975   -1.8452    0.0000 C   0  0  2  0  0  0  0  0  0  0  0  0
    7.2477    1.7269    0.0000 C   0  0  2  0  0  0  0  0  0  0  0  0
    9.7424   -2.1448    0.0000 C   0  0  2  0  0  0  0  0  0  0  0  0
    9.3359    3.6676    0.0000 C   0  0  2  0  0  0  0  0  0  0  0  0
    7.6541   -4.2890    0.0000 C   0  0  2  0  0  0  0  0  0  0  0  0
    6.9979    5.2989    0.0000 C   0  0  2  0  0  0  0  0  0  0  0  0
   10.2399   -5.4894    0.0000 C   0  0  2  0  0  0  0  0  0  0  0  0
    9.0862    7.2396    0.0000 C   0  0  2  0  0  0  0  0  0  0  0  0
    8.5204   -7.7634    0.0000 C   0  0  2  0  0  0  0  0  0  0  0  0
    6.7482    8.8709    0.0000 C   0  0  2  0  0  0  0  0  0  0  0  0
   11.1062   -8.9638    0.0000 C   0  0  2  0  0  0  0  0  0  0  0  0
    8.8364   10.8117    0.0000 C   0  0  2  0  0  0  0  0  0  0  0  0
    9.3867  -11.2377    0.0000 C   0  0  2  0  0  0  0  0  0  0  0  0
    6.4984   12.4429    0.0000 C   0  0  2  0  0  0  0  0  0  0  0  0
   11.9725  -12.4382    0.0000 C   0  0  2  0  0  0  0  0  0  0  0  0
    8.5867   14.3837    0.0000 C   0  0  2  0  0  0  0  0  0  0  0  0
   10.2530  -14.7121    0.0000 C   0  0  2  0  0  0  0  0  0  0  0  0
    6.1555   17.3466    0.0000 C   0  0  2  0  0  0  0  0  0  0  0  0
   13.1617  -17.2078    0.0000 C   0  0  2  0  0  0  0  0  0  0  0  0
    8.2437   19.2874    0.0000 C   0  0  2  0  0  0  0  0  0  0  0  0
   11.1192  -18.1864    0.0000 C   0  0  2  0  0  0  0  0  0  0  0  0
    5.9057   20.9186    0.0000 C   0  0  2  0  0  0  0  0  0  0  0  0
   14.0279  -20.6822    0.0000 C   0  0  2  0  0  0  0  0  0  0  0  0
    6.9647   25.8979    0.0000 C   0  0  2  0  0  0  0  0  0  0  0  0
   13.4837  -25.6656    0.0000 C   0  0  1  0  0  0  0  0  0  0  0  0
    7.9940   22.8594    0.0000 C   0  0  2  0  0  0  0  0  0  0  0  0
   12.3084  -22.9561    0.0000 C   0  0  2  0  0  0  0  0  0  0  0  0
    8.5667   -0.6152    0.0000 C   0  0  0  0  0  0  0  0  0  0  0  0
    8.3558    1.1648    0.0000 C   0  0  0  0  0  0  0  0  0  0  0  0
    8.6056   -2.4072    0.0000 C   0  0  0  0  0  0  0  0  0  0  0  0
    8.3169    2.9568    0.0000 C   0  0  0  0  0  0  0  0  0  0  0  0
    8.8165   -4.1872    0.0000 C   0  0  0  0  0  0  0  0  0  0  0  0
    8.1060    4.7368    0.0000 C   0  0  0  0  0  0  0  0  0  0  0  0
    9.1659   -5.9454    0.0000 C   0  0  0  0  0  0  0  0  0  0  0  0
    8.0671    6.5288    0.0000 C   0  0  0  0  0  0  0  0  0  0  0  0
    9.6827   -7.6616    0.0000 C   0  0  0  0  0  0  0  0  0  0  0  0
    7.8562    8.3088    0.0000 C   0  0  0  0  0  0  0  0  0  0  0  0
   10.0322   -9.4197    0.0000 C   0  0  0  0  0  0  0  0  0  0  0  0
    7.8173   10.1008    0.0000 C   0  0  0  0  0  0  0  0  0  0  0  0
   10.5490  -11.1361    0.0000 C   0  0  0  0  0  0  0  0  0  0  0  0
    7.6065   11.8808    0.0000 C   0  0  0  0  0  0  0  0  0  0  0  0
   10.8985  -12.8941    0.0000 C   0  0  0  0  0  0  0  0  0  0  0  0
    7.5676   13.6728    0.0000 C   0  0  0  0  0  0  0  0  0  0  0  0
   11.4152  -14.6104    0.0000 C   0  0  0  0  0  0  0  0  0  0  0  0
    7.3566   15.4528    0.0000 C   0  0  0  0  0  0  0  0  0  0  0  0
   10.2931    1.2276    0.0000 C   0  0  1  0  0  0  0  0  0  0  0  0
    6.6969   -1.6456    0.0000 C   0  0  1  0  0  0  0  0  0  0  0  0
    6.4472    1.9264    0.0000 C   0  0  1  0  0  0  0  0  0  0  0  0
   10.5429   -2.3444    0.0000 C   0  0  1  0  0  0  0  0  0  0  0  0
   10.1009    3.9766    0.0000 C   0  0  1  0  0  0  0  0  0  0  0  0
    6.9545   -4.7261    0.0000 C   0  0  1  0  0  0  0  0  0  0  0  0
    6.1974    5.4984    0.0000 C   0  0  1  0  0  0  0  0  0  0  0  0
   11.0630   -5.5469    0.0000 C   0  0  1  0  0  0  0  0  0  0  0  0
   11.7647  -16.3684    0.0000 C   0  0  0  0  0  0  0  0  0  0  0  0
    9.8512    7.5487    0.0000 C   0  0  1  0  0  0  0  0  0  0  0  0
    7.8208   -8.2005    0.0000 C   0  0  1  0  0  0  0  0  0  0  0  0
    5.9477    9.0705    0.0000 C   0  0  1  0  0  0  0  0  0  0  0  0
   11.9292   -9.0214    0.0000 C   0  0  1  0  0  0  0  0  0  0  0  0
    9.6014   11.1207    0.0000 C   0  0  1  0  0  0  0  0  0  0  0  0
    7.3178   17.2448    0.0000 C   0  0  0  0  0  0  0  0  0  0  0  0
    8.6870  -11.6749    0.0000 C   0  0  1  0  0  0  0  0  0  0  0  0
    5.6978   12.6425    0.0000 C   0  0  1  0  0  0  0  0  0  0  0  0
   12.7955  -12.4958    0.0000 C   0  0  1  0  0  0  0  0  0  0  0  0
    9.3515   14.6927    0.0000 C   0  0  1  0  0  0  0  0  0  0  0  0
    9.5533  -15.1493    0.0000 C   0  0  1  0  0  0  0  0  0  0  0  0
   12.2815  -18.0848    0.0000 C   0  0  0  0  0  0  0  0  0  0  0  0
    5.3905   17.0375    0.0000 C   0  0  1  0  0  0  0  0  0  0  0  0
   13.8614  -16.7706    0.0000 C   0  0  1  0  0  0  0  0  0  0  0  0
    7.1069   19.0249    0.0000 C   0  0  0  0  0  0  0  0  0  0  0  0
    9.0442   19.0878    0.0000 C   0  0  1  0  0  0  0  0  0  0  0  0
   12.6310  -19.8428    0.0000 C   0  0  0  0  0  0  0  0  0  0  0  0
   10.4195  -18.6237    0.0000 C   0  0  1  0  0  0  0  0  0  0  0  0
    5.6559   24.4906    0.0000 C   0  0  2  0  0  0  0  0  0  0  0  0
   14.8942  -24.1566    0.0000 C   0  0  2  0  0  0  0  0  0  0  0  0
   10.3507    0.4046    0.0000 C   0  0  1  0  0  0  0  0  0  0  0  0
    6.6394   -0.8226    0.0000 C   0  0  1  0  0  0  0  0  0  0  0  0
    7.0680   20.8169    0.0000 C   0  0  0  0  0  0  0  0  0  0  0  0
    6.3896    2.7494    0.0000 C   0  0  1  0  0  0  0  0  0  0  0  0
   10.6005   -3.1674    0.0000 C   0  0  1  0  0  0  0  0  0  0  0  0
   10.0434    4.7996    0.0000 C   0  0  1  0  0  0  0  0  0  0  0  0
    7.1541   -5.5267    0.0000 C   0  0  1  0  0  0  0  0  0  0  0  0
    6.1399    6.3215    0.0000 C   0  0  1  0  0  0  0  0  0  0  0  0
   11.2625   -6.3475    0.0000 C   0  0  1  0  0  0  0  0  0  0  0  0
    9.7936    8.3717    0.0000 C   0  0  1  0  0  0  0  0  0  0  0  0
    8.0204   -9.0011    0.0000 C   0  0  1  0  0  0  0  0  0  0  0  0
    5.8901    9.8935    0.0000 C   0  0  1  0  0  0  0  0  0  0  0  0
   12.1288   -9.8219    0.0000 C   0  0  1  0  0  0  0  0  0  0  0  0
    9.5438   11.9437    0.0000 C   0  0  1  0  0  0  0  0  0  0  0  0
    8.8866  -12.4754    0.0000 C   0  0  1  0  0  0  0  0  0  0  0  0
    5.1408   20.6095    0.0000 C   0  0  1  0  0  0  0  0  0  0  0  0
   14.7275  -20.2450    0.0000 C   0  0  1  0  0  0  0  0  0  0  0  0
    5.6403   13.4655    0.0000 C   0  0  1  0  0  0  0  0  0  0  0  0
   12.9951  -13.2963    0.0000 C   0  0  1  0  0  0  0  0  0  0  0  0
    9.2940   15.5157    0.0000 C   0  0  1  0  0  0  0  0  0  0  0  0
    9.7529  -15.9498    0.0000 C   0  0  1  0  0  0  0  0  0  0  0  0
   13.1478  -21.5591    0.0000 C   0  0  0  0  0  0  0  0  0  0  0  0
    5.4481   16.2145    0.0000 C   0  0  1  0  0  0  0  0  0  0  0  0
   13.6617  -15.9701    0.0000 C   0  0  1  0  0  0  0  0  0  0  0  0
    9.1018   18.2647    0.0000 C   0  0  1  0  0  0  0  0  0  0  0  0
   10.6191  -19.4242    0.0000 C   0  0  1  0  0  0  0  0  0  0  0  0
    6.8571   22.5969    0.0000 C   0  0  0  0  0  0  0  0  0  0  0  0
    8.7945   22.6598    0.0000 C   0  0  1  0  0  0  0  0  0  0  0  0
   11.4854  -22.8986    0.0000 C   0  0  1  0  0  0  0  0  0  0  0  0
    5.3200   27.3330    0.0000 C   0  0  2  0  0  0  0  0  0  0  0  0
   15.1284  -27.1006    0.0000 C   0  0  1  0  0  0  0  0  0  0  0  0
    5.1983   19.7865    0.0000 C   0  0  1  0  0  0  0  0  0  0  0  0
   14.5280  -19.4445    0.0000 C   0  0  1  0  0  0  0  0  0  0  0  0
   13.4973  -23.3173    0.0000 C   0  0  0  0  0  0  0  0  0  0  0  0
    7.5967   25.3676    0.0000 C   0  0  2  0  0  0  0  0  0  0  0  0
   13.1747  -26.4305    0.0000 C   0  0  2  0  0  0  0  0  0  0  0  0
    8.8520   21.8368    0.0000 C   0  0  1  0  0  0  0  0  0  0  0  0
   11.2858  -22.0980    0.0000 C   0  0  1  0  0  0  0  0  0  0  0  0
    4.8910   24.1815    0.0000 C   0  0  1  0  0  0  0  0  0  0  0  0
   15.5938  -23.7194    0.0000 C   0  0  1  0  0  0  0  0  0  0  0  0
    6.7166   24.4906    0.0000 C   0  0  0  0  0  0  0  0  0  0  0  0
    4.9486   23.3586    0.0000 C   0  0  1  0  0  0  0  0  0  0  0  0
   15.3942  -22.9189    0.0000 C   0  0  1  0  0  0  0  0  0  0  0  0
   14.0141  -25.0335    0.0000 C   0  0  0  0  0  0  0  0  0  0  0  0
    8.2963   25.8048    0.0000 C   0  0  1  0  0  0  0  0  0  0  0  0
   12.3516  -26.3730    0.0000 C   0  0  1  0  0  0  0  0  0  0  0  0
    6.1997   26.2070    0.0000 C   0  0  0  0  0  0  0  0  0  0  0  0
    4.6879   27.8633    0.0000 C   0  0  2  0  0  0  0  0  0  0  0  0
   15.7605  -27.6310    0.0000 C   0  0  2  0  0  0  0  0  0  0  0  0
    8.0968   26.6053    0.0000 C   0  0  1  0  0  0  0  0  0  0  0  0
   12.1521  -25.5724    0.0000 C   0  0  1  0  0  0  0  0  0  0  0  0
    6.0984   29.3723    0.0000 C   0  0  2  0  0  0  0  0  0  0  0  0
   14.3500  -29.1399    0.0000 C   0  0  1  0  0  0  0  0  0  0  0  0
   14.3635  -26.7916    0.0000 C   0  0  0  0  0  0  0  0  0  0  0  0
    3.9883   27.4261    0.0000 C   0  0  1  0  0  0  0  0  0  0  0  0
   16.4601  -27.1938    0.0000 C   0  0  1  0  0  0  0  0  0  0  0  0
    5.8503   27.9650    0.0000 C   0  0  0  0  0  0  0  0  0  0  0  0
    4.1879   26.6256    0.0000 C   0  0  1  0  0  0  0  0  0  0  0  0
   16.2605  -26.3933    0.0000 C   0  0  1  0  0  0  0  0  0  0  0  0
    6.4074   30.1372    0.0000 C   0  0  2  0  0  0  0  0  0  0  0  0
   14.0410  -29.9049    0.0000 C   0  0  2  0  0  0  0  0  0  0  0  0
   14.8803  -28.5080    0.0000 C   0  0  0  0  0  0  0  0  0  0  0  0
   11.0503   -0.0326    0.0000 C   0  0  0  0  0  0  0  0  0  0  0  0
    5.9397   -0.3855    0.0000 C   0  0  0  0  0  0  0  0  0  0  0  0
    5.6900    3.1866    0.0000 C   0  0  0  0  0  0  0  0  0  0  0  0
   11.3002   -3.6046    0.0000 C   0  0  0  0  0  0  0  0  0  0  0  0
   10.6754    5.3300    0.0000 C   0  0  0  0  0  0  0  0  0  0  0  0
    6.6238   -6.1587    0.0000 C   0  0  0  0  0  0  0  0  0  0  0  0
    5.4402    6.7587    0.0000 C   0  0  0  0  0  0  0  0  0  0  0  0
   12.0275   -6.6565    0.0000 C   0  0  0  0  0  0  0  0  0  0  0  0
   10.4255    8.9020    0.0000 C   0  0  0  0  0  0  0  0  0  0  0  0
    7.4900   -9.6330    0.0000 C   0  0  0  0  0  0  0  0  0  0  0  0
    5.1905   10.3307    0.0000 C   0  0  0  0  0  0  0  0  0  0  0  0
   12.8938  -10.1309    0.0000 C   0  0  0  0  0  0  0  0  0  0  0  0
   10.1758   12.4740    0.0000 C   0  0  0  0  0  0  0  0  0  0  0  0
    7.2305   30.0796    0.0000 C   0  0  1  0  0  0  0  0  0  0  0  0
    8.3563  -13.1074    0.0000 C   0  0  0  0  0  0  0  0  0  0  0  0
    4.9406   13.9027    0.0000 C   0  0  0  0  0  0  0  0  0  0  0  0
   13.7600  -13.6053    0.0000 C   0  0  0  0  0  0  0  0  0  0  0  0
   13.2179  -29.8473    0.0000 C   0  0  1  0  0  0  0  0  0  0  0  0
    9.9260   16.0460    0.0000 C   0  0  0  0  0  0  0  0  0  0  0  0
    9.2226  -16.5818    0.0000 C   0  0  0  0  0  0  0  0  0  0  0  0
    4.8161   15.6842    0.0000 C   0  0  0  0  0  0  0  0  0  0  0  0
   14.1920  -15.3381    0.0000 C   0  0  0  0  0  0  0  0  0  0  0  0
    9.8014   17.8276    0.0000 C   0  0  0  0  0  0  0  0  0  0  0  0
   10.0889  -20.0562    0.0000 C   0  0  0  0  0  0  0  0  0  0  0  0
    7.4301   29.2792    0.0000 C   0  0  1  0  0  0  0  0  0  0  0  0
    4.5663   19.2562    0.0000 C   0  0  0  0  0  0  0  0  0  0  0  0
   15.0583  -18.8125    0.0000 C   0  0  0  0  0  0  0  0  0  0  0  0
   13.0183  -29.0468    0.0000 C   0  0  1  0  0  0  0  0  0  0  0  0
    4.4537   30.8074    0.0000 C   0  0  2  0  0  0  0  0  0  0  0  0
    5.3335   29.6813    0.0000 C   0  0  0  0  0  0  0  0  0  0  0  0
   15.9947  -30.5750    0.0000 C   0  0  2  0  0  0  0  0  0  0  0  0
    9.5517   21.3996    0.0000 C   0  0  0  0  0  0  0  0  0  0  0  0
   10.5208  -21.7890    0.0000 C   0  0  0  0  0  0  0  0  0  0  0  0
    4.3165   22.8283    0.0000 C   0  0  0  0  0  0  0  0  0  0  0  0
   15.9246  -22.2869    0.0000 C   0  0  0  0  0  0  0  0  0  0  0  0
    3.8217   31.3377    0.0000 C   0  0  2  0  0  0  0  0  0  0  0  0
   15.2297  -30.2660    0.0000 C   0  0  0  0  0  0  0  0  0  0  0  0
   16.6267  -31.1054    0.0000 C   0  0  2  0  0  0  0  0  0  0  0  0
    8.6271   27.2373    0.0000 C   0  0  0  0  0  0  0  0  0  0  0  0
   11.3871  -25.2634    0.0000 C   0  0  0  0  0  0  0  0  0  0  0  0
    3.1220   30.9005    0.0000 C   0  0  1  0  0  0  0  0  0  0  0  0
   17.3264  -30.6682    0.0000 C   0  0  1  0  0  0  0  0  0  0  0  0
    3.6576   25.9936    0.0000 C   0  0  0  0  0  0  0  0  0  0  0  0
   16.7908  -25.7613    0.0000 C   0  0  0  0  0  0  0  0  0  0  0  0
    3.3216   30.1000    0.0000 C   0  0  1  0  0  0  0  0  0  0  0  0
   17.1268  -29.8677    0.0000 C   0  0  1  0  0  0  0  0  0  0  0  0
    4.9840   31.4393    0.0000 C   0  0  0  0  0  0  0  0  0  0  0  0
    8.1950   28.9701    0.0000 C   0  0  0  0  0  0  0  0  0  0  0  0
   12.2534  -28.7377    0.0000 C   0  0  0  0  0  0  0  0  0  0  0  0
    5.2321   32.8467    0.0000 C   0  0  2  0  0  0  0  0  0  0  0  0
   15.4644  -32.0320    0.0000 C   0  0  1  0  0  0  0  0  0  0  0  0
    5.5413   33.6116    0.0000 C   0  0  2  0  0  0  0  0  0  0  0  0
    2.7913   29.4680    0.0000 C   0  0  0  0  0  0  0  0  0  0  0  0
   17.6571  -29.2356    0.0000 C   0  0  0  0  0  0  0  0  0  0  0  0
   14.7499  -32.4445    0.0000 C   0  0  1  0  0  0  0  0  0  0  0  0
    6.3642   33.5540    0.0000 C   0  0  1  0  0  0  0  0  0  0  0  0
    6.5638   32.7535    0.0000 C   0  0  1  0  0  0  0  0  0  0  0  0
   14.7499  -33.2696    0.0000 C   0  0  2  0  0  0  0  0  0  0  0  0
   15.4644  -33.6821    0.0000 C   0  0  1  0  0  0  0  0  0  0  0  0
   16.1788  -33.2696    0.0000 C   0  0  1  0  0  0  0  0  0  0  0  0
    4.4672   33.1557    0.0000 C   0  0  0  0  0  0  0  0  0  0  0  0
    7.3287   32.4445    0.0000 C   0  0  0  0  0  0  0  0  0  0  0  0
   16.8934  -33.6821    0.0000 C   0  0  0  0  0  0  0  0  0  0  0  0
  1248  1  0  0  0  0
  2250  1  0  0  0  0
  3249  1  0  0  0  0
  4252  1  0  0  0  0
  5251  1  0  0  0  0
  6254  1  0  0  0  0
  7253  1  0  0  0  0
  8255  1  0  0  0  0
  9256  1  0  0  0  0
 10257  1  0  0  0  0
 11258  1  0  0  0  0
 12259  1  0  0  0  0
 13260  1  0  0  0  0
 14261  1  0  0  0  0
 15262  1  0  0  0  0
 16264  1  0  0  0  0
 17263  1  0  0  0  0
 18274  1  0  0  0  0
 19265  1  0  0  0  0
 20286  1  0  0  0  0
 21192  1  0  0  0  0
 21295  1  0  0  0  0
 22193  1  0  0  0  0
 22296  1  0  0  0  0
 23194  1  0  0  0  0
 23298  1  0  0  0  0
 24195  1  0  0  0  0
 24299  1  0  0  0  0
 25196  1  0  0  0  0
 25300  1  0  0  0  0
 26197  1  0  0  0  0
 26301  1  0  0  0  0
 27198  1  0  0  0  0
 27302  1  0  0  0  0
 28280  1  0  0  0  0
 29199  1  0  0  0  0
 29303  1  0  0  0  0
 30200  1  0  0  0  0
 30304  1  0  0  0  0
 31201  1  0  0  0  0
 31305  1  0  0  0  0
 32202  1  0  0  0  0
 32306  1  0  0  0  0
 33203  1  0  0  0  0
 33307  1  0  0  0  0
 34204  1  0  0  0  0
 34308  1  0  0  0  0
 35205  1  0  0  0  0
 35309  1  0  0  0  0
 36206  1  0  0  0  0
 36312  1  0  0  0  0
 37207  1  0  0  0  0
 37313  1  0  0  0  0
 38208  1  0  0  0  0
 38314  1  0  0  0  0
 39209  1  0  0  0  0
 39315  1  0  0  0  0
 40291  1  0  0  0  0
 41210  1  0  0  0  0
 41317  1  0  0  0  0
 42289  1  0  0  0  0
 43211  1  0  0  0  0
 43318  1  0  0  0  0
 44212  1  0  0  0  0
 44319  1  0  0  0  0
 45213  1  0  0  0  0
 45320  1  0  0  0  0
 46316  1  0  0  0  0
 47297  1  0  0  0  0
 48214  1  0  0  0  0
 48326  1  0  0  0  0
 49215  1  0  0  0  0
 49327  1  0  0  0  0
 50328  1  0  0  0  0
 51216  1  0  0  0  0
 51331  1  0  0  0  0
 52217  1  0  0  0  0
 52332  1  0  0  0  0
 53321  1  0  0  0  0
 54218  1  0  0  0  0
 54336  1  0  0  0  0
 55219  1  0  0  0  0
 55337  1  0  0  0  0
 56338  1  0  0  0  0
 57335  1  0  0  0  0
 58244  1  0  0  0  0
 58344  1  0  0  0  0
 59245  1  0  0  0  0
 59345  1  0  0  0  0
 60348  1  0  0  0  0
 61341  1  0  0  0  0
 62324  1  0  0  0  0
 62352  1  0  0  0  0
 63325  1  0  0  0  0
 63353  1  0  0  0  0
 64356  1  0  0  0  0
 65351  1  0  0  0  0
 86346  1  0  0  0  0
 86381  1  0  0  0  0
 87347  1  0  0  0  0
 87384  1  0  0  0  0
 94393  1  0  0  0  0
123386  1  0  0  0  0
130385  1  0  0  0  0
130401  1  0  0  0  0
131387  1  0  0  0  0
131402  1  0  0  0  0
139357  1  0  0  0  0
140358  1  0  0  0  0
141359  1  0  0  0  0
142360  1  0  0  0  0
143361  1  0  0  0  0
144362  1  0  0  0  0
145363  1  0  0  0  0
146364  1  0  0  0  0
147365  1  0  0  0  0
148366  1  0  0  0  0
149367  1  0  0  0  0
150368  1  0  0  0  0
152369  1  0  0  0  0
153371  1  0  0  0  0
154403  1  0  0  0  0
155372  1  0  0  0  0
156373  1  0  0  0  0
158375  1  0  0  0  0
159376  1  0  0  0  0
160377  1  0  0  0  0
161378  1  0  0  0  0
162379  1  0  0  0  0
163380  1  0  0  0  0
164382  1  0  0  0  0
165383  1  0  0  0  0
166388  1  0  0  0  0
167389  1  0  0  0  0
168390  1  0  0  0  0
169391  1  0  0  0  0
172395  1  0  0  0  0
173396  1  0  0  0  0
174406  1  0  0  0  0
174413  1  0  0  0  0
177399  1  0  0  0  0
178400  1  0  0  0  0
179407  1  0  0  0  0
179416  1  0  0  0  0
180404  1  0  0  0  0
181405  1  0  0  0  0
183409  1  0  0  0  0
184410  1  0  0  0  0
189417  1  0  0  0  0
190418  1  0  0  0  0
191419  1  0  0  0  0
192  1  1  1  0  0  0
192220  1  0  0  0  0
192249  1  0  0  0  0
193  2  1  1  0  0  0
193221  1  0  0  0  0
193248  1  0  0  0  0
194  3  1  1  0  0  0
194222  1  0  0  0  0
194251  1  0  0  0  0
195  4  1  1  0  0  0
195223  1  0  0  0  0
195250  1  0  0  0  0
196  5  1  6  0  0  0
196224  1  0  0  0  0
196253  1  0  0  0  0
197  6  1  6  0  0  0
197225  1  0  0  0  0
197252  1  0  0  0  0
198  7  1  1  0  0  0
198226  1  0  0  0  0
198255  1  0  0  0  0
199  9  1  1  0  0  0
199227  1  0  0  0  0
199254  1  0  0  0  0
200  8  1  6  0  0  0
200228  1  0  0  0  0
200257  1  0  0  0  0
201 11  1  6  0  0  0
201229  1  0  0  0  0
201256  1  0  0  0  0
202 10  1  1  0  0  0
202230  1  0  0  0  0
202259  1  0  0  0  0
203 13  1  1  0  0  0
203231  1  0  0  0  0
203258  1  0  0  0  0
204 12  1  6  0  0  0
204232  1  0  0  0  0
204261  1  0  0  0  0
205 15  1  6  0  0  0
205233  1  0  0  0  0
205260  1  0  0  0  0
206 14  1  1  0  0  0
206234  1  0  0  0  0
206263  1  0  0  0  0
207 16  1  1  0  0  0
207235  1  0  0  0  0
207262  1  0  0  0  0
208 17  1  6  0  0  0
208236  1  0  0  0  0
208265  1  0  0  0  0
209 18  1  6  0  0  0
209237  1  0  0  0  0
209264  1  0  0  0  0
210 19  1  6  0  0  0
210238  1  0  0  0  0
210280  1  0  0  0  0
211 20  1  6  0  0  0
211239  1  0  0  0  0
211274  1  0  0  0  0
212 28  1  1  0  0  0
212240  1  0  0  0  0
212289  1  0  0  0  0
213 40  1  6  0  0  0
213241  1  0  0  0  0
213286  1  0  0  0  0
214 42  1  6  0  0  0
214242  1  0  0  0  0
214297  1  0  0  0  0
215 46  1  6  0  0  0
215243  1  0  0  0  0
215291  1  0  0  0  0
216 47  1  1  0  0  0
216246  1  0  0  0  0
216321  1  0  0  0  0
217 50  1  1  0  0  0
217247  1  0  0  0  0
217316  1  0  0  0  0
218 53  1  6  0  0  0
218293  1  0  0  0  0
218335  1  0  0  0  0
219 56  1  6  0  0  0
219294  1  0  0  0  0
219328  1  0  0  0  0
220 66  1  1  0  0  0
220266  1  0  0  0  0
221 67  1  1  0  0  0
221267  1  0  0  0  0
222 68  1  1  0  0  0
222268  1  0  0  0  0
223 69  1  1  0  0  0
223269  1  0  0  0  0
224 70  1  6  0  0  0
224270  1  0  0  0  0
225 71  1  6  0  0  0
225271  1  0  0  0  0
226 72  1  1  0  0  0
226272  1  0  0  0  0
227 73  1  1  0  0  0
227273  1  0  0  0  0
228 74  1  6  0  0  0
228275  1  0  0  0  0
229 75  1  6  0  0  0
229276  1  0  0  0  0
230 76  1  1  0  0  0
230277  1  0  0  0  0
231 77  1  1  0  0  0
231278  1  0  0  0  0
232 78  1  6  0  0  0
232279  1  0  0  0  0
233 79  1  6  0  0  0
233281  1  0  0  0  0
234 80  1  1  0  0  0
234282  1  0  0  0  0
235 81  1  1  0  0  0
235283  1  0  0  0  0
236 82  1  6  0  0  0
236284  1  0  0  0  0
237 83  1  6  0  0  0
237285  1  0  0  0  0
238 84  1  6  0  0  0
238287  1  0  0  0  0
239 85  1  6  0  0  0
239288  1  0  0  0  0
240 88  1  1  0  0  0
240290  1  0  0  0  0
241 89  1  6  0  0  0
241292  1  0  0  0  0
242 90  1  6  0  0  0
242310  1  0  0  0  0
243 91  1  6  0  0  0
243311  1  0  0  0  0
244 57  1  6  0  0  0
244329  1  0  0  0  0
244341  1  0  0  0  0
245 60  1  1  0  0  0
245330  1  0  0  0  0
245338  1  0  0  0  0
246 92  1  1  0  0  0
246322  1  0  0  0  0
247 93  1  1  0  0  0
247323  1  0  0  0  0
266 95  1  6  0  0  0
266295  1  0  0  0  0
267 96  1  6  0  0  0
267296  1  0  0  0  0
268 97  1  6  0  0  0
268298  1  0  0  0  0
269 98  1  6  0  0  0
269299  1  0  0  0  0
270 99  1  1  0  0  0
270300  1  0  0  0  0
271100  1  1  0  0  0
271301  1  0  0  0  0
272101  1  6  0  0  0
272302  1  0  0  0  0
273102  1  6  0  0  0
273303  1  0  0  0  0
275103  1  1  0  0  0
275304  1  0  0  0  0
276104  1  1  0  0  0
276305  1  0  0  0  0
277105  1  6  0  0  0
277306  1  0  0  0  0
278106  1  6  0  0  0
278307  1  0  0  0  0
279107  1  1  0  0  0
279308  1  0  0  0  0
281108  1  1  0  0  0
281309  1  0  0  0  0
282109  1  6  0  0  0
282312  1  0  0  0  0
283110  1  6  0  0  0
283313  1  0  0  0  0
284111  1  1  0  0  0
284314  1  0  0  0  0
285112  1  1  0  0  0
285315  1  0  0  0  0
287113  1  1  0  0  0
287317  1  0  0  0  0
288114  1  1  0  0  0
288318  1  0  0  0  0
290115  1  6  0  0  0
290319  1  0  0  0  0
292116  1  1  0  0  0
292320  1  0  0  0  0
293117  1  6  0  0  0
293333  1  0  0  0  0
294118  1  6  0  0  0
294334  1  0  0  0  0
295357  1  1  0  0  0
296358  1  1  0  0  0
298359  1  1  0  0  0
299360  1  1  0  0  0
300361  1  6  0  0  0
301362  1  6  0  0  0
302363  1  1  0  0  0
303364  1  1  0  0  0
304365  1  6  0  0  0
305366  1  6  0  0  0
306367  1  1  0  0  0
307368  1  1  0  0  0
308369  1  6  0  0  0
309371  1  6  0  0  0
310119  1  1  0  0  0
310326  1  0  0  0  0
311120  1  1  0  0  0
311327  1  0  0  0  0
312372  1  1  0  0  0
313373  1  1  0  0  0
314375  1  6  0  0  0
315376  1  6  0  0  0
317377  1  6  0  0  0
318378  1  6  0  0  0
319379  1  1  0  0  0
320380  1  6  0  0  0
322121  1  6  0  0  0
322331  1  0  0  0  0
323122  1  6  0  0  0
323332  1  0  0  0  0
324 61  1  6  0  0  0
324342  1  0  0  0  0
324351  1  0  0  0  0
325 64  1  6  0  0  0
325343  1  0  0  0  0
325348  1  0  0  0  0
326382  1  6  0  0  0
327383  1  6  0  0  0
329124  1  6  0  0  0
329339  1  0  0  0  0
330125  1  1  0  0  0
330340  1  0  0  0  0
331388  1  1  0  0  0
332389  1  1  0  0  0
333126  1  1  0  0  0
333336  1  0  0  0  0
334127  1  1  0  0  0
334337  1  0  0  0  0
336390  1  6  0  0  0
337391  1  6  0  0  0
339128  1  1  0  0  0
339344  1  0  0  0  0
340129  1  6  0  0  0
340345  1  0  0  0  0
342132  1  6  0  0  0
342349  1  0  0  0  0
343133  1  6  0  0  0
343350  1  0  0  0  0
344395  1  6  0  0  0
345396  1  1  0  0  0
346 65  1  1  0  0  0
346354  1  0  0  0  0
346386  1  0  0  0  0
347 94  1  1  0  0  0
347355  1  0  0  0  0
347356  1  0  0  0  0
349134  1  1  0  0  0
349352  1  0  0  0  0
350135  1  1  0  0  0
350353  1  0  0  0  0
352399  1  6  0  0  0
353400  1  6  0  0  0
354137  1  1  0  0  0
354370  1  0  0  0  0
355138  1  1  0  0  0
355374  1  0  0  0  0
370151  1  6  0  0  0
370381  1  0  0  0  0
374157  1  6  0  0  0
374384  1  0  0  0  0
381404  1  1  0  0  0
384405  1  1  0  0  0
385123  1  6  0  0  0
385392  1  0  0  0  0
385403  1  0  0  0  0
387136  1  6  0  0  0
387393  1  0  0  0  0
387394  1  0  0  0  0
392170  1  6  0  0  0
392397  1  0  0  0  0
394171  1  6  0  0  0
394398  1  0  0  0  0
397175  1  1  0  0  0
397401  1  0  0  0  0
398176  1  1  0  0  0
398402  1  0  0  0  0
401409  1  6  0  0  0
402410  1  6  0  0  0
406154  1  1  0  0  0
406408  1  0  0  0  0
406417  1  0  0  0  0
407136  1  1  0  0  0
407411  1  0  0  0  0
408182  1  1  0  0  0
408412  1  0  0  0  0
411185  1  1  0  0  0
411414  1  0  0  0  0
412186  1  6  0  0  0
412413  1  0  0  0  0
413418  1  1  0  0  0
414187  1  6  0  0  0
414415  1  0  0  0  0
415188  1  1  0  0  0
415416  1  0  0  0  0
416419  1  6  0  0  0
M  END
>  <DRUGBANK_ID>
DB00638

>  <DRUG_GROUPS>
approved; nutraceutical

>  <GENERIC_NAME>
Inulin

>  <BRANDS>
Inulin from Jerusalem artichokes; Inulin USP 27

>  <CHEMICAL_FORMULA>
C228H382O191

>  <MOLECULAR_WEIGHT>
6179.3581

>  <EXACT_MASS>
6176.017855026

>  <IUPAC_NAME>
(2R,3R,4S,5S,6R)-2-{[(2S,3S,4S,5R)-2-({[(2R,3S,4S,5R)-2-({[(2R,3S,4S,5R)-2-({[(2R,3S,4S,5R)-2-({[(2R,3S,4S,5R)-2-({[(2R,3S,4S,5R)-2-({[(2R,3S,4S,5R)-2-({[(2R,3S,4S,5R)-2-({[(2R,3S,4S,5R)-2-({[(2R,3S,4S,5R)-2-({[(2R,3S,4S,5R)-2-({[(2R,3S,4S,5R)-2-({[(2R,3S,4S,5R)-2-({[(2R,3S,4S,5R)-2-({[(2R,3S,4S,5R)-2-({[(2R,3S,4S,5R)-2-({[(2R,3S,4S,5R)-2-({[(2R,3S,4S,5R)-2-({[(2R,3S,4S,5R)-2-({[(2R,3S,4S,5R)-2-({[(2R,3S,4S,5R)-2-({[(2R,3S,4S,5R)-2-({[(2R,3S,4S,5R)-2-({[(2R,3S,4S,5R)-2-({[(2R,3S,4S,5R)-2-({[(2R,3S,4S,5R)-2-({[(2R,3S,4S,5R)-2-({[(2R,3S,4S,5R)-2-({[(2R,3S,4S,5R)-2-({[(2R,3S,4S,5R)-2-({[(2R,3S,4S,5R)-2-({[(2R,3S,4S,5R)-2-({[(2R,3S,4S,5R)-2-({[(2R,3S,4S,5R)-2-({[(2R,3S,4S,5R)-2-({[(2R,3S,4S,5R)-2-({[(2R,3S,4S,5R)-3,4-dihydroxy-2,5-bis(hydroxymethyl)oxolan-2-yl]oxy}methyl)-3,4-dihydroxy-5-(hydroxymethyl)oxolan-2-yl]oxy}methyl)-3,4-dihydroxy-5-(hydroxymethyl)oxolan-2-yl]oxy}methyl)-3,4-dihydroxy-5-(hydroxymethyl)oxolan-2-yl]oxy}methyl)-3,4-dihydroxy-5-(hydroxymethyl)oxolan-2-yl]oxy}methyl)-3,4-dihydroxy-5-(hydroxymethyl)oxolan-2-yl]oxy}methyl)-3,4-dihydroxy-5-(hydroxymethyl)oxolan-2-yl]oxy}methyl)-3,4-dihydroxy-5-(hydroxymethyl)oxolan-2-yl]oxy}methyl)-3,4-dihydroxy-5-(hydroxymethyl)oxolan-2-yl]oxy}methyl)-3,4-dihydroxy-5-(hydroxymethyl)oxolan-2-yl]oxy}methyl)-3,4-dihydroxy-5-(hydroxymethyl)oxolan-2-yl]oxy}methyl)-3,4-dihydroxy-5-(hydroxymethyl)oxolan-2-yl]oxy}methyl)-3,4-dihydroxy-5-(hydroxymethyl)oxolan-2-yl]oxy}methyl)-3,4-dihydroxy-5-(hydroxymethyl)oxolan-2-yl]oxy}methyl)-3,4-dihydroxy-5-(hydroxymethyl)oxolan-2-yl]oxy}methyl)-3,4-dihydroxy-5-(hydroxymethyl)oxolan-2-yl]oxy}methyl)-3,4-dihydroxy-5-(hydroxymethyl)oxolan-2-yl]oxy}methyl)-3,4-dihydroxy-5-(hydroxymethyl)oxolan-2-yl]oxy}methyl)-3,4-dihydroxy-5-(hydroxymethyl)oxolan-2-yl]oxy}methyl)-3,4-dihydroxy-5-(hydroxymethyl)oxolan-2-yl]oxy}methyl)-3,4-dihydroxy-5-(hydroxymethyl)oxolan-2-yl]oxy}methyl)-3,4-dihydroxy-5-(hydroxymethyl)oxolan-2-yl]oxy}methyl)-3,4-dihydroxy-5-(hydroxymethyl)oxolan-2-yl]oxy}methyl)-3,4-dihydroxy-5-(hydroxymethyl)oxolan-2-yl]oxy}methyl)-3,4-dihydroxy-5-(hydroxymethyl)oxolan-2-yl]oxy}methyl)-3,4-dihydroxy-5-(hydroxymethyl)oxolan-2-yl]oxy}methyl)-3,4-dihydroxy-5-(hydroxymethyl)oxolan-2-yl]oxy}methyl)-3,4-dihydroxy-5-(hydroxymethyl)oxolan-2-yl]oxy}methyl)-3,4-dihydroxy-5-(hydroxymethyl)oxolan-2-yl]oxy}methyl)-3,4-dihydroxy-5-(hydroxymethyl)oxolan-2-yl]oxy}methyl)-3,4-dihydroxy-5-(hydroxymethyl)oxolan-2-yl]oxy}methyl)-3,4-dihydroxy-5-(hydroxymethyl)oxolan-2-yl]oxy}methyl)-3,4-dihydroxy-5-(hydroxymethyl)oxolan-2-yl]oxy}methyl)-3,4-dihydroxy-5-(hydroxymethyl)oxolan-2-yl]oxy}methyl)-3,4-dihydroxy-5-(hydroxymethyl)oxolan-2-yl]oxy}methyl)-3,4-dihydroxy-5-(hydroxymethyl)oxolan-2-yl]oxy}methyl)-3,4-dihydroxy-5-(hydroxymethyl)oxolan-2-yl]oxy}-6-(hydroxymethyl)oxane-3,4,5-triol

>  <INCHI_IDENTIFIER>
InChI=1S/C228H382O191/c229-1-76-114(268)152(306)153(307)191(381-76)419-228(190(344)151(305)113(38-266)418-228)75-380-227(189(343)150(304)112(37-265)417-227)74-379-226(188(342)149(303)111(36-264)416-226)73-378-225(187(341)148(302)110(35-263)415-225)72-377-224(186(340)147(301)109(34-262)414-224)71-376-223(185(339)146(300)108(33-261)413-223)70-375-222(184(338)145(299)107(32-260)412-222)69-374-221(183(337)144(298)106(31-259)411-221)68-373-220(182(336)143(297)105(30-258)410-220)67-372-219(181(335)142(296)104(29-257)409-219)66-371-218(180(334)141(295)103(28-256)408-218)65-370-217(179(333)140(294)102(27-255)407-217)64-369-216(178(332)139(293)101(26-254)406-216)63-368-215(177(331)138(292)100(25-253)405-215)62-367-214(176(330)137(291)99(24-252)404-214)61-366-213(175(329)136(290)98(23-251)403-213)60-365-212(174(328)135(289)97(22-250)402-212)59-364-211(173(327)134(288)96(21-249)401-211)58-363-210(172(326)133(287)95(20-248)400-210)57-362-209(171(325)132(286)94(19-247)399-209)56-361-208(170(324)131(285)93(18-246)398-208)55-360-207(169(323)130(284)92(17-245)397-207)54-359-206(168(322)129(283)91(16-244)396-206)53-358-205(167(321)128(282)90(15-243)395-205)52-357-204(166(320)127(281)89(14-242)394-204)51-356-203(165(319)126(280)88(13-241)393-203)50-355-202(164(318)125(279)87(12-240)392-202)49-354-201(163(317)124(278)86(11-239)391-201)48-353-200(162(316)123(277)85(10-238)390-200)47-352-199(161(315)122(276)84(9-237)389-199)46-351-198(160(314)121(275)83(8-236)388-198)45-350-197(159(313)120(274)82(7-235)387-197)44-349-196(158(312)119(273)81(6-234)386-196)43-348-195(157(311)118(272)80(5-233)385-195)42-347-194(156(310)117(271)79(4-232)384-194)41-346-193(155(309)116(270)78(3-231)383-193)40-345-192(39-267)154(308)115(269)77(2-230)382-192/h76-191,229-344H,1-75H2/t76-,77-,78-,79-,80-,81-,82-,83-,84-,85-,86-,87-,88-,89-,90-,91-,92-,93-,94-,95-,96-,97-,98-,99-,100-,101-,102-,103-,104-,105-,106-,107-,108-,109-,110-,111-,112-,113-,114-,115-,116-,117-,118-,119-,120-,121-,122-,123-,124-,125-,126-,127-,128-,129-,130-,131-,132-,133-,134-,135-,136-,137-,138-,139-,140-,141-,142-,143-,144-,145-,146-,147-,148-,149-,150-,151-,152+,153-,154+,155+,156+,157+,158+,159+,160+,161+,162+,163+,164+,165+,166+,167+,168+,169+,170+,171+,172+,173+,174+,175+,176+,177+,178+,179+,180+,181+,182+,183+,184+,185+,186+,187+,188+,189+,190+,191-,192-,193-,194-,195-,196-,197-,198-,199-,200-,201-,202-,203-,204-,205-,206-,207-,208-,209-,210-,211-,212-,213-,214-,215-,216-,217-,218-,219-,220-,221-,222-,223-,224-,225-,226-,227-,228+/m1/s1

>  <INCHI_KEY>
InChIKey=JYJIGFIDKWBXDU-MNNPPOADSA-N

>  <SMILES>
OC[C@H]1O[C@@](CO)(OC[C@@]2(OC[C@@]3(OC[C@@]4(OC[C@@]5(OC[C@@]6(OC[C@@]7(OC[C@@]8(OC[C@@]9(OC[C@@]%10(OC[C@@]%11(OC[C@@]%12(OC[C@@]%13(OC[C@@]%14(OC[C@@]%15(OC[C@@]%16(OC[C@@]%17(OC[C@@]%18(OC[C@@]%19(OC[C@@]%20(OC[C@@]%21(OC[C@@]%22(OC[C@@]%23(OC[C@@]%24(OC[C@@]%25(OC[C@@]%26(OC[C@@]%27(OC[C@@]%28(OC[C@@]%29(OC[C@@]%30(OC[C@@]%31(OC[C@@]%32(OC[C@@]%33(OC[C@@]%34(OC[C@@]%35(OC[C@@]%36(OC[C@@]%37(O[C@H]%38O[C@H](CO)[C@@H](O)[C@H](O)[C@H]%38O)O[C@H](CO)[C@@H](O)[C@@H]%37O)O[C@H](CO)[C@@H](O)[C@@H]%36O)O[C@H](CO)[C@@H](O)[C@@H]%35O)O[C@H](CO)[C@@H](O)[C@@H]%34O)O[C@H](CO)[C@@H](O)[C@@H]%33O)O[C@H](CO)[C@@H](O)[C@@H]%32O)O[C@H](CO)[C@@H](O)[C@@H]%31O)O[C@H](CO)[C@@H](O)[C@@H]%30O)O[C@H](CO)[C@@H](O)[C@@H]%29O)O[C@H](CO)[C@@H](O)[C@@H]%28O)O[C@H](CO)[C@@H](O)[C@@H]%27O)O[C@H](CO)[C@@H](O)[C@@H]%26O)O[C@H](CO)[C@@H](O)[C@@H]%25O)O[C@H](CO)[C@@H](O)[C@@H]%24O)O[C@H](CO)[C@@H](O)[C@@H]%23O)O[C@H](CO)[C@@H](O)[C@@H]%22O)O[C@H](CO)[C@@H](O)[C@@H]%21O)O[C@H](CO)[C@@H](O)[C@@H]%20O)O[C@H](CO)[C@@H](O)[C@@H]%19O)O[C@H](CO)[C@@H](O)[C@@H]%18O)O[C@H](CO)[C@@H](O)[C@@H]%17O)O[C@H](CO)[C@@H](O)[C@@H]%16O)O[C@H](CO)[C@@H](O)[C@@H]%15O)O[C@H](CO)[C@@H](O)[C@@H]%14O)O[C@H](CO)[C@@H](O)[C@@H]%13O)O[C@H](CO)[C@@H](O)[C@@H]%12O)O[C@H](CO)[C@@H](O)[C@@H]%11O)O[C@H](CO)[C@@H](O)[C@@H]%10O)O[C@H](CO)[C@@H](O)[C@@H]9O)O[C@H](CO)[C@@H](O)[C@@H]8O)O[C@H](CO)[C@@H](O)[C@@H]7O)O[C@H](CO)[C@@H](O)[C@@H]6O)O[C@H](CO)[C@@H](O)[C@@H]5O)O[C@H](CO)[C@@H](O)[C@@H]4O)O[C@H](CO)[C@@H](O)[C@@H]3O)O[C@H](CO)[C@@H](O)[C@@H]2O)[C@@H](O)[C@@H]1O

>  <JCHEM_ACCEPTOR_COUNT>
191

>  <JCHEM_DONOR_COUNT>
116

>  <JCHEM_ACIDIC_PKA>
11.27

>  <JCHEM_BASIC_PKA>
-4

>  <JCHEM_PHYSIOLOGICAL_CHARGE>
0

>  <JCHEM_LOGP>
-62

>  <JCHEM_POLAR_SURFACE_AREA>
3038.93

>  <JCHEM_REFRACTIVITY>
1251.4

>  <JCHEM_ROTATABLE_BOND_COUNT>
149 __

$$$$
DB00755
 OpenBabel03171413522D

 22 22  0  0  0  0  0  0  0  0999 V2000
    2.0930    0.0000    0.0000 O   0  0  0  0  0  0  0  0  0  0  0  0
    2.8075    1.2375    0.0000 O   0  0  0  0  0  0  0  0  0  0  0  0
    9.9524    0.4125    0.0000 C   0  0  0  0  0  0  0  0  0  0  0  0
   10.6668    0.0000    0.0000 C   0  0  0  0  0  0  0  0  0  0  0  0
   10.6668   -0.8250    0.0000 C   0  0  0  0  0  0  0  0  0  0  0  0
    9.2379    0.0000    0.0000 C   0  0  0  0  0  0  0  0  0  0  0  0
    9.9524   -1.2375    0.0000 C   0  0  0  0  0  0  0  0  0  0  0  0
    9.2379   -0.8250    0.0000 C   0  0  0  0  0  0  0  0  0  0  0  0
   10.3649    1.1270    0.0000 C   0  0  0  0  0  0  0  0  0  0  0  0
    9.5398    1.1270    0.0000 C   0  0  0  0  0  0  0  0  0  0  0  0
    8.5234    0.4125    0.0000 C   0  0  0  0  0  0  0  0  0  0  0  0
    8.5234   -1.2375    0.0000 C   0  0  0  0  0  0  0  0  0  0  0  0
    7.8089    0.0000    0.0000 C   0  0  0  0  0  0  0  0  0  0  0  0
    7.0944    0.4125    0.0000 C   0  0  0  0  0  0  0  0  0  0  0  0
    7.0944    1.2375    0.0000 C   0  0  0  0  0  0  0  0  0  0  0  0
    6.3799    0.0000    0.0000 C   0  0  0  0  0  0  0  0  0  0  0  0
    5.6655    0.4125    0.0000 C   0  0  0  0  0  0  0  0  0  0  0  0
    4.9509    0.0000    0.0000 C   0  0  0  0  0  0  0  0  0  0  0  0
    4.2365    0.4125    0.0000 C   0  0  0  0  0  0  0  0  0  0  0  0
    4.2365    1.2375    0.0000 C   0  0  0  0  0  0  0  0  0  0  0  0
    3.5220    0.0000    0.0000 C   0  0  0  0  0  0  0  0  0  0  0  0
    2.8075    0.4125    0.0000 C   0  0  0  0  0  0  0  0  0  0  0  0
  1 22  1  0  0  0  0
  2 22  2  0  0  0  0
  3  4  1  0  0  0  0
  3  6  1  0  0  0  0
  3  9  1  0  0  0  0
  3 10  1  0  0  0  0
  4  5  1  0  0  0  0
  5  7  1  0  0  0  0
  6  8  2  0  0  0  0
  6 11  1  0  0  0  0
  7  8  1  0  0  0  0
  8 12  1  0  0  0  0
 11 13  2  3  0  0  0
 13 14  1  0  0  0  0
 14 15  1  0  0  0  0
 14 16  2  3  0  0  0
 16 17  1  0  0  0  0
 17 18  2  3  0  0  0
 18 19  1  0  0  0  0
 19 20  1  0  0  0  0
 19 21  2  3  0  0  0
 21 22  1  0  0  0  0
M  END
>  <DRUGBANK_ID>
DB00755

>  <DRUG_GROUPS>
approved; nutraceutical; investigational

>  <GENERIC_NAME>
Tretinoin

>  <SYNONYMS>
All Trans Retinoic Acid; All Trans-Retinoic Acid; ATRA; beta-Retinoic Acid; Retionic Acid

>  <BRANDS>
Aberel; Accutane; Airol; Aknefug; Aknoten; Amnesteem; Atra-IV; Claravis; Dermairol; Eudyna; Lsotretinoin; Retisol-A; Solage; Sotret; Stieva-A; Stieva-a Forte; Vitinoin

>  <CHEMICAL_FORMULA>
C20H28O2

>  <MOLECULAR_WEIGHT>
300.4351

>  <EXACT_MASS>
300.20893014

>  <IUPAC_NAME>
3,7-dimethyl-9-(2,6,6-trimethylcyclohex-1-en-1-yl)nona-2,4,6,8-tetraenoic acid

>  <INCHI_IDENTIFIER>
InChI=1S/C20H28O2/c1-15(8-6-9-16(2)14-19(21)22)11-12-18-17(3)10-7-13-20(18,4)5/h6,8-9,11-12,14H,7,10,13H2,1-5H3,(H,21,22)/b9-6+,12-11+,15-8+,16-14+

>  <INCHI_KEY>
InChIKey=SHGAZHPCJJPHSC-YCNIQYBTSA-N

>  <SMILES>
CC(C=CC1=C(C)CCCC1(C)C)=CC=CC(C)=CC(O)=O

>  <JCHEM_ACCEPTOR_COUNT>
2

>  <JCHEM_DONOR_COUNT>
1

>  <JCHEM_ACIDIC_PKA>
5

>  <JCHEM_PHYSIOLOGICAL_CHARGE>
-1

>  <ALOGPS_LOGP>
5.66

>  <JCHEM_LOGP>
5.01

>  <ALOGPS_LOGS>
-4.8

>  <JCHEM_POLARIZABILITY>
36.62

>  <JCHEM_POLAR_SURFACE_AREA>
37.3

>  <JCHEM_REFRACTIVITY>
97.79

>  <JCHEM_ROTATABLE_BOND_COUNT>
5

>  <ALOGPS_SOLUBILITY>
4.77e-03 g/l __

$$$$
DB00758
 OpenBabel03171413522D

 22 24  0  0  1  0  0  0  0  0999 V2000
    2.3645    0.6188    0.0000 Cl  0  0  0  0  0  0  0  0  0  0  0  0
    6.7176   -1.6952    0.0000 S   0  0  0  0  0  0  0  0  0  0  0  0
    4.5080   -0.6188    0.0000 N   0  0  0  0  0  0  0  0  0  0  0  0
    4.5080   -1.4438    0.0000 C   0  0  0  0  0  0  0  0  0  0  0  0
    5.2224   -0.2063    0.0000 C   0  0  0  0  0  0  0  0  0  0  0  0
    3.7935   -0.2063    0.0000 C   0  0  1  0  0  0  0  0  0  0  0  0
    5.2224   -1.8563    0.0000 C   0  0  0  0  0  0  0  0  0  0  0  0
    5.9370   -0.6188    0.0000 C   0  0  0  0  0  0  0  0  0  0  0  0
    5.9370   -1.4438    0.0000 C   0  0  0  0  0  0  0  0  0  0  0  0
    3.0791   -0.6188    0.0000 C   0  0  0  0  0  0  0  0  0  0  0  0
    6.7176   -0.3674    0.0000 C   0  0  0  0  0  0  0  0  0  0  0  0
    7.1991   -1.0313    0.0000 C   0  0  0  0  0  0  0  0  0  0  0  0
    2.3645   -0.2063    0.0000 C   0  0  0  0  0  0  0  0  0  0  0  0
    3.0791   -1.4438    0.0000 C   0  0  0  0  0  0  0  0  0  0  0  0
    1.6500   -0.6188    0.0000 C   0  0  0  0  0  0  0  0  0  0  0  0
    2.3645   -1.8563    0.0000 C   0  0  0  0  0  0  0  0  0  0  0  0
    1.6500   -1.4438    0.0000 C   0  0  0  0  0  0  0  0  0  0  0  0
    3.7935    0.6187    0.0000 C   0  0  0  0  0  0  0  0  0  0  0  0
    3.0790    1.0312    0.0000 O   0  0  0  0  0  0  0  0  0  0  0  0
    4.5080    1.0312    0.0000 O   0  0  0  0  0  0  0  0  0  0  0  0
    5.2224    1.4437    0.0000 C   0  0  0  0  0  0  0  0  0  0  0  0
    4.0070   -1.0032    0.0000 H   0  0  0  0  0  0  0  0  0  0  0  0
  1 13  1  0  0  0  0
  2  9  1  0  0  0  0
  2 12  1  0  0  0  0
  3  4  1  0  0  0  0
  3  5  1  0  0  0  0
  3  6  1  0  0  0  0
  4  7  1  0  0  0  0
  5  8  1  0  0  0  0
  6 10  1  0  0  0  0
  6 18  1  0  0  0  0
  6 22  1  6  0  0  0
  7  9  1  0  0  0  0
  8  9  2  0  0  0  0
  8 11  1  0  0  0  0
 10 13  1  0  0  0  0
 10 14  2  0  0  0  0
 11 12  2  0  0  0  0
 13 15  2  0  0  0  0
 14 16  1  0  0  0  0
 15 17  1  0  0  0  0
 16 17  2  0  0  0  0
 18 19  2  0  0  0  0
 18 20  1  0  0  0  0
 20 21  1  0  0  0  0
M  END
>  <DRUGBANK_ID>
DB00758

>  <DRUG_GROUPS>
approved; nutraceutical

>  <GENERIC_NAME>
Clopidogrel

>  <SYNONYMS>
(+/-)-Clopidogrel bisulfate; CLOPIDOGREL BISULPHATE; CLOPIDOGREL HYDROGEN SULPHATE; CLOPIDOGREL SULPHATE; SR-25990C

>  <BRANDS>
Plavix; Plavix

>  <CHEMICAL_FORMULA>
C16H16ClNO2S

>  <MOLECULAR_WEIGHT>
321.822

>  <EXACT_MASS>
321.059027158

>  <IUPAC_NAME>
methyl (2S)-2-(2-chlorophenyl)-2-{4H,5H,6H,7H-thieno[3,2-c]pyridin-5-yl}acetate

>  <INCHI_IDENTIFIER>
InChI=1S/C16H16ClNO2S/c1-20-16(19)15(12-4-2-3-5-13(12)17)18-8-6-14-11(10-18)7-9-21-14/h2-5,7,9,15H,6,8,10H2,1H3/t15-/m0/s1

>  <INCHI_KEY>
InChIKey=GKTWGGQPFAXNFI-HNNXBMFYSA-N

>  <SMILES>
[H][C@@](N1CCC2=C(C1)C=CS2)(C(=O)OC)C1=CC=CC=C1Cl

>  <JCHEM_ACCEPTOR_COUNT>
2

>  <JCHEM_DONOR_COUNT>
0

>  <JCHEM_BASIC_PKA>
5.14

>  <JCHEM_PHYSIOLOGICAL_CHARGE>
0

>  <ALOGPS_LOGP>
3.84

>  <JCHEM_LOGP>
4.03

>  <ALOGPS_LOGS>
-4.4

>  <JCHEM_POLARIZABILITY>
33.19

>  <JCHEM_POLAR_SURFACE_AREA>
29.54

>  <JCHEM_REFRACTIVITY>
84.93

>  <JCHEM_ROTATABLE_BOND_COUNT>
4

>  <ALOGPS_SOLUBILITY>
1.18e-02 g/l __

$$$$
DB01065
 OpenBabel03171413522D

 17 18  0  0  0  0  0  0  0  0999 V2000
    2.3645   -0.2783    0.0000 O   0  0  0  0  0  0  0  0  0  0  0  0
    7.9668    0.8552    0.0000 O   0  0  0  0  0  0  0  0  0  0  0  0
    5.2886   -1.7673    0.0000 N   0  0  0  0  0  0  0  0  0  0  0  0
    6.6086    1.2992    0.0000 N   0  0  0  0  0  0  0  0  0  0  0  0
    5.2886   -0.4394    0.0000 C   0  0  0  0  0  0  0  0  0  0  0  0
    4.5080   -0.6908    0.0000 C   0  0  0  0  0  0  0  0  0  0  0  0
    5.5449    0.3448    0.0000 C   0  0  0  0  0  0  0  0  0  0  0  0
    4.5080   -1.5158    0.0000 C   0  0  0  0  0  0  0  0  0  0  0  0
    5.7701   -1.1033    0.0000 C   0  0  0  0  0  0  0  0  0  0  0  0
    6.3522    0.5149    0.0000 C   0  0  0  0  0  0  0  0  0  0  0  0
    3.7935   -0.2783    0.0000 C   0  0  0  0  0  0  0  0  0  0  0  0
    3.7935   -1.9283    0.0000 C   0  0  0  0  0  0  0  0  0  0  0  0
    3.0791   -0.6908    0.0000 C   0  0  0  0  0  0  0  0  0  0  0  0
    3.0791   -1.5158    0.0000 C   0  0  0  0  0  0  0  0  0  0  0  0
    7.4158    1.4693    0.0000 C   0  0  0  0  0  0  0  0  0  0  0  0
    7.6721    2.2535    0.0000 C   0  0  0  0  0  0  0  0  0  0  0  0
    1.6500   -0.6908    0.0000 C   0  0  0  0  0  0  0  0  0  0  0  0
  1 13  1  0  0  0  0
  1 17  1  0  0  0  0
  2 15  2  0  0  0  0
  3  8  1  0  0  0  0
  3  9  1  0  0  0  0
  4 10  1  0  0  0  0
  4 15  1  0  0  0  0
  5  6  1  0  0  0  0
  5  7  1  0  0  0  0
  5  9  2  0  0  0  0
  6  8  2  0  0  0  0
  6 11  1  0  0  0  0
  7 10  1  0  0  0  0
  8 12  1  0  0  0  0
 11 13  2  0  0  0  0
 12 14  2  0  0  0  0
 13 14  1  0  0  0  0
 15 16  1  0  0  0  0
M  END
>  <DRUGBANK_ID>
DB01065

>  <DRUG_GROUPS>
approved; nutraceutical

>  <GENERIC_NAME>
Melatonin

>  <SYNONYMS>
MEL; MLT; N-acetyl-5-methoxytryptamine; Pineal Hormone

>  <BRANDS>
Circadin; Mela-T; Melatol; Melatonex; Melatonin; Melatonine; Melovine; MT6; Nature'S Harmony; Night Rest; Revital Melatonin; Rx Balance; Sleep Right; Vivitas

>  <CHEMICAL_FORMULA>
C13H16N2O2

>  <MOLECULAR_WEIGHT>
232.2783

>  <EXACT_MASS>
232.121177766

>  <IUPAC_NAME>
N-[2-(5-methoxy-1H-indol-3-yl)ethyl]acetamide

>  <INCHI_IDENTIFIER>
InChI=1S/C13H16N2O2/c1-9(16)14-6-5-10-8-15-13-4-3-11(17-2)7-12(10)13/h3-4,7-8,15H,5-6H2,1-2H3,(H,14,16)

>  <INCHI_KEY>
InChIKey=DRLFMBDRBRZALE-UHFFFAOYSA-N

>  <SMILES>
COC1=CC2=C(NC=C2CCNC(C)=O)C=C1

>  <JCHEM_ACCEPTOR_COUNT>
2

>  <JCHEM_DONOR_COUNT>
2

>  <JCHEM_ACIDIC_PKA>
15.8

>  <JCHEM_BASIC_PKA>
-0.94

>  <JCHEM_PHYSIOLOGICAL_CHARGE>
0

>  <ALOGPS_LOGP>
1.42

>  <JCHEM_LOGP>
1.15

>  <ALOGPS_LOGS>
-3.2

>  <JCHEM_POLARIZABILITY>
25.65

>  <JCHEM_POLAR_SURFACE_AREA>
54.12

>  <JCHEM_REFRACTIVITY>
66.28

>  <JCHEM_ROTATABLE_BOND_COUNT>
4

>  <ALOGPS_SOLUBILITY>
1.43e-01 g/l __

$$$$
DB01322
 OpenBabel03171413522D

 17 18  0  0  1  0  0  0  0  0999 V2000
    5.9370   -0.8250    0.0000 O   0  0  0  0  0  0  0  0  0  0  0  0
    5.9370    1.6500    0.0000 O   0  0  0  0  0  0  0  0  0  0  0  0
    7.3659   -0.8250    0.0000 O   0  0  0  0  0  0  0  0  0  0  0  0
    5.2224   -0.4125    0.0000 C   0  0  3  0  0  0  0  0  0  0  0  0
    5.2224    0.4125    0.0000 C   0  0  0  0  0  0  0  0  0  0  0  0
    4.5080   -0.8250    0.0000 C   0  0  0  0  0  0  0  0  0  0  0  0
    1.6500   -0.8250    0.0000 C   0  0  0  0  0  0  0  0  0  0  0  0
    5.9370    0.8250    0.0000 C   0  0  0  0  0  0  0  0  0  0  0  0
    3.0791   -0.8250    0.0000 C   0  0  0  0  0  0  0  0  0  0  0  0
    1.6500   -1.6500    0.0000 C   0  0  0  0  0  0  0  0  0  0  0  0
    3.7935   -0.4125    0.0000 C   0  0  0  0  0  0  0  0  0  0  0  0
    2.3645   -0.4125    0.0000 C   0  0  0  0  0  0  0  0  0  0  0  0
    3.0791   -1.6500    0.0000 C   0  0  0  0  0  0  0  0  0  0  0  0
    2.3645   -2.0625    0.0000 C   0  0  0  0  0  0  0  0  0  0  0  0
    6.6515    0.4125    0.0000 C   0  0  0  0  0  0  0  0  0  0  0  0
    6.6515   -0.4125    0.0000 C   0  0  0  0  0  0  0  0  0  0  0  0
    6.6515    2.0625    0.0000 C   0  0  0  0  0  0  0  0  0  0  0  0
  1  4  1  0  0  0  0
  1 16  1  0  0  0  0
  2  8  1  0  0  0  0
  2 17  1  0  0  0  0
  3 16  2  0  0  0  0
  4  5  1  0  0  0  0
  4  6  1  0  0  0  0
  5  8  1  0  0  0  0
  6 11  2  0  0  0  0
  7 10  1  0  0  0  0
  7 12  1  0  0  0  0
  8 15  2  0  0  0  0
  9 11  1  0  0  0  0
  9 12  2  0  0  0  0
  9 13  1  0  0  0  0
 10 14  1  0  0  0  0
 13 14  2  0  0  0  0
 15 16  1  0  0  0  0
M  END
>  <DRUGBANK_ID>
DB01322

>  <DRUG_GROUPS>
nutraceutical

>  <GENERIC_NAME>
Kava

>  <CHEMICAL_FORMULA>
C14H16O3

>  <MOLECULAR_WEIGHT>
232.275

>  <EXACT_MASS>
232.109944378

>  <IUPAC_NAME>
6-[(E)-2-(cyclohexa-1,5-dien-1-yl)ethenyl]-4-methoxy-5,6-dihydro-2H-pyran-2-one

>  <INCHI_IDENTIFIER>
InChI=1S/C14H16O3/c1-16-13-9-12(17-14(15)10-13)8-7-11-5-3-2-4-6-11/h3,5-8,10,12H,2,4,9H2,1H3/b8-7+

>  <INCHI_KEY>
InChIKey=OMNGEVNATYFZGG-BQYQJAHWSA-N

>  <SMILES>
COC1=CC(=O)OC(C1)\C=C\C1=CCCC=C1

>  <JCHEM_ACCEPTOR_COUNT>
2

>  <JCHEM_DONOR_COUNT>
0

>  <JCHEM_ACIDIC_PKA>
16.55

>  <JCHEM_BASIC_PKA>
-4.8

>  <JCHEM_PHYSIOLOGICAL_CHARGE>
0

>  <ALOGPS_LOGP>
2.74

>  <JCHEM_LOGP>
2.05

>  <ALOGPS_LOGS>
-3.6

>  <JCHEM_POLARIZABILITY>
25.66

>  <JCHEM_POLAR_SURFACE_AREA>
35.53

>  <JCHEM_REFRACTIVITY>
70.38

>  <JCHEM_ROTATABLE_BOND_COUNT>
3

>  <ALOGPS_SOLUBILITY>
6.32e-02 g/l __

$$$$
DB01434
 OpenBabel03171413522D

 24 27  0  0  1  0  0  0  0  0999 V2000
   14.7660   -9.2663    0.0000 C   0  0  2  0  0  0  0  0  0  0  0  0
   15.4807   -8.8579    0.0000 C   0  0  0  0  0  0  0  0  0  0  0  0
   14.7590  -10.0936    0.0000 C   0  0  2  0  0  0  0  0  0  0  0  0
   14.0583   -8.8543    0.0000 C   0  0  0  0  0  0  0  0  0  0  0  0
   14.7625   -8.4426    0.0000 C   0  0  0  0  0  0  0  0  0  0  0  0
   16.1954   -9.2734    0.0000 C   0  0  0  0  0  0  0  0  0  0  0  0
   14.0443  -10.5020    0.0000 C   0  0  1  0  0  0  0  0  0  0  0  0
   16.1884  -10.1006    0.0000 C   0  0  0  0  0  0  0  0  0  0  0  0
   13.3402   -9.2593    0.0000 C   0  0  0  0  0  0  0  0  0  0  0  0
   13.3331  -10.0831    0.0000 C   0  0  2  0  0  0  0  0  0  0  0  0
   14.0443  -11.3295    0.0000 C   0  0  0  0  0  0  0  0  0  0  0  0
   12.6183  -10.4915    0.0000 C   0  0  2  0  0  0  0  0  0  0  0  0
   13.3260  -11.7380    0.0000 C   0  0  0  0  0  0  0  0  0  0  0  0
   12.6149  -11.3224    0.0000 C   0  0  0  0  0  0  0  0  0  0  0  0
   11.9072  -10.0795    0.0000 C   0  0  0  0  0  0  0  0  0  0  0  0
   11.9072  -11.7344    0.0000 C   0  0  0  0  0  0  0  0  0  0  0  0
   11.1924  -10.4915    0.0000 C   0  0  0  0  0  0  0  0  0  0  0  0
   11.1924  -11.3224    0.0000 C   0  0  0  0  0  0  0  0  0  0  0  0
   10.4743  -11.7309    0.0000 O   0  0  0  0  0  0  0  0  0  0  0  0
   14.7520  -10.9140    0.0000 H   0  0  0  0  0  0  0  0  0  0  0  0
   14.0372   -9.6712    0.0000 H   0  0  0  0  0  0  0  0  0  0  0  0
   13.3260  -10.9070    0.0000 H   0  0  0  0  0  0  0  0  0  0  0  0
   12.6112   -9.6677    0.0000 H   0  0  0  0  0  0  0  0  0  0  0  0
   15.4837   -8.0024    0.0000 O   0  0  0  0  0  0  0  0  0  0  0  0
  1  2  1  0  0  0  0
  1  3  1  0  0  0  0
  1  4  1  0  0  0  0
  1  5  1  1  0  0  0
  2  6  1  0  0  0  0
  2 24  2  0  0  0  0
  3  7  1  0  0  0  0
  3  8  1  0  0  0  0
  3 20  1  6  0  0  0
  4  9  1  0  0  0  0
  6  8  1  0  0  0  0
  7 10  1  0  0  0  0
  7 11  1  0  0  0  0
  7 21  1  1  0  0  0
  9 10  1  0  0  0  0
 10 12  1  0  0  0  0
 10 22  1  6  0  0  0
 11 13  1  0  0  0  0
 12 14  1  0  0  0  0
 12 15  1  0  0  0  0
 12 23  1  1  0  0  0
 13 14  1  0  0  0  0
 14 16  2  0  0  0  0
 15 17  1  0  0  0  0
 16 18  1  0  0  0  0
 17 18  1  0  0  0  0
 18 19  2  0  0  0  0
M  END
>  <DRUGBANK_ID>
DB01434

>  <DRUG_GROUPS>
experimental; nutraceutical

>  <GENERIC_NAME>
19-norandrostenedione

>  <SYNONYMS>
delta4-Estrene-3,17-dione

>  <BRANDS>
19-N-Andro; Bolandione; Proven Pure 19-Norandrostenedione

>  <CHEMICAL_FORMULA>
C18H24O2

>  <MOLECULAR_WEIGHT>
272.382

>  <EXACT_MASS>
272.177630012

>  <IUPAC_NAME>
(1S,2R,10R,11S,15S)-15-methyltetracyclo[8.7.0.0^{2,7}.0^{11,15}]heptadec-6-ene-5,14-dione

>  <INCHI_IDENTIFIER>
InChI=1S/C18H24O2/c1-18-9-8-14-13-5-3-12(19)10-11(13)2-4-15(14)16(18)6-7-17(18)20/h10,13-16H,2-9H2,1H3/t13-,14+,15+,16-,18-/m0/s1

>  <INCHI_KEY>
InChIKey=JRIZOGLBRPZBLQ-QXUSFIETSA-N

>  <SMILES>
[H][C@@]12CCC(=O)[C@@]1(C)CC[C@]1([H])[C@@]3([H])CCC(=O)C=C3CC[C@@]21[H]

>  <JCHEM_ACCEPTOR_COUNT>
2

>  <JCHEM_DONOR_COUNT>
0

>  <JCHEM_ACIDIC_PKA>
19.19

>  <JCHEM_BASIC_PKA>
-4.7

>  <JCHEM_PHYSIOLOGICAL_CHARGE>
0

>  <ALOGPS_LOGP>
2.53

>  <JCHEM_LOGP>
3.63

>  <ALOGPS_LOGS>
-3.8

>  <JCHEM_POLARIZABILITY>
31.54

>  <JCHEM_POLAR_SURFACE_AREA>
34.14

>  <JCHEM_REFRACTIVITY>
79.13

>  <JCHEM_ROTATABLE_BOND_COUNT>
0

>  <ALOGPS_SOLUBILITY>
4.54e-02 g/l __

$$$$
DB01436
 OpenBabel03171413522D

 31 33  0  0  1  0  0  0  0  0999 V2000
    1.6500   -3.9985    0.0000 O   0  0  0  0  0  0  0  0  0  0  0  0
    4.5080   -3.9985    0.0000 O   0  0  0  0  0  0  0  0  0  0  0  0
    4.5080    0.9517    0.0000 C   0  0  2  0  0  0  0  0  0  0  0  0
    5.2886    1.2030    0.0000 C   0  0  2  0  0  0  0  0  0  0  0  0
    4.5080    0.1266    0.0000 C   0  0  1  0  0  0  0  0  0  0  0  0
    5.7701    0.5391    0.0000 C   0  0  0  0  0  0  0  0  0  0  0  0
    5.2886   -0.1247    0.0000 C   0  0  0  0  0  0  0  0  0  0  0  0
    3.7935    1.3642    0.0000 C   0  0  0  0  0  0  0  0  0  0  0  0
    5.5449    1.9872    0.0000 C   0  0  1  0  0  0  0  0  0  0  0  0
    3.7935   -0.2859    0.0000 C   0  0  0  0  0  0  0  0  0  0  0  0
    4.5080    1.7767    0.0000 C   0  0  0  0  0  0  0  0  0  0  0  0
    3.0791    0.9517    0.0000 C   0  0  0  0  0  0  0  0  0  0  0  0
    3.0791    0.1266    0.0000 C   0  0  0  0  0  0  0  0  0  0  0  0
    6.3522    2.1574    0.0000 C   0  0  0  0  0  0  0  0  0  0  0  0
    4.9939    2.6013    0.0000 C   0  0  0  0  0  0  0  0  0  0  0  0
    3.7935   -1.1109    0.0000 C   0  0  0  0  0  0  0  0  0  0  0  0
    6.6086    2.9416    0.0000 C   0  0  0  0  0  0  0  0  0  0  0  0
    7.4158    3.1117    0.0000 C   0  0  0  0  0  0  0  0  0  0  0  0
    3.0791   -1.5234    0.0000 C   0  0  0  0  0  0  0  0  0  0  0  0
    7.6721    3.8959    0.0000 C   0  0  0  0  0  0  0  0  0  0  0  0
    3.0791   -2.3484    0.0000 C   0  0  0  0  0  0  0  0  0  0  0  0
    2.3645   -2.7609    0.0000 C   0  0  0  0  0  0  0  0  0  0  0  0
    3.7935   -2.7609    0.0000 C   0  0  0  0  0  0  0  0  0  0  0  0
    7.1211    4.5100    0.0000 C   0  0  0  0  0  0  0  0  0  0  0  0
    8.4794    4.0660    0.0000 C   0  0  0  0  0  0  0  0  0  0  0  0
    2.3645   -3.5859    0.0000 C   0  0  2  0  0  0  0  0  0  0  0  0
    3.7935   -3.5859    0.0000 C   0  0  2  0  0  0  0  0  0  0  0  0
    3.0791   -3.9985    0.0000 C   0  0  0  0  0  0  0  0  0  0  0  0
    4.5080   -2.3484    0.0000 C   0  0  0  0  0  0  0  0  0  0  0  0
    5.9406    1.3054    0.0000 H   0  0  0  0  0  0  0  0  0  0  0  0
    4.5779   -0.5297    0.0000 H   0  0  0  0  0  0  0  0  0  0  0  0
  3  4  1  0  0  0  0
  3  5  1  0  0  0  0
  3  8  1  0  0  0  0
  3 11  1  1  0  0  0
  4  6  1  0  0  0  0
  4  9  1  0  0  0  0
  4 30  1  6  0  0  0
  5  7  1  0  0  0  0
  5 10  1  0  0  0  0
  5 31  1  6  0  0  0
  6  7  1  0  0  0  0
  8 12  1  0  0  0  0
  9 14  1  6  0  0  0
  9 15  1  0  0  0  0
 10 13  1  0  0  0  0
 10 16  2  0  0  0  0
 12 13  1  0  0  0  0
 14 17  1  0  0  0  0
 16 19  1  0  0  0  0
 17 18  1  0  0  0  0
 18 20  1  0  0  0  0
 19 21  2  0  0  0  0
 20 24  1  0  0  0  0
 20 25  1  0  0  0  0
 21 22  1  0  0  0  0
 21 23  1  0  0  0  0
 22 26  1  0  0  0  0
 23 27  1  0  0  0  0
 23 29  2  0  0  0  0
 26  1  1  6  0  0  0
 26 28  1  0  0  0  0
 27  2  1  1  0  0  0
 27 28  1  0  0  0  0
M  END
>  <DRUGBANK_ID>
DB01436

>  <DRUG_GROUPS>
approved; nutraceutical

>  <GENERIC_NAME>
Alfacalcidol

>  <SYNONYMS>
1-hydroxycholecalciferol; 1alpha-hydroxycholecalciferol; 1alpha-hydroxyvitamin D3

>  <BRANDS>
Alsiodol; One Alpha

>  <CHEMICAL_FORMULA>
C27H44O2

>  <MOLECULAR_WEIGHT>
400.6371

>  <EXACT_MASS>
400.334130652

>  <IUPAC_NAME>
(1R,3S,5Z)-5-{2-[(1R,3aS,4E,7aR)-7a-methyl-1-[(2R)-6-methylheptan-2-yl]-octahydro-1H-inden-4-ylidene]ethylidene}-4-methylidenecyclohexane-1,3-diol

>  <INCHI_IDENTIFIER>
InChI=1S/C27H44O2/c1-18(2)8-6-9-19(3)24-13-14-25-21(10-7-15-27(24,25)5)11-12-22-16-23(28)17-26(29)20(22)4/h11-12,18-19,23-26,28-29H,4,6-10,13-17H2,1-3,5H3/b21-11+,22-12-/t19-,23-,24-,25+,26+,27-/m1/s1

>  <INCHI_KEY>
InChIKey=OFHCOWSQAMBJIW-AVJTYSNKSA-N

>  <SMILES>
CC(C)CCC[C@@H](C)[C@@]1([H])CC[C@@]2([H])\C(CCC[C@]12C)=C\C=C1\C[C@@H](O)C[C@H](O)C1=C

>  <JCHEM_ACCEPTOR_COUNT>
2

>  <JCHEM_DONOR_COUNT>
2

>  <JCHEM_ACIDIC_PKA>
14.39

>  <JCHEM_BASIC_PKA>
-2.8

>  <JCHEM_PHYSIOLOGICAL_CHARGE>
0

>  <ALOGPS_LOGP>
6.68

>  <JCHEM_LOGP>
5.82

>  <ALOGPS_LOGS>
-5.4

>  <JCHEM_POLARIZABILITY>
50.55

>  <JCHEM_POLAR_SURFACE_AREA>
40.46

>  <JCHEM_REFRACTIVITY>
124.7

>  <JCHEM_ROTATABLE_BOND_COUNT>
6

>  <ALOGPS_SOLUBILITY>
1.63e-03 g/l __

$$$$
DB01708
 OpenBabel03171413522D

 25 28  0  0  0  0  0  0  0  0999 V2000
    1.4289   -0.5277    0.0000 C   0  0  0  0  0  0  0  0  0  0  0  0
    2.2410   -0.3824    0.0000 C   0  0  0  0  0  0  0  0  0  0  0  0
    2.5213    0.3935    0.0000 C   0  0  2  0  0  0  0  0  0  0  0  0
    3.3334    0.5387    0.0000 O   0  0  0  0  0  0  0  0  0  0  0  0
    1.9895    1.0242    0.0000 C   0  0  0  0  0  0  0  0  0  0  0  0
    1.1774    0.8790    0.0000 C   0  0  0  0  0  0  0  0  0  0  0  0
    0.6455    1.5097    0.0000 C   0  0  0  0  0  0  0  0  0  0  0  0
   -0.1666    1.3645    0.0000 C   0  0  0  0  0  0  0  0  0  0  0  0
   -0.4469    0.5885    0.0000 C   0  0  2  0  0  0  0  0  0  0  0  0
    0.0849   -0.0422    0.0000 C   0  0  1  0  0  0  0  0  0  0  0  0
    0.8971    0.1030    0.0000 C   0  0  1  0  0  0  0  0  0  0  0  0
   -0.1954   -0.8181    0.0000 C   0  0  0  0  0  0  0  0  0  0  0  0
   -1.0075   -0.9633    0.0000 C   0  0  0  0  0  0  0  0  0  0  0  0
   -1.5393   -0.3326    0.0000 C   0  0  1  0  0  0  0  0  0  0  0  0
   -1.2590    0.4433    0.0000 C   0  0  1  0  0  0  0  0  0  0  0  0
   -1.9103    0.9497    0.0000 C   0  0  0  0  0  0  0  0  0  0  0  0
   -2.5932    0.4867    0.0000 C   0  0  0  0  0  0  0  0  0  0  0  0
   -2.3639   -0.3058    0.0000 C   0  0  0  0  0  0  0  0  0  0  0  0
   -2.8702   -0.9571    0.0000 O   0  0  0  0  0  0  0  0  0  0  0  0
   -1.8992   -1.0750    0.0000 C   0  0  0  0  0  0  0  0  0  0  0  0
    0.6168   -0.6729    0.0000 C   0  0  0  0  0  0  0  0  0  0  0  0
    2.8977   -0.0529    0.0000 H   0  0  0  0  0  0  0  0  0  0  0  0
   -0.8233    1.0350    0.0000 H   0  0  0  0  0  0  0  0  0  0  0  0
    0.2860   -0.5904    0.0000 H   0  0  0  0  0  0  0  0  0  0  0  0
   -1.1191    1.0102    0.0000 H   0  0  0  0  0  0  0  0  0  0  0  0
  1  2  1  0  0  0  0
  1 11  1  0  0  0  0
  2  3  1  0  0  0  0
  3  4  1  0  0  0  0
  3  5  1  0  0  0  0
  3 22  1  6  0  0  0
  5  6  1  0  0  0  0
  6  7  2  0  0  0  0
  6 11  1  0  0  0  0
  7  8  1  0  0  0  0
  8  9  1  0  0  0  0
  9 10  1  0  0  0  0
  9 15  1  0  0  0  0
  9 23  1  1  0  0  0
 10 11  1  0  0  0  0
 10 12  1  0  0  0  0
 10 24  1  6  0  0  0
 11 21  1  1  0  0  0
 12 13  1  0  0  0  0
 13 14  1  0  0  0  0
 14 15  1  0  0  0  0
 14 18  1  0  0  0  0
 14 20  1  1  0  0  0
 15 16  1  0  0  0  0
 15 25  1  6  0  0  0
 16 17  1  0  0  0  0
 17 18  1  0  0  0  0
 18 19  2  0  0  0  0
M  END
>  <DRUGBANK_ID>
DB01708

>  <DRUG_GROUPS>
nutraceutical

>  <GENERIC_NAME>
Dehydroepiandrosterone

>  <SYNONYMS>
3-beta-Hydroxy-5-androsten-17-one; 5-Dehydroepiandrosterone; 5-DHEA; DHA; DHEA; Prasterone

>  <BRANDS>
Fidelin; OVIGYN-D

>  <CHEMICAL_FORMULA>
C19H28O2

>  <MOLECULAR_WEIGHT>
288.4244

>  <EXACT_MASS>
288.20893014

>  <IUPAC_NAME>
(1S,2R,5S,10R,11S,15S)-5-hydroxy-2,15-dimethyltetracyclo[8.7.0.0^{2,7}.0^{11,15}]heptadec-7-en-14-one

>  <INCHI_IDENTIFIER>
InChI=1S/C19H28O2/c1-18-9-7-13(20)11-12(18)3-4-14-15-5-6-17(21)19(15,2)10-8-16(14)18/h3,13-16,20H,4-11H2,1-2H3/t13-,14-,15-,16-,18-,19-/m0/s1

>  <INCHI_KEY>
InChIKey=FMGSKLZLMKYGDP-USOAJAOKSA-N

>  <SMILES>
[H][C@@]12CCC(=O)[C@@]1(C)CC[C@@]1([H])[C@@]2([H])CC=C2C[C@@]([H])(O)CC[C@]12C

>  <JCHEM_ACCEPTOR_COUNT>
2

>  <JCHEM_DONOR_COUNT>
1

>  <JCHEM_ACIDIC_PKA>
18.2

>  <JCHEM_BASIC_PKA>
-1.4

>  <JCHEM_PHYSIOLOGICAL_CHARGE>
0

>  <ALOGPS_LOGP>
3.53

>  <JCHEM_LOGP>
3.36

>  <ALOGPS_LOGS>
-3.8

>  <JCHEM_POLARIZABILITY>
34.09

>  <JCHEM_POLAR_SURFACE_AREA>
37.3

>  <JCHEM_REFRACTIVITY>
84.66

>  <JCHEM_ROTATABLE_BOND_COUNT>
0

>  <ALOGPS_SOLUBILITY>
4.38e-02 g/l __

$$$$
DB01783
 OpenBabel03171413522D

 15 14  0  0  1  0  0  0  0  0999 V2000
   16.4584   -4.2762    0.0000 N   0  0  0  0  0  0  0  0  0  0  0  0
   15.7441   -3.8637    0.0000 C   0  0  0  0  0  0  0  0  0  0  0  0
   15.0296   -4.2762    0.0000 C   0  0  3  0  0  0  0  0  0  0  0  0
   13.6007   -4.2762    0.0000 C   0  0  0  0  0  0  0  0  0  0  0  0
   14.3151   -3.8637    0.0000 C   0  0  0  0  0  0  0  0  0  0  0  0
   15.0296   -5.1012    0.0000 O   0  0  0  0  0  0  0  0  0  0  0  0
   15.7441   -3.0388    0.0000 O   0  0  0  0  0  0  0  0  0  0  0  0
   12.8862   -3.8637    0.0000 O   0  0  0  0  0  0  0  0  0  0  0  0
   17.1729   -3.8637    0.0000 C   0  0  0  0  0  0  0  0  0  0  0  0
   17.8874   -4.2762    0.0000 C   0  0  0  0  0  0  0  0  0  0  0  0
   18.6019   -3.8637    0.0000 C   0  0  0  0  0  0  0  0  0  0  0  0
   18.6019   -3.0388    0.0000 O   0  0  0  0  0  0  0  0  0  0  0  0
   19.3163   -4.2762    0.0000 O   0  0  0  0  0  0  0  0  0  0  0  0
   13.9026   -3.1493    0.0000 C   0  0  0  0  0  0  0  0  0  0  0  0
   14.7276   -3.1493    0.0000 C   0  0  0  0  0  0  0  0  0  0  0  0
  1  9  1  0  0  0  0
  2  1  1  0  0  0  0
  2  7  2  0  0  0  0
  3  2  1  0  0  0  0
  3  6  1  0  0  0  0
  3  5  1  0  0  0  0
  4  8  1  0  0  0  0
  5  4  1  0  0  0  0
  5 14  1  0  0  0  0
  5 15  1  0  0  0  0
  9 10  1  0  0  0  0
 10 11  1  0  0  0  0
 11 12  2  0  0  0  0
 11 13  1  0  0  0  0
M  END
>  <DRUGBANK_ID>
DB01783

>  <DRUG_GROUPS>
nutraceutical

>  <GENERIC_NAME>
Pantothenic acid

>  <SYNONYMS>
(+)-Pantothenic acid; D-pantothenic acid; N-(2,4-dihydroxy-3,3-dimethylbutanoyl)-β-alanine; Pantothenate; Vitamin B5

>  <SALTS>
D-Calcium Pantothenate

>  <CHEMICAL_FORMULA>
C9H17NO5

>  <MOLECULAR_WEIGHT>
219.235

>  <EXACT_MASS>
219.110672659

>  <IUPAC_NAME>
3-(2,4-dihydroxy-3,3-dimethylbutanamido)propanoic acid

>  <INCHI_IDENTIFIER>
InChI=1S/C9H17NO5/c1-9(2,5-11)7(14)8(15)10-4-3-6(12)13/h7,11,14H,3-5H2,1-2H3,(H,10,15)(H,12,13)

>  <INCHI_KEY>
InChIKey=GHOKWGTUZJEAQD-UHFFFAOYSA-N

>  <SMILES>
CC(C)(CO)C(O)C(=O)NCCC(O)=O

>  <JCHEM_ACCEPTOR_COUNT>
5

>  <JCHEM_DONOR_COUNT>
4

>  <JCHEM_ACIDIC_PKA>
4.35

>  <JCHEM_BASIC_PKA>
-2.8

>  <JCHEM_PHYSIOLOGICAL_CHARGE>
-1

>  <ALOGPS_LOGP>
-1.1

>  <JCHEM_LOGP>
-1.4

>  <ALOGPS_LOGS>
-0.56

>  <JCHEM_POLARIZABILITY>
21.92

>  <JCHEM_POLAR_SURFACE_AREA>
106.86

>  <JCHEM_REFRACTIVITY>
51.51

>  <JCHEM_ROTATABLE_BOND_COUNT>
6

>  <ALOGPS_SOLUBILITY>
6.05e+01 g/l __

$$$$
DB01892
 OpenBabel03171413522D

 39 40  0  0  0  0  0  0  0  0999 V2000
    1.8183    0.3365    0.0000 C   0  0  0  0  0  0  0  0  0  0  0  0
    1.4151   -0.4239    0.0000 C   0  0  0  0  0  0  0  0  0  0  0  0
    1.9090   -1.0575    0.0000 C   0  0  0  0  0  0  0  0  0  0  0  0
    0.4824   -0.5697    0.0000 C   0  0  0  0  0  0  0  0  0  0  0  0
   -0.1401   -1.3292    0.0000 O   0  0  0  0  0  0  0  0  0  0  0  0
   -0.1402    0.0617    0.0000 C   0  0  3  0  0  0  0  0  0  0  0  0
    0.4641    0.5919    0.0000 C   0  0  0  0  0  0  0  0  0  0  0  0
    0.4231    1.3257    0.0000 C   0  0  0  0  0  0  0  0  0  0  0  0
    1.1694    1.6494    0.0000 C   0  0  0  0  0  0  0  0  0  0  0  0
    1.9212    1.3387    0.0000 C   0  0  0  0  0  0  0  0  0  0  0  0
    2.6500    1.7108    0.0000 C   0  0  0  0  0  0  0  0  0  0  0  0
    2.6059    2.5311    0.0000 C   0  0  0  0  0  0  0  0  0  0  0  0
    3.3384    1.2631    0.0000 C   0  0  0  0  0  0  0  0  0  0  0  0
   -0.3484    1.6415    0.0000 C   0  0  0  0  0  0  0  0  0  0  0  0
    0.2634    2.2071    0.0000 O   0  0  0  0  0  0  0  0  0  0  0  0
   -1.1116    1.0248    0.0000 C   0  0  3  0  0  0  0  0  0  0  0  0
   -1.1086    1.9078    0.0000 C   0  0  0  0  0  0  0  0  0  0  0  0
   -0.5560    2.5589    0.0000 C   0  0  0  0  0  0  0  0  0  0  0  0
   -0.3025    3.3514    0.0000 C   0  0  0  0  0  0  0  0  0  0  0  0
   -1.0291    3.7568    0.0000 C   0  0  0  0  0  0  0  0  0  0  0  0
    0.4101    3.7759    0.0000 C   0  0  0  0  0  0  0  0  0  0  0  0
   -1.4752    0.0075    0.0000 C   0  0  0  0  0  0  0  0  0  0  0  0
   -1.0309   -0.7306    0.0000 C   0  0  3  0  0  0  0  0  0  0  0  0
   -1.4767   -1.4143    0.0000 C   0  0  0  0  0  0  0  0  0  0  0  0
   -2.2213   -1.0804    0.0000 C   0  0  0  0  0  0  0  0  0  0  0  0
   -2.8093   -1.6571    0.0000 C   0  0  0  0  0  0  0  0  0  0  0  0
   -2.5978   -2.4545    0.0000 C   0  0  0  0  0  0  0  0  0  0  0  0
   -3.5933   -1.4007    0.0000 C   0  0  0  0  0  0  0  0  0  0  0  0
   -0.1435   -0.7105    0.0000 C   0  0  3  0  0  0  0  0  0  0  0  0
    0.7954   -1.0542    0.0000 C   0  0  0  0  0  0  0  0  0  0  0  0
    0.4291   -1.5519    0.0000 C   0  0  0  0  0  0  0  0  0  0  0  0
    0.1714   -2.3528    0.0000 C   0  0  0  0  0  0  0  0  0  0  0  0
    0.7944   -2.8831    0.0000 C   0  0  0  0  0  0  0  0  0  0  0  0
    0.4045   -3.6033    0.0000 C   0  0  0  0  0  0  0  0  0  0  0  0
   -0.4123   -3.6908    0.0000 C   0  0  0  0  0  0  0  0  0  0  0  0
    0.9281   -4.2369    0.0000 C   0  0  0  0  0  0  0  0  0  0  0  0
   -1.0148    0.4798    0.0000 C   0  0  0  0  0  0  0  0  0  0  0  0
   -2.0000    0.4791    0.0000 O   0  0  0  0  0  0  0  0  0  0  0  0
    1.1184    0.2023    0.0000 O   0  0  0  0  0  0  0  0  0  0  0  0
  1  2  1  0  0  0  0
  2  3  1  0  0  0  0
  2  4  1  0  0  0  0
  4  5  2  0  0  0  0
  4  6  1  0  0  0  0
  6  7  1  0  0  0  0
  6 29  1  0  0  0  0
  6 37  1  0  0  0  0
  7  8  2  0  0  0  0
  7 39  1  0  0  0  0
  8  9  1  0  0  0  0
  8 14  1  0  0  0  0
  9 10  1  0  0  0  0
 10 11  2  0  0  0  0
 11 12  1  0  0  0  0
 11 13  1  0  0  0  0
 14 15  2  0  0  0  0
 14 16  1  0  0  0  0
 16 17  1  0  0  0  0
 16 22  1  0  0  0  0
 16 37  1  0  0  0  0
 17 18  1  0  0  0  0
 18 19  2  0  0  0  0
 19 20  1  0  0  0  0
 19 21  1  0  0  0  0
 22 23  1  0  0  0  0
 23 24  1  0  0  0  0
 23 29  1  0  0  0  0
 24 25  1  0  0  0  0
 25 26  2  0  0  0  0
 26 27  1  0  0  0  0
 26 28  1  0  0  0  0
 29 30  1  0  0  0  0
 29 31  1  0  0  0  0
 31 32  1  0  0  0  0
 32 33  1  0  0  0  0
 33 34  2  0  0  0  0
 34 35  1  0  0  0  0
 34 36  1  0  0  0  0
 37 38  2  0  0  0  0
M  END
>  <DRUGBANK_ID>
DB01892

>  <DRUG_GROUPS>
nutraceutical

>  <GENERIC_NAME>
Hyperforin

>  <SYNONYMS>
Hiperforina; Hyperforine

>  <CHEMICAL_FORMULA>
C35H52O4

>  <MOLECULAR_WEIGHT>
536.785

>  <EXACT_MASS>
536.386560152

>  <IUPAC_NAME>
4-hydroxy-6-methyl-1,3,7-tris(3-methylbut-2-en-1-yl)-6-(4-methylpent-3-en-1-yl)-5-(2-methylpropanoyl)bicyclo[3.3.1]non-3-ene-2,9-dione

>  <INCHI_IDENTIFIER>
InChI=1S/C35H52O4/c1-22(2)13-12-19-33(11)27(16-14-23(3)4)21-34(20-18-25(7)8)30(37)28(17-15-24(5)6)31(38)35(33,32(34)39)29(36)26(9)10/h13-15,18,26-27,38H,12,16-17,19-21H2,1-11H3

>  <INCHI_KEY>
InChIKey=IWBJJCOKGLUQIZ-UHFFFAOYSA-N

>  <SMILES>
CC(C)C(=O)C12C(O)=C(CC=C(C)C)C(=O)C(CC=C(C)C)(CC(CC=C(C)C)C1(C)CCC=C(C)C)C2=O

>  <JCHEM_ACCEPTOR_COUNT>
4

>  <JCHEM_DONOR_COUNT>
1

>  <JCHEM_ACIDIC_PKA>
6.32

>  <JCHEM_BASIC_PKA>
-6.6

>  <JCHEM_PHYSIOLOGICAL_CHARGE>
-1

>  <ALOGPS_LOGP>
6.32

>  <JCHEM_LOGP>
9.67

>  <ALOGPS_LOGS>
-5.9

>  <JCHEM_POLARIZABILITY>
64.09

>  <JCHEM_POLAR_SURFACE_AREA>
71.44

>  <JCHEM_REFRACTIVITY>
166.68

>  <JCHEM_ROTATABLE_BOND_COUNT>
11

>  <ALOGPS_SOLUBILITY>
6.32e-04 g/l __

$$$$
DB02300
 OpenBabel03171413522D

 32 35  0  0  1  0  0  0  0  0999 V2000
   12.1370   -9.5610    0.0000 C   0  0  1  0  0  0  0  0  0  0  0  0
   11.4226   -9.9735    0.0000 C   0  0  0  0  0  0  0  0  0  0  0  0
   11.4226  -10.7986    0.0000 C   0  0  1  0  0  0  0  0  0  0  0  0
   12.1370  -11.2111    0.0000 C   0  0  0  0  0  0  0  0  0  0  0  0
   12.8515  -10.7986    0.0000 C   0  0  0  0  0  0  0  0  0  0  0  0
   12.8515   -9.9735    0.0000 C   0  0  0  0  0  0  0  0  0  0  0  0
   13.5660   -9.5610    0.0000 C   0  0  0  0  0  0  0  0  0  0  0  0
   13.5660  -11.2111    0.0000 C   0  0  0  0  0  0  0  0  0  0  0  0
   14.2804  -10.7986    0.0000 C   0  0  0  0  0  0  0  0  0  0  0  0
   14.2804   -9.9735    0.0000 C   0  0  0  0  0  0  0  0  0  0  0  0
   14.2804   -8.3235    0.0000 C   0  0  0  0  0  0  0  0  0  0  0  0
   13.5660   -8.7360    0.0000 C   0  0  0  0  0  0  0  0  0  0  0  0
   14.9949   -9.5610    0.0000 C   0  0  1  0  0  0  0  0  0  0  0  0
   14.9949   -8.7360    0.0000 C   0  0  1  0  0  0  0  0  0  0  0  0
   15.7795   -8.4811    0.0000 C   0  0  2  0  0  0  0  0  0  0  0  0
   15.7795   -9.8159    0.0000 C   0  0  0  0  0  0  0  0  0  0  0  0
   16.2644   -9.1485    0.0000 C   0  0  0  0  0  0  0  0  0  0  0  0
   15.7795   -7.6561    0.0000 C   0  0  1  0  0  0  0  0  0  0  0  0
   16.4940   -7.2436    0.0000 C   0  0  0  0  0  0  0  0  0  0  0  0
   17.2085   -7.6561    0.0000 C   0  0  0  0  0  0  0  0  0  0  0  0
   17.9229   -7.2436    0.0000 C   0  0  1  0  0  0  0  0  0  0  0  0
   17.9229   -6.4186    0.0000 O   0  0  0  0  0  0  0  0  0  0  0  0
   18.6374   -7.6561    0.0000 C   0  0  0  0  0  0  0  0  0  0  0  0
   19.0499   -8.3705    0.0000 C   0  0  0  0  0  0  0  0  0  0  0  0
   19.4624   -7.6561    0.0000 C   0  0  0  0  0  0  0  0  0  0  0  0
   10.7081  -11.2111    0.0000 O   0  0  0  0  0  0  0  0  0  0  0  0
   14.9949   -7.9110    0.0000 C   0  0  0  0  0  0  0  0  0  0  0  0
   12.1370   -8.7360    0.0000 O   0  0  0  0  0  0  0  0  0  0  0  0
   14.9949  -10.3860    0.0000 H   0  0  0  0  0  0  0  0  0  0  0  0
   16.4940   -8.0686    0.0000 H   0  0  0  0  0  0  0  0  0  0  0  0
   15.0651   -7.2436    0.0000 C   0  0  0  0  0  0  0  0  0  0  0  0
   12.8515   -9.1485    0.0000 C   0  0  0  0  0  0  0  0  0  0  0  0
  1  2  1  0  0  0  0
  1  6  1  0  0  0  0
  1 28  1  6  0  0  0
  2  3  1  0  0  0  0
  3  4  1  0  0  0  0
  3 26  1  1  0  0  0
  4  5  1  0  0  0  0
  5  8  2  0  0  0  0
  6  5  1  0  0  0  0
  6 32  2  0  0  0  0
  7 10  1  0  0  0  0
  8  9  1  0  0  0  0
  9 10  2  0  0  0  0
 10 13  1  0  0  0  0
 11 12  1  0  0  0  0
 11 14  1  0  0  0  0
 12  7  1  0  0  0  0
 13 16  1  0  0  0  0
 13 29  1  6  0  0  0
 14 13  1  0  0  0  0
 14 27  1  1  0  0  0
 15 14  1  0  0  0  0
 15 17  1  0  0  0  0
 15 18  1  0  0  0  0
 15 30  1  6  0  0  0
 16 17  1  0  0  0  0
 18 19  1  6  0  0  0
 18 31  1  0  0  0  0
 19 20  2  0  0  0  0
 21 20  1  1  0  0  0
 21 22  1  0  0  0  0
 21 23  1  0  0  0  0
 23 24  1  0  0  0  0
 23 25  1  0  0  0  0
 25 24  1  0  0  0  0
M  END
>  <DRUGBANK_ID>
DB02300

>  <DRUG_GROUPS>
approved; nutraceutical

>  <GENERIC_NAME>
Calcipotriol

>  <SYNONYMS>
Calcipotriene

>  <BRANDS>
Davonex; Dovonex

>  <CHEMICAL_FORMULA>
C27H40O3

>  <MOLECULAR_WEIGHT>
412.6047

>  <EXACT_MASS>
412.297745146

>  <IUPAC_NAME>
(1R,3S,5Z)-5-{2-[(1R,3aS,4E,7aR)-1-[(2R,3E,5S)-5-cyclopropyl-5-hydroxypent-3-en-2-yl]-7a-methyl-octahydro-1H-inden-4-ylidene]ethylidene}-4-methylidenecyclohexane-1,3-diol

>  <INCHI_IDENTIFIER>
InChI=1S/C27H40O3/c1-17(6-13-25(29)20-8-9-20)23-11-12-24-19(5-4-14-27(23,24)3)7-10-21-15-22(28)16-26(30)18(21)2/h6-7,10,13,17,20,22-26,28-30H,2,4-5,8-9,11-12,14-16H2,1,3H3/b13-6+,19-7+,21-10-/t17-,22-,23-,24+,25-,26+,27-/m1/s1

>  <INCHI_KEY>
InChIKey=LWQQLNNNIPYSNX-UROSTWAQSA-N

>  <SMILES>
O[C@H](\C=C\[C@@H](C)[C@@]1([H])CC[C@@]2([H])\C(CCC[C@]12C)=C\C=C1\C[C@@H](O)C[C@H](O)C1=C)C1CC1

>  <JCHEM_ACCEPTOR_COUNT>
3

>  <JCHEM_DONOR_COUNT>
3

>  <JCHEM_ACIDIC_PKA>
14.39

>  <JCHEM_BASIC_PKA>
-1.6

>  <JCHEM_PHYSIOLOGICAL_CHARGE>
0

>  <ALOGPS_LOGP>
4.63

>  <JCHEM_LOGP>
3.84

>  <ALOGPS_LOGS>
-4.5

>  <JCHEM_POLARIZABILITY>
49.59

>  <JCHEM_POLAR_SURFACE_AREA>
60.69

>  <JCHEM_REFRACTIVITY>
125.45

>  <JCHEM_ROTATABLE_BOND_COUNT>
5

>  <ALOGPS_SOLUBILITY>
1.35e-02 g/l __

$$$$
DB02959
 OpenBabel03171413522D

 16 17  0  0  0  0  0  0  0  0999 V2000
    0.7145   -0.4125    0.0000 N   0  0  0  0  0  0  0  0  0  0  0  0
   -0.7145    0.4125    0.0000 C   0  0  0  0  0  0  0  0  0  0  0  0
    0.7145    0.4125    0.0000 C   0  0  1  0  0  0  0  0  0  0  0  0
    0.0000    0.8250    0.0000 C   0  0  0  0  0  0  0  0  0  0  0  0
   -0.7145   -0.4125    0.0000 C   0  0  0  0  0  0  0  0  0  0  0  0
   -1.4991   -0.6674    0.0000 N   0  0  0  0  0  0  0  0  0  0  0  0
   -1.9840    0.0000    0.0000 C   0  0  0  0  0  0  0  0  0  0  0  0
   -1.4991    0.6674    0.0000 C   0  0  0  0  0  0  0  0  0  0  0  0
   -1.8347    1.4211    0.0000 C   0  0  0  0  0  0  0  0  0  0  0  0
   -2.8045    0.0862    0.0000 C   0  0  0  0  0  0  0  0  0  0  0  0
   -3.1401    0.8399    0.0000 C   0  0  0  0  0  0  0  0  0  0  0  0
    1.4289    1.6500    0.0000 O   0  0  0  0  0  0  0  0  0  0  0  0
    1.4289    0.8250    0.0000 C   0  0  0  0  0  0  0  0  0  0  0  0
    2.1434    0.4125    0.0000 O   0  0  0  0  0  0  0  0  0  0  0  0
   -2.6551    1.5074    0.0000 C   0  0  0  0  0  0  0  0  0  0  0  0
   -2.9907    2.2610    0.0000 O   0  0  0  0  0  0  0  0  0  0  0  0
  2  8  1  0  0  0  0
  2  4  1  0  0  0  0
  2  5  2  0  0  0  0
  3  1  1  1  0  0  0
  3 13  1  0  0  0  0
  4  3  1  0  0  0  0
  5  6  1  0  0  0  0
  6  7  1  0  0  0  0
  7  8  2  0  0  0  0
  7 10  1  0  0  0  0
  8  9  1  0  0  0  0
  9 15  2  0  0  0  0
 10 11  2  0  0  0  0
 11 15  1  0  0  0  0
 13 12  2  0  0  0  0
 14 13  1  0  0  0  0
 15 16  1  0  0  0  0
M  END
>  <DRUGBANK_ID>
DB02959

>  <DRUG_GROUPS>
approved; nutraceutical

>  <GENERIC_NAME>
Oxitriptan

>  <SYNONYMS>
5-Hydroxy-L-Tryptophan; Hydroxy-5 L-tryptophane

>  <BRANDS>
Levothym

>  <CHEMICAL_FORMULA>
C11H12N2O3

>  <MOLECULAR_WEIGHT>
220.2246

>  <EXACT_MASS>
220.08479226

>  <IUPAC_NAME>
(2S)-2-amino-3-(5-hydroxy-1H-indol-3-yl)propanoic acid

>  <INCHI_IDENTIFIER>
InChI=1S/C11H12N2O3/c12-9(11(15)16)3-6-5-13-10-2-1-7(14)4-8(6)10/h1-2,4-5,9,13-14H,3,12H2,(H,15,16)/t9-/m0/s1

>  <INCHI_KEY>
InChIKey=LDCYZAJDBXYCGN-VIFPVBQESA-N

>  <SMILES>
N[C@@H](CC1=CNC2=C1C=C(O)C=C2)C(O)=O

>  <JCHEM_ACCEPTOR_COUNT>
4

>  <JCHEM_DONOR_COUNT>
4

>  <JCHEM_ACIDIC_PKA>
2.15

>  <JCHEM_BASIC_PKA>
9.18

>  <JCHEM_PHYSIOLOGICAL_CHARGE>
0

>  <ALOGPS_LOGP>
-1.6

>  <JCHEM_LOGP>
-1.4

>  <ALOGPS_LOGS>
-1.8

>  <JCHEM_POLARIZABILITY>
22.03

>  <JCHEM_POLAR_SURFACE_AREA>
99.34

>  <JCHEM_REFRACTIVITY>
58.18

>  <JCHEM_ROTATABLE_BOND_COUNT>
3

>  <ALOGPS_SOLUBILITY>
3.63e+00 g/l __

$$$$
DB03852
 OpenBabel03171413522D
Created with ChemWriter - http://chemwriter.com
 11 12  0  0  1  0  0  0  0  0999 V2000
   -0.7145    0.4125    0.0000 C   0  0  0  0  0  0  0  0  0  0  0  0
   -0.7145   -0.4125    0.0000 C   0  0  0  0  0  0  0  0  0  0  0  0
    0.7145    0.4125    0.0000 O   0  0  0  0  0  0  0  0  0  0  0  0
    1.5395   -0.4125    0.0000 C   0  0  0  0  0  0  0  0  0  0  0  0
    0.7145   -0.4125    0.0000 C   0  0  0  0  0  0  0  0  0  0  0  0
    1.1270   -1.1270    0.0000 C   0  0  0  0  0  0  0  0  0  0  0  0
    0.0000    0.8250    0.0000 C   0  0  1  0  0  0  0  0  0  0  0  0
    0.0000    1.6500    0.0000 C   0  0  0  0  0  0  0  0  0  0  0  0
    0.0000   -0.8250    0.0000 C   0  0  1  0  0  0  0  0  0  0  0  0
   -0.3000    0.3000    0.0000 C   0  0  0  0  0  0  0  0  0  0  0  0
   -0.3000   -0.3000    0.0000 C   0  0  0  0  0  0  0  0  0  0  0  0
  1  2  1  0  0  0  0
  3  7  1  0  0  0  0
  5  3  1  0  0  0  0
  5  4  1  0  0  0  0
  5  6  1  0  0  0  0
  7  1  1  0  0  0  0
  7 10  1  0  0  0  0
  7  8  1  1  0  0  0
  9  5  1  6  0  0  0
  9  2  1  0  0  0  0
  9 11  1  0  0  0  0
 11 10  1  0  0  0  0
M  END
>  <DRUGBANK_ID>
DB03852

>  <DRUG_GROUPS>
nutraceutical

>  <GENERIC_NAME>
Eucalyptol

>  <SYNONYMS>
1,8-cineol; 1,8-Cineole; 1,8-epoxy-p-menthane; 1,8-oxido-p-menthane; cajeputol; cineol; cineole; Cucalyptol; Eucapur; Zineol

>  <BRANDS>
Soledum

>  <CHEMICAL_FORMULA>
C10H18O

>  <MOLECULAR_WEIGHT>
154.2493

>  <EXACT_MASS>
154.135765198

>  <IUPAC_NAME>
(1s,4s)-1,3,3-trimethyl-2-oxabicyclo[2.2.2]octane

>  <INCHI_IDENTIFIER>
InChI=1S/C10H18O/c1-9(2)8-4-6-10(3,11-9)7-5-8/h8H,4-7H2,1-3H3/t8-,10+

>  <INCHI_KEY>
InChIKey=WEEGYLXZBRQIMU-WAAGHKOSSA-N

>  <SMILES>
C[C@@]12CC[C@@H](CC1)C(C)(C)O2

>  <JCHEM_ACCEPTOR_COUNT>
1

>  <JCHEM_DONOR_COUNT>
0

>  <JCHEM_BASIC_PKA>
-4.2

>  <JCHEM_PHYSIOLOGICAL_CHARGE>
0

>  <ALOGPS_LOGP>
3.36

>  <JCHEM_LOGP>
2.35

>  <ALOGPS_LOGS>
-3.8

>  <JCHEM_POLARIZABILITY>
18.54

>  <JCHEM_POLAR_SURFACE_AREA>
9.23

>  <JCHEM_REFRACTIVITY>
45.86

>  <JCHEM_ROTATABLE_BOND_COUNT>
0

>  <ALOGPS_SOLUBILITY>
2.25e-02 g/l __

$$$$
DB06743
 OpenBabel03171413522D

 29 34  0  0  1  0  0  0  0  0999 V2000
    6.0247   -9.1250    0.0000 C   0  0  0  0  0  0  0  0  0  0  0  0
    6.0247   -9.9500    0.0000 O   0  0  0  0  0  0  0  0  0  0  0  0
    6.8093  -10.2049    0.0000 C   0  0  2  0  0  0  0  0  0  0  0  0
    7.2943   -9.5375    0.0000 C   0  0  2  0  0  0  0  0  0  0  0  0
    6.8093   -8.8701    0.0000 C   0  0  2  0  0  0  0  0  0  0  0  0
    8.0789  -10.6175    0.0000 C   0  0  2  0  0  0  0  0  0  0  0  0
    8.0789   -9.7924    0.0000 C   0  0  1  0  0  0  0  0  0  0  0  0
    8.8635  -10.8723    0.0000 C   0  0  2  0  0  0  0  0  0  0  0  0
    9.3484  -10.2049    0.0000 C   0  0  2  0  0  0  0  0  0  0  0  0
    8.8635   -9.5375    0.0000 O   0  0  0  0  0  0  0  0  0  0  0  0
   10.1331  -10.4598    0.0000 O   0  0  0  0  0  0  0  0  0  0  0  0
   10.1331  -11.2848    0.0000 C   0  0  0  0  0  0  0  0  0  0  0  0
    9.3484  -11.5398    0.0000 C   0  0  2  0  0  0  0  0  0  0  0  0
    5.3572   -8.6401    0.0000 O   0  0  0  0  0  0  0  0  0  0  0  0
    7.2943  -10.8723    0.0000 C   0  0  0  0  0  0  0  0  0  0  0  0
    7.5939  -11.2848    0.0000 C   0  0  1  0  0  0  0  0  0  0  0  0
    8.8635  -11.6973    0.0000 C   0  0  1  0  0  0  0  0  0  0  0  0
    8.0789  -11.9523    0.0000 C   0  0  0  0  0  0  0  0  0  0  0  0
   10.7305  -11.6999    0.0000 O   0  0  0  0  0  0  0  0  0  0  0  0
    7.2758   -8.5344    0.0000 O   0  0  0  0  0  0  0  0  0  0  0  0
    6.7426   -8.0714    0.0000 C   0  0  0  0  0  0  0  0  0  0  0  0
    7.9284   -9.0750    0.0000 C   0  0  0  0  0  0  0  0  0  0  0  0
    7.4250  -10.0678    0.0000 O   0  0  0  0  0  0  0  0  0  0  0  0
    7.9284   -8.4318    0.0000 O   0  0  0  0  0  0  0  0  0  0  0  0
    9.7462  -12.2212    0.0000 O   0  0  0  0  0  0  0  0  0  0  0  0
    8.9212  -12.3890    0.0000 C   0  0  0  0  0  0  0  0  0  0  0  0
    8.4178  -13.0462    0.0000 C   0  0  0  0  0  0  0  0  0  0  0  0
    9.0750  -13.2140    0.0000 C   0  0  0  0  0  0  0  0  0  0  0  0
    9.5784  -12.8784    0.0000 C   0  0  0  0  0  0  0  0  0  0  0  0
  1  2  1  0  0  0  0
  1 14  2  0  0  0  0
  3  2  1  6  0  0  0
  3  4  1  0  0  0  0
  3 15  1  0  0  0  0
  4  5  1  0  0  0  0
  4 20  1  1  0  0  0
  5  1  1  0  0  0  0
  5 21  1  1  0  0  0
  6  7  1  0  0  0  0
  6 15  1  6  0  0  0
  6 16  1  0  0  0  0
  7  4  1  0  0  0  0
  7 10  1  6  0  0  0
  7 22  1  0  0  0  0
  8  6  1  6  0  0  0
  8  9  1  0  0  0  0
  8 17  1  0  0  0  0
  9 10  1  6  0  0  0
  9 11  1  0  0  0  0
 11 12  1  0  0  0  0
 12 13  1  0  0  0  0
 12 19  2  0  0  0  0
 13  8  1  0  0  0  0
 13 25  1  6  0  0  0
 16 18  1  1  0  0  0
 17 18  1  0  0  0  0
 17 26  1  6  0  0  0
 22 23  1  0  0  0  0
 22 24  2  0  0  0  0
 23 16  1  0  0  0  0
 26 27  1  0  0  0  0
 26 28  1  0  0  0  0
 26 29  1  0  0  0  0
M  END
>  <DRUGBANK_ID>
DB06743

>  <DRUG_GROUPS>
nutraceutical

>  <GENERIC_NAME>
ginkgolide-A

>  <SYNONYMS>
Ginkgolide a

>  <CHEMICAL_FORMULA>
C20H24O9

>  <MOLECULAR_WEIGHT>
408.3992

>  <EXACT_MASS>
408.142032366

>  <IUPAC_NAME>
(1R,3R,6R,7S,8S,10R,11S,13S,16S,17R)-8-tert-butyl-6,17-dihydroxy-16-methyl-2,4,14,19-tetraoxahexacyclo[8.7.2.0^{1,11}.0^{3,7}.0^{7,11}.0^{13,17}]nonadecane-5,15,18-trione

>  <INCHI_IDENTIFIER>
InChI=1S/C20H24O9/c1-7-12(22)26-10-6-17-9-5-8(16(2,3)4)18(17)11(21)13(23)28-15(18)29-20(17,14(24)27-9)19(7,10)25/h7-11,15,21,25H,5-6H2,1-4H3/t7-,8+,9-,10+,11+,15+,17-,18+,19-,20-/m1/s1

>  <INCHI_KEY>
InChIKey=FPUXKXIZEIDQKW-VKMVSBOZSA-N

>  <SMILES>
C[C@@H]1C(=O)O[C@H]2C[C@@]34[C@H]5C[C@@H](C(C)(C)C)[C@@]33[C@@H](O)C(=O)O[C@H]3O[C@@]4(C(=O)O5)[C@@]12O

>  <JCHEM_ACCEPTOR_COUNT>
6

>  <JCHEM_DONOR_COUNT>
2

>  <JCHEM_ACIDIC_PKA>
11.77

>  <JCHEM_BASIC_PKA>
-4.1

>  <JCHEM_PHYSIOLOGICAL_CHARGE>
0

>  <ALOGPS_LOGP>
1.21

>  <JCHEM_LOGP>
0.34

>  <ALOGPS_LOGS>
-2.1

>  <JCHEM_POLARIZABILITY>
38.35

>  <JCHEM_POLAR_SURFACE_AREA>
128.59

>  <JCHEM_REFRACTIVITY>
90.17

>  <JCHEM_ROTATABLE_BOND_COUNT>
1

>  <ALOGPS_SOLUBILITY>
3.05e+00 g/l __

$$$$
DB06744
 OpenBabel03171413522D

 30 35  0  0  1  0  0  0  0  0999 V2000
    6.0247   -9.1250    0.0000 C   0  0  0  0  0  0  0  0  0  0  0  0
    6.0247   -9.9501    0.0000 O   0  0  0  0  0  0  0  0  0  0  0  0
    6.8094  -10.2050    0.0000 C   0  0  2  0  0  0  0  0  0  0  0  0
    7.2943   -9.5376    0.0000 C   0  0  2  0  0  0  0  0  0  0  0  0
    6.8094   -8.8701    0.0000 C   0  0  2  0  0  0  0  0  0  0  0  0
    8.0789  -10.6176    0.0000 C   0  0  2  0  0  0  0  0  0  0  0  0
    8.0789   -9.7925    0.0000 C   0  0  1  0  0  0  0  0  0  0  0  0
    8.8636  -10.8724    0.0000 C   0  0  2  0  0  0  0  0  0  0  0  0
    9.3485  -10.2050    0.0000 C   0  0  2  0  0  0  0  0  0  0  0  0
    8.8636   -9.5376    0.0000 O   0  0  0  0  0  0  0  0  0  0  0  0
   10.1332  -10.4599    0.0000 O   0  0  0  0  0  0  0  0  0  0  0  0
   10.1332  -11.2849    0.0000 C   0  0  0  0  0  0  0  0  0  0  0  0
    9.3485  -11.5399    0.0000 C   0  0  2  0  0  0  0  0  0  0  0  0
    5.3573   -8.6401    0.0000 O   0  0  0  0  0  0  0  0  0  0  0  0
    7.2943  -10.8724    0.0000 C   0  0  1  0  0  0  0  0  0  0  0  0
    7.5940  -11.2849    0.0000 C   0  0  1  0  0  0  0  0  0  0  0  0
    8.8636  -11.6974    0.0000 C   0  0  1  0  0  0  0  0  0  0  0  0
    8.0789  -11.9524    0.0000 C   0  0  0  0  0  0  0  0  0  0  0  0
   10.7306  -11.7000    0.0000 O   0  0  0  0  0  0  0  0  0  0  0  0
    7.2758   -8.5345    0.0000 O   0  0  0  0  0  0  0  0  0  0  0  0
    6.8996  -11.5872    0.0000 O   0  0  0  0  0  0  0  0  0  0  0  0
    6.7427   -8.0715    0.0000 C   0  0  0  0  0  0  0  0  0  0  0  0
    7.9285   -9.0751    0.0000 C   0  0  0  0  0  0  0  0  0  0  0  0
    7.4251  -10.0679    0.0000 O   0  0  0  0  0  0  0  0  0  0  0  0
    7.9285   -8.4319    0.0000 O   0  0  0  0  0  0  0  0  0  0  0  0
    9.7463  -12.2213    0.0000 O   0  0  0  0  0  0  0  0  0  0  0  0
    8.9213  -12.3891    0.0000 C   0  0  0  0  0  0  0  0  0  0  0  0
    8.2501  -12.8785    0.0000 C   0  0  0  0  0  0  0  0  0  0  0  0
    8.9213  -13.2141    0.0000 C   0  0  0  0  0  0  0  0  0  0  0  0
    9.5785  -12.8785    0.0000 C   0  0  0  0  0  0  0  0  0  0  0  0
  1  2  1  0  0  0  0
  1 14  2  0  0  0  0
  3  2  1  6  0  0  0
  3  4  1  0  0  0  0
  3 15  1  0  0  0  0
  4  5  1  0  0  0  0
  4 20  1  1  0  0  0
  5  1  1  0  0  0  0
  5 22  1  1  0  0  0
  6  7  1  1  0  0  0
  6 16  1  0  0  0  0
  7  4  1  0  0  0  0
  7 10  1  6  0  0  0
  7 23  1  0  0  0  0
  8  6  1  6  0  0  0
  8  9  1  0  0  0  0
  8 17  1  0  0  0  0
  9 10  1  6  0  0  0
  9 11  1  0  0  0  0
 11 12  1  0  0  0  0
 12 13  1  0  0  0  0
 12 19  2  0  0  0  0
 13  8  1  0  0  0  0
 13 26  1  6  0  0  0
 15  6  1  0  0  0  0
 15 21  1  1  0  0  0
 16 18  1  1  0  0  0
 17 18  1  0  0  0  0
 17 27  1  6  0  0  0
 23 24  1  0  0  0  0
 23 25  2  0  0  0  0
 24 16  1  0  0  0  0
 27 28  1  0  0  0  0
 27 29  1  0  0  0  0
 27 30  1  0  0  0  0
M  END
>  <DRUGBANK_ID>
DB06744

>  <DRUG_GROUPS>
nutraceutical

>  <GENERIC_NAME>
ginkgolide-B

>  <CHEMICAL_FORMULA>
C20H24O10

>  <MOLECULAR_WEIGHT>
424.3986

>  <EXACT_MASS>
424.136946988

>  <IUPAC_NAME>
(1R,3R,6R,7S,8S,10R,11R,12R,13S,16S,17R)-8-tert-butyl-6,12,17-trihydroxy-16-methyl-2,4,14,19-tetraoxahexacyclo[8.7.2.0^{1,11}.0^{3,7}.0^{7,11}.0^{13,17}]nonadecane-5,15,18-trione

>  <INCHI_IDENTIFIER>
InChI=1S/C20H24O10/c1-6-12(23)28-11-9(21)18-8-5-7(16(2,3)4)17(18)10(22)13(24)29-15(17)30-20(18,14(25)27-8)19(6,11)26/h6-11,15,21-22,26H,5H2,1-4H3/t6-,7+,8-,9+,10+,11+,15+,17+,18+,19-,20-/m1/s1

>  <INCHI_KEY>
InChIKey=SQOJOAFXDQDRGF-MMQTXUMRSA-N

>  <SMILES>
C[C@@H]1C(=O)O[C@H]2[C@H](O)[C@@]34[C@H]5C[C@@H](C(C)(C)C)[C@@]33[C@@H](O)C(=O)O[C@H]3O[C@@]4(C(=O)O5)[C@@]12O

>  <JCHEM_ACCEPTOR_COUNT>
7

>  <JCHEM_DONOR_COUNT>
3

>  <JCHEM_ACIDIC_PKA>
11.71

>  <JCHEM_BASIC_PKA>
-3.5

>  <JCHEM_PHYSIOLOGICAL_CHARGE>
0

>  <ALOGPS_LOGP>
0.49

>  <JCHEM_LOGP>
-0.58

>  <ALOGPS_LOGS>
-1.9

>  <JCHEM_POLARIZABILITY>
39.2

>  <JCHEM_POLAR_SURFACE_AREA>
148.82

>  <JCHEM_REFRACTIVITY>
91.38

>  <JCHEM_ROTATABLE_BOND_COUNT>
1

>  <ALOGPS_SOLUBILITY>
5.21e+00 g/l __

$$$$
DB06745
 OpenBabel03171413522D

 31 36  0  0  1  0  0  0  0  0999 V2000
    6.0248   -9.1251    0.0000 C   0  0  0  0  0  0  0  0  0  0  0  0
    6.0248   -9.9502    0.0000 O   0  0  0  0  0  0  0  0  0  0  0  0
    6.8094  -10.2051    0.0000 C   0  0  2  0  0  0  0  0  0  0  0  0
    7.2944   -9.5377    0.0000 C   0  0  2  0  0  0  0  0  0  0  0  0
    6.8094   -8.8702    0.0000 C   0  0  2  0  0  0  0  0  0  0  0  0
    8.0790  -10.6176    0.0000 C   0  0  2  0  0  0  0  0  0  0  0  0
    8.0790   -9.7926    0.0000 C   0  0  1  0  0  0  0  0  0  0  0  0
    8.8637  -10.8725    0.0000 C   0  0  2  0  0  0  0  0  0  0  0  0
    9.3486  -10.2051    0.0000 C   0  0  2  0  0  0  0  0  0  0  0  0
    8.8637   -9.5377    0.0000 O   0  0  0  0  0  0  0  0  0  0  0  0
   10.1332  -10.4600    0.0000 O   0  0  0  0  0  0  0  0  0  0  0  0
   10.1332  -11.2850    0.0000 C   0  0  0  0  0  0  0  0  0  0  0  0
    9.3486  -11.5400    0.0000 C   0  0  2  0  0  0  0  0  0  0  0  0
    5.3573   -8.6402    0.0000 O   0  0  0  0  0  0  0  0  0  0  0  0
    7.2944  -10.8725    0.0000 C   0  0  1  0  0  0  0  0  0  0  0  0
    7.5941  -11.2850    0.0000 C   0  0  1  0  0  0  0  0  0  0  0  0
    8.8637  -11.6975    0.0000 C   0  0  1  0  0  0  0  0  0  0  0  0
    8.0790  -11.9525    0.0000 C   0  0  1  0  0  0  0  0  0  0  0  0
   10.7307  -11.7001    0.0000 O   0  0  0  0  0  0  0  0  0  0  0  0
    7.2759   -8.5346    0.0000 O   0  0  0  0  0  0  0  0  0  0  0  0
    6.8996  -11.5873    0.0000 O   0  0  0  0  0  0  0  0  0  0  0  0
    6.7427   -8.0716    0.0000 C   0  0  0  0  0  0  0  0  0  0  0  0
    7.9285   -9.0752    0.0000 C   0  0  0  0  0  0  0  0  0  0  0  0
    7.4251  -10.0680    0.0000 O   0  0  0  0  0  0  0  0  0  0  0  0
    7.9285   -8.4320    0.0000 O   0  0  0  0  0  0  0  0  0  0  0  0
    9.7464  -12.2214    0.0000 O   0  0  0  0  0  0  0  0  0  0  0  0
    8.9213  -12.3892    0.0000 C   0  0  0  0  0  0  0  0  0  0  0  0
    8.4180  -13.0464    0.0000 C   0  0  0  0  0  0  0  0  0  0  0  0
    9.0752  -13.2142    0.0000 C   0  0  0  0  0  0  0  0  0  0  0  0
    9.5786  -12.8786    0.0000 C   0  0  0  0  0  0  0  0  0  0  0  0
    7.5929  -12.5571    0.0000 O   0  0  0  0  0  0  0  0  0  0  0  0
  1  2  1  0  0  0  0
  1 14  2  0  0  0  0
  3  2  1  6  0  0  0
  3  4  1  0  0  0  0
  3 15  1  0  0  0  0
  4  5  1  0  0  0  0
  4 20  1  1  0  0  0
  5  1  1  0  0  0  0
  5 22  1  1  0  0  0
  6  7  1  1  0  0  0
  6 16  1  0  0  0  0
  7  4  1  0  0  0  0
  7 10  1  6  0  0  0
  7 23  1  0  0  0  0
  8  6  1  6  0  0  0
  8  9  1  0  0  0  0
  8 17  1  0  0  0  0
  9 10  1  6  0  0  0
  9 11  1  0  0  0  0
 11 12  1  0  0  0  0
 12 13  1  0  0  0  0
 12 19  2  0  0  0  0
 13  8  1  0  0  0  0
 13 26  1  6  0  0  0
 15  6  1  0  0  0  0
 15 21  1  1  0  0  0
 16 24  1  1  0  0  0
 17 18  1  0  0  0  0
 17 27  1  6  0  0  0
 18 16  1  0  0  0  0
 18 31  1  1  0  0  0
 23 24  1  0  0  0  0
 23 25  2  0  0  0  0
 27 28  1  0  0  0  0
 27 29  1  0  0  0  0
 27 30  1  0  0  0  0
M  END
>  <DRUGBANK_ID>
DB06745

>  <DRUG_GROUPS>
nutraceutical

>  <GENERIC_NAME>
ginkgolide-C

>  <CHEMICAL_FORMULA>
C20H24O11

>  <MOLECULAR_WEIGHT>
440.398

>  <EXACT_MASS>
440.13186161

>  <IUPAC_NAME>
(1R,3R,6R,7S,8S,9R,10S,11R,12R,13S,16S,17R)-8-tert-butyl-6,9,12,17-tetrahydroxy-16-methyl-2,4,14,19-tetraoxahexacyclo[8.7.2.0^{1,11}.0^{3,7}.0^{7,11}.0^{13,17}]nonadecane-5,15,18-trione

>  <INCHI_IDENTIFIER>
InChI=1S/C20H24O11/c1-5-12(24)28-11-8(22)18-10-6(21)7(16(2,3)4)17(18)9(23)13(25)30-15(17)31-20(18,14(26)29-10)19(5,11)27/h5-11,15,21-23,27H,1-4H3/t5-,6-,7+,8+,9+,10-,11+,15+,17+,18-,19-,20-/m1/s1

>  <INCHI_KEY>
InChIKey=AMOGMTLMADGEOQ-DTDWCABLSA-N

>  <SMILES>
C[C@@H]1C(=O)O[C@H]2[C@H](O)[C@]34[C@@H]5OC(=O)[C@]3(O[C@@H]3OC(=O)[C@H](O)[C@]43[C@@H]([C@H]5O)C(C)(C)C)[C@@]12O

>  <JCHEM_ACCEPTOR_COUNT>
8

>  <JCHEM_DONOR_COUNT>
4

>  <JCHEM_ACIDIC_PKA>
11.7

>  <JCHEM_BASIC_PKA>
-3.3

>  <JCHEM_PHYSIOLOGICAL_CHARGE>
0

>  <ALOGPS_LOGP>
0.24

>  <JCHEM_LOGP>
-1.6

>  <ALOGPS_LOGS>
-1.7

>  <JCHEM_POLARIZABILITY>
40.09

>  <JCHEM_POLAR_SURFACE_AREA>
169.05

>  <JCHEM_REFRACTIVITY>
92.67

>  <JCHEM_ROTATABLE_BOND_COUNT>
1

>  <ALOGPS_SOLUBILITY>
8.99e+00 g/l __

$$$$
DB06746
 OpenBabel03171413522D

 30 35  0  0  1  0  0  0  0  0999 V2000
    7.1015   -8.5657    0.0000 C   0  0  0  0  0  0  0  0  0  0  0  0
    7.1015   -9.3908    0.0000 O   0  0  0  0  0  0  0  0  0  0  0  0
    7.8861   -9.6457    0.0000 C   0  0  2  0  0  0  0  0  0  0  0  0
    8.3710   -8.9783    0.0000 C   0  0  2  0  0  0  0  0  0  0  0  0
    7.8861   -8.3108    0.0000 C   0  0  2  0  0  0  0  0  0  0  0  0
    9.1557  -10.0582    0.0000 C   0  0  2  0  0  0  0  0  0  0  0  0
    9.1557   -9.2332    0.0000 C   0  0  1  0  0  0  0  0  0  0  0  0
    9.9403  -10.3131    0.0000 C   0  0  2  0  0  0  0  0  0  0  0  0
   10.4253   -9.6457    0.0000 C   0  0  2  0  0  0  0  0  0  0  0  0
    9.9403   -8.9783    0.0000 O   0  0  0  0  0  0  0  0  0  0  0  0
   11.2099   -9.9006    0.0000 O   0  0  0  0  0  0  0  0  0  0  0  0
   11.2099  -10.7256    0.0000 C   0  0  0  0  0  0  0  0  0  0  0  0
   10.4253  -10.9806    0.0000 C   0  0  2  0  0  0  0  0  0  0  0  0
    6.4340   -8.0808    0.0000 O   0  0  0  0  0  0  0  0  0  0  0  0
    8.3710  -10.3131    0.0000 C   0  0  0  0  0  0  0  0  0  0  0  0
    8.6707  -10.7256    0.0000 C   0  0  1  0  0  0  0  0  0  0  0  0
    9.9403  -11.1381    0.0000 C   0  0  1  0  0  0  0  0  0  0  0  0
    9.1557  -11.3931    0.0000 C   0  0  1  0  0  0  0  0  0  0  0  0
   11.8074  -11.1407    0.0000 O   0  0  0  0  0  0  0  0  0  0  0  0
    8.3526   -7.9752    0.0000 O   0  0  0  0  0  0  0  0  0  0  0  0
    7.8194   -7.5122    0.0000 C   0  0  0  0  0  0  0  0  0  0  0  0
    9.0052   -8.5158    0.0000 C   0  0  0  0  0  0  0  0  0  0  0  0
    8.5018   -9.5086    0.0000 O   0  0  0  0  0  0  0  0  0  0  0  0
    9.0052   -7.8726    0.0000 O   0  0  0  0  0  0  0  0  0  0  0  0
   10.8230  -11.6620    0.0000 O   0  0  0  0  0  0  0  0  0  0  0  0
    9.9980  -11.8298    0.0000 C   0  0  0  0  0  0  0  0  0  0  0  0
    9.4946  -12.4870    0.0000 C   0  0  0  0  0  0  0  0  0  0  0  0
   10.1518  -12.6548    0.0000 C   0  0  0  0  0  0  0  0  0  0  0  0
   10.6552  -12.3192    0.0000 C   0  0  0  0  0  0  0  0  0  0  0  0
    8.6696  -11.9976    0.0000 O   0  0  0  0  0  0  0  0  0  0  0  0
  1  2  1  0  0  0  0
  1 14  2  0  0  0  0
  3  2  1  6  0  0  0
  3  4  1  0  0  0  0
  3 15  1  0  0  0  0
  4  5  1  0  0  0  0
  4 20  1  1  0  0  0
  5  1  1  0  0  0  0
  5 21  1  1  0  0  0
  6  7  1  0  0  0  0
  6 15  1  6  0  0  0
  6 16  1  0  0  0  0
  7  4  1  0  0  0  0
  7 10  1  6  0  0  0
  7 22  1  0  0  0  0
  8  6  1  6  0  0  0
  8  9  1  0  0  0  0
  8 17  1  0  0  0  0
  9 10  1  6  0  0  0
  9 11  1  0  0  0  0
 11 12  1  0  0  0  0
 12 13  1  0  0  0  0
 12 19  2  0  0  0  0
 13  8  1  0  0  0  0
 13 25  1  6  0  0  0
 16 23  1  1  0  0  0
 17 18  1  0  0  0  0
 17 26  1  6  0  0  0
 18 16  1  0  0  0  0
 18 30  1  1  0  0  0
 22 23  1  0  0  0  0
 22 24  2  0  0  0  0
 26 27  1  0  0  0  0
 26 28  1  0  0  0  0
 26 29  1  0  0  0  0
M  END
>  <DRUGBANK_ID>
DB06746

>  <DRUG_GROUPS>
nutraceutical

>  <GENERIC_NAME>
ginkgolide-J

>  <CHEMICAL_FORMULA>
C20H24O10

>  <MOLECULAR_WEIGHT>
424.3986

>  <EXACT_MASS>
424.136946988

>  <IUPAC_NAME>
(1R,3R,6R,7S,8S,9R,10S,11S,13S,16S,17R)-8-tert-butyl-6,9,17-trihydroxy-16-methyl-2,4,14,19-tetraoxahexacyclo[8.7.2.0^{1,11}.0^{3,7}.0^{7,11}.0^{13,17}]nonadecane-5,15,18-trione

>  <INCHI_IDENTIFIER>
InChI=1S/C20H24O10/c1-6-12(23)27-7-5-17-11-8(21)9(16(2,3)4)18(17)10(22)13(24)29-15(18)30-20(17,14(25)28-11)19(6,7)26/h6-11,15,21-22,26H,5H2,1-4H3/t6-,7+,8-,9+,10+,11-,15+,17-,18+,19-,20-/m1/s1

>  <INCHI_KEY>
InChIKey=LMEHVEUFNRJAAV-UKWFQYJJSA-N

>  <SMILES>
C[C@@H]1C(=O)O[C@H]2C[C@]34[C@@H]5OC(=O)[C@]3(O[C@@H]3OC(=O)[C@H](O)[C@]43[C@@H]([C@H]5O)C(C)(C)C)[C@@]12O

>  <JCHEM_ACCEPTOR_COUNT>
7

>  <JCHEM_DONOR_COUNT>
3

>  <JCHEM_ACIDIC_PKA>
11.76

>  <JCHEM_BASIC_PKA>
-3.3

>  <JCHEM_PHYSIOLOGICAL_CHARGE>
0

>  <ALOGPS_LOGP>
0.23

>  <JCHEM_LOGP>
-0.66

>  <ALOGPS_LOGS>
-1.8

>  <JCHEM_POLARIZABILITY>
39.26

>  <JCHEM_POLAR_SURFACE_AREA>
148.82

>  <JCHEM_REFRACTIVITY>
91.46

>  <JCHEM_ROTATABLE_BOND_COUNT>
1

>  <ALOGPS_SOLUBILITY>
6.96e+00 g/l __

$$$$
DB06747
 OpenBabel03171413522D

 30 35  0  0  1  0  0  0  0  0999 V2000
    7.1015   -8.5658    0.0000 C   0  0  0  0  0  0  0  0  0  0  0  0
    7.1015   -9.3909    0.0000 O   0  0  0  0  0  0  0  0  0  0  0  0
    7.8862   -9.6458    0.0000 C   0  0  2  0  0  0  0  0  0  0  0  0
    8.3711   -8.9784    0.0000 C   0  0  3  0  0  0  0  0  0  0  0  0
    7.8862   -8.3109    0.0000 C   0  0  2  0  0  0  0  0  0  0  0  0
    9.1558  -10.0583    0.0000 C   0  0  2  0  0  0  0  0  0  0  0  0
    9.1558   -9.2333    0.0000 C   0  0  1  0  0  0  0  0  0  0  0  0
    9.9404  -10.3132    0.0000 C   0  0  2  0  0  0  0  0  0  0  0  0
   10.4254   -9.6458    0.0000 C   0  0  2  0  0  0  0  0  0  0  0  0
    9.9404   -8.9784    0.0000 O   0  0  0  0  0  0  0  0  0  0  0  0
   11.2100   -9.9007    0.0000 O   0  0  0  0  0  0  0  0  0  0  0  0
   11.2100  -10.7257    0.0000 C   0  0  0  0  0  0  0  0  0  0  0  0
   10.4254  -10.9807    0.0000 C   0  0  2  0  0  0  0  0  0  0  0  0
    6.4341   -8.0809    0.0000 O   0  0  0  0  0  0  0  0  0  0  0  0
    8.3711  -10.3132    0.0000 C   0  0  1  0  0  0  0  0  0  0  0  0
    8.6708  -10.7257    0.0000 C   0  0  1  0  0  0  0  0  0  0  0  0
    9.9404  -11.1382    0.0000 C   0  0  1  0  0  0  0  0  0  0  0  0
    9.1558  -11.3932    0.0000 C   0  0  1  0  0  0  0  0  0  0  0  0
   11.8075  -11.1408    0.0000 O   0  0  0  0  0  0  0  0  0  0  0  0
    7.9764  -11.0280    0.0000 O   0  0  0  0  0  0  0  0  0  0  0  0
    7.8195   -7.5123    0.0000 C   0  0  0  0  0  0  0  0  0  0  0  0
    9.0053   -8.5159    0.0000 C   0  0  0  0  0  0  0  0  0  0  0  0
    8.5019   -9.5087    0.0000 O   0  0  0  0  0  0  0  0  0  0  0  0
    9.0053   -7.8727    0.0000 O   0  0  0  0  0  0  0  0  0  0  0  0
   10.8231  -11.6621    0.0000 O   0  0  0  0  0  0  0  0  0  0  0  0
    9.9981  -11.8299    0.0000 C   0  0  0  0  0  0  0  0  0  0  0  0
    9.4947  -12.4871    0.0000 C   0  0  0  0  0  0  0  0  0  0  0  0
   10.1519  -12.6549    0.0000 C   0  0  0  0  0  0  0  0  0  0  0  0
   10.6553  -12.3193    0.0000 C   0  0  0  0  0  0  0  0  0  0  0  0
    8.6697  -11.9978    0.0000 O   0  0  0  0  0  0  0  0  0  0  0  0
  1  2  1  0  0  0  0
  1 14  2  0  0  0  0
  3  2  1  6  0  0  0
  3  4  1  0  0  0  0
  3 15  1  0  0  0  0
  4  5  1  0  0  0  0
  5  1  1  0  0  0  0
  5 21  1  1  0  0  0
  6  7  1  1  0  0  0
  6 16  1  0  0  0  0
  7  4  1  0  0  0  0
  7 10  1  6  0  0  0
  7 22  1  0  0  0  0
  8  6  1  6  0  0  0
  8  9  1  0  0  0  0
  8 17  1  0  0  0  0
  9 10  1  6  0  0  0
  9 11  1  0  0  0  0
 11 12  1  0  0  0  0
 12 13  1  0  0  0  0
 12 19  2  0  0  0  0
 13  8  1  0  0  0  0
 13 25  1  6  0  0  0
 15  6  1  0  0  0  0
 15 20  1  1  0  0  0
 16 23  1  1  0  0  0
 17 18  1  0  0  0  0
 17 26  1  6  0  0  0
 18 16  1  0  0  0  0
 18 30  1  1  0  0  0
 22 23  1  0  0  0  0
 22 24  2  0  0  0  0
 26 27  1  0  0  0  0
 26 28  1  0  0  0  0
 26 29  1  0  0  0  0
M  END
>  <DRUGBANK_ID>
DB06747

>  <DRUG_GROUPS>
nutraceutical

>  <GENERIC_NAME>
ginkgolide-M

>  <CHEMICAL_FORMULA>
C20H24O10

>  <MOLECULAR_WEIGHT>
424.3986

>  <EXACT_MASS>
424.136946988

>  <IUPAC_NAME>
(1S,3R,6R,7S,8S,9R,10S,11R,12R,13R,16S)-8-tert-butyl-6,9,12-trihydroxy-16-methyl-2,4,14,19-tetraoxahexacyclo[8.7.2.0^{1,11}.0^{3,7}.0^{7,11}.0^{13,17}]nonadecane-5,15,18-trione

>  <INCHI_IDENTIFIER>
InChI=1S/C20H24O10/c1-5-6-8(27-13(5)24)10(22)19-12-7(21)9(17(2,3)4)18(19)11(23)14(25)29-16(18)30-20(6,19)15(26)28-12/h5-12,16,21-23H,1-4H3/t5-,6?,7+,8+,9-,10-,11-,12+,16-,18-,19+,20+/m0/s1

>  <INCHI_KEY>
InChIKey=KDKROYXEHCYLJQ-FJFAJXJPSA-N

>  <SMILES>
C[C@H]1C2[C@@H](OC1=O)[C@H](O)[C@]13[C@@H]4OC(=O)[C@]21O[C@@H]1OC(=O)[C@H](O)[C@]31[C@@H]([C@H]4O)C(C)(C)C

>  <JCHEM_ACCEPTOR_COUNT>
7

>  <JCHEM_DONOR_COUNT>
3

>  <JCHEM_ACIDIC_PKA>
12.05

>  <JCHEM_BASIC_PKA>
-3.3

>  <JCHEM_PHYSIOLOGICAL_CHARGE>
0

>  <ALOGPS_LOGP>
0.6

>  <JCHEM_LOGP>
-0.92

>  <ALOGPS_LOGS>
-1.7

>  <JCHEM_POLARIZABILITY>
39.37

>  <JCHEM_POLAR_SURFACE_AREA>
148.82

>  <JCHEM_REFRACTIVITY>
91.58

>  <JCHEM_ROTATABLE_BOND_COUNT>
1

>  <ALOGPS_SOLUBILITY>
7.96e+00 g/l __

$$$$
DB06748
 OpenBabel03171413522D

 75 82  0  0  1  0  0  0  0  0999 V2000
   15.1996   -4.8731    0.0000 C   0  0  0  0  0  0  0  0  0  0  0  0
   15.9141   -4.4606    0.0000 C   0  0  0  0  0  0  0  0  0  0  0  0
   16.6285   -4.8731    0.0000 C   0  0  0  0  0  0  0  0  0  0  0  0
   17.3430   -4.4606    0.0000 C   0  0  0  0  0  0  0  0  0  0  0  0
   18.0575   -4.8731    0.0000 C   0  0  1  0  0  0  0  0  0  0  0  0
   18.7719   -4.4606    0.0000 O   0  0  0  0  0  0  0  0  0  0  0  0
   19.4864   -4.8731    0.0000 C   0  0  1  0  0  0  0  0  0  0  0  0
   18.0661   -3.9852    0.0000 C   0  0  0  0  0  0  0  0  0  0  0  0
   20.2009   -4.4606    0.0000 C   0  0  1  0  0  0  0  0  0  0  0  0
   20.9154   -4.8731    0.0000 C   0  0  2  0  0  0  0  0  0  0  0  0
   20.9154   -5.6981    0.0000 C   0  0  1  0  0  0  0  0  0  0  0  0
   20.2009   -6.1106    0.0000 C   0  0  2  0  0  0  0  0  0  0  0  0
   19.4864   -5.6981    0.0000 O   0  0  0  0  0  0  0  0  0  0  0  0
   20.2008   -3.6356    0.0000 O   0  0  0  0  0  0  0  0  0  0  0  0
   21.6298   -4.4606    0.0000 O   0  0  0  0  0  0  0  0  0  0  0  0
   21.6298   -6.1106    0.0000 O   0  0  0  0  0  0  0  0  0  0  0  0
   20.2009   -6.9356    0.0000 C   0  0  0  0  0  0  0  0  0  0  0  0
   20.9154   -7.3481    0.0000 O   0  0  0  0  0  0  0  0  0  0  0  0
   14.4851   -4.4606    0.0000 C   0  0  0  0  0  0  0  0  0  0  0  0
   15.1996   -5.6981    0.0000 C   0  0  0  0  0  0  0  0  0  0  0  0
   13.7813   -8.1591    0.0000 C   0  0  0  0  0  0  0  0  0  0  0  0
   14.4958   -7.7466    0.0000 C   0  0  0  0  0  0  0  0  0  0  0  0
   15.2103   -8.1591    0.0000 C   0  0  1  0  0  0  0  0  0  0  0  0
   15.2103   -8.9841    0.0000 C   0  0  2  0  0  0  0  0  0  0  0  0
   14.4958   -9.3966    0.0000 C   0  0  0  0  0  0  0  0  0  0  0  0
   13.7813   -8.9841    0.0000 C   0  0  1  0  0  0  0  0  0  0  0  0
   15.9247   -7.7466    0.0000 C   0  0  2  0  0  0  0  0  0  0  0  0
   16.6392   -8.1591    0.0000 C   0  0  1  0  0  0  0  0  0  0  0  0
   16.6392   -8.9841    0.0000 C   0  0  0  0  0  0  0  0  0  0  0  0
   15.9247   -9.3966    0.0000 C   0  0  0  0  0  0  0  0  0  0  0  0
   15.9247   -6.9216    0.0000 C   0  0  0  0  0  0  0  0  0  0  0  0
   16.6392   -6.5091    0.0000 C   0  0  2  0  0  0  0  0  0  0  0  0
   17.3537   -6.9216    0.0000 C   0  0  1  0  0  0  0  0  0  0  0  0
   17.3537   -7.7466    0.0000 C   0  0  1  0  0  0  0  0  0  0  0  0
   18.0681   -6.5091    0.0000 C   0  0  2  0  0  0  0  0  0  0  0  0
   18.7826   -6.9216    0.0000 C   0  0  0  0  0  0  0  0  0  0  0  0
   18.7826   -7.7466    0.0000 C   0  0  0  0  0  0  0  0  0  0  0  0
   16.6118   -5.6352    0.0000 O   0  0  0  0  0  0  0  0  0  0  0  0
   16.6118   -7.2852    0.0000 C   0  0  0  0  0  0  0  0  0  0  0  0
   17.3390   -8.6275    0.0000 C   0  0  0  0  0  0  0  0  0  0  0  0
   13.8712   -9.9140    0.0000 C   0  0  0  0  0  0  0  0  0  0  0  0
   15.1017   -9.9000    0.0000 C   0  0  0  0  0  0  0  0  0  0  0  0
   13.0741   -9.3127    0.0000 O   0  0  0  0  0  0  0  0  0  0  0  0
   21.6189   -9.3985    0.0000 C   0  0  0  0  0  0  0  0  0  0  0  0
   20.9154   -9.8108    0.0000 C   0  0  2  0  0  0  0  0  0  0  0  0
   20.2007   -9.4039    0.0000 C   0  0  1  0  0  0  0  0  0  0  0  0
   20.2007   -8.5850    0.0000 C   0  0  2  0  0  0  0  0  0  0  0  0
   20.9154   -8.1726    0.0000 C   0  0  1  0  0  0  0  0  0  0  0  0
   21.6189   -8.5795    0.0000 O   0  0  0  0  0  0  0  0  0  0  0  0
   19.4861   -9.8163    0.0000 O   0  0  0  0  0  0  0  0  0  0  0  0
   19.4861   -8.1726    0.0000 O   0  0  0  0  0  0  0  0  0  0  0  0
   20.9154  -10.6354    0.0000 O   0  0  0  0  0  0  0  0  0  0  0  0
   12.3597   -8.9002    0.0000 C   0  0  1  0  0  0  0  0  0  0  0  0
   11.6452   -9.3127    0.0000 C   0  0  1  0  0  0  0  0  0  0  0  0
   10.9307   -8.9002    0.0000 C   0  0  2  0  0  0  0  0  0  0  0  0
   10.9307   -8.0752    0.0000 C   0  0  1  0  0  0  0  0  0  0  0  0
   11.6452   -7.6627    0.0000 C   0  0  2  0  0  0  0  0  0  0  0  0
   12.3597   -8.0752    0.0000 O   0  0  0  0  0  0  0  0  0  0  0  0
   10.2162   -9.3127    0.0000 O   0  0  0  0  0  0  0  0  0  0  0  0
   10.2162   -7.6627    0.0000 O   0  0  0  0  0  0  0  0  0  0  0  0
   11.6452   -6.8377    0.0000 C   0  0  0  0  0  0  0  0  0  0  0  0
   10.9307   -6.4252    0.0000 O   0  0  0  0  0  0  0  0  0  0  0  0
   11.6893  -10.5991    0.0000 O   0  0  0  0  0  0  0  0  0  0  0  0
   10.8643  -11.1725    0.0000 C   0  0  1  0  0  0  0  0  0  0  0  0
   10.1400  -10.7774    0.0000 C   0  0  1  0  0  0  0  0  0  0  0  0
    9.4357  -11.2071    0.0000 C   0  0  2  0  0  0  0  0  0  0  0  0
    9.4557  -12.0318    0.0000 C   0  0  1  0  0  0  0  0  0  0  0  0
   10.1800  -12.4269    0.0000 C   0  0  2  0  0  0  0  0  0  0  0  0
   10.8842  -11.9972    0.0000 O   0  0  0  0  0  0  0  0  0  0  0  0
    8.7114  -10.8121    0.0000 O   0  0  0  0  0  0  0  0  0  0  0  0
    8.7515  -12.4616    0.0000 O   0  0  0  0  0  0  0  0  0  0  0  0
   10.2000  -13.1818    0.0000 C   0  0  0  0  0  0  0  0  0  0  0  0
    9.4958  -13.6814    0.0000 O   0  0  0  0  0  0  0  0  0  0  0  0
   10.1377   -9.9979    0.0000 O   0  0  0  0  0  0  0  0  0  0  0  0
   15.1996   -7.2712    0.0000 C   0  0  0  0  0  0  0  0  0  0  0  0
  1 19  1  0  0  0  0
  1 20  1  0  0  0  0
  2  1  2  0  0  0  0
  3  2  1  0  0  0  0
  4  3  1  0  0  0  0
  5  4  1  6  0  0  0
  5  6  1  0  0  0  0
  5  8  1  0  0  0  0
  7  6  1  1  0  0  0
  7  9  1  0  0  0  0
  9 10  1  0  0  0  0
  9 14  1  6  0  0  0
 10 11  1  0  0  0  0
 10 15  1  1  0  0  0
 11 12  1  0  0  0  0
 11 16  1  6  0  0  0
 12 13  1  0  0  0  0
 12 17  1  1  0  0  0
 13  7  1  0  0  0  0
 17 18  1  0  0  0  0
 21 22  1  0  0  0  0
 22 23  1  0  0  0  0
 23 27  1  0  0  0  0
 23 75  1  1  0  0  0
 24 25  1  1  0  0  0
 24 23  1  0  0  0  0
 25 26  1  0  0  0  0
 25 41  1  0  0  0  0
 25 42  1  0  0  0  0
 26 21  1  0  0  0  0
 26 43  1  1  0  0  0
 27 31  1  1  0  0  0
 28 29  1  0  0  0  0
 28 27  1  0  0  0  0
 28 39  1  1  0  0  0
 29 30  1  0  0  0  0
 30 24  1  0  0  0  0
 31 32  1  0  0  0  0
 32 38  1  1  0  0  0
 33 32  1  6  0  0  0
 33 35  1  0  0  0  0
 33 34  1  0  0  0  0
 34 28  1  0  0  0  0
 34 37  1  0  0  0  0
 34 40  1  6  0  0  0
 35 36  1  1  0  0  0
 35  5  1  0  0  0  0
 36 37  1  0  0  0  0
 44 45  1  0  0  0  0
 45 46  1  0  0  0  0
 45 52  1  1  0  0  0
 46 47  1  0  0  0  0
 46 50  1  6  0  0  0
 47 48  1  0  0  0  0
 47 51  1  1  0  0  0
 48 49  1  0  0  0  0
 48 18  1  6  0  0  0
 49 44  1  0  0  0  0
 53 43  1  1  0  0  0
 53 54  1  0  0  0  0
 54 55  1  0  0  0  0
 54 63  1  6  0  0  0
 55 56  1  0  0  0  0
 55 59  1  1  0  0  0
 56 57  1  0  0  0  0
 56 60  1  6  0  0  0
 57 58  1  0  0  0  0
 57 61  1  1  0  0  0
 58 53  1  0  0  0  0
 61 62  1  0  0  0  0
 64 63  1  6  0  0  0
 64 65  1  0  0  0  0
 65 66  1  0  0  0  0
 65 74  1  1  0  0  0
 66 67  1  0  0  0  0
 66 70  1  6  0  0  0
 67 68  1  0  0  0  0
 67 71  1  1  0  0  0
 68 69  1  0  0  0  0
 68 72  1  6  0  0  0
 69 64  1  0  0  0  0
 72 73  1  0  0  0  0
M  END
>  <DRUGBANK_ID>
DB06748

>  <DRUG_GROUPS>
nutraceutical

>  <GENERIC_NAME>
ginsenoside C

>  <CHEMICAL_FORMULA>
C53H90O22

>  <MOLECULAR_WEIGHT>
1079.2685

>  <EXACT_MASS>
1078.592374564

>  <IUPAC_NAME>
(2S,3R,4S,5S,6R)-2-{[(2S)-2-[(1R,2R,5S,7R,10R,11R,14S,15R,16R)-5-{[(2R,3R,4S,5S,6R)-4,5-dihydroxy-6-(hydroxymethyl)-3-{[(2S,3R,4S,5S,6R)-3,4,5-trihydroxy-6-(hydroxymethyl)oxan-2-yl]oxy}oxan-2-yl]oxy}-16-hydroxy-2,6,6,10,11-pentamethyltetracyclo[8.7.0.0^{2,7}.0^{11,15}]heptadecan-14-yl]-6-methylhept-5-en-2-yl]oxy}-6-({[(2S,3R,4S,5R)-3,4,5-trihydroxyoxan-2-yl]oxy}methyl)oxane-3,4,5-triol

>  <INCHI_IDENTIFIER>
InChI=1S/C53H90O22/c1-23(2)10-9-14-53(8,75-47-43(67)39(63)37(61)29(72-47)22-69-45-41(65)34(58)26(57)21-68-45)24-11-16-52(7)33(24)25(56)18-31-50(5)15-13-32(49(3,4)30(50)12-17-51(31,52)6)73-48-44(40(64)36(60)28(20-55)71-48)74-46-42(66)38(62)35(59)27(19-54)70-46/h10,24-48,54-67H,9,11-22H2,1-8H3/t24-,25+,26+,27+,28+,29+,30-,31+,32-,33-,34-,35+,36+,37+,38-,39-,40-,41+,42+,43+,44+,45-,46-,47-,48-,50-,51+,52+,53-/m0/s1

>  <INCHI_KEY>
InChIKey=NODILNFGTFIURN-USYOXQFSSA-N

>  <SMILES>
CC(C)=CCC[C@](C)(O[C@@H]1O[C@H](CO[C@@H]2OC[C@@H](O)[C@H](O)[C@H]2O)[C@@H](O)[C@H](O)[C@H]1O)[C@H]1CC[C@]2(C)[C@@H]1[C@H](O)C[C@@H]1[C@@]3(C)CC[C@H](O[C@@H]4O[C@H](CO)[C@@H](O)[C@H](O)[C@H]4O[C@@H]4O[C@H](CO)[C@@H](O)[C@H](O)[C@H]4O)C(C)(C)[C@@H]3CC[C@@]21C

>  <JCHEM_ACCEPTOR_COUNT>
22

>  <JCHEM_DONOR_COUNT>
14

>  <JCHEM_ACIDIC_PKA>
11.75

>  <JCHEM_BASIC_PKA>
-3.6

>  <JCHEM_PHYSIOLOGICAL_CHARGE>
0

>  <ALOGPS_LOGP>
-0.02

>  <JCHEM_LOGP>
-0.92

>  <ALOGPS_LOGS>
-3.1

>  <JCHEM_POLARIZABILITY>
117.65

>  <JCHEM_POLAR_SURFACE_AREA>
357.06

>  <JCHEM_REFRACTIVITY>
260.93

>  <JCHEM_ROTATABLE_BOND_COUNT>
15

>  <ALOGPS_SOLUBILITY>
7.84e-01 g/l __

$$$$
DB06749
 OpenBabel03171413522D

 77 84  0  0  1  0  0  0  0  0999 V2000
   15.1996   -4.8731    0.0000 C   0  0  0  0  0  0  0  0  0  0  0  0
   15.9141   -4.4606    0.0000 C   0  0  0  0  0  0  0  0  0  0  0  0
   16.6285   -4.8731    0.0000 C   0  0  0  0  0  0  0  0  0  0  0  0
   17.3430   -4.4606    0.0000 C   0  0  0  0  0  0  0  0  0  0  0  0
   18.0575   -4.8731    0.0000 C   0  0  1  0  0  0  0  0  0  0  0  0
   18.7719   -4.4606    0.0000 O   0  0  0  0  0  0  0  0  0  0  0  0
   19.4864   -4.8731    0.0000 C   0  0  1  0  0  0  0  0  0  0  0  0
   18.0661   -3.9852    0.0000 C   0  0  0  0  0  0  0  0  0  0  0  0
   20.2009   -4.4606    0.0000 C   0  0  1  0  0  0  0  0  0  0  0  0
   20.9154   -4.8731    0.0000 C   0  0  2  0  0  0  0  0  0  0  0  0
   20.9154   -5.6981    0.0000 C   0  0  1  0  0  0  0  0  0  0  0  0
   20.2009   -6.1106    0.0000 C   0  0  2  0  0  0  0  0  0  0  0  0
   19.4864   -5.6981    0.0000 O   0  0  0  0  0  0  0  0  0  0  0  0
   20.2008   -3.6356    0.0000 O   0  0  0  0  0  0  0  0  0  0  0  0
   21.6298   -4.4606    0.0000 O   0  0  0  0  0  0  0  0  0  0  0  0
   21.6298   -6.1106    0.0000 O   0  0  0  0  0  0  0  0  0  0  0  0
   20.2009   -6.9356    0.0000 C   0  0  0  0  0  0  0  0  0  0  0  0
   20.9154   -7.3481    0.0000 O   0  0  0  0  0  0  0  0  0  0  0  0
   14.4851   -4.4606    0.0000 C   0  0  0  0  0  0  0  0  0  0  0  0
   15.1996   -5.6981    0.0000 C   0  0  0  0  0  0  0  0  0  0  0  0
   13.7813   -8.1591    0.0000 C   0  0  0  0  0  0  0  0  0  0  0  0
   14.4958   -7.7466    0.0000 C   0  0  2  0  0  0  0  0  0  0  0  0
   15.2103   -8.1591    0.0000 C   0  0  3  0  0  0  0  0  0  0  0  0
   15.2103   -8.9841    0.0000 C   0  0  2  0  0  0  0  0  0  0  0  0
   14.4958   -9.3966    0.0000 C   0  0  0  0  0  0  0  0  0  0  0  0
   13.7813   -8.9841    0.0000 C   0  0  1  0  0  0  0  0  0  0  0  0
   15.9247   -7.7466    0.0000 C   0  0  2  0  0  0  0  0  0  0  0  0
   16.6392   -8.1591    0.0000 C   0  0  1  0  0  0  0  0  0  0  0  0
   16.6392   -8.9841    0.0000 C   0  0  0  0  0  0  0  0  0  0  0  0
   15.9247   -9.3966    0.0000 C   0  0  0  0  0  0  0  0  0  0  0  0
   15.9247   -6.9216    0.0000 C   0  0  0  0  0  0  0  0  0  0  0  0
   16.6392   -6.5091    0.0000 C   0  0  2  0  0  0  0  0  0  0  0  0
   17.3537   -6.9216    0.0000 C   0  0  1  0  0  0  0  0  0  0  0  0
   17.3537   -7.7466    0.0000 C   0  0  1  0  0  0  0  0  0  0  0  0
   18.0681   -6.5091    0.0000 C   0  0  2  0  0  0  0  0  0  0  0  0
   18.7826   -6.9216    0.0000 C   0  0  0  0  0  0  0  0  0  0  0  0
   18.7826   -7.7466    0.0000 C   0  0  0  0  0  0  0  0  0  0  0  0
   16.6118   -5.6352    0.0000 O   0  0  0  0  0  0  0  0  0  0  0  0
   14.4585   -6.8937    0.0000 C   0  0  0  0  0  0  0  0  0  0  0  0
   16.6118   -7.2852    0.0000 C   0  0  0  0  0  0  0  0  0  0  0  0
   17.3390   -8.6275    0.0000 C   0  0  0  0  0  0  0  0  0  0  0  0
   13.8712   -9.9140    0.0000 C   0  0  0  0  0  0  0  0  0  0  0  0
   15.1017   -9.9000    0.0000 C   0  0  0  0  0  0  0  0  0  0  0  0
   13.0741   -9.3127    0.0000 O   0  0  0  0  0  0  0  0  0  0  0  0
   22.3336   -9.8163    0.0000 C   0  0  0  0  0  0  0  0  0  0  0  0
   21.6189   -9.3985    0.0000 C   0  0  2  0  0  0  0  0  0  0  0  0
   20.9154   -9.8108    0.0000 C   0  0  2  0  0  0  0  0  0  0  0  0
   20.2007   -9.4039    0.0000 C   0  0  1  0  0  0  0  0  0  0  0  0
   20.2007   -8.5850    0.0000 C   0  0  2  0  0  0  0  0  0  0  0  0
   20.9154   -8.1726    0.0000 C   0  0  1  0  0  0  0  0  0  0  0  0
   21.6189   -8.5795    0.0000 O   0  0  0  0  0  0  0  0  0  0  0  0
   19.4861   -9.8163    0.0000 O   0  0  0  0  0  0  0  0  0  0  0  0
   19.4861   -8.1726    0.0000 O   0  0  0  0  0  0  0  0  0  0  0  0
   20.9154  -10.6354    0.0000 O   0  0  0  0  0  0  0  0  0  0  0  0
   23.0481   -9.4039    0.0000 O   0  0  0  0  0  0  0  0  0  0  0  0
   12.3597   -8.9002    0.0000 C   0  0  1  0  0  0  0  0  0  0  0  0
   11.6452   -9.3127    0.0000 C   0  0  1  0  0  0  0  0  0  0  0  0
   10.9307   -8.9002    0.0000 C   0  0  2  0  0  0  0  0  0  0  0  0
   10.9307   -8.0752    0.0000 C   0  0  1  0  0  0  0  0  0  0  0  0
   11.6452   -7.6627    0.0000 C   0  0  2  0  0  0  0  0  0  0  0  0
   12.3597   -8.0752    0.0000 O   0  0  0  0  0  0  0  0  0  0  0  0
   10.2162   -9.3127    0.0000 O   0  0  0  0  0  0  0  0  0  0  0  0
   10.2162   -7.6627    0.0000 O   0  0  0  0  0  0  0  0  0  0  0  0
   11.6452   -6.8377    0.0000 C   0  0  0  0  0  0  0  0  0  0  0  0
   10.9307   -6.4252    0.0000 O   0  0  0  0  0  0  0  0  0  0  0  0
   11.6893  -10.5991    0.0000 O   0  0  0  0  0  0  0  0  0  0  0  0
   10.8643  -11.1725    0.0000 C   0  0  1  0  0  0  0  0  0  0  0  0
   10.1400  -10.7774    0.0000 C   0  0  1  0  0  0  0  0  0  0  0  0
    9.4357  -11.2071    0.0000 C   0  0  2  0  0  0  0  0  0  0  0  0
    9.4557  -12.0318    0.0000 C   0  0  1  0  0  0  0  0  0  0  0  0
   10.1800  -12.4269    0.0000 C   0  0  2  0  0  0  0  0  0  0  0  0
   10.8842  -11.9972    0.0000 O   0  0  0  0  0  0  0  0  0  0  0  0
    8.7114  -10.8121    0.0000 O   0  0  0  0  0  0  0  0  0  0  0  0
    8.7515  -12.4616    0.0000 O   0  0  0  0  0  0  0  0  0  0  0  0
   10.2000  -13.1818    0.0000 C   0  0  0  0  0  0  0  0  0  0  0  0
    9.4958  -13.6814    0.0000 O   0  0  0  0  0  0  0  0  0  0  0  0
   10.1377   -9.9979    0.0000 O   0  0  0  0  0  0  0  0  0  0  0  0
  1 19  1  0  0  0  0
  1 20  1  0  0  0  0
  2  1  2  0  0  0  0
  3  2  1  0  0  0  0
  4  3  1  0  0  0  0
  5  4  1  6  0  0  0
  5  6  1  0  0  0  0
  5  8  1  0  0  0  0
  7  6  1  1  0  0  0
  7  9  1  0  0  0  0
  9 10  1  0  0  0  0
  9 14  1  6  0  0  0
 10 11  1  0  0  0  0
 10 15  1  1  0  0  0
 11 12  1  0  0  0  0
 11 16  1  6  0  0  0
 12 13  1  0  0  0  0
 12 17  1  1  0  0  0
 13  7  1  0  0  0  0
 17 18  1  0  0  0  0
 21 22  1  0  0  0  0
 22 23  1  0  0  0  0
 22 39  1  1  0  0  0
 24 25  1  1  0  0  0
 24 23  1  0  0  0  0
 25 26  1  0  0  0  0
 25 42  1  0  0  0  0
 25 43  1  0  0  0  0
 26 21  1  0  0  0  0
 26 44  1  1  0  0  0
 27 23  1  0  0  0  0
 27 31  1  1  0  0  0
 28 29  1  0  0  0  0
 28 27  1  0  0  0  0
 28 40  1  1  0  0  0
 29 30  1  0  0  0  0
 30 24  1  0  0  0  0
 31 32  1  0  0  0  0
 32 38  1  1  0  0  0
 33 32  1  6  0  0  0
 33 35  1  0  0  0  0
 33 34  1  0  0  0  0
 34 28  1  0  0  0  0
 34 37  1  0  0  0  0
 34 41  1  6  0  0  0
 35 36  1  1  0  0  0
 35  5  1  0  0  0  0
 36 37  1  0  0  0  0
 45 55  1  0  0  0  0
 46 45  1  6  0  0  0
 46 47  1  0  0  0  0
 47 48  1  0  0  0  0
 47 54  1  1  0  0  0
 48 49  1  0  0  0  0
 48 52  1  6  0  0  0
 49 50  1  0  0  0  0
 49 53  1  1  0  0  0
 50 51  1  0  0  0  0
 50 18  1  6  0  0  0
 51 46  1  0  0  0  0
 56 44  1  1  0  0  0
 56 57  1  0  0  0  0
 57 58  1  0  0  0  0
 57 66  1  6  0  0  0
 58 59  1  0  0  0  0
 58 62  1  1  0  0  0
 59 60  1  0  0  0  0
 59 63  1  6  0  0  0
 60 61  1  0  0  0  0
 60 64  1  1  0  0  0
 61 56  1  0  0  0  0
 64 65  1  0  0  0  0
 67 66  1  6  0  0  0
 67 68  1  0  0  0  0
 68 69  1  0  0  0  0
 68 77  1  1  0  0  0
 69 70  1  0  0  0  0
 69 73  1  6  0  0  0
 70 71  1  0  0  0  0
 70 74  1  1  0  0  0
 71 72  1  0  0  0  0
 71 75  1  6  0  0  0
 72 67  1  0  0  0  0
 75 76  1  0  0  0  0
M  END
>  <DRUGBANK_ID>
DB06749

>  <DRUG_GROUPS>
nutraceutical

>  <GENERIC_NAME>
ginsenoside Rb1

>  <SYNONYMS>
Arasaponin E1; GRb 1; Gynosaponin c; Gypenoside III; Panax saponin e; Pseudoginsenoside d; Sanchinoside E1

>  <CHEMICAL_FORMULA>
C54H92O23

>  <MOLECULAR_WEIGHT>
1109.2945

>  <EXACT_MASS>
1108.60293925

>  <IUPAC_NAME>
(2S,3R,4S,5S,6R)-2-{[(2S)-2-[(1R,3R,5S,7R,10R,11R,14S,15R,16R)-5-{[(2R,3R,4S,5S,6R)-4,5-dihydroxy-6-(hydroxymethyl)-3-{[(2S,3R,4S,5S,6R)-3,4,5-trihydroxy-6-(hydroxymethyl)oxan-2-yl]oxy}oxan-2-yl]oxy}-16-hydroxy-3,6,6,10,11-pentamethyltetracyclo[8.7.0.0^{2,7}.0^{11,15}]heptadecan-14-yl]-6-methylhept-5-en-2-yl]oxy}-6-({[(2R,3R,4S,5S,6R)-3,4,5-trihydroxy-6-(hydroxymethyl)oxan-2-yl]oxy}methyl)oxane-3,4,5-triol

>  <INCHI_IDENTIFIER>
InChI=1S/C54H92O23/c1-22(2)10-9-13-54(8,77-49-45(69)41(65)38(62)31(74-49)21-70-47-43(67)39(63)35(59)28(18-55)71-47)25-12-15-53(7)34(25)27(58)17-26-33-23(3)16-32(51(4,5)24(33)11-14-52(26,53)6)75-50-46(42(66)37(61)30(20-57)73-50)76-48-44(68)40(64)36(60)29(19-56)72-48/h10,23-50,55-69H,9,11-21H2,1-8H3/t23-,24-,25+,26-,27-,28-,29-,30-,31-,32+,33?,34+,35-,36-,37-,38-,39+,40+,41+,42+,43-,44-,45-,46-,47-,48+,49+,50+,52-,53-,54+/m1/s1

>  <INCHI_KEY>
InChIKey=JRZQHNRYHFRTFZ-MHMDWUMYSA-N

>  <SMILES>
C[C@@H]1C[C@H](O[C@@H]2O[C@H](CO)[C@@H](O)[C@H](O)[C@H]2O[C@@H]2O[C@H](CO)[C@@H](O)[C@H](O)[C@H]2O)C(C)(C)[C@@H]2CC[C@]3(C)[C@H](C[C@@H](O)[C@@H]4[C@H](CC[C@@]34C)[C@](C)(CCC=C(C)C)O[C@@H]3O[C@H](CO[C@@H]4O[C@H](CO)[C@@H](O)[C@H](O)[C@H]4O)[C@@H](O)[C@H](O)[C@H]3O)C12

>  <JCHEM_ACCEPTOR_COUNT>
23

>  <JCHEM_DONOR_COUNT>
15

>  <JCHEM_ACIDIC_PKA>
11.75

>  <JCHEM_BASIC_PKA>
-3.6

>  <JCHEM_PHYSIOLOGICAL_CHARGE>
0

>  <ALOGPS_LOGP>
-0.34

>  <JCHEM_LOGP>
-1.6

>  <ALOGPS_LOGS>
-3

>  <JCHEM_POLARIZABILITY>
119.29

>  <JCHEM_POLAR_SURFACE_AREA>
377.29

>  <JCHEM_REFRACTIVITY>
266.96

>  <JCHEM_ROTATABLE_BOND_COUNT>
16

>  <ALOGPS_SOLUBILITY>
1.18e+00 g/l __

$$$$
DB06750
 OpenBabel03171413522D

 56 61  0  0  1  0  0  0  0  0999 V2000
    5.6212   -7.5159    0.0000 C   0  0  0  0  0  0  0  0  0  0  0  0
    6.3356   -7.1034    0.0000 C   0  0  0  0  0  0  0  0  0  0  0  0
    7.0502   -7.5159    0.0000 C   0  0  0  0  0  0  0  0  0  0  0  0
    7.7646   -7.1034    0.0000 C   0  0  0  0  0  0  0  0  0  0  0  0
    8.4791   -7.5159    0.0000 C   0  0  1  0  0  0  0  0  0  0  0  0
    9.1935   -7.1034    0.0000 O   0  0  0  0  0  0  0  0  0  0  0  0
    9.9080   -7.5159    0.0000 C   0  0  1  0  0  0  0  0  0  0  0  0
    8.4877   -6.6280    0.0000 C   0  0  0  0  0  0  0  0  0  0  0  0
   10.6225   -7.1034    0.0000 C   0  0  1  0  0  0  0  0  0  0  0  0
   11.3370   -7.5159    0.0000 C   0  0  2  0  0  0  0  0  0  0  0  0
   11.3370   -8.3409    0.0000 C   0  0  1  0  0  0  0  0  0  0  0  0
   10.6225   -8.7534    0.0000 C   0  0  2  0  0  0  0  0  0  0  0  0
    9.9080   -8.3409    0.0000 O   0  0  0  0  0  0  0  0  0  0  0  0
   10.6225   -6.2784    0.0000 O   0  0  0  0  0  0  0  0  0  0  0  0
   12.0515   -7.1034    0.0000 O   0  0  0  0  0  0  0  0  0  0  0  0
   12.0515   -8.7534    0.0000 O   0  0  0  0  0  0  0  0  0  0  0  0
   10.6225   -9.5784    0.0000 C   0  0  0  0  0  0  0  0  0  0  0  0
   11.3370   -9.9909    0.0000 O   0  0  0  0  0  0  0  0  0  0  0  0
    4.9067   -7.1034    0.0000 C   0  0  0  0  0  0  0  0  0  0  0  0
    5.6212   -8.3409    0.0000 C   0  0  0  0  0  0  0  0  0  0  0  0
    4.2029  -10.8019    0.0000 C   0  0  0  0  0  0  0  0  0  0  0  0
    4.9174  -10.3894    0.0000 C   0  0  2  0  0  0  0  0  0  0  0  0
    5.6319  -10.8019    0.0000 C   0  0  3  0  0  0  0  0  0  0  0  0
    5.6319  -11.6269    0.0000 C   0  0  2  0  0  0  0  0  0  0  0  0
    4.9174  -12.0394    0.0000 C   0  0  0  0  0  0  0  0  0  0  0  0
    4.2029  -11.6269    0.0000 C   0  0  1  0  0  0  0  0  0  0  0  0
    6.3464  -10.3894    0.0000 C   0  0  2  0  0  0  0  0  0  0  0  0
    7.0608  -10.8019    0.0000 C   0  0  1  0  0  0  0  0  0  0  0  0
    7.0608  -11.6269    0.0000 C   0  0  0  0  0  0  0  0  0  0  0  0
    6.3464  -12.0394    0.0000 C   0  0  2  0  0  0  0  0  0  0  0  0
    6.3464   -9.5644    0.0000 C   0  0  0  0  0  0  0  0  0  0  0  0
    7.0608   -9.1519    0.0000 C   0  0  2  0  0  0  0  0  0  0  0  0
    7.7753   -9.5644    0.0000 C   0  0  1  0  0  0  0  0  0  0  0  0
    7.7753  -10.3894    0.0000 C   0  0  1  0  0  0  0  0  0  0  0  0
    8.4897   -9.1519    0.0000 C   0  0  2  0  0  0  0  0  0  0  0  0
    9.2042   -9.5644    0.0000 C   0  0  0  0  0  0  0  0  0  0  0  0
    9.2042  -10.3894    0.0000 C   0  0  0  0  0  0  0  0  0  0  0  0
    7.0335   -8.2780    0.0000 O   0  0  0  0  0  0  0  0  0  0  0  0
    4.8801   -9.5364    0.0000 C   0  0  0  0  0  0  0  0  0  0  0  0
    7.0335   -9.9280    0.0000 C   0  0  0  0  0  0  0  0  0  0  0  0
    7.7606  -11.2704    0.0000 C   0  0  0  0  0  0  0  0  0  0  0  0
    4.2928  -12.5568    0.0000 C   0  0  0  0  0  0  0  0  0  0  0  0
    5.5233  -12.5428    0.0000 C   0  0  0  0  0  0  0  0  0  0  0  0
    3.4958  -11.9555    0.0000 O   0  0  0  0  0  0  0  0  0  0  0  0
    6.4462  -13.0462    0.0000 O   0  0  0  0  0  0  0  0  0  0  0  0
    7.2712  -13.6195    0.0000 C   0  0  1  0  0  0  0  0  0  0  0  0
    7.9954  -13.2244    0.0000 C   0  0  1  0  0  0  0  0  0  0  0  0
    8.6997  -13.6542    0.0000 C   0  0  2  0  0  0  0  0  0  0  0  0
    8.6797  -14.4789    0.0000 C   0  0  1  0  0  0  0  0  0  0  0  0
    7.9554  -14.8739    0.0000 C   0  0  2  0  0  0  0  0  0  0  0  0
    7.2512  -14.4443    0.0000 O   0  0  0  0  0  0  0  0  0  0  0  0
    8.0155  -12.3997    0.0000 O   0  0  0  0  0  0  0  0  0  0  0  0
    9.4240  -13.2591    0.0000 O   0  0  0  0  0  0  0  0  0  0  0  0
    9.3840  -14.9086    0.0000 O   0  0  0  0  0  0  0  0  0  0  0  0
    7.9354  -15.6987    0.0000 C   0  0  0  0  0  0  0  0  0  0  0  0
    8.6397  -16.1284    0.0000 O   0  0  0  0  0  0  0  0  0  0  0  0
  1 19  1  0  0  0  0
  1 20  1  0  0  0  0
  2  1  2  0  0  0  0
  3  2  1  0  0  0  0
  4  3  1  0  0  0  0
  5  4  1  6  0  0  0
  5  6  1  0  0  0  0
  5  8  1  0  0  0  0
  7  6  1  1  0  0  0
  7  9  1  0  0  0  0
  9 10  1  0  0  0  0
  9 14  1  6  0  0  0
 10 11  1  0  0  0  0
 10 15  1  1  0  0  0
 11 12  1  0  0  0  0
 11 16  1  6  0  0  0
 12 13  1  0  0  0  0
 12 17  1  1  0  0  0
 13  7  1  0  0  0  0
 17 18  1  0  0  0  0
 21 22  1  0  0  0  0
 22 23  1  0  0  0  0
 22 39  1  1  0  0  0
 24 25  1  1  0  0  0
 24 23  1  0  0  0  0
 25 26  1  0  0  0  0
 25 42  1  0  0  0  0
 25 43  1  0  0  0  0
 26 21  1  0  0  0  0
 26 44  1  1  0  0  0
 27 23  1  0  0  0  0
 27 31  1  1  0  0  0
 28 29  1  0  0  0  0
 28 27  1  0  0  0  0
 28 40  1  1  0  0  0
 29 30  1  0  0  0  0
 30 24  1  0  0  0  0
 30 45  1  6  0  0  0
 31 32  1  0  0  0  0
 32 38  1  1  0  0  0
 33 32  1  6  0  0  0
 33 35  1  0  0  0  0
 33 34  1  0  0  0  0
 34 28  1  0  0  0  0
 34 37  1  0  0  0  0
 34 41  1  6  0  0  0
 35 36  1  1  0  0  0
 35  5  1  0  0  0  0
 36 37  1  0  0  0  0
 46 45  1  1  0  0  0
 46 47  1  0  0  0  0
 47 48  1  0  0  0  0
 47 52  1  6  0  0  0
 48 49  1  0  0  0  0
 48 53  1  1  0  0  0
 49 50  1  0  0  0  0
 49 54  1  6  0  0  0
 50 51  1  0  0  0  0
 50 55  1  1  0  0  0
 51 46  1  0  0  0  0
 55 56  1  0  0  0  0
M  END
>  <DRUGBANK_ID>
DB06750

>  <DRUG_GROUPS>
nutraceutical

>  <GENERIC_NAME>
Ginsenoside Rg1

>  <SYNONYMS>
Sanchinoside C1

>  <CHEMICAL_FORMULA>
C42H72O14

>  <MOLECULAR_WEIGHT>
801.0127

>  <EXACT_MASS>
800.492207012

>  <IUPAC_NAME>
(2S,3R,4S,5S,6R)-2-{[(2S)-2-[(1R,3R,5S,7R,8S,10R,11R,14S,15R,16R)-5,16-dihydroxy-3,6,6,10,11-pentamethyl-8-{[(2R,3R,4S,5S,6R)-3,4,5-trihydroxy-6-(hydroxymethyl)oxan-2-yl]oxy}tetracyclo[8.7.0.0^{2,7}.0^{11,15}]heptadecan-14-yl]-6-methylhept-5-en-2-yl]oxy}-6-(hydroxymethyl)oxane-3,4,5-triol

>  <INCHI_IDENTIFIER>
InChI=1S/C42H72O14/c1-19(2)10-9-12-42(8,56-38-36(52)34(50)32(48)26(18-44)55-38)21-11-13-40(6)29(21)23(45)15-22-28-20(3)14-27(46)39(4,5)30(28)24(16-41(22,40)7)53-37-35(51)33(49)31(47)25(17-43)54-37/h10,20-38,43-52H,9,11-18H2,1-8H3/t20-,21+,22-,23-,24+,25-,26-,27+,28?,29+,30-,31-,32-,33+,34+,35-,36-,37-,38+,40-,41-,42+/m1/s1

>  <INCHI_KEY>
InChIKey=BPULMONLIRTBIG-SIWKGUCZSA-N

>  <SMILES>
C[C@@H]1C[C@H](O)C(C)(C)[C@@H]2[C@H](C[C@]3(C)[C@H](C[C@@H](O)[C@@H]4[C@H](CC[C@@]34C)[C@](C)(CCC=C(C)C)O[C@@H]3O[C@H](CO)[C@@H](O)[C@H](O)[C@H]3O)C12)O[C@@H]1O[C@H](CO)[C@@H](O)[C@H](O)[C@H]1O

>  <JCHEM_ACCEPTOR_COUNT>
14

>  <JCHEM_DONOR_COUNT>
10

>  <JCHEM_ACIDIC_PKA>
11.91

>  <JCHEM_BASIC_PKA>
-3

>  <JCHEM_PHYSIOLOGICAL_CHARGE>
0

>  <ALOGPS_LOGP>
0.59

>  <JCHEM_LOGP>
0.67

>  <ALOGPS_LOGS>
-3.4

>  <JCHEM_POLARIZABILITY>
88.2

>  <JCHEM_POLAR_SURFACE_AREA>
239.22

>  <JCHEM_REFRACTIVITY>
203.73

>  <JCHEM_ROTATABLE_BOND_COUNT>
10

>  <ALOGPS_SOLUBILITY>
3.31e-01 g/l __

$$$$
DB08887
 OpenBabel03171413522D

 24 23  0  0  0  0  0  0  0  0999 V2000
    3.7646  -11.2520    0.0000 C   0  0  0  0  0  0  0  0  0  0  0  0
    4.4757  -11.6703    0.0000 O   0  0  0  0  0  0  0  0  0  0  0  0
    3.0535  -11.6703    0.0000 C   0  0  0  0  0  0  0  0  0  0  0  0
    5.1868  -11.2520    0.0000 C   0  0  0  0  0  0  0  0  0  0  0  0
    5.8979  -11.6703    0.0000 C   0  0  0  0  0  0  0  0  0  0  0  0
    5.1868  -10.4155    0.0000 O   0  0  0  0  0  0  0  0  0  0  0  0
    6.6090  -11.2520    0.0000 C   0  0  0  0  0  0  0  0  0  0  0  0
    7.3201  -11.6703    0.0000 C   0  0  0  0  0  0  0  0  0  0  0  0
    8.0312  -11.2520    0.0000 C   0  0  0  0  0  0  0  0  0  0  0  0
    8.8678  -11.2520    0.0000 C   0  0  0  0  0  0  0  0  0  0  0  0
    9.5789  -11.6703    0.0000 C   0  0  0  0  0  0  0  0  0  0  0  0
   10.2900  -11.2520    0.0000 C   0  0  0  0  0  0  0  0  0  0  0  0
   11.1266  -11.2520    0.0000 C   0  0  0  0  0  0  0  0  0  0  0  0
   11.8377  -11.6703    0.0000 C   0  0  0  0  0  0  0  0  0  0  0  0
   12.5487  -11.2520    0.0000 C   0  0  0  0  0  0  0  0  0  0  0  0
   13.3853  -11.2520    0.0000 C   0  0  0  0  0  0  0  0  0  0  0  0
   14.0964  -11.6703    0.0000 C   0  0  0  0  0  0  0  0  0  0  0  0
   14.8075  -11.2520    0.0000 C   0  0  0  0  0  0  0  0  0  0  0  0
   15.6441  -11.2520    0.0000 C   0  0  0  0  0  0  0  0  0  0  0  0
   16.3552  -11.6703    0.0000 C   0  0  0  0  0  0  0  0  0  0  0  0
   17.0663  -11.2520    0.0000 C   0  0  0  0  0  0  0  0  0  0  0  0
   17.9029  -11.2520    0.0000 C   0  0  0  0  0  0  0  0  0  0  0  0
   18.6140  -11.6703    0.0000 C   0  0  0  0  0  0  0  0  0  0  0  0
   19.3251  -11.2520    0.0000 C   0  0  0  0  0  0  0  0  0  0  0  0
  1  2  1  0  0  0  0
  1  3  1  0  0  0  0
  2  4  1  0  0  0  0
  4  5  1  0  0  0  0
  4  6  2  0  0  0  0
  5  7  1  0  0  0  0
  7  8  1  0  0  0  0
  8  9  1  0  0  0  0
  9 10  2  0  0  0  0
 10 11  1  0  0  0  0
 11 12  1  0  0  0  0
 12 13  2  0  0  0  0
 13 14  1  0  0  0  0
 14 15  1  0  0  0  0
 15 16  2  0  0  0  0
 16 17  1  0  0  0  0
 17 18  1  0  0  0  0
 18 19  2  0  0  0  0
 19 20  1  0  0  0  0
 20 21  1  0  0  0  0
 21 22  2  0  0  0  0
 22 23  1  0  0  0  0
 23 24  1  0  0  0  0
M  END
>  <DRUGBANK_ID>
DB08887

>  <DRUG_GROUPS>
approved; nutraceutical

>  <GENERIC_NAME>
Icosapent ethyl

>  <SYNONYMS>
AMR101; Ethyl Eicosapentaenoate; Ethyl icosapentate ; Ethyl-Eicosapentaenoic Acid; Ethyl-EPA

>  <BRANDS>
Epadel ; EPAX ; Vascepa

>  <CHEMICAL_FORMULA>
C22H34O2

>  <MOLECULAR_WEIGHT>
330.5042

>  <EXACT_MASS>
330.255880332

>  <IUPAC_NAME>
ethyl (5Z,8Z,11Z,14Z,17Z)-icosa-5,8,11,14,17-pentaenoate

>  <INCHI_IDENTIFIER>
InChI=1/C22H34O2/c1-3-5-6-7-8-9-10-11-12-13-14-15-16-17-18-19-20-21-22(23)24-4-2/h5-6,8-9,11-12,14-15,17-18H,3-4,7,10,13,16,19-21H2,1-2H3/b6-5-,9-8-,12-11-,15-14-,18-17-

>  <INCHI_KEY>
InChIKey=SSQPWTVBQMWLSZ-AAQCHOMXNA-N

>  <SMILES>
CCOC(=O)CCC\C=C/C\C=C/C\C=C/C\C=C/C\C=C/CC

>  <JCHEM_ACCEPTOR_COUNT>
1

>  <JCHEM_DONOR_COUNT>
0

>  <JCHEM_BASIC_PKA>
-7

>  <JCHEM_PHYSIOLOGICAL_CHARGE>
0

>  <ALOGPS_LOGP>
6.8

>  <JCHEM_LOGP>
6.73

>  <ALOGPS_LOGS>
-6.5

>  <JCHEM_POLARIZABILITY>
40.4

>  <JCHEM_POLAR_SURFACE_AREA>
26.3

>  <JCHEM_REFRACTIVITY>
110.59

>  <JCHEM_ROTATABLE_BOND_COUNT>
15

>  <ALOGPS_SOLUBILITY>
9.83e-05 g/l __

$$$$
CLK001B04 __  __  __
 OpenBabel03171413522D

 24 26  0  0  0  0  0  0  0  0999 V2000
   -1.5258    0.0076    0.0000 C   0  0  0  0  0  0  0  0  0  0  0  0
   -0.7155    0.1514    0.0000 C   0  0  3  0  0  0  0  0  0  0  0  0
   -1.6393   -0.8026    0.0000 C   0  0  0  0  0  0  0  0  0  0  0  0
   -2.1731    0.5301    0.0000 C   0  0  0  0  0  0  0  0  0  0  0  0
   -0.3331   -0.5793    0.0000 C   0  0  0  0  0  0  0  0  0  0  0  0
    0.2120    0.7761    0.0000 C   0  0  0  0  0  0  0  0  0  0  0  0
   -0.9768    1.0903    0.0000 O   0  0  0  0  0  0  0  0  0  0  0  0
   -0.9086   -1.1661    0.0000 N   0  0  0  0  0  0  0  0  0  0  0  0
   -2.4041   -1.1131    0.0000 C   0  0  0  0  0  0  0  0  0  0  0  0
   -2.9416    0.2120    0.0000 C   0  0  0  0  0  0  0  0  0  0  0  0
    0.4846   -0.6928    0.0000 O   0  0  0  0  0  0  0  0  0  0  0  0
    0.9994    0.3634    0.0000 C   0  0  0  0  0  0  0  0  0  0  0  0
   -0.7610   -1.9762    0.0000 C   0  0  0  0  0  0  0  0  0  0  0  0
   -3.0553   -0.6057    0.0000 C   0  0  0  0  0  0  0  0  0  0  0  0
    1.6999    0.8101    0.0000 C   0  0  0  0  0  0  0  0  0  0  0  0
    1.0336   -0.3218    0.0000 O   0  0  0  0  0  0  0  0  0  0  0  0
   -1.3933   -2.5025    0.0000 C   0  0  0  0  0  0  0  0  0  0  0  0
    2.4267    0.4316    0.0000 C   0  0  0  0  0  0  0  0  0  0  0  0
    1.6582    1.6317    0.0000 C   0  0  0  0  0  0  0  0  0  0  0  0
   -2.0254   -3.0325    0.0000 C   0  0  0  0  0  0  0  0  0  0  0  0
    3.1196    0.8708    0.0000 C   0  0  0  0  0  0  0  0  0  0  0  0
    2.3511    2.0785    0.0000 C   0  0  0  0  0  0  0  0  0  0  0  0
    3.0855    1.6961    0.0000 C   0  0  0  0  0  0  0  0  0  0  0  0
    3.7784    2.1391    0.0000 C   0  0  0  0  0  0  0  0  0  0  0  0
  1  2  1  0  0  0  0
  1  3  2  0  0  0  0
  1  4  1  0  0  0  0
  2  5  1  0  0  0  0
  2  6  1  0  0  0  0
  2  7  1  0  0  0  0
  3  8  1  0  0  0  0
  3  9  1  0  0  0  0
  4 10  2  0  0  0  0
  5 11  2  0  0  0  0
  5  8  1  0  0  0  0
  6 12  1  0  0  0  0
  8 13  1  0  0  0  0
  9 14  2  0  0  0  0
 10 14  1  0  0  0  0
 12 15  1  0  0  0  0
 12 16  2  0  0  0  0
 13 17  1  0  0  0  0
 15 18  1  0  0  0  0
 15 19  2  0  0  0  0
 17 20  3  0  0  0  0
 18 21  2  0  0  0  0
 19 22  1  0  0  0  0
 21 23  1  0  0  0  0
 22 23  2  0  0  0  0
 23 24  1  0  0  0  0
M  END
>  <CdId>
13

>  <Mol Weight>
319.3539

>  <Formula>
C20H17NO3

>  <Click_ID>
CLK001B04 __  __  __

$$$$
CLK001B06 __  __  __
 OpenBabel03171413522D

 14 14  0  0  0  0  0  0  0  0999 V2000
    0.1038   -0.4751    0.0000 C   0  0  0  0  0  0  0  0  0  0  0  0
    0.8117   -0.0567    0.0000 C   0  0  0  0  0  0  0  0  0  0  0  0
   -0.6072   -0.0567    0.0000 C   0  0  0  0  0  0  0  0  0  0  0  0
    0.1038   -1.3119    0.0000 N   0  3  0  0  0  0  0  0  0  0  0  0
    0.8117    0.7645    0.0000 C   0  0  0  0  0  0  0  0  0  0  0  0
    1.5417   -0.4908    0.0000 C   0  0  0  0  0  0  0  0  0  0  0  0
   -0.6072    0.7645    0.0000 C   0  0  0  0  0  0  0  0  0  0  0  0
    0.8117   -1.7178    0.0000 O   0  0  0  0  0  0  0  0  0  0  0  0
   -0.6072   -1.7178    0.0000 O   0  5  0  0  0  0  0  0  0  0  0  0
    0.1038    1.1861    0.0000 C   0  0  0  0  0  0  0  0  0  0  0  0
    2.2716   -0.9313    0.0000 C   0  0  0  0  0  0  0  0  0  0  0  0
   -1.3371    1.2018    0.0000 N   0  3  0  0  0  0  0  0  0  0  0  0
   -2.0670    0.7866    0.0000 O   0  0  0  0  0  0  0  0  0  0  0  0
   -1.3371    2.0418    0.0000 O   0  5  0  0  0  0  0  0  0  0  0  0
  1  2  1  0  0  0  0
  1  3  2  0  0  0  0
  1  4  1  0  0  0  0
  2  5  2  0  0  0  0
  2  6  1  0  0  0  0
  3  7  1  0  0  0  0
  4  8  2  0  0  0  0
  4  9  1  0  0  0  0
  5 10  1  0  0  0  0
  6 11  3  0  0  0  0
  7 12  1  0  0  0  0
  7 10  2  0  0  0  0
 12 13  2  0  0  0  0
 12 14  1  0  0  0  0
M  CHG  4   4   1   9  -1  12   1  14  -1
M  END
>  <CdId>
15

>  <Mol Weight>
192.1284

>  <Formula>
C8H4N2O4

>  <Click_ID>
CLK001B06 __  __  __

$$$$
CLK001C05 __  __  __
 OpenBabel03171413522D

 13 13  0  0  0  0  0  0  0  0999 V2000
   -1.1703    0.1692    0.0000 C   0  0  0  0  0  0  0  0  0  0  0  0
   -0.7663   -0.5523    0.0000 C   0  0  0  0  0  0  0  0  0  0  0  0
   -0.7525    0.8733    0.0000 C   0  0  0  0  0  0  0  0  0  0  0  0
   -1.9953    0.1692    0.0000 N   0  3  0  0  0  0  0  0  0  0  0  0
    0.0587   -0.5558    0.0000 C   0  0  0  0  0  0  0  0  0  0  0  0
    0.0587    0.8733    0.0000 C   0  0  0  0  0  0  0  0  0  0  0  0
   -2.4164   -0.5454    0.0000 O   0  0  0  0  0  0  0  0  0  0  0  0
   -2.4060    0.8838    0.0000 O   0  5  0  0  0  0  0  0  0  0  0  0
    0.4729    0.1623    0.0000 C   0  0  0  0  0  0  0  0  0  0  0  0
    1.2980    0.1623    0.0000 O   0  0  0  0  0  0  0  0  0  0  0  0
    1.7122   -0.5523    0.0000 C   0  0  0  0  0  0  0  0  0  0  0  0
    2.5372   -0.5454    0.0000 C   0  0  0  0  0  0  0  0  0  0  0  0
    3.3622   -0.5454    0.0000 C   0  0  0  0  0  0  0  0  0  0  0  0
  1  2  1  0  0  0  0
  1  3  2  0  0  0  0
  1  4  1  0  0  0  0
  2  5  2  0  0  0  0
  3  6  1  0  0  0  0
  4  7  2  0  0  0  0
  4  8  1  0  0  0  0
  5  9  1  0  0  0  0
  6  9  2  0  0  0  0
  9 10  1  0  0  0  0
 10 11  1  0  0  0  0
 11 12  1  0  0  0  0
 12 13  3  0  0  0  0
M  CHG  2   4   1   8  -1
M  END
>  <CdId>
24

>  <Mol Weight>
177.1568

>  <Formula>
C9H7NO3

>  <Click_ID>
CLK001C05 __  __  __

$$$$
CLK001C06 __  __  __
 OpenBabel03171413522D

 15 15  0  0  0  0  0  0  0  0999 V2000
   -0.0584   -0.0097    0.0000 C   0  0  0  0  0  0  0  0  0  0  0  0
   -0.0584    0.8139    0.0000 C   0  0  0  0  0  0  0  0  0  0  0  0
    0.6778   -0.4443    0.0000 C   0  0  0  0  0  0  0  0  0  0  0  0
   -0.7685   -0.4313    0.0000 C   0  0  0  0  0  0  0  0  0  0  0  0
   -0.7685    1.2226    0.0000 C   0  0  0  0  0  0  0  0  0  0  0  0
    0.6778   -1.2777    0.0000 O   0  0  0  0  0  0  0  0  0  0  0  0
    1.3945   -0.0324    0.0000 O   0  0  0  0  0  0  0  0  0  0  0  0
   -1.4852   -0.0097    0.0000 C   0  0  0  0  0  0  0  0  0  0  0  0
   -1.4852    0.8139    0.0000 C   0  0  0  0  0  0  0  0  0  0  0  0
   -0.7685    2.0463    0.0000 N   0  3  0  0  0  0  0  0  0  0  0  0
    1.3945   -1.6928    0.0000 C   0  0  0  0  0  0  0  0  0  0  0  0
   -1.4755    2.4256    0.0000 O   0  0  0  0  0  0  0  0  0  0  0  0
   -0.0649    2.4451    0.0000 O   0  5  0  0  0  0  0  0  0  0  0  0
    1.3945   -2.5132    0.0000 C   0  0  0  0  0  0  0  0  0  0  0  0
    1.3977   -3.3564    0.0000 C   0  0  0  0  0  0  0  0  0  0  0  0
  1  2  2  0  0  0  0
  1  3  1  0  0  0  0
  1  4  1  0  0  0  0
  2  5  1  0  0  0  0
  3  6  1  0  0  0  0
  3  7  2  0  0  0  0
  4  8  2  0  0  0  0
  5  9  2  0  0  0  0
  5 10  1  0  0  0  0
  6 11  1  0  0  0  0
  8  9  1  0  0  0  0
 10 12  2  0  0  0  0
 10 13  1  0  0  0  0
 11 14  1  0  0  0  0
 14 15  3  0  0  0  0
M  CHG  2  10   1  13  -1
M  END
>  <CdId>
25

>  <Mol Weight>
205.1669

>  <Formula>
C10H7NO4

>  <Click_ID>
CLK001C06 __  __  __

$$$$
CLK001D05 __  __  __
 OpenBabel03171413522D

 29 32  0  0  0  0  0  0  0  0999 V2000
    0.4004    0.1968    0.0000 C   0  0  3  0  0  0  0  0  0  0  0  0
    0.8111   -0.5246    0.0000 C   0  0  0  0  0  0  0  0  0  0  0  0
    0.8111    0.9077    0.0000 C   0  0  0  0  0  0  0  0  0  0  0  0
   -0.4280    0.1968    0.0000 C   0  0  0  0  0  0  0  0  0  0  0  0
    1.6360   -0.5177    0.0000 C   0  0  0  0  0  0  0  0  0  0  0  0
    0.5626   -1.3046    0.0000 C   0  0  0  0  0  0  0  0  0  0  0  0
    1.6360    0.9077    0.0000 C   0  0  0  0  0  0  0  0  0  0  0  0
    0.4004    1.6222    0.0000 C   0  0  0  0  0  0  0  0  0  0  0  0
   -0.8456   -0.5177    0.0000 C   0  0  0  0  0  0  0  0  0  0  0  0
   -0.8387    0.9077    0.0000 C   0  0  0  0  0  0  0  0  0  0  0  0
    1.9018   -1.3046    0.0000 C   0  0  0  0  0  0  0  0  0  0  0  0
    2.0502    0.1968    0.0000 N   0  0  0  0  0  0  0  0  0  0  0  0
    1.2322   -1.7879    0.0000 C   0  0  0  0  0  0  0  0  0  0  0  0
   -0.2174   -1.5670    0.0000 O   0  0  0  0  0  0  0  0  0  0  0  0
    2.0502    1.6222    0.0000 C   0  0  0  0  0  0  0  0  0  0  0  0
    0.8215    2.3367    0.0000 O   0  0  0  0  0  0  0  0  0  0  0  0
   -0.4280    1.6222    0.0000 O   0  0  0  0  0  0  0  0  0  0  0  0
   -1.6706   -0.5177    0.0000 C   0  0  0  0  0  0  0  0  0  0  0  0
   -1.6671    0.9077    0.0000 C   0  0  0  0  0  0  0  0  0  0  0  0
    2.6508   -1.6325    0.0000 C   0  0  0  0  0  0  0  0  0  0  0  0
    1.3219   -2.6058    0.0000 C   0  0  0  0  0  0  0  0  0  0  0  0
    0.4073    3.0512    0.0000 C   0  0  0  0  0  0  0  0  0  0  0  0
   -2.0778    0.2002    0.0000 C   0  0  0  0  0  0  0  0  0  0  0  0
    2.7371   -2.4575    0.0000 C   0  0  0  0  0  0  0  0  0  0  0  0
    2.0743   -2.9442    0.0000 C   0  0  0  0  0  0  0  0  0  0  0  0
   -2.9027    0.2071    0.0000 O   0  0  0  0  0  0  0  0  0  0  0  0
   -3.3169    0.9250    0.0000 C   0  0  0  0  0  0  0  0  0  0  0  0
   -4.1418    0.9354    0.0000 C   0  0  0  0  0  0  0  0  0  0  0  0
   -4.9701    0.9388    0.0000 C   0  0  0  0  0  0  0  0  0  0  0  0
  1  2  1  0  0  0  0
  1  3  1  0  0  0  0
  1  4  1  0  0  0  0
  2  5  2  0  0  0  0
  2  6  1  0  0  0  0
  3  7  2  0  0  0  0
  3  8  1  0  0  0  0
  4  9  2  0  0  0  0
  4 10  1  0  0  0  0
  5 11  1  0  0  0  0
  5 12  1  0  0  0  0
  6 13  1  0  0  0  0
  6 14  2  0  0  0  0
  7 15  1  0  0  0  0
  7 12  1  0  0  0  0
  8 16  1  0  0  0  0
  8 17  2  0  0  0  0
  9 18  1  0  0  0  0
 10 19  2  0  0  0  0
 11 20  1  0  0  0  0
 11 13  2  0  0  0  0
 13 21  1  0  0  0  0
 16 22  1  0  0  0  0
 18 23  2  0  0  0  0
 19 23  1  0  0  0  0
 20 24  2  0  0  0  0
 21 25  2  0  0  0  0
 23 26  1  0  0  0  0
 24 25  1  0  0  0  0
 26 27  1  0  0  0  0
 27 28  1  0  0  0  0
 28 29  3  0  0  0  0
M  END
>  <CdId>
34

>  <Mol Weight>
385.412

>  <Formula>
C24H19NO4

>  <Click_ID>
CLK001D05 __  __  __

$$$$
CLK001D06 __  __  __
 OpenBabel03171413522D

 22 24  0  0  0  0  0  0  0  0999 V2000
   -0.1586   -0.0552    0.0000 N   0  0  0  0  0  0  0  0  0  0  0  0
   -0.1586    0.7723    0.0000 C   0  0  0  0  0  0  0  0  0  0  0  0
    0.5552   -0.4759    0.0000 C   0  0  0  0  0  0  0  0  0  0  0  0
   -0.8827   -0.4690    0.0000 C   0  0  0  0  0  0  0  0  0  0  0  0
   -0.8758    1.1930    0.0000 N   0  0  0  0  0  0  0  0  0  0  0  0
    0.5621    1.1827    0.0000 S   0  0  0  0  0  0  0  0  0  0  0  0
    0.5483   -1.2999    0.0000 C   0  0  0  0  0  0  0  0  0  0  0  0
    1.2654   -0.0621    0.0000 C   0  0  0  0  0  0  0  0  0  0  0  0
   -1.5965   -0.0552    0.0000 C   0  0  0  0  0  0  0  0  0  0  0  0
   -0.8827   -1.2930    0.0000 O   0  0  0  0  0  0  0  0  0  0  0  0
   -1.5965    0.7723    0.0000 C   0  0  0  0  0  0  0  0  0  0  0  0
    1.2758    0.7689    0.0000 C   0  0  0  0  0  0  0  0  0  0  0  0
    1.2620   -1.7137    0.0000 C   0  0  0  0  0  0  0  0  0  0  0  0
    1.9791   -0.4759    0.0000 C   0  0  0  0  0  0  0  0  0  0  0  0
   -2.3067   -0.4690    0.0000 C   0  0  0  0  0  0  0  0  0  0  0  0
   -2.3067    1.1861    0.0000 C   0  0  0  0  0  0  0  0  0  0  0  0
    1.9860    1.1861    0.0000 C   0  0  0  0  0  0  0  0  0  0  0  0
    1.9791   -1.3068    0.0000 C   0  0  0  0  0  0  0  0  0  0  0  0
   -3.0204   -0.0552    0.0000 C   0  0  0  0  0  0  0  0  0  0  0  0
   -3.0204    0.7723    0.0000 C   0  0  0  0  0  0  0  0  0  0  0  0
    2.6998    1.6068    0.0000 C   0  0  0  0  0  0  0  0  0  0  0  0
    2.6929   -1.7171    0.0000 C   0  0  0  0  0  0  0  0  0  0  0  0
  1  2  1  0  0  0  0
  1  3  1  0  0  0  0
  1  4  1  0  0  0  0
  2  5  2  0  0  0  0
  2  6  1  0  0  0  0
  3  7  2  0  0  0  0
  3  8  1  0  0  0  0
  4  9  1  0  0  0  0
  4 10  2  0  0  0  0
  5 11  1  0  0  0  0
  6 12  1  0  0  0  0
  7 13  1  0  0  0  0
  8 14  2  0  0  0  0
  9 15  2  0  0  0  0
  9 11  1  0  0  0  0
 11 16  2  0  0  0  0
 12 17  1  0  0  0  0
 13 18  2  0  0  0  0
 14 18  1  0  0  0  0
 15 19  1  0  0  0  0
 16 20  1  0  0  0  0
 17 21  3  0  0  0  0
 18 22  1  0  0  0  0
 19 20  2  0  0  0  0
M  END
>  <CdId>
35

>  <Mol Weight>
306.382

>  <Formula>
C18H14N2OS

>  <Click_ID>
CLK001D06 __  __  __

$$$$
CLK001D07 __  __  __
 OpenBabel03171413522D

 11 11  0  0  0  0  0  0  0  0999 V2000
    6.9542  -21.1875    0.0000 C   0  0  0  0  0  0  0  0  0  0  0  0
    3.6500  -21.1875    0.0000 C   0  0  0  0  0  0  0  0  0  0  0  0
    2.8250  -21.1875    0.0000 C   0  0  0  0  0  0  0  0  0  0  0  0
    6.1292  -21.1875    0.0000 C   0  0  0  0  0  0  0  0  0  0  0  0
    7.3667  -21.9000    0.0000 O   0  0  0  0  0  0  0  0  0  0  0  0
    4.4750  -21.1875    0.0000 C   0  0  0  0  0  0  0  0  0  0  0  0
    5.7167  -21.9042    0.0000 C   0  0  0  0  0  0  0  0  0  0  0  0
    5.7167  -20.4750    0.0000 C   0  0  0  0  0  0  0  0  0  0  0  0
    7.3667  -20.4667    0.0000 O   0  0  0  0  0  0  0  0  0  0  0  0
    4.8875  -21.9042    0.0000 C   0  0  0  0  0  0  0  0  0  0  0  0
    4.8875  -20.4750    0.0000 C   0  0  0  0  0  0  0  0  0  0  0  0
  2  6  1  0  0  0  0
  3  2  3  0  0  0  0
  4  1  1  0  0  0  0
  5  1  2  0  0  0  0
  6 11  1  0  0  0  0
  6 10  2  0  0  0  0
  7  4  2  0  0  0  0
  8  4  1  0  0  0  0
  9  1  1  0  0  0  0
 10  7  1  0  0  0  0
 11  8  2  0  0  0  0
M  END
>  <CdId>
36

>  <Mol Weight>
146.1427

>  <Formula>
C9H6O2

>  <Click_ID>
CLK001D07 __  __  __

$$$$
CLK001D09 __  __  __
 OpenBabel03171413522D

 31 35  0  0  0  0  0  0  0  0999 V2000
   -1.3837   -0.8832    0.0000 C   0  0  0  0  0  0  0  0  0  0  0  0
   -0.6956   -0.4904    0.0000 C   0  0  0  0  0  0  0  0  0  0  0  0
   -2.1193   -0.4904    0.0000 C   0  0  0  0  0  0  0  0  0  0  0  0
   -0.6956   -1.3086    0.0000 C   0  0  0  0  0  0  0  0  0  0  0  0
   -2.0818   -1.3086    0.0000 C   0  0  0  0  0  0  0  0  0  0  0  0
   -0.6956    0.3803    0.0000 C   0  0  0  0  0  0  0  0  0  0  0  0
    0.0300   -0.8832    0.0000 C   0  0  0  0  0  0  0  0  0  0  0  0
   -2.1193    0.3803    0.0000 C   0  0  0  0  0  0  0  0  0  0  0  0
   -0.6956   -2.1518    0.0000 C   0  0  0  0  0  0  0  0  0  0  0  0
   -2.0818   -2.1518    0.0000 C   0  0  0  0  0  0  0  0  0  0  0  0
   -1.3937    0.7681    0.0000 C   0  0  0  0  0  0  0  0  0  0  0  0
    0.0300    0.7681    0.0000 N   0  0  0  0  0  0  0  0  0  0  0  0
    0.7807   -0.4904    0.0000 N   0  0  0  0  0  0  0  0  0  0  0  0
    0.0300   -1.7315    0.0000 O   0  0  0  0  0  0  0  0  0  0  0  0
   -2.8174    0.7681    0.0000 C   0  0  0  0  0  0  0  0  0  0  0  0
   -1.3311   -2.5071    0.0000 C   0  0  0  0  0  0  0  0  0  0  0  0
   -1.3937    1.5939    0.0000 C   0  0  0  0  0  0  0  0  0  0  0  0
    0.7807    0.3803    0.0000 C   0  0  0  0  0  0  0  0  0  0  0  0
    1.4913   -0.8982    0.0000 C   0  0  0  0  0  0  0  0  0  0  0  0
   -2.8174    1.5939    0.0000 C   0  0  0  0  0  0  0  0  0  0  0  0
   -2.1193    2.0142    0.0000 C   0  0  0  0  0  0  0  0  0  0  0  0
    1.4913    0.8307    0.0000 S   0  0  0  0  0  0  0  0  0  0  0  0
    2.1969   -0.4904    0.0000 C   0  0  0  0  0  0  0  0  0  0  0  0
    1.4913    1.6939    0.0000 C   0  0  0  0  0  0  0  0  0  0  0  0
    2.1969    0.3353    0.0000 C   0  0  0  0  0  0  0  0  0  0  0  0
    2.9125   -0.9008    0.0000 C   0  0  0  0  0  0  0  0  0  0  0  0
    0.7731    2.0868    0.0000 C   0  0  0  0  0  0  0  0  0  0  0  0
    2.9125    0.7506    0.0000 C   0  0  0  0  0  0  0  0  0  0  0  0
    3.6231   -0.4904    0.0000 C   0  0  0  0  0  0  0  0  0  0  0  0
    0.0676    2.4921    0.0000 C   0  0  0  0  0  0  0  0  0  0  0  0
    3.6231    0.3353    0.0000 C   0  0  0  0  0  0  0  0  0  0  0  0
  1  2  1  0  0  0  0
  1  3  1  0  0  0  0
  1  4  1  0  0  0  0
  1  5  1  0  0  0  0
  2  6  2  0  0  0  0
  2  7  1  0  0  0  0
  3  8  1  0  0  0  0
  4  9  1  0  0  0  0
  5 10  1  0  0  0  0
  6 11  1  0  0  0  0
  6 12  1  0  0  0  0
  7 13  1  0  0  0  0
  7 14  2  0  0  0  0
  8 15  2  0  0  0  0
  8 11  1  0  0  0  0
  9 16  1  0  0  0  0
 10 16  1  0  0  0  0
 11 17  2  0  0  0  0
 12 18  2  0  0  0  0
 13 19  1  0  0  0  0
 13 18  1  0  0  0  0
 15 20  1  0  0  0  0
 17 21  1  0  0  0  0
 18 22  1  0  0  0  0
 19 23  1  0  0  0  0
 20 21  2  0  0  0  0
 22 24  1  0  0  0  0
 23 25  2  0  0  0  0
 23 26  1  0  0  0  0
 24 27  1  0  0  0  0
 25 28  1  0  0  0  0
 26 29  2  0  0  0  0
 27 30  3  0  0  0  0
 28 31  2  0  0  0  0
 29 31  1  0  0  0  0
M  END
>  <CdId>
38

>  <Mol Weight>
426.573

>  <Formula>
C27H26N2OS

>  <Click_ID>
CLK001D09 __  __  __

$$$$
CLK001D10 __  __  __
 OpenBabel03171413522D

 28 31  0  0  0  0  0  0  0  0999 V2000
    1.5975   -0.3529    0.0000 C   0  0  0  0  0  0  0  0  0  0  0  0
    2.1478   -0.9639    0.0000 C   0  0  0  0  0  0  0  0  0  0  0  0
    0.8500   -0.6868    0.0000 C   0  0  0  0  0  0  0  0  0  0  0  0
    1.8594    0.4288    0.0000 C   0  0  0  0  0  0  0  0  0  0  0  0
    1.7342   -1.6772    0.0000 N   0  0  0  0  0  0  0  0  0  0  0  0
    2.9599   -0.7968    0.0000 C   0  0  0  0  0  0  0  0  0  0  0  0
    0.9335   -1.5103    0.0000 C   0  0  0  0  0  0  0  0  0  0  0  0
    0.1366   -0.2770    0.0000 N   0  0  0  0  0  0  0  0  0  0  0  0
    2.6676    0.6034    0.0000 C   0  0  0  0  0  0  0  0  0  0  0  0
    2.0757   -2.4362    0.0000 C   0  0  0  0  0  0  0  0  0  0  0  0
    3.2178   -0.0113    0.0000 C   0  0  0  0  0  0  0  0  0  0  0  0
    0.3188   -2.0605    0.0000 O   0  0  0  0  0  0  0  0  0  0  0  0
    0.1366    0.5502    0.0000 N   0  0  0  0  0  0  0  0  0  0  0  0
    1.5862   -3.1041    0.0000 C   0  0  0  0  0  0  0  0  0  0  0  0
   -0.5806    0.9639    0.0000 C   0  0  0  0  0  0  0  0  0  0  0  0
    1.1042   -3.7681    0.0000 C   0  0  0  0  0  0  0  0  0  0  0  0
   -1.2940    0.5502    0.0000 C   0  0  0  0  0  0  0  0  0  0  0  0
   -0.5806    1.7873    0.0000 O   0  0  0  0  0  0  0  0  0  0  0  0
   -2.0188    0.9676    0.0000 C   0  0  0  0  0  0  0  0  0  0  0  0
   -1.2940   -0.2770    0.0000 C   0  0  0  0  0  0  0  0  0  0  0  0
   -2.0188    1.7911    0.0000 N   0  0  0  0  0  0  0  0  0  0  0  0
   -2.7246    0.5502    0.0000 C   0  0  0  0  0  0  0  0  0  0  0  0
   -2.0188   -0.6868    0.0000 C   0  0  0  0  0  0  0  0  0  0  0  0
   -1.3471    2.2844    0.0000 C   0  0  0  0  0  0  0  0  0  0  0  0
   -2.6828    2.2844    0.0000 C   0  0  0  0  0  0  0  0  0  0  0  0
   -2.7246   -0.2770    0.0000 C   0  0  0  0  0  0  0  0  0  0  0  0
   -1.6051    3.0661    0.0000 C   0  0  0  0  0  0  0  0  0  0  0  0
   -2.4323    3.0661    0.0000 C   0  0  0  0  0  0  0  0  0  0  0  0
  1  2  2  0  0  0  0
  1  3  1  0  0  0  0
  1  4  1  0  0  0  0
  2  5  1  0  0  0  0
  2  6  1  0  0  0  0
  3  7  1  0  0  0  0
  3  8  2  0  0  0  0
  4  9  2  0  0  0  0
  5 10  1  0  0  0  0
  5  7  1  0  0  0  0
  6 11  2  0  0  0  0
  7 12  2  0  0  0  0
  8 13  1  0  0  0  0
  9 11  1  0  0  0  0
 10 14  1  0  0  0  0
 13 15  1  0  0  0  0
 14 16  3  0  0  0  0
 15 17  1  0  0  0  0
 15 18  2  0  0  0  0
 17 19  1  0  0  0  0
 17 20  2  0  0  0  0
 19 21  1  0  0  0  0
 19 22  2  0  0  0  0
 20 23  1  0  0  0  0
 21 24  1  0  0  0  0
 21 25  1  0  0  0  0
 22 26  1  0  0  0  0
 23 26  2  0  0  0  0
 24 27  2  0  0  0  0
 25 28  2  0  0  0  0
 27 28  1  0  0  0  0
M  END
>  <CdId>
39

>  <Mol Weight>
368.388

>  <Formula>
C22H16N4O2

>  <Click_ID>
CLK001D10 __  __  __

$$$$
CLK001E05 __  __  __
 OpenBabel03171413522D

 19 19  0  0  0  0  0  0  0  0999 V2000
    1.6879   -0.4676    0.0000 C   0  0  0  0  0  0  0  0  0  0  0  0
    1.6879    0.3612    0.0000 N   0  0  0  0  0  0  0  0  0  0  0  0
    0.9733   -0.8783    0.0000 C   0  0  0  0  0  0  0  0  0  0  0  0
    2.4065   -0.8783    0.0000 C   0  0  0  0  0  0  0  0  0  0  0  0
    0.9733    0.7755    0.0000 C   0  0  0  0  0  0  0  0  0  0  0  0
    0.9733   -1.7070    0.0000 C   0  0  0  0  0  0  0  0  0  0  0  0
    2.4065   -1.7070    0.0000 C   0  0  0  0  0  0  0  0  0  0  0  0
    0.2547    0.3688    0.0000 C   0  0  0  0  0  0  0  0  0  0  0  0
    0.9733    1.6005    0.0000 O   0  0  0  0  0  0  0  0  0  0  0  0
    1.6879   -2.1213    0.0000 C   0  0  0  0  0  0  0  0  0  0  0  0
   -0.4524    0.7870    0.0000 C   0  0  0  0  0  0  0  0  0  0  0  0
   -0.4486    1.6120    0.0000 C   0  0  0  0  0  0  0  0  0  0  0  0
   -1.1595    2.0225    0.0000 C   0  0  0  0  0  0  0  0  0  0  0  0
   -1.8742    1.6157    0.0000 C   0  0  0  0  0  0  0  0  0  0  0  0
   -1.8742    0.7907    0.0000 C   0  0  0  0  0  0  0  0  0  0  0  0
   -2.5890    0.3801    0.0000 C   0  0  0  0  0  0  0  0  0  0  0  0
   -2.5890   -0.4447    0.0000 C   0  0  0  0  0  0  0  0  0  0  0  0
   -1.8742   -0.8516    0.0000 C   0  0  0  0  0  0  0  0  0  0  0  0
   -1.1595   -1.2621    0.0000 C   0  0  0  0  0  0  0  0  0  0  0  0
  1  2  1  0  0  0  0
  1  3  1  0  0  0  0
  1  4  1  0  0  0  0
  2  5  1  0  0  0  0
  3  6  1  0  0  0  0
  4  7  1  0  0  0  0
  5  8  1  0  0  0  0
  5  9  2  0  0  0  0
  6 10  1  0  0  0  0
  7 10  1  0  0  0  0
  8 11  1  0  0  0  0
 11 12  1  0  0  0  0
 12 13  1  0  0  0  0
 13 14  1  0  0  0  0
 14 15  1  0  0  0  0
 15 16  1  0  0  0  0
 16 17  1  0  0  0  0
 17 18  1  0  0  0  0
 18 19  3  0  0  0  0
M  END
>  <CdId>
44

>  <Mol Weight>
263.4183

>  <Formula>
C17H29NO

>  <Click_ID>
CLK001E05 __  __  __

$$$$
CLK001E07 __  __  __
 OpenBabel03171413522D

 26 28  0  0  0  0  0  0  0  0999 V2000
    1.6310    0.9276    0.0000 C   0  0  0  0  0  0  0  0  0  0  0  0
    1.1793    1.6138    0.0000 C   0  0  0  0  0  0  0  0  0  0  0  0
    1.1172    0.2828    0.0000 C   0  0  0  0  0  0  0  0  0  0  0  0
    2.4552    0.9655    0.0000 C   0  0  0  0  0  0  0  0  0  0  0  0
    0.3897    1.4034    0.0000 N   0  0  0  0  0  0  0  0  0  0  0  0
    1.5552    2.3448    0.0000 C   0  0  0  0  0  0  0  0  0  0  0  0
    0.3414    0.5759    0.0000 C   0  0  0  0  0  0  0  0  0  0  0  0
    1.3310   -0.5103    0.0000 C   0  0  0  0  0  0  0  0  0  0  0  0
    2.8310    1.7034    0.0000 C   0  0  0  0  0  0  0  0  0  0  0  0
   -0.2586    1.9172    0.0000 C   0  0  0  0  0  0  0  0  0  0  0  0
    2.3793    2.3897    0.0000 C   0  0  0  0  0  0  0  0  0  0  0  0
    0.7517   -1.0966    0.0000 C   0  0  0  0  0  0  0  0  0  0  0  0
   -0.1207    2.7310    0.0000 C   0  0  0  0  0  0  0  0  0  0  0  0
   -0.0448   -0.8931    0.0000 C   0  0  0  0  0  0  0  0  0  0  0  0
    0.9621   -1.8966    0.0000 C   0  0  0  0  0  0  0  0  0  0  0  0
    0.0552    3.5345    0.0000 C   0  0  0  0  0  0  0  0  0  0  0  0
   -0.6310   -1.4828    0.0000 N   0  0  0  0  0  0  0  0  0  0  0  0
   -0.2690   -0.0966    0.0000 O   0  0  0  0  0  0  0  0  0  0  0  0
    1.1759   -2.6931    0.0000 N   0  0  0  0  0  0  0  0  0  0  0  0
   -1.4586   -1.4724    0.0000 C   0  0  0  0  0  0  0  0  0  0  0  0
   -1.8690   -2.1931    0.0000 C   0  0  0  0  0  0  0  0  0  0  0  0
   -1.8621   -0.7552    0.0000 C   0  0  0  0  0  0  0  0  0  0  0  0
   -2.7069   -2.1862    0.0000 C   0  0  0  0  0  0  0  0  0  0  0  0
   -2.6966   -0.7483    0.0000 C   0  0  0  0  0  0  0  0  0  0  0  0
   -3.1103   -1.4621    0.0000 C   0  0  0  0  0  0  0  0  0  0  0  0
   -3.1207   -2.8966    0.0000 C   0  0  0  0  0  0  0  0  0  0  0  0
  1  2  1  0  0  0  0
  1  3  1  0  0  0  0
  1  4  2  0  0  0  0
  2  5  1  0  0  0  0
  2  6  2  0  0  0  0
  3  7  2  0  0  0  0
  3  8  1  0  0  0  0
  4  9  1  0  0  0  0
  5 10  1  0  0  0  0
  5  7  1  0  0  0  0
  6 11  1  0  0  0  0
  8 12  2  0  0  0  0
  9 11  2  0  0  0  0
 10 13  1  0  0  0  0
 12 14  1  0  0  0  0
 12 15  1  0  0  0  0
 13 16  3  0  0  0  0
 14 17  1  0  0  0  0
 14 18  2  0  0  0  0
 15 19  3  0  0  0  0
 17 20  1  0  0  0  0
 20 21  2  0  0  0  0
 20 22  1  0  0  0  0
 21 23  1  0  0  0  0
 22 24  2  0  0  0  0
 23 25  2  0  0  0  0
 23 26  1  0  0  0  0
 24 25  1  0  0  0  0
M  END
>  <CdId>
46

>  <Mol Weight>
339.3899

>  <Formula>
C22H17N3O

>  <Click_ID>
CLK001E07 __  __  __

$$$$
CLK001F05 __  __  __
 OpenBabel03171413522D

 18 18  0  0  0  0  0  0  0  0999 V2000
    3.0085   -0.0458    0.0000 C   0  0  0  0  0  0  0  0  0  0  0  0
    3.0936   -0.8894    0.0000 N   0  0  0  0  0  0  0  0  0  0  0  0
    3.7639    0.2845    0.0000 S   0  0  0  0  0  0  0  0  0  0  0  0
    2.2891    0.3728    0.0000 N   0  0  0  0  0  0  0  0  0  0  0  0
    3.8947   -1.0595    0.0000 C   0  0  0  0  0  0  0  0  0  0  0  0
    4.3165   -0.3401    0.0000 C   0  0  0  0  0  0  0  0  0  0  0  0
    1.5729   -0.0425    0.0000 C   0  0  0  0  0  0  0  0  0  0  0  0
    0.8600    0.3728    0.0000 C   0  0  0  0  0  0  0  0  0  0  0  0
    1.5729   -0.8633    0.0000 O   0  0  0  0  0  0  0  0  0  0  0  0
    0.1472   -0.0393    0.0000 C   0  0  0  0  0  0  0  0  0  0  0  0
   -0.5690    0.3793    0.0000 C   0  0  0  0  0  0  0  0  0  0  0  0
   -1.2819   -0.0327    0.0000 C   0  0  0  0  0  0  0  0  0  0  0  0
   -1.9947    0.3826    0.0000 C   0  0  0  0  0  0  0  0  0  0  0  0
   -2.7044   -0.0294    0.0000 C   0  0  0  0  0  0  0  0  0  0  0  0
   -3.4238    0.3859    0.0000 C   0  0  0  0  0  0  0  0  0  0  0  0
   -4.1334   -0.0262    0.0000 C   0  0  0  0  0  0  0  0  0  0  0  0
   -4.8463    0.3891    0.0000 C   0  0  0  0  0  0  0  0  0  0  0  0
   -5.5624    0.8045    0.0000 C   0  0  0  0  0  0  0  0  0  0  0  0
  1  2  2  0  0  0  0
  1  3  1  0  0  0  0
  1  4  1  0  0  0  0
  2  5  1  0  0  0  0
  3  6  1  0  0  0  0
  4  7  1  0  0  0  0
  5  6  2  0  0  0  0
  7  8  1  0  0  0  0
  7  9  2  0  0  0  0
  8 10  1  0  0  0  0
 10 11  1  0  0  0  0
 11 12  1  0  0  0  0
 12 13  1  0  0  0  0
 13 14  1  0  0  0  0
 14 15  1  0  0  0  0
 15 16  1  0  0  0  0
 16 17  1  0  0  0  0
 17 18  3  0  0  0  0
M  END
>  <CdId>
54

>  <Mol Weight>
264.386

>  <Formula>
C14H20N2OS

>  <Click_ID>
CLK001F05 __  __  __

$$$$
CLK001G05 __  __  __
 OpenBabel03171413522D

 22 23  0  0  0  0  0  0  0  0999 V2000
   -0.2953    0.1266    0.0000 C   0  0  0  0  0  0  0  0  0  0  0  0
    0.4284   -0.2694    0.0000 C   0  0  0  0  0  0  0  0  0  0  0  0
   -0.2953    0.9639    0.0000 C   0  0  0  0  0  0  0  0  0  0  0  0
   -1.0126   -0.2694    0.0000 C   0  0  0  0  0  0  0  0  0  0  0  0
    0.4284   -1.1067    0.0000 C   0  0  0  0  0  0  0  0  0  0  0  0
    1.1424    0.1428    0.0000 C   0  0  0  0  0  0  0  0  0  0  0  0
   -1.0126    1.3598    0.0000 C   0  0  0  0  0  0  0  0  0  0  0  0
    0.4284    1.3598    0.0000 C   0  0  0  0  0  0  0  0  0  0  0  0
   -1.0126   -1.1067    0.0000 C   0  0  0  0  0  0  0  0  0  0  0  0
   -1.7168    0.1428    0.0000 C   0  0  0  0  0  0  0  0  0  0  0  0
   -0.2953   -1.5221    0.0000 N   0  0  0  0  0  0  0  0  0  0  0  0
    1.1424   -1.5221    0.0000 S   0  0  0  0  0  0  0  0  0  0  0  0
    1.8499    0.5582    0.0000 N   0  0  0  0  0  0  0  0  0  0  0  0
   -1.0126    2.1874    0.0000 C   0  0  0  0  0  0  0  0  0  0  0  0
    0.4284    2.1874    0.0000 C   0  0  0  0  0  0  0  0  0  0  0  0
   -1.7168   -1.5221    0.0000 N   0  0  0  0  0  0  0  0  0  0  0  0
   -2.4341    0.5582    0.0000 N   0  0  0  0  0  0  0  0  0  0  0  0
    1.1424   -2.3498    0.0000 C   0  0  0  0  0  0  0  0  0  0  0  0
   -0.2953    2.5899    0.0000 C   0  0  0  0  0  0  0  0  0  0  0  0
    1.8499   -2.7554    0.0000 C   0  0  0  0  0  0  0  0  0  0  0  0
   -0.2953    3.4207    0.0000 O   0  0  0  0  0  0  0  0  0  0  0  0
    2.5639   -3.1676    0.0000 C   0  0  0  0  0  0  0  0  0  0  0  0
  1  2  1  0  0  0  0
  1  3  1  0  0  0  0
  1  4  2  0  0  0  0
  2  5  2  0  0  0  0
  2  6  1  0  0  0  0
  3  7  1  0  0  0  0
  3  8  2  0  0  0  0
  4  9  1  0  0  0  0
  4 10  1  0  0  0  0
  5 11  1  0  0  0  0
  5 12  1  0  0  0  0
  6 13  3  0  0  0  0
  7 14  2  0  0  0  0
  8 15  1  0  0  0  0
  9 16  1  0  0  0  0
  9 11  2  0  0  0  0
 10 17  3  0  0  0  0
 12 18  1  0  0  0  0
 14 19  1  0  0  0  0
 15 19  2  0  0  0  0
 18 20  1  0  0  0  0
 19 21  1  0  0  0  0
 20 22  3  0  0  0  0
M  END
>  <CdId>
64

>  <Mol Weight>
306.342

>  <Formula>
C16H10N4OS

>  <Click_ID>
CLK001G05 __  __  __

$$$$
CLK001G07 __  __  __
 OpenBabel03171413522D

 18 20  0  0  0  0  0  0  0  0999 V2000
   -1.0406    0.7654    0.0000 C   0  0  0  0  0  0  0  0  0  0  0  0
   -0.3356    0.3544    0.0000 C   0  0  0  0  0  0  0  0  0  0  0  0
   -1.7569    0.3544    0.0000 C   0  0  0  0  0  0  0  0  0  0  0  0
   -1.2027    1.5760    0.0000 C   0  0  0  0  0  0  0  0  0  0  0  0
   -0.3393   -0.4712    0.0000 C   0  0  0  0  0  0  0  0  0  0  0  0
    0.3657    0.7654    0.0000 C   0  0  0  0  0  0  0  0  0  0  0  0
   -1.7607   -0.4600    0.0000 C   0  0  0  0  0  0  0  0  0  0  0  0
   -2.3677    0.9161    0.0000 C   0  0  0  0  0  0  0  0  0  0  0  0
   -2.0246    1.6664    0.0000 C   0  0  0  0  0  0  0  0  0  0  0  0
    0.3657   -0.8784    0.0000 C   0  0  0  0  0  0  0  0  0  0  0  0
   -1.0481   -0.8747    0.0000 O   0  0  0  0  0  0  0  0  0  0  0  0
    1.0821    0.3544    0.0000 C   0  0  0  0  0  0  0  0  0  0  0  0
   -2.4770   -0.8672    0.0000 O   0  0  0  0  0  0  0  0  0  0  0  0
    1.0821   -0.4712    0.0000 C   0  0  0  0  0  0  0  0  0  0  0  0
    1.7984   -0.8860    0.0000 O   0  0  0  0  0  0  0  0  0  0  0  0
    2.5072   -0.4751    0.0000 C   0  0  0  0  0  0  0  0  0  0  0  0
    3.2160   -0.8898    0.0000 C   0  0  0  0  0  0  0  0  0  0  0  0
    3.9249   -0.4788    0.0000 C   0  0  0  0  0  0  0  0  0  0  0  0
  1  2  1  0  0  0  0
  1  3  2  0  0  0  0
  1  4  1  0  0  0  0
  2  5  2  0  0  0  0
  2  6  1  0  0  0  0
  3  7  1  0  0  0  0
  3  8  1  0  0  0  0
  4  9  1  0  0  0  0
  5 10  1  0  0  0  0
  5 11  1  0  0  0  0
  6 12  2  0  0  0  0
  7 13  2  0  0  0  0
  7 11  1  0  0  0  0
  8  9  1  0  0  0  0
 10 14  2  0  0  0  0
 12 14  1  0  0  0  0
 14 15  1  0  0  0  0
 15 16  1  0  0  0  0
 16 17  1  0  0  0  0
 17 18  3  0  0  0  0
M  END
>  <CdId>
66

>  <Mol Weight>
240.254

>  <Formula>
C15H12O3

>  <Click_ID>
CLK001G07 __  __  __

$$$$
CLK001G08 __  __  __
 OpenBabel03171413522D

 17 16  0  0  0  0  0  0  0  0999 V2000
    0.2018   -0.0723    0.0000 C   0  0  0  0  0  0  0  0  0  0  0  0
    0.9214    0.3312    0.0000 C   0  0  0  0  0  0  0  0  0  0  0  0
   -0.5064    0.3426    0.0000 C   0  0  0  0  0  0  0  0  0  0  0  0
    1.6372   -0.0838    0.0000 N   0  0  0  0  0  0  0  0  0  0  0  0
    0.9175    1.1575    0.0000 O   0  0  0  0  0  0  0  0  0  0  0  0
   -0.5026    1.1688    0.0000 C   0  0  0  0  0  0  0  0  0  0  0  0
    2.3529    0.3312    0.0000 C   0  0  0  0  0  0  0  0  0  0  0  0
   -1.2145    1.5839    0.0000 C   0  0  0  0  0  0  0  0  0  0  0  0
    3.0726   -0.0838    0.0000 C   0  0  0  0  0  0  0  0  0  0  0  0
   -1.9341    1.1727    0.0000 C   0  0  0  0  0  0  0  0  0  0  0  0
    3.0726   -0.9099    0.0000 C   0  0  0  0  0  0  0  0  0  0  0  0
   -1.9341    0.3502    0.0000 C   0  0  0  0  0  0  0  0  0  0  0  0
    2.3529   -1.3250    0.0000 C   0  0  0  0  0  0  0  0  0  0  0  0
   -2.6462   -0.0647    0.0000 C   0  0  0  0  0  0  0  0  0  0  0  0
   -2.6462   -0.8871    0.0000 C   0  0  0  0  0  0  0  0  0  0  0  0
   -1.9341   -1.2983    0.0000 C   0  0  0  0  0  0  0  0  0  0  0  0
   -1.2145   -1.7057    0.0000 C   0  0  0  0  0  0  0  0  0  0  0  0
  1  2  1  0  0  0  0
  1  3  1  0  0  0  0
  2  4  1  0  0  0  0
  2  5  2  0  0  0  0
  3  6  1  0  0  0  0
  4  7  1  0  0  0  0
  6  8  1  0  0  0  0
  7  9  1  0  0  0  0
  8 10  1  0  0  0  0
  9 11  1  0  0  0  0
 10 12  1  0  0  0  0
 11 13  1  0  0  0  0
 12 14  1  0  0  0  0
 14 15  1  0  0  0  0
 15 16  1  0  0  0  0
 16 17  3  0  0  0  0
M  END
>  <CdId>
67

>  <Mol Weight>
237.381

>  <Formula>
C15H27NO

>  <Click_ID>
CLK001G08 __  __  __

$$$$
CLK001G09 __  __  __
 OpenBabel03171413522D

 14 14  0  0  0  0  0  0  0  0999 V2000
   -0.1563    0.4391    0.0000 C   0  0  0  0  0  0  0  0  0  0  0  0
   -0.1563   -0.3859    0.0000 C   0  0  0  0  0  0  0  0  0  0  0  0
   -0.8699    0.8500    0.0000 C   0  0  0  0  0  0  0  0  0  0  0  0
    0.5672    0.8600    0.0000 C   0  0  0  0  0  0  0  0  0  0  0  0
   -0.8699   -0.7951    0.0000 N   0  0  0  0  0  0  0  0  0  0  0  0
    0.5672   -0.7951    0.0000 S   0  0  0  0  0  0  0  0  0  0  0  0
   -1.5802    0.4391    0.0000 C   0  0  0  0  0  0  0  0  0  0  0  0
   -0.8699    1.6850    0.0000 C   0  0  0  0  0  0  0  0  0  0  0  0
    1.2808    1.2841    0.0000 N   0  0  0  0  0  0  0  0  0  0  0  0
   -1.5802   -0.3859    0.0000 C   0  0  0  0  0  0  0  0  0  0  0  0
    1.2808   -0.3859    0.0000 C   0  0  0  0  0  0  0  0  0  0  0  0
   -2.3038   -0.7951    0.0000 O   0  0  0  0  0  0  0  0  0  0  0  0
    1.9893   -0.7951    0.0000 C   0  0  0  0  0  0  0  0  0  0  0  0
    2.7029   -1.2192    0.0000 C   0  0  0  0  0  0  0  0  0  0  0  0
  1  2  2  0  0  0  0
  1  3  1  0  0  0  0
  1  4  1  0  0  0  0
  2  5  1  0  0  0  0
  2  6  1  0  0  0  0
  3  7  2  0  0  0  0
  3  8  1  0  0  0  0
  4  9  3  0  0  0  0
  5 10  1  0  0  0  0
  6 11  1  0  0  0  0
  7 10  1  0  0  0  0
 10 12  2  0  0  0  0
 11 13  1  0  0  0  0
 13 14  3  0  0  0  0
M  END
>  <CdId>
68

>  <Mol Weight>
204.248

>  <Formula>
C10H8N2OS

>  <Click_ID>
CLK001G09 __  __  __

$$$$
CLK002B07 __  __  __
 OpenBabel03171413522D

 19 19  0  0  0  0  0  0  0  0999 V2000
    2.5498   -0.0915    0.0000 C   0  0  0  0  0  0  0  0  0  0  0  0
    1.8332    0.3240    0.0000 C   0  0  0  0  0  0  0  0  0  0  0  0
    3.3159    0.2439    0.0000 C   0  0  0  0  0  0  0  0  0  0  0  0
    2.6413   -0.9147    0.0000 O   0  0  0  0  0  0  0  0  0  0  0  0
    1.1167   -0.0915    0.0000 N   0  0  0  0  0  0  0  0  0  0  0  0
    3.8685   -0.3735    0.0000 C   0  0  0  0  0  0  0  0  0  0  0  0
    3.4531   -1.0900    0.0000 C   0  0  0  0  0  0  0  0  0  0  0  0
    0.3964    0.3240    0.0000 C   0  0  0  0  0  0  0  0  0  0  0  0
   -0.3202   -0.0800    0.0000 C   0  0  0  0  0  0  0  0  0  0  0  0
    0.3964    1.1548    0.0000 O   0  0  0  0  0  0  0  0  0  0  0  0
   -1.0290    0.3392    0.0000 C   0  0  0  0  0  0  0  0  0  0  0  0
   -1.0253    1.1624    0.0000 C   0  0  0  0  0  0  0  0  0  0  0  0
   -1.7380    1.5779    0.0000 C   0  0  0  0  0  0  0  0  0  0  0  0
   -2.4583    1.1663    0.0000 C   0  0  0  0  0  0  0  0  0  0  0  0
   -2.4583    0.3430    0.0000 C   0  0  0  0  0  0  0  0  0  0  0  0
   -3.1711   -0.0724    0.0000 C   0  0  0  0  0  0  0  0  0  0  0  0
   -3.1711   -0.8956    0.0000 C   0  0  0  0  0  0  0  0  0  0  0  0
   -2.4583   -1.3073    0.0000 C   0  0  0  0  0  0  0  0  0  0  0  0
   -1.7380   -1.7151    0.0000 C   0  0  0  0  0  0  0  0  0  0  0  0
  1  2  1  0  0  0  0
  1  3  2  0  0  0  0
  1  4  1  0  0  0  0
  2  5  1  0  0  0  0
  3  6  1  0  0  0  0
  4  7  1  0  0  0  0
  5  8  1  0  0  0  0
  6  7  2  0  0  0  0
  8  9  1  0  0  0  0
  8 10  2  0  0  0  0
  9 11  1  0  0  0  0
 11 12  1  0  0  0  0
 12 13  1  0  0  0  0
 13 14  1  0  0  0  0
 14 15  1  0  0  0  0
 15 16  1  0  0  0  0
 16 17  1  0  0  0  0
 17 18  1  0  0  0  0
 18 19  3  0  0  0  0
M  END
>  <CdId>
96

>  <Mol Weight>
261.3593

>  <Formula>
C16H23NO2

>  <Click_ID>
CLK002B07 __  __  __

$$$$
CLK002C03 __  __  __
 OpenBabel03171413522D

 20 20  0  0  0  0  0  0  0  0999 V2000
    2.3591   -0.0494    0.0000 C   0  0  0  0  0  0  0  0  0  0  0  0
    1.6438    0.3652    0.0000 C   0  0  0  0  0  0  0  0  0  0  0  0
    2.3553   -0.8790    0.0000 C   0  0  0  0  0  0  0  0  0  0  0  0
    3.0707    0.3652    0.0000 C   0  0  0  0  0  0  0  0  0  0  0  0
    0.9246   -0.0494    0.0000 N   0  0  0  0  0  0  0  0  0  0  0  0
    3.0707   -1.2899    0.0000 C   0  0  0  0  0  0  0  0  0  0  0  0
    3.7898   -0.0494    0.0000 C   0  0  0  0  0  0  0  0  0  0  0  0
    0.2093    0.3652    0.0000 C   0  0  0  0  0  0  0  0  0  0  0  0
    3.7898   -0.8790    0.0000 C   0  0  0  0  0  0  0  0  0  0  0  0
   -0.5099   -0.0418    0.0000 C   0  0  0  0  0  0  0  0  0  0  0  0
    0.2093    1.1910    0.0000 O   0  0  0  0  0  0  0  0  0  0  0  0
   -1.2176    0.3767    0.0000 C   0  0  0  0  0  0  0  0  0  0  0  0
   -1.2138    1.1986    0.0000 C   0  0  0  0  0  0  0  0  0  0  0  0
   -1.9253    1.6134    0.0000 C   0  0  0  0  0  0  0  0  0  0  0  0
   -2.6407    1.2062    0.0000 C   0  0  0  0  0  0  0  0  0  0  0  0
   -2.6407    0.3805    0.0000 C   0  0  0  0  0  0  0  0  0  0  0  0
   -3.3561   -0.0305    0.0000 C   0  0  0  0  0  0  0  0  0  0  0  0
   -3.3561   -0.8562    0.0000 C   0  0  0  0  0  0  0  0  0  0  0  0
   -2.6407   -1.2632    0.0000 C   0  0  0  0  0  0  0  0  0  0  0  0
   -1.9253   -1.6742    0.0000 C   0  0  0  0  0  0  0  0  0  0  0  0
  1  2  1  0  0  0  0
  1  3  1  0  0  0  0
  1  4  2  0  0  0  0
  2  5  1  0  0  0  0
  3  6  2  0  0  0  0
  4  7  1  0  0  0  0
  5  8  1  0  0  0  0
  6  9  1  0  0  0  0
  7  9  2  0  0  0  0
  8 10  1  0  0  0  0
  8 11  2  0  0  0  0
 10 12  1  0  0  0  0
 12 13  1  0  0  0  0
 13 14  1  0  0  0  0
 14 15  1  0  0  0  0
 15 16  1  0  0  0  0
 16 17  1  0  0  0  0
 17 18  1  0  0  0  0
 18 19  1  0  0  0  0
 19 20  3  0  0  0  0
M  END
>  <CdId>
102

>  <Mol Weight>
271.3972

>  <Formula>
C18H25NO

>  <Click_ID>
CLK002C03 __  __  __

$$$$
CLK002D03 __  __  __
 OpenBabel03171413522D

 20 20  0  0  0  0  0  0  0  0999 V2000
    1.7488   -0.0685    0.0000 C   0  0  0  0  0  0  0  0  0  0  0  0
    2.4635   -0.4866    0.0000 C   0  0  0  0  0  0  0  0  0  0  0  0
    1.7450    0.7528    0.0000 C   0  0  0  0  0  0  0  0  0  0  0  0
    1.0303   -0.4828    0.0000 N   0  0  0  0  0  0  0  0  0  0  0  0
    3.1783   -0.0722    0.0000 C   0  0  0  0  0  0  0  0  0  0  0  0
    2.4635    1.1671    0.0000 C   0  0  0  0  0  0  0  0  0  0  0  0
    0.3155   -0.0685    0.0000 C   0  0  0  0  0  0  0  0  0  0  0  0
    3.1783    0.7528    0.0000 C   0  0  0  0  0  0  0  0  0  0  0  0
   -0.4030   -0.4752    0.0000 C   0  0  0  0  0  0  0  0  0  0  0  0
    0.3155    0.7565    0.0000 O   0  0  0  0  0  0  0  0  0  0  0  0
    3.8929    1.1671    0.0000 C   0  0  0  0  0  0  0  0  0  0  0  0
   -1.1101   -0.0570    0.0000 C   0  0  0  0  0  0  0  0  0  0  0  0
   -1.1025    0.7680    0.0000 C   0  0  0  0  0  0  0  0  0  0  0  0
   -1.8172    1.1786    0.0000 C   0  0  0  0  0  0  0  0  0  0  0  0
   -2.5320    0.7717    0.0000 C   0  0  0  0  0  0  0  0  0  0  0  0
   -2.5320   -0.0533    0.0000 C   0  0  0  0  0  0  0  0  0  0  0  0
   -3.2429   -0.4638    0.0000 C   0  0  0  0  0  0  0  0  0  0  0  0
   -3.2429   -1.2888    0.0000 C   0  0  0  0  0  0  0  0  0  0  0  0
   -2.5320   -1.6955    0.0000 C   0  0  0  0  0  0  0  0  0  0  0  0
   -1.8172   -2.1061    0.0000 C   0  0  0  0  0  0  0  0  0  0  0  0
  1  2  1  0  0  0  0
  1  3  2  0  0  0  0
  1  4  1  0  0  0  0
  2  5  2  0  0  0  0
  3  6  1  0  0  0  0
  4  7  1  0  0  0  0
  5  8  1  0  0  0  0
  6  8  2  0  0  0  0
  7  9  1  0  0  0  0
  7 10  2  0  0  0  0
  8 11  1  0  0  0  0
  9 12  1  0  0  0  0
 12 13  1  0  0  0  0
 13 14  1  0  0  0  0
 14 15  1  0  0  0  0
 15 16  1  0  0  0  0
 16 17  1  0  0  0  0
 17 18  1  0  0  0  0
 18 19  1  0  0  0  0
 19 20  3  0  0  0  0
M  END
>  <CdId>
112

>  <Mol Weight>
271.3972

>  <Formula>
C18H25NO

>  <Click_ID>
CLK002D03 __  __  __

$$$$
CLK002D05 __  __  __
 OpenBabel03171413522D

 21 21  0  0  0  0  0  0  0  0999 V2000
    1.5627   -0.1673    0.0000 C   0  0  0  0  0  0  0  0  0  0  0  0
    0.8479   -0.5779    0.0000 C   0  0  0  0  0  0  0  0  0  0  0  0
    2.2775   -0.5779    0.0000 C   0  0  0  0  0  0  0  0  0  0  0  0
    1.5627    0.6616    0.0000 N   0  0  0  0  0  0  0  0  0  0  0  0
    0.8479   -1.4069    0.0000 C   0  0  0  0  0  0  0  0  0  0  0  0
    2.2775   -1.4069    0.0000 C   0  0  0  0  0  0  0  0  0  0  0  0
    0.8479    1.0761    0.0000 C   0  0  0  0  0  0  0  0  0  0  0  0
    1.5627   -1.8212    0.0000 C   0  0  0  0  0  0  0  0  0  0  0  0
    0.1292    0.6692    0.0000 C   0  0  0  0  0  0  0  0  0  0  0  0
    0.8441    1.9011    0.0000 O   0  0  0  0  0  0  0  0  0  0  0  0
    1.5589   -2.6426    0.0000 O   0  0  0  0  0  0  0  0  0  0  0  0
   -0.5779    1.0874    0.0000 C   0  0  0  0  0  0  0  0  0  0  0  0
    0.8479   -3.0608    0.0000 C   0  0  0  0  0  0  0  0  0  0  0  0
   -0.5741    1.9087    0.0000 C   0  0  0  0  0  0  0  0  0  0  0  0
   -1.2851    2.3232    0.0000 C   0  0  0  0  0  0  0  0  0  0  0  0
   -2.0037    1.9163    0.0000 C   0  0  0  0  0  0  0  0  0  0  0  0
   -2.0037    1.0913    0.0000 C   0  0  0  0  0  0  0  0  0  0  0  0
   -2.7148    0.6806    0.0000 C   0  0  0  0  0  0  0  0  0  0  0  0
   -2.7148   -0.1444    0.0000 C   0  0  0  0  0  0  0  0  0  0  0  0
   -2.0037   -0.5513    0.0000 C   0  0  0  0  0  0  0  0  0  0  0  0
   -1.2851   -0.9619    0.0000 C   0  0  0  0  0  0  0  0  0  0  0  0
  1  2  1  0  0  0  0
  1  3  2  0  0  0  0
  1  4  1  0  0  0  0
  2  5  2  0  0  0  0
  3  6  1  0  0  0  0
  4  7  1  0  0  0  0
  5  8  1  0  0  0  0
  6  8  2  0  0  0  0
  7  9  1  0  0  0  0
  7 10  2  0  0  0  0
  8 11  1  0  0  0  0
  9 12  1  0  0  0  0
 11 13  1  0  0  0  0
 12 14  1  0  0  0  0
 14 15  1  0  0  0  0
 15 16  1  0  0  0  0
 16 17  1  0  0  0  0
 17 18  1  0  0  0  0
 18 19  1  0  0  0  0
 19 20  1  0  0  0  0
 20 21  3  0  0  0  0
M  END
>  <CdId>
114

>  <Mol Weight>
287.3966

>  <Formula>
C18H25NO2

>  <Click_ID>
CLK002D05 __  __  __

$$$$
CLK002F05 __  __  __
 OpenBabel03171413522D

 32 32  0  0  0  0  0  0  0  0999 V2000
   -2.8562   -0.4219    0.0000 C   0  0  3  0  0  0  0  0  0  0  0  0
   -2.8562    0.4045    0.0000 C   0  0  3  0  0  0  0  0  0  0  0  0
   -2.1438   -0.8368    0.0000 O   0  0  0  0  0  0  0  0  0  0  0  0
   -3.5719   -0.8264    0.0000 O   0  0  0  0  0  0  0  0  0  0  0  0
   -2.1438    0.8195    0.0000 O   0  0  0  0  0  0  0  0  0  0  0  0
   -3.5719    0.8264    0.0000 O   0  0  0  0  0  0  0  0  0  0  0  0
   -2.1438   -1.6632    0.0000 C   0  0  0  0  0  0  0  0  0  0  0  0
   -4.2877   -0.4219    0.0000 C   0  0  0  0  0  0  0  0  0  0  0  0
   -2.1438    1.6459    0.0000 C   0  0  0  0  0  0  0  0  0  0  0  0
   -4.2877    0.4045    0.0000 C   0  0  0  0  0  0  0  0  0  0  0  0
   -1.4280   -2.0678    0.0000 C   0  0  0  0  0  0  0  0  0  0  0  0
   -2.8562   -2.0781    0.0000 O   0  0  0  0  0  0  0  0  0  0  0  0
   -1.4280    2.0609    0.0000 C   0  0  0  0  0  0  0  0  0  0  0  0
   -2.8631    2.0609    0.0000 O   0  0  0  0  0  0  0  0  0  0  0  0
   -0.7158   -1.6563    0.0000 C   0  0  0  0  0  0  0  0  0  0  0  0
   -0.7158    1.6529    0.0000 C   0  0  0  0  0  0  0  0  0  0  0  0
    0.0000   -2.0678    0.0000 C   0  0  0  0  0  0  0  0  0  0  0  0
    0.0000    2.0678    0.0000 C   0  0  0  0  0  0  0  0  0  0  0  0
    0.7158   -1.6563    0.0000 C   0  0  0  0  0  0  0  0  0  0  0  0
    0.7158    1.6529    0.0000 C   0  0  0  0  0  0  0  0  0  0  0  0
    1.4280   -2.0643    0.0000 C   0  0  0  0  0  0  0  0  0  0  0  0
    1.4280    2.0678    0.0000 C   0  0  0  0  0  0  0  0  0  0  0  0
    2.1438   -1.6493    0.0000 C   0  0  0  0  0  0  0  0  0  0  0  0
    2.1438    1.6598    0.0000 C   0  0  0  0  0  0  0  0  0  0  0  0
    2.8596   -2.0574    0.0000 C   0  0  0  0  0  0  0  0  0  0  0  0
    2.8596    2.0712    0.0000 C   0  0  0  0  0  0  0  0  0  0  0  0
    3.5719   -1.6424    0.0000 C   0  0  0  0  0  0  0  0  0  0  0  0
    3.5719    1.6667    0.0000 C   0  0  0  0  0  0  0  0  0  0  0  0
    4.2877   -2.0574    0.0000 C   0  0  0  0  0  0  0  0  0  0  0  0
    4.2877    2.0816    0.0000 C   0  0  0  0  0  0  0  0  0  0  0  0
    5.0000   -1.6424    0.0000 C   0  0  0  0  0  0  0  0  0  0  0  0
    5.0000    1.6667    0.0000 C   0  0  0  0  0  0  0  0  0  0  0  0
  1  2  1  0  0  0  0
  1  3  1  0  0  0  0
  1  4  1  0  0  0  0
  2  5  1  0  0  0  0
  2  6  1  0  0  0  0
  3  7  1  0  0  0  0
  4  8  1  0  0  0  0
  5  9  1  0  0  0  0
  6 10  1  0  0  0  0
  7 11  1  0  0  0  0
  7 12  2  0  0  0  0
  8 10  1  0  0  0  0
  9 13  1  0  0  0  0
  9 14  2  0  0  0  0
 11 15  1  0  0  0  0
 13 16  1  0  0  0  0
 15 17  1  0  0  0  0
 16 18  1  0  0  0  0
 17 19  1  0  0  0  0
 18 20  1  0  0  0  0
 19 21  1  0  0  0  0
 20 22  1  0  0  0  0
 21 23  1  0  0  0  0
 22 24  1  0  0  0  0
 23 25  1  0  0  0  0
 24 26  1  0  0  0  0
 25 27  1  0  0  0  0
 26 28  1  0  0  0  0
 27 29  1  0  0  0  0
 28 30  1  0  0  0  0
 29 31  3  0  0  0  0
 30 32  3  0  0  0  0
M  END
>  <CdId>
134

>  <Mol Weight>
448.5922

>  <Formula>
C26H40O6

>  <Click_ID>
CLK002F05 __  __  __

$$$$
CLK003B06 __  __  __
 OpenBabel03171413522D

 24 26  0  0  0  0  0  0  0  0999 V2000
   -0.7955    0.9173    0.0000 C   0  0  0  0  0  0  0  0  0  0  0  0
   -0.2589    1.5225    0.0000 C   0  0  0  0  0  0  0  0  0  0  0  0
   -1.5987    1.0011    0.0000 N   0  0  0  0  0  0  0  0  0  0  0  0
   -0.6205    0.1294    0.0000 N   0  0  0  0  0  0  0  0  0  0  0  0
    0.5367    1.3588    0.0000 C   0  0  0  0  0  0  0  0  0  0  0  0
   -0.5519    2.3980    0.0000 C   0  0  0  0  0  0  0  0  0  0  0  0
   -1.9260    0.2550    0.0000 C   0  0  0  0  0  0  0  0  0  0  0  0
   -1.3209   -0.2817    0.0000 C   0  0  0  0  0  0  0  0  0  0  0  0
    0.7993    0.5824    0.0000 C   0  0  0  0  0  0  0  0  0  0  0  0
   -0.8412    3.2773    0.0000 N   0  0  0  0  0  0  0  0  0  0  0  0
   -2.6987   -0.0076    0.0000 C   0  0  0  0  0  0  0  0  0  0  0  0
   -1.4768   -1.0849    0.0000 C   0  0  0  0  0  0  0  0  0  0  0  0
    1.6063    0.4111    0.0000 C   0  0  0  0  0  0  0  0  0  0  0  0
    0.2474   -0.0457    0.0000 C   0  0  0  0  0  0  0  0  0  0  0  0
   -2.8547   -0.8032    0.0000 C   0  0  0  0  0  0  0  0  0  0  0  0
   -2.2571   -1.3398    0.0000 C   0  0  0  0  0  0  0  0  0  0  0  0
    1.8689   -0.3769    0.0000 C   0  0  0  0  0  0  0  0  0  0  0  0
    0.5101   -0.8298    0.0000 C   0  0  0  0  0  0  0  0  0  0  0  0
   -3.6427   -1.0696    0.0000 C   0  0  0  0  0  0  0  0  0  0  0  0
    1.3246   -0.9972    0.0000 C   0  0  0  0  0  0  0  0  0  0  0  0
    2.6834   -0.5405    0.0000 O   0  0  0  0  0  0  0  0  0  0  0  0
    2.9423   -1.3284    0.0000 C   0  0  0  0  0  0  0  0  0  0  0  0
    3.7568   -1.4921    0.0000 C   0  0  0  0  0  0  0  0  0  0  0  0
    4.5676   -1.6595    0.0000 C   0  0  0  0  0  0  0  0  0  0  0  0
  1  2  1  0  0  0  0
  1  3  1  0  0  0  0
  1  4  2  0  0  0  0
  2  5  2  0  0  0  0
  2  6  1  0  0  0  0
  3  7  1  0  0  0  0
  4  8  1  0  0  0  0
  5  9  1  0  0  0  0
  6 10  3  0  0  0  0
  7 11  1  0  0  0  0
  7  8  2  0  0  0  0
  8 12  1  0  0  0  0
  9 13  2  0  0  0  0
  9 14  1  0  0  0  0
 11 15  2  0  0  0  0
 12 16  2  0  0  0  0
 13 17  1  0  0  0  0
 14 18  2  0  0  0  0
 15 19  1  0  0  0  0
 15 16  1  0  0  0  0
 17 20  2  0  0  0  0
 17 21  1  0  0  0  0
 18 20  1  0  0  0  0
 21 22  1  0  0  0  0
 22 23  1  0  0  0  0
 23 24  3  0  0  0  0
M  END
>  <CdId>
175

>  <Mol Weight>
313.3526

>  <Formula>
C20H15N3O

>  <Click_ID>
CLK003B06 __  __  __

$$$$
CLK003D03 __  __  __
 OpenBabel03171413522D

 19 19  0  0  0  0  0  0  0  0999 V2000
    1.6879   -0.4676    0.0000 C   0  0  0  0  0  0  0  0  0  0  0  0
    1.6879    0.3612    0.0000 N   0  0  0  0  0  0  0  0  0  0  0  0
    0.9733   -0.8783    0.0000 C   0  0  0  0  0  0  0  0  0  0  0  0
    2.4065   -0.8783    0.0000 C   0  0  0  0  0  0  0  0  0  0  0  0
    0.9733    0.7755    0.0000 C   0  0  0  0  0  0  0  0  0  0  0  0
    0.9733   -1.7070    0.0000 C   0  0  0  0  0  0  0  0  0  0  0  0
    2.4065   -1.7070    0.0000 C   0  0  0  0  0  0  0  0  0  0  0  0
    0.2547    0.3688    0.0000 C   0  0  0  0  0  0  0  0  0  0  0  0
    0.9733    1.6005    0.0000 O   0  0  0  0  0  0  0  0  0  0  0  0
    1.6879   -2.1213    0.0000 C   0  0  0  0  0  0  0  0  0  0  0  0
   -0.4524    0.7870    0.0000 C   0  0  0  0  0  0  0  0  0  0  0  0
   -0.4486    1.6120    0.0000 C   0  0  0  0  0  0  0  0  0  0  0  0
   -1.1595    2.0225    0.0000 C   0  0  0  0  0  0  0  0  0  0  0  0
   -1.8742    1.6157    0.0000 C   0  0  0  0  0  0  0  0  0  0  0  0
   -1.8742    0.7907    0.0000 C   0  0  0  0  0  0  0  0  0  0  0  0
   -2.5890    0.3801    0.0000 C   0  0  0  0  0  0  0  0  0  0  0  0
   -2.5890   -0.4447    0.0000 C   0  0  0  0  0  0  0  0  0  0  0  0
   -1.8742   -0.8516    0.0000 C   0  0  0  0  0  0  0  0  0  0  0  0
   -1.1595   -1.2621    0.0000 C   0  0  0  0  0  0  0  0  0  0  0  0
  1  2  1  0  0  0  0
  1  3  1  0  0  0  0
  1  4  2  0  0  0  0
  2  5  1  0  0  0  0
  3  6  2  0  0  0  0
  4  7  1  0  0  0  0
  5  8  1  0  0  0  0
  5  9  2  0  0  0  0
  6 10  1  0  0  0  0
  7 10  2  0  0  0  0
  8 11  1  0  0  0  0
 11 12  1  0  0  0  0
 12 13  1  0  0  0  0
 13 14  1  0  0  0  0
 14 15  1  0  0  0  0
 15 16  1  0  0  0  0
 16 17  1  0  0  0  0
 17 18  1  0  0  0  0
 18 19  3  0  0  0  0
M  END
>  <CdId>
192

>  <Mol Weight>
257.3706

>  <Formula>
C17H23NO

>  <Click_ID>
CLK003D03 __  __  __

$$$$
CLK003D07 __  __  __
 OpenBabel03171413522D

 16 17  0  0  0  0  0  0  0  0999 V2000
   -0.7328   -0.3353    0.0000 C   0  0  0  0  0  0  0  0  0  0  0  0
   -0.7328    0.4834    0.0000 C   0  0  0  0  0  0  0  0  0  0  0  0
   -0.0156   -0.7407    0.0000 N   0  0  0  0  0  0  0  0  0  0  0  0
   -1.4579   -0.7407    0.0000 C   0  0  0  0  0  0  0  0  0  0  0  0
   -0.0156    0.9044    0.0000 C   0  0  0  0  0  0  0  0  0  0  0  0
   -1.4579    0.9044    0.0000 C   0  0  0  0  0  0  0  0  0  0  0  0
    0.7251   -0.3353    0.0000 C   0  0  0  0  0  0  0  0  0  0  0  0
   -2.1362   -0.3353    0.0000 C   0  0  0  0  0  0  0  0  0  0  0  0
    0.7251    0.4834    0.0000 N   0  0  0  0  0  0  0  0  0  0  0  0
    0.0468    1.7464    0.0000 C   0  0  0  0  0  0  0  0  0  0  0  0
   -2.1362    0.4834    0.0000 C   0  0  0  0  0  0  0  0  0  0  0  0
    1.4502   -0.7875    0.0000 S   0  0  0  0  0  0  0  0  0  0  0  0
   -2.8457    0.9044    0.0000 C   0  0  0  0  0  0  0  0  0  0  0  0
    2.1597   -0.4210    0.0000 C   0  0  0  0  0  0  0  0  0  0  0  0
    2.8380   -0.8732    0.0000 C   0  0  0  0  0  0  0  0  0  0  0  0
    3.5631   -1.3566    0.0000 C   0  0  0  0  0  0  0  0  0  0  0  0
  1  2  2  0  0  0  0
  1  3  1  0  0  0  0
  1  4  1  0  0  0  0
  2  5  1  0  0  0  0
  2  6  1  0  0  0  0
  3  7  2  0  0  0  0
  4  8  2  0  0  0  0
  5  9  2  0  0  0  0
  5 10  1  0  0  0  0
  6 11  2  0  0  0  0
  7 12  1  0  0  0  0
  7  9  1  0  0  0  0
  8 11  1  0  0  0  0
 11 13  1  0  0  0  0
 12 14  1  0  0  0  0
 14 15  1  0  0  0  0
 15 16  3  0  0  0  0
M  END
>  <CdId>
196

>  <Mol Weight>
228.313

>  <Formula>
C13H12N2S

>  <Click_ID>
CLK003D07 __  __  __

$$$$
CLK004D09 __  __  __
 OpenBabel03171413522D

 17 18  0  0  0  0  0  0  0  0999 V2000
    0.5734    0.0622    0.0000 C   0  0  0  0  0  0  0  0  0  0  0  0
    0.3144    0.8429    0.0000 C   0  0  0  0  0  0  0  0  0  0  0  0
   -0.1105   -0.4318    0.0000 C   0  0  0  0  0  0  0  0  0  0  0  0
    1.3784   -0.1243    0.0000 C   0  0  0  0  0  0  0  0  0  0  0  0
   -0.5112    0.8532    0.0000 N   0  0  0  0  0  0  0  0  0  0  0  0
    0.8740    1.4543    0.0000 C   0  0  0  0  0  0  0  0  0  0  0  0
   -0.7669    0.0622    0.0000 C   0  0  0  0  0  0  0  0  0  0  0  0
   -0.1105   -1.2644    0.0000 C   0  0  0  0  0  0  0  0  0  0  0  0
    1.9276    0.4906    0.0000 C   0  0  0  0  0  0  0  0  0  0  0  0
   -1.0018    1.5304    0.0000 C   0  0  0  0  0  0  0  0  0  0  0  0
    1.6754    1.2782    0.0000 C   0  0  0  0  0  0  0  0  0  0  0  0
   -0.8256   -1.6754    0.0000 C   0  0  0  0  0  0  0  0  0  0  0  0
   -0.6495    2.2627    0.0000 C   0  0  0  0  0  0  0  0  0  0  0  0
   -0.8256   -2.5045    0.0000 N   0  3  0  0  0  0  0  0  0  0  0  0
   -0.2764    2.9985    0.0000 C   0  0  0  0  0  0  0  0  0  0  0  0
   -0.1105   -2.9156    0.0000 O   0  0  0  0  0  0  0  0  0  0  0  0
   -1.5442   -2.9156    0.0000 O   0  5  0  0  0  0  0  0  0  0  0  0
  1  2  1  0  0  0  0
  1  3  1  0  0  0  0
  1  4  2  0  0  0  0
  2  5  1  0  0  0  0
  2  6  2  0  0  0  0
  3  7  2  0  0  0  0
  3  8  1  0  0  0  0
  4  9  1  0  0  0  0
  5 10  1  0  0  0  0
  5  7  1  0  0  0  0
  6 11  1  0  0  0  0
  8 12  2  0  0  0  0
  9 11  2  0  0  0  0
 10 13  1  0  0  0  0
 12 14  1  0  0  0  0
 13 15  3  0  0  0  0
 14 16  2  0  0  0  0
 14 17  1  0  0  0  0
M  CHG  2  14   1  17  -1
M  END
>  <CdId>
278

>  <Mol Weight>
226.2307

>  <Formula>
C13H10N2O2

>  <Click_ID>
CLK004D09 __  __  __

$$$$
CLK005A06 __  __  __
 OpenBabel03171413522D

 25 27  0  0  0  0  0  0  0  0999 V2000
   -1.5777    0.2433    0.0000 C   0  0  0  0  0  0  0  0  0  0  0  0
   -0.7755    0.2509    0.0000 C   0  0  0  0  0  0  0  0  0  0  0  0
   -2.0567    0.8896    0.0000 N   0  0  0  0  0  0  0  0  0  0  0  0
   -2.0567   -0.4106    0.0000 N   0  0  0  0  0  0  0  0  0  0  0  0
   -0.3725   -0.4600    0.0000 C   0  0  0  0  0  0  0  0  0  0  0  0
   -0.3194    1.0379    0.0000 C   0  0  0  0  0  0  0  0  0  0  0  0
   -2.8285    0.6425    0.0000 C   0  0  0  0  0  0  0  0  0  0  0  0
   -2.8285   -0.1596    0.0000 C   0  0  0  0  0  0  0  0  0  0  0  0
    0.4524   -0.4600    0.0000 C   0  0  0  0  0  0  0  0  0  0  0  0
    0.1444    1.8362    0.0000 N   0  0  0  0  0  0  0  0  0  0  0  0
   -3.5317    1.0531    0.0000 C   0  0  0  0  0  0  0  0  0  0  0  0
   -3.5317   -0.5702    0.0000 C   0  0  0  0  0  0  0  0  0  0  0  0
    0.8668    0.2585    0.0000 C   0  0  0  0  0  0  0  0  0  0  0  0
    0.8668   -1.1747    0.0000 C   0  0  0  0  0  0  0  0  0  0  0  0
   -4.2313    0.6425    0.0000 C   0  0  0  0  0  0  0  0  0  0  0  0
   -4.2313   -0.1596    0.0000 C   0  0  0  0  0  0  0  0  0  0  0  0
    1.6918    0.2509    0.0000 C   0  0  0  0  0  0  0  0  0  0  0  0
    1.6918   -1.1823    0.0000 C   0  0  0  0  0  0  0  0  0  0  0  0
    2.1061   -0.4638    0.0000 C   0  0  0  0  0  0  0  0  0  0  0  0
    2.1176    0.9694    0.0000 O   0  0  0  0  0  0  0  0  0  0  0  0
    2.9350   -0.4638    0.0000 O   0  0  0  0  0  0  0  0  0  0  0  0
    2.9426    0.9694    0.0000 C   0  0  0  0  0  0  0  0  0  0  0  0
    3.3455   -1.1823    0.0000 C   0  0  0  0  0  0  0  0  0  0  0  0
    4.1743   -1.1823    0.0000 C   0  0  0  0  0  0  0  0  0  0  0  0
    4.9993   -1.1823    0.0000 C   0  0  0  0  0  0  0  0  0  0  0  0
  1  2  1  0  0  0  0
  1  3  1  0  0  0  0
  1  4  2  0  0  0  0
  2  5  2  0  0  0  0
  2  6  1  0  0  0  0
  3  7  1  0  0  0  0
  4  8  1  0  0  0  0
  5  9  1  0  0  0  0
  6 10  3  0  0  0  0
  7 11  1  0  0  0  0
  7  8  2  0  0  0  0
  8 12  1  0  0  0  0
  9 13  2  0  0  0  0
  9 14  1  0  0  0  0
 11 15  2  0  0  0  0
 12 16  2  0  0  0  0
 13 17  1  0  0  0  0
 14 18  2  0  0  0  0
 15 16  1  0  0  0  0
 17 19  2  0  0  0  0
 17 20  1  0  0  0  0
 18 19  1  0  0  0  0
 19 21  1  0  0  0  0
 20 22  1  0  0  0  0
 21 23  1  0  0  0  0
 23 24  1  0  0  0  0
 24 25  3  0  0  0  0
M  END
>  <CdId>
325

>  <Mol Weight>
329.352

>  <Formula>
C20H15N3O2

>  <Click_ID>
CLK005A06 __  __  __

$$$$
CLK005C05 __  __  __
 OpenBabel03171413522D

 23 25  0  0  0  0  0  0  0  0999 V2000
   -0.9654    0.8811    0.0000 C   0  0  0  0  0  0  0  0  0  0  0  0
   -0.4253    1.4902    0.0000 C   0  0  0  0  0  0  0  0  0  0  0  0
   -1.7698    0.9538    0.0000 N   0  0  0  0  0  0  0  0  0  0  0  0
   -0.7853    0.0804    0.0000 N   0  0  0  0  0  0  0  0  0  0  0  0
    0.3830    1.3254    0.0000 C   0  0  0  0  0  0  0  0  0  0  0  0
   -0.7163    2.3673    0.0000 C   0  0  0  0  0  0  0  0  0  0  0  0
   -2.0954    0.2031    0.0000 C   0  0  0  0  0  0  0  0  0  0  0  0
   -1.4825   -0.3370    0.0000 C   0  0  0  0  0  0  0  0  0  0  0  0
    0.6474    0.5325    0.0000 C   0  0  0  0  0  0  0  0  0  0  0  0
   -1.0075    3.2561    0.0000 N   0  0  0  0  0  0  0  0  0  0  0  0
   -2.8807   -0.0498    0.0000 C   0  0  0  0  0  0  0  0  0  0  0  0
   -1.6473   -1.1339    0.0000 C   0  0  0  0  0  0  0  0  0  0  0  0
    1.4595    0.3677    0.0000 C   0  0  0  0  0  0  0  0  0  0  0  0
    0.0920   -0.0920    0.0000 C   0  0  0  0  0  0  0  0  0  0  0  0
   -3.0339   -0.8543    0.0000 C   0  0  0  0  0  0  0  0  0  0  0  0
   -2.4287   -1.3982    0.0000 C   0  0  0  0  0  0  0  0  0  0  0  0
    1.7238   -0.4253    0.0000 C   0  0  0  0  0  0  0  0  0  0  0  0
    0.3524   -0.8811    0.0000 C   0  0  0  0  0  0  0  0  0  0  0  0
    1.1722   -1.0496    0.0000 C   0  0  0  0  0  0  0  0  0  0  0  0
    2.5436   -0.5899    0.0000 O   0  0  0  0  0  0  0  0  0  0  0  0
    2.8079   -1.3829    0.0000 C   0  0  0  0  0  0  0  0  0  0  0  0
    3.6162   -1.5476    0.0000 C   0  0  0  0  0  0  0  0  0  0  0  0
    4.4360   -1.7161    0.0000 C   0  0  0  0  0  0  0  0  0  0  0  0
  1  2  1  0  0  0  0
  1  3  1  0  0  0  0
  1  4  2  0  0  0  0
  2  5  2  0  0  0  0
  2  6  1  0  0  0  0
  3  7  1  0  0  0  0
  4  8  1  0  0  0  0
  5  9  1  0  0  0  0
  6 10  3  0  0  0  0
  7 11  1  0  0  0  0
  7  8  2  0  0  0  0
  8 12  1  0  0  0  0
  9 13  2  0  0  0  0
  9 14  1  0  0  0  0
 11 15  2  0  0  0  0
 12 16  2  0  0  0  0
 13 17  1  0  0  0  0
 14 18  2  0  0  0  0
 15 16  1  0  0  0  0
 17 19  2  0  0  0  0
 17 20  1  0  0  0  0
 18 19  1  0  0  0  0
 20 21  1  0  0  0  0
 21 22  1  0  0  0  0
 22 23  3  0  0  0  0
M  END
>  <CdId>
344

>  <Mol Weight>
299.326

>  <Formula>
C19H13N3O

>  <Click_ID>
CLK005C05 __  __  __

$$$$
CLK005C07 __  __  __
 OpenBabel03171413522D

 26 28  0  0  0  0  0  0  0  0999 V2000
   -1.2188    1.0094    0.0000 C   0  0  0  0  0  0  0  0  0  0  0  0
   -0.8227    1.7217    0.0000 C   0  0  0  0  0  0  0  0  0  0  0  0
   -2.0264    0.9066    0.0000 N   0  0  0  0  0  0  0  0  0  0  0  0
   -0.8761    0.2704    0.0000 N   0  0  0  0  0  0  0  0  0  0  0  0
   -0.0190    1.7369    0.0000 C   0  0  0  0  0  0  0  0  0  0  0  0
   -1.3027    2.5101    0.0000 C   0  0  0  0  0  0  0  0  0  0  0  0
   -2.1788    0.1105    0.0000 C   0  0  0  0  0  0  0  0  0  0  0  0
   -1.4665   -0.2819    0.0000 C   0  0  0  0  0  0  0  0  0  0  0  0
    0.4114    1.0208    0.0000 C   0  0  0  0  0  0  0  0  0  0  0  0
   -1.7864    3.2986    0.0000 N   0  0  0  0  0  0  0  0  0  0  0  0
   -2.8758   -0.3085    0.0000 C   0  0  0  0  0  0  0  0  0  0  0  0
   -1.4550   -1.0970    0.0000 C   0  0  0  0  0  0  0  0  0  0  0  0
    1.2380    1.0360    0.0000 C   0  0  0  0  0  0  0  0  0  0  0  0
    0.0076    0.3009    0.0000 C   0  0  0  0  0  0  0  0  0  0  0  0
   -2.8644   -1.1236    0.0000 C   0  0  0  0  0  0  0  0  0  0  0  0
   -2.1598   -1.5084    0.0000 C   0  0  0  0  0  0  0  0  0  0  0  0
    1.6646    0.3276    0.0000 C   0  0  0  0  0  0  0  0  0  0  0  0
    0.4381   -0.4152    0.0000 C   0  0  0  0  0  0  0  0  0  0  0  0
    1.2646   -0.4000    0.0000 C   0  0  0  0  0  0  0  0  0  0  0  0
    2.4949    0.3390    0.0000 O   0  0  0  0  0  0  0  0  0  0  0  0
    1.6950   -1.1084    0.0000 O   0  0  0  0  0  0  0  0  0  0  0  0
    2.9215   -0.3619    0.0000 C   0  0  0  0  0  0  0  0  0  0  0  0
    1.2951   -1.8360    0.0000 C   0  0  0  0  0  0  0  0  0  0  0  0
    3.7520   -0.3504    0.0000 C   0  0  0  0  0  0  0  0  0  0  0  0
    1.7179   -2.5444    0.0000 C   0  0  0  0  0  0  0  0  0  0  0  0
    2.1445   -3.2491    0.0000 C   0  0  0  0  0  0  0  0  0  0  0  0
  1  2  1  0  0  0  0
  1  3  1  0  0  0  0
  1  4  2  0  0  0  0
  2  5  2  0  0  0  0
  2  6  1  0  0  0  0
  3  7  1  0  0  0  0
  4  8  1  0  0  0  0
  5  9  1  0  0  0  0
  6 10  3  0  0  0  0
  7 11  1  0  0  0  0
  7  8  2  0  0  0  0
  8 12  1  0  0  0  0
  9 13  2  0  0  0  0
  9 14  1  0  0  0  0
 11 15  2  0  0  0  0
 12 16  2  0  0  0  0
 13 17  1  0  0  0  0
 14 18  2  0  0  0  0
 15 16  1  0  0  0  0
 17 19  2  0  0  0  0
 17 20  1  0  0  0  0
 18 19  1  0  0  0  0
 19 21  1  0  0  0  0
 20 22  1  0  0  0  0
 21 23  1  0  0  0  0
 22 24  1  0  0  0  0
 23 25  1  0  0  0  0
 25 26  3  0  0  0  0
M  END
>  <CdId>
346

>  <Mol Weight>
343.3786

>  <Formula>
C21H17N3O2

>  <Click_ID>
CLK005C07 __  __  __

$$$$
CLK005E07 __  __  __
 OpenBabel03171413522D

 25 27  0  0  0  0  0  0  0  0999 V2000
   -0.8421    0.7562    0.0000 C   0  0  0  0  0  0  0  0  0  0  0  0
   -0.1203    1.1722    0.0000 C   0  0  0  0  0  0  0  0  0  0  0  0
   -1.6396    1.0071    0.0000 N   0  0  0  0  0  0  0  0  0  0  0  0
   -0.8353   -0.0653    0.0000 N   0  0  0  0  0  0  0  0  0  0  0  0
    0.5912    0.7666    0.0000 C   0  0  0  0  0  0  0  0  0  0  0  0
   -0.1237    2.0006    0.0000 C   0  0  0  0  0  0  0  0  0  0  0  0
   -2.1140    0.3437    0.0000 C   0  0  0  0  0  0  0  0  0  0  0  0
   -1.6190   -0.3300    0.0000 C   0  0  0  0  0  0  0  0  0  0  0  0
    0.5981   -0.0550    0.0000 C   0  0  0  0  0  0  0  0  0  0  0  0
   -0.1341    2.8290    0.0000 N   0  0  0  0  0  0  0  0  0  0  0  0
   -2.9355    0.2578    0.0000 C   0  0  0  0  0  0  0  0  0  0  0  0
   -1.9559   -1.0759    0.0000 C   0  0  0  0  0  0  0  0  0  0  0  0
    1.3097   -0.4640    0.0000 C   0  0  0  0  0  0  0  0  0  0  0  0
   -0.1203   -0.4640    0.0000 C   0  0  0  0  0  0  0  0  0  0  0  0
   -3.2656   -0.5018    0.0000 C   0  0  0  0  0  0  0  0  0  0  0  0
   -2.7774   -1.1722    0.0000 C   0  0  0  0  0  0  0  0  0  0  0  0
    1.3097   -1.2890    0.0000 C   0  0  0  0  0  0  0  0  0  0  0  0
    2.0109   -0.0550    0.0000 O   0  0  0  0  0  0  0  0  0  0  0  0
   -0.1203   -1.2890    0.0000 C   0  0  0  0  0  0  0  0  0  0  0  0
    0.5981   -1.6980    0.0000 C   0  0  0  0  0  0  0  0  0  0  0  0
    2.0212   -1.6947    0.0000 O   0  0  0  0  0  0  0  0  0  0  0  0
    2.0075    0.7666    0.0000 C   0  0  0  0  0  0  0  0  0  0  0  0
    2.0212   -2.5162    0.0000 C   0  0  0  0  0  0  0  0  0  0  0  0
    2.7155    1.1825    0.0000 C   0  0  0  0  0  0  0  0  0  0  0  0
    3.4306    1.5916    0.0000 C   0  0  0  0  0  0  0  0  0  0  0  0
  1  2  1  0  0  0  0
  1  3  1  0  0  0  0
  1  4  2  0  0  0  0
  2  5  2  0  0  0  0
  2  6  1  0  0  0  0
  3  7  1  0  0  0  0
  4  8  1  0  0  0  0
  5  9  1  0  0  0  0
  6 10  3  0  0  0  0
  7 11  1  0  0  0  0
  7  8  2  0  0  0  0
  8 12  1  0  0  0  0
  9 13  2  0  0  0  0
  9 14  1  0  0  0  0
 11 15  2  0  0  0  0
 12 16  2  0  0  0  0
 13 17  1  0  0  0  0
 13 18  1  0  0  0  0
 14 19  2  0  0  0  0
 15 16  1  0  0  0  0
 17 20  2  0  0  0  0
 17 21  1  0  0  0  0
 18 22  1  0  0  0  0
 19 20  1  0  0  0  0
 21 23  1  0  0  0  0
 22 24  1  0  0  0  0
 24 25  3  0  0  0  0
M  END
>  <CdId>
366

>  <Mol Weight>
329.352

>  <Formula>
C20H15N3O2

>  <Click_ID>
CLK005E07 __  __  __

$$$$
CLK005F04 __  __  __
 OpenBabel03171413522D

 16 17  0  0  0  0  0  0  0  0999 V2000
   -0.9794   -0.1033    0.0000 C   0  0  0  0  0  0  0  0  0  0  0  0
   -0.9794    0.7314    0.0000 C   0  0  0  0  0  0  0  0  0  0  0  0
   -0.2645   -0.5145    0.0000 N   0  0  0  0  0  0  0  0  0  0  0  0
   -1.6984   -0.5145    0.0000 C   0  0  0  0  0  0  0  0  0  0  0  0
   -0.2645    1.1385    0.0000 C   0  0  0  0  0  0  0  0  0  0  0  0
   -1.6984    1.1426    0.0000 C   0  0  0  0  0  0  0  0  0  0  0  0
    0.4463   -0.1033    0.0000 C   0  0  0  0  0  0  0  0  0  0  0  0
   -2.4091   -0.1033    0.0000 C   0  0  0  0  0  0  0  0  0  0  0  0
    0.4463    0.7232    0.0000 C   0  0  0  0  0  0  0  0  0  0  0  0
   -2.4091    0.7314    0.0000 C   0  0  0  0  0  0  0  0  0  0  0  0
    1.1653   -0.5227    0.0000 S   0  0  0  0  0  0  0  0  0  0  0  0
    1.1612    1.1385    0.0000 C   0  0  0  0  0  0  0  0  0  0  0  0
    1.1612   -1.3533    0.0000 C   0  0  0  0  0  0  0  0  0  0  0  0
    1.8678    1.5537    0.0000 N   0  0  0  0  0  0  0  0  0  0  0  0
    1.8678   -1.7666    0.0000 C   0  0  0  0  0  0  0  0  0  0  0  0
    2.5806   -2.1819    0.0000 C   0  0  0  0  0  0  0  0  0  0  0  0
  1  2  1  0  0  0  0
  1  3  2  0  0  0  0
  1  4  1  0  0  0  0
  2  5  2  0  0  0  0
  2  6  1  0  0  0  0
  3  7  1  0  0  0  0
  4  8  1  0  0  0  0
  5  9  1  0  0  0  0
  6 10  1  0  0  0  0
  7 11  1  0  0  0  0
  7  9  2  0  0  0  0
  8 10  1  0  0  0  0
  9 12  1  0  0  0  0
 11 13  1  0  0  0  0
 12 14  3  0  0  0  0
 13 15  1  0  0  0  0
 15 16  3  0  0  0  0
M  END
>  <CdId>
373

>  <Mol Weight>
228.313

>  <Formula>
C13H12N2S

>  <Click_ID>
CLK005F04 __  __  __

$$$$
CLK005H02 __  __  __
 OpenBabel03171413522D

 28 30  0  0  0  0  0  0  0  0999 V2000
    1.1469    0.2773    0.0000 C   0  0  0  0  0  0  0  0  0  0  0  0
    0.4279    0.6847    0.0000 C   0  0  3  0  0  0  0  0  0  0  0  0
    1.8624    0.6916    0.0000 C   0  0  0  0  0  0  0  0  0  0  0  0
    1.1469   -0.5409    0.0000 C   0  0  0  0  0  0  0  0  0  0  0  0
   -0.2841    0.2773    0.0000 C   0  0  0  0  0  0  0  0  0  0  0  0
    0.4279    1.5097    0.0000 C   0  0  0  0  0  0  0  0  0  0  0  0
    1.8555    1.5166    0.0000 O   0  0  0  0  0  0  0  0  0  0  0  0
    2.5744    0.2808    0.0000 C   0  0  0  0  0  0  0  0  0  0  0  0
    1.8692   -0.9585    0.0000 C   0  0  0  0  0  0  0  0  0  0  0  0
    0.4347   -0.9654    0.0000 O   0  0  0  0  0  0  0  0  0  0  0  0
   -0.9996    0.6916    0.0000 C   0  0  0  0  0  0  0  0  0  0  0  0
   -0.2841   -0.5409    0.0000 C   0  0  0  0  0  0  0  0  0  0  0  0
    1.1469    1.9274    0.0000 C   0  0  0  0  0  0  0  0  0  0  0  0
   -0.2841    1.9274    0.0000 C   0  0  0  0  0  0  0  0  0  0  0  0
    2.5846   -0.5375    0.0000 C   0  0  0  0  0  0  0  0  0  0  0  0
   -1.7048    0.2808    0.0000 C   0  0  0  0  0  0  0  0  0  0  0  0
   -0.9996   -0.9517    0.0000 C   0  0  0  0  0  0  0  0  0  0  0  0
    1.1469    2.7490    0.0000 N   0  0  0  0  0  0  0  0  0  0  0  0
   -0.9996    2.3382    0.0000 N   0  0  0  0  0  0  0  0  0  0  0  0
    2.5846   -1.3625    0.0000 C   0  0  0  0  0  0  0  0  0  0  0  0
    3.2932   -0.1198    0.0000 C   0  0  0  0  0  0  0  0  0  0  0  0
   -1.7117   -0.5546    0.0000 C   0  0  0  0  0  0  0  0  0  0  0  0
   -2.4134    0.6916    0.0000 Cl  0  0  0  0  0  0  0  0  0  0  0  0
   -0.9996   -1.7699    0.0000 Cl  0  0  0  0  0  0  0  0  0  0  0  0
   -2.4271   -0.9654    0.0000 O   0  0  0  0  0  0  0  0  0  0  0  0
   -2.4271   -1.7802    0.0000 C   0  0  0  0  0  0  0  0  0  0  0  0
   -3.1324   -2.1943    0.0000 C   0  0  0  0  0  0  0  0  0  0  0  0
   -3.8411   -2.6018    0.0000 C   0  0  0  0  0  0  0  0  0  0  0  0
  1  2  1  0  0  0  0
  1  3  2  0  0  0  0
  1  4  1  0  0  0  0
  2  5  1  0  0  0  0
  2  6  1  0  0  0  0
  3  7  1  0  0  0  0
  3  8  1  0  0  0  0
  4  9  1  0  0  0  0
  4 10  2  0  0  0  0
  5 11  2  0  0  0  0
  5 12  1  0  0  0  0
  6 13  2  0  0  0  0
  6 14  1  0  0  0  0
  7 13  1  0  0  0  0
  8 15  1  0  0  0  0
  9 15  1  0  0  0  0
 11 16  1  0  0  0  0
 12 17  2  0  0  0  0
 13 18  1  0  0  0  0
 14 19  3  0  0  0  0
 15 20  1  0  0  0  0
 15 21  1  0  0  0  0
 16 22  2  0  0  0  0
 16 23  1  0  0  0  0
 17 24  1  0  0  0  0
 17 22  1  0  0  0  0
 22 25  1  0  0  0  0
 25 26  1  0  0  0  0
 26 27  1  0  0  0  0
 27 28  3  0  0  0  0
M  END
>  <CdId>
391

>  <Mol Weight>
417.285

>  <Formula>
C21H18Cl2N2O3

>  <Click_ID>
CLK005H02 __  __  __

$$$$
CLK006E10 __  __  __
 OpenBabel03171413522D

 23 24  0  0  0  0  0  0  0  0999 V2000
   -1.3361   -1.4718    0.0000 N   0  0  0  0  0  0  0  0  0  0  0  0
   -0.6681   -0.9882    0.0000 C   0  0  0  0  0  0  0  0  0  0  0  0
   -1.0856   -2.2651    0.0000 C   0  0  0  0  0  0  0  0  0  0  0  0
   -2.1294   -1.2178    0.0000 C   0  0  0  0  0  0  0  0  0  0  0  0
    0.0034   -1.4718    0.0000 C   0  0  0  0  0  0  0  0  0  0  0  0
   -0.6681   -0.1531    0.0000 O   0  0  0  0  0  0  0  0  0  0  0  0
   -0.2540   -2.2651    0.0000 N   0  0  0  0  0  0  0  0  0  0  0  0
   -1.5727   -2.9402    0.0000 O   0  0  0  0  0  0  0  0  0  0  0  0
   -2.3035   -0.4071    0.0000 C   0  0  0  0  0  0  0  0  0  0  0  0
    0.7968   -1.2178    0.0000 C   0  0  0  0  0  0  0  0  0  0  0  0
   -1.6875    0.1496    0.0000 O   0  0  0  0  0  0  0  0  0  0  0  0
   -3.1002   -0.1461    0.0000 O   0  0  0  0  0  0  0  0  0  0  0  0
    0.9742   -0.4175    0.0000 C   0  0  0  0  0  0  0  0  0  0  0  0
   -1.8615    0.9638    0.0000 C   0  0  0  0  0  0  0  0  0  0  0  0
    1.7536   -0.1670    0.0000 C   0  0  0  0  0  0  0  0  0  0  0  0
    0.3654    0.1427    0.0000 C   0  0  0  0  0  0  0  0  0  0  0  0
    1.9415    0.6472    0.0000 C   0  0  0  0  0  0  0  0  0  0  0  0
    0.5463    0.9430    0.0000 C   0  0  0  0  0  0  0  0  0  0  0  0
    1.3291    1.1865    0.0000 C   0  0  0  0  0  0  0  0  0  0  0  0
    1.5136    1.9833    0.0000 O   0  0  0  0  0  0  0  0  0  0  0  0
    2.2999    2.2338    0.0000 C   0  0  0  0  0  0  0  0  0  0  0  0
    2.4844    3.0376    0.0000 C   0  0  0  0  0  0  0  0  0  0  0  0
    2.6653    3.8344    0.0000 C   0  0  0  0  0  0  0  0  0  0  0  0
  1  2  1  0  0  0  0
  1  3  1  0  0  0  0
  1  4  1  0  0  0  0
  2  5  1  0  0  0  0
  2  6  2  0  0  0  0
  3  7  1  0  0  0  0
  3  8  2  0  0  0  0
  4  9  1  0  0  0  0
  5 10  2  0  0  0  0
  5  7  1  0  0  0  0
  9 11  1  0  0  0  0
  9 12  2  0  0  0  0
 10 13  1  0  0  0  0
 11 14  1  0  0  0  0
 13 15  1  0  0  0  0
 13 16  2  0  0  0  0
 15 17  2  0  0  0  0
 16 18  1  0  0  0  0
 17 19  1  0  0  0  0
 18 19  2  0  0  0  0
 19 20  1  0  0  0  0
 20 21  1  0  0  0  0
 21 22  1  0  0  0  0
 22 23  3  0  0  0  0
M  END
>  <CdId>
449

>  <Mol Weight>
314.2928

>  <Formula>
C16H14N2O5

>  <Click_ID>
CLK006E10 __  __  __

$$$$
CLK006G02 __  __  __
 OpenBabel03171413522D

 32 35  0  0  0  0  0  0  0  0999 V2000
   -0.2176   -1.1986    0.0000 C   0  0  0  0  0  0  0  0  0  0  0  0
   -0.3558   -0.4110    0.0000 C   0  0  0  0  0  0  0  0  0  0  0  0
   -0.9325   -1.5750    0.0000 N   0  0  0  0  0  0  0  0  0  0  0  0
    0.5319   -1.5888    0.0000 N   0  0  0  0  0  0  0  0  0  0  0  0
    0.1312    0.0760    0.0000 C   0  0  3  0  0  0  0  0  0  0  0  0
   -1.1536   -0.2971    0.0000 C   0  0  0  0  0  0  0  0  0  0  0  0
   -1.0534   -2.3901    0.0000 C   0  0  0  0  0  0  0  0  0  0  0  0
   -1.5024   -1.0258    0.0000 N   0  0  0  0  0  0  0  0  0  0  0  0
    1.3090   -1.2261    0.0000 C   0  0  0  0  0  0  0  0  0  0  0  0
    0.1312    0.9049    0.0000 C   0  0  0  0  0  0  0  0  0  0  0  0
    0.9602    0.0898    0.0000 S   0  0  0  0  0  0  0  0  0  0  0  0
   -1.8720    0.1140    0.0000 C   0  0  0  0  0  0  0  0  0  0  0  0
   -1.8202   -2.6941    0.0000 C   0  0  0  0  0  0  0  0  0  0  0  0
   -0.4041   -2.8944    0.0000 C   0  0  0  0  0  0  0  0  0  0  0  0
    1.4507   -0.4248    0.0000 C   0  0  3  0  0  0  0  0  0  0  0  0
    1.9618   -1.7269    0.0000 O   0  0  0  0  0  0  0  0  0  0  0  0
    0.8462    1.3298    0.0000 C   0  0  0  0  0  0  0  0  0  0  0  0
   -0.5907    1.3159    0.0000 C   0  0  0  0  0  0  0  0  0  0  0  0
   -1.9411   -3.5091    0.0000 C   0  0  0  0  0  0  0  0  0  0  0  0
   -0.5180   -3.7163    0.0000 C   0  0  0  0  0  0  0  0  0  0  0  0
    2.2415   -0.1900    0.0000 C   0  0  0  0  0  0  0  0  0  0  0  0
    0.8393    2.1552    0.0000 C   0  0  0  0  0  0  0  0  0  0  0  0
   -0.5941    2.1449    0.0000 C   0  0  0  0  0  0  0  0  0  0  0  0
   -1.2918   -4.0203    0.0000 C   0  0  0  0  0  0  0  0  0  0  0  0
   -2.7044   -3.8165    0.0000 C   0  0  0  0  0  0  0  0  0  0  0  0
    0.1209    2.5559    0.0000 C   0  0  0  0  0  0  0  0  0  0  0  0
    1.5508    2.5697    0.0000 O   0  0  0  0  0  0  0  0  0  0  0  0
    0.1209    3.3814    0.0000 O   0  0  0  0  0  0  0  0  0  0  0  0
    2.2727    2.1552    0.0000 C   0  0  0  0  0  0  0  0  0  0  0  0
    0.8324    3.8096    0.0000 C   0  0  0  0  0  0  0  0  0  0  0  0
    0.8220    4.6351    0.0000 C   0  0  0  0  0  0  0  0  0  0  0  0
    0.8220    5.4606    0.0000 C   0  0  0  0  0  0  0  0  0  0  0  0
  1  2  2  0  0  0  0
  1  3  1  0  0  0  0
  1  4  1  0  0  0  0
  2  5  1  0  0  0  0
  2  6  1  0  0  0  0
  3  7  1  0  0  0  0
  3  8  1  0  0  0  0
  4  9  1  0  0  0  0
  5 10  1  0  0  0  0
  5 11  1  0  0  0  0
  6 12  1  0  0  0  0
  6  8  2  0  0  0  0
  7 13  2  0  0  0  0
  7 14  1  0  0  0  0
  9 15  1  0  0  0  0
  9 16  2  0  0  0  0
 10 17  2  0  0  0  0
 10 18  1  0  0  0  0
 11 15  1  0  0  0  0
 13 19  1  0  0  0  0
 14 20  2  0  0  0  0
 15 21  1  0  0  0  0
 17 22  1  0  0  0  0
 18 23  2  0  0  0  0
 19 24  2  0  0  0  0
 19 25  1  0  0  0  0
 20 24  1  0  0  0  0
 22 26  2  0  0  0  0
 22 27  1  0  0  0  0
 23 26  1  0  0  0  0
 26 28  1  0  0  0  0
 27 29  1  0  0  0  0
 28 30  1  0  0  0  0
 30 31  1  0  0  0  0
 31 32  3  0  0  0  0
M  END
>  <CdId>
461

>  <Mol Weight>
447.549

>  <Formula>
C25H25N3O3S

>  <Click_ID>
CLK006G02 __  __  __

$$$$
CLK007A08 __  __  __
 OpenBabel03171413522D

 24 26  0  0  0  0  0  0  0  0999 V2000
    0.8319   -0.1381    0.0000 C   0  0  3  0  0  0  0  0  0  0  0  0
    0.1208   -0.5523    0.0000 C   0  0  0  0  0  0  0  0  0  0  0  0
    0.8319    0.6869    0.0000 C   0  0  0  0  0  0  0  0  0  0  0  0
    1.5465   -0.5420    0.0000 C   0  0  0  0  0  0  0  0  0  0  0  0
    0.1208   -1.3705    0.0000 C   0  0  0  0  0  0  0  0  0  0  0  0
   -0.5937   -0.1311    0.0000 C   0  0  0  0  0  0  0  0  0  0  0  0
    1.5465    1.0943    0.0000 C   0  0  0  0  0  0  0  0  0  0  0  0
    0.1208    1.0943    0.0000 C   0  0  0  0  0  0  0  0  0  0  0  0
    1.5465   -1.3705    0.0000 C   0  0  0  0  0  0  0  0  0  0  0  0
   -0.5937   -1.7812    0.0000 N   0  0  0  0  0  0  0  0  0  0  0  0
    0.8319   -1.7812    0.0000 N   0  0  0  0  0  0  0  0  0  0  0  0
   -1.2980   -0.5523    0.0000 N   0  0  0  0  0  0  0  0  0  0  0  0
   -0.5937    0.6939    0.0000 O   0  0  0  0  0  0  0  0  0  0  0  0
    1.5465    1.9228    0.0000 C   0  0  0  0  0  0  0  0  0  0  0  0
    0.1070    1.9124    0.0000 C   0  0  0  0  0  0  0  0  0  0  0  0
    2.2577   -1.7812    0.0000 O   0  0  0  0  0  0  0  0  0  0  0  0
   -1.2980   -1.3774    0.0000 C   0  0  0  0  0  0  0  0  0  0  0  0
    0.8285    2.3335    0.0000 C   0  0  0  0  0  0  0  0  0  0  0  0
    2.2577    2.3370    0.0000 Cl  0  0  0  0  0  0  0  0  0  0  0  0
   -2.0194   -1.7917    0.0000 S   0  0  0  0  0  0  0  0  0  0  0  0
    0.8216    3.1620    0.0000 Cl  0  0  0  0  0  0  0  0  0  0  0  0
   -2.7340   -1.3774    0.0000 C   0  0  0  0  0  0  0  0  0  0  0  0
   -2.7340   -0.5523    0.0000 C   0  0  0  0  0  0  0  0  0  0  0  0
   -3.4486   -0.1381    0.0000 C   0  0  0  0  0  0  0  0  0  0  0  0
  1  2  1  0  0  0  0
  1  3  1  0  0  0  0
  1  4  1  0  0  0  0
  2  5  2  0  0  0  0
  2  6  1  0  0  0  0
  3  7  2  0  0  0  0
  3  8  1  0  0  0  0
  4  9  1  0  0  0  0
  5 10  1  0  0  0  0
  5 11  1  0  0  0  0
  6 12  1  0  0  0  0
  6 13  2  0  0  0  0
  7 14  1  0  0  0  0
  8 15  2  0  0  0  0
  9 16  2  0  0  0  0
  9 11  1  0  0  0  0
 10 17  2  0  0  0  0
 12 17  1  0  0  0  0
 14 18  2  0  0  0  0
 14 19  1  0  0  0  0
 15 18  1  0  0  0  0
 17 20  1  0  0  0  0
 18 21  1  0  0  0  0
 20 22  1  0  0  0  0
 22 23  1  0  0  0  0
 23 24  3  0  0  0  0
M  END
>  <CdId>
487

>  <Mol Weight>
380.248

>  <Formula>
C16H11Cl2N3O2S

>  <Click_ID>
CLK007A08 __  __  __

$$$$
CLK007C04 __  __  __
 OpenBabel03171413522D

 26 28  0  0  0  0  0  0  0  0999 V2000
    0.7940   -0.4384    0.0000 C   0  0  3  0  0  0  0  0  0  0  0  0
    0.0794   -0.8492    0.0000 C   0  0  0  0  0  0  0  0  0  0  0  0
    0.7940    0.3866    0.0000 C   0  0  0  0  0  0  0  0  0  0  0  0
    1.5085   -0.8423    0.0000 C   0  0  0  0  0  0  0  0  0  0  0  0
    0.0794   -1.6673    0.0000 C   0  0  0  0  0  0  0  0  0  0  0  0
   -0.6317   -0.4281    0.0000 C   0  0  0  0  0  0  0  0  0  0  0  0
    1.5085    0.8009    0.0000 C   0  0  0  0  0  0  0  0  0  0  0  0
    0.0794    0.7975    0.0000 C   0  0  0  0  0  0  0  0  0  0  0  0
    1.5085   -1.6673    0.0000 C   0  0  0  0  0  0  0  0  0  0  0  0
   -0.6317   -2.0816    0.0000 N   0  0  0  0  0  0  0  0  0  0  0  0
    0.7940   -2.0816    0.0000 N   0  0  0  0  0  0  0  0  0  0  0  0
   -1.3360   -0.8492    0.0000 N   0  0  0  0  0  0  0  0  0  0  0  0
   -0.6317    0.3970    0.0000 O   0  0  0  0  0  0  0  0  0  0  0  0
    1.5016    1.6259    0.0000 C   0  0  0  0  0  0  0  0  0  0  0  0
    0.0691    1.6156    0.0000 C   0  0  0  0  0  0  0  0  0  0  0  0
    2.2196   -2.0816    0.0000 O   0  0  0  0  0  0  0  0  0  0  0  0
   -1.3360   -1.6777    0.0000 C   0  0  0  0  0  0  0  0  0  0  0  0
    0.7906    2.0367    0.0000 C   0  0  0  0  0  0  0  0  0  0  0  0
   -2.0574   -2.0885    0.0000 S   0  0  0  0  0  0  0  0  0  0  0  0
    0.7802    2.8617    0.0000 C   0  0  0  0  0  0  0  0  0  0  0  0
   -2.7720   -1.6777    0.0000 C   0  0  0  0  0  0  0  0  0  0  0  0
    1.5016    3.2760    0.0000 F   0  0  0  0  0  0  0  0  0  0  0  0
    0.0691    3.2760    0.0000 F   0  0  0  0  0  0  0  0  0  0  0  0
    1.5810    2.6477    0.0000 F   0  0  0  0  0  0  0  0  0  0  0  0
   -2.7720   -0.8492    0.0000 C   0  0  0  0  0  0  0  0  0  0  0  0
   -3.4866   -0.4384    0.0000 C   0  0  0  0  0  0  0  0  0  0  0  0
  1  2  1  0  0  0  0
  1  3  1  0  0  0  0
  1  4  1  0  0  0  0
  2  5  2  0  0  0  0
  2  6  1  0  0  0  0
  3  7  2  0  0  0  0
  3  8  1  0  0  0  0
  4  9  1  0  0  0  0
  5 10  1  0  0  0  0
  5 11  1  0  0  0  0
  6 12  1  0  0  0  0
  6 13  2  0  0  0  0
  7 14  1  0  0  0  0
  8 15  2  0  0  0  0
  9 16  2  0  0  0  0
  9 11  1  0  0  0  0
 10 17  2  0  0  0  0
 12 17  1  0  0  0  0
 14 18  2  0  0  0  0
 15 18  1  0  0  0  0
 17 19  1  0  0  0  0
 18 20  1  0  0  0  0
 19 21  1  0  0  0  0
 20 22  1  0  0  0  0
 20 23  1  0  0  0  0
 20 24  1  0  0  0  0
 21 25  1  0  0  0  0
 25 26  3  0  0  0  0
M  END
>  <CdId>
503

>  <Mol Weight>
379.356

>  <Formula>
C17H12F3N3O2S

>  <Click_ID>
CLK007C04 __  __  __

$$$$
CLK007E10 __  __  __
 OpenBabel03171413522D

 26 28  0  0  0  0  0  0  0  0999 V2000
    0.0034   -0.9562    0.0000 C   0  0  0  0  0  0  0  0  0  0  0  0
    0.7145   -0.5420    0.0000 C   0  0  3  0  0  0  0  0  0  0  0  0
    0.0034   -1.7708    0.0000 C   0  0  0  0  0  0  0  0  0  0  0  0
   -0.7110   -0.5350    0.0000 C   0  0  0  0  0  0  0  0  0  0  0  0
    0.7145    0.2831    0.0000 C   0  0  0  0  0  0  0  0  0  0  0  0
    1.4291   -0.9458    0.0000 C   0  0  0  0  0  0  0  0  0  0  0  0
   -0.7110   -2.1850    0.0000 N   0  0  0  0  0  0  0  0  0  0  0  0
    0.7145   -2.1850    0.0000 N   0  0  0  0  0  0  0  0  0  0  0  0
   -1.4153   -0.9562    0.0000 N   0  0  0  0  0  0  0  0  0  0  0  0
   -0.7110    0.2934    0.0000 O   0  0  0  0  0  0  0  0  0  0  0  0
    1.4291    0.6973    0.0000 C   0  0  0  0  0  0  0  0  0  0  0  0
    0.0034    0.6938    0.0000 C   0  0  0  0  0  0  0  0  0  0  0  0
    1.4291   -1.7708    0.0000 C   0  0  0  0  0  0  0  0  0  0  0  0
   -1.4153   -1.7811    0.0000 C   0  0  0  0  0  0  0  0  0  0  0  0
    1.4256    1.5223    0.0000 C   0  0  0  0  0  0  0  0  0  0  0  0
   -0.0103    1.5119    0.0000 C   0  0  0  0  0  0  0  0  0  0  0  0
    2.1401   -2.1850    0.0000 O   0  0  0  0  0  0  0  0  0  0  0  0
   -2.1367   -2.1919    0.0000 S   0  0  0  0  0  0  0  0  0  0  0  0
    0.7110    1.9330    0.0000 C   0  0  0  0  0  0  0  0  0  0  0  0
   -2.8512   -1.7811    0.0000 C   0  0  0  0  0  0  0  0  0  0  0  0
    0.7041    2.7580    0.0000 O   0  0  0  0  0  0  0  0  0  0  0  0
   -2.8512   -0.9562    0.0000 C   0  0  0  0  0  0  0  0  0  0  0  0
    1.4256    3.1688    0.0000 C   0  0  0  0  0  0  0  0  0  0  0  0
   -3.5658   -0.5420    0.0000 C   0  0  0  0  0  0  0  0  0  0  0  0
    1.4153    4.0007    0.0000 C   0  0  0  0  0  0  0  0  0  0  0  0
    2.1298    4.4217    0.0000 C   0  0  0  0  0  0  0  0  0  0  0  0
  1  2  1  0  0  0  0
  1  3  2  0  0  0  0
  1  4  1  0  0  0  0
  2  5  1  0  0  0  0
  2  6  1  0  0  0  0
  3  7  1  0  0  0  0
  3  8  1  0  0  0  0
  4  9  1  0  0  0  0
  4 10  2  0  0  0  0
  5 11  2  0  0  0  0
  5 12  1  0  0  0  0
  6 13  1  0  0  0  0
  7 14  2  0  0  0  0
  8 13  1  0  0  0  0
  9 14  1  0  0  0  0
 11 15  1  0  0  0  0
 12 16  2  0  0  0  0
 13 17  2  0  0  0  0
 14 18  1  0  0  0  0
 15 19  2  0  0  0  0
 16 19  1  0  0  0  0
 18 20  1  0  0  0  0
 19 21  1  0  0  0  0
 20 22  1  0  0  0  0
 21 23  1  0  0  0  0
 22 24  3  0  0  0  0
 23 25  1  0  0  0  0
 25 26  2  0  0  0  0
M  END
>  <CdId>
529

>  <Mol Weight>
367.422

>  <Formula>
C19H17N3O3S

>  <Click_ID>
CLK007E10 __  __  __

$$$$
CLK008C05 __  __  __
 OpenBabel03171413522D

 24 26  0  0  0  0  0  0  0  0999 V2000
   -1.8120   -0.5484    0.0000 C   0  0  0  0  0  0  0  0  0  0  0  0
   -1.4040    0.1711    0.0000 C   0  0  0  0  0  0  0  0  0  0  0  0
   -1.4040   -1.2505    0.0000 C   0  0  0  0  0  0  0  0  0  0  0  0
   -2.6545   -0.5484    0.0000 C   0  0  0  0  0  0  0  0  0  0  0  0
   -0.5923    0.1711    0.0000 C   0  0  0  0  0  0  0  0  0  0  0  0
   -1.8428    0.9126    0.0000 C   0  0  0  0  0  0  0  0  0  0  0  0
   -0.5923   -1.2505    0.0000 C   0  0  0  0  0  0  0  0  0  0  0  0
   -1.8120   -1.9656    0.0000 C   0  0  0  0  0  0  0  0  0  0  0  0
   -3.0581    0.1711    0.0000 C   0  0  0  0  0  0  0  0  0  0  0  0
   -3.0581   -1.2505    0.0000 C   0  0  0  0  0  0  0  0  0  0  0  0
   -0.1887   -0.5484    0.0000 N   0  0  0  0  0  0  0  0  0  0  0  0
   -0.1579    0.9126    0.0000 O   0  0  0  0  0  0  0  0  0  0  0  0
   -2.6545    0.9126    0.0000 C   0  0  0  0  0  0  0  0  0  0  0  0
   -0.1579   -1.9919    0.0000 O   0  0  0  0  0  0  0  0  0  0  0  0
   -2.6281   -1.9656    0.0000 C   0  0  0  0  0  0  0  0  0  0  0  0
    0.6538   -0.5484    0.0000 C   0  0  0  0  0  0  0  0  0  0  0  0
    1.0618    0.1711    0.0000 C   0  0  0  0  0  0  0  0  0  0  0  0
    1.9043    0.1711    0.0000 C   0  0  0  0  0  0  0  0  0  0  0  0
    2.3079    0.9126    0.0000 C   0  0  0  0  0  0  0  0  0  0  0  0
    3.1195    0.9126    0.0000 O   0  0  0  0  0  0  0  0  0  0  0  0
    1.8779    1.6147    0.0000 O   0  0  0  0  0  0  0  0  0  0  0  0
    3.5320    1.6147    0.0000 C   0  0  0  0  0  0  0  0  0  0  0  0
    4.3437    1.6147    0.0000 C   0  0  0  0  0  0  0  0  0  0  0  0
    5.1861    1.6147    0.0000 C   0  0  0  0  0  0  0  0  0  0  0  0
  1  2  1  0  0  0  0
  1  3  1  0  0  0  0
  1  4  2  0  0  0  0
  2  5  1  0  0  0  0
  2  6  2  0  0  0  0
  3  7  1  0  0  0  0
  3  8  2  0  0  0  0
  4  9  1  0  0  0  0
  4 10  1  0  0  0  0
  5 11  1  0  0  0  0
  5 12  2  0  0  0  0
  6 13  1  0  0  0  0
  7 14  2  0  0  0  0
  7 11  1  0  0  0  0
  8 15  1  0  0  0  0
  9 13  2  0  0  0  0
 10 15  2  0  0  0  0
 11 16  1  0  0  0  0
 16 17  1  0  0  0  0
 17 18  1  0  0  0  0
 18 19  1  0  0  0  0
 19 20  1  0  0  0  0
 19 21  2  0  0  0  0
 20 22  1  0  0  0  0
 22 23  1  0  0  0  0
 23 24  3  0  0  0  0
M  END
>  <CdId>
574

>  <Mol Weight>
321.3267

>  <Formula>
C19H15NO4

>  <Click_ID>
CLK008C05 __  __  __

$$$$
CLK009A05 __  __  __
 OpenBabel03171413522D

 22 22  0  0  0  0  0  0  0  0999 V2000
   -3.5470    1.2026    0.0000 C   0  0  0  0  0  0  0  0  0  0  0  0
    3.5964   -1.2899    0.0000 C   0  0  0  0  0  0  0  0  0  0  0  0
    4.3247   -1.7110    0.0000 C   0  0  0  0  0  0  0  0  0  0  0  0
   -3.5470    0.3831    0.0000 C   0  0  0  0  0  0  0  0  0  0  0  0
   -1.3771   -0.8688    0.0000 C   0  0  0  0  0  0  0  0  0  0  0  0
   -2.1055   -1.2899    0.0000 N   0  0  0  0  0  0  0  0  0  0  0  0
    1.4606   -0.8688    0.0000 C   0  0  0  0  0  0  0  0  0  0  0  0
   -2.8338   -0.0266    0.0000 C   0  0  0  0  0  0  0  0  0  0  0  0
   -2.8338   -0.8688    0.0000 C   0  0  0  0  0  0  0  0  0  0  0  0
   -4.2526    1.6236    0.0000 O   0  0  0  0  0  0  0  0  0  0  0  0
   -1.3771   -0.0266    0.0000 O   0  0  0  0  0  0  0  0  0  0  0  0
    1.4606   -0.0266    0.0000 O   0  0  0  0  0  0  0  0  0  0  0  0
   -2.8338    1.6236    0.0000 O   0  0  0  0  0  0  0  0  0  0  0  0
    2.1662   -1.2899    0.0000 O   0  0  0  0  0  0  0  0  0  0  0  0
    2.8832   -0.8688    0.0000 C   0  0  0  0  0  0  0  0  0  0  0  0
   -0.6676   -1.2899    0.0000 C   0  0  0  0  0  0  0  0  0  0  0  0
    0.7550   -1.2899    0.0000 C   0  0  0  0  0  0  0  0  0  0  0  0
    0.0455   -0.8688    0.0000 C   0  0  0  0  0  0  0  0  0  0  0  0
   -4.2526   -0.0266    0.0000 C   0  0  0  0  0  0  0  0  0  0  0  0
   -4.2526   -0.8688    0.0000 C   0  0  0  0  0  0  0  0  0  0  0  0
   -3.5470   -1.2747    0.0000 C   0  0  0  0  0  0  0  0  0  0  0  0
   -2.1244    1.2026    0.0000 C   0  0  0  0  0  0  0  0  0  0  0  0
  2 15  1  0  0  0  0
  3  2  3  0  0  0  0
  4  1  1  0  0  0  0
  5  6  1  0  0  0  0
  6  9  1  0  0  0  0
  7 17  1  0  0  0  0
  8  4  1  0  0  0  0
  9  8  2  0  0  0  0
  9 21  1  0  0  0  0
 10  1  2  0  0  0  0
 11  5  2  0  0  0  0
 12  7  2  0  0  0  0
 13  1  1  0  0  0  0
 14  7  1  0  0  0  0
 15 14  1  0  0  0  0
 16  5  1  0  0  0  0
 17 18  1  0  0  0  0
 18 16  1  0  0  0  0
 19  4  2  0  0  0  0
 20 19  1  0  0  0  0
 21 20  2  0  0  0  0
 22 13  1  0  0  0  0
M  END
>  <CdId>
600

>  <Mol Weight>
303.3099

>  <Formula>
C16H17NO5

>  <Click_ID>
CLK009A05 __  __  __

$$$$
CLK009B08 __  __  __
 OpenBabel03171413522D

 15 13  0  0  0  0  0  0  0  0999 V2000
    1.1603    1.2489    0.0000 Cl  0  0  0  0  0  0  0  0  0  0  0  0
    2.1624    0.1118    0.0000 C   0  0  0  0  0  0  0  0  0  0  0  0
    2.8678    0.5396    0.0000 C   0  0  0  0  0  0  0  0  0  0  0  0
   -1.4300    0.5049    0.0000 C   0  0  0  0  0  0  0  0  0  0  0  0
   -0.7054    0.9251    0.0000 C   0  0  0  0  0  0  0  0  0  0  0  0
    1.4378   -0.3122    0.0000 C   0  0  0  0  0  0  0  0  0  0  0  0
   -0.7054    1.7422    0.0000 O   0  0  0  0  0  0  0  0  0  0  0  0
   -1.4300   -0.3122    0.0000 C   0  0  0  0  0  0  0  0  0  0  0  0
    0.7401   -0.7208    0.0000 N   0  0  0  0  0  0  0  0  0  0  0  0
    0.0154    0.5204    0.0000 C   0  0  0  0  0  0  0  0  0  0  0  0
    0.0154   -0.3122    0.0000 C   0  0  0  0  0  0  0  0  0  0  0  0
   -2.1277    0.9096    0.0000 C   0  0  0  0  0  0  0  0  0  0  0  0
    1.0331    0.4124    0.0000 C   0  0  0  0  0  0  0  0  0  0  0  0
    1.8656   -1.0176    0.0000 C   0  0  0  0  0  0  0  0  0  0  0  0
   -2.1277   -0.7208    0.0000 C   0  0  0  0  0  0  0  0  0  0  0  0
  3  2  3  0  0  0  0
  4  5  1  0  0  0  0
  5 10  1  0  0  0  0
  6  2  1  0  0  0  0
  7  5  2  0  0  0  0
  8  4  2  0  0  0  0
  9  6  1  0  0  0  0
 10 11  1  0  0  0  0
 11  9  1  0  0  0  0
 12  4  1  0  0  0  0
 13  6  1  0  0  0  0
 14  6  1  0  0  0  0
 15  8  1  0  0  0  0
M  END
>  <CdId>
613

>  <Mol Weight>
229.746

>  <Formula>
C12H20ClNO

>  <Click_ID>
CLK009B08 __  __  __

$$$$
CLK009D05 __  __  __
 OpenBabel03171413522D

 26 27  0  0  0  0  0  0  0  0999 V2000
   -1.6648    3.4709    0.0000 C   0  0  0  0  0  0  0  0  0  0  0  0
   -1.2709    2.7574    0.0000 C   0  0  0  0  0  0  0  0  0  0  0  0
   -0.4162    2.7574    0.0000 C   0  0  0  0  0  0  0  0  0  0  0  0
    0.0075    3.4709    0.0000 C   0  0  0  0  0  0  0  0  0  0  0  0
   -2.5196    3.4709    0.0000 N   0  0  0  0  0  0  0  0  0  0  0  0
   -4.1919    0.6168    0.0000 C   0  0  0  0  0  0  0  0  0  0  0  0
    2.0811    2.7574    0.0000 C   0  0  0  0  0  0  0  0  0  0  0  0
    2.9432    2.7574    0.0000 C   0  0  0  0  0  0  0  0  0  0  0  0
   -3.7682    1.3303    0.0000 C   0  0  0  0  0  0  0  0  0  0  0  0
   -1.2412    4.1844    0.0000 O   0  0  0  0  0  0  0  0  0  0  0  0
   -0.3791    4.1844    0.0000 O   0  0  0  0  0  0  0  0  0  0  0  0
   -3.8053   -0.0967    0.0000 O   0  0  0  0  0  0  0  0  0  0  0  0
   -2.9135    2.7574    0.0000 C   0  0  0  0  0  0  0  0  0  0  0  0
   -4.1621    2.0439    0.0000 C   0  0  0  0  0  0  0  0  0  0  0  0
   -2.9135    1.3303    0.0000 C   0  0  0  0  0  0  0  0  0  0  0  0
    0.8325    3.4709    0.0000 O   0  0  0  0  0  0  0  0  0  0  0  0
   -5.0169    0.6466    0.0000 O   0  0  0  0  0  0  0  0  0  0  0  0
   -2.5196    2.0439    0.0000 C   0  0  0  0  0  0  0  0  0  0  0  0
   -3.7682    2.7574    0.0000 C   0  0  0  0  0  0  0  0  0  0  0  0
    1.2561    2.7574    0.0000 C   0  0  0  0  0  0  0  0  0  0  0  0
   -1.6648    2.0439    0.0000 C   0  0  0  0  0  0  0  0  0  0  0  0
   -0.0223    2.0439    0.0000 C   0  0  0  0  0  0  0  0  0  0  0  0
   -5.4108   -0.0967    0.0000 C   0  0  0  0  0  0  0  0  0  0  0  0
   -1.2709    1.3303    0.0000 C   0  0  0  0  0  0  0  0  0  0  0  0
   -0.4162    1.3303    0.0000 C   0  0  0  0  0  0  0  0  0  0  0  0
   -6.2655   -0.0967    0.0000 C   0  0  0  0  0  0  0  0  0  0  0  0
  2  1  1  0  0  0  0
  3  2  1  0  0  0  0
  4  3  1  0  0  0  0
  5  1  1  0  0  0  0
  6  9  1  0  0  0  0
  7 20  1  0  0  0  0
  8  7  3  0  0  0  0
  9 14  1  0  0  0  0
  9 15  2  0  0  0  0
 10  1  2  0  0  0  0
 11  4  2  0  0  0  0
 12  6  2  0  0  0  0
 13  5  1  0  0  0  0
 14 19  2  0  0  0  0
 15 18  1  0  0  0  0
 16  4  1  0  0  0  0
 17  6  1  0  0  0  0
 18 13  2  0  0  0  0
 19 13  1  0  0  0  0
 20 16  1  0  0  0  0
 21  2  2  0  0  0  0
 22  3  2  0  0  0  0
 22 25  1  0  0  0  0
 23 17  1  0  0  0  0
 24 21  1  0  0  0  0
 25 24  2  0  0  0  0
 26 23  1  0  0  0  0
M  END
>  <CdId>
630

>  <Mol Weight>
351.3527

>  <Formula>
C20H17NO5

>  <Click_ID>
CLK009D05 __  __  __

$$$$
CLK010A11 __  __  __
 OpenBabel03171413522D

 29 32  0  0  0  0  0  0  0  0999 V2000
    2.4927   -0.6764    0.0000 N   0  0  0  0  0  0  0  0  0  0  0  0
    3.1983   -1.9081    0.0000 C   0  0  0  0  0  0  0  0  0  0  0  0
    3.1983   -0.2547    0.0000 C   0  0  0  0  0  0  0  0  0  0  0  0
    2.4927   -1.5031    0.0000 C   0  0  0  0  0  0  0  0  0  0  0  0
    3.9123   -0.6764    0.0000 N   0  0  0  0  0  0  0  0  0  0  0  0
    3.9123   -1.5031    0.0000 C   0  0  0  0  0  0  0  0  0  0  0  0
    3.9206   -3.1482    0.0000 C   0  0  0  0  0  0  0  0  0  0  0  0
    3.1983   -2.7349    0.0000 C   0  0  0  0  0  0  0  0  0  0  0  0
    5.2275   -3.4238    0.0000 N   0  0  0  0  0  0  0  0  0  0  0  0
    4.6764   -2.8100    0.0000 C   0  0  0  0  0  0  0  0  0  0  0  0
    4.0083   -3.9707    0.0000 C   0  0  0  0  0  0  0  0  0  0  0  0
    4.8142   -4.1378    0.0000 C   0  0  0  0  0  0  0  0  0  0  0  0
    1.7704   -0.2630    0.0000 C   0  0  0  0  0  0  0  0  0  0  0  0
    3.1983    0.5720    0.0000 S   0  0  0  0  0  0  0  0  0  0  0  0
    6.5302   -4.0125    0.0000 C   0  0  0  0  0  0  0  0  0  0  0  0
    6.9811   -4.7097    0.0000 C   0  0  0  0  0  0  0  0  0  0  0  0
    1.7704   -1.9165    0.0000 O   0  0  0  0  0  0  0  0  0  0  0  0
    4.6346   -1.9165    0.0000 O   0  0  0  0  0  0  0  0  0  0  0  0
    6.0542   -3.3444    0.0000 C   0  0  0  0  0  0  0  0  0  0  0  0
    1.0564   -0.6764    0.0000 C   0  0  0  0  0  0  0  0  0  0  0  0
    1.7704    0.5720    0.0000 C   0  0  0  0  0  0  0  0  0  0  0  0
    0.3424    0.5720    0.0000 C   0  0  0  0  0  0  0  0  0  0  0  0
    0.3424   -0.2630    0.0000 C   0  0  0  0  0  0  0  0  0  0  0  0
    1.0564    0.9770    0.0000 C   0  0  0  0  0  0  0  0  0  0  0  0
   -0.3716    0.9853    0.0000 Br  0  0  0  0  0  0  0  0  0  0  0  0
    5.0647   -4.9269    0.0000 C   0  0  0  0  0  0  0  0  0  0  0  0
    3.4488   -4.5845    0.0000 C   0  0  0  0  0  0  0  0  0  0  0  0
    4.5135   -5.5407    0.0000 C   0  0  0  0  0  0  0  0  0  0  0  0
    3.7077   -5.3653    0.0000 C   0  0  0  0  0  0  0  0  0  0  0  0
  2  4  1  0  0  0  0
  3  1  1  0  0  0  0
  4  1  1  0  0  0  0
  5  3  1  0  0  0  0
  6  2  1  0  0  0  0
  6  5  1  0  0  0  0
  7  8  1  0  0  0  0
  8  2  2  0  0  0  0
  9 10  1  0  0  0  0
 10  7  2  0  0  0  0
 11  7  1  0  0  0  0
 12 11  1  0  0  0  0
 12  9  1  0  0  0  0
 13  1  1  0  0  0  0
 14  3  2  0  0  0  0
 15 19  1  0  0  0  0
 16 15  3  0  0  0  0
 17  4  2  0  0  0  0
 18  6  2  0  0  0  0
 19  9  1  0  0  0  0
 20 13  1  0  0  0  0
 21 13  2  0  0  0  0
 22 24  2  0  0  0  0
 23 20  2  0  0  0  0
 23 22  1  0  0  0  0
 24 21  1  0  0  0  0
 25 22  1  0  0  0  0
 26 12  2  0  0  0  0
 27 11  2  0  0  0  0
 28 29  2  0  0  0  0
 28 26  1  0  0  0  0
 29 27  1  0  0  0  0
M  END
>  <CdId>
686

>  <Mol Weight>
464.334

>  <Formula>
C22H14BrN3O2S

>  <Click_ID>
CLK010A11 __  __  __

$$$$
CLK010D11 __  __  __
 OpenBabel03171413522D

 26 27  0  0  0  0  0  0  0  0999 V2000
    2.8500   -1.9125    0.0000 C   0  0  0  0  0  0  0  0  0  0  0  0
    2.8500   -0.2542    0.0000 C   0  0  0  0  0  0  0  0  0  0  0  0
    3.5667   -0.6750    0.0000 N   0  0  0  0  0  0  0  0  0  0  0  0
    2.1417   -0.6750    0.0000 N   0  0  0  0  0  0  0  0  0  0  0  0
    2.1417   -1.5042    0.0000 C   0  0  0  0  0  0  0  0  0  0  0  0
    3.5667   -1.5042    0.0000 C   0  0  0  0  0  0  0  0  0  0  0  0
    2.8500   -2.7417    0.0000 C   0  0  0  0  0  0  0  0  0  0  0  0
    5.0000   -3.9667    0.0000 C   0  0  0  0  0  0  0  0  0  0  0  0
    4.2792   -4.3750    0.0000 C   0  0  0  0  0  0  0  0  0  0  0  0
    5.0000   -3.1417    0.0000 C   0  0  0  0  0  0  0  0  0  0  0  0
    3.5667   -3.1417    0.0000 C   0  0  0  0  0  0  0  0  0  0  0  0
    2.8500    0.5750    0.0000 S   0  0  0  0  0  0  0  0  0  0  0  0
    6.4167   -5.6250    0.0000 C   0  0  0  0  0  0  0  0  0  0  0  0
    7.1292   -6.0417    0.0000 C   0  0  0  0  0  0  0  0  0  0  0  0
    4.2875   -1.9167    0.0000 O   0  0  0  0  0  0  0  0  0  0  0  0
    1.4167   -1.9167    0.0000 O   0  0  0  0  0  0  0  0  0  0  0  0
    3.5667   -3.9625    0.0000 C   0  0  0  0  0  0  0  0  0  0  0  0
    4.2875   -2.7292    0.0000 C   0  0  0  0  0  0  0  0  0  0  0  0
    4.2792   -0.2625    0.0000 C   0  0  0  0  0  0  0  0  0  0  0  0
    1.4250   -0.2625    0.0000 C   0  0  0  0  0  0  0  0  0  0  0  0
    4.2792   -5.2000    0.0000 I   0  0  0  0  0  0  0  0  0  0  0  0
    5.7042   -4.3792    0.0000 O   0  0  0  0  0  0  0  0  0  0  0  0
    5.7042   -2.7417    0.0000 O   0  0  0  0  0  0  0  0  0  0  0  0
    5.7042   -5.2042    0.0000 C   0  0  0  0  0  0  0  0  0  0  0  0
    5.7042   -1.9167    0.0000 C   0  0  0  0  0  0  0  0  0  0  0  0
    6.4167   -1.5042    0.0000 C   0  0  0  0  0  0  0  0  0  0  0  0
  2  3  1  0  0  0  0
  3  6  1  0  0  0  0
  4  5  1  0  0  0  0
  4  2  1  0  0  0  0
  5  1  1  0  0  0  0
  6  1  1  0  0  0  0
  7  1  2  0  0  0  0
  8 10  2  0  0  0  0
  9 17  2  0  0  0  0
  9  8  1  0  0  0  0
 10 18  1  0  0  0  0
 11  7  1  0  0  0  0
 12  2  2  0  0  0  0
 13 24  1  0  0  0  0
 14 13  3  0  0  0  0
 15  6  2  0  0  0  0
 16  5  2  0  0  0  0
 17 11  1  0  0  0  0
 18 11  2  0  0  0  0
 19  3  1  0  0  0  0
 20  4  1  0  0  0  0
 21  9  1  0  0  0  0
 22  8  1  0  0  0  0
 23 10  1  0  0  0  0
 24 22  1  0  0  0  0
 25 23  1  0  0  0  0
 26 25  1  0  0  0  0
M  END
>  <CdId>
716

>  <Mol Weight>
484.308

>  <Formula>
C18H17IN2O4S

>  <Click_ID>
CLK010D11 __  __  __

$$$$
CLK011A06 __  __  __
 OpenBabel03171413522D

 23 24  0  0  0  0  0  0  0  0999 V2000
    2.8500   -1.9125    0.0000 C   0  0  0  0  0  0  0  0  0  0  0  0
    2.8500   -0.2542    0.0000 C   0  0  0  0  0  0  0  0  0  0  0  0
    3.5667   -0.6750    0.0000 N   0  0  0  0  0  0  0  0  0  0  0  0
    2.1417   -0.6750    0.0000 N   0  0  0  0  0  0  0  0  0  0  0  0
    2.1417   -1.5042    0.0000 C   0  0  0  0  0  0  0  0  0  0  0  0
    3.5667   -1.5042    0.0000 C   0  0  0  0  0  0  0  0  0  0  0  0
    2.8500   -2.7417    0.0000 C   0  0  0  0  0  0  0  0  0  0  0  0
    2.8500    0.5750    0.0000 S   0  0  0  0  0  0  0  0  0  0  0  0
    6.4167   -5.6250    0.0000 C   0  0  0  0  0  0  0  0  0  0  0  0
    7.1292   -6.0417    0.0000 C   0  0  0  0  0  0  0  0  0  0  0  0
    4.2792   -4.3750    0.0000 C   0  0  0  0  0  0  0  0  0  0  0  0
    1.4167   -1.9167    0.0000 O   0  0  0  0  0  0  0  0  0  0  0  0
    4.2875   -1.9167    0.0000 O   0  0  0  0  0  0  0  0  0  0  0  0
    3.5667   -3.1417    0.0000 C   0  0  0  0  0  0  0  0  0  0  0  0
    3.5667   -3.9625    0.0000 C   0  0  0  0  0  0  0  0  0  0  0  0
    5.0000   -3.9667    0.0000 C   0  0  0  0  0  0  0  0  0  0  0  0
    4.2792   -0.2625    0.0000 C   0  0  0  0  0  0  0  0  0  0  0  0
    1.4250   -0.2625    0.0000 C   0  0  0  0  0  0  0  0  0  0  0  0
    5.0000   -3.1417    0.0000 C   0  0  0  0  0  0  0  0  0  0  0  0
    4.2792   -5.2000    0.0000 Br  0  0  0  0  0  0  0  0  0  0  0  0
    4.2792   -2.7292    0.0000 C   0  0  0  0  0  0  0  0  0  0  0  0
    5.7042   -4.3792    0.0000 O   0  0  0  0  0  0  0  0  0  0  0  0
    5.7042   -5.2042    0.0000 C   0  0  0  0  0  0  0  0  0  0  0  0
  2  3  1  0  0  0  0
  3  6  1  0  0  0  0
  4  5  1  0  0  0  0
  4  2  1  0  0  0  0
  5  1  1  0  0  0  0
  6  1  1  0  0  0  0
  7  1  2  0  0  0  0
  8  2  2  0  0  0  0
  9 23  1  0  0  0  0
 10  9  3  0  0  0  0
 11 15  2  0  0  0  0
 11 16  1  0  0  0  0
 12  5  2  0  0  0  0
 13  6  2  0  0  0  0
 14  7  1  0  0  0  0
 15 14  1  0  0  0  0
 16 19  2  0  0  0  0
 17  3  1  0  0  0  0
 18  4  1  0  0  0  0
 19 21  1  0  0  0  0
 20 11  1  0  0  0  0
 21 14  2  0  0  0  0
 22 16  1  0  0  0  0
 23 22  1  0  0  0  0
M  END
>  <CdId>
761

>  <Mol Weight>
393.255

>  <Formula>
C16H13BrN2O3S

>  <Click_ID>
CLK011A06 __  __  __

$$$$
CLK011A10 __  __  __
 OpenBabel03171413522D

 13 13  0  0  0  0  0  0  0  0999 V2000
    2.2451    4.6202    0.0000 C   0  0  0  0  0  0  0  0  0  0  0  0
    2.2577    5.4427    0.0000 C   0  0  0  0  0  0  0  0  0  0  0  0
    2.2325    2.1485    0.0000 C   0  0  0  0  0  0  0  0  0  0  0  0
    1.5149    2.5556    0.0000 C   0  0  0  0  0  0  0  0  0  0  0  0
    2.2325    1.3176    0.0000 C   0  0  0  0  0  0  0  0  0  0  0  0
    0.8099    2.1485    0.0000 C   0  0  0  0  0  0  0  0  0  0  0  0
    0.8099   -0.3399    0.0000 O   0  0  0  0  0  0  0  0  0  0  0  0
    1.5275    0.9064    0.0000 C   0  0  0  0  0  0  0  0  0  0  0  0
    2.9458    2.5556    0.0000 Br  0  0  0  0  0  0  0  0  0  0  0  0
    1.5275    0.0755    0.0000 C   0  0  0  0  0  0  0  0  0  0  0  0
    0.8099    1.3176    0.0000 C   0  0  0  0  0  0  0  0  0  0  0  0
    1.5275    3.3864    0.0000 O   0  0  0  0  0  0  0  0  0  0  0  0
    2.2408    3.7977    0.0000 C   0  0  0  0  0  0  0  0  0  0  0  0
  2  1  3  0  0  0  0
  3  4  1  0  0  0  0
  4 12  1  0  0  0  0
  5  3  2  0  0  0  0
  6  4  2  0  0  0  0
  7 10  2  0  0  0  0
  8 11  2  0  0  0  0
  8  5  1  0  0  0  0
  9  3  1  0  0  0  0
 10  8  1  0  0  0  0
 11  6  1  0  0  0  0
 12 13  1  0  0  0  0
 13  1  1  0  0  0  0
M  END
>  <CdId>
765

>  <Mol Weight>
239.065

>  <Formula>
C10H7BrO2

>  <Click_ID>
CLK011A10 __  __  __

$$$$
CLK011C06 __  __  __
 OpenBabel03171413522D

 22 23  0  0  0  0  0  0  0  0999 V2000
    5.9450   -0.4321    0.0000 N   0  3  0  0  0  0  0  0  0  0  0  0
    5.2335   -0.0226    0.0000 C   0  0  0  0  0  0  0  0  0  0  0  0
   -1.1904   -1.2824    0.0000 C   0  0  0  0  0  0  0  0  0  0  0  0
   -1.1904   -0.4581    0.0000 C   0  0  0  0  0  0  0  0  0  0  0  0
    1.6624   -0.4442    0.0000 C   0  0  0  0  0  0  0  0  0  0  0  0
    4.5204   -0.4373    0.0000 C   0  0  0  0  0  0  0  0  0  0  0  0
    5.9519   -1.2563    0.0000 O   0  5  0  0  0  0  0  0  0  0  0  0
    6.6634   -0.0122    0.0000 O   0  0  0  0  0  0  0  0  0  0  0  0
    1.6658   -1.2702    0.0000 N   0  0  0  0  0  0  0  0  0  0  0  0
    0.9527   -1.6919    0.0000 C   0  0  0  0  0  0  0  0  0  0  0  0
    0.9440   -0.0364    0.0000 O   0  0  0  0  0  0  0  0  0  0  0  0
   -0.4772   -1.6919    0.0000 C   0  0  0  0  0  0  0  0  0  0  0  0
    3.8020   -0.0278    0.0000 C   0  0  0  0  0  0  0  0  0  0  0  0
    3.0888   -0.4390    0.0000 O   0  0  0  0  0  0  0  0  0  0  0  0
    2.3738   -0.0330    0.0000 C   0  0  0  0  0  0  0  0  0  0  0  0
    0.2360   -1.2772    0.0000 C   0  0  0  0  0  0  0  0  0  0  0  0
    5.2283    0.8017    0.0000 C   0  0  0  0  0  0  0  0  0  0  0  0
    4.5082    1.2129    0.0000 C   0  0  0  0  0  0  0  0  0  0  0  0
    0.2360   -2.9326    0.0000 C   0  0  0  0  0  0  0  0  0  0  0  0
    0.9527   -2.5196    0.0000 C   0  0  0  0  0  0  0  0  0  0  0  0
   -0.4772   -2.5196    0.0000 C   0  0  0  0  0  0  0  0  0  0  0  0
    3.8002    0.7965    0.0000 C   0  0  0  0  0  0  0  0  0  0  0  0
  2  1  1  0  0  0  0
  3 12  1  0  0  0  0
  4  3  3  0  0  0  0
  5 15  1  0  0  0  0
  6  2  1  0  0  0  0
  7  1  1  0  0  0  0
  8  1  2  0  0  0  0
  9  5  1  0  0  0  0
 10  9  1  0  0  0  0
 11  5  2  0  0  0  0
 12 16  1  0  0  0  0
 13  6  2  0  0  0  0
 13 22  1  0  0  0  0
 14 13  1  0  0  0  0
 15 14  1  0  0  0  0
 16 10  2  0  0  0  0
 17  2  2  0  0  0  0
 18 17  1  0  0  0  0
 19 20  2  0  0  0  0
 20 10  1  0  0  0  0
 21 19  1  0  0  0  0
 21 12  2  0  0  0  0
 22 18  2  0  0  0  0
M  CHG  2   1   1   7  -1
M  END
>  <CdId>
781

>  <Mol Weight>
296.2775

>  <Formula>
C16H12N2O4

>  <Click_ID>
CLK011C06 __  __  __

$$$$
CLK013A04 __  __  __
 OpenBabel03171413522D

 20 21  0  0  0  0  0  0  0  0999 V2000
    3.6000   -1.1500    0.0000 C   0  0  0  0  0  0  0  0  0  0  0  0
    0.7500   -1.9875    0.0000 C   0  0  0  0  0  0  0  0  0  0  0  0
    0.7500   -1.1625    0.0000 C   0  0  0  0  0  0  0  0  0  0  0  0
    3.6042   -1.9750    0.0000 N   0  0  0  0  0  0  0  0  0  0  0  0
    2.8792   -0.7417    0.0000 O   0  0  0  0  0  0  0  0  0  0  0  0
    2.8917   -2.3917    0.0000 C   0  0  0  0  0  0  0  0  0  0  0  0
    4.3125   -0.7375    0.0000 C   0  0  0  0  0  0  0  0  0  0  0  0
    1.4625   -2.3917    0.0000 C   0  0  0  0  0  0  0  0  0  0  0  0
    2.1750   -1.9792    0.0000 C   0  0  0  0  0  0  0  0  0  0  0  0
    4.3042    0.0875    0.0000 C   0  0  0  0  0  0  0  0  0  0  0  0
    4.3042    1.7375    0.0000 C   0  0  0  0  0  0  0  0  0  0  0  0
    5.0250    0.5000    0.0000 C   0  0  0  0  0  0  0  0  0  0  0  0
    3.5917    0.5000    0.0000 C   0  0  0  0  0  0  0  0  0  0  0  0
    3.5917    1.3208    0.0000 C   0  0  0  0  0  0  0  0  0  0  0  0
    5.0250    1.3250    0.0000 C   0  0  0  0  0  0  0  0  0  0  0  0
    4.3042    2.5625    0.0000 O   0  0  0  0  0  0  0  0  0  0  0  0
    2.1750   -3.6375    0.0000 C   0  0  0  0  0  0  0  0  0  0  0  0
    2.8917   -3.2250    0.0000 C   0  0  0  0  0  0  0  0  0  0  0  0
    1.4625   -3.2250    0.0000 C   0  0  0  0  0  0  0  0  0  0  0  0
    5.0167    2.9833    0.0000 C   0  0  0  0  0  0  0  0  0  0  0  0
  2  8  1  0  0  0  0
  3  2  3  0  0  0  0
  4  1  1  0  0  0  0
  5  1  2  0  0  0  0
  6  4  1  0  0  0  0
  7  1  1  0  0  0  0
  8  9  1  0  0  0  0
  8 19  2  0  0  0  0
  9  6  2  0  0  0  0
 10  7  1  0  0  0  0
 11 14  1  0  0  0  0
 12 10  2  0  0  0  0
 13 10  1  0  0  0  0
 14 13  2  0  0  0  0
 15 12  1  0  0  0  0
 15 11  2  0  0  0  0
 16 11  1  0  0  0  0
 17 18  2  0  0  0  0
 18  6  1  0  0  0  0
 19 17  1  0  0  0  0
 20 16  1  0  0  0  0
M  END
>  <CdId>
919

>  <Mol Weight>
265.3065

>  <Formula>
C17H15NO2

>  <Click_ID>
CLK013A04 __  __  __

$$$$
CLK013D04 __  __  __
 OpenBabel03171413522D

 19 20  0  0  0  0  0  0  0  0999 V2000
    2.8875   -0.7250    0.0000 C   0  0  0  0  0  0  0  0  0  0  0  0
    0.0375   -1.5625    0.0000 C   0  0  0  0  0  0  0  0  0  0  0  0
    0.0375   -0.7375    0.0000 C   0  0  0  0  0  0  0  0  0  0  0  0
    2.8917   -1.5500    0.0000 N   0  0  0  0  0  0  0  0  0  0  0  0
    2.1667   -0.3167    0.0000 O   0  0  0  0  0  0  0  0  0  0  0  0
    2.1792   -1.9667    0.0000 C   0  0  0  0  0  0  0  0  0  0  0  0
    3.6000   -0.3125    0.0000 C   0  0  0  0  0  0  0  0  0  0  0  0
    0.7500   -1.9667    0.0000 C   0  0  0  0  0  0  0  0  0  0  0  0
    1.4625   -1.5542    0.0000 C   0  0  0  0  0  0  0  0  0  0  0  0
    3.5917    0.5125    0.0000 C   0  0  0  0  0  0  0  0  0  0  0  0
    3.5917    2.1625    0.0000 C   0  0  0  0  0  0  0  0  0  0  0  0
    3.5917    2.9875    0.0000 Cl  0  0  0  0  0  0  0  0  0  0  0  0
    2.8792    1.7458    0.0000 C   0  0  0  0  0  0  0  0  0  0  0  0
    4.3125    1.7500    0.0000 C   0  0  0  0  0  0  0  0  0  0  0  0
    2.8792    0.9250    0.0000 C   0  0  0  0  0  0  0  0  0  0  0  0
    4.3125    0.9250    0.0000 C   0  0  0  0  0  0  0  0  0  0  0  0
    1.4625   -3.2125    0.0000 C   0  0  0  0  0  0  0  0  0  0  0  0
    2.1792   -2.8000    0.0000 C   0  0  0  0  0  0  0  0  0  0  0  0
    0.7500   -2.8000    0.0000 C   0  0  0  0  0  0  0  0  0  0  0  0
  2  8  1  0  0  0  0
  3  2  3  0  0  0  0
  4  1  1  0  0  0  0
  5  1  2  0  0  0  0
  6  4  1  0  0  0  0
  7  1  1  0  0  0  0
  8  9  1  0  0  0  0
  8 19  2  0  0  0  0
  9  6  2  0  0  0  0
 10  7  1  0  0  0  0
 11 14  2  0  0  0  0
 12 11  1  0  0  0  0
 13 15  2  0  0  0  0
 13 11  1  0  0  0  0
 14 16  1  0  0  0  0
 15 10  1  0  0  0  0
 16 10  2  0  0  0  0
 17 18  2  0  0  0  0
 18  6  1  0  0  0  0
 19 17  1  0  0  0  0
M  END
>  <CdId>
949

>  <Mol Weight>
269.726

>  <Formula>
C16H12ClNO

>  <Click_ID>
CLK013D04 __  __  __

$$$$
CLK013F06 __  __  __
 OpenBabel03171413522D

 32 35  0  0  0  0  0  0  0  0999 V2000
    1.5701   -0.8185    0.0000 N   0  0  0  0  0  0  0  0  0  0  0  0
    1.8290   -1.6077    0.0000 C   0  0  0  0  0  0  0  0  0  0  0  0
    2.9106   -0.8185    0.0000 C   0  0  0  0  0  0  0  0  0  0  0  0
    2.2424   -0.3299    0.0000 C   0  0  0  0  0  0  0  0  0  0  0  0
    2.6558   -1.6077    0.0000 S   0  0  0  0  0  0  0  0  0  0  0  0
    3.9837   -0.4677    0.0000 C   0  0  0  0  0  0  0  0  0  0  0  0
    4.1591    0.3340    0.0000 C   0  0  0  0  0  0  0  0  0  0  0  0
    4.9400    0.5846    0.0000 C   0  0  0  0  0  0  0  0  0  0  0  0
    2.8688    4.4096    0.0000 C   0  0  0  0  0  0  0  0  0  0  0  0
    0.6138    0.2463    0.0000 C   0  0  0  0  0  0  0  0  0  0  0  0
    0.3926    1.0481    0.0000 C   0  0  0  0  0  0  0  0  0  0  0  0
    3.5494    0.8894    0.0000 C   0  0  0  0  0  0  0  0  0  0  0  0
    1.3404   -2.2717    0.0000 O   0  0  0  0  0  0  0  0  0  0  0  0
    2.2341    0.4969    0.0000 O   0  0  0  0  0  0  0  0  0  0  0  0
    2.6851    3.6162    0.0000 C   0  0  0  0  0  0  0  0  0  0  0  0
    0.7892   -0.5637    0.0000 C   0  0  0  0  0  0  0  0  0  0  0  0
    2.7602    0.6389    0.0000 O   0  0  0  0  0  0  0  0  0  0  0  0
    2.2591    4.9650    0.0000 O   0  0  0  0  0  0  0  0  0  0  0  0
    5.1154    1.3905    0.0000 C   0  0  0  0  0  0  0  0  0  0  0  0
    3.7206    1.6995    0.0000 C   0  0  0  0  0  0  0  0  0  0  0  0
    4.5015    1.9501    0.0000 C   0  0  0  0  0  0  0  0  0  0  0  0
    1.8958    3.3656    0.0000 C   0  0  0  0  0  0  0  0  0  0  0  0
    3.2947    3.0525    0.0000 C   0  0  0  0  0  0  0  0  0  0  0  0
    3.6580    4.6519    0.0000 O   0  0  0  0  0  0  0  0  0  0  0  0
    2.1547    1.1984    0.0000 C   0  0  0  0  0  0  0  0  0  0  0  0
    2.3218    2.0002    0.0000 C   0  0  0  0  0  0  0  0  0  0  0  0
    1.7205    2.5514    0.0000 C   0  0  0  0  0  0  0  0  0  0  0  0
    3.1193    2.2507    0.0000 C   0  0  0  0  0  0  0  0  0  0  0  0
    5.5538    0.0334    0.0000 C   0  0  0  0  0  0  0  0  0  0  0  0
    5.8921    1.6494    0.0000 C   0  0  0  0  0  0  0  0  0  0  0  0
    6.3305    0.2881    0.0000 C   0  0  0  0  0  0  0  0  0  0  0  0
    6.5059    1.0982    0.0000 C   0  0  0  0  0  0  0  0  0  0  0  0
  2  1  1  0  0  0  0
  3  4  1  0  0  0  0
  3  5  1  0  0  0  0
  4  1  1  0  0  0  0
  5  2  1  0  0  0  0
  6  3  2  0  0  0  0
  7  6  1  0  0  0  0
  8  7  1  0  0  0  0
  9 15  1  0  0  0  0
 10 16  1  0  0  0  0
 11 10  3  0  0  0  0
 12  7  2  0  0  0  0
 13  2  2  0  0  0  0
 14  4  2  0  0  0  0
 15 23  2  0  0  0  0
 16  1  1  0  0  0  0
 17 12  1  0  0  0  0
 18  9  2  0  0  0  0
 19  8  1  0  0  0  0
 19 21  1  0  0  0  0
 20 12  1  0  0  0  0
 21 20  2  0  0  0  0
 22 27  2  0  0  0  0
 22 15  1  0  0  0  0
 23 28  1  0  0  0  0
 24  9  1  0  0  0  0
 25 17  1  0  0  0  0
 26 25  1  0  0  0  0
 27 26  1  0  0  0  0
 28 26  2  0  0  0  0
 29  8  2  0  0  0  0
 30 19  2  0  0  0  0
 30 32  1  0  0  0  0
 31 29  1  0  0  0  0
 32 31  2  0  0  0  0
M  END
>  <CdId>
971

>  <Mol Weight>
443.471

>  <Formula>
C25H17NO5S

>  <Click_ID>
CLK013F06 __  __  __

$$$$
CLK014D06 __  __  __
 OpenBabel03171413522D

 28 30  0  0  0  0  0  0  0  0999 V2000
    2.4095   -1.9973    0.0000 N   0  0  0  0  0  0  0  0  0  0  0  0
    0.9803   -1.9973    0.0000 C   0  0  0  0  0  0  0  0  0  0  0  0
    1.6949   -1.5850    0.0000 C   0  0  0  0  0  0  0  0  0  0  0  0
    2.4095   -2.8218    0.0000 C   0  0  0  0  0  0  0  0  0  0  0  0
    1.6949   -3.2341    0.0000 N   0  0  0  0  0  0  0  0  0  0  0  0
    0.9803   -2.8218    0.0000 C   0  0  0  0  0  0  0  0  0  0  0  0
    3.1241   -1.5850    0.0000 C   0  0  0  0  0  0  0  0  0  0  0  0
    0.2657   -1.5850    0.0000 C   0  0  0  0  0  0  0  0  0  0  0  0
    3.1241   -0.7604    0.0000 C   0  0  0  0  0  0  0  0  0  0  0  0
    3.8387   -0.3482    0.0000 C   0  0  0  0  0  0  0  0  0  0  0  0
   -2.5927    0.8886    0.0000 C   0  0  0  0  0  0  0  0  0  0  0  0
    3.1241   -3.2341    0.0000 O   0  0  0  0  0  0  0  0  0  0  0  0
   -3.3073    0.4764    0.0000 C   0  0  0  0  0  0  0  0  0  0  0  0
    1.6949   -0.7604    0.0000 O   0  0  0  0  0  0  0  0  0  0  0  0
    0.2657   -3.2341    0.0000 O   0  0  0  0  0  0  0  0  0  0  0  0
    3.8387   -1.9973    0.0000 C   0  0  0  0  0  0  0  0  0  0  0  0
    4.5533   -0.7604    0.0000 C   0  0  0  0  0  0  0  0  0  0  0  0
    0.2657   -0.7604    0.0000 C   0  0  0  0  0  0  0  0  0  0  0  0
    4.5533   -1.5850    0.0000 C   0  0  0  0  0  0  0  0  0  0  0  0
    3.8387    0.4764    0.0000 Cl  0  0  0  0  0  0  0  0  0  0  0  0
   -0.4489   -0.3482    0.0000 C   0  0  0  0  0  0  0  0  0  0  0  0
    5.2679   -0.3482    0.0000 Cl  0  0  0  0  0  0  0  0  0  0  0  0
   -0.4489    0.4764    0.0000 C   0  0  0  0  0  0  0  0  0  0  0  0
   -1.8781    0.4764    0.0000 C   0  0  0  0  0  0  0  0  0  0  0  0
   -1.1635    0.8886    0.0000 O   0  0  0  0  0  0  0  0  0  0  0  0
    0.9803    0.4764    0.0000 C   0  0  0  0  0  0  0  0  0  0  0  0
    0.9803   -0.3482    0.0000 C   0  0  0  0  0  0  0  0  0  0  0  0
    0.2657    0.8886    0.0000 C   0  0  0  0  0  0  0  0  0  0  0  0
  2  3  1  0  0  0  0
  3  1  1  0  0  0  0
  4  1  1  0  0  0  0
  5  4  1  0  0  0  0
  6  5  1  0  0  0  0
  6  2  1  0  0  0  0
  7  1  1  0  0  0  0
  8  2  2  0  0  0  0
  9  7  2  0  0  0  0
 10  9  1  0  0  0  0
 11 24  1  0  0  0  0
 12  4  2  0  0  0  0
 13 11  3  0  0  0  0
 14  3  2  0  0  0  0
 15  6  2  0  0  0  0
 16  7  1  0  0  0  0
 17 19  1  0  0  0  0
 17 10  2  0  0  0  0
 18  8  1  0  0  0  0
 19 16  2  0  0  0  0
 20 10  1  0  0  0  0
 21 18  2  0  0  0  0
 22 17  1  0  0  0  0
 23 21  1  0  0  0  0
 24 25  1  0  0  0  0
 25 23  1  0  0  0  0
 26 27  2  0  0  0  0
 27 18  1  0  0  0  0
 28 26  1  0  0  0  0
 28 23  2  0  0  0  0
M  END
>  <CdId>
1031

>  <Mol Weight>
415.226

>  <Formula>
C20H12Cl2N2O4

>  <Click_ID>
CLK014D06 __  __  __

$$$$
CLK015A08 __  __  __
 OpenBabel03171413522D

 24 26  0  0  0  0  0  0  0  0999 V2000
    1.5659   -0.8163    0.0000 N   0  0  0  0  0  0  0  0  0  0  0  0
    1.8241   -1.6034    0.0000 C   0  0  0  0  0  0  0  0  0  0  0  0
    2.9028   -0.8163    0.0000 C   0  0  0  0  0  0  0  0  0  0  0  0
    2.2364   -0.3290    0.0000 C   0  0  0  0  0  0  0  0  0  0  0  0
    4.5270    1.3951    0.0000 N   0  0  0  0  0  0  0  0  0  0  0  0
    3.8606    0.2457    0.0000 C   0  0  0  0  0  0  0  0  0  0  0  0
    2.6487   -1.6034    0.0000 S   0  0  0  0  0  0  0  0  0  0  0  0
    3.7274    1.5700    0.0000 C   0  0  0  0  0  0  0  0  0  0  0  0
    4.6144    0.5747    0.0000 C   0  0  0  0  0  0  0  0  0  0  0  0
    3.6899   -0.5622    0.0000 C   0  0  0  0  0  0  0  0  0  0  0  0
    3.3109    0.8579    0.0000 C   0  0  0  0  0  0  0  0  0  0  0  0
    0.6122    0.2457    0.0000 C   0  0  0  0  0  0  0  0  0  0  0  0
    0.3915    1.0453    0.0000 C   0  0  0  0  0  0  0  0  0  0  0  0
    1.3368   -2.2656    0.0000 O   0  0  0  0  0  0  0  0  0  0  0  0
    5.1475    1.9448    0.0000 C   0  0  0  0  0  0  0  0  0  0  0  0
    2.2281    0.4956    0.0000 O   0  0  0  0  0  0  0  0  0  0  0  0
    0.7871   -0.5622    0.0000 C   0  0  0  0  0  0  0  0  0  0  0  0
    5.5889    3.2984    0.0000 N   0  0  0  0  0  0  0  0  0  0  0  0
    3.3983    2.3322    0.0000 C   0  0  0  0  0  0  0  0  0  0  0  0
    5.3266    0.1582    0.0000 C   0  0  0  0  0  0  0  0  0  0  0  0
    4.9768    2.7486    0.0000 C   0  0  0  0  0  0  0  0  0  0  0  0
    6.3761    3.0443    0.0000 C   0  0  0  0  0  0  0  0  0  0  0  0
    5.9263    1.6867    0.0000 C   0  0  0  0  0  0  0  0  0  0  0  0
    6.5385    2.2364    0.0000 C   0  0  0  0  0  0  0  0  0  0  0  0
  2  1  1  0  0  0  0
  3  4  1  0  0  0  0
  3  7  1  0  0  0  0
  4  1  1  0  0  0  0
  5  9  1  0  0  0  0
  6 10  1  0  0  0  0
  7  2  1  0  0  0  0
  8 11  2  0  0  0  0
  8  5  1  0  0  0  0
  9  6  2  0  0  0  0
 10  3  2  0  0  0  0
 11  6  1  0  0  0  0
 12 17  1  0  0  0  0
 13 12  3  0  0  0  0
 14  2  2  0  0  0  0
 15  5  1  0  0  0  0
 16  4  2  0  0  0  0
 17  1  1  0  0  0  0
 18 21  2  0  0  0  0
 19  8  1  0  0  0  0
 20  9  1  0  0  0  0
 21 15  1  0  0  0  0
 22 24  2  0  0  0  0
 22 18  1  0  0  0  0
 23 15  2  0  0  0  0
 24 23  1  0  0  0  0
M  END
>  <CdId>
1083

>  <Mol Weight>
337.396

>  <Formula>
C18H15N3O2S

>  <Click_ID>
CLK015A08 __  __  __

$$$$
CLK015D05 __  __  __
 OpenBabel03171413522D

 24 26  0  0  0  0  0  0  0  0999 V2000
    2.1093   -0.2288    0.0000 N   0  0  0  0  0  0  0  0  0  0  0  0
    2.3589   -1.0151    0.0000 C   0  0  0  0  0  0  0  0  0  0  0  0
    3.4364   -0.2288    0.0000 C   0  0  0  0  0  0  0  0  0  0  0  0
    5.0672    1.9802    0.0000 N   0  0  0  0  0  0  0  0  0  0  0  0
    2.7707    0.2579    0.0000 C   0  0  0  0  0  0  0  0  0  0  0  0
    4.3974    0.8320    0.0000 C   0  0  0  0  0  0  0  0  0  0  0  0
    3.1826   -1.0151    0.0000 S   0  0  0  0  0  0  0  0  0  0  0  0
    4.2601    2.1550    0.0000 C   0  0  0  0  0  0  0  0  0  0  0  0
    5.1463    1.1690    0.0000 C   0  0  0  0  0  0  0  0  0  0  0  0
    4.2227    0.0250    0.0000 C   0  0  0  0  0  0  0  0  0  0  0  0
    3.8483    1.4436    0.0000 C   0  0  0  0  0  0  0  0  0  0  0  0
    5.6788    2.5294    0.0000 C   0  0  0  0  0  0  0  0  0  0  0  0
    0.7114   -0.5284    0.0000 C   0  0  0  0  0  0  0  0  0  0  0  0
    0.1248   -1.1108    0.0000 C   0  0  0  0  0  0  0  0  0  0  0  0
    1.8763   -1.6766    0.0000 O   0  0  0  0  0  0  0  0  0  0  0  0
    2.7707    1.0816    0.0000 O   0  0  0  0  0  0  0  0  0  0  0  0
    5.5082    3.3407    0.0000 N   0  0  0  0  0  0  0  0  0  0  0  0
    1.3272    0.0250    0.0000 C   0  0  0  0  0  0  0  0  0  0  0  0
    3.9232    2.9080    0.0000 C   0  0  0  0  0  0  0  0  0  0  0  0
    5.8577    0.7488    0.0000 C   0  0  0  0  0  0  0  0  0  0  0  0
    6.4650    2.2715    0.0000 C   0  0  0  0  0  0  0  0  0  0  0  0
    6.1281    3.8898    0.0000 C   0  0  0  0  0  0  0  0  0  0  0  0
    7.0766    2.8289    0.0000 C   0  0  0  0  0  0  0  0  0  0  0  0
    6.9061    3.6277    0.0000 C   0  0  0  0  0  0  0  0  0  0  0  0
  2  1  1  0  0  0  0
  3  5  1  0  0  0  0
  3  7  1  0  0  0  0
  4  9  1  0  0  0  0
  5  1  1  0  0  0  0
  6 10  1  0  0  0  0
  7  2  1  0  0  0  0
  8 11  2  0  0  0  0
  8  4  1  0  0  0  0
  9  6  2  0  0  0  0
 10  3  2  0  0  0  0
 11  6  1  0  0  0  0
 12  4  1  0  0  0  0
 13 18  1  0  0  0  0
 14 13  3  0  0  0  0
 15  2  2  0  0  0  0
 16  5  2  0  0  0  0
 17 12  1  0  0  0  0
 18  1  1  0  0  0  0
 19  8  1  0  0  0  0
 20  9  1  0  0  0  0
 21 12  2  0  0  0  0
 22 17  2  0  0  0  0
 23 21  1  0  0  0  0
 24 23  2  0  0  0  0
 24 22  1  0  0  0  0
M  END
>  <CdId>
1110

>  <Mol Weight>
337.396

>  <Formula>
C18H15N3O2S

>  <Click_ID>
CLK015D05 __  __  __

$$$$
CLK015F04 __  __  __
 OpenBabel03171413522D

 25 27  0  0  0  0  0  0  0  0999 V2000
    2.1097   -0.2289    0.0000 N   0  0  0  0  0  0  0  0  0  0  0  0
    2.3593   -1.0153    0.0000 C   0  0  0  0  0  0  0  0  0  0  0  0
    3.4371   -0.2289    0.0000 C   0  0  0  0  0  0  0  0  0  0  0  0
    5.0682    1.9848    0.0000 N   0  0  0  0  0  0  0  0  0  0  0  0
    2.7713    0.2580    0.0000 C   0  0  0  0  0  0  0  0  0  0  0  0
    4.3983    0.8322    0.0000 C   0  0  0  0  0  0  0  0  0  0  0  0
    3.1832   -1.0153    0.0000 S   0  0  0  0  0  0  0  0  0  0  0  0
    4.2609    2.1554    0.0000 C   0  0  0  0  0  0  0  0  0  0  0  0
    5.1472    1.1692    0.0000 C   0  0  0  0  0  0  0  0  0  0  0  0
    4.2235    0.0250    0.0000 C   0  0  0  0  0  0  0  0  0  0  0  0
    3.8490    1.4438    0.0000 C   0  0  0  0  0  0  0  0  0  0  0  0
    5.6715    2.5424    0.0000 C   0  0  0  0  0  0  0  0  0  0  0  0
    5.5051    3.3413    0.0000 N   0  0  0  0  0  0  0  0  0  0  0  0
    0.7115   -0.5285    0.0000 C   0  0  0  0  0  0  0  0  0  0  0  0
    0.1248   -1.1110    0.0000 C   0  0  0  0  0  0  0  0  0  0  0  0
    1.8767   -1.6769    0.0000 O   0  0  0  0  0  0  0  0  0  0  0  0
    2.7713    1.0818    0.0000 O   0  0  0  0  0  0  0  0  0  0  0  0
    1.3274    0.0250    0.0000 C   0  0  0  0  0  0  0  0  0  0  0  0
    6.4538    2.2802    0.0000 C   0  0  0  0  0  0  0  0  0  0  0  0
    6.1167    3.8905    0.0000 C   0  0  0  0  0  0  0  0  0  0  0  0
    3.9239    2.9086    0.0000 C   0  0  0  0  0  0  0  0  0  0  0  0
    5.8588    0.7490    0.0000 C   0  0  0  0  0  0  0  0  0  0  0  0
    7.0696    2.8337    0.0000 C   0  0  0  0  0  0  0  0  0  0  0  0
    6.9032    3.6409    0.0000 C   0  0  0  0  0  0  0  0  0  0  0  0
    7.5148    4.1860    0.0000 C   0  0  0  0  0  0  0  0  0  0  0  0
  2  1  1  0  0  0  0
  3  5  1  0  0  0  0
  3  7  1  0  0  0  0
  4  9  1  0  0  0  0
  5  1  1  0  0  0  0
  6 10  1  0  0  0  0
  7  2  1  0  0  0  0
  8 11  2  0  0  0  0
  8  4  1  0  0  0  0
  9  6  2  0  0  0  0
 10  3  2  0  0  0  0
 11  6  1  0  0  0  0
 12  4  1  0  0  0  0
 13 12  1  0  0  0  0
 14 18  1  0  0  0  0
 15 14  3  0  0  0  0
 16  2  2  0  0  0  0
 17  5  2  0  0  0  0
 18  1  1  0  0  0  0
 19 12  2  0  0  0  0
 20 13  2  0  0  0  0
 21  8  1  0  0  0  0
 22  9  1  0  0  0  0
 23 19  1  0  0  0  0
 24 23  2  0  0  0  0
 24 20  1  0  0  0  0
 25 24  1  0  0  0  0
M  END
>  <CdId>
1129

>  <Mol Weight>
351.422

>  <Formula>
C19H17N3O2S

>  <Click_ID>
CLK015F04 __  __  __

$$$$
CLK015F05 __  __  __
 OpenBabel03171413522D

 15 15  0  0  0  0  0  0  0  0999 V2000
   -0.3922    0.0724    0.0000 N   0  3  0  0  0  0  0  0  0  0  0  0
    0.3454   -0.3497    0.0000 C   0  0  0  0  0  0  0  0  0  0  0  0
    1.0745    0.0724    0.0000 C   0  0  0  0  0  0  0  0  0  0  0  0
    3.7606    1.5946    0.0000 C   0  0  0  0  0  0  0  0  0  0  0  0
    4.1827    2.3237    0.0000 C   0  0  0  0  0  0  0  0  0  0  0  0
   -0.3922    0.9167    0.0000 O   0  5  0  0  0  0  0  0  0  0  0  0
   -1.1213   -0.3497    0.0000 O   0  0  0  0  0  0  0  0  0  0  0  0
    1.8078   -0.3497    0.0000 C   0  0  0  0  0  0  0  0  0  0  0  0
    2.5198    0.0597    0.0000 C   0  0  0  0  0  0  0  0  0  0  0  0
    2.5241    0.8783    0.0000 O   0  0  0  0  0  0  0  0  0  0  0  0
    2.9335    1.5946    0.0000 C   0  0  0  0  0  0  0  0  0  0  0  0
    1.8078   -1.1640    0.0000 C   0  0  0  0  0  0  0  0  0  0  0  0
    3.2277   -0.3497    0.0000 C   0  0  0  0  0  0  0  0  0  0  0  0
    3.2277   -1.1640    0.0000 C   0  0  0  0  0  0  0  0  0  0  0  0
    2.5241   -1.5733    0.0000 C   0  0  0  0  0  0  0  0  0  0  0  0
  2  1  1  0  0  0  0
  3  2  2  0  0  0  0
  4 11  1  0  0  0  0
  5  4  3  0  0  0  0
  6  1  1  0  0  0  0
  7  1  2  0  0  0  0
  8  3  1  0  0  0  0
  9  8  2  0  0  0  0
 10  9  1  0  0  0  0
 11 10  1  0  0  0  0
 12  8  1  0  0  0  0
 13  9  1  0  0  0  0
 13 14  2  0  0  0  0
 14 15  1  0  0  0  0
 15 12  2  0  0  0  0
M  CHG  2   1   1   6  -1
M  END
>  <CdId>
1130

>  <Mol Weight>
203.1941

>  <Formula>
C11H9NO3

>  <Click_ID>
CLK015F05 __  __  __

$$$$
CLK016E03 __  __  __
 OpenBabel03171413522D

 21 23  0  0  0  0  0  0  0  0999 V2000
    1.5674   -0.8171    0.0000 N   0  0  0  0  0  0  0  0  0  0  0  0
    1.8259   -1.6050    0.0000 C   0  0  0  0  0  0  0  0  0  0  0  0
    2.9056   -0.8171    0.0000 C   0  0  0  0  0  0  0  0  0  0  0  0
    2.2386   -0.3294    0.0000 C   0  0  0  0  0  0  0  0  0  0  0  0
    4.1436    0.3335    0.0000 C   0  0  0  0  0  0  0  0  0  0  0  0
    2.6512   -1.6050    0.0000 S   0  0  0  0  0  0  0  0  0  0  0  0
    3.9769   -0.4669    0.0000 C   0  0  0  0  0  0  0  0  0  0  0  0
    3.6017    0.9379    0.0000 C   0  0  0  0  0  0  0  0  0  0  0  0
    4.0061    1.6591    0.0000 N   0  0  0  0  0  0  0  0  0  0  0  0
    4.8940    0.6628    0.0000 C   0  0  0  0  0  0  0  0  0  0  0  0
    4.8148    1.4840    0.0000 C   0  0  0  0  0  0  0  0  0  0  0  0
    0.6128    0.2459    0.0000 C   0  0  0  0  0  0  0  0  0  0  0  0
    0.3919    1.0463    0.0000 C   0  0  0  0  0  0  0  0  0  0  0  0
    1.3381   -2.2678    0.0000 O   0  0  0  0  0  0  0  0  0  0  0  0
    2.2302    0.4960    0.0000 O   0  0  0  0  0  0  0  0  0  0  0  0
    0.7879   -0.5628    0.0000 C   0  0  0  0  0  0  0  0  0  0  0  0
    2.7805    0.8587    0.0000 C   0  0  0  0  0  0  0  0  0  0  0  0
    5.6318    0.2876    0.0000 C   0  0  0  0  0  0  0  0  0  0  0  0
    5.5068    1.9259    0.0000 C   0  0  0  0  0  0  0  0  0  0  0  0
    6.3072    0.7587    0.0000 C   0  0  0  0  0  0  0  0  0  0  0  0
    6.2446    1.5757    0.0000 C   0  0  0  0  0  0  0  0  0  0  0  0
  2  1  1  0  0  0  0
  3  4  1  0  0  0  0
  3  6  1  0  0  0  0
  4  1  1  0  0  0  0
  5  7  1  0  0  0  0
  6  2  1  0  0  0  0
  7  3  2  0  0  0  0
  8  5  2  0  0  0  0
  9  8  1  0  0  0  0
 10  5  1  0  0  0  0
 11 10  1  0  0  0  0
 11  9  1  0  0  0  0
 12 16  1  0  0  0  0
 13 12  3  0  0  0  0
 14  2  2  0  0  0  0
 15  4  2  0  0  0  0
 16  1  1  0  0  0  0
 17  8  1  0  0  0  0
 18 10  2  0  0  0  0
 19 11  2  0  0  0  0
 19 21  1  0  0  0  0
 20 18  1  0  0  0  0
 21 20  2  0  0  0  0
M  END
>  <CdId>
1198

>  <Mol Weight>
296.344

>  <Formula>
C16H12N2O2S

>  <Click_ID>
CLK016E03 __  __  __

$$$$
CLK017A03 __  __  __
 OpenBabel03171413522D

 33 36  0  0  0  0  0  0  0  0999 V2000
    2.4521   -2.5208    0.0000 C   0  0  0  0  0  0  0  0  0  0  0  0
    1.7233   -1.2971    0.0000 C   0  0  0  0  0  0  0  0  0  0  0  0
    1.7325   -2.1175    0.0000 C   0  0  3  0  0  0  0  0  0  0  0  0
    2.4246   -0.8800    0.0000 C   0  0  0  0  0  0  0  0  0  0  0  0
    3.1533   -2.0946    0.0000 C   0  0  0  0  0  0  0  0  0  0  0  0
    3.1396   -1.2787    0.0000 O   0  0  0  0  0  0  0  0  0  0  0  0
    2.4521   -3.3321    0.0000 C   0  0  0  0  0  0  0  0  0  0  0  0
    1.0037   -0.8937    0.0000 C   0  0  0  0  0  0  0  0  0  0  0  0
    1.0221   -2.5346    0.0000 C   0  0  0  0  0  0  0  0  0  0  0  0
    0.3025   -2.1358    0.0000 C   0  0  0  0  0  0  0  0  0  0  0  0
    2.4108   -0.0459    0.0000 C   0  0  0  0  0  0  0  0  0  0  0  0
    3.8774   -2.5025    0.0000 C   0  0  0  0  0  0  0  0  0  0  0  0
    3.8821   -3.3274    0.0000 C   0  0  0  0  0  0  0  0  0  0  0  0
    1.6958    0.3437    0.0000 C   0  0  0  0  0  0  0  0  0  0  0  0
   -1.8012   -5.0599    0.0000 C   0  0  0  0  0  0  0  0  0  0  0  0
    3.1808   -3.7446    0.0000 C   0  0  0  0  0  0  0  0  0  0  0  0
    0.9946   -0.0734    0.0000 C   0  0  0  0  0  0  0  0  0  0  0  0
   -1.7875   -5.8849    0.0000 C   0  0  0  0  0  0  0  0  0  0  0  0
   -0.4079   -2.5621    0.0000 C   0  0  0  0  0  0  0  0  0  0  0  0
    1.7371   -3.7674    0.0000 O   0  0  0  0  0  0  0  0  0  0  0  0
    0.2887   -1.3108    0.0000 O   0  0  0  0  0  0  0  0  0  0  0  0
    1.0359   -3.3596    0.0000 C   0  0  0  0  0  0  0  0  0  0  0  0
   -0.3941   -3.3871    0.0000 C   0  0  0  0  0  0  0  0  0  0  0  0
    0.3209   -3.7858    0.0000 C   0  0  0  0  0  0  0  0  0  0  0  0
   -1.1275   -2.1587    0.0000 O   0  0  0  0  0  0  0  0  0  0  0  0
   -1.1091   -3.8087    0.0000 O   0  0  0  0  0  0  0  0  0  0  0  0
   -1.0954   -4.6383    0.0000 C   0  0  0  0  0  0  0  0  0  0  0  0
    1.6821    1.1825    0.0000 C   0  0  0  0  0  0  0  0  0  0  0  0
    0.8662    0.3300    0.0000 C   0  0  0  0  0  0  0  0  0  0  0  0
    4.6108   -3.7308    0.0000 C   0  0  0  0  0  0  0  0  0  0  0  0
    3.4787   -4.0562    0.0000 C   0  0  0  0  0  0  0  0  0  0  0  0
   -1.1412   -1.3337    0.0000 C   0  0  0  0  0  0  0  0  0  0  0  0
   -1.8654   -0.9259    0.0000 C   0  0  0  0  0  0  0  0  0  0  0  0
  2  3  1  0  0  0  0
  2  4  2  0  0  0  0
  3  1  1  0  0  0  0
  4  6  1  0  0  0  0
  5  1  2  0  0  0  0
  6  5  1  0  0  0  0
  7  1  1  0  0  0  0
  8  2  1  0  0  0  0
  9  3  1  0  0  0  0
 10  9  1  0  0  0  0
 11  4  1  0  0  0  0
 12  5  1  0  0  0  0
 13 16  1  0  0  0  0
 13 12  1  0  0  0  0
 14 11  1  0  0  0  0
 14 17  1  0  0  0  0
 15 27  1  0  0  0  0
 16  7  1  0  0  0  0
 17  8  1  0  0  0  0
 18 15  3  0  0  0  0
 19 10  2  0  0  0  0
 20  7  2  0  0  0  0
 21  8  2  0  0  0  0
 22  9  2  0  0  0  0
 23 24  2  0  0  0  0
 23 19  1  0  0  0  0
 24 22  1  0  0  0  0
 25 19  1  0  0  0  0
 26 23  1  0  0  0  0
 27 26  1  0  0  0  0
 28 14  1  0  0  0  0
 29 14  1  0  0  0  0
 30 13  1  0  0  0  0
 31 13  1  0  0  0  0
 32 25  1  0  0  0  0
 33 32  1  0  0  0  0
M  END
>  <CdId>
1238

>  <Mol Weight>
448.5507

>  <Formula>
C28H32O5

>  <Click_ID>
CLK017A03 __  __  __

$$$$
CLK017A04 __  __  __
 OpenBabel03171413522D

 30 33  0  0  0  0  0  0  0  0999 V2000
    2.4522   -2.5210    0.0000 C   0  0  0  0  0  0  0  0  0  0  0  0
    1.7235   -1.2972    0.0000 C   0  0  0  0  0  0  0  0  0  0  0  0
    2.4247   -0.8800    0.0000 C   0  0  0  0  0  0  0  0  0  0  0  0
    3.1535   -2.0947    0.0000 C   0  0  0  0  0  0  0  0  0  0  0  0
    1.7326   -2.1176    0.0000 C   0  0  3  0  0  0  0  0  0  0  0  0
    3.1398   -1.2788    0.0000 O   0  0  0  0  0  0  0  0  0  0  0  0
    2.4522   -3.3323    0.0000 C   0  0  0  0  0  0  0  0  0  0  0  0
    1.0038   -0.8938    0.0000 C   0  0  0  0  0  0  0  0  0  0  0  0
    2.4110   -0.0459    0.0000 C   0  0  0  0  0  0  0  0  0  0  0  0
    3.8777   -2.5026    0.0000 C   0  0  0  0  0  0  0  0  0  0  0  0
    3.8823   -3.3277    0.0000 C   0  0  0  0  0  0  0  0  0  0  0  0
    1.6960    0.3438    0.0000 C   0  0  0  0  0  0  0  0  0  0  0  0
   -1.8013   -5.0602    0.0000 C   0  0  0  0  0  0  0  0  0  0  0  0
    3.1810   -3.7448    0.0000 C   0  0  0  0  0  0  0  0  0  0  0  0
    0.9947   -0.0734    0.0000 C   0  0  0  0  0  0  0  0  0  0  0  0
    1.0222   -2.5347    0.0000 C   0  0  0  0  0  0  0  0  0  0  0  0
   -1.7876   -5.8853    0.0000 C   0  0  0  0  0  0  0  0  0  0  0  0
    1.7372   -3.7677    0.0000 O   0  0  0  0  0  0  0  0  0  0  0  0
    0.2888   -1.3109    0.0000 O   0  0  0  0  0  0  0  0  0  0  0  0
    1.0359   -3.3598    0.0000 C   0  0  0  0  0  0  0  0  0  0  0  0
    0.3025   -2.1360    0.0000 C   0  0  0  0  0  0  0  0  0  0  0  0
   -0.3941   -3.3873    0.0000 C   0  0  0  0  0  0  0  0  0  0  0  0
   -0.4079   -2.5622    0.0000 C   0  0  0  0  0  0  0  0  0  0  0  0
    0.3209   -3.7860    0.0000 C   0  0  0  0  0  0  0  0  0  0  0  0
   -1.0954   -4.6386    0.0000 C   0  0  0  0  0  0  0  0  0  0  0  0
   -1.1092   -3.8089    0.0000 O   0  0  0  0  0  0  0  0  0  0  0  0
    3.4789   -4.0564    0.0000 C   0  0  0  0  0  0  0  0  0  0  0  0
    1.6822    1.1826    0.0000 C   0  0  0  0  0  0  0  0  0  0  0  0
    0.8663    0.3300    0.0000 C   0  0  0  0  0  0  0  0  0  0  0  0
    4.6111   -3.7310    0.0000 C   0  0  0  0  0  0  0  0  0  0  0  0
  2  5  1  0  0  0  0
  3  2  2  0  0  0  0
  3  6  1  0  0  0  0
  4  1  2  0  0  0  0
  5  1  1  0  0  0  0
  6  4  1  0  0  0  0
  7  1  1  0  0  0  0
  8  2  1  0  0  0  0
  9  3  1  0  0  0  0
  9 12  1  0  0  0  0
 10  4  1  0  0  0  0
 11 14  1  0  0  0  0
 11 10  1  0  0  0  0
 12 15  1  0  0  0  0
 13 25  1  0  0  0  0
 14  7  1  0  0  0  0
 15  8  1  0  0  0  0
 16  5  1  0  0  0  0
 17 13  3  0  0  0  0
 18  7  2  0  0  0  0
 19  8  2  0  0  0  0
 20 16  2  0  0  0  0
 21 16  1  0  0  0  0
 22 23  1  0  0  0  0
 23 21  2  0  0  0  0
 24 20  1  0  0  0  0
 24 22  2  0  0  0  0
 25 26  1  0  0  0  0
 26 22  1  0  0  0  0
 27 11  1  0  0  0  0
 28 12  1  0  0  0  0
 29 12  1  0  0  0  0
 30 11  1  0  0  0  0
M  END
>  <CdId>
1239

>  <Mol Weight>
404.4981

>  <Formula>
C26H28O4

>  <Click_ID>
CLK017A04 __  __  __

$$$$
CLK017B10 __  __  __
 OpenBabel03171413522D

 30 34  0  0  0  0  0  0  0  0999 V2000
   -0.6119   -2.2125    0.0000 N   0  0  0  0  0  0  0  0  0  0  0  0
   -1.2924   -1.7460    0.0000 C   0  0  0  0  0  0  0  0  0  0  0  0
   -0.8559   -3.0170    0.0000 C   0  0  0  0  0  0  0  0  0  0  0  0
   -2.5120   -1.6476    0.0000 C   0  0  3  0  0  0  0  0  0  0  0  0
   -2.8630   -1.0442    0.0000 C   0  0  3  0  0  0  0  0  0  0  0  0
   -1.9343   -2.2510    0.0000 C   0  0  3  0  0  0  0  0  0  0  0  0
   -1.6647   -3.0342    0.0000 C   0  0  3  0  0  0  0  0  0  0  0  0
   -2.7731   -2.0071    0.0000 C   0  0  3  0  0  0  0  0  0  0  0  0
   -2.5120   -2.7774    0.0000 C   0  0  3  0  0  0  0  0  0  0  0  0
   -2.1654   -1.0442    0.0000 C   0  0  0  0  0  0  0  0  0  0  0  0
    0.1712   -1.9386    0.0000 N   0  0  0  0  0  0  0  0  0  0  0  0
   -3.5776   -2.4950    0.0000 C   0  0  0  0  0  0  0  0  0  0  0  0
   -3.3508   -3.2866    0.0000 C   0  0  0  0  0  0  0  0  0  0  0  0
    3.1454   -1.6733    0.0000 C   0  0  0  0  0  0  0  0  0  0  0  0
    2.9828   -2.4821    0.0000 C   0  0  0  0  0  0  0  0  0  0  0  0
    2.5078   -1.1298    0.0000 C   0  0  0  0  0  0  0  0  0  0  0  0
    5.3279   -1.6733    0.0000 C   0  0  0  0  0  0  0  0  0  0  0  0
    5.9485   -2.2125    0.0000 C   0  0  0  0  0  0  0  0  0  0  0  0
   -1.3180   -0.9158    0.0000 O   0  0  0  0  0  0  0  0  0  0  0  0
   -0.3552   -3.6889    0.0000 O   0  0  0  0  0  0  0  0  0  0  0  0
    0.8003   -2.4821    0.0000 C   0  0  0  0  0  0  0  0  0  0  0  0
    1.5791   -2.2125    0.0000 C   0  0  0  0  0  0  0  0  0  0  0  0
    2.1997   -2.7517    0.0000 C   0  0  0  0  0  0  0  0  0  0  0  0
    1.7375   -1.3994    0.0000 C   0  0  0  0  0  0  0  0  0  0  0  0
    3.6204   -3.0427    0.0000 Cl  0  0  0  0  0  0  0  0  0  0  0  0
    3.9200   -1.4037    0.0000 O   0  0  0  0  0  0  0  0  0  0  0  0
    2.6704   -0.3210    0.0000 O   0  0  0  0  0  0  0  0  0  0  0  0
    4.5448   -1.9429    0.0000 C   0  0  0  0  0  0  0  0  0  0  0  0
    3.4450   -0.0428    0.0000 C   0  0  0  0  0  0  0  0  0  0  0  0
    3.5991    0.7660    0.0000 C   0  0  0  0  0  0  0  0  0  0  0  0
  2  1  1  0  0  0  0
  3  1  1  0  0  0  0
  4  9  1  0  0  0  0
  5  8  1  0  0  0  0
  5  4  1  0  0  0  0
  5 10  1  0  0  0  0
  6  2  1  0  0  0  0
  6  7  1  0  0  0  0
  7  3  1  0  0  0  0
  8  6  1  0  0  0  0
  9  7  1  0  0  0  0
 10  4  1  0  0  0  0
 11  1  1  0  0  0  0
 12  8  1  0  0  0  0
 13  9  1  0  0  0  0
 13 12  2  0  0  0  0
 14 16  1  0  0  0  0
 15 23  1  0  0  0  0
 15 14  2  0  0  0  0
 16 24  2  0  0  0  0
 17 28  1  0  0  0  0
 18 17  3  0  0  0  0
 19  2  2  0  0  0  0
 20  3  2  0  0  0  0
 21 11  2  0  0  0  0
 22 21  1  0  0  0  0
 23 22  2  0  0  0  0
 24 22  1  0  0  0  0
 25 15  1  0  0  0  0
 26 14  1  0  0  0  0
 27 16  1  0  0  0  0
 28 26  1  0  0  0  0
 29 27  1  0  0  0  0
 30 29  1  0  0  0  0
M  END
>  <CdId>
1255

>  <Mol Weight>
424.877

>  <Formula>
C23H21ClN2O4

>  <Click_ID>
CLK017B10 __  __  __

$$$$
CLK017D04 __  __  __
 OpenBabel03171413522D

 27 30  0  0  0  0  0  0  0  0999 V2000
    2.7819   -2.5207    0.0000 C   0  0  0  0  0  0  0  0  0  0  0  0
    2.0532   -1.2970    0.0000 C   0  0  0  0  0  0  0  0  0  0  0  0
    2.0670   -2.1174    0.0000 C   0  0  3  0  0  0  0  0  0  0  0  0
    2.7545   -0.8799    0.0000 C   0  0  0  0  0  0  0  0  0  0  0  0
    3.4923   -2.0945    0.0000 C   0  0  0  0  0  0  0  0  0  0  0  0
    3.4785   -1.2787    0.0000 O   0  0  0  0  0  0  0  0  0  0  0  0
    1.3520   -2.5345    0.0000 C   0  0  0  0  0  0  0  0  0  0  0  0
    1.3383   -0.8937    0.0000 C   0  0  0  0  0  0  0  0  0  0  0  0
    2.7911   -3.3319    0.0000 C   0  0  0  0  0  0  0  0  0  0  0  0
    1.3658   -3.3594    0.0000 C   0  0  0  0  0  0  0  0  0  0  0  0
   -1.4665   -5.0597    0.0000 C   0  0  0  0  0  0  0  0  0  0  0  0
    0.6600   -3.7856    0.0000 C   0  0  0  0  0  0  0  0  0  0  0  0
   -1.4528   -5.8846    0.0000 C   0  0  0  0  0  0  0  0  0  0  0  0
    0.6371   -2.1357    0.0000 C   0  0  0  0  0  0  0  0  0  0  0  0
   -0.0641   -3.3869    0.0000 C   0  0  0  0  0  0  0  0  0  0  0  0
    0.6233   -1.3108    0.0000 O   0  0  0  0  0  0  0  0  0  0  0  0
    2.0761   -3.7673    0.0000 O   0  0  0  0  0  0  0  0  0  0  0  0
   -0.0779   -2.5620    0.0000 C   0  0  0  0  0  0  0  0  0  0  0  0
    2.7498   -0.0459    0.0000 C   0  0  0  0  0  0  0  0  0  0  0  0
    4.2119   -2.5023    0.0000 C   0  0  0  0  0  0  0  0  0  0  0  0
    0.6737   -4.6106    0.0000 Br  0  0  0  0  0  0  0  0  0  0  0  0
   -0.7700   -3.8085    0.0000 O   0  0  0  0  0  0  0  0  0  0  0  0
   -0.7562   -4.6381    0.0000 C   0  0  0  0  0  0  0  0  0  0  0  0
    1.3245   -0.0734    0.0000 C   0  0  0  0  0  0  0  0  0  0  0  0
    3.5107   -3.7444    0.0000 C   0  0  0  0  0  0  0  0  0  0  0  0
    2.0257    0.3437    0.0000 C   0  0  0  0  0  0  0  0  0  0  0  0
    4.2210   -3.3273    0.0000 C   0  0  0  0  0  0  0  0  0  0  0  0
  2  3  1  0  0  0  0
  2  4  2  0  0  0  0
  3  1  1  0  0  0  0
  4  6  1  0  0  0  0
  5  1  2  0  0  0  0
  6  5  1  0  0  0  0
  7  3  1  0  0  0  0
  8  2  1  0  0  0  0
  9  1  1  0  0  0  0
 10  7  2  0  0  0  0
 11 23  1  0  0  0  0
 12 10  1  0  0  0  0
 12 15  2  0  0  0  0
 13 11  3  0  0  0  0
 14  7  1  0  0  0  0
 15 18  1  0  0  0  0
 16  8  2  0  0  0  0
 17  9  2  0  0  0  0
 18 14  2  0  0  0  0
 19  4  1  0  0  0  0
 20  5  1  0  0  0  0
 21 12  1  0  0  0  0
 22 15  1  0  0  0  0
 23 22  1  0  0  0  0
 24  8  1  0  0  0  0
 25  9  1  0  0  0  0
 26 19  1  0  0  0  0
 26 24  1  0  0  0  0
 27 25  1  0  0  0  0
 27 20  1  0  0  0  0
M  END
>  <CdId>
1269

>  <Mol Weight>
427.288

>  <Formula>
C22H19BrO4

>  <Click_ID>
CLK017D04 __  __  __

$$$$
CLK017E03 __  __  __
 OpenBabel03171413522D

 27 30  0  0  0  0  0  0  0  0999 V2000
    2.0672   -2.1176    0.0000 C   0  0  3  0  0  0  0  0  0  0  0  0
    2.7823   -2.5210    0.0000 C   0  0  0  0  0  0  0  0  0  0  0  0
    2.0535   -1.2972    0.0000 C   0  0  0  0  0  0  0  0  0  0  0  0
    2.7548   -0.8800    0.0000 C   0  0  0  0  0  0  0  0  0  0  0  0
    3.4927   -2.0947    0.0000 C   0  0  0  0  0  0  0  0  0  0  0  0
    3.4789   -1.2788    0.0000 O   0  0  0  0  0  0  0  0  0  0  0  0
    0.7884   -2.8785    0.0000 C   0  0  0  0  0  0  0  0  0  0  0  0
    1.3384   -0.8938    0.0000 C   0  0  0  0  0  0  0  0  0  0  0  0
    2.7914   -3.3323    0.0000 C   0  0  0  0  0  0  0  0  0  0  0  0
   -0.6829   -0.4171    0.0000 C   0  0  0  0  0  0  0  0  0  0  0  0
   -1.3979   -0.0184    0.0000 C   0  0  0  0  0  0  0  0  0  0  0  0
    0.0688   -2.4751    0.0000 C   0  0  0  0  0  0  0  0  0  0  0  0
    0.8022   -3.7035    0.0000 C   0  0  0  0  0  0  0  0  0  0  0  0
    0.6234   -1.3109    0.0000 O   0  0  0  0  0  0  0  0  0  0  0  0
    2.0763   -3.7677    0.0000 O   0  0  0  0  0  0  0  0  0  0  0  0
   -0.6417   -2.8923    0.0000 C   0  0  0  0  0  0  0  0  0  0  0  0
    0.0963   -4.1252    0.0000 C   0  0  0  0  0  0  0  0  0  0  0  0
    4.2123   -2.5026    0.0000 C   0  0  0  0  0  0  0  0  0  0  0  0
    2.7501   -0.0459    0.0000 C   0  0  0  0  0  0  0  0  0  0  0  0
   -0.6279   -3.7264    0.0000 C   0  0  0  0  0  0  0  0  0  0  0  0
    0.1009   -4.9549    0.0000 Cl  0  0  0  0  0  0  0  0  0  0  0  0
    0.0596   -1.6501    0.0000 O   0  0  0  0  0  0  0  0  0  0  0  0
   -0.6692   -1.2422    0.0000 C   0  0  0  0  0  0  0  0  0  0  0  0
    1.3247   -0.0734    0.0000 C   0  0  0  0  0  0  0  0  0  0  0  0
    3.5110   -3.7448    0.0000 C   0  0  0  0  0  0  0  0  0  0  0  0
    2.0260    0.3438    0.0000 C   0  0  0  0  0  0  0  0  0  0  0  0
    4.2215   -3.3277    0.0000 C   0  0  0  0  0  0  0  0  0  0  0  0
  2  1  1  0  0  0  0
  3  1  1  0  0  0  0
  4  3  2  0  0  0  0
  5  2  2  0  0  0  0
  5  6  1  0  0  0  0
  6  4  1  0  0  0  0
  7  1  1  0  0  0  0
  8  3  1  0  0  0  0
  9  2  1  0  0  0  0
 10 23  1  0  0  0  0
 11 10  3  0  0  0  0
 12  7  1  0  0  0  0
 13  7  2  0  0  0  0
 14  8  2  0  0  0  0
 15  9  2  0  0  0  0
 16 12  2  0  0  0  0
 17 13  1  0  0  0  0
 18  5  1  0  0  0  0
 19  4  1  0  0  0  0
 20 17  2  0  0  0  0
 20 16  1  0  0  0  0
 21 17  1  0  0  0  0
 22 12  1  0  0  0  0
 23 22  1  0  0  0  0
 24  8  1  0  0  0  0
 25  9  1  0  0  0  0
 26 24  1  0  0  0  0
 26 19  1  0  0  0  0
 27 25  1  0  0  0  0
 27 18  1  0  0  0  0
M  END
>  <CdId>
1278

>  <Mol Weight>
382.837

>  <Formula>
C22H19ClO4

>  <Click_ID>
CLK017E03 __  __  __

$$$$
CLK017F02 __  __  __
 OpenBabel03171413522D

 30 33  0  0  0  0  0  0  0  0999 V2000
    2.7817   -2.5205    0.0000 C   0  0  0  0  0  0  0  0  0  0  0  0
    2.0531   -1.2969    0.0000 C   0  0  0  0  0  0  0  0  0  0  0  0
    2.0668   -2.1172    0.0000 C   0  0  3  0  0  0  0  0  0  0  0  0
    2.7542   -0.8799    0.0000 C   0  0  0  0  0  0  0  0  0  0  0  0
    3.4920   -2.0943    0.0000 C   0  0  0  0  0  0  0  0  0  0  0  0
    3.4783   -1.2786    0.0000 O   0  0  0  0  0  0  0  0  0  0  0  0
    1.3519   -2.5343    0.0000 C   0  0  0  0  0  0  0  0  0  0  0  0
   -0.0641   -3.3866    0.0000 C   0  0  0  0  0  0  0  0  0  0  0  0
    0.6599   -3.7853    0.0000 C   0  0  0  0  0  0  0  0  0  0  0  0
   -0.0779   -2.5618    0.0000 C   0  0  0  0  0  0  0  0  0  0  0  0
    2.7909   -3.3317    0.0000 C   0  0  0  0  0  0  0  0  0  0  0  0
    1.3382   -0.8936    0.0000 C   0  0  0  0  0  0  0  0  0  0  0  0
    1.3657   -3.3592    0.0000 C   0  0  0  0  0  0  0  0  0  0  0  0
    0.6370   -2.1356    0.0000 C   0  0  0  0  0  0  0  0  0  0  0  0
   -1.4664   -5.0593    0.0000 C   0  0  0  0  0  0  0  0  0  0  0  0
   -1.4527   -5.8888    0.0000 C   0  0  0  0  0  0  0  0  0  0  0  0
    2.0760   -3.7670    0.0000 O   0  0  0  0  0  0  0  0  0  0  0  0
    0.6233   -1.3107    0.0000 O   0  0  0  0  0  0  0  0  0  0  0  0
    0.6737   -4.6102    0.0000 Br  0  0  0  0  0  0  0  0  0  0  0  0
   -0.7699   -3.8128    0.0000 O   0  0  0  0  0  0  0  0  0  0  0  0
    2.7496   -0.0459    0.0000 C   0  0  0  0  0  0  0  0  0  0  0  0
    4.2115   -2.5022    0.0000 C   0  0  0  0  0  0  0  0  0  0  0  0
   -0.7928   -2.1585    0.0000 O   0  0  0  0  0  0  0  0  0  0  0  0
   -0.7561   -4.6377    0.0000 C   0  0  0  0  0  0  0  0  0  0  0  0
    3.5104   -3.7441    0.0000 C   0  0  0  0  0  0  0  0  0  0  0  0
    1.3244   -0.0734    0.0000 C   0  0  0  0  0  0  0  0  0  0  0  0
    4.2207   -3.3270    0.0000 C   0  0  0  0  0  0  0  0  0  0  0  0
    2.0256    0.3437    0.0000 C   0  0  0  0  0  0  0  0  0  0  0  0
   -0.8065   -1.3336    0.0000 C   0  0  0  0  0  0  0  0  0  0  0  0
   -1.5352   -0.9257    0.0000 C   0  0  0  0  0  0  0  0  0  0  0  0
  2  3  1  0  0  0  0
  2  4  2  0  0  0  0
  3  1  1  0  0  0  0
  4  6  1  0  0  0  0
  5  1  2  0  0  0  0
  6  5  1  0  0  0  0
  7  3  1  0  0  0  0
  8 10  1  0  0  0  0
  9 13  1  0  0  0  0
  9  8  2  0  0  0  0
 10 14  2  0  0  0  0
 11  1  1  0  0  0  0
 12  2  1  0  0  0  0
 13  7  2  0  0  0  0
 14  7  1  0  0  0  0
 15 24  1  0  0  0  0
 16 15  3  0  0  0  0
 17 11  2  0  0  0  0
 18 12  2  0  0  0  0
 19  9  1  0  0  0  0
 20  8  1  0  0  0  0
 21  4  1  0  0  0  0
 22  5  1  0  0  0  0
 23 10  1  0  0  0  0
 24 20  1  0  0  0  0
 25 11  1  0  0  0  0
 26 12  1  0  0  0  0
 27 25  1  0  0  0  0
 27 22  1  0  0  0  0
 28 21  1  0  0  0  0
 28 26  1  0  0  0  0
 29 23  1  0  0  0  0
 30 29  1  0  0  0  0
M  END
>  <CdId>
1287

>  <Mol Weight>
471.34

>  <Formula>
C24H23BrO5

>  <Click_ID>
CLK017F02 __  __  __

$$$$
CLK018C03 __  __  __
 OpenBabel03171413522D

 23 24  0  0  0  0  0  0  0  0999 V2000
    2.5005   -2.9581    0.0000 C   0  0  0  0  0  0  0  0  0  0  0  0
    1.9513   -2.3507    0.0000 C   0  0  0  0  0  0  0  0  0  0  0  0
    0.8404   -1.1400    0.0000 C   0  0  0  0  0  0  0  0  0  0  0  0
    1.6475   -0.9611    0.0000 C   0  0  0  0  0  0  0  0  0  0  0  0
    0.5908   -1.9263    0.0000 C   0  0  0  0  0  0  0  0  0  0  0  0
    3.3118   -2.7833    0.0000 N   0  0  0  0  0  0  0  0  0  0  0  0
    2.2009   -1.5644    0.0000 C   0  0  0  0  0  0  0  0  0  0  0  0
    1.1525   -2.5337    0.0000 C   0  0  0  0  0  0  0  0  0  0  0  0
    6.0452   -3.6238    0.0000 C   0  0  0  0  0  0  0  0  0  0  0  0
    6.6068   -4.2312    0.0000 C   0  0  0  0  0  0  0  0  0  0  0  0
    2.2633   -3.7444    0.0000 O   0  0  0  0  0  0  0  0  0  0  0  0
    3.8734   -3.3867    0.0000 C   0  0  0  0  0  0  0  0  0  0  0  0
    5.2464   -3.8110    0.0000 C   0  0  0  0  0  0  0  0  0  0  0  0
    4.6847   -3.2119    0.0000 C   0  0  0  0  0  0  0  0  0  0  0  0
    0.2871   -0.5284    0.0000 O   0  0  0  0  0  0  0  0  0  0  0  0
    1.8972   -0.1747    0.0000 O   0  0  0  0  0  0  0  0  0  0  0  0
   -0.2080   -2.1094    0.0000 O   0  0  0  0  0  0  0  0  0  0  0  0
    4.1855   -4.7929    0.0000 C   0  0  0  0  0  0  0  0  0  0  0  0
    3.6238   -4.1855    0.0000 C   0  0  0  0  0  0  0  0  0  0  0  0
    4.9926   -4.6098    0.0000 C   0  0  0  0  0  0  0  0  0  0  0  0
    0.5284    0.2579    0.0000 C   0  0  0  0  0  0  0  0  0  0  0  0
    2.7002    0.0000    0.0000 C   0  0  0  0  0  0  0  0  0  0  0  0
   -0.7697   -1.5020    0.0000 C   0  0  0  0  0  0  0  0  0  0  0  0
  2  1  1  0  0  0  0
  3  5  1  0  0  0  0
  3  4  2  0  0  0  0
  4  7  1  0  0  0  0
  5  8  2  0  0  0  0
  6  1  1  0  0  0  0
  7  2  2  0  0  0  0
  8  2  1  0  0  0  0
  9 13  1  0  0  0  0
 10  9  3  0  0  0  0
 11  1  2  0  0  0  0
 12  6  1  0  0  0  0
 13 14  1  0  0  0  0
 13 20  2  0  0  0  0
 14 12  2  0  0  0  0
 15  3  1  0  0  0  0
 16  4  1  0  0  0  0
 17  5  1  0  0  0  0
 18 19  2  0  0  0  0
 19 12  1  0  0  0  0
 20 18  1  0  0  0  0
 21 15  1  0  0  0  0
 22 16  1  0  0  0  0
 23 17  1  0  0  0  0
M  END
>  <CdId>
1338

>  <Mol Weight>
311.3319

>  <Formula>
C18H17NO4

>  <Click_ID>
CLK018C03 __  __  __

$$$$
CLK019B05 __  __  __
 OpenBabel03171413522D

 16 16  0  0  0  0  0  0  0  0999 V2000
   -0.5625   -1.0625    0.0000 C   0  0  0  0  0  0  0  0  0  0  0  0
   -0.1500    0.2125    0.0000 C   0  0  0  0  0  0  0  0  0  0  0  0
   -0.5625   -1.8875    0.0000 N   0  0  0  0  0  0  0  0  0  0  0  0
    0.3375    0.8833    0.0000 C   0  0  0  0  0  0  0  0  0  0  0  0
   -1.2250   -0.5750    0.0000 O   0  0  0  0  0  0  0  0  0  0  0  0
   -0.9750    0.2125    0.0000 C   0  0  0  0  0  0  0  0  0  0  0  0
    0.1042   -0.5750    0.0000 O   0  0  0  0  0  0  0  0  0  0  0  0
   -1.2750   -2.2917    0.0000 C   0  0  0  0  0  0  0  0  0  0  0  0
   -1.9875   -1.8792    0.0000 C   0  0  0  0  0  0  0  0  0  0  0  0
   -2.7000   -2.2917    0.0000 C   0  0  0  0  0  0  0  0  0  0  0  0
   -3.4208   -1.8792    0.0000 Cl  0  0  0  0  0  0  0  0  0  0  0  0
   -1.9833   -3.5292    0.0000 C   0  0  0  0  0  0  0  0  0  0  0  0
   -1.2750   -3.1167    0.0000 C   0  0  0  0  0  0  0  0  0  0  0  0
   -1.7833    0.4333    0.0000 C   0  0  0  0  0  0  0  0  0  0  0  0
   -0.9833    1.0375    0.0000 C   0  0  0  0  0  0  0  0  0  0  0  0
   -2.7083   -3.1167    0.0000 C   0  0  0  0  0  0  0  0  0  0  0  0
  2  6  1  0  0  0  0
  3  1  1  0  0  0  0
  4  2  3  0  0  0  0
  5  1  1  0  0  0  0
  6  5  1  0  0  0  0
  7  1  2  0  0  0  0
  8  3  1  0  0  0  0
  9  8  2  0  0  0  0
 10  9  1  0  0  0  0
 11 10  1  0  0  0  0
 12 13  2  0  0  0  0
 13  8  1  0  0  0  0
 14  6  1  0  0  0  0
 15  6  1  0  0  0  0
 16 12  1  0  0  0  0
 16 10  2  0  0  0  0
M  END
>  <CdId>
1410

>  <Mol Weight>
237.682

>  <Formula>
C12H12ClNO2

>  <Click_ID>
CLK019B05 __  __  __

$$$$
CLK019E05 __  __  __
 OpenBabel03171413522D

 17 18  0  0  0  0  0  0  0  0999 V2000
    6.3875   -3.5542    0.0000 N   0  0  0  0  0  0  0  0  0  0  0  0
    4.9625   -3.5625    0.0000 C   0  0  0  0  0  0  0  0  0  0  0  0
    5.6750   -3.1500    0.0000 C   0  0  0  0  0  0  0  0  0  0  0  0
    4.9625   -4.3917    0.0000 N   0  0  0  0  0  0  0  0  0  0  0  0
    6.3917   -4.3792    0.0000 C   0  0  0  0  0  0  0  0  0  0  0  0
    5.6792   -4.8000    0.0000 N   0  0  0  0  0  0  0  0  0  0  0  0
    7.8167   -6.0375    0.0000 C   0  0  0  0  0  0  0  0  0  0  0  0
    8.5375   -6.4500    0.0000 C   0  0  0  0  0  0  0  0  0  0  0  0
    4.2500   -3.1542    0.0000 C   0  0  0  0  0  0  0  0  0  0  0  0
    7.1042   -4.8000    0.0000 S   0  0  0  0  0  0  0  0  0  0  0  0
    5.6667   -2.3250    0.0000 O   0  0  0  0  0  0  0  0  0  0  0  0
    7.1042   -5.6250    0.0000 C   0  0  0  0  0  0  0  0  0  0  0  0
    3.5292   -3.5667    0.0000 C   0  0  0  0  0  0  0  0  0  0  0  0
    4.2500   -2.3250    0.0000 C   0  0  0  0  0  0  0  0  0  0  0  0
    2.8167   -3.1542    0.0000 C   0  0  0  0  0  0  0  0  0  0  0  0
    3.5292   -1.9125    0.0000 C   0  0  0  0  0  0  0  0  0  0  0  0
    2.8167   -2.3250    0.0000 C   0  0  0  0  0  0  0  0  0  0  0  0
  2  3  1  0  0  0  0
  2  4  2  0  0  0  0
  3  1  2  0  0  0  0
  4  6  1  0  0  0  0
  5  1  1  0  0  0  0
  6  5  2  0  0  0  0
  7 12  1  0  0  0  0
  8  7  3  0  0  0  0
  9  2  1  0  0  0  0
 10  5  1  0  0  0  0
 11  3  1  0  0  0  0
 12 10  1  0  0  0  0
 13  9  2  0  0  0  0
 14  9  1  0  0  0  0
 15 13  1  0  0  0  0
 16 14  2  0  0  0  0
 17 16  1  0  0  0  0
 17 15  2  0  0  0  0
M  END
>  <CdId>
1440

>  <Mol Weight>
243.284

>  <Formula>
C12H9N3OS

>  <Click_ID>
CLK019E05 __  __  __

$$$$
CLK019F03 __  __  __
 OpenBabel03171413522D

 27 30  0  0  0  0  0  0  0  0999 V2000
    6.1354   -0.1676    0.0000 C   0  0  0  0  0  0  0  0  0  0  0  0
    5.3062   -0.1676    0.0000 C   0  0  3  0  0  0  0  0  0  0  0  0
    6.5500   -0.8837    0.0000 C   0  0  0  0  0  0  0  0  0  0  0  0
    4.8999   -0.8837    0.0000 C   0  0  0  0  0  0  0  0  0  0  0  0
    5.3062   -1.5998    0.0000 C   0  0  0  0  0  0  0  0  0  0  0  0
    4.8916    0.5528    0.0000 C   0  0  0  0  0  0  0  0  0  0  0  0
    6.1354   -1.5998    0.0000 O   0  0  0  0  0  0  0  0  0  0  0  0
    4.0749   -0.8837    0.0000 C   0  0  0  0  0  0  0  0  0  0  0  0
    4.8999   -2.3160    0.0000 C   0  0  0  0  0  0  0  0  0  0  0  0
    6.5500    0.5486    0.0000 C   0  0  0  0  0  0  0  0  0  0  0  0
    3.6603   -1.5998    0.0000 C   0  0  0  0  0  0  0  0  0  0  0  0
    4.0749   -2.3160    0.0000 C   0  0  0  0  0  0  0  0  0  0  0  0
    6.9647    1.2647    0.0000 N   0  0  0  0  0  0  0  0  0  0  0  0
    7.3541    1.9725    0.0000 C   0  0  0  0  0  0  0  0  0  0  0  0
    8.1708    1.9809    0.0000 C   0  0  0  0  0  0  0  0  0  0  0  0
    5.3062    1.2647    0.0000 C   0  0  0  0  0  0  0  0  0  0  0  0
    4.0707    0.5528    0.0000 C   0  0  0  0  0  0  0  0  0  0  0  0
    2.8520   -1.7757    0.0000 O   0  0  0  0  0  0  0  0  0  0  0  0
    3.5221   -2.9316    0.0000 O   0  0  0  0  0  0  0  0  0  0  0  0
    2.7683   -2.6007    0.0000 C   0  0  0  0  0  0  0  0  0  0  0  0
    7.3793   -0.8920    0.0000 N   0  0  0  0  0  0  0  0  0  0  0  0
    4.8916    1.9809    0.0000 C   0  0  0  0  0  0  0  0  0  0  0  0
    3.6561    1.2690    0.0000 C   0  0  0  0  0  0  0  0  0  0  0  0
    4.0624    1.9851    0.0000 C   0  0  0  0  0  0  0  0  0  0  0  0
    2.8311    1.2690    0.0000 Br  0  0  0  0  0  0  0  0  0  0  0  0
    6.1229    1.2647    0.0000 O   0  0  0  0  0  0  0  0  0  0  0  0
    6.5375    1.9725    0.0000 C   0  0  0  0  0  0  0  0  0  0  0  0
  2  1  1  0  0  0  0
  3  1  2  0  0  0  0
  4  2  1  0  0  0  0
  4  5  2  0  0  0  0
  5  7  1  0  0  0  0
  6  2  1  0  0  0  0
  7  3  1  0  0  0  0
  8  4  1  0  0  0  0
  9  5  1  0  0  0  0
 10  1  1  0  0  0  0
 11  8  2  0  0  0  0
 11 12  1  0  0  0  0
 12  9  2  0  0  0  0
 13 10  3  0  0  0  0
 14 27  1  0  0  0  0
 15 14  3  0  0  0  0
 16  6  2  0  0  0  0
 17  6  1  0  0  0  0
 18 11  1  0  0  0  0
 19 12  1  0  0  0  0
 20 18  1  0  0  0  0
 20 19  1  0  0  0  0
 21  3  1  0  0  0  0
 22 16  1  0  0  0  0
 22 24  2  0  0  0  0
 23 17  2  0  0  0  0
 24 23  1  0  0  0  0
 25 23  1  0  0  0  0
 26 16  1  0  0  0  0
 27 26  1  0  0  0  0
M  END
>  <CdId>
1448

>  <Mol Weight>
425.232

>  <Formula>
C20H13BrN2O4

>  <Click_ID>
CLK019F03 __  __  __

$$$$
CLK019F05 __  __  __
 OpenBabel03171413522D

 25 27  0  0  0  0  0  0  0  0999 V2000
    1.4500   -1.4542    0.0000 C   0  0  0  0  0  0  0  0  0  0  0  0
    1.4500   -0.6250    0.0000 C   0  0  0  0  0  0  0  0  0  0  0  0
    2.2417   -1.7125    0.0000 N   0  0  0  0  0  0  0  0  0  0  0  0
    0.7292   -1.8667    0.0000 N   0  0  0  0  0  0  0  0  0  0  0  0
    0.0167   -0.6250    0.0000 N   0  0  0  0  0  0  0  0  0  0  0  0
    2.2417   -0.3667    0.0000 N   0  0  0  0  0  0  0  0  0  0  0  0
    0.0167   -1.4542    0.0000 C   0  0  0  0  0  0  0  0  0  0  0  0
    0.7292   -0.2042    0.0000 C   0  0  0  0  0  0  0  0  0  0  0  0
    2.7292   -1.0417    0.0000 C   0  0  0  0  0  0  0  0  0  0  0  0
    2.4917    0.4208    0.0000 C   0  0  0  0  0  0  0  0  0  0  0  0
    4.7917   -1.7542    0.0000 C   0  0  0  0  0  0  0  0  0  0  0  0
   -0.6958   -1.8667    0.0000 O   0  0  0  0  0  0  0  0  0  0  0  0
    0.7292    0.6208    0.0000 O   0  0  0  0  0  0  0  0  0  0  0  0
    5.2042   -2.4667    0.0000 C   0  0  0  0  0  0  0  0  0  0  0  0
    3.5542   -1.0417    0.0000 O   0  0  0  0  0  0  0  0  0  0  0  0
    0.7292   -2.6917    0.0000 C   0  0  0  0  0  0  0  0  0  0  0  0
   -0.6958   -0.2125    0.0000 C   0  0  0  0  0  0  0  0  0  0  0  0
    3.3042    0.5958    0.0000 C   0  0  0  0  0  0  0  0  0  0  0  0
    4.9125    0.9375    0.0000 C   0  0  0  0  0  0  0  0  0  0  0  0
    5.7167    1.1083    0.0000 Cl  0  0  0  0  0  0  0  0  0  0  0  0
    3.8542   -0.0167    0.0000 C   0  0  0  0  0  0  0  0  0  0  0  0
    3.5542    1.3750    0.0000 C   0  0  0  0  0  0  0  0  0  0  0  0
    4.3542    1.5500    0.0000 C   0  0  0  0  0  0  0  0  0  0  0  0
    4.6542    0.1500    0.0000 C   0  0  0  0  0  0  0  0  0  0  0  0
    3.9667   -1.7542    0.0000 C   0  0  0  0  0  0  0  0  0  0  0  0
  2  1  2  0  0  0  0
  3  1  1  0  0  0  0
  4  1  1  0  0  0  0
  5  7  1  0  0  0  0
  6  2  1  0  0  0  0
  7  4  1  0  0  0  0
  8  2  1  0  0  0  0
  8  5  1  0  0  0  0
  9  3  2  0  0  0  0
  9  6  1  0  0  0  0
 10  6  1  0  0  0  0
 11 25  1  0  0  0  0
 12  7  2  0  0  0  0
 13  8  2  0  0  0  0
 14 11  3  0  0  0  0
 15  9  1  0  0  0  0
 16  4  1  0  0  0  0
 17  5  1  0  0  0  0
 18 10  1  0  0  0  0
 19 23  1  0  0  0  0
 20 19  1  0  0  0  0
 21 18  2  0  0  0  0
 22 18  1  0  0  0  0
 23 22  2  0  0  0  0
 24 21  1  0  0  0  0
 24 19  2  0  0  0  0
 25 15  1  0  0  0  0
M  END
>  <CdId>
1450

>  <Mol Weight>
358.779

>  <Formula>
C17H15ClN4O3

>  <Click_ID>
CLK019F05 __  __  __

$$$$
CLK020D06 __  __  __
 OpenBabel03171413522D

 25 27  0  0  0  0  0  0  0  0999 V2000
    5.5321    3.2816    0.0000 C   0  0  0  0  0  0  0  0  0  0  0  0
    4.8171    3.6941    0.0000 C   0  0  0  0  0  0  0  0  0  0  0  0
    5.6146    2.4566    0.0000 N   0  0  0  0  0  0  0  0  0  0  0  0
    6.2837    3.6116    0.0000 N   0  0  0  0  0  0  0  0  0  0  0  0
    4.1021    3.2816    0.0000 C   0  0  0  0  0  0  0  0  0  0  0  0
    4.1021    2.4566    0.0000 C   0  0  0  0  0  0  0  0  0  0  0  0
    4.8171    4.5054    0.0000 C   0  0  0  0  0  0  0  0  0  0  0  0
    6.4259    2.2871    0.0000 C   0  0  0  0  0  0  0  0  0  0  0  0
    6.8384    2.9975    0.0000 C   0  0  0  0  0  0  0  0  0  0  0  0
    4.8171    5.3304    0.0000 N   0  0  0  0  0  0  0  0  0  0  0  0
    1.2421    2.4566    0.0000 C   0  0  0  0  0  0  0  0  0  0  0  0
    0.5271    2.8691    0.0000 C   0  0  0  0  0  0  0  0  0  0  0  0
    3.3871    2.0441    0.0000 C   0  0  0  0  0  0  0  0  0  0  0  0
    4.8171    2.0441    0.0000 C   0  0  0  0  0  0  0  0  0  0  0  0
    3.3871    1.2191    0.0000 C   0  0  0  0  0  0  0  0  0  0  0  0
    4.8171    1.2191    0.0000 C   0  0  0  0  0  0  0  0  0  0  0  0
    4.1021    0.8066    0.0000 C   0  0  0  0  0  0  0  0  0  0  0  0
    2.6721    2.4566    0.0000 O   0  0  0  0  0  0  0  0  0  0  0  0
    1.9571    2.0441    0.0000 C   0  0  0  0  0  0  0  0  0  0  0  0
    5.5321    0.8066    0.0000 O   0  0  0  0  0  0  0  0  0  0  0  0
    6.8384    1.5766    0.0000 C   0  0  0  0  0  0  0  0  0  0  0  0
    7.6634    2.9975    0.0000 C   0  0  0  0  0  0  0  0  0  0  0  0
    5.5321   -0.0184    0.0000 C   0  0  0  0  0  0  0  0  0  0  0  0
    8.0759    2.2871    0.0000 C   0  0  0  0  0  0  0  0  0  0  0  0
    7.6634    1.5766    0.0000 C   0  0  0  0  0  0  0  0  0  0  0  0
  2  1  1  0  0  0  0
  3  1  2  0  0  0  0
  4  1  1  0  0  0  0
  5  2  2  0  0  0  0
  6  5  1  0  0  0  0
  7  2  1  0  0  0  0
  8  3  1  0  0  0  0
  8  9  2  0  0  0  0
  9  4  1  0  0  0  0
 10  7  3  0  0  0  0
 11 19  1  0  0  0  0
 12 11  3  0  0  0  0
 13  6  2  0  0  0  0
 14  6  1  0  0  0  0
 15 13  1  0  0  0  0
 15 17  2  0  0  0  0
 16 14  2  0  0  0  0
 17 16  1  0  0  0  0
 18 13  1  0  0  0  0
 19 18  1  0  0  0  0
 20 16  1  0  0  0  0
 21  8  1  0  0  0  0
 22  9  1  0  0  0  0
 23 20  1  0  0  0  0
 24 22  2  0  0  0  0
 24 25  1  0  0  0  0
 25 21  2  0  0  0  0
M  END
>  <CdId>
1511

>  <Mol Weight>
329.352

>  <Formula>
C20H15N3O2

>  <Click_ID>
CLK020D06 __  __  __

$$$$
CLK020G06 __  __  __
 OpenBabel03171413522D

 18 18  0  0  0  0  0  0  0  0999 V2000
    5.5454    1.7277    0.0000 C   0  0  0  0  0  0  0  0  0  0  0  0
    6.3290    1.9752    0.0000 C   0  0  0  0  0  0  0  0  0  0  0  0
    4.8854    2.2089    0.0000 C   0  0  0  0  0  0  0  0  0  0  0  0
    5.2979    0.9349    0.0000 C   0  0  0  0  0  0  0  0  0  0  0  0
    4.4730    0.9349    0.0000 S   0  0  0  0  0  0  0  0  0  0  0  0
    4.2117    1.7277    0.0000 C   0  0  0  0  0  0  0  0  0  0  0  0
    6.9477    1.4253    0.0000 N   0  0  0  0  0  0  0  0  0  0  0  0
    8.1805    0.9853    0.0000 C   0  0  0  0  0  0  0  0  0  0  0  0
    8.6342    0.2979    0.0000 C   0  0  0  0  0  0  0  0  0  0  0  0
    7.7314    1.6773    0.0000 C   0  0  0  0  0  0  0  0  0  0  0  0
    6.5078    2.7864    0.0000 O   0  0  0  0  0  0  0  0  0  0  0  0
    4.8854    3.0339    0.0000 C   0  0  0  0  0  0  0  0  0  0  0  0
    3.4281    1.9752    0.0000 C   0  0  0  0  0  0  0  0  0  0  0  0
    8.4601    2.0714    0.0000 C   0  0  0  0  0  0  0  0  0  0  0  0
    7.4106    2.4427    0.0000 C   0  0  0  0  0  0  0  0  0  0  0  0
    4.1705    3.4463    0.0000 C   0  0  0  0  0  0  0  0  0  0  0  0
    7.9055    3.1026    0.0000 C   0  0  0  0  0  0  0  0  0  0  0  0
    9.1613    1.6315    0.0000 C   0  0  0  0  0  0  0  0  0  0  0  0
  2  1  1  0  0  0  0
  3  1  1  0  0  0  0
  4  1  2  0  0  0  0
  5  4  1  0  0  0  0
  5  6  1  0  0  0  0
  6  3  2  0  0  0  0
  7  2  1  0  0  0  0
  8 10  1  0  0  0  0
  9  8  3  0  0  0  0
 10  7  1  0  0  0  0
 11  2  2  0  0  0  0
 12  3  1  0  0  0  0
 13  6  1  0  0  0  0
 14 10  1  0  0  0  0
 15 10  1  0  0  0  0
 16 12  1  0  0  0  0
 17 15  1  0  0  0  0
 18 14  1  0  0  0  0
M  END
>  <CdId>
1541

>  <Mol Weight>
263.398

>  <Formula>
C15H21NOS

>  <Click_ID>
CLK020G06 __  __  __

$$$$
CLK020H07 __  __  __
 OpenBabel03171413522D

 20 21  0  0  0  0  0  0  0  0999 V2000
    5.7440    1.2264    0.0000 C   0  0  0  0  0  0  0  0  0  0  0  0
    6.4573    1.6477    0.0000 C   0  0  0  0  0  0  0  0  0  0  0  0
    3.6041   -0.8427    0.0000 C   0  0  0  0  0  0  0  0  0  0  0  0
    4.3216   -1.2514    0.0000 N   0  0  0  0  0  0  0  0  0  0  0  0
    5.0349   -0.8384    0.0000 C   0  0  0  0  0  0  0  0  0  0  0  0
    3.5958   -0.0167    0.0000 O   0  0  0  0  0  0  0  0  0  0  0  0
    5.7482    0.4005    0.0000 C   0  0  0  0  0  0  0  0  0  0  0  0
    2.1691   -0.8427    0.0000 O   0  0  0  0  0  0  0  0  0  0  0  0
    2.8908   -1.2556    0.0000 C   0  0  0  0  0  0  0  0  0  0  0  0
    5.0349   -0.0125    0.0000 C   0  0  0  0  0  0  0  0  0  0  0  0
    1.4558   -1.2639    0.0000 C   0  0  0  0  0  0  0  0  0  0  0  0
    0.0292   -2.0941    0.0000 C   0  0  0  0  0  0  0  0  0  0  0  0
   -0.6883   -2.5070    0.0000 Cl  0  0  0  0  0  0  0  0  0  0  0  0
    1.4558   -2.0941    0.0000 C   0  0  0  0  0  0  0  0  0  0  0  0
    0.7425   -0.8510    0.0000 C   0  0  0  0  0  0  0  0  0  0  0  0
    0.7425   -2.5070    0.0000 C   0  0  0  0  0  0  0  0  0  0  0  0
    0.0292   -1.2639    0.0000 C   0  0  0  0  0  0  0  0  0  0  0  0
    6.4615   -0.8384    0.0000 C   0  0  0  0  0  0  0  0  0  0  0  0
    5.7482   -1.2514    0.0000 C   0  0  0  0  0  0  0  0  0  0  0  0
    6.4698   -0.0125    0.0000 C   0  0  0  0  0  0  0  0  0  0  0  0
  2  1  3  0  0  0  0
  3  4  1  0  0  0  0
  4  5  1  0  0  0  0
  5 10  1  0  0  0  0
  6  3  2  0  0  0  0
  7  1  1  0  0  0  0
  8  9  1  0  0  0  0
  9  3  1  0  0  0  0
 10  7  2  0  0  0  0
 11  8  1  0  0  0  0
 12 17  2  0  0  0  0
 13 12  1  0  0  0  0
 14 11  1  0  0  0  0
 15 11  2  0  0  0  0
 16 14  2  0  0  0  0
 16 12  1  0  0  0  0
 17 15  1  0  0  0  0
 18 20  2  0  0  0  0
 19 18  1  0  0  0  0
 19  5  2  0  0  0  0
 20  7  1  0  0  0  0
M  END
>  <CdId>
1552

>  <Mol Weight>
285.725

>  <Formula>
C16H12ClNO2

>  <Click_ID>
CLK020H07 __  __  __

$$$$
CLK020H11 __  __  __
 OpenBabel03171413522D

 18 19  0  0  0  0  0  0  0  0999 V2000
    2.3281   -0.4290    0.0000 C   0  0  0  0  0  0  0  0  0  0  0  0
   -0.5830    0.2999    0.0000 C   0  0  0  0  0  0  0  0  0  0  0  0
   -0.1707    1.0203    0.0000 C   0  0  0  0  0  0  0  0  0  0  0  0
    1.8908   -1.1287    0.0000 N   0  0  0  0  0  0  0  0  0  0  0  0
    1.9366    0.2957    0.0000 O   0  0  0  0  0  0  0  0  0  0  0  0
    1.0662   -1.1287    0.0000 C   0  0  0  0  0  0  0  0  0  0  0  0
    3.1528   -0.4540    0.0000 C   0  0  0  0  0  0  0  0  0  0  0  0
   -0.1707   -0.4123    0.0000 C   0  0  0  0  0  0  0  0  0  0  0  0
    0.6539   -0.4123    0.0000 C   0  0  0  0  0  0  0  0  0  0  0  0
    3.5901    0.2457    0.0000 C   0  0  0  0  0  0  0  0  0  0  0  0
   -0.1624   -1.8409    0.0000 C   0  0  0  0  0  0  0  0  0  0  0  0
    0.6539   -1.8409    0.0000 C   0  0  0  0  0  0  0  0  0  0  0  0
   -0.5830   -1.1287    0.0000 C   0  0  0  0  0  0  0  0  0  0  0  0
    4.4105    0.2207    0.0000 C   0  0  0  0  0  0  0  0  0  0  0  0
    3.1902    0.9704    0.0000 C   0  0  0  0  0  0  0  0  0  0  0  0
    3.6275    1.6700    0.0000 C   0  0  0  0  0  0  0  0  0  0  0  0
    4.8395    0.9204    0.0000 C   0  0  0  0  0  0  0  0  0  0  0  0
    4.4522    1.6450    0.0000 C   0  0  0  0  0  0  0  0  0  0  0  0
  2  8  1  0  0  0  0
  3  2  3  0  0  0  0
  4  1  1  0  0  0  0
  5  1  2  0  0  0  0
  6  4  1  0  0  0  0
  7  1  1  0  0  0  0
  8  9  1  0  0  0  0
  8 13  2  0  0  0  0
  9  6  2  0  0  0  0
 10  7  1  0  0  0  0
 11 12  2  0  0  0  0
 12  6  1  0  0  0  0
 13 11  1  0  0  0  0
 14 10  2  0  0  0  0
 15 10  1  0  0  0  0
 16 15  2  0  0  0  0
 17 14  1  0  0  0  0
 17 18  2  0  0  0  0
 18 16  1  0  0  0  0
M  END
>  <CdId>
1556

>  <Mol Weight>
235.2805

>  <Formula>
C16H13NO

>  <Click_ID>
CLK020H11 __  __  __

$$$$
CLK021C09 __  __  __
 OpenBabel03171413522D

 20 22  0  0  0  0  0  0  0  0999 V2000
    0.4719    1.5254    0.0000 C   0  0  0  0  0  0  0  0  0  0  0  0
    0.5634    2.3453    0.0000 N   0  0  0  0  0  0  0  0  0  0  0  0
    1.2277    1.1910    0.0000 N   0  0  0  0  0  0  0  0  0  0  0  0
    1.7774    1.8003    0.0000 C   0  0  0  0  0  0  0  0  0  0  0  0
    1.3651    2.5149    0.0000 C   0  0  0  0  0  0  0  0  0  0  0  0
    2.1850    0.1328    0.0000 C   0  0  0  0  0  0  0  0  0  0  0  0
    2.9684   -0.1283    0.0000 C   0  0  0  0  0  0  0  0  0  0  0  0
   -0.2427    1.1131    0.0000 C   0  0  0  0  0  0  0  0  0  0  0  0
    1.4017    0.3802    0.0000 C   0  0  0  0  0  0  0  0  0  0  0  0
   -0.9573    1.5254    0.0000 C   0  0  0  0  0  0  0  0  0  0  0  0
   -1.6720    1.1131    0.0000 C   0  0  0  0  0  0  0  0  0  0  0  0
    2.6019    1.8003    0.0000 C   0  0  0  0  0  0  0  0  0  0  0  0
    1.7774    3.2295    0.0000 C   0  0  0  0  0  0  0  0  0  0  0  0
   -2.3866    1.5254    0.0000 C   0  0  0  0  0  0  0  0  0  0  0  0
   -1.6720    0.2886    0.0000 C   0  0  0  0  0  0  0  0  0  0  0  0
    3.0142    2.5149    0.0000 C   0  0  0  0  0  0  0  0  0  0  0  0
    2.6019    3.2295    0.0000 C   0  0  0  0  0  0  0  0  0  0  0  0
   -2.3866   -0.1237    0.0000 C   0  0  0  0  0  0  0  0  0  0  0  0
   -3.0920    1.1131    0.0000 C   0  0  0  0  0  0  0  0  0  0  0  0
   -3.0920    0.2886    0.0000 C   0  0  0  0  0  0  0  0  0  0  0  0
  2  1  2  0  0  0  0
  3  1  1  0  0  0  0
  4  3  1  0  0  0  0
  5  2  1  0  0  0  0
  5  4  1  0  0  0  0
  6  9  1  0  0  0  0
  7  6  3  0  0  0  0
  8  1  1  0  0  0  0
  9  3  1  0  0  0  0
 10  8  1  0  0  0  0
 11 10  1  0  0  0  0
 12  4  2  0  0  0  0
 13  5  2  0  0  0  0
 14 11  2  0  0  0  0
 15 11  1  0  0  0  0
 16 12  1  0  0  0  0
 17 13  1  0  0  0  0
 17 16  2  0  0  0  0
 18 15  2  0  0  0  0
 19 14  1  0  0  0  0
 19 20  2  0  0  0  0
 20 18  1  0  0  0  0
M  END
>  <CdId>
1584

>  <Mol Weight>
260.333

>  <Formula>
C18H16N2

>  <Click_ID>
CLK021C09 __  __  __

$$$$
CLK021D07 __  __  __
 OpenBabel03171413522D

 19 21  0  0  0  0  0  0  0  0999 V2000
    3.6611    2.0207    0.0000 C   0  0  0  0  0  0  0  0  0  0  0  0
    3.1800    1.3563    0.0000 N   0  0  0  0  0  0  0  0  0  0  0  0
    3.1800    2.6896    0.0000 N   0  0  0  0  0  0  0  0  0  0  0  0
    4.4859    2.0207    0.0000 C   0  0  0  0  0  0  0  0  0  0  0  0
    2.3965    2.4331    0.0000 C   0  0  0  0  0  0  0  0  0  0  0  0
    2.3965    1.6083    0.0000 C   0  0  0  0  0  0  0  0  0  0  0  0
    2.8776    4.0826    0.0000 C   0  0  0  0  0  0  0  0  0  0  0  0
    2.3277    4.6921    0.0000 C   0  0  0  0  0  0  0  0  0  0  0  0
    4.8983    1.3059    0.0000 C   0  0  0  0  0  0  0  0  0  0  0  0
    3.4274    3.4732    0.0000 C   0  0  0  0  0  0  0  0  0  0  0  0
    4.4859    0.5911    0.0000 Br  0  0  0  0  0  0  0  0  0  0  0  0
    4.8983    2.7355    0.0000 C   0  0  0  0  0  0  0  0  0  0  0  0
    1.6817    2.8455    0.0000 C   0  0  0  0  0  0  0  0  0  0  0  0
    1.6817    1.1959    0.0000 C   0  0  0  0  0  0  0  0  0  0  0  0
    5.7230    1.3059    0.0000 C   0  0  0  0  0  0  0  0  0  0  0  0
    5.7230    2.7355    0.0000 C   0  0  0  0  0  0  0  0  0  0  0  0
    0.9669    2.4331    0.0000 C   0  0  0  0  0  0  0  0  0  0  0  0
    0.9669    1.6083    0.0000 C   0  0  0  0  0  0  0  0  0  0  0  0
    6.1354    2.0207    0.0000 C   0  0  0  0  0  0  0  0  0  0  0  0
  2  1  2  0  0  0  0
  3  1  1  0  0  0  0
  4  1  1  0  0  0  0
  5  3  1  0  0  0  0
  6  2  1  0  0  0  0
  6  5  1  0  0  0  0
  7 10  1  0  0  0  0
  8  7  3  0  0  0  0
  9  4  2  0  0  0  0
 10  3  1  0  0  0  0
 11  9  1  0  0  0  0
 12  4  1  0  0  0  0
 13  5  2  0  0  0  0
 14  6  2  0  0  0  0
 15  9  1  0  0  0  0
 15 19  2  0  0  0  0
 16 12  2  0  0  0  0
 17 13  1  0  0  0  0
 18 14  1  0  0  0  0
 18 17  2  0  0  0  0
 19 16  1  0  0  0  0
M  END
>  <CdId>
1592

>  <Mol Weight>
311.176

>  <Formula>
C16H11BrN2

>  <Click_ID>
CLK021D07 __  __  __

$$$$
CLK021D08 __  __  __
 OpenBabel03171413522D

 19 21  0  0  0  0  0  0  0  0999 V2000
    7.3934    2.6477    0.0000 C   0  0  0  0  0  0  0  0  0  0  0  0
    7.3109    1.8231    0.0000 N   0  0  0  0  0  0  0  0  0  0  0  0
    6.6422    2.9775    0.0000 N   0  0  0  0  0  0  0  0  0  0  0  0
    6.0879    2.3728    0.0000 C   0  0  0  0  0  0  0  0  0  0  0  0
    6.5001    1.6582    0.0000 C   0  0  0  0  0  0  0  0  0  0  0  0
    8.1080    3.0599    0.0000 C   0  0  0  0  0  0  0  0  0  0  0  0
    5.6802    4.0403    0.0000 C   0  0  0  0  0  0  0  0  0  0  0  0
    4.8969    4.2967    0.0000 C   0  0  0  0  0  0  0  0  0  0  0  0
    8.8226    2.6477    0.0000 C   0  0  0  0  0  0  0  0  0  0  0  0
    6.4727    3.7883    0.0000 C   0  0  0  0  0  0  0  0  0  0  0  0
    9.5372    3.0599    0.0000 C   0  0  0  0  0  0  0  0  0  0  0  0
    8.1080    3.8845    0.0000 C   0  0  0  0  0  0  0  0  0  0  0  0
    5.2633    2.3728    0.0000 C   0  0  0  0  0  0  0  0  0  0  0  0
    6.0879    0.9436    0.0000 C   0  0  0  0  0  0  0  0  0  0  0  0
    8.8226    4.2967    0.0000 C   0  0  0  0  0  0  0  0  0  0  0  0
    9.5372    3.8845    0.0000 C   0  0  0  0  0  0  0  0  0  0  0  0
   10.2518    2.6477    0.0000 C   0  0  0  0  0  0  0  0  0  0  0  0
    4.8511    1.6582    0.0000 C   0  0  0  0  0  0  0  0  0  0  0  0
    5.2633    0.9436    0.0000 C   0  0  0  0  0  0  0  0  0  0  0  0
  2  1  2  0  0  0  0
  3  1  1  0  0  0  0
  4  3  1  0  0  0  0
  5  2  1  0  0  0  0
  5  4  1  0  0  0  0
  6  1  1  0  0  0  0
  7 10  1  0  0  0  0
  8  7  3  0  0  0  0
  9  6  2  0  0  0  0
 10  3  1  0  0  0  0
 11  9  1  0  0  0  0
 11 16  2  0  0  0  0
 12  6  1  0  0  0  0
 13  4  2  0  0  0  0
 14  5  2  0  0  0  0
 15 12  2  0  0  0  0
 16 15  1  0  0  0  0
 17 11  1  0  0  0  0
 18 13  1  0  0  0  0
 19 14  1  0  0  0  0
 19 18  2  0  0  0  0
M  END
>  <CdId>
1593

>  <Mol Weight>
246.3065

>  <Formula>
C17H14N2

>  <Click_ID>
CLK021D08 __  __  __

$$$$
CLK021F09 __  __  __
 OpenBabel03171413522D

 19 21  0  0  0  0  0  0  0  0999 V2000
    3.9371    2.9241    0.0000 C   0  0  0  0  0  0  0  0  0  0  0  0
    3.8546    2.0991    0.0000 N   0  0  0  0  0  0  0  0  0  0  0  0
    3.1900    3.2541    0.0000 N   0  0  0  0  0  0  0  0  0  0  0  0
    2.6309    2.6400    0.0000 C   0  0  0  0  0  0  0  0  0  0  0  0
    3.0434    1.9250    0.0000 C   0  0  0  0  0  0  0  0  0  0  0  0
    4.6521    3.3366    0.0000 C   0  0  0  0  0  0  0  0  0  0  0  0
    2.2321    4.3175    0.0000 C   0  0  0  0  0  0  0  0  0  0  0  0
    1.4484    4.5650    0.0000 C   0  0  0  0  0  0  0  0  0  0  0  0
    3.0159    4.0654    0.0000 C   0  0  0  0  0  0  0  0  0  0  0  0
    5.3671    2.9241    0.0000 C   0  0  0  0  0  0  0  0  0  0  0  0
    1.8059    2.6400    0.0000 C   0  0  0  0  0  0  0  0  0  0  0  0
    4.6521    4.1616    0.0000 C   0  0  0  0  0  0  0  0  0  0  0  0
    2.6309    1.2191    0.0000 C   0  0  0  0  0  0  0  0  0  0  0  0
    5.3671    2.0991    0.0000 C   0  0  0  0  0  0  0  0  0  0  0  0
    6.0821    3.3366    0.0000 C   0  0  0  0  0  0  0  0  0  0  0  0
    1.3934    1.9250    0.0000 C   0  0  0  0  0  0  0  0  0  0  0  0
    5.3671    4.5650    0.0000 C   0  0  0  0  0  0  0  0  0  0  0  0
    1.8059    1.2191    0.0000 C   0  0  0  0  0  0  0  0  0  0  0  0
    6.0821    4.1616    0.0000 C   0  0  0  0  0  0  0  0  0  0  0  0
  2  1  2  0  0  0  0
  3  1  1  0  0  0  0
  4  3  1  0  0  0  0
  5  2  1  0  0  0  0
  5  4  1  0  0  0  0
  6  1  1  0  0  0  0
  7  9  1  0  0  0  0
  8  7  3  0  0  0  0
  9  3  1  0  0  0  0
 10  6  2  0  0  0  0
 11  4  2  0  0  0  0
 12  6  1  0  0  0  0
 13  5  2  0  0  0  0
 14 10  1  0  0  0  0
 15 10  1  0  0  0  0
 15 19  2  0  0  0  0
 16 11  1  0  0  0  0
 17 12  2  0  0  0  0
 18 13  1  0  0  0  0
 18 16  2  0  0  0  0
 19 17  1  0  0  0  0
M  END
>  <CdId>
1614

>  <Mol Weight>
246.3065

>  <Formula>
C17H14N2

>  <Click_ID>
CLK021F09 __  __  __

$$$$
CLK021H07 __  __  __
 OpenBabel03171413522D

 20 22  0  0  0  0  0  0  0  0999 V2000
    0.4719    1.5254    0.0000 C   0  0  0  0  0  0  0  0  0  0  0  0
    0.5634    2.3453    0.0000 N   0  0  0  0  0  0  0  0  0  0  0  0
    1.2277    1.1910    0.0000 N   0  0  0  0  0  0  0  0  0  0  0  0
    1.7774    1.8003    0.0000 C   0  0  0  0  0  0  0  0  0  0  0  0
    1.3651    2.5149    0.0000 C   0  0  0  0  0  0  0  0  0  0  0  0
   -0.2427    1.1131    0.0000 C   0  0  0  0  0  0  0  0  0  0  0  0
    2.1850    0.1328    0.0000 C   0  0  0  0  0  0  0  0  0  0  0  0
    2.9684   -0.1283    0.0000 C   0  0  0  0  0  0  0  0  0  0  0  0
   -0.9573    1.5254    0.0000 C   0  0  0  0  0  0  0  0  0  0  0  0
    1.4017    0.3802    0.0000 C   0  0  0  0  0  0  0  0  0  0  0  0
   -1.6720    1.1131    0.0000 C   0  0  0  0  0  0  0  0  0  0  0  0
    2.6019    1.8003    0.0000 C   0  0  0  0  0  0  0  0  0  0  0  0
    1.7774    3.2295    0.0000 C   0  0  0  0  0  0  0  0  0  0  0  0
   -2.3866    1.5254    0.0000 C   0  0  0  0  0  0  0  0  0  0  0  0
   -1.6720    0.2886    0.0000 C   0  0  0  0  0  0  0  0  0  0  0  0
    3.0142    2.5149    0.0000 C   0  0  0  0  0  0  0  0  0  0  0  0
    2.6019    3.2295    0.0000 C   0  0  0  0  0  0  0  0  0  0  0  0
   -2.3866   -0.1237    0.0000 C   0  0  0  0  0  0  0  0  0  0  0  0
   -3.0920    1.1131    0.0000 C   0  0  0  0  0  0  0  0  0  0  0  0
   -3.0920    0.2886    0.0000 C   0  0  0  0  0  0  0  0  0  0  0  0
  2  1  2  0  0  0  0
  3  1  1  0  0  0  0
  4  3  1  0  0  0  0
  5  2  1  0  0  0  0
  5  4  1  0  0  0  0
  6  1  1  0  0  0  0
  7 10  1  0  0  0  0
  8  7  3  0  0  0  0
  9  6  2  0  0  0  0
 10  3  1  0  0  0  0
 11  9  1  0  0  0  0
 12  4  2  0  0  0  0
 13  5  2  0  0  0  0
 14 11  2  0  0  0  0
 15 11  1  0  0  0  0
 16 12  1  0  0  0  0
 17 13  1  0  0  0  0
 17 16  2  0  0  0  0
 18 15  2  0  0  0  0
 19 14  1  0  0  0  0
 19 20  2  0  0  0  0
 20 18  1  0  0  0  0
M  END
>  <CdId>
1632

>  <Mol Weight>
258.3172

>  <Formula>
C18H14N2

>  <Click_ID>
CLK021H07 __  __  __

$$$$
CLK022B09 __  __  __
 OpenBabel03171413522D

 23 24  0  0  0  0  0  0  0  0999 V2000
    6.1612    1.3009    0.0000 C   0  0  0  0  0  0  0  0  0  0  0  0
    6.5735    2.0155    0.0000 N   0  0  0  0  0  0  0  0  0  0  0  0
    7.3980    2.0155    0.0000 C   0  0  0  0  0  0  0  0  0  0  0  0
    1.6262    2.0155    0.0000 C   0  0  0  0  0  0  0  0  0  0  0  0
    0.8017    2.0155    0.0000 C   0  0  0  0  0  0  0  0  0  0  0  0
    7.8103    1.3009    0.0000 C   0  0  0  0  0  0  0  0  0  0  0  0
    5.3367    1.3009    0.0000 C   0  0  0  0  0  0  0  0  0  0  0  0
    7.8103    2.7301    0.0000 C   0  0  0  0  0  0  0  0  0  0  0  0
    6.5735    0.5863    0.0000 O   0  0  0  0  0  0  0  0  0  0  0  0
    4.9244    2.0155    0.0000 C   0  0  0  0  0  0  0  0  0  0  0  0
    4.9244    0.5863    0.0000 C   0  0  0  0  0  0  0  0  0  0  0  0
    8.6348    2.7301    0.0000 C   0  0  0  0  0  0  0  0  0  0  0  0
    8.6348    1.3009    0.0000 C   0  0  0  0  0  0  0  0  0  0  0  0
    3.6876    1.3009    0.0000 C   0  0  0  0  0  0  0  0  0  0  0  0
    9.0471    2.0155    0.0000 C   0  0  0  0  0  0  0  0  0  0  0  0
    4.0998    0.5863    0.0000 C   0  0  0  0  0  0  0  0  0  0  0  0
    4.0998    2.0155    0.0000 C   0  0  0  0  0  0  0  0  0  0  0  0
    7.3980    3.4447    0.0000 O   0  0  0  0  0  0  0  0  0  0  0  0
    2.4508    2.0155    0.0000 C   0  0  0  0  0  0  0  0  0  0  0  0
    2.8630    1.3009    0.0000 O   0  0  0  0  0  0  0  0  0  0  0  0
    9.0471    0.5863    0.0000 O   0  0  0  0  0  0  0  0  0  0  0  0
    7.8103    4.1593    0.0000 C   0  0  0  0  0  0  0  0  0  0  0  0
    9.8716    0.5863    0.0000 C   0  0  0  0  0  0  0  0  0  0  0  0
  2  1  1  0  0  0  0
  3  2  1  0  0  0  0
  4 19  1  0  0  0  0
  5  4  3  0  0  0  0
  6  3  2  0  0  0  0
  7  1  1  0  0  0  0
  8  3  1  0  0  0  0
  9  1  2  0  0  0  0
 10  7  1  0  0  0  0
 11  7  2  0  0  0  0
 12  8  2  0  0  0  0
 13  6  1  0  0  0  0
 13 15  2  0  0  0  0
 14 16  2  0  0  0  0
 14 17  1  0  0  0  0
 15 12  1  0  0  0  0
 16 11  1  0  0  0  0
 17 10  2  0  0  0  0
 18  8  1  0  0  0  0
 19 20  1  0  0  0  0
 20 14  1  0  0  0  0
 21 13  1  0  0  0  0
 22 18  1  0  0  0  0
 23 21  1  0  0  0  0
M  END
>  <CdId>
1652

>  <Mol Weight>
311.3319

>  <Formula>
C18H17NO4

>  <Click_ID>
CLK022B09 __  __  __

$$$$
CLK022C08 __  __  __
 OpenBabel03171413522D

 21 22  0  0  0  0  0  0  0  0999 V2000
    6.2162    2.7026    0.0000 C   0  0  0  0  0  0  0  0  0  0  0  0
    6.6284    1.9789    0.0000 N   0  0  0  0  0  0  0  0  0  0  0  0
    7.4530    1.9789    0.0000 C   0  0  0  0  0  0  0  0  0  0  0  0
    1.6812    1.9789    0.0000 C   0  0  0  0  0  0  0  0  0  0  0  0
    0.8566    1.9789    0.0000 C   0  0  0  0  0  0  0  0  0  0  0  0
    7.8653    1.2643    0.0000 C   0  0  0  0  0  0  0  0  0  0  0  0
    5.3916    2.7026    0.0000 C   0  0  0  0  0  0  0  0  0  0  0  0
    6.6284    3.4172    0.0000 O   0  0  0  0  0  0  0  0  0  0  0  0
    8.6898    1.2643    0.0000 C   0  0  0  0  0  0  0  0  0  0  0  0
    7.8653    2.7026    0.0000 C   0  0  0  0  0  0  0  0  0  0  0  0
    4.9794    3.4172    0.0000 C   0  0  0  0  0  0  0  0  0  0  0  0
    4.9794    1.9789    0.0000 C   0  0  0  0  0  0  0  0  0  0  0  0
    9.1021    1.9789    0.0000 C   0  0  0  0  0  0  0  0  0  0  0  0
    3.7425    2.7026    0.0000 C   0  0  0  0  0  0  0  0  0  0  0  0
    8.6898    2.7026    0.0000 C   0  0  0  0  0  0  0  0  0  0  0  0
    4.1548    3.4172    0.0000 C   0  0  0  0  0  0  0  0  0  0  0  0
    4.1548    1.9789    0.0000 C   0  0  0  0  0  0  0  0  0  0  0  0
    9.9266    1.9789    0.0000 Cl  0  0  0  0  0  0  0  0  0  0  0  0
    2.5057    1.9789    0.0000 C   0  0  0  0  0  0  0  0  0  0  0  0
    2.9180    2.7026    0.0000 O   0  0  0  0  0  0  0  0  0  0  0  0
    7.4530    0.5497    0.0000 C   0  0  0  0  0  0  0  0  0  0  0  0
  2  1  1  0  0  0  0
  3  2  1  0  0  0  0
  4 19  1  0  0  0  0
  5  4  3  0  0  0  0
  6  3  1  0  0  0  0
  7  1  1  0  0  0  0
  8  1  2  0  0  0  0
  9  6  2  0  0  0  0
  9 13  1  0  0  0  0
 10  3  2  0  0  0  0
 11  7  2  0  0  0  0
 12  7  1  0  0  0  0
 13 15  2  0  0  0  0
 14 17  1  0  0  0  0
 14 16  2  0  0  0  0
 15 10  1  0  0  0  0
 16 11  1  0  0  0  0
 17 12  2  0  0  0  0
 18 13  1  0  0  0  0
 19 20  1  0  0  0  0
 20 14  1  0  0  0  0
 21  6  1  0  0  0  0
M  END
>  <CdId>
1659

>  <Mol Weight>
299.752

>  <Formula>
C17H14ClNO2

>  <Click_ID>
CLK022C08 __  __  __

$$$$
CLK022F05 __  __  __
 OpenBabel03171413522D

 23 25  0  0  0  0  0  0  0  0999 V2000
    4.4846    0.5726    0.0000 C   0  0  0  0  0  0  0  0  0  0  0  0
    4.0724    1.2872    0.0000 N   0  0  0  0  0  0  0  0  0  0  0  0
    2.0110    2.0018    0.0000 C   0  0  0  0  0  0  0  0  0  0  0  0
    9.0196   -0.1420    0.0000 C   0  0  0  0  0  0  0  0  0  0  0  0
    2.8355    2.0018    0.0000 C   0  0  0  0  0  0  0  0  0  0  0  0
    9.8442   -0.1420    0.0000 C   0  0  0  0  0  0  0  0  0  0  0  0
    5.3092    0.5726    0.0000 C   0  0  0  0  0  0  0  0  0  0  0  0
    1.5987    1.2872    0.0000 C   0  0  0  0  0  0  0  0  0  0  0  0
    3.2478    1.2872    0.0000 C   0  0  0  0  0  0  0  0  0  0  0  0
    1.5987    2.7164    0.0000 O   0  0  0  0  0  0  0  0  0  0  0  0
    4.0724   -0.1420    0.0000 O   0  0  0  0  0  0  0  0  0  0  0  0
    0.7742    1.2872    0.0000 O   0  0  0  0  0  0  0  0  0  0  0  0
    2.0110    0.5726    0.0000 C   0  0  0  0  0  0  0  0  0  0  0  0
    5.7214   -0.1420    0.0000 C   0  0  0  0  0  0  0  0  0  0  0  0
    5.7214    1.2872    0.0000 C   0  0  0  0  0  0  0  0  0  0  0  0
    2.8355    0.5726    0.0000 C   0  0  0  0  0  0  0  0  0  0  0  0
    6.9583    0.5726    0.0000 C   0  0  0  0  0  0  0  0  0  0  0  0
    6.5460    1.2872    0.0000 C   0  0  0  0  0  0  0  0  0  0  0  0
    6.5460   -0.1420    0.0000 C   0  0  0  0  0  0  0  0  0  0  0  0
    8.1951   -0.1420    0.0000 C   0  0  0  0  0  0  0  0  0  0  0  0
    7.7828    0.5726    0.0000 O   0  0  0  0  0  0  0  0  0  0  0  0
    0.7742    2.7164    0.0000 C   0  0  0  0  0  0  0  0  0  0  0  0
    0.3619    2.0018    0.0000 C   0  0  0  0  0  0  0  0  0  0  0  0
  2  1  1  0  0  0  0
  3  5  2  0  0  0  0
  3  8  1  0  0  0  0
  4 20  1  0  0  0  0
  5  9  1  0  0  0  0
  6  4  3  0  0  0  0
  7  1  1  0  0  0  0
  8 13  2  0  0  0  0
  9  2  1  0  0  0  0
 10  3  1  0  0  0  0
 11  1  2  0  0  0  0
 12  8  1  0  0  0  0
 13 16  1  0  0  0  0
 14  7  1  0  0  0  0
 15  7  2  0  0  0  0
 16  9  2  0  0  0  0
 17 18  2  0  0  0  0
 17 19  1  0  0  0  0
 18 15  1  0  0  0  0
 19 14  2  0  0  0  0
 20 21  1  0  0  0  0
 21 17  1  0  0  0  0
 22 10  1  0  0  0  0
 22 23  1  0  0  0  0
 23 12  1  0  0  0  0
M  END
>  <CdId>
1679

>  <Mol Weight>
309.316

>  <Formula>
C18H15NO4

>  <Click_ID>
CLK022F05 __  __  __

$$$$
CLK022G05 __  __  __
 OpenBabel03171413522D

 20 21  0  0  0  0  0  0  0  0999 V2000
    9.9770    0.8337    0.0000 C   0  0  0  0  0  0  0  0  0  0  0  0
    9.2624    1.2459    0.0000 N   0  0  0  0  0  0  0  0  0  0  0  0
    8.5478    0.8337    0.0000 C   0  0  0  0  0  0  0  0  0  0  0  0
    7.8331    1.2459    0.0000 N   0  0  0  0  0  0  0  0  0  0  0  0
   14.2555    2.4828    0.0000 C   0  0  0  0  0  0  0  0  0  0  0  0
   14.9701    2.8950    0.0000 C   0  0  0  0  0  0  0  0  0  0  0  0
   10.6824    1.2459    0.0000 C   0  0  0  0  0  0  0  0  0  0  0  0
    9.9770    0.0091    0.0000 O   0  0  0  0  0  0  0  0  0  0  0  0
   11.3970    0.8337    0.0000 C   0  0  0  0  0  0  0  0  0  0  0  0
   10.6824    2.0705    0.0000 C   0  0  0  0  0  0  0  0  0  0  0  0
    7.1185    0.8337    0.0000 C   0  0  0  0  0  0  0  0  0  0  0  0
   12.1116    2.0705    0.0000 C   0  0  0  0  0  0  0  0  0  0  0  0
   11.3970    2.4828    0.0000 C   0  0  0  0  0  0  0  0  0  0  0  0
   12.1116    1.2459    0.0000 C   0  0  0  0  0  0  0  0  0  0  0  0
   13.5408    2.0705    0.0000 C   0  0  0  0  0  0  0  0  0  0  0  0
   12.8262    2.4828    0.0000 O   0  0  0  0  0  0  0  0  0  0  0  0
    8.5478    0.0091    0.0000 C   0  0  0  0  0  0  0  0  0  0  0  0
    7.8331   -0.4031    0.0000 C   0  0  0  0  0  0  0  0  0  0  0  0
    7.1185    0.0091    0.0000 C   0  0  0  0  0  0  0  0  0  0  0  0
    6.4039    1.2459    0.0000 C   0  0  0  0  0  0  0  0  0  0  0  0
  2  1  1  0  0  0  0
  3  2  1  0  0  0  0
  4  3  1  0  0  0  0
  5 15  1  0  0  0  0
  6  5  3  0  0  0  0
  7  1  1  0  0  0  0
  8  1  2  0  0  0  0
  9  7  2  0  0  0  0
 10  7  1  0  0  0  0
 11  4  2  0  0  0  0
 12 13  1  0  0  0  0
 13 10  2  0  0  0  0
 14  9  1  0  0  0  0
 14 12  2  0  0  0  0
 15 16  1  0  0  0  0
 16 12  1  0  0  0  0
 17  3  2  0  0  0  0
 18 17  1  0  0  0  0
 19 18  2  0  0  0  0
 19 11  1  0  0  0  0
 20 11  1  0  0  0  0
M  END
>  <CdId>
1686

>  <Mol Weight>
266.2946

>  <Formula>
C16H14N2O2

>  <Click_ID>
CLK022G05 __  __  __

$$$$
CLK022G06 __  __  __
 OpenBabel03171413522D

 23 24  0  0  0  0  0  0  0  0999 V2000
    4.3221    0.9991    0.0000 C   0  0  0  0  0  0  0  0  0  0  0  0
    3.9096    1.7050    0.0000 N   0  0  0  0  0  0  0  0  0  0  0  0
    3.0846    1.7050    0.0000 C   0  0  0  0  0  0  0  0  0  0  0  0
    2.6721    2.4291    0.0000 C   0  0  0  0  0  0  0  0  0  0  0  0
    8.8596    0.2841    0.0000 C   0  0  0  0  0  0  0  0  0  0  0  0
    9.6846    0.2841    0.0000 C   0  0  0  0  0  0  0  0  0  0  0  0
    1.8471    2.4291    0.0000 C   0  0  0  0  0  0  0  0  0  0  0  0
    5.1471    0.9991    0.0000 C   0  0  0  0  0  0  0  0  0  0  0  0
    3.9096    0.2841    0.0000 O   0  0  0  0  0  0  0  0  0  0  0  0
    2.6721    0.9991    0.0000 C   0  0  0  0  0  0  0  0  0  0  0  0
    5.5596    0.2841    0.0000 C   0  0  0  0  0  0  0  0  0  0  0  0
    5.5596    1.7050    0.0000 C   0  0  0  0  0  0  0  0  0  0  0  0
    1.4346    1.7050    0.0000 C   0  0  0  0  0  0  0  0  0  0  0  0
    6.7971    0.9991    0.0000 C   0  0  0  0  0  0  0  0  0  0  0  0
    1.8471    0.9991    0.0000 C   0  0  0  0  0  0  0  0  0  0  0  0
    3.0846    3.1350    0.0000 O   0  0  0  0  0  0  0  0  0  0  0  0
    6.3846    1.7050    0.0000 C   0  0  0  0  0  0  0  0  0  0  0  0
    6.3846    0.2841    0.0000 C   0  0  0  0  0  0  0  0  0  0  0  0
    8.0346    0.2841    0.0000 C   0  0  0  0  0  0  0  0  0  0  0  0
    7.6221    0.9991    0.0000 O   0  0  0  0  0  0  0  0  0  0  0  0
    0.6096    1.7050    0.0000 O   0  0  0  0  0  0  0  0  0  0  0  0
    2.6721    3.8500    0.0000 C   0  0  0  0  0  0  0  0  0  0  0  0
    0.1971    0.9991    0.0000 C   0  0  0  0  0  0  0  0  0  0  0  0
  2  1  1  0  0  0  0
  3  2  1  0  0  0  0
  4  3  1  0  0  0  0
  5 19  1  0  0  0  0
  6  5  3  0  0  0  0
  7  4  2  0  0  0  0
  7 13  1  0  0  0  0
  8  1  1  0  0  0  0
  9  1  2  0  0  0  0
 10  3  2  0  0  0  0
 11  8  2  0  0  0  0
 12  8  1  0  0  0  0
 13 15  2  0  0  0  0
 14 17  1  0  0  0  0
 14 18  2  0  0  0  0
 15 10  1  0  0  0  0
 16  4  1  0  0  0  0
 17 12  2  0  0  0  0
 18 11  1  0  0  0  0
 19 20  1  0  0  0  0
 20 14  1  0  0  0  0
 21 13  1  0  0  0  0
 22 16  1  0  0  0  0
 23 21  1  0  0  0  0
M  END
>  <CdId>
1687

>  <Mol Weight>
311.3319

>  <Formula>
C18H17NO4

>  <Click_ID>
CLK022G06 __  __  __

$$$$
CLK022H02 __  __  __
 OpenBabel03171413522D

 19 19  0  0  0  0  0  0  0  0999 V2000
    3.7151    2.0018    0.0000 C   0  0  0  0  0  0  0  0  0  0  0  0
    1.7087    1.4108    0.0000 C   0  0  0  0  0  0  0  0  0  0  0  0
    3.0005    1.5895    0.0000 N   0  0  0  0  0  0  0  0  0  0  0  0
    4.4297    1.5895    0.0000 N   0  0  0  0  0  0  0  0  0  0  0  0
    1.1177    0.8337    0.0000 C   0  0  0  0  0  0  0  0  0  0  0  0
    2.2859    2.0018    0.0000 C   0  0  0  0  0  0  0  0  0  0  0  0
    3.7151    2.8263    0.0000 O   0  0  0  0  0  0  0  0  0  0  0  0
    5.1443    2.0018    0.0000 C   0  0  0  0  0  0  0  0  0  0  0  0
    5.8589    1.5895    0.0000 C   0  0  0  0  0  0  0  0  0  0  0  0
    6.5735    2.0018    0.0000 C   0  0  0  0  0  0  0  0  0  0  0  0
    7.2881    1.5895    0.0000 O   0  0  0  0  0  0  0  0  0  0  0  0
    5.8589    3.2386    0.0000 C   0  0  0  0  0  0  0  0  0  0  0  0
    5.1443    2.8263    0.0000 C   0  0  0  0  0  0  0  0  0  0  0  0
    2.7531    2.6751    0.0000 C   0  0  0  0  0  0  0  0  0  0  0  0
    1.6537    2.5240    0.0000 C   0  0  0  0  0  0  0  0  0  0  0  0
    6.5735    2.8263    0.0000 C   0  0  0  0  0  0  0  0  0  0  0  0
    8.0027    2.0018    0.0000 C   0  0  0  0  0  0  0  0  0  0  0  0
    1.8003    3.3485    0.0000 C   0  0  0  0  0  0  0  0  0  0  0  0
    2.4095    3.4172    0.0000 C   0  0  0  0  0  0  0  0  0  0  0  0
  2  6  1  0  0  0  0
  3  1  1  0  0  0  0
  4  1  1  0  0  0  0
  5  2  3  0  0  0  0
  6  3  1  0  0  0  0
  7  1  2  0  0  0  0
  8  4  1  0  0  0  0
  9  8  2  0  0  0  0
 10  9  1  0  0  0  0
 11 10  1  0  0  0  0
 12 13  2  0  0  0  0
 13  8  1  0  0  0  0
 14  6  1  0  0  0  0
 15  6  1  0  0  0  0
 16 12  1  0  0  0  0
 16 10  2  0  0  0  0
 17 11  1  0  0  0  0
 18 15  1  0  0  0  0
 19 14  1  0  0  0  0
M  END
>  <CdId>
1690

>  <Mol Weight>
260.3315

>  <Formula>
C15H20N2O2

>  <Click_ID>
CLK022H02 __  __  __

$$$$
CLK023G04 __  __  __
 OpenBabel03171413522D

 29 32  0  0  0  0  0  0  0  0999 V2000
    1.2602    0.1168    0.0000 N   0  0  0  0  0  0  0  0  0  0  0  0
   -0.1614    0.1030    0.0000 C   0  0  0  0  0  0  0  0  0  0  0  0
    0.5494    0.5219    0.0000 C   0  0  0  0  0  0  0  0  0  0  0  0
    1.2738   -0.7005    0.0000 C   0  0  0  0  0  0  0  0  0  0  0  0
    0.5631   -1.1193    0.0000 N   0  0  0  0  0  0  0  0  0  0  0  0
   -0.1545   -0.7245    0.0000 C   0  0  0  0  0  0  0  0  0  0  0  0
   -1.5898    0.0859    0.0000 C   0  0  0  0  0  0  0  0  0  0  0  0
   -0.8859    0.5116    0.0000 C   0  0  0  0  0  0  0  0  0  0  0  0
   -2.4825   -0.9236    0.0000 N   0  0  0  0  0  0  0  0  0  0  0  0
   -1.6722   -0.7485    0.0000 C   0  0  0  0  0  0  0  0  0  0  0  0
    1.9709    0.5356    0.0000 C   0  0  0  0  0  0  0  0  0  0  0  0
   -2.3383    0.4017    0.0000 C   0  0  0  0  0  0  0  0  0  0  0  0
   -2.8877   -0.2095    0.0000 C   0  0  0  0  0  0  0  0  0  0  0  0
    2.6920    0.1236    0.0000 C   0  0  0  0  0  0  0  0  0  0  0  0
   -3.6327   -1.7683    0.0000 C   0  0  0  0  0  0  0  0  0  0  0  0
    1.9846   -1.1056    0.0000 O   0  0  0  0  0  0  0  0  0  0  0  0
   -4.1169   -1.0987    0.0000 C   0  0  0  0  0  0  0  0  0  0  0  0
    0.5356    1.3459    0.0000 O   0  0  0  0  0  0  0  0  0  0  0  0
   -0.8618   -1.1365    0.0000 O   0  0  0  0  0  0  0  0  0  0  0  0
   -2.8087   -1.6722    0.0000 C   0  0  0  0  0  0  0  0  0  0  0  0
    3.3958    0.5494    0.0000 C   0  0  0  0  0  0  0  0  0  0  0  0
    1.9606    1.3529    0.0000 C   0  0  0  0  0  0  0  0  0  0  0  0
    4.1135    0.1374    0.0000 F   0  0  0  0  0  0  0  0  0  0  0  0
   -3.6945   -0.0377    0.0000 C   0  0  0  0  0  0  0  0  0  0  0  0
   -2.5958    1.1846    0.0000 C   0  0  0  0  0  0  0  0  0  0  0  0
    2.6714    1.7717    0.0000 C   0  0  0  0  0  0  0  0  0  0  0  0
    3.3958    1.3735    0.0000 C   0  0  0  0  0  0  0  0  0  0  0  0
   -3.4061    1.3597    0.0000 C   0  0  0  0  0  0  0  0  0  0  0  0
   -3.9555    0.7417    0.0000 C   0  0  0  0  0  0  0  0  0  0  0  0
  2  3  1  0  0  0  0
  2  6  1  0  0  0  0
  3  1  1  0  0  0  0
  4  1  1  0  0  0  0
  5  4  1  0  0  0  0
  6  5  1  0  0  0  0
  7  8  1  0  0  0  0
  8  2  2  0  0  0  0
  9 10  1  0  0  0  0
 10  7  2  0  0  0  0
 11  1  1  0  0  0  0
 12  7  1  0  0  0  0
 13 12  2  0  0  0  0
 13  9  1  0  0  0  0
 14 11  2  0  0  0  0
 15 20  1  0  0  0  0
 16  4  2  0  0  0  0
 17 15  3  0  0  0  0
 18  3  2  0  0  0  0
 19  6  2  0  0  0  0
 20  9  1  0  0  0  0
 21 14  1  0  0  0  0
 21 27  2  0  0  0  0
 22 11  1  0  0  0  0
 23 21  1  0  0  0  0
 24 13  1  0  0  0  0
 25 12  1  0  0  0  0
 26 22  2  0  0  0  0
 27 26  1  0  0  0  0
 28 25  2  0  0  0  0
 29 28  1  0  0  0  0
 29 24  2  0  0  0  0
M  END
>  <CdId>
1759

>  <Mol Weight>
387.3633

>  <Formula>
C22H14FN3O3

>  <Click_ID>
CLK023G04 __  __  __

$$$$
CLK023G10 __  __  __
 OpenBabel03171413522D

 30 33  0  0  0  0  0  0  0  0999 V2000
    0.3268   -0.5882    0.0000 C   0  0  0  0  0  0  0  0  0  0  0  0
    1.7544   -0.6260    0.0000 C   0  0  0  0  0  0  0  0  0  0  0  0
    2.6729    0.3406    0.0000 N   0  0  0  0  0  0  0  0  0  0  0  0
   -0.4093   -1.0010    0.0000 C   0  0  0  0  0  0  0  0  0  0  0  0
    1.0285   -1.0251    0.0000 C   0  0  0  0  0  0  0  0  0  0  0  0
    1.8611    0.1858    0.0000 C   0  0  0  0  0  0  0  0  0  0  0  0
   -1.1214   -0.5744    0.0000 N   0  0  0  0  0  0  0  0  0  0  0  0
    2.4974   -0.9769    0.0000 C   0  0  0  0  0  0  0  0  0  0  0  0
    3.0650   -0.3853    0.0000 C   0  0  0  0  0  0  0  0  0  0  0  0
   -2.5319    0.2752    0.0000 N   0  0  0  0  0  0  0  0  0  0  0  0
    0.3371    0.2339    0.0000 C   0  0  0  0  0  0  0  0  0  0  0  0
    0.3440    1.0595    0.0000 N   0  0  0  0  0  0  0  0  0  0  0  0
    3.8493    1.1524    0.0000 C   0  0  0  0  0  0  0  0  0  0  0  0
    4.6646    1.2109    0.0000 C   0  0  0  0  0  0  0  0  0  0  0  0
   -0.4197   -1.8266    0.0000 O   0  0  0  0  0  0  0  0  0  0  0  0
   -1.0974    0.2580    0.0000 C   0  0  0  0  0  0  0  0  0  0  0  0
   -1.8438   -0.9769    0.0000 C   0  0  0  0  0  0  0  0  0  0  0  0
   -2.5456   -0.5504    0.0000 C   0  0  0  0  0  0  0  0  0  0  0  0
   -1.8060    0.6776    0.0000 C   0  0  0  0  0  0  0  0  0  0  0  0
   -3.2439    0.7086    0.0000 C   0  0  0  0  0  0  0  0  0  0  0  0
    3.0272    1.0836    0.0000 C   0  0  0  0  0  0  0  0  0  0  0  0
    3.8631   -0.5744    0.0000 C   0  0  0  0  0  0  0  0  0  0  0  0
    2.7279   -1.7647    0.0000 C   0  0  0  0  0  0  0  0  0  0  0  0
   -3.9594    0.3027    0.0000 C   0  0  0  0  0  0  0  0  0  0  0  0
   -3.2233    1.5342    0.0000 C   0  0  0  0  0  0  0  0  0  0  0  0
    3.5294   -1.9608    0.0000 C   0  0  0  0  0  0  0  0  0  0  0  0
    4.0970   -1.3519    0.0000 C   0  0  0  0  0  0  0  0  0  0  0  0
   -4.6681    0.7396    0.0000 C   0  0  0  0  0  0  0  0  0  0  0  0
   -3.9284    1.9643    0.0000 C   0  0  0  0  0  0  0  0  0  0  0  0
   -4.6543    1.5618    0.0000 C   0  0  0  0  0  0  0  0  0  0  0  0
  2  5  1  0  0  0  0
  3  6  1  0  0  0  0
  3  9  1  0  0  0  0
  4  1  1  0  0  0  0
  5  1  2  0  0  0  0
  6  2  2  0  0  0  0
  7  4  1  0  0  0  0
  8  2  1  0  0  0  0
  9  8  2  0  0  0  0
 10 18  1  0  0  0  0
 10 19  1  0  0  0  0
 11  1  1  0  0  0  0
 12 11  3  0  0  0  0
 13 21  1  0  0  0  0
 14 13  3  0  0  0  0
 15  4  2  0  0  0  0
 16  7  1  0  0  0  0
 17  7  1  0  0  0  0
 18 17  1  0  0  0  0
 19 16  1  0  0  0  0
 20 10  1  0  0  0  0
 21  3  1  0  0  0  0
 22  9  1  0  0  0  0
 22 27  2  0  0  0  0
 23  8  1  0  0  0  0
 24 20  1  0  0  0  0
 25 20  2  0  0  0  0
 26 23  2  0  0  0  0
 27 26  1  0  0  0  0
 28 24  2  0  0  0  0
 28 30  1  0  0  0  0
 29 25  1  0  0  0  0
 30 29  2  0  0  0  0
M  END
>  <CdId>
1765

>  <Mol Weight>
394.4684

>  <Formula>
C25H22N4O

>  <Click_ID>
CLK023G10 __  __  __

$$$$
CLK023G11 __  __  __
 OpenBabel03171413522D

 26 27  0  0  0  0  0  0  0  0999 V2000
   -0.9976   -0.4591    0.0000 C   0  0  0  0  0  0  0  0  0  0  0  0
   -1.7776   -0.4660    0.0000 C   0  0  0  0  0  0  0  0  0  0  0  0
   -0.6248    0.3831    0.0000 C   0  0  0  0  0  0  0  0  0  0  0  0
    0.1933    0.3866    0.0000 C   0  0  0  0  0  0  0  0  0  0  0  0
   -0.6110   -1.1425    0.0000 C   0  0  0  0  0  0  0  0  0  0  0  0
    1.4221   -0.3072    0.0000 C   0  0  0  0  0  0  0  0  0  0  0  0
    0.6075   -0.3210    0.0000 C   0  0  0  0  0  0  0  0  0  0  0  0
   -0.2002   -1.7949    0.0000 N   0  0  0  0  0  0  0  0  0  0  0  0
   -2.2298   -1.1736    0.0000 N   0  0  0  0  0  0  0  0  0  0  0  0
    1.8225    0.4073    0.0000 C   0  0  0  0  0  0  0  0  0  0  0  0
    0.5799    1.1011    0.0000 C   0  0  0  0  0  0  0  0  0  0  0  0
    3.8763    1.1598    0.0000 C   0  0  0  0  0  0  0  0  0  0  0  0
    1.4048    1.1115    0.0000 C   0  0  0  0  0  0  0  0  0  0  0  0
    4.7047    1.1633    0.0000 C   0  0  0  0  0  0  0  0  0  0  0  0
   -2.3023    0.3348    0.0000 O   0  0  0  0  0  0  0  0  0  0  0  0
    0.1933   -1.0355    0.0000 Br  0  0  0  0  0  0  0  0  0  0  0  0
   -3.0548   -1.1425    0.0000 C   0  0  0  0  0  0  0  0  0  0  0  0
    2.6474    0.4177    0.0000 O   0  0  0  0  0  0  0  0  0  0  0  0
    1.8087    1.8363    0.0000 O   0  0  0  0  0  0  0  0  0  0  0  0
    3.0513    1.1459    0.0000 C   0  0  0  0  0  0  0  0  0  0  0  0
   -3.5035   -1.8432    0.0000 C   0  0  0  0  0  0  0  0  0  0  0  0
   -3.4414   -0.4073    0.0000 C   0  0  0  0  0  0  0  0  0  0  0  0
    2.6371    1.8467    0.0000 C   0  0  0  0  0  0  0  0  0  0  0  0
   -4.3112   -1.8122    0.0000 C   0  0  0  0  0  0  0  0  0  0  0  0
   -4.2698   -0.3659    0.0000 C   0  0  0  0  0  0  0  0  0  0  0  0
   -4.7081   -1.0735    0.0000 C   0  0  0  0  0  0  0  0  0  0  0  0
  2  1  1  0  0  0  0
  3  1  2  0  0  0  0
  4  3  1  0  0  0  0
  5  1  1  0  0  0  0
  6  7  1  0  0  0  0
  6 10  2  0  0  0  0
  7  4  2  0  0  0  0
  8  5  3  0  0  0  0
  9  2  1  0  0  0  0
 10 13  1  0  0  0  0
 11  4  1  0  0  0  0
 12 20  1  0  0  0  0
 13 11  2  0  0  0  0
 14 12  3  0  0  0  0
 15  2  2  0  0  0  0
 16  7  1  0  0  0  0
 17  9  1  0  0  0  0
 18 10  1  0  0  0  0
 19 13  1  0  0  0  0
 20 18  1  0  0  0  0
 21 17  1  0  0  0  0
 22 17  2  0  0  0  0
 23 19  1  0  0  0  0
 24 21  2  0  0  0  0
 24 26  1  0  0  0  0
 25 22  1  0  0  0  0
 26 25  2  0  0  0  0
M  END
>  <CdId>
1766

>  <Mol Weight>
411.249

>  <Formula>
C20H15BrN2O3

>  <Click_ID>
CLK023G11 __  __  __

$$$$
CLK024B02 __  __  __
 OpenBabel03171413522D

 28 29  0  0  0  0  0  0  0  0999 V2000
   -0.6983   -1.0939    0.0000 C   0  0  0  0  0  0  0  0  0  0  0  0
   -2.1326   -1.1110    0.0000 O   0  0  0  0  0  0  0  0  0  0  0  0
   -2.8619   -0.6983    0.0000 C   0  0  0  0  0  0  0  0  0  0  0  0
   -3.5670   -1.1180    0.0000 C   0  0  0  0  0  0  0  0  0  0  0  0
    2.8550   -0.6123    0.0000 C   0  0  0  0  0  0  0  0  0  0  0  0
    2.1086    1.4447    0.0000 C   0  0  0  0  0  0  0  0  0  0  0  0
    2.1052    2.2703    0.0000 C   0  0  0  0  0  0  0  0  0  0  0  0
    0.7224   -1.0732    0.0000 N   0  0  0  0  0  0  0  0  0  0  0  0
   -1.4206   -0.6879    0.0000 C   0  0  3  0  0  0  0  0  0  0  0  0
    2.1533   -1.0457    0.0000 C   0  0  0  0  0  0  0  0  0  0  0  0
   -4.2825   -0.7086    0.0000 C   0  0  0  0  0  0  0  0  0  0  0  0
    0.0000   -0.6742    0.0000 N   0  0  0  0  0  0  0  0  0  0  0  0
   -0.6914   -1.9159    0.0000 O   0  0  0  0  0  0  0  0  0  0  0  0
    3.5808   -1.0078    0.0000 C   0  0  0  0  0  0  0  0  0  0  0  0
    1.4344   -0.6467    0.0000 C   0  0  0  0  0  0  0  0  0  0  0  0
   -2.8688    0.1238    0.0000 C   0  0  0  0  0  0  0  0  0  0  0  0
   -4.2894    0.1170    0.0000 C   0  0  0  0  0  0  0  0  0  0  0  0
   -3.5670   -1.9469    0.0000 Cl  0  0  0  0  0  0  0  0  0  0  0  0
    2.8310    0.2167    0.0000 O   0  0  0  0  0  0  0  0  0  0  0  0
   -3.5808    0.5366    0.0000 C   0  0  0  0  0  0  0  0  0  0  0  0
   -5.0118    0.5263    0.0000 Cl  0  0  0  0  0  0  0  0  0  0  0  0
    4.2860   -0.5710    0.0000 O   0  0  0  0  0  0  0  0  0  0  0  0
    2.1223    0.6157    0.0000 C   0  0  0  0  0  0  0  0  0  0  0  0
    2.1705   -1.8678    0.0000 C   0  0  0  0  0  0  0  0  0  0  0  0
    2.8929   -2.2668    0.0000 C   0  0  0  0  0  0  0  0  0  0  0  0
    3.6015   -1.8300    0.0000 C   0  0  0  0  0  0  0  0  0  0  0  0
   -1.4344    0.1376    0.0000 C   0  0  0  0  0  0  0  0  0  0  0  0
    5.0118   -0.9597    0.0000 C   0  0  0  0  0  0  0  0  0  0  0  0
  2  9  1  0  0  0  0
  3  2  1  0  0  0  0
  4  3  1  0  0  0  0
  5 10  1  0  0  0  0
  6 23  1  0  0  0  0
  7  6  3  0  0  0  0
  8 12  1  0  0  0  0
  9  1  1  0  0  0  0
 10 15  1  0  0  0  0
 11  4  2  0  0  0  0
 11 17  1  0  0  0  0
 12  1  1  0  0  0  0
 13  1  2  0  0  0  0
 14  5  2  0  0  0  0
 14 26  1  0  0  0  0
 15  8  2  0  0  0  0
 16  3  2  0  0  0  0
 17 20  2  0  0  0  0
 18  4  1  0  0  0  0
 19  5  1  0  0  0  0
 20 16  1  0  0  0  0
 21 17  1  0  0  0  0
 22 14  1  0  0  0  0
 23 19  1  0  0  0  0
 24 10  2  0  0  0  0
 25 24  1  0  0  0  0
 26 25  2  0  0  0  0
 27  9  1  0  0  0  0
 28 22  1  0  0  0  0
M  END
>  <CdId>
1787

>  <Mol Weight>
421.274

>  <Formula>
C20H18Cl2N2O4

>  <Click_ID>
CLK024B02 __  __  __

$$$$
CLK025A05 __  __  __
 OpenBabel03171413522D

 24 26  0  0  0  0  0  0  0  0999 V2000
    0.9586    0.3024    0.0000 C   0  0  0  0  0  0  0  0  0  0  0  0
    1.0410   -0.5119    0.0000 C   0  0  0  0  0  0  0  0  0  0  0  0
    1.8416   -0.6906    0.0000 N   0  0  0  0  0  0  0  0  0  0  0  0
    1.7042    0.6425    0.0000 C   0  0  0  0  0  0  0  0  0  0  0  0
    2.2539    0.0241    0.0000 C   0  0  0  0  0  0  0  0  0  0  0  0
    0.2439    0.7147    0.0000 N   0  0  0  0  0  0  0  0  0  0  0  0
    0.2439    1.5393    0.0000 N   0  0  0  0  0  0  0  0  0  0  0  0
   -0.4673    1.9516    0.0000 C   0  0  0  0  0  0  0  0  0  0  0  0
    1.6904   -2.1027    0.0000 C   0  0  0  0  0  0  0  0  0  0  0  0
    1.2128   -2.7727    0.0000 C   0  0  0  0  0  0  0  0  0  0  0  0
    0.4294   -1.0617    0.0000 O   0  0  0  0  0  0  0  0  0  0  0  0
   -1.1819    1.5393    0.0000 C   0  0  0  0  0  0  0  0  0  0  0  0
    2.1817   -1.4396    0.0000 C   0  0  0  0  0  0  0  0  0  0  0  0
   -0.4673    2.7761    0.0000 O   0  0  0  0  0  0  0  0  0  0  0  0
   -1.9069    1.9619    0.0000 C   0  0  0  0  0  0  0  0  0  0  0  0
   -1.1819    0.7112    0.0000 C   0  0  0  0  0  0  0  0  0  0  0  0
   -2.6112    0.7112    0.0000 C   0  0  0  0  0  0  0  0  0  0  0  0
    1.9652    1.4259    0.0000 C   0  0  0  0  0  0  0  0  0  0  0  0
   -1.9069    0.2989    0.0000 C   0  0  0  0  0  0  0  0  0  0  0  0
   -2.6112    1.5393    0.0000 C   0  0  0  0  0  0  0  0  0  0  0  0
   -3.3258    0.2989    0.0000 F   0  0  0  0  0  0  0  0  0  0  0  0
    3.0648    0.1924    0.0000 C   0  0  0  0  0  0  0  0  0  0  0  0
    2.7727    1.5908    0.0000 C   0  0  0  0  0  0  0  0  0  0  0  0
    3.3224    0.9860    0.0000 C   0  0  0  0  0  0  0  0  0  0  0  0
  2  1  1  0  0  0  0
  3  2  1  0  0  0  0
  4  1  1  0  0  0  0
  5  4  2  0  0  0  0
  5  3  1  0  0  0  0
  6  1  2  0  0  0  0
  7  6  1  0  0  0  0
  8  7  1  0  0  0  0
  9 13  1  0  0  0  0
 10  9  3  0  0  0  0
 11  2  2  0  0  0  0
 12  8  1  0  0  0  0
 13  3  1  0  0  0  0
 14  8  2  0  0  0  0
 15 12  1  0  0  0  0
 16 12  2  0  0  0  0
 17 19  2  0  0  0  0
 17 20  1  0  0  0  0
 18  4  1  0  0  0  0
 19 16  1  0  0  0  0
 20 15  2  0  0  0  0
 21 17  1  0  0  0  0
 22  5  1  0  0  0  0
 23 18  2  0  0  0  0
 24 23  1  0  0  0  0
 24 22  2  0  0  0  0
M  END
>  <CdId>
1860

>  <Mol Weight>
321.3052

>  <Formula>
C18H12FN3O2

>  <Click_ID>
CLK025A05 __  __  __

$$$$
CLK025B05 __  __  __
 OpenBabel03171413522D

 25 27  0  0  0  0  0  0  0  0999 V2000
    1.3149    0.9019    0.0000 C   0  0  0  0  0  0  0  0  0  0  0  0
    1.3975    0.0758    0.0000 C   0  0  0  0  0  0  0  0  0  0  0  0
    2.2099   -0.0998    0.0000 N   0  0  0  0  0  0  0  0  0  0  0  0
    2.0721    1.2288    0.0000 C   0  0  0  0  0  0  0  0  0  0  0  0
    2.6195    0.6161    0.0000 C   0  0  0  0  0  0  0  0  0  0  0  0
    0.5989    1.3115    0.0000 N   0  0  0  0  0  0  0  0  0  0  0  0
   -1.5455    0.9019    0.0000 C   0  0  0  0  0  0  0  0  0  0  0  0
   -0.8330    1.3115    0.0000 C   0  0  0  0  0  0  0  0  0  0  0  0
   -1.5455    0.0654    0.0000 C   0  0  0  0  0  0  0  0  0  0  0  0
   -0.1171    0.9019    0.0000 N   0  0  0  0  0  0  0  0  0  0  0  0
    2.0584   -1.5215    0.0000 C   0  0  0  0  0  0  0  0  0  0  0  0
   -2.2615    1.3115    0.0000 C   0  0  0  0  0  0  0  0  0  0  0  0
    1.5765   -2.1824    0.0000 C   0  0  0  0  0  0  0  0  0  0  0  0
   -2.2615   -0.3476    0.0000 C   0  0  0  0  0  0  0  0  0  0  0  0
    0.7917   -0.4750    0.0000 O   0  0  0  0  0  0  0  0  0  0  0  0
    2.5472   -0.8468    0.0000 C   0  0  0  0  0  0  0  0  0  0  0  0
   -0.8330    2.1376    0.0000 O   0  0  0  0  0  0  0  0  0  0  0  0
   -2.9775    0.0654    0.0000 C   0  0  0  0  0  0  0  0  0  0  0  0
   -0.8330   -0.3476    0.0000 Cl  0  0  0  0  0  0  0  0  0  0  0  0
   -2.9775    0.9019    0.0000 C   0  0  0  0  0  0  0  0  0  0  0  0
    2.3269    2.0137    0.0000 C   0  0  0  0  0  0  0  0  0  0  0  0
   -3.6934   -0.3476    0.0000 Cl  0  0  0  0  0  0  0  0  0  0  0  0
    3.4319    0.7917    0.0000 C   0  0  0  0  0  0  0  0  0  0  0  0
    3.1289    2.1857    0.0000 C   0  0  0  0  0  0  0  0  0  0  0  0
    3.6900    1.5731    0.0000 C   0  0  0  0  0  0  0  0  0  0  0  0
  2  1  1  0  0  0  0
  3  2  1  0  0  0  0
  3  5  1  0  0  0  0
  4  1  1  0  0  0  0
  5  4  2  0  0  0  0
  6  1  2  0  0  0  0
  7  8  1  0  0  0  0
  8 10  1  0  0  0  0
  9  7  2  0  0  0  0
 10  6  1  0  0  0  0
 11 16  1  0  0  0  0
 12  7  1  0  0  0  0
 13 11  3  0  0  0  0
 14  9  1  0  0  0  0
 14 18  2  0  0  0  0
 15  2  2  0  0  0  0
 16  3  1  0  0  0  0
 17  8  2  0  0  0  0
 18 20  1  0  0  0  0
 19  9  1  0  0  0  0
 20 12  2  0  0  0  0
 21  4  1  0  0  0  0
 22 18  1  0  0  0  0
 23  5  1  0  0  0  0
 23 25  2  0  0  0  0
 24 21  2  0  0  0  0
 25 24  1  0  0  0  0
M  END
>  <CdId>
1870

>  <Mol Weight>
372.205

>  <Formula>
C18H11Cl2N3O2

>  <Click_ID>
CLK025B05 __  __  __

$$$$
CLK025C04 __  __  __
 OpenBabel03171413522D

 27 29  0  0  0  0  0  0  0  0999 V2000
    1.1818   -0.7077    0.0000 C   0  0  0  0  0  0  0  0  0  0  0  0
    1.7006   -1.3537    0.0000 C   0  0  0  0  0  0  0  0  0  0  0  0
    1.6319   -0.0206    0.0000 C   0  0  0  0  0  0  0  0  0  0  0  0
    2.4702   -1.0581    0.0000 N   0  0  0  0  0  0  0  0  0  0  0  0
    2.4289   -0.2336    0.0000 C   0  0  0  0  0  0  0  0  0  0  0  0
    0.3573   -0.7559    0.0000 N   0  0  0  0  0  0  0  0  0  0  0  0
   -1.0719   -0.7559    0.0000 C   0  0  0  0  0  0  0  0  0  0  0  0
   -0.3573   -0.3436    0.0000 N   0  0  0  0  0  0  0  0  0  0  0  0
    3.8994   -1.1338    0.0000 C   0  0  0  0  0  0  0  0  0  0  0  0
    3.0096    0.3504    0.0000 C   0  0  0  0  0  0  0  0  0  0  0  0
    4.6312   -0.7559    0.0000 C   0  0  0  0  0  0  0  0  0  0  0  0
    1.4155    0.7765    0.0000 C   0  0  0  0  0  0  0  0  0  0  0  0
    1.4842   -2.1507    0.0000 O   0  0  0  0  0  0  0  0  0  0  0  0
    3.1607   -1.5048    0.0000 C   0  0  0  0  0  0  0  0  0  0  0  0
   -1.0719   -1.5804    0.0000 O   0  0  0  0  0  0  0  0  0  0  0  0
   -3.2157    0.4810    0.0000 C   0  0  0  0  0  0  0  0  0  0  0  0
   -1.7865   -0.3436    0.0000 C   0  0  0  0  0  0  0  0  0  0  0  0
   -1.7865    0.4810    0.0000 O   0  0  0  0  0  0  0  0  0  0  0  0
    1.9927    1.3605    0.0000 C   0  0  0  0  0  0  0  0  0  0  0  0
   -2.5011    0.8932    0.0000 C   0  0  0  0  0  0  0  0  0  0  0  0
    2.7897    1.1509    0.0000 C   0  0  0  0  0  0  0  0  0  0  0  0
   -3.9304    0.8932    0.0000 C   0  0  0  0  0  0  0  0  0  0  0  0
    1.7831    2.1541    0.0000 Br  0  0  0  0  0  0  0  0  0  0  0  0
   -4.6346    0.4913    0.0000 Cl  0  0  0  0  0  0  0  0  0  0  0  0
   -3.2054    2.1300    0.0000 C   0  0  0  0  0  0  0  0  0  0  0  0
   -2.4908    1.7178    0.0000 C   0  0  0  0  0  0  0  0  0  0  0  0
   -3.9304    1.7178    0.0000 C   0  0  0  0  0  0  0  0  0  0  0  0
  2  1  1  0  0  0  0
  3  1  1  0  0  0  0
  4  2  1  0  0  0  0
  4  5  1  0  0  0  0
  5  3  2  0  0  0  0
  6  1  2  0  0  0  0
  7  8  1  0  0  0  0
  8  6  1  0  0  0  0
  9 14  1  0  0  0  0
 10  5  1  0  0  0  0
 10 21  2  0  0  0  0
 11  9  3  0  0  0  0
 12  3  1  0  0  0  0
 13  2  2  0  0  0  0
 14  4  1  0  0  0  0
 15  7  2  0  0  0  0
 16 20  2  0  0  0  0
 17  7  1  0  0  0  0
 18 17  1  0  0  0  0
 19 12  2  0  0  0  0
 20 18  1  0  0  0  0
 21 19  1  0  0  0  0
 22 16  1  0  0  0  0
 23 19  1  0  0  0  0
 24 22  1  0  0  0  0
 25 26  2  0  0  0  0
 26 20  1  0  0  0  0
 27 25  1  0  0  0  0
 27 22  2  0  0  0  0
M  END
>  <CdId>
1879

>  <Mol Weight>
446.682

>  <Formula>
C19H13BrClN3O3

>  <Click_ID>
CLK025C04 __  __  __

$$$$
CLK025D04 __  __  __
 OpenBabel03171413522D

 26 28  0  0  0  0  0  0  0  0999 V2000
    2.0322    0.8975    0.0000 C   0  0  0  0  0  0  0  0  0  0  0  0
    2.1148    0.0825    0.0000 C   0  0  0  0  0  0  0  0  0  0  0  0
    2.9229   -0.0928    0.0000 N   0  0  0  0  0  0  0  0  0  0  0  0
    2.7853    1.2379    0.0000 C   0  0  0  0  0  0  0  0  0  0  0  0
    3.3320    0.6190    0.0000 C   0  0  0  0  0  0  0  0  0  0  0  0
    1.3204    1.3101    0.0000 N   0  0  0  0  0  0  0  0  0  0  0  0
   -0.1100    1.3101    0.0000 C   0  0  0  0  0  0  0  0  0  0  0  0
    0.6052    0.8975    0.0000 N   0  0  0  0  0  0  0  0  0  0  0  0
    2.7715   -1.5096    0.0000 C   0  0  0  0  0  0  0  0  0  0  0  0
    2.2798   -2.1801    0.0000 C   0  0  0  0  0  0  0  0  0  0  0  0
    1.4958   -0.4745    0.0000 O   0  0  0  0  0  0  0  0  0  0  0  0
    3.2564   -0.8494    0.0000 C   0  0  0  0  0  0  0  0  0  0  0  0
   -0.1100    2.1354    0.0000 O   0  0  0  0  0  0  0  0  0  0  0  0
   -2.9710    1.3204    0.0000 C   0  0  0  0  0  0  0  0  0  0  0  0
   -0.8218    0.8975    0.0000 C   0  0  0  0  0  0  0  0  0  0  0  0
   -1.5371    1.3101    0.0000 O   0  0  0  0  0  0  0  0  0  0  0  0
   -2.2523    0.8975    0.0000 C   0  0  0  0  0  0  0  0  0  0  0  0
   -3.6793    0.8975    0.0000 C   0  0  0  0  0  0  0  0  0  0  0  0
    3.0363    2.0219    0.0000 C   0  0  0  0  0  0  0  0  0  0  0  0
   -4.3981    1.3101    0.0000 Cl  0  0  0  0  0  0  0  0  0  0  0  0
    4.1332    0.7909    0.0000 C   0  0  0  0  0  0  0  0  0  0  0  0
   -2.9710   -0.3404    0.0000 C   0  0  0  0  0  0  0  0  0  0  0  0
   -2.2523    0.0687    0.0000 C   0  0  0  0  0  0  0  0  0  0  0  0
   -3.6793    0.0687    0.0000 C   0  0  0  0  0  0  0  0  0  0  0  0
    3.8444    2.1835    0.0000 C   0  0  0  0  0  0  0  0  0  0  0  0
    4.3946    1.5715    0.0000 C   0  0  0  0  0  0  0  0  0  0  0  0
  2  1  1  0  0  0  0
  3  2  1  0  0  0  0
  3  5  1  0  0  0  0
  4  1  1  0  0  0  0
  5  4  2  0  0  0  0
  6  1  2  0  0  0  0
  7  8  1  0  0  0  0
  8  6  1  0  0  0  0
  9 12  1  0  0  0  0
 10  9  3  0  0  0  0
 11  2  2  0  0  0  0
 12  3  1  0  0  0  0
 13  7  2  0  0  0  0
 14 17  1  0  0  0  0
 15  7  1  0  0  0  0
 16 15  1  0  0  0  0
 17 16  1  0  0  0  0
 18 14  2  0  0  0  0
 18 24  1  0  0  0  0
 19  4  1  0  0  0  0
 20 18  1  0  0  0  0
 21  5  1  0  0  0  0
 21 26  2  0  0  0  0
 22 23  1  0  0  0  0
 23 17  2  0  0  0  0
 24 22  2  0  0  0  0
 25 19  2  0  0  0  0
 26 25  1  0  0  0  0
M  END
>  <CdId>
1889

>  <Mol Weight>
367.786

>  <Formula>
C19H14ClN3O3

>  <Click_ID>
CLK025D04 __  __  __

$$$$
CLK025E02 __  __  __
 OpenBabel03171413522D

 22 23  0  0  0  0  0  0  0  0999 V2000
   -3.8678    0.4744    0.0000 C   0  0  0  0  0  0  0  0  0  0  0  0
   -3.2352    1.0108    0.0000 C   0  0  0  0  0  0  0  0  0  0  0  0
   -2.5614    0.5363    0.0000 C   0  0  0  0  0  0  0  0  0  0  0  0
    3.8643    0.3988    0.0000 C   0  0  0  0  0  0  0  0  0  0  0  0
    4.5417   -0.0722    0.0000 C   0  0  0  0  0  0  0  0  0  0  0  0
   -1.1449    0.4126    0.0000 N   0  0  0  0  0  0  0  0  0  0  0  0
   -4.5073   -0.0516    0.0000 O   0  0  0  0  0  0  0  0  0  0  0  0
   -3.1699    0.0378    0.0000 O   0  0  0  0  0  0  0  0  0  0  0  0
   -1.8118    0.8870    0.0000 N   0  0  0  0  0  0  0  0  0  0  0  0
   -2.6369   -0.2888    0.0000 O   0  0  0  0  0  0  0  0  0  0  0  0
   -0.3954    0.7632    0.0000 C   0  0  0  0  0  0  0  0  0  0  0  0
    1.0246    0.6360    0.0000 C   0  0  0  0  0  0  0  0  0  0  0  0
    0.2785    0.2853    0.0000 C   0  0  0  0  0  0  0  0  0  0  0  0
    1.6984    0.1650    0.0000 C   0  0  0  0  0  0  0  0  0  0  0  0
    3.1149    0.0481    0.0000 C   0  0  0  0  0  0  0  0  0  0  0  0
    2.4410    0.5157    0.0000 O   0  0  0  0  0  0  0  0  0  0  0  0
   -4.5451    0.9627    0.0000 C   0  0  0  0  0  0  0  0  0  0  0  0
    0.8802   -1.0073    0.0000 C   0  0  0  0  0  0  0  0  0  0  0  0
   -3.3830   -0.7632    0.0000 C   0  0  0  0  0  0  0  0  0  0  0  0
   -4.1978   -0.8113    0.0000 C   0  0  0  0  0  0  0  0  0  0  0  0
    0.2028   -0.5363    0.0000 C   0  0  0  0  0  0  0  0  0  0  0  0
    1.6296   -0.6636    0.0000 C   0  0  0  0  0  0  0  0  0  0  0  0
  2  1  1  0  0  0  0
  3  2  1  0  0  0  0
  4 15  1  0  0  0  0
  5  4  3  0  0  0  0
  6  9  1  0  0  0  0
  7  1  1  0  0  0  0
  8  1  1  0  0  0  0
  9  3  1  0  0  0  0
 10  3  2  0  0  0  0
 11  6  2  0  0  0  0
 12 13  1  0  0  0  0
 13 11  1  0  0  0  0
 14 12  2  0  0  0  0
 15 16  1  0  0  0  0
 16 14  1  0  0  0  0
 17  1  1  0  0  0  0
 18 21  1  0  0  0  0
 19  8  1  0  0  0  0
 20  7  1  0  0  0  0
 20 19  1  0  0  0  0
 21 13  2  0  0  0  0
 22 18  2  0  0  0  0
 22 14  1  0  0  0  0
M  END
>  <CdId>
1897

>  <Mol Weight>
302.3251

>  <Formula>
C16H18N2O4

>  <Click_ID>
CLK025E02 __  __  __

$$$$
CLK025E03 __  __  __
 OpenBabel03171413522D

 23 25  0  0  0  0  0  0  0  0999 V2000
    1.1963    0.4263    0.0000 C   0  0  0  0  0  0  0  0  0  0  0  0
    1.1756   -0.3884    0.0000 C   0  0  0  0  0  0  0  0  0  0  0  0
    1.9353   -0.6772    0.0000 N   0  0  0  0  0  0  0  0  0  0  0  0
   -1.6362    0.7734    0.0000 C   0  0  0  0  0  0  0  0  0  0  0  0
    1.9868    0.6600    0.0000 C   0  0  0  0  0  0  0  0  0  0  0  0
    2.4475   -0.0138    0.0000 C   0  0  0  0  0  0  0  0  0  0  0  0
    0.5363    0.9213    0.0000 N   0  0  0  0  0  0  0  0  0  0  0  0
   -1.8975   -0.0103    0.0000 N   0  0  0  0  0  0  0  0  0  0  0  0
   -0.8731    1.0966    0.0000 C   0  0  0  0  0  0  0  0  0  0  0  0
   -2.2997    1.2581    0.0000 C   0  0  0  0  0  0  0  0  0  0  0  0
   -2.7225   -0.0035    0.0000 N   0  0  0  0  0  0  0  0  0  0  0  0
   -0.2166    0.6016    0.0000 N   0  0  0  0  0  0  0  0  0  0  0  0
    2.9494   -1.6878    0.0000 C   0  0  0  0  0  0  0  0  0  0  0  0
   -2.9632    0.7838    0.0000 C   0  0  0  0  0  0  0  0  0  0  0  0
    3.7469   -1.9078    0.0000 C   0  0  0  0  0  0  0  0  0  0  0  0
    0.4882   -0.8628    0.0000 O   0  0  0  0  0  0  0  0  0  0  0  0
   -0.7734    1.9113    0.0000 O   0  0  0  0  0  0  0  0  0  0  0  0
    2.1553   -1.4747    0.0000 C   0  0  0  0  0  0  0  0  0  0  0  0
    2.3478    1.4093    0.0000 C   0  0  0  0  0  0  0  0  0  0  0  0
    3.2794    0.0481    0.0000 C   0  0  0  0  0  0  0  0  0  0  0  0
   -3.7503    1.0587    0.0000 C   0  0  0  0  0  0  0  0  0  0  0  0
    3.1728    1.4712    0.0000 C   0  0  0  0  0  0  0  0  0  0  0  0
    3.6335    0.7838    0.0000 C   0  0  0  0  0  0  0  0  0  0  0  0
  2  1  1  0  0  0  0
  3  2  1  0  0  0  0
  4  9  1  0  0  0  0
  5  1  1  0  0  0  0
  6  5  2  0  0  0  0
  6  3  1  0  0  0  0
  7  1  2  0  0  0  0
  8  4  1  0  0  0  0
  9 12  1  0  0  0  0
 10  4  2  0  0  0  0
 11  8  1  0  0  0  0
 11 14  2  0  0  0  0
 12  7  1  0  0  0  0
 13 18  1  0  0  0  0
 14 10  1  0  0  0  0
 15 13  3  0  0  0  0
 16  2  2  0  0  0  0
 17  9  2  0  0  0  0
 18  3  1  0  0  0  0
 19  5  1  0  0  0  0
 20  6  1  0  0  0  0
 21 14  1  0  0  0  0
 22 19  2  0  0  0  0
 23 22  1  0  0  0  0
 23 20  2  0  0  0  0
M  END
>  <CdId>
1898

>  <Mol Weight>
307.3067

>  <Formula>
C16H13N5O2

>  <Click_ID>
CLK025E03 __  __  __

$$$$
CLK025G04 __  __  __
 OpenBabel03171413522D

 19 20  0  0  0  0  0  0  0  0999 V2000
   -2.4818   -1.4850    0.0000 C   0  0  0  0  0  0  0  0  0  0  0  0
   -0.3438    0.6188    0.0000 C   0  0  0  0  0  0  0  0  0  0  0  0
   -2.4818   -2.3100    0.0000 C   0  0  0  0  0  0  0  0  0  0  0  0
    0.3541    1.0519    0.0000 C   0  0  0  0  0  0  0  0  0  0  0  0
   -1.0690    1.0244    0.0000 N   0  0  0  0  0  0  0  0  0  0  0  0
    1.0657    0.6497    0.0000 C   0  0  0  0  0  0  0  0  0  0  0  0
   -1.7806    0.6016    0.0000 C   0  0  0  0  0  0  0  0  0  0  0  0
   -0.3438   -0.1994    0.0000 O   0  0  0  0  0  0  0  0  0  0  0  0
   -2.4818   -0.6565    0.0000 C   0  0  0  0  0  0  0  0  0  0  0  0
   -1.7703   -0.2234    0.0000 C   0  0  0  0  0  0  0  0  0  0  0  0
    1.7738    1.0760    0.0000 C   0  0  0  0  0  0  0  0  0  0  0  0
   -3.2175    0.5775    0.0000 C   0  0  0  0  0  0  0  0  0  0  0  0
   -2.5197    1.0038    0.0000 C   0  0  0  0  0  0  0  0  0  0  0  0
   -3.1934   -0.2475    0.0000 C   0  0  0  0  0  0  0  0  0  0  0  0
    2.4991    0.6635    0.0000 C   0  0  0  0  0  0  0  0  0  0  0  0
    1.7772    1.8907    0.0000 C   0  0  0  0  0  0  0  0  0  0  0  0
    3.2140    1.0897    0.0000 C   0  0  0  0  0  0  0  0  0  0  0  0
    2.4853    2.3135    0.0000 C   0  0  0  0  0  0  0  0  0  0  0  0
    3.1969    1.9043    0.0000 C   0  0  0  0  0  0  0  0  0  0  0  0
  2  5  1  0  0  0  0
  3  1  3  0  0  0  0
  4  2  1  0  0  0  0
  5  7  1  0  0  0  0
  6  4  2  0  0  0  0
  7 10  2  0  0  0  0
  8  2  2  0  0  0  0
  9  1  1  0  0  0  0
 10  9  1  0  0  0  0
 11  6  1  0  0  0  0
 12 14  1  0  0  0  0
 13 12  2  0  0  0  0
 13  7  1  0  0  0  0
 14  9  2  0  0  0  0
 15 11  2  0  0  0  0
 16 11  1  0  0  0  0
 17 15  1  0  0  0  0
 17 19  2  0  0  0  0
 18 16  2  0  0  0  0
 19 18  1  0  0  0  0
M  END
>  <CdId>
1919

>  <Mol Weight>
247.2912

>  <Formula>
C17H13NO

>  <Click_ID>
CLK025G04 __  __  __

$$$$
CLK025H02 __  __  __
 OpenBabel03171413522D

 16 17  0  0  0  0  0  0  0  0999 V2000
   -0.2581    0.0688    0.0000 C   0  0  0  0  0  0  0  0  0  0  0  0
   -0.9738   -0.3475    0.0000 C   0  0  0  0  0  0  0  0  0  0  0  0
    1.9958    0.8878    0.0000 C   0  0  0  0  0  0  0  0  0  0  0  0
    2.3983    1.5966    0.0000 C   0  0  0  0  0  0  0  0  0  0  0  0
    0.4542   -0.3475    0.0000 C   0  0  0  0  0  0  0  0  0  0  0  0
   -0.2581    0.8912    0.0000 C   0  0  0  0  0  0  0  0  0  0  0  0
   -0.9738   -1.1803    0.0000 C   0  0  0  0  0  0  0  0  0  0  0  0
    0.4542   -1.1803    0.0000 C   0  0  0  0  0  0  0  0  0  0  0  0
   -0.2581   -1.5897    0.0000 C   0  0  0  0  0  0  0  0  0  0  0  0
    0.4611    1.3110    0.0000 O   0  0  0  0  0  0  0  0  0  0  0  0
    1.1733    0.0654    0.0000 O   0  0  0  0  0  0  0  0  0  0  0  0
    1.1733    0.8878    0.0000 C   0  0  0  0  0  0  0  0  0  0  0  0
   -1.6826    0.0654    0.0000 C   0  0  0  0  0  0  0  0  0  0  0  0
   -1.6826   -1.5932    0.0000 C   0  0  0  0  0  0  0  0  0  0  0  0
   -2.4017   -0.3475    0.0000 C   0  0  0  0  0  0  0  0  0  0  0  0
   -2.4017   -1.1803    0.0000 C   0  0  0  0  0  0  0  0  0  0  0  0
  2  1  1  0  0  0  0
  3 12  1  0  0  0  0
  4  3  3  0  0  0  0
  5  1  2  0  0  0  0
  6  1  1  0  0  0  0
  7  2  1  0  0  0  0
  8  5  1  0  0  0  0
  9  8  2  0  0  0  0
  9  7  1  0  0  0  0
 10  6  2  0  0  0  0
 11  5  1  0  0  0  0
 12 11  1  0  0  0  0
 13  2  2  0  0  0  0
 14  7  2  0  0  0  0
 15 13  1  0  0  0  0
 16 15  2  0  0  0  0
 16 14  1  0  0  0  0
M  END
>  <CdId>
1927

>  <Mol Weight>
210.228

>  <Formula>
C14H10O2

>  <Click_ID>
CLK025H02 __  __  __

$$$$
CLK025H03 __  __  __
 OpenBabel03171413522D

 28 30  0  0  0  0  0  0  0  0999 V2000
    1.3129   -0.8008    0.0000 C   0  0  0  0  0  0  0  0  0  0  0  0
    2.0621   -1.1342    0.0000 C   0  0  0  0  0  0  0  0  0  0  0  0
    1.3954    0.0206    0.0000 C   0  0  0  0  0  0  0  0  0  0  0  0
    2.6189   -0.5155    0.0000 N   0  0  0  0  0  0  0  0  0  0  0  0
    2.2064    0.1994    0.0000 C   0  0  0  0  0  0  0  0  0  0  0  0
    0.5980   -1.2029    0.0000 N   0  0  0  0  0  0  0  0  0  0  0  0
   -0.8351   -1.2029    0.0000 C   0  0  0  0  0  0  0  0  0  0  0  0
   -0.1203   -0.7904    0.0000 N   0  0  0  0  0  0  0  0  0  0  0  0
    3.9180    0.0619    0.0000 C   0  0  0  0  0  0  0  0  0  0  0  0
    2.4539    0.9830    0.0000 C   0  0  0  0  0  0  0  0  0  0  0  0
   -2.9797    0.0344    0.0000 C   0  0  0  0  0  0  0  0  0  0  0  0
    4.4060    0.7252    0.0000 C   0  0  0  0  0  0  0  0  0  0  0  0
    0.8455    0.6392    0.0000 C   0  0  0  0  0  0  0  0  0  0  0  0
   -3.6946    0.4468    0.0000 C   0  0  0  0  0  0  0  0  0  0  0  0
    2.2339   -1.9418    0.0000 O   0  0  0  0  0  0  0  0  0  0  0  0
   -2.2648    0.4468    0.0000 C   0  0  0  0  0  0  0  0  0  0  0  0
   -1.5500    0.0344    0.0000 O   0  0  0  0  0  0  0  0  0  0  0  0
    3.4368   -0.6083    0.0000 C   0  0  0  0  0  0  0  0  0  0  0  0
   -0.8351   -2.0277    0.0000 O   0  0  0  0  0  0  0  0  0  0  0  0
   -1.5500   -0.7904    0.0000 C   0  0  0  0  0  0  0  0  0  0  0  0
   -2.2648    1.2717    0.0000 C   0  0  0  0  0  0  0  0  0  0  0  0
   -3.6946    1.2717    0.0000 C   0  0  0  0  0  0  0  0  0  0  0  0
    1.0998    1.4228    0.0000 C   0  0  0  0  0  0  0  0  0  0  0  0
   -2.9797   -0.7904    0.0000 Cl  0  0  0  0  0  0  0  0  0  0  0  0
    1.9040    1.5913    0.0000 C   0  0  0  0  0  0  0  0  0  0  0  0
   -2.9797    1.6841    0.0000 C   0  0  0  0  0  0  0  0  0  0  0  0
   -4.4094    1.6841    0.0000 Cl  0  0  0  0  0  0  0  0  0  0  0  0
    0.5499    2.0312    0.0000 Br  0  0  0  0  0  0  0  0  0  0  0  0
  2  1  1  0  0  0  0
  3  1  1  0  0  0  0
  4  2  1  0  0  0  0
  4  5  1  0  0  0  0
  5  3  2  0  0  0  0
  6  1  2  0  0  0  0
  7  8  1  0  0  0  0
  8  6  1  0  0  0  0
  9 18  1  0  0  0  0
 10  5  1  0  0  0  0
 10 25  2  0  0  0  0
 11 16  2  0  0  0  0
 12  9  3  0  0  0  0
 13  3  1  0  0  0  0
 14 11  1  0  0  0  0
 15  2  2  0  0  0  0
 16 17  1  0  0  0  0
 17 20  1  0  0  0  0
 18  4  1  0  0  0  0
 19  7  2  0  0  0  0
 20  7  1  0  0  0  0
 21 16  1  0  0  0  0
 22 26  1  0  0  0  0
 22 14  2  0  0  0  0
 23 13  2  0  0  0  0
 24 11  1  0  0  0  0
 25 23  1  0  0  0  0
 26 21  2  0  0  0  0
 27 22  1  0  0  0  0
 28 23  1  0  0  0  0
M  END
>  <CdId>
1928

>  <Mol Weight>
481.127

>  <Formula>
C19H12BrCl2N3O3

>  <Click_ID>
CLK025H03 __  __  __

$$$$
CLK025H04 __  __  __
 OpenBabel03171413522D

 26 28  0  0  0  0  0  0  0  0999 V2000
    1.3158    0.3024    0.0000 C   0  0  0  0  0  0  0  0  0  0  0  0
    1.3982   -0.5119    0.0000 C   0  0  0  0  0  0  0  0  0  0  0  0
    2.1987   -0.6905    0.0000 N   0  0  0  0  0  0  0  0  0  0  0  0
    2.0613    0.6425    0.0000 C   0  0  0  0  0  0  0  0  0  0  0  0
    2.6110    0.0241    0.0000 C   0  0  0  0  0  0  0  0  0  0  0  0
   -2.9683    0.2989    0.0000 N   0  3  0  0  0  0  0  0  0  0  0  0
    0.6012    0.7146    0.0000 N   0  0  0  0  0  0  0  0  0  0  0  0
    0.6012    1.5391    0.0000 N   0  0  0  0  0  0  0  0  0  0  0  0
   -0.1099    1.9514    0.0000 C   0  0  0  0  0  0  0  0  0  0  0  0
    2.0475   -2.1025    0.0000 C   0  0  0  0  0  0  0  0  0  0  0  0
   -2.2537    0.7111    0.0000 C   0  0  0  0  0  0  0  0  0  0  0  0
    1.5666   -2.7724    0.0000 C   0  0  0  0  0  0  0  0  0  0  0  0
   -3.6829    0.7111    0.0000 O   0  5  0  0  0  0  0  0  0  0  0  0
    0.7868   -1.0616    0.0000 O   0  0  0  0  0  0  0  0  0  0  0  0
   -2.9683   -0.5256    0.0000 O   0  0  0  0  0  0  0  0  0  0  0  0
   -0.8245    1.5391    0.0000 C   0  0  0  0  0  0  0  0  0  0  0  0
    2.5389   -1.4394    0.0000 C   0  0  0  0  0  0  0  0  0  0  0  0
   -0.1099    2.7759    0.0000 O   0  0  0  0  0  0  0  0  0  0  0  0
   -1.5494    0.2989    0.0000 C   0  0  0  0  0  0  0  0  0  0  0  0
   -2.2537    1.5391    0.0000 C   0  0  0  0  0  0  0  0  0  0  0  0
   -0.8245    0.7111    0.0000 C   0  0  0  0  0  0  0  0  0  0  0  0
   -1.5494    1.9617    0.0000 C   0  0  0  0  0  0  0  0  0  0  0  0
    2.3224    1.4258    0.0000 C   0  0  0  0  0  0  0  0  0  0  0  0
    3.4218    0.1924    0.0000 C   0  0  0  0  0  0  0  0  0  0  0  0
    3.1297    1.5907    0.0000 C   0  0  0  0  0  0  0  0  0  0  0  0
    3.6794    0.9860    0.0000 C   0  0  0  0  0  0  0  0  0  0  0  0
  2  1  1  0  0  0  0
  3  2  1  0  0  0  0
  4  1  1  0  0  0  0
  5  4  2  0  0  0  0
  5  3  1  0  0  0  0
  6 11  1  0  0  0  0
  7  1  2  0  0  0  0
  8  7  1  0  0  0  0
  9  8  1  0  0  0  0
 10 17  1  0  0  0  0
 11 20  1  0  0  0  0
 12 10  3  0  0  0  0
 13  6  1  0  0  0  0
 14  2  2  0  0  0  0
 15  6  2  0  0  0  0
 16  9  1  0  0  0  0
 17  3  1  0  0  0  0
 18  9  2  0  0  0  0
 19 21  1  0  0  0  0
 19 11  2  0  0  0  0
 20 22  2  0  0  0  0
 21 16  2  0  0  0  0
 22 16  1  0  0  0  0
 23  4  1  0  0  0  0
 24  5  1  0  0  0  0
 25 23  2  0  0  0  0
 26 25  1  0  0  0  0
 26 24  2  0  0  0  0
M  CHG  2   6   1  13  -1
M  END
>  <CdId>
1929

>  <Mol Weight>
348.3123

>  <Formula>
C18H12N4O4

>  <Click_ID>
CLK025H04 __  __  __

$$$$
CLK025H05 __  __  __
 OpenBabel03171413522D

 25 27  0  0  0  0  0  0  0  0999 V2000
    1.7591   -0.8092    0.0000 C   0  0  0  0  0  0  0  0  0  0  0  0
    1.8928    0.0035    0.0000 C   0  0  0  0  0  0  0  0  0  0  0  0
    2.6883    0.1166    0.0000 N   0  0  0  0  0  0  0  0  0  0  0  0
    2.4826   -1.1864    0.0000 C   0  0  0  0  0  0  0  0  0  0  0  0
    3.0620   -0.6069    0.0000 C   0  0  0  0  0  0  0  0  0  0  0  0
    1.0219   -1.1933    0.0000 N   0  0  0  0  0  0  0  0  0  0  0  0
    2.5957    1.5568    0.0000 C   0  0  0  0  0  0  0  0  0  0  0  0
    0.3223   -0.7441    0.0000 N   0  0  0  0  0  0  0  0  0  0  0  0
    2.1328    2.2528    0.0000 C   0  0  0  0  0  0  0  0  0  0  0  0
   -0.4115   -1.1213    0.0000 C   0  0  0  0  0  0  0  0  0  0  0  0
    1.3338    0.5966    0.0000 O   0  0  0  0  0  0  0  0  0  0  0  0
    3.0587    0.8641    0.0000 C   0  0  0  0  0  0  0  0  0  0  0  0
   -0.4595   -1.9442    0.0000 O   0  0  0  0  0  0  0  0  0  0  0  0
   -1.1042   -0.6721    0.0000 C   0  0  0  0  0  0  0  0  0  0  0  0
   -1.8379   -1.0493    0.0000 C   0  0  0  0  0  0  0  0  0  0  0  0
   -3.3158   -1.7967    0.0000 C   0  0  0  0  0  0  0  0  0  0  0  0
    2.6952   -1.9716    0.0000 C   0  0  0  0  0  0  0  0  0  0  0  0
   -4.0633   -2.1705    0.0000 Cl  0  0  0  0  0  0  0  0  0  0  0  0
    3.8473   -0.8195    0.0000 C   0  0  0  0  0  0  0  0  0  0  0  0
   -3.2644   -0.9738    0.0000 C   0  0  0  0  0  0  0  0  0  0  0  0
   -2.6197   -2.2494    0.0000 C   0  0  0  0  0  0  0  0  0  0  0  0
   -2.5271   -0.6001    0.0000 C   0  0  0  0  0  0  0  0  0  0  0  0
   -1.8893   -1.8757    0.0000 C   0  0  0  0  0  0  0  0  0  0  0  0
    3.4941   -2.1808    0.0000 C   0  0  0  0  0  0  0  0  0  0  0  0
    4.0599   -1.6185    0.0000 C   0  0  0  0  0  0  0  0  0  0  0  0
  2  1  1  0  0  0  0
  3  2  1  0  0  0  0
  4  1  1  0  0  0  0
  5  4  2  0  0  0  0
  5  3  1  0  0  0  0
  6  1  2  0  0  0  0
  7 12  1  0  0  0  0
  8  6  1  0  0  0  0
  9  7  3  0  0  0  0
 10  8  1  0  0  0  0
 11  2  2  0  0  0  0
 12  3  1  0  0  0  0
 13 10  2  0  0  0  0
 14 10  1  0  0  0  0
 15 14  1  0  0  0  0
 16 21  2  0  0  0  0
 17  4  1  0  0  0  0
 18 16  1  0  0  0  0
 19  5  1  0  0  0  0
 20 22  2  0  0  0  0
 20 16  1  0  0  0  0
 21 23  1  0  0  0  0
 22 15  1  0  0  0  0
 23 15  2  0  0  0  0
 24 17  2  0  0  0  0
 25 24  1  0  0  0  0
 25 19  2  0  0  0  0
M  END
>  <CdId>
1930

>  <Mol Weight>
351.786

>  <Formula>
C19H14ClN3O2

>  <Click_ID>
CLK025H05 __  __  __

$$$$
CLK026D11 __  __  __
 OpenBabel03171413522D

 14 15  0  0  0  0  0  0  0  0999 V2000
   -1.3189    0.6744    0.0000 C   0  0  0  0  0  0  0  0  0  0  0  0
    0.0671   -0.6781    0.0000 C   0  0  3  0  0  0  0  0  0  0  0  0
   -1.0245   -0.7377    0.0000 C   0  0  3  0  0  0  0  0  0  0  0  0
   -0.9389    0.0261    0.0000 C   0  0  3  0  0  0  0  0  0  0  0  0
    0.8792   -0.6781    0.0000 C   0  0  0  0  0  0  0  0  0  0  0  0
   -1.7660   -0.7750    0.0000 C   0  0  0  0  0  0  0  0  0  0  0  0
   -0.2310   -0.3838    0.0000 C   0  0  3  0  0  0  0  0  0  0  0  0
    1.2966   -1.3897    0.0000 C   0  0  0  0  0  0  0  0  0  0  0  0
    0.4732    0.0373    0.0000 C   0  0  0  0  0  0  0  0  0  0  0  0
   -0.3539   -1.3897    0.0000 O   0  0  0  0  0  0  0  0  0  0  0  0
    2.1162   -1.3897    0.0000 I   0  0  0  0  0  0  0  0  0  0  0  0
   -0.9128    1.3934    0.0000 C   0  0  0  0  0  0  0  0  0  0  0  0
   -2.1199    0.8904    0.0000 C   0  0  0  0  0  0  0  0  0  0  0  0
   -0.2310    0.4433    0.0000 C   0  0  0  0  0  0  0  0  0  0  0  0
  2  3  1  0  0  0  0
  3  1  1  0  0  0  0
  4  1  1  0  0  0  0
  5  2  1  0  0  0  0
  6  4  1  0  0  0  0
  6  3  1  0  0  0  0
  7  4  1  0  0  0  0
  8  5  3  0  0  0  0
  9  7  1  0  0  0  0
  9  2  1  0  0  0  0
 10  2  1  0  0  0  0
 11  8  1  0  0  0  0
 12  1  1  0  0  0  0
 13  1  1  0  0  0  0
 14  7  1  0  0  0  0
M  END
>  <CdId>
1976

>  <Mol Weight>
304.1673

>  <Formula>
C12H17IO

>  <Click_ID>
CLK026D11 __  __  __

$$$$
CLK026H11 __  __  __
 OpenBabel03171413522D

 14 15  0  0  0  0  0  0  0  0999 V2000
   -0.8084    0.0575    0.0000 C   0  0  3  0  0  0  0  0  0  0  0  0
   -0.0926   -0.3547    0.0000 C   0  0  3  0  0  0  0  0  0  0  0  0
   -0.9266    0.7541    0.0000 C   0  0  0  0  0  0  0  0  0  0  0  0
    0.6294   -0.7636    0.0000 C   0  0  0  0  0  0  0  0  0  0  0  0
   -1.0001   -0.2684    0.0000 C   0  0  3  0  0  0  0  0  0  0  0  0
   -0.2748   -0.6614    0.0000 C   0  0  0  0  0  0  0  0  0  0  0  0
    1.2078   -1.1087    0.0000 C   0  0  0  0  0  0  0  0  0  0  0  0
   -1.6487   -0.2684    0.0000 C   0  0  0  0  0  0  0  0  0  0  0  0
   -1.8692   -0.6199    0.0000 C   0  0  0  0  0  0  0  0  0  0  0  0
    0.6646   -0.0895    0.0000 O   0  0  0  0  0  0  0  0  0  0  0  0
    1.8660   -1.4954    0.0000 I   0  0  0  0  0  0  0  0  0  0  0  0
   -0.0703    0.3291    0.0000 C   0  0  0  0  0  0  0  0  0  0  0  0
   -1.3420    1.4059    0.0000 C   0  0  0  0  0  0  0  0  0  0  0  0
   -0.4569    1.4986    0.0000 C   0  0  0  0  0  0  0  0  0  0  0  0
  2  1  1  0  0  0  0
  3  1  1  0  0  0  0
  4  2  1  0  0  0  0
  5  3  1  0  0  0  0
  5  9  1  0  0  0  0
  6  2  1  0  0  0  0
  6  5  1  0  0  0  0
  7  4  3  0  0  0  0
  8  1  1  0  0  0  0
  9  8  1  0  0  0  0
 10  2  1  0  0  0  0
 11  7  1  0  0  0  0
 12  1  1  0  0  0  0
 13  3  1  0  0  0  0
 14  3  1  0  0  0  0
M  END
>  <CdId>
2016

>  <Mol Weight>
304.1673

>  <Formula>
C12H17IO

>  <Click_ID>
CLK026H11 __  __  __

$$$$
CLK027C10 __  __  __
 OpenBabel03171413522D

 20 21  0  0  0  0  0  0  0  0999 V2000
    1.8150   -0.7184    0.0000 C   0  0  0  0  0  0  0  0  0  0  0  0
    2.5987   -0.4675    0.0000 N   0  0  0  0  0  0  0  0  0  0  0  0
    1.1000   -0.3059    0.0000 N   0  0  0  0  0  0  0  0  0  0  0  0
    1.8150   -1.5503    0.0000 S   0  0  0  0  0  0  0  0  0  0  0  0
    3.0766   -1.1378    0.0000 C   0  0  0  0  0  0  0  0  0  0  0  0
    0.3884   -0.7184    0.0000 C   0  0  0  0  0  0  0  0  0  0  0  0
    2.5987   -1.8047    0.0000 C   0  0  0  0  0  0  0  0  0  0  0  0
   -3.1866    2.1759    0.0000 C   0  0  0  0  0  0  0  0  0  0  0  0
   -3.9050    2.5919    0.0000 C   0  0  0  0  0  0  0  0  0  0  0  0
   -0.3300   -0.3059    0.0000 C   0  0  0  0  0  0  0  0  0  0  0  0
    0.3884   -1.5503    0.0000 O   0  0  0  0  0  0  0  0  0  0  0  0
   -1.0416   -0.7184    0.0000 C   0  0  0  0  0  0  0  0  0  0  0  0
   -0.3300    0.5191    0.0000 C   0  0  0  0  0  0  0  0  0  0  0  0
   -1.7566    0.5191    0.0000 C   0  0  0  0  0  0  0  0  0  0  0  0
   -1.7566   -0.3059    0.0000 C   0  0  0  0  0  0  0  0  0  0  0  0
   -1.0416    0.9281    0.0000 C   0  0  0  0  0  0  0  0  0  0  0  0
    3.9016   -1.1412    0.0000 C   0  0  0  0  0  0  0  0  0  0  0  0
    2.8531   -2.5884    0.0000 C   0  0  0  0  0  0  0  0  0  0  0  0
   -2.4750    1.7669    0.0000 C   0  0  0  0  0  0  0  0  0  0  0  0
   -2.4750    0.9419    0.0000 O   0  0  0  0  0  0  0  0  0  0  0  0
  2  1  2  0  0  0  0
  3  1  1  0  0  0  0
  4  1  1  0  0  0  0
  5  2  1  0  0  0  0
  6  3  1  0  0  0  0
  7  4  1  0  0  0  0
  7  5  2  0  0  0  0
  8 19  1  0  0  0  0
  9  8  3  0  0  0  0
 10  6  1  0  0  0  0
 11  6  2  0  0  0  0
 12 10  1  0  0  0  0
 13 10  2  0  0  0  0
 14 16  2  0  0  0  0
 15 12  2  0  0  0  0
 15 14  1  0  0  0  0
 16 13  1  0  0  0  0
 17  5  1  0  0  0  0
 18  7  1  0  0  0  0
 19 20  1  0  0  0  0
 20 14  1  0  0  0  0
M  END
>  <CdId>
2043

>  <Mol Weight>
286.349

>  <Formula>
C15H14N2O2S

>  <Click_ID>
CLK027C10 __  __  __

$$$$
CLK028C06 __  __  __
 OpenBabel03171413522D

 32 34  0  0  0  0  0  0  0  0999 V2000
   -2.1370   -0.1887    0.0000 C   0  0  0  0  0  0  0  0  0  0  0  0
   -2.8574   -0.6003    0.0000 C   0  0  0  0  0  0  0  0  0  0  0  0
    4.2707    1.0394    0.0000 C   0  0  0  0  0  0  0  0  0  0  0  0
    4.9945    1.4407    0.0000 C   0  0  0  0  0  0  0  0  0  0  0  0
   -0.7101   -0.1887    0.0000 N   0  0  0  0  0  0  0  0  0  0  0  0
    1.4304    1.0428    0.0000 C   0  0  0  0  0  0  0  0  0  0  0  0
   -1.4236   -0.6003    0.0000 N   0  0  0  0  0  0  0  0  0  0  0  0
   -2.1370    0.6380    0.0000 O   0  0  0  0  0  0  0  0  0  0  0  0
    2.1302    0.6380    0.0000 C   0  0  0  0  0  0  0  0  0  0  0  0
    0.7169    0.6380    0.0000 C   0  0  0  0  0  0  0  0  0  0  0  0
   -2.8574   -1.4270    0.0000 C   0  0  0  0  0  0  0  0  0  0  0  0
   -3.5709   -0.1887    0.0000 C   0  0  0  0  0  0  0  0  0  0  0  0
    2.1302   -0.1852    0.0000 C   0  0  0  0  0  0  0  0  0  0  0  0
    0.0035   -0.6003    0.0000 C   0  0  0  0  0  0  0  0  0  0  0  0
    0.7169   -0.1887    0.0000 C   0  0  0  0  0  0  0  0  0  0  0  0
   -3.0701    0.1990    0.0000 O   0  0  0  0  0  0  0  0  0  0  0  0
    1.4167   -0.5900    0.0000 C   0  0  0  0  0  0  0  0  0  0  0  0
    1.4304    1.8661    0.0000 O   0  0  0  0  0  0  0  0  0  0  0  0
    2.8540    1.0394    0.0000 O   0  0  0  0  0  0  0  0  0  0  0  0
    3.5572    0.6312    0.0000 C   0  0  0  0  0  0  0  0  0  0  0  0
   -3.5641    0.6380    0.0000 C   0  0  0  0  0  0  0  0  0  0  0  0
   -4.2845   -0.6003    0.0000 C   0  0  0  0  0  0  0  0  0  0  0  0
   -3.5778   -1.8352    0.0000 C   0  0  0  0  0  0  0  0  0  0  0  0
   -2.1405   -1.8352    0.0000 C   0  0  0  0  0  0  0  0  0  0  0  0
    0.7238    2.2640    0.0000 C   0  0  0  0  0  0  0  0  0  0  0  0
    0.7169    3.0838    0.0000 C   0  0  0  0  0  0  0  0  0  0  0  0
   -3.5778   -2.6619    0.0000 C   0  0  0  0  0  0  0  0  0  0  0  0
   -4.9945   -0.1852    0.0000 C   0  0  0  0  0  0  0  0  0  0  0  0
   -4.2775    1.0497    0.0000 C   0  0  0  0  0  0  0  0  0  0  0  0
   -2.1508   -2.6653    0.0000 C   0  0  0  0  0  0  0  0  0  0  0  0
   -2.8643   -3.0804    0.0000 C   0  0  0  0  0  0  0  0  0  0  0  0
   -4.9945    0.6415    0.0000 C   0  0  0  0  0  0  0  0  0  0  0  0
  2  1  1  0  0  0  0
  3 20  1  0  0  0  0
  4  3  3  0  0  0  0
  5  7  1  0  0  0  0
  6 10  1  0  0  0  0
  7  1  1  0  0  0  0
  8  1  2  0  0  0  0
  9 13  1  0  0  0  0
  9  6  2  0  0  0  0
 10 15  2  0  0  0  0
 11  2  1  0  0  0  0
 12  2  1  0  0  0  0
 13 17  2  0  0  0  0
 14  5  2  0  0  0  0
 15 14  1  0  0  0  0
 16  2  1  0  0  0  0
 17 15  1  0  0  0  0
 18  6  1  0  0  0  0
 19  9  1  0  0  0  0
 20 19  1  0  0  0  0
 21 12  2  0  0  0  0
 22 12  1  0  0  0  0
 23 11  2  0  0  0  0
 24 11  1  0  0  0  0
 25 18  1  0  0  0  0
 26 25  1  0  0  0  0
 27 23  1  0  0  0  0
 28 22  2  0  0  0  0
 29 21  1  0  0  0  0
 30 24  2  0  0  0  0
 31 30  1  0  0  0  0
 31 27  2  0  0  0  0
 32 28  1  0  0  0  0
 32 29  2  0  0  0  0
M  END
>  <CdId>
2110

>  <Mol Weight>
428.4798

>  <Formula>
C26H24N2O4

>  <Click_ID>
CLK028C06 __  __  __

$$$$
CLK028C09 __  __  __
 OpenBabel03171413522D

 28 30  0  0  0  0  0  0  0  0999 V2000
    2.0316    0.8937    0.0000 C   0  0  0  0  0  0  0  0  0  0  0  0
    2.1141    0.0757    0.0000 C   0  0  0  0  0  0  0  0  0  0  0  0
    2.9219   -0.0928    0.0000 N   0  0  0  0  0  0  0  0  0  0  0  0
    2.7844    1.2307    0.0000 C   0  0  0  0  0  0  0  0  0  0  0  0
    3.3344    0.6188    0.0000 C   0  0  0  0  0  0  0  0  0  0  0  0
    1.3165    1.3062    0.0000 N   0  0  0  0  0  0  0  0  0  0  0  0
   -2.2550    0.8937    0.0000 C   0  0  0  0  0  0  0  0  0  0  0  0
   -0.1100    1.3062    0.0000 C   0  0  0  0  0  0  0  0  0  0  0  0
   -2.9735    1.3132    0.0000 C   0  0  0  0  0  0  0  0  0  0  0  0
   -2.2550    0.0687    0.0000 C   0  0  0  0  0  0  0  0  0  0  0  0
    0.6016    0.8937    0.0000 N   0  0  0  0  0  0  0  0  0  0  0  0
   -1.5400    1.3062    0.0000 O   0  0  0  0  0  0  0  0  0  0  0  0
    2.7706   -1.5194    0.0000 C   0  0  0  0  0  0  0  0  0  0  0  0
    2.2791   -2.1828    0.0000 C   0  0  0  0  0  0  0  0  0  0  0  0
    1.4953   -0.4778    0.0000 O   0  0  0  0  0  0  0  0  0  0  0  0
   -2.9735   -0.3403    0.0000 C   0  0  0  0  0  0  0  0  0  0  0  0
   -3.6850    0.8937    0.0000 C   0  0  0  0  0  0  0  0  0  0  0  0
   -3.6850    0.0687    0.0000 C   0  0  0  0  0  0  0  0  0  0  0  0
    3.2553   -0.8491    0.0000 C   0  0  0  0  0  0  0  0  0  0  0  0
   -0.1100    2.1312    0.0000 O   0  0  0  0  0  0  0  0  0  0  0  0
   -0.8250    0.8937    0.0000 C   0  0  0  0  0  0  0  0  0  0  0  0
   -4.4000   -0.3403    0.0000 Br  0  0  0  0  0  0  0  0  0  0  0  0
    3.0353    2.0109    0.0000 C   0  0  0  0  0  0  0  0  0  0  0  0
    4.1353    0.7837    0.0000 C   0  0  0  0  0  0  0  0  0  0  0  0
   -2.9735    2.1347    0.0000 C   0  0  0  0  0  0  0  0  0  0  0  0
   -1.5400   -0.3403    0.0000 C   0  0  0  0  0  0  0  0  0  0  0  0
    3.8466    2.1862    0.0000 C   0  0  0  0  0  0  0  0  0  0  0  0
    4.3966    1.5675    0.0000 C   0  0  0  0  0  0  0  0  0  0  0  0
  2  1  1  0  0  0  0
  3  2  1  0  0  0  0
  4  1  1  0  0  0  0
  5  4  2  0  0  0  0
  5  3  1  0  0  0  0
  6  1  2  0  0  0  0
  7 12  1  0  0  0  0
  8 11  1  0  0  0  0
  9  7  1  0  0  0  0
 10  7  2  0  0  0  0
 11  6  1  0  0  0  0
 12 21  1  0  0  0  0
 13 19  1  0  0  0  0
 14 13  3  0  0  0  0
 15  2  2  0  0  0  0
 16 10  1  0  0  0  0
 17  9  2  0  0  0  0
 18 16  2  0  0  0  0
 18 17  1  0  0  0  0
 19  3  1  0  0  0  0
 20  8  2  0  0  0  0
 21  8  1  0  0  0  0
 22 18  1  0  0  0  0
 23  4  1  0  0  0  0
 24  5  1  0  0  0  0
 25  9  1  0  0  0  0
 26 10  1  0  0  0  0
 27 23  2  0  0  0  0
 28 27  1  0  0  0  0
 28 24  2  0  0  0  0
M  END
>  <CdId>
2113

>  <Mol Weight>
440.29

>  <Formula>
C21H18BrN3O3

>  <Click_ID>
CLK028C09 __  __  __

$$$$
CLK028D09 __  __  __
 OpenBabel03171413522D

 27 29  0  0  0  0  0  0  0  0999 V2000
    1.3131    0.3025    0.0000 C   0  0  0  0  0  0  0  0  0  0  0  0
    1.3989   -0.5190    0.0000 C   0  0  0  0  0  0  0  0  0  0  0  0
    2.2067   -0.6943    0.0000 N   0  0  0  0  0  0  0  0  0  0  0  0
    2.0692    0.6325    0.0000 C   0  0  0  0  0  0  0  0  0  0  0  0
    2.6192    0.0206    0.0000 C   0  0  0  0  0  0  0  0  0  0  0  0
    0.6015    0.7150    0.0000 N   0  0  0  0  0  0  0  0  0  0  0  0
   -0.1134    1.9524    0.0000 C   0  0  0  0  0  0  0  0  0  0  0  0
    0.6015    1.5399    0.0000 N   0  0  0  0  0  0  0  0  0  0  0  0
    2.0555   -2.1139    0.0000 C   0  0  0  0  0  0  0  0  0  0  0  0
    1.5639   -2.7738    0.0000 C   0  0  0  0  0  0  0  0  0  0  0  0
   -2.2548    0.7080    0.0000 C   0  0  0  0  0  0  0  0  0  0  0  0
    0.7802   -1.0690    0.0000 O   0  0  0  0  0  0  0  0  0  0  0  0
   -2.2548    1.5399    0.0000 C   0  0  0  0  0  0  0  0  0  0  0  0
   -1.5399    1.9524    0.0000 O   0  0  0  0  0  0  0  0  0  0  0  0
    2.5401   -1.4402    0.0000 C   0  0  0  0  0  0  0  0  0  0  0  0
   -0.1134    2.7773    0.0000 O   0  0  0  0  0  0  0  0  0  0  0  0
   -2.9732    0.2956    0.0000 C   0  0  0  0  0  0  0  0  0  0  0  0
   -0.8249    1.5399    0.0000 C   0  0  0  0  0  0  0  0  0  0  0  0
    2.3201    1.4162    0.0000 C   0  0  0  0  0  0  0  0  0  0  0  0
    3.4200    0.1925    0.0000 C   0  0  0  0  0  0  0  0  0  0  0  0
   -3.6847    1.5399    0.0000 C   0  0  0  0  0  0  0  0  0  0  0  0
   -1.5399    0.2956    0.0000 C   0  0  0  0  0  0  0  0  0  0  0  0
   -2.9732    1.9524    0.0000 C   0  0  0  0  0  0  0  0  0  0  0  0
   -3.6847    0.7080    0.0000 C   0  0  0  0  0  0  0  0  0  0  0  0
   -2.9732   -0.5190    0.0000 C   0  0  0  0  0  0  0  0  0  0  0  0
    3.1313    1.5880    0.0000 C   0  0  0  0  0  0  0  0  0  0  0  0
    3.6813    0.9761    0.0000 C   0  0  0  0  0  0  0  0  0  0  0  0
  2  1  1  0  0  0  0
  3  2  1  0  0  0  0
  4  1  1  0  0  0  0
  5  4  2  0  0  0  0
  5  3  1  0  0  0  0
  6  1  2  0  0  0  0
  7  8  1  0  0  0  0
  8  6  1  0  0  0  0
  9 15  1  0  0  0  0
 10  9  3  0  0  0  0
 11 13  2  0  0  0  0
 12  2  2  0  0  0  0
 13 14  1  0  0  0  0
 14 18  1  0  0  0  0
 15  3  1  0  0  0  0
 16  7  2  0  0  0  0
 17 11  1  0  0  0  0
 17 24  2  0  0  0  0
 18  7  1  0  0  0  0
 19  4  1  0  0  0  0
 20  5  1  0  0  0  0
 21 23  2  0  0  0  0
 22 11  1  0  0  0  0
 23 13  1  0  0  0  0
 24 21  1  0  0  0  0
 25 17  1  0  0  0  0
 26 19  2  0  0  0  0
 27 26  1  0  0  0  0
 27 20  2  0  0  0  0
M  END
>  <CdId>
2123

>  <Mol Weight>
361.3939

>  <Formula>
C21H19N3O3

>  <Click_ID>
CLK028D09 __  __  __

$$$$
CLK028F06 __  __  __
 OpenBabel03171413522D

 27 30  0  0  0  0  0  0  0  0999 V2000
    1.4064    0.8391    0.0000 C   0  0  0  0  0  0  0  0  0  0  0  0
    2.1354   -0.3852    0.0000 C   0  0  0  0  0  0  0  0  0  0  0  0
    1.4167    0.0138    0.0000 C   0  0  3  0  0  0  0  0  0  0  0  0
    2.8472    0.0378    0.0000 C   0  0  0  0  0  0  0  0  0  0  0  0
    2.1148    1.2620    0.0000 C   0  0  0  0  0  0  0  0  0  0  0  0
    2.8266    0.8597    0.0000 O   0  0  0  0  0  0  0  0  0  0  0  0
    0.7049   -0.3955    0.0000 C   0  0  0  0  0  0  0  0  0  0  0  0
    0.6912    1.2482    0.0000 C   0  0  0  0  0  0  0  0  0  0  0  0
    2.1389   -1.2035    0.0000 C   0  0  0  0  0  0  0  0  0  0  0  0
    0.7221   -1.2311    0.0000 C   0  0  0  0  0  0  0  0  0  0  0  0
   -2.8575   -1.7056    0.0000 C   0  0  0  0  0  0  0  0  0  0  0  0
    0.0068   -1.6540    0.0000 C   0  0  0  0  0  0  0  0  0  0  0  0
   -3.5762   -2.1148    0.0000 C   0  0  0  0  0  0  0  0  0  0  0  0
   -0.0172    0.0000    0.0000 C   0  0  0  0  0  0  0  0  0  0  0  0
   -0.7118   -1.2517    0.0000 C   0  0  0  0  0  0  0  0  0  0  0  0
   -0.0275    0.8253    0.0000 O   0  0  0  0  0  0  0  0  0  0  0  0
    1.4271   -1.6368    0.0000 O   0  0  0  0  0  0  0  0  0  0  0  0
   -0.7290   -0.4230    0.0000 C   0  0  0  0  0  0  0  0  0  0  0  0
    3.5590   -0.3611    0.0000 C   0  0  0  0  0  0  0  0  0  0  0  0
    2.1044    2.0941    0.0000 C   0  0  0  0  0  0  0  0  0  0  0  0
    0.0241   -2.4758    0.0000 Cl  0  0  0  0  0  0  0  0  0  0  0  0
   -1.4271   -1.6780    0.0000 O   0  0  0  0  0  0  0  0  0  0  0  0
   -2.1492   -1.2826    0.0000 C   0  0  0  0  0  0  0  0  0  0  0  0
    0.6774    2.0700    0.0000 C   0  0  0  0  0  0  0  0  0  0  0  0
    2.8610   -1.6058    0.0000 C   0  0  0  0  0  0  0  0  0  0  0  0
    3.5728   -1.1932    0.0000 C   0  0  0  0  0  0  0  0  0  0  0  0
    1.3789    2.4793    0.0000 C   0  0  0  0  0  0  0  0  0  0  0  0
  2  3  1  0  0  0  0
  2  4  2  0  0  0  0
  3  1  1  0  0  0  0
  4  6  1  0  0  0  0
  5  1  2  0  0  0  0
  6  5  1  0  0  0  0
  7  3  1  0  0  0  0
  8  1  1  0  0  0  0
  9  2  1  0  0  0  0
 10  7  2  0  0  0  0
 11 23  1  0  0  0  0
 12 10  1  0  0  0  0
 13 11  3  0  0  0  0
 14  7  1  0  0  0  0
 15 18  1  0  0  0  0
 15 12  2  0  0  0  0
 16  8  2  0  0  0  0
 17  9  2  0  0  0  0
 18 14  2  0  0  0  0
 19  4  1  0  0  0  0
 20  5  1  0  0  0  0
 20 27  1  0  0  0  0
 21 12  1  0  0  0  0
 22 15  1  0  0  0  0
 23 22  1  0  0  0  0
 24  8  1  0  0  0  0
 25  9  1  0  0  0  0
 25 26  1  0  0  0  0
 26 19  1  0  0  0  0
 27 24  1  0  0  0  0
M  END
>  <CdId>
2140

>  <Mol Weight>
382.837

>  <Formula>
C22H19ClO4

>  <Click_ID>
CLK028F06 __  __  __

$$$$
CLK029A05 __  __  __
 OpenBabel03171413522D

 27 30  0  0  0  0  0  0  0  0999 V2000
    1.4064    0.8391    0.0000 C   0  0  0  0  0  0  0  0  0  0  0  0
    2.1354   -0.3852    0.0000 C   0  0  0  0  0  0  0  0  0  0  0  0
    1.4167    0.0138    0.0000 C   0  0  3  0  0  0  0  0  0  0  0  0
    2.8472    0.0378    0.0000 C   0  0  0  0  0  0  0  0  0  0  0  0
    2.1148    1.2620    0.0000 C   0  0  0  0  0  0  0  0  0  0  0  0
    2.8266    0.8597    0.0000 O   0  0  0  0  0  0  0  0  0  0  0  0
    0.7049   -0.3955    0.0000 C   0  0  0  0  0  0  0  0  0  0  0  0
    0.6912    1.2482    0.0000 C   0  0  0  0  0  0  0  0  0  0  0  0
    2.1389   -1.2035    0.0000 C   0  0  0  0  0  0  0  0  0  0  0  0
    0.7221   -1.2311    0.0000 C   0  0  0  0  0  0  0  0  0  0  0  0
   -2.8575   -1.7056    0.0000 C   0  0  0  0  0  0  0  0  0  0  0  0
    0.0068   -1.6540    0.0000 C   0  0  0  0  0  0  0  0  0  0  0  0
   -3.5762   -2.1148    0.0000 C   0  0  0  0  0  0  0  0  0  0  0  0
   -0.0172    0.0000    0.0000 C   0  0  0  0  0  0  0  0  0  0  0  0
   -0.7118   -1.2517    0.0000 C   0  0  0  0  0  0  0  0  0  0  0  0
   -0.0275    0.8253    0.0000 O   0  0  0  0  0  0  0  0  0  0  0  0
    1.4271   -1.6368    0.0000 O   0  0  0  0  0  0  0  0  0  0  0  0
   -0.7290   -0.4230    0.0000 C   0  0  0  0  0  0  0  0  0  0  0  0
    3.5590   -0.3611    0.0000 C   0  0  0  0  0  0  0  0  0  0  0  0
    2.1044    2.0941    0.0000 C   0  0  0  0  0  0  0  0  0  0  0  0
    0.0241   -2.4758    0.0000 Cl  0  0  0  0  0  0  0  0  0  0  0  0
   -1.4271   -1.6780    0.0000 O   0  0  0  0  0  0  0  0  0  0  0  0
   -2.1492   -1.2826    0.0000 C   0  0  0  0  0  0  0  0  0  0  0  0
    0.6774    2.0700    0.0000 C   0  0  0  0  0  0  0  0  0  0  0  0
    2.8610   -1.6058    0.0000 C   0  0  0  0  0  0  0  0  0  0  0  0
    3.5728   -1.1932    0.0000 C   0  0  0  0  0  0  0  0  0  0  0  0
    1.3789    2.4793    0.0000 C   0  0  0  0  0  0  0  0  0  0  0  0
  2  3  1  0  0  0  0
  2  4  2  0  0  0  0
  3  1  1  0  0  0  0
  4  6  1  0  0  0  0
  5  1  2  0  0  0  0
  6  5  1  0  0  0  0
  7  3  1  0  0  0  0
  8  1  1  0  0  0  0
  9  2  1  0  0  0  0
 10  7  2  0  0  0  0
 11 23  1  0  0  0  0
 12 10  1  0  0  0  0
 13 11  3  0  0  0  0
 14  7  1  0  0  0  0
 15 18  1  0  0  0  0
 15 12  2  0  0  0  0
 16  8  2  0  0  0  0
 17  9  2  0  0  0  0
 18 14  2  0  0  0  0
 19  4  1  0  0  0  0
 20  5  1  0  0  0  0
 20 27  1  0  0  0  0
 21 12  1  0  0  0  0
 22 15  1  0  0  0  0
 23 22  1  0  0  0  0
 24  8  1  0  0  0  0
 25  9  1  0  0  0  0
 25 26  1  0  0  0  0
 26 19  1  0  0  0  0
 27 24  1  0  0  0  0
M  END
>  <CdId>
2169

>  <Mol Weight>
382.837

>  <Formula>
C22H19ClO4

>  <Click_ID>
CLK029A05 __  __  __

$$$$
CLK029B05 __  __  __
 OpenBabel03171413522D

 26 29  0  0  0  0  0  0  0  0999 V2000
   -4.7353    5.0318    0.0000 C   0  0  0  0  0  0  0  0  0  0  0  0
   -5.2048    5.6742    0.0000 N   0  0  0  0  0  0  0  0  0  0  0  0
   -5.2048    4.3647    0.0000 N   0  0  0  0  0  0  0  0  0  0  0  0
   -2.6436    5.4024    0.0000 N   0  0  0  0  0  0  0  0  0  0  0  0
   -3.9200    4.9824    0.0000 C   0  0  3  0  0  0  0  0  0  0  0  0
   -2.6436    4.5707    0.0000 C   0  0  0  0  0  0  0  0  0  0  0  0
   -3.4259    5.6495    0.0000 C   0  0  0  0  0  0  0  0  0  0  0  0
   -5.9954    4.6118    0.0000 C   0  0  0  0  0  0  0  0  0  0  0  0
   -5.9954    5.4271    0.0000 C   0  0  0  0  0  0  0  0  0  0  0  0
   -1.9682    5.8471    0.0000 C   0  0  0  0  0  0  0  0  0  0  0  0
   -3.4259    4.3153    0.0000 C   0  0  0  0  0  0  0  0  0  0  0  0
   -5.4848    2.9401    0.0000 C   0  0  0  0  0  0  0  0  0  0  0  0
   -2.0176    6.6624    0.0000 C   0  0  0  0  0  0  0  0  0  0  0  0
   -6.0284    2.3224    0.0000 C   0  0  0  0  0  0  0  0  0  0  0  0
   -1.3341    7.1319    0.0000 C   0  0  0  0  0  0  0  0  0  0  0  0
   -1.9682    4.0930    0.0000 O   0  0  0  0  0  0  0  0  0  0  0  0
   -1.2270    5.4848    0.0000 C   0  0  0  0  0  0  0  0  0  0  0  0
   -0.5847    6.7613    0.0000 C   0  0  0  0  0  0  0  0  0  0  0  0
   -4.9330    3.5741    0.0000 C   0  0  0  0  0  0  0  0  0  0  0  0
   -0.5352    5.9459    0.0000 C   0  0  0  0  0  0  0  0  0  0  0  0
   -6.6954    4.1918    0.0000 C   0  0  0  0  0  0  0  0  0  0  0  0
   -6.6954    5.8471    0.0000 C   0  0  0  0  0  0  0  0  0  0  0  0
   -1.4000    7.9391    0.0000 C   0  0  0  0  0  0  0  0  0  0  0  0
    0.1235    7.2307    0.0000 C   0  0  0  0  0  0  0  0  0  0  0  0
   -7.4119    4.6118    0.0000 C   0  0  0  0  0  0  0  0  0  0  0  0
   -7.4119    5.4271    0.0000 C   0  0  0  0  0  0  0  0  0  0  0  0
  2  1  2  0  0  0  0
  3  1  1  0  0  0  0
  4  7  1  0  0  0  0
  5  1  1  0  0  0  0
  6 11  1  0  0  0  0
  6  4  1  0  0  0  0
  7  5  1  0  0  0  0
  8  3  1  0  0  0  0
  8  9  2  0  0  0  0
  9  2  1  0  0  0  0
 10  4  1  0  0  0  0
 11  5  1  0  0  0  0
 12 19  1  0  0  0  0
 13 10  2  0  0  0  0
 14 12  3  0  0  0  0
 15 13  1  0  0  0  0
 16  6  2  0  0  0  0
 17 10  1  0  0  0  0
 18 20  1  0  0  0  0
 18 15  2  0  0  0  0
 19  3  1  0  0  0  0
 20 17  2  0  0  0  0
 21  8  1  0  0  0  0
 22  9  1  0  0  0  0
 23 15  1  0  0  0  0
 24 18  1  0  0  0  0
 25 21  2  0  0  0  0
 26 22  2  0  0  0  0
 26 25  1  0  0  0  0
M  END
>  <CdId>
2179

>  <Mol Weight>
343.4216

>  <Formula>
C22H21N3O

>  <Click_ID>
CLK029B05 __  __  __

$$$$
CLK029C05 __  __  __
 OpenBabel03171413522D

 28 31  0  0  0  0  0  0  0  0999 V2000
   -4.7482    5.0455    0.0000 C   0  0  0  0  0  0  0  0  0  0  0  0
   -5.2189    5.6896    0.0000 N   0  0  0  0  0  0  0  0  0  0  0  0
   -5.2189    4.3766    0.0000 N   0  0  0  0  0  0  0  0  0  0  0  0
   -3.9307    4.9959    0.0000 C   0  0  3  0  0  0  0  0  0  0  0  0
   -2.6508    5.4171    0.0000 N   0  0  0  0  0  0  0  0  0  0  0  0
   -2.6508    4.5831    0.0000 C   0  0  0  0  0  0  0  0  0  0  0  0
   -3.4352    5.6648    0.0000 C   0  0  0  0  0  0  0  0  0  0  0  0
   -6.0116    4.6243    0.0000 C   0  0  0  0  0  0  0  0  0  0  0  0
   -6.0116    5.4419    0.0000 C   0  0  0  0  0  0  0  0  0  0  0  0
   -3.4352    4.3270    0.0000 C   0  0  0  0  0  0  0  0  0  0  0  0
   -2.0067    5.9209    0.0000 C   0  0  0  0  0  0  0  0  0  0  0  0
   -5.4997    2.9481    0.0000 C   0  0  0  0  0  0  0  0  0  0  0  0
   -6.0447    2.3287    0.0000 C   0  0  0  0  0  0  0  0  0  0  0  0
   -1.9736    4.1041    0.0000 O   0  0  0  0  0  0  0  0  0  0  0  0
   -4.9464    3.5838    0.0000 C   0  0  0  0  0  0  0  0  0  0  0  0
   -1.2551    5.6236    0.0000 C   0  0  0  0  0  0  0  0  0  0  0  0
   -2.1305    6.7301    0.0000 C   0  0  0  0  0  0  0  0  0  0  0  0
   -1.4781    7.2503    0.0000 C   0  0  0  0  0  0  0  0  0  0  0  0
   -0.6110    6.1355    0.0000 C   0  0  0  0  0  0  0  0  0  0  0  0
   -0.7349    6.9530    0.0000 C   0  0  0  0  0  0  0  0  0  0  0  0
   -6.7136    4.2032    0.0000 C   0  0  0  0  0  0  0  0  0  0  0  0
   -6.7136    5.8630    0.0000 C   0  0  0  0  0  0  0  0  0  0  0  0
   -0.0908    7.4733    0.0000 C   0  0  0  0  0  0  0  0  0  0  0  0
    0.6772    7.1760    0.0000 C   0  0  0  0  0  0  0  0  0  0  0  0
    1.3213    7.6962    0.0000 C   0  0  0  0  0  0  0  0  0  0  0  0
   -7.4321    4.6243    0.0000 C   0  0  0  0  0  0  0  0  0  0  0  0
   -7.4321    5.4419    0.0000 C   0  0  0  0  0  0  0  0  0  0  0  0
    2.0893    7.3990    0.0000 C   0  0  0  0  0  0  0  0  0  0  0  0
  2  1  2  0  0  0  0
  3  1  1  0  0  0  0
  4  1  1  0  0  0  0
  5  7  1  0  0  0  0
  6 10  1  0  0  0  0
  6  5  1  0  0  0  0
  7  4  1  0  0  0  0
  8  3  1  0  0  0  0
  8  9  2  0  0  0  0
  9  2  1  0  0  0  0
 10  4  1  0  0  0  0
 11  5  1  0  0  0  0
 12 15  1  0  0  0  0
 13 12  3  0  0  0  0
 14  6  2  0  0  0  0
 15  3  1  0  0  0  0
 16 11  1  0  0  0  0
 17 11  2  0  0  0  0
 18 17  1  0  0  0  0
 19 16  2  0  0  0  0
 19 20  1  0  0  0  0
 20 18  2  0  0  0  0
 21  8  1  0  0  0  0
 22  9  1  0  0  0  0
 23 20  1  0  0  0  0
 24 23  1  0  0  0  0
 25 24  1  0  0  0  0
 26 21  2  0  0  0  0
 27 22  2  0  0  0  0
 27 26  1  0  0  0  0
 28 25  1  0  0  0  0
M  END
>  <CdId>
2189

>  <Mol Weight>
371.4748

>  <Formula>
C24H25N3O

>  <Click_ID>
CLK029C05 __  __  __

$$$$
CLK029D05 __  __  __
 OpenBabel03171413522D

 26 29  0  0  0  0  0  0  0  0999 V2000
   -4.7348    5.0312    0.0000 C   0  0  0  0  0  0  0  0  0  0  0  0
   -2.6433    5.4018    0.0000 N   0  0  0  0  0  0  0  0  0  0  0  0
   -5.2042    5.6735    0.0000 N   0  0  0  0  0  0  0  0  0  0  0  0
   -5.2042    4.3642    0.0000 N   0  0  0  0  0  0  0  0  0  0  0  0
   -3.9196    4.9818    0.0000 C   0  0  3  0  0  0  0  0  0  0  0  0
   -2.6433    4.5702    0.0000 C   0  0  0  0  0  0  0  0  0  0  0  0
   -1.9680    5.8465    0.0000 C   0  0  0  0  0  0  0  0  0  0  0  0
   -3.4255    5.6488    0.0000 C   0  0  0  0  0  0  0  0  0  0  0  0
   -5.9947    4.6113    0.0000 C   0  0  0  0  0  0  0  0  0  0  0  0
   -5.9947    5.4265    0.0000 C   0  0  0  0  0  0  0  0  0  0  0  0
   -3.4255    4.3148    0.0000 C   0  0  0  0  0  0  0  0  0  0  0  0
   -1.2269    5.4759    0.0000 C   0  0  0  0  0  0  0  0  0  0  0  0
   -5.4842    2.9397    0.0000 C   0  0  0  0  0  0  0  0  0  0  0  0
   -6.0277    2.3221    0.0000 C   0  0  0  0  0  0  0  0  0  0  0  0
   -2.0174    6.6700    0.0000 C   0  0  0  0  0  0  0  0  0  0  0  0
   -1.9680    4.0925    0.0000 O   0  0  0  0  0  0  0  0  0  0  0  0
   -4.9324    3.5737    0.0000 C   0  0  0  0  0  0  0  0  0  0  0  0
   -1.3257    7.1310    0.0000 C   0  0  0  0  0  0  0  0  0  0  0  0
   -0.5435    5.9289    0.0000 C   0  0  0  0  0  0  0  0  0  0  0  0
   -0.5846    6.7605    0.0000 C   0  0  0  0  0  0  0  0  0  0  0  0
    0.1812    5.5500    0.0000 Cl  0  0  0  0  0  0  0  0  0  0  0  0
   -6.6947    4.1913    0.0000 C   0  0  0  0  0  0  0  0  0  0  0  0
   -6.6947    5.8465    0.0000 C   0  0  0  0  0  0  0  0  0  0  0  0
   -2.7421    7.0569    0.0000 C   0  0  0  0  0  0  0  0  0  0  0  0
   -7.4111    4.6113    0.0000 C   0  0  0  0  0  0  0  0  0  0  0  0
   -7.4111    5.4265    0.0000 C   0  0  0  0  0  0  0  0  0  0  0  0
  2  8  1  0  0  0  0
  3  1  2  0  0  0  0
  4  1  1  0  0  0  0
  5  1  1  0  0  0  0
  6 11  1  0  0  0  0
  6  2  1  0  0  0  0
  7  2  1  0  0  0  0
  8  5  1  0  0  0  0
  9  4  1  0  0  0  0
  9 10  2  0  0  0  0
 10  3  1  0  0  0  0
 11  5  1  0  0  0  0
 12  7  1  0  0  0  0
 13 17  1  0  0  0  0
 14 13  3  0  0  0  0
 15  7  2  0  0  0  0
 16  6  2  0  0  0  0
 17  4  1  0  0  0  0
 18 15  1  0  0  0  0
 19 12  2  0  0  0  0
 19 20  1  0  0  0  0
 20 18  2  0  0  0  0
 21 19  1  0  0  0  0
 22  9  1  0  0  0  0
 23 10  1  0  0  0  0
 24 15  1  0  0  0  0
 25 22  2  0  0  0  0
 26 23  2  0  0  0  0
 26 25  1  0  0  0  0
M  END
>  <CdId>
2199

>  <Mol Weight>
363.84

>  <Formula>
C21H18ClN3O

>  <Click_ID>
CLK029D05 __  __  __

$$$$
CLK029D06 __  __  __
 OpenBabel03171413522D

 26 29  0  0  0  0  0  0  0  0999 V2000
   -4.7353    5.0318    0.0000 C   0  0  0  0  0  0  0  0  0  0  0  0
   -5.2048    5.6742    0.0000 N   0  0  0  0  0  0  0  0  0  0  0  0
   -5.2048    4.3647    0.0000 N   0  0  0  0  0  0  0  0  0  0  0  0
   -2.6436    5.4024    0.0000 N   0  0  0  0  0  0  0  0  0  0  0  0
   -3.9200    4.9824    0.0000 C   0  0  3  0  0  0  0  0  0  0  0  0
   -2.6436    4.5707    0.0000 C   0  0  0  0  0  0  0  0  0  0  0  0
   -1.9682    5.8471    0.0000 C   0  0  0  0  0  0  0  0  0  0  0  0
   -3.4259    5.6495    0.0000 C   0  0  0  0  0  0  0  0  0  0  0  0
   -5.9954    4.6118    0.0000 C   0  0  0  0  0  0  0  0  0  0  0  0
   -5.9954    5.4271    0.0000 C   0  0  0  0  0  0  0  0  0  0  0  0
   -3.4259    4.3153    0.0000 C   0  0  0  0  0  0  0  0  0  0  0  0
   -5.4848    2.9401    0.0000 C   0  0  0  0  0  0  0  0  0  0  0  0
   -6.0284    2.3224    0.0000 C   0  0  0  0  0  0  0  0  0  0  0  0
   -2.0176    6.6624    0.0000 C   0  0  0  0  0  0  0  0  0  0  0  0
   -1.2270    5.4848    0.0000 C   0  0  0  0  0  0  0  0  0  0  0  0
   -1.9682    4.0930    0.0000 O   0  0  0  0  0  0  0  0  0  0  0  0
   -4.9330    3.5741    0.0000 C   0  0  0  0  0  0  0  0  0  0  0  0
   -1.3341    7.1319    0.0000 C   0  0  0  0  0  0  0  0  0  0  0  0
   -0.5352    5.9459    0.0000 C   0  0  0  0  0  0  0  0  0  0  0  0
   -0.5847    6.7613    0.0000 C   0  0  0  0  0  0  0  0  0  0  0  0
   -6.6954    4.1918    0.0000 C   0  0  0  0  0  0  0  0  0  0  0  0
   -6.6954    5.8471    0.0000 C   0  0  0  0  0  0  0  0  0  0  0  0
    0.2060    5.5754    0.0000 C   0  0  0  0  0  0  0  0  0  0  0  0
   -1.4000    7.9391    0.0000 C   0  0  0  0  0  0  0  0  0  0  0  0
   -7.4119    4.6118    0.0000 C   0  0  0  0  0  0  0  0  0  0  0  0
   -7.4119    5.4271    0.0000 C   0  0  0  0  0  0  0  0  0  0  0  0
  2  1  2  0  0  0  0
  3  1  1  0  0  0  0
  4  8  1  0  0  0  0
  5  1  1  0  0  0  0
  6 11  1  0  0  0  0
  6  4  1  0  0  0  0
  7  4  1  0  0  0  0
  8  5  1  0  0  0  0
  9  3  1  0  0  0  0
  9 10  2  0  0  0  0
 10  2  1  0  0  0  0
 11  5  1  0  0  0  0
 12 17  1  0  0  0  0
 13 12  3  0  0  0  0
 14  7  2  0  0  0  0
 15  7  1  0  0  0  0
 16  6  2  0  0  0  0
 17  3  1  0  0  0  0
 18 14  1  0  0  0  0
 19 15  2  0  0  0  0
 20 19  1  0  0  0  0
 20 18  2  0  0  0  0
 21  9  1  0  0  0  0
 22 10  1  0  0  0  0
 23 19  1  0  0  0  0
 24 18  1  0  0  0  0
 25 21  2  0  0  0  0
 26 22  2  0  0  0  0
 26 25  1  0  0  0  0
M  END
>  <CdId>
2200

>  <Mol Weight>
343.4216

>  <Formula>
C22H21N3O

>  <Click_ID>
CLK029D06 __  __  __

$$$$
CLK029E05 __  __  __
 OpenBabel03171413522D

 28 31  0  0  0  0  0  0  0  0999 V2000
   -4.7614    5.0595    0.0000 C   0  0  0  0  0  0  0  0  0  0  0  0
   -5.2334    5.7054    0.0000 N   0  0  0  0  0  0  0  0  0  0  0  0
   -5.2334    4.3888    0.0000 N   0  0  0  0  0  0  0  0  0  0  0  0
   -3.9416    5.0098    0.0000 C   0  0  3  0  0  0  0  0  0  0  0  0
   -2.6582    5.4322    0.0000 N   0  0  0  0  0  0  0  0  0  0  0  0
   -2.6582    4.5959    0.0000 C   0  0  0  0  0  0  0  0  0  0  0  0
   -3.4447    5.6806    0.0000 C   0  0  0  0  0  0  0  0  0  0  0  0
   -1.5651    8.0821    0.0000 C   0  0  0  0  0  0  0  0  0  0  0  0
   -6.0284    4.6372    0.0000 C   0  0  0  0  0  0  0  0  0  0  0  0
   -6.0284    5.4570    0.0000 C   0  0  0  0  0  0  0  0  0  0  0  0
   -2.0122    5.9374    0.0000 C   0  0  0  0  0  0  0  0  0  0  0  0
   -3.4447    4.3391    0.0000 C   0  0  0  0  0  0  0  0  0  0  0  0
   -1.4822    7.2705    0.0000 C   0  0  0  0  0  0  0  0  0  0  0  0
   -5.5151    2.9563    0.0000 C   0  0  0  0  0  0  0  0  0  0  0  0
   -2.1364    6.7488    0.0000 C   0  0  0  0  0  0  0  0  0  0  0  0
   -6.0616    2.3352    0.0000 C   0  0  0  0  0  0  0  0  0  0  0  0
   -1.9790    4.1155    0.0000 O   0  0  0  0  0  0  0  0  0  0  0  0
   -4.9601    3.5938    0.0000 C   0  0  0  0  0  0  0  0  0  0  0  0
   -1.6561    8.9020    0.0000 F   0  0  0  0  0  0  0  0  0  0  0  0
   -0.7369    8.1566    0.0000 F   0  0  0  0  0  0  0  0  0  0  0  0
   -2.4014    8.0076    0.0000 F   0  0  0  0  0  0  0  0  0  0  0  0
   -1.2586    5.6393    0.0000 C   0  0  0  0  0  0  0  0  0  0  0  0
   -6.7323    4.2149    0.0000 C   0  0  0  0  0  0  0  0  0  0  0  0
   -6.7323    5.8793    0.0000 C   0  0  0  0  0  0  0  0  0  0  0  0
   -0.7369    6.9724    0.0000 C   0  0  0  0  0  0  0  0  0  0  0  0
   -0.6127    6.1526    0.0000 C   0  0  0  0  0  0  0  0  0  0  0  0
   -7.4527    4.6372    0.0000 C   0  0  0  0  0  0  0  0  0  0  0  0
   -7.4527    5.4570    0.0000 C   0  0  0  0  0  0  0  0  0  0  0  0
  2  1  2  0  0  0  0
  3  1  1  0  0  0  0
  4  1  1  0  0  0  0
  5  7  1  0  0  0  0
  6 12  1  0  0  0  0
  6  5  1  0  0  0  0
  7  4  1  0  0  0  0
  8 13  1  0  0  0  0
  9  3  1  0  0  0  0
  9 10  2  0  0  0  0
 10  2  1  0  0  0  0
 11  5  1  0  0  0  0
 12  4  1  0  0  0  0
 13 15  1  0  0  0  0
 14 18  1  0  0  0  0
 15 11  2  0  0  0  0
 16 14  3  0  0  0  0
 17  6  2  0  0  0  0
 18  3  1  0  0  0  0
 19  8  1  0  0  0  0
 20  8  1  0  0  0  0
 21  8  1  0  0  0  0
 22 11  1  0  0  0  0
 23  9  1  0  0  0  0
 24 10  1  0  0  0  0
 25 26  1  0  0  0  0
 25 13  2  0  0  0  0
 26 22  2  0  0  0  0
 27 23  2  0  0  0  0
 28 24  2  0  0  0  0
 28 27  1  0  0  0  0
M  END
>  <CdId>
2209

>  <Mol Weight>
383.3664

>  <Formula>
C21H16F3N3O

>  <Click_ID>
CLK029E05 __  __  __

$$$$
CLK029E10 __  __  __
 OpenBabel03171413522D

 24 26  0  0  0  0  0  0  0  0999 V2000
   -1.1649    2.3882    0.0000 C   0  0  0  0  0  0  0  0  0  0  0  0
   -0.3382    2.3799    0.0000 N   0  0  0  0  0  0  0  0  0  0  0  0
   -1.6492    1.7244    0.0000 N   0  0  0  0  0  0  0  0  0  0  0  0
   -1.6492    3.0563    0.0000 S   0  0  0  0  0  0  0  0  0  0  0  0
    0.0752    3.0939    0.0000 C   0  0  0  0  0  0  0  0  0  0  0  0
    0.9019    3.0939    0.0000 C   0  0  0  0  0  0  0  0  0  0  0  0
   -2.4383    1.9749    0.0000 C   0  0  0  0  0  0  0  0  0  0  0  0
   -2.4383    2.8016    0.0000 C   0  0  0  0  0  0  0  0  0  0  0  0
   -1.9498    0.3215    0.0000 C   0  0  0  0  0  0  0  0  0  0  0  0
   -2.5010   -0.2923    0.0000 C   0  0  0  0  0  0  0  0  0  0  0  0
   -0.3382    3.8079    0.0000 O   0  0  0  0  0  0  0  0  0  0  0  0
    1.3069    3.8037    0.0000 C   0  0  0  0  0  0  0  0  0  0  0  0
   -1.3987    0.9352    0.0000 C   0  0  0  0  0  0  0  0  0  0  0  0
    1.3152    2.3757    0.0000 C   0  0  0  0  0  0  0  0  0  0  0  0
    0.8935    4.5135    0.0000 O   0  0  0  0  0  0  0  0  0  0  0  0
   -3.1523    1.5615    0.0000 C   0  0  0  0  0  0  0  0  0  0  0  0
   -3.1523    3.2149    0.0000 C   0  0  0  0  0  0  0  0  0  0  0  0
    2.1336    3.8079    0.0000 C   0  0  0  0  0  0  0  0  0  0  0  0
    1.0397    5.3277    0.0000 C   0  0  0  0  0  0  0  0  0  0  0  0
    2.1336    2.3632    0.0000 C   0  0  0  0  0  0  0  0  0  0  0  0
   -3.8663    1.9749    0.0000 C   0  0  0  0  0  0  0  0  0  0  0  0
   -3.8663    2.8016    0.0000 C   0  0  0  0  0  0  0  0  0  0  0  0
    2.5553    3.0939    0.0000 C   0  0  0  0  0  0  0  0  0  0  0  0
   -4.5928    3.2192    0.0000 H   0  0  0  0  0  0  0  0  0  0  0  0
  2  1  2  0  0  0  0
  3  1  1  0  0  0  0
  4  1  1  0  0  0  0
  5  2  1  0  0  0  0
  6  5  1  0  0  0  0
  7  3  1  0  0  0  0
  8  4  1  0  0  0  0
  8  7  2  0  0  0  0
  9 13  1  0  0  0  0
 10  9  3  0  0  0  0
 11  5  2  0  0  0  0
 12  6  1  0  0  0  0
 13  3  1  0  0  0  0
 14  6  2  0  0  0  0
 15 12  1  0  0  0  0
 16  7  1  0  0  0  0
 17  8  1  0  0  0  0
 18 12  2  0  0  0  0
 18 23  1  0  0  0  0
 19 15  1  0  0  0  0
 20 14  1  0  0  0  0
 21 16  2  0  0  0  0
 22 17  2  0  0  0  0
 22 21  1  0  0  0  0
 23 20  2  0  0  0  0
 24 22  1  0  0  0  0
M  END
>  <CdId>
2214

>  <Mol Weight>
322.381

>  <Formula>
C18H14N2O2S

>  <Click_ID>
CLK029E10 __  __  __

$$$$
CLK029F06 __  __  __
 OpenBabel03171413522D

 27 30  0  0  0  0  0  0  0  0999 V2000
   -4.7348    5.0312    0.0000 C   0  0  0  0  0  0  0  0  0  0  0  0
   -2.6433    5.4018    0.0000 N   0  0  0  0  0  0  0  0  0  0  0  0
   -5.2042    5.6735    0.0000 N   0  0  0  0  0  0  0  0  0  0  0  0
   -5.2042    4.3642    0.0000 N   0  0  0  0  0  0  0  0  0  0  0  0
   -3.9196    4.9818    0.0000 C   0  0  3  0  0  0  0  0  0  0  0  0
   -2.6433    4.5702    0.0000 C   0  0  0  0  0  0  0  0  0  0  0  0
   -1.9680    5.8465    0.0000 C   0  0  0  0  0  0  0  0  0  0  0  0
   -3.4255    5.6488    0.0000 C   0  0  0  0  0  0  0  0  0  0  0  0
   -5.9947    4.6113    0.0000 C   0  0  0  0  0  0  0  0  0  0  0  0
   -5.9947    5.4265    0.0000 C   0  0  0  0  0  0  0  0  0  0  0  0
   -3.4255    4.3148    0.0000 C   0  0  0  0  0  0  0  0  0  0  0  0
   -1.2269    5.4759    0.0000 C   0  0  0  0  0  0  0  0  0  0  0  0
   -5.4842    2.9397    0.0000 C   0  0  0  0  0  0  0  0  0  0  0  0
   -6.0277    2.3221    0.0000 C   0  0  0  0  0  0  0  0  0  0  0  0
   -2.0174    6.6700    0.0000 C   0  0  0  0  0  0  0  0  0  0  0  0
   -1.9680    4.0925    0.0000 O   0  0  0  0  0  0  0  0  0  0  0  0
   -4.9324    3.5737    0.0000 C   0  0  0  0  0  0  0  0  0  0  0  0
   -1.3257    7.1310    0.0000 C   0  0  0  0  0  0  0  0  0  0  0  0
   -0.5435    5.9289    0.0000 C   0  0  0  0  0  0  0  0  0  0  0  0
   -0.5846    6.7605    0.0000 C   0  0  0  0  0  0  0  0  0  0  0  0
    0.1812    5.5500    0.0000 Cl  0  0  0  0  0  0  0  0  0  0  0  0
   -2.7421    7.0569    0.0000 O   0  0  0  0  0  0  0  0  0  0  0  0
   -6.6947    4.1913    0.0000 C   0  0  0  0  0  0  0  0  0  0  0  0
   -6.6947    5.8465    0.0000 C   0  0  0  0  0  0  0  0  0  0  0  0
   -2.7832    7.8721    0.0000 C   0  0  0  0  0  0  0  0  0  0  0  0
   -7.4111    4.6113    0.0000 C   0  0  0  0  0  0  0  0  0  0  0  0
   -7.4111    5.4265    0.0000 C   0  0  0  0  0  0  0  0  0  0  0  0
  2  8  1  0  0  0  0
  3  1  2  0  0  0  0
  4  1  1  0  0  0  0
  5  1  1  0  0  0  0
  6 11  1  0  0  0  0
  6  2  1  0  0  0  0
  7  2  1  0  0  0  0
  8  5  1  0  0  0  0
  9  4  1  0  0  0  0
  9 10  2  0  0  0  0
 10  3  1  0  0  0  0
 11  5  1  0  0  0  0
 12  7  1  0  0  0  0
 13 17  1  0  0  0  0
 14 13  3  0  0  0  0
 15  7  2  0  0  0  0
 16  6  2  0  0  0  0
 17  4  1  0  0  0  0
 18 15  1  0  0  0  0
 19 12  2  0  0  0  0
 19 20  1  0  0  0  0
 20 18  2  0  0  0  0
 21 19  1  0  0  0  0
 22 15  1  0  0  0  0
 23  9  1  0  0  0  0
 24 10  1  0  0  0  0
 25 22  1  0  0  0  0
 26 23  2  0  0  0  0
 27 24  2  0  0  0  0
 27 26  1  0  0  0  0
M  END
>  <CdId>
2220

>  <Mol Weight>
379.84

>  <Formula>
C21H18ClN3O2

>  <Click_ID>
CLK029F06 __  __  __

$$$$
CLK029G05 __  __  __
 OpenBabel03171413522D

 25 28  0  0  0  0  0  0  0  0999 V2000
   -4.7353    5.0318    0.0000 C   0  0  0  0  0  0  0  0  0  0  0  0
   -5.2048    5.6742    0.0000 N   0  0  0  0  0  0  0  0  0  0  0  0
   -5.2048    4.3647    0.0000 N   0  0  0  0  0  0  0  0  0  0  0  0
   -3.9200    4.9824    0.0000 C   0  0  3  0  0  0  0  0  0  0  0  0
   -2.6436    5.4024    0.0000 N   0  0  0  0  0  0  0  0  0  0  0  0
   -2.6436    4.5707    0.0000 C   0  0  0  0  0  0  0  0  0  0  0  0
   -3.4259    5.6495    0.0000 C   0  0  0  0  0  0  0  0  0  0  0  0
   -5.9954    4.6118    0.0000 C   0  0  0  0  0  0  0  0  0  0  0  0
   -5.9954    5.4271    0.0000 C   0  0  0  0  0  0  0  0  0  0  0  0
   -3.4259    4.3153    0.0000 C   0  0  0  0  0  0  0  0  0  0  0  0
   -1.9682    5.8471    0.0000 C   0  0  0  0  0  0  0  0  0  0  0  0
   -5.4848    2.9401    0.0000 C   0  0  0  0  0  0  0  0  0  0  0  0
   -6.0284    2.3224    0.0000 C   0  0  0  0  0  0  0  0  0  0  0  0
   -1.9682    4.0930    0.0000 O   0  0  0  0  0  0  0  0  0  0  0  0
   -4.9330    3.5741    0.0000 C   0  0  0  0  0  0  0  0  0  0  0  0
   -1.2270    5.4848    0.0000 C   0  0  0  0  0  0  0  0  0  0  0  0
   -2.0176    6.6624    0.0000 C   0  0  0  0  0  0  0  0  0  0  0  0
   -0.5847    6.7613    0.0000 C   0  0  0  0  0  0  0  0  0  0  0  0
   -1.3341    7.1319    0.0000 C   0  0  0  0  0  0  0  0  0  0  0  0
   -0.5352    5.9459    0.0000 C   0  0  0  0  0  0  0  0  0  0  0  0
    0.1235    7.2307    0.0000 Br  0  0  0  0  0  0  0  0  0  0  0  0
   -6.6954    4.1918    0.0000 C   0  0  0  0  0  0  0  0  0  0  0  0
   -6.6954    5.8471    0.0000 C   0  0  0  0  0  0  0  0  0  0  0  0
   -7.4119    4.6118    0.0000 C   0  0  0  0  0  0  0  0  0  0  0  0
   -7.4119    5.4271    0.0000 C   0  0  0  0  0  0  0  0  0  0  0  0
  2  1  2  0  0  0  0
  3  1  1  0  0  0  0
  4  1  1  0  0  0  0
  5  7  1  0  0  0  0
  6 10  1  0  0  0  0
  6  5  1  0  0  0  0
  7  4  1  0  0  0  0
  8  3  1  0  0  0  0
  8  9  2  0  0  0  0
  9  2  1  0  0  0  0
 10  4  1  0  0  0  0
 11  5  1  0  0  0  0
 12 15  1  0  0  0  0
 13 12  3  0  0  0  0
 14  6  2  0  0  0  0
 15  3  1  0  0  0  0
 16 11  1  0  0  0  0
 17 11  2  0  0  0  0
 18 19  2  0  0  0  0
 19 17  1  0  0  0  0
 20 16  2  0  0  0  0
 20 18  1  0  0  0  0
 21 18  1  0  0  0  0
 22  8  1  0  0  0  0
 23  9  1  0  0  0  0
 24 22  2  0  0  0  0
 25 23  2  0  0  0  0
 25 24  1  0  0  0  0
M  END
>  <CdId>
2229

>  <Mol Weight>
394.265

>  <Formula>
C20H16BrN3O

>  <Click_ID>
CLK029G05 __  __  __

$$$$
CLK030H08 __  __  __
 OpenBabel03171413522D

 26 28  0  0  0  0  0  0  0  0999 V2000
   -1.1649    2.3882    0.0000 C   0  0  0  0  0  0  0  0  0  0  0  0
   -0.3382    2.3799    0.0000 N   0  0  0  0  0  0  0  0  0  0  0  0
   -4.5928    3.2192    0.0000 S   0  0  0  0  0  0  0  0  0  0  0  0
   -1.6492    1.7244    0.0000 N   0  0  0  0  0  0  0  0  0  0  0  0
   -1.6492    3.0563    0.0000 S   0  0  0  0  0  0  0  0  0  0  0  0
    0.0752    3.0939    0.0000 C   0  0  0  0  0  0  0  0  0  0  0  0
   -2.4383    2.8016    0.0000 C   0  0  0  0  0  0  0  0  0  0  0  0
   -2.4383    1.9749    0.0000 C   0  0  0  0  0  0  0  0  0  0  0  0
    0.9019    3.0939    0.0000 C   0  0  0  0  0  0  0  0  0  0  0  0
   -3.8663    2.8016    0.0000 C   0  0  0  0  0  0  0  0  0  0  0  0
   -3.1523    3.2149    0.0000 C   0  0  0  0  0  0  0  0  0  0  0  0
   -1.9498    0.3215    0.0000 C   0  0  0  0  0  0  0  0  0  0  0  0
   -3.1523    1.5615    0.0000 C   0  0  0  0  0  0  0  0  0  0  0  0
   -2.5010   -0.2923    0.0000 C   0  0  0  0  0  0  0  0  0  0  0  0
   -5.0312    2.5135    0.0000 O   0  0  0  0  0  0  0  0  0  0  0  0
   -4.1544    3.9164    0.0000 O   0  0  0  0  0  0  0  0  0  0  0  0
    1.3152    2.3882    0.0000 C   0  0  0  0  0  0  0  0  0  0  0  0
   -0.3382    3.8079    0.0000 O   0  0  0  0  0  0  0  0  0  0  0  0
   -5.2942    3.6534    0.0000 N   0  0  0  0  0  0  0  0  0  0  0  0
   -3.8663    1.9749    0.0000 C   0  0  0  0  0  0  0  0  0  0  0  0
   -1.3987    0.9352    0.0000 C   0  0  0  0  0  0  0  0  0  0  0  0
    0.8810    1.6617    0.0000 Cl  0  0  0  0  0  0  0  0  0  0  0  0
    1.3194    3.8079    0.0000 C   0  0  0  0  0  0  0  0  0  0  0  0
    2.1336    2.3799    0.0000 C   0  0  0  0  0  0  0  0  0  0  0  0
    2.1461    3.8037    0.0000 C   0  0  0  0  0  0  0  0  0  0  0  0
    2.5553    3.0897    0.0000 C   0  0  0  0  0  0  0  0  0  0  0  0
  2  1  2  0  0  0  0
  3 10  1  0  0  0  0
  4  1  1  0  0  0  0
  5  1  1  0  0  0  0
  6  2  1  0  0  0  0
  7  5  1  0  0  0  0
  7  8  2  0  0  0  0
  8  4  1  0  0  0  0
  9  6  1  0  0  0  0
 10 11  2  0  0  0  0
 10 20  1  0  0  0  0
 11  7  1  0  0  0  0
 12 21  1  0  0  0  0
 13  8  1  0  0  0  0
 14 12  3  0  0  0  0
 15  3  2  0  0  0  0
 16  3  2  0  0  0  0
 17  9  2  0  0  0  0
 18  6  2  0  0  0  0
 19  3  1  0  0  0  0
 20 13  2  0  0  0  0
 21  4  1  0  0  0  0
 22 17  1  0  0  0  0
 23  9  1  0  0  0  0
 24 17  1  0  0  0  0
 25 23  2  0  0  0  0
 26 25  1  0  0  0  0
 26 24  2  0  0  0  0
M  END
>  <CdId>
2322

>  <Mol Weight>
405.878

>  <Formula>
C17H12ClN3O3S2

>  <Click_ID>
CLK030H08 __  __  __

$$$$
CLK031C05 __  __  __
 OpenBabel03171413522D

 29 31  0  0  0  0  0  0  0  0999 V2000
   -1.1625    2.3833    0.0000 C   0  0  0  0  0  0  0  0  0  0  0  0
   -4.5833    3.2125    0.0000 S   0  0  0  0  0  0  0  0  0  0  0  0
   -1.6458    1.7208    0.0000 N   0  0  0  0  0  0  0  0  0  0  0  0
   -0.3375    2.3750    0.0000 N   0  0  0  0  0  0  0  0  0  0  0  0
   -1.6458    3.0500    0.0000 S   0  0  0  0  0  0  0  0  0  0  0  0
   -2.4333    2.7958    0.0000 C   0  0  0  0  0  0  0  0  0  0  0  0
   -2.4333    1.9708    0.0000 C   0  0  0  0  0  0  0  0  0  0  0  0
   -3.8583    2.7958    0.0000 C   0  0  0  0  0  0  0  0  0  0  0  0
   -3.1458    3.2083    0.0000 C   0  0  0  0  0  0  0  0  0  0  0  0
    0.0750    3.0875    0.0000 C   0  0  0  0  0  0  0  0  0  0  0  0
   -1.9458    0.3208    0.0000 C   0  0  0  0  0  0  0  0  0  0  0  0
   -3.1458    1.5583    0.0000 C   0  0  0  0  0  0  0  0  0  0  0  0
    1.3167    5.2167    0.0000 C   0  0  0  0  0  0  0  0  0  0  0  0
   -2.4958   -0.2917    0.0000 C   0  0  0  0  0  0  0  0  0  0  0  0
   -5.0208    2.5083    0.0000 O   0  0  0  0  0  0  0  0  0  0  0  0
   -4.1458    3.9083    0.0000 O   0  0  0  0  0  0  0  0  0  0  0  0
    0.9042    5.9417    0.0000 C   0  0  0  0  0  0  0  0  0  0  0  0
    0.9042    4.5042    0.0000 C   0  0  0  0  0  0  0  0  0  0  0  0
   -5.2833    3.6458    0.0000 N   0  0  0  0  0  0  0  0  0  0  0  0
   -3.8583    1.9708    0.0000 C   0  0  0  0  0  0  0  0  0  0  0  0
    1.3125    3.7958    0.0000 O   0  0  0  0  0  0  0  0  0  0  0  0
   -1.3958    0.9333    0.0000 C   0  0  0  0  0  0  0  0  0  0  0  0
   -0.3375    3.8000    0.0000 O   0  0  0  0  0  0  0  0  0  0  0  0
    0.0750    4.5125    0.0000 C   0  0  0  0  0  0  0  0  0  0  0  0
    0.0792    5.9500    0.0000 C   0  0  0  0  0  0  0  0  0  0  0  0
    0.9000    3.0875    0.0000 C   0  0  0  0  0  0  0  0  0  0  0  0
    2.1542    5.2167    0.0000 Cl  0  0  0  0  0  0  0  0  0  0  0  0
   -0.3375    5.2292    0.0000 C   0  0  0  0  0  0  0  0  0  0  0  0
   -0.3333    6.6667    0.0000 Cl  0  0  0  0  0  0  0  0  0  0  0  0
  2  8  1  0  0  0  0
  3  1  1  0  0  0  0
  4  1  2  0  0  0  0
  5  1  1  0  0  0  0
  6  5  1  0  0  0  0
  6  7  2  0  0  0  0
  7  3  1  0  0  0  0
  8  9  2  0  0  0  0
  8 20  1  0  0  0  0
  9  6  1  0  0  0  0
 10  4  1  0  0  0  0
 11 22  1  0  0  0  0
 12  7  1  0  0  0  0
 13 18  2  0  0  0  0
 14 11  3  0  0  0  0
 15  2  2  0  0  0  0
 16  2  2  0  0  0  0
 17 13  1  0  0  0  0
 18 21  1  0  0  0  0
 19  2  1  0  0  0  0
 20 12  2  0  0  0  0
 21 26  1  0  0  0  0
 22  3  1  0  0  0  0
 23 10  2  0  0  0  0
 24 18  1  0  0  0  0
 25 28  1  0  0  0  0
 25 17  2  0  0  0  0
 26 10  1  0  0  0  0
 27 13  1  0  0  0  0
 28 24  2  0  0  0  0
 29 25  1  0  0  0  0
M  END
>  <CdId>
2349

>  <Mol Weight>
470.35

>  <Formula>
C18H13Cl2N3O4S2

>  <Click_ID>
CLK031C05 __  __  __

$$$$
CLK032B10 __  __  __
 OpenBabel03171413522D

 19 21  0  0  0  0  0  0  0  0999 V2000
   -1.8964    2.1589    0.0000 C   0  0  0  0  0  0  0  0  0  0  0  0
   -1.0711    2.1589    0.0000 N   0  0  0  0  0  0  0  0  0  0  0  0
   -2.3756    2.8215    0.0000 N   0  0  0  0  0  0  0  0  0  0  0  0
   -2.3756    1.4837    0.0000 S   0  0  0  0  0  0  0  0  0  0  0  0
   -3.1634    2.5590    0.0000 C   0  0  0  0  0  0  0  0  0  0  0  0
   -0.6585    1.4462    0.0000 C   0  0  0  0  0  0  0  0  0  0  0  0
   -3.1592    1.7337    0.0000 C   0  0  0  0  0  0  0  0  0  0  0  0
    0.1667    1.4462    0.0000 C   0  0  0  0  0  0  0  0  0  0  0  0
    0.8795    1.0378    0.0000 C   0  0  0  0  0  0  0  0  0  0  0  0
    0.8795    1.8589    0.0000 C   0  0  0  0  0  0  0  0  0  0  0  0
   -1.3211    3.7718    0.0000 C   0  0  0  0  0  0  0  0  0  0  0  0
   -0.5209    3.9468    0.0000 C   0  0  0  0  0  0  0  0  0  0  0  0
   -3.8760    2.9841    0.0000 C   0  0  0  0  0  0  0  0  0  0  0  0
   -1.0628    0.7252    0.0000 O   0  0  0  0  0  0  0  0  0  0  0  0
   -2.1256    3.6093    0.0000 C   0  0  0  0  0  0  0  0  0  0  0  0
   -3.8760    3.8010    0.0000 F   0  0  0  0  0  0  0  0  0  0  0  0
   -3.8760    1.3254    0.0000 C   0  0  0  0  0  0  0  0  0  0  0  0
   -4.5846    1.7337    0.0000 C   0  0  0  0  0  0  0  0  0  0  0  0
   -4.5846    2.5590    0.0000 C   0  0  0  0  0  0  0  0  0  0  0  0
  2  1  2  0  0  0  0
  3  1  1  0  0  0  0
  4  1  1  0  0  0  0
  5  3  1  0  0  0  0
  6  2  1  0  0  0  0
  7  4  1  0  0  0  0
  7  5  2  0  0  0  0
  8  6  1  0  0  0  0
  9  8  1  0  0  0  0
 10  8  1  0  0  0  0
 10  9  1  0  0  0  0
 11 15  1  0  0  0  0
 12 11  3  0  0  0  0
 13  5  1  0  0  0  0
 14  6  2  0  0  0  0
 15  3  1  0  0  0  0
 16 13  1  0  0  0  0
 17  7  1  0  0  0  0
 18 17  2  0  0  0  0
 18 19  1  0  0  0  0
 19 13  2  0  0  0  0
M  END
>  <CdId>
2424

>  <Mol Weight>
274.313

>  <Formula>
C14H11FN2OS

>  <Click_ID>
CLK032B10 __  __  __

$$$$
CLK034A08 __  __  __
 OpenBabel03171413522D

 28 31  0  0  0  0  0  0  0  0999 V2000
   -3.1583    5.0542    0.0000 N   0  0  0  0  0  0  0  0  0  0  0  0
   -4.5833    2.5500    0.0000 C   0  0  0  0  0  0  0  0  0  0  0  0
   -2.4958    5.5292    0.0000 C   0  0  0  0  0  0  0  0  0  0  0  0
   -3.8125    5.5292    0.0000 C   0  0  0  0  0  0  0  0  0  0  0  0
   -4.6750    1.7333    0.0000 N   0  0  0  0  0  0  0  0  0  0  0  0
   -3.8708    2.9708    0.0000 N   0  0  0  0  0  0  0  0  0  0  0  0
   -5.3208    2.8958    0.0000 S   0  0  0  0  0  0  0  0  0  0  0  0
   -5.4833    1.5708    0.0000 C   0  0  0  0  0  0  0  0  0  0  0  0
   -2.7375    6.3125    0.0000 C   0  0  0  0  0  0  0  0  0  0  0  0
   -3.5625    6.3167    0.0000 C   0  0  0  0  0  0  0  0  0  0  0  0
   -5.8833    2.2958    0.0000 C   0  0  0  0  0  0  0  0  0  0  0  0
   -3.8708    3.8000    0.0000 C   0  0  0  0  0  0  0  0  0  0  0  0
   -3.1583    4.2125    0.0000 C   0  0  0  0  0  0  0  0  0  0  0  0
   -4.2458    0.3500    0.0000 C   0  0  0  0  0  0  0  0  0  0  0  0
   -4.4208   -0.4542    0.0000 C   0  0  0  0  0  0  0  0  0  0  0  0
   -1.7208    5.2667    0.0000 O   0  0  0  0  0  0  0  0  0  0  0  0
   -4.6125    5.2792    0.0000 O   0  0  0  0  0  0  0  0  0  0  0  0
   -5.9083    0.8708    0.0000 C   0  0  0  0  0  0  0  0  0  0  0  0
   -4.5958    4.2125    0.0000 O   0  0  0  0  0  0  0  0  0  0  0  0
   -4.0583    1.1583    0.0000 C   0  0  0  0  0  0  0  0  0  0  0  0
   -5.5083    0.1458    0.0000 Cl  0  0  0  0  0  0  0  0  0  0  0  0
   -6.7042    2.3083    0.0000 C   0  0  0  0  0  0  0  0  0  0  0  0
   -2.3208    7.0292    0.0000 C   0  0  0  0  0  0  0  0  0  0  0  0
   -3.9708    7.0292    0.0000 C   0  0  0  0  0  0  0  0  0  0  0  0
   -7.1292    1.6000    0.0000 C   0  0  0  0  0  0  0  0  0  0  0  0
   -6.7167    0.8750    0.0000 C   0  0  0  0  0  0  0  0  0  0  0  0
   -3.5500    7.7417    0.0000 C   0  0  0  0  0  0  0  0  0  0  0  0
   -2.7250    7.7417    0.0000 C   0  0  0  0  0  0  0  0  0  0  0  0
  2  6  2  0  0  0  0
  3  1  1  0  0  0  0
  4  1  1  0  0  0  0
  5  2  1  0  0  0  0
  6 12  1  0  0  0  0
  7  2  1  0  0  0  0
  8  5  1  0  0  0  0
  9  3  1  0  0  0  0
  9 10  2  0  0  0  0
 10  4  1  0  0  0  0
 11  7  1  0  0  0  0
 11  8  2  0  0  0  0
 12 13  1  0  0  0  0
 13  1  1  0  0  0  0
 14 20  1  0  0  0  0
 15 14  3  0  0  0  0
 16  3  2  0  0  0  0
 17  4  2  0  0  0  0
 18  8  1  0  0  0  0
 19 12  2  0  0  0  0
 20  5  1  0  0  0  0
 21 18  1  0  0  0  0
 22 11  1  0  0  0  0
 23  9  1  0  0  0  0
 24 10  1  0  0  0  0
 25 22  2  0  0  0  0
 26 18  2  0  0  0  0
 26 25  1  0  0  0  0
 27 24  2  0  0  0  0
 28 23  2  0  0  0  0
 28 27  1  0  0  0  0
M  END
>  <CdId>
2572

>  <Mol Weight>
409.846

>  <Formula>
C20H12ClN3O3S

>  <Click_ID>
CLK034A08 __  __  __

$$$$
CLK034E07 __  __  __
 OpenBabel03171413522D

 27 30  0  0  0  0  0  0  0  0999 V2000
   -4.5833    2.5500    0.0000 C   0  0  0  0  0  0  0  0  0  0  0  0
   -3.1583    4.2125    0.0000 C   0  0  0  0  0  0  0  0  0  0  0  0
   -3.8708    2.9708    0.0000 N   0  0  0  0  0  0  0  0  0  0  0  0
   -4.6750    1.7333    0.0000 N   0  0  0  0  0  0  0  0  0  0  0  0
   -3.8708    3.8000    0.0000 C   0  0  0  0  0  0  0  0  0  0  0  0
   -2.4458    3.8083    0.0000 C   0  0  0  0  0  0  0  0  0  0  0  0
   -5.3208    2.8958    0.0000 S   0  0  0  0  0  0  0  0  0  0  0  0
   -5.4833    1.5708    0.0000 C   0  0  0  0  0  0  0  0  0  0  0  0
   -3.1500    5.0417    0.0000 C   0  0  0  0  0  0  0  0  0  0  0  0
   -5.8833    2.2958    0.0000 C   0  0  0  0  0  0  0  0  0  0  0  0
   -1.7333    4.2125    0.0000 O   0  0  0  0  0  0  0  0  0  0  0  0
   -2.4458    5.4542    0.0000 C   0  0  0  0  0  0  0  0  0  0  0  0
   -1.7333    5.0417    0.0000 C   0  0  0  0  0  0  0  0  0  0  0  0
   -4.2458    0.3500    0.0000 C   0  0  0  0  0  0  0  0  0  0  0  0
   -4.4208   -0.4542    0.0000 C   0  0  0  0  0  0  0  0  0  0  0  0
   -5.9083    0.8708    0.0000 C   0  0  0  0  0  0  0  0  0  0  0  0
   -2.4375    2.9625    0.0000 O   0  0  0  0  0  0  0  0  0  0  0  0
   -4.5958    4.2125    0.0000 O   0  0  0  0  0  0  0  0  0  0  0  0
   -4.0583    1.1583    0.0000 C   0  0  0  0  0  0  0  0  0  0  0  0
   -5.5083    0.1458    0.0000 Cl  0  0  0  0  0  0  0  0  0  0  0  0
   -6.7042    2.3083    0.0000 C   0  0  0  0  0  0  0  0  0  0  0  0
   -7.1292    1.6000    0.0000 C   0  0  0  0  0  0  0  0  0  0  0  0
   -2.4458    6.2792    0.0000 C   0  0  0  0  0  0  0  0  0  0  0  0
   -1.0125    5.4542    0.0000 C   0  0  0  0  0  0  0  0  0  0  0  0
   -6.7167    0.8750    0.0000 C   0  0  0  0  0  0  0  0  0  0  0  0
   -1.7333    6.7042    0.0000 C   0  0  0  0  0  0  0  0  0  0  0  0
   -1.0208    6.2792    0.0000 C   0  0  0  0  0  0  0  0  0  0  0  0
  2  5  1  0  0  0  0
  3  1  2  0  0  0  0
  4  1  1  0  0  0  0
  5  3  1  0  0  0  0
  6  2  1  0  0  0  0
  7  1  1  0  0  0  0
  8  4  1  0  0  0  0
  9  2  2  0  0  0  0
 10  7  1  0  0  0  0
 10  8  2  0  0  0  0
 11  6  1  0  0  0  0
 11 13  1  0  0  0  0
 12  9  1  0  0  0  0
 13 12  2  0  0  0  0
 14 19  1  0  0  0  0
 15 14  3  0  0  0  0
 16  8  1  0  0  0  0
 17  6  2  0  0  0  0
 18  5  2  0  0  0  0
 19  4  1  0  0  0  0
 20 16  1  0  0  0  0
 21 10  1  0  0  0  0
 22 21  2  0  0  0  0
 23 12  1  0  0  0  0
 24 13  1  0  0  0  0
 24 27  2  0  0  0  0
 25 16  2  0  0  0  0
 25 22  1  0  0  0  0
 26 23  2  0  0  0  0
 27 26  1  0  0  0  0
M  END
>  <CdId>
2611

>  <Mol Weight>
394.831

>  <Formula>
C20H11ClN2O3S

>  <Click_ID>
CLK034E07 __  __  __

$$$$
CLK036H06 __  __  __
 OpenBabel03171413522D

 19 20  0  0  0  0  0  0  0  0999 V2000
   -0.6397    2.3586    0.0000 C   0  0  0  0  0  0  0  0  0  0  0  0
   -0.0322    2.7196    0.0000 S   0  0  0  0  0  0  0  0  0  0  0  0
   -0.6397    1.6510    0.0000 N   0  0  0  0  0  0  0  0  0  0  0  0
    0.5825    2.3586    0.0000 C   0  0  0  0  0  0  0  0  0  0  0  0
    0.5825    1.6510    0.0000 N   0  0  0  0  0  0  0  0  0  0  0  0
   -1.4902    2.5480    0.0000 N   0  0  0  0  0  0  0  0  0  0  0  0
   -2.1978    2.5587    0.0000 C   0  0  0  0  0  0  0  0  0  0  0  0
    1.7404    1.2544    0.0000 C   0  0  0  0  0  0  0  0  0  0  0  0
    1.6010    0.4467    0.0000 C   0  0  0  0  0  0  0  0  0  0  0  0
   -3.0734    2.5480    0.0000 N   0  0  0  0  0  0  0  0  0  0  0  0
   -2.2049    3.2592    0.0000 O   0  0  0  0  0  0  0  0  0  0  0  0
    1.2651    2.6016    0.0000 S   0  0  0  0  0  0  0  0  0  0  0  0
   -3.4915    3.2663    0.0000 C   0  0  0  0  0  0  0  0  0  0  0  0
    1.8905    2.0692    0.0000 C   0  0  0  0  0  0  0  0  0  0  0  0
   -3.0841    3.9704    0.0000 C   0  0  0  0  0  0  0  0  0  0  0  0
   -4.3170    3.2592    0.0000 C   0  0  0  0  0  0  0  0  0  0  0  0
   -4.7351    3.9704    0.0000 C   0  0  0  0  0  0  0  0  0  0  0  0
   -3.5022    4.6887    0.0000 C   0  0  0  0  0  0  0  0  0  0  0  0
   -4.3206    4.6887    0.0000 C   0  0  0  0  0  0  0  0  0  0  0  0
  2  1  1  0  0  0  0
  3  1  2  0  0  0  0
  4  2  1  0  0  0  0
  5  3  1  0  0  0  0
  5  4  2  0  0  0  0
  6  1  1  0  0  0  0
  7  6  1  0  0  0  0
  8 14  1  0  0  0  0
  9  8  3  0  0  0  0
 10  7  1  0  0  0  0
 11  7  2  0  0  0  0
 12  4  1  0  0  0  0
 13 10  1  0  0  0  0
 14 12  1  0  0  0  0
 15 13  1  0  0  0  0
 16 13  2  0  0  0  0
 17 16  1  0  0  0  0
 18 15  2  0  0  0  0
 18 19  1  0  0  0  0
 19 17  2  0  0  0  0
M  END
>  <CdId>
2768

>  <Mol Weight>
290.364

>  <Formula>
C12H10N4OS2

>  <Click_ID>
CLK036H06 __  __  __

$$$$
