CLK004_C02
 OpenBabel03191401532D

 14 14  0  0  0  0  0  0  0  0999 V2000
    7.5605  -11.8012    0.0000 C   0  0  0  0  0  0  0  0  0  0  0  0
    8.2700  -11.3822    0.0000 C   0  0  0  0  0  0  0  0  0  0  0  0
    4.7056  -11.8137    0.0000 C   0  0  0  0  0  0  0  0  0  0  0  0
    5.4151  -12.2203    0.0000 C   0  0  0  0  0  0  0  0  0  0  0  0
    3.9877  -12.2203    0.0000 C   0  0  0  0  0  0  0  0  0  0  0  0
    5.4151  -13.0503    0.0000 C   0  0  0  0  0  0  0  0  0  0  0  0
    3.2782  -14.2951    0.0000 O   0  0  0  0  0  0  0  0  0  0  0  0
    3.9877  -13.0503    0.0000 C   0  0  0  0  0  0  0  0  0  0  0  0
    3.2740  -13.4693    0.0000 C   0  0  0  0  0  0  0  0  0  0  0  0
    4.7056  -13.4611    0.0000 C   0  0  0  0  0  0  0  0  0  0  0  0
    4.7056  -10.9921    0.0000 O   0  0  0  0  0  0  0  0  0  0  0  0
    6.1289  -11.8054    0.0000 O   0  0  0  0  0  0  0  0  0  0  0  0
    6.8509  -12.2162    0.0000 C   0  0  0  0  0  0  0  0  0  0  0  0
    3.9960  -10.5813    0.0000 C   0  0  0  0  0  0  0  0  0  0  0  0
  2  1  3  0  0  0  0
  3  4  2  0  0  0  0
  4 12  1  0  0  0  0
  5  3  1  0  0  0  0
  6  4  1  0  0  0  0
  7  9  2  0  0  0  0
  8 10  1  0  0  0  0
  8  5  2  0  0  0  0
  9  8  1  0  0  0  0
 10  6  2  0  0  0  0
 11  3  1  0  0  0  0
 12 13  1  0  0  0  0
 13  1  1  0  0  0  0
 14 11  1  0  0  0  0
M  END
> <CdId>
261

> <Mol Weight>
190.1953

> <Formula>
C11H10O3

> <Click_ID>
CLK004_C02 __ __ 

$$$$
