CLK028_E04
 OpenBabel03191401532D

 31 34  0  0  0  0  0  0  0  0999 V2000
   -0.6110   -0.0379    0.0000 C    0  0  0  0  0  0  0  0  0  0  0  0
    0.8216   -0.8630    0.0000 C    0  0  0  0  0  0  0  0  0  0  0  0
    0.1070   -1.2980    0.0000 N    0  0  0  0  0  0  0  0  0  0  0  0
    0.8216   -0.0379    0.0000 N    0  0  0  0  0  0  0  0  0  0  0  0
   -0.6110   -0.8630    0.0000 C    0  0  0  0  0  0  0  0  0  0  0  0
    0.1070    0.3866    0.0000 C    0  0  0  0  0  0  0  0  0  0  0  0
   -1.3359    1.2013    0.0000 C    0  0  0  0  0  0  0  0  0  0  0  0
   -1.3324    0.3763    0.0000 C    0  0  0  0  0  0  0  0  0  0  0  0
   -1.7709    2.4716    0.0000 N    0  0  0  0  0  0  0  0  0  0  0  0
   -2.0229    1.6880    0.0000 C    0  0  0  0  0  0  0  0  0  0  0  0
   -0.6835    1.6811    0.0000 C    0  0  0  0  0  0  0  0  0  0  0  0
   -0.9355    2.4647    0.0000 C    0  0  0  0  0  0  0  0  0  0  0  0
    0.1070   -2.1298    0.0000 C    0  0  0  0  0  0  0  0  0  0  0  0
    1.5430   -1.3014    0.0000 S    0  0  0  0  0  0  0  0  0  0  0  0
   -1.9124    3.8903    0.0000 C    0  0  0  0  0  0  0  0  0  0  0  0
   -1.3324   -1.3014    0.0000 O    0  0  0  0  0  0  0  0  0  0  0  0
   -1.5085    4.6084    0.0000 C    0  0  0  0  0  0  0  0  0  0  0  0
    0.1070    1.2151    0.0000 O    0  0  0  0  0  0  0  0  0  0  0  0
    1.5430    0.3763    0.0000 C    0  0  0  0  0  0  0  0  0  0  0  0
   -2.2507    3.1413    0.0000 C    0  0  0  0  0  0  0  0  0  0  0  0
    0.8216   -2.5303    0.0000 C    0  0  0  0  0  0  0  0  0  0  0  0
   -0.6110   -2.5303    0.0000 C    0  0  0  0  0  0  0  0  0  0  0  0
    0.1070   -3.7799    0.0000 C    0  0  0  0  0  0  0  0  0  0  0  0
    0.8216   -3.3691    0.0000 C    0  0  0  0  0  0  0  0  0  0  0  0
   -0.6110   -3.3691    0.0000 C    0  0  0  0  0  0  0  0  0  0  0  0
    0.1070   -4.6084    0.0000 Cl   0  0  0  0  0  0  0  0  0  0  0  0
   -0.3866    3.0792    0.0000 C    0  0  0  0  0  0  0  0  0  0  0  0
    0.1208    1.5154    0.0000 C    0  0  0  0  0  0  0  0  0  0  0  0
    2.2472   -0.0449    0.0000 C    0  0  0  0  0  0  0  0  0  0  0  0
    0.4211    2.9065    0.0000 C    0  0  0  0  0  0  0  0  0  0  0  0
    0.6800    2.1264    0.0000 C    0  0  0  0  0  0  0  0  0  0  0  0
  2  4  1  0  0  0  0
  2  3  1  0  0  0  0
  3  5  1  0  0  0  0
  4  6  1  0  0  0  0
  5  1  1  0  0  0  0
  6  1  1  0  0  0  0
  7  8  1  0  0  0  0
  8  1  2  0  0  0  0
  9 10  1  0  0  0  0
 10  7  2  0  0  0  0
 11  7  1  0  0  0  0
 12 11  2  0  0  0  0
 12  9  1  0  0  0  0
 13  3  1  0  0  0  0
 14  2  2  0  0  0  0
 15 20  1  0  0  0  0
 16  5  2  0  0  0  0
 17 15  3  0  0  0  0
 18  6  2  0  0  0  0
 19  4  1  0  0  0  0
 20  9  1  0  0  0  0
 21 13  1  0  0  0  0
 22 13  2  0  0  0  0
 23 25  2  0  0  0  0
 23 24  1  0  0  0  0
 24 21  2  0  0  0  0
 25 22  1  0  0  0  0
 26 23  1  0  0  0  0
 27 12  1  0  0  0  0
 28 11  1  0  0  0  0
 29 19  1  0  0  0  0
 30 31  1  0  0  0  0
 30 27  2  0  0  0  0
 31 28  2  0  0  0  0
M  END
> <CdId>
2128

> <Mol Weight>
447.937

> <Formula>
C24H18ClN3O2S

> <Click_ID>
CLK028_E04 __ __ 

$$$$
