CLK037E11
 OpenBabel03191401532D

 12 11  0  0  0  0  0  0  0  0999 V2000
   -0.4292   -0.4625    0.0000 C    0  0  0  0  0  0  0  0  0  0  0  0
   -0.2708   -1.2710    0.0000 C    0  0  0  0  0  0  0  0  0  0  0  0
    0.7667   -0.1167    0.0000 C    0  0  0  0  0  0  0  0  0  0  0  0
    0.2250    0.5042    0.0000 N    0  0  0  0  0  0  0  0  0  0  0  0
   -0.5833    0.3500    0.0000 C    0  0  0  0  0  0  0  0  0  0  0  0
    0.4958   -0.9002    0.0000 O    0  0  0  0  0  0  0  0  0  0  0  0
    2.1169   -0.5875    0.0000 Cl   0  0  0  0  0  0  0  0  0  0  0  0
    1.5752    0.0375    0.0000 C    0  0  0  0  0  0  0  0  0  0  0  0
   -0.7417    1.1585    0.0000 C    0  0  0  0  0  0  0  0  0  0  0  0
   -1.3960    0.1917    0.0000 C    0  0  0  0  0  0  0  0  0  0  0  0
   -0.1167    1.7002    0.0000 C    0  0  0  0  0  0  0  0  0  0  0  0
   -1.6669   -0.5875    0.0000 C    0  0  0  0  0  0  0  0  0  0  0  0
  2  1  3  0  0  0  0
  3  4  1  0  0  0  0
  4  5  1  0  0  0  0
  5  1  1  0  0  0  0
  6  3  2  0  0  0  0
  7  8  1  0  0  0  0
  8  3  1  0  0  0  0
  9  5  1  0  0  0  0
 10  5  1  0  0  0  0
 11  9  1  0  0  0  0
 12 10  1  0  0  0  0
M  END
> <CdId>
2845

> <Mol Weight>
187.667

> <Formula>
C9H14ClNO

> <Click_ID>
CLK037E11 __ __ 

$$$$
