CLK049G09
 OpenBabel03191401532D

 13 13  0  0  0  0  0  0  0  0999 V2000
   -1.4875    1.5583    0.0000 C   0  0  0  0  0  0  0  0  0  0  0  0
   -2.2000    1.9708    0.0000 C   0  0  0  0  0  0  0  0  0  0  0  0
    0.6583   -1.3292    0.0000 C   0  0  0  0  0  0  0  0  0  0  0  0
   -0.0583   -0.9167    0.0000 N   0  0  0  0  0  0  0  0  0  0  0  0
   -0.0583   -0.0917    0.0000 C   0  0  0  0  0  0  0  0  0  0  0  0
    1.3708   -0.9167    0.0000 O   0  0  0  0  0  0  0  0  0  0  0  0
   -0.7708    1.1458    0.0000 C   0  0  0  0  0  0  0  0  0  0  0  0
   -0.7708    0.3208    0.0000 C   0  0  0  0  0  0  0  0  0  0  0  0
    0.6583    1.1458    0.0000 C   0  0  0  0  0  0  0  0  0  0  0  0
    0.6583   -2.1542    0.0000 C   0  0  0  0  0  0  0  0  0  0  0  0
    0.6583    0.3208    0.0000 C   0  0  0  0  0  0  0  0  0  0  0  0
   -0.0583    1.5583    0.0000 C   0  0  0  0  0  0  0  0  0  0  0  0
    1.3708   -2.5667    0.0000 C   0  0  0  0  0  0  0  0  0  0  0  0
  2  1  3  0  0  0  0
  3  4  1  0  0  0  0
  4  5  1  0  0  0  0
  5  8  2  0  0  0  0
  6  3  2  0  0  0  0
  7  1  1  0  0  0  0
  8  7  1  0  0  0  0
  9 12  1  0  0  0  0
  9 11  2  0  0  0  0
 10  3  1  0  0  0  0
 11  5  1  0  0  0  0
 12  7  2  0  0  0  0
 13 10  1  0  0  0  0
M  END
> <CdId>
3791

> <Mol Weight>
173.2111

> <Formula>
C11H11NO

> <Click_ID>
CLK049G09 __ __ 

$$$$
