CLK003_H09
 OpenBabel03191401532D

 20 22  0  0  0  0  0  0  0  0999 V2000
   -1.3915   -0.5665    0.0000 C   0  0  3  0  0  0  0  0  0  0  0  0
   -1.3915    0.2585    0.0000 C   0  0  3  0  0  0  0  0  0  0  0  0
   -2.1100   -0.9809    0.0000 C   0  0  3  0  0  0  0  0  0  0  0  0
   -0.6082   -0.8250    0.0000 C   0  0  0  0  0  0  0  0  0  0  0  0
   -2.1100    0.6729    0.0000 C   0  0  3  0  0  0  0  0  0  0  0  0
   -0.6082    0.5132    0.0000 C   0  0  0  0  0  0  0  0  0  0  0  0
   -2.3418   -0.0722    0.0000 C   0  0  0  0  0  0  0  0  0  0  0  0
   -2.8247   -0.5665    0.0000 C   0  0  0  0  0  0  0  0  0  0  0  0
   -0.1255   -0.1520    0.0000 N   0  0  0  0  0  0  0  0  0  0  0  0
   -0.3497   -1.6081    0.0000 O   0  0  0  0  0  0  0  0  0  0  0  0
   -2.8247    0.2585    0.0000 C   0  0  0  0  0  0  0  0  0  0  0  0
   -0.3497    1.3078    0.0000 O   0  0  0  0  0  0  0  0  0  0  0  0
    0.7109   -0.1520    0.0000 C   0  0  0  0  0  0  0  0  0  0  0  0
    1.1139    0.5665    0.0000 C   0  0  0  0  0  0  0  0  0  0  0  0
    1.9275    0.5778    0.0000 N   0  3  0  0  0  0  0  0  0  0  0  0
    2.7410    0.5778    0.0000 C   0  0  0  0  0  0  0  0  0  0  0  0
    1.9275   -0.2471    0.0000 C   0  0  0  0  0  0  0  0  0  0  0  0
    1.9275    1.3915    0.0000 C   0  0  0  0  0  0  0  0  0  0  0  0
    3.1402   -0.1255    0.0000 C   0  0  0  0  0  0  0  0  0  0  0  0
    3.5394   -0.8250    0.0000 C   0  0  0  0  0  0  0  0  0  0  0  0
  1  2  1  0  0  0  0
  1  3  1  0  0  0  0
  1  4  1  0  0  0  0
  2  5  1  0  0  0  0
  2  6  1  0  0  0  0
  3  7  1  0  0  0  0
  3  8  1  0  0  0  0
  4  9  1  0  0  0  0
  4 10  2  0  0  0  0
  5 11  1  0  0  0  0
  5  7  1  0  0  0  0
  6 12  2  0  0  0  0
  6  9  1  0  0  0  0
  8 11  2  0  0  0  0
  9 13  1  0  0  0  0
 13 14  1  0  0  0  0
 14 15  1  0  0  0  0
 15 16  1  0  0  0  0
 15 17  1  0  0  0  0
 15 18  1  0  0  0  0
 16 19  1  0  0  0  0
 19 20  3  0  0  0  0
M  END
> <CdId>
238

> <Mol Weight>
273.3501

> <Formula>
C16H21N2O2

> <Click_ID>
CLK003_H09 __ __ 

$$$$
