CLK048B04
 OpenBabel03191401532D

 14 14  0  0  0  0  0  0  0  0999 V2000
    1.4792   -2.6208    0.0000 C   0  0  0  0  0  0  0  0  0  0  0  0
    2.1917   -3.0333    0.0000 C   0  0  0  0  0  0  0  0  0  0  0  0
    0.0500   -0.9708    0.0000 C   0  0  0  0  0  0  0  0  0  0  0  0
   -0.6667   -1.3833    0.0000 O   0  0  0  0  0  0  0  0  0  0  0  0
    0.7625   -1.3833    0.0000 N   0  0  0  0  0  0  0  0  0  0  0  0
   -0.6667    0.2667    0.0000 O   0  0  0  0  0  0  0  0  0  0  0  0
    0.0500   -0.1458    0.0000 C   0  0  0  0  0  0  0  0  0  0  0  0
   -0.6667    1.0917    0.0000 C   0  0  0  0  0  0  0  0  0  0  0  0
    0.7625   -2.2083    0.0000 C   0  0  0  0  0  0  0  0  0  0  0  0
    0.0500    1.5042    0.0000 C   0  0  0  0  0  0  0  0  0  0  0  0
   -1.3792    1.5042    0.0000 C   0  0  0  0  0  0  0  0  0  0  0  0
   -1.3792    2.3292    0.0000 C   0  0  0  0  0  0  0  0  0  0  0  0
    0.0500    2.3292    0.0000 C   0  0  0  0  0  0  0  0  0  0  0  0
   -0.6667    2.7417    0.0000 C   0  0  0  0  0  0  0  0  0  0  0  0
  2  1  3  0  0  0  0
  3  5  1  0  0  0  0
  4  3  2  0  0  0  0
  5  9  1  0  0  0  0
  6  7  1  0  0  0  0
  7  3  1  0  0  0  0
  8  6  1  0  0  0  0
  9  1  1  0  0  0  0
 10  8  1  0  0  0  0
 11  8  2  0  0  0  0
 12 11  1  0  0  0  0
 13 10  2  0  0  0  0
 14 12  2  0  0  0  0
 14 13  1  0  0  0  0
M  END
> <CdId>
3666

> <Mol Weight>
189.2105

> <Formula>
C11H11NO2

> <Click_ID>
CLK048B04 __ __ 

$$$$
