CLK047E07
 OpenBabel03191401532D

 12 12  0  0  0  0  0  0  0  0999 V2000
   -0.3583   -0.3417    0.0000 C   0  0  0  0  0  0  0  0  0  0  0  0
    1.0708   -1.9917    0.0000 C   0  0  0  0  0  0  0  0  0  0  0  0
    1.7833   -2.4042    0.0000 C   0  0  0  0  0  0  0  0  0  0  0  0
   -1.0750   -0.7542    0.0000 O   0  0  0  0  0  0  0  0  0  0  0  0
   -0.3583    0.4833    0.0000 C   0  0  0  0  0  0  0  0  0  0  0  0
    0.3542   -0.7542    0.0000 N   0  0  0  0  0  0  0  0  0  0  0  0
    0.3542   -1.5792    0.0000 C   0  0  0  0  0  0  0  0  0  0  0  0
    0.3542    0.8958    0.0000 C   0  0  0  0  0  0  0  0  0  0  0  0
   -1.0750    0.8958    0.0000 C   0  0  0  0  0  0  0  0  0  0  0  0
   -1.0750    1.7208    0.0000 C   0  0  0  0  0  0  0  0  0  0  0  0
    0.3542    1.7208    0.0000 C   0  0  0  0  0  0  0  0  0  0  0  0
   -0.3583    2.1333    0.0000 C   0  0  0  0  0  0  0  0  0  0  0  0
  2  7  1  0  0  0  0
  3  2  3  0  0  0  0
  4  1  2  0  0  0  0
  5  1  1  0  0  0  0
  6  1  1  0  0  0  0
  7  6  1  0  0  0  0
  8  5  1  0  0  0  0
  9  5  1  0  0  0  0
 10  9  1  0  0  0  0
 11  8  1  0  0  0  0
 12 10  1  0  0  0  0
 12 11  1  0  0  0  0
M  END
> <CdId>
3613

> <Mol Weight>
165.2322

> <Formula>
C10H15NO

> <Click_ID>
CLK047E07 __ __ 

$$$$
