CLK047H07
 OpenBabel03191401532D

 18 18  0  0  0  0  0  0  0  0999 V2000
    1.3083   -0.0208    0.0000 C    0  0  0  0  0  0  0  0  0  0  0  0
    0.5917   -0.4333    0.0000 C    0  0  0  0  0  0  0  0  0  0  0  0
   -3.6917   -0.4333    0.0000 C    0  0  0  0  0  0  0  0  0  0  0  0
   -4.4083   -0.8458    0.0000 C    0  0  0  0  0  0  0  0  0  0  0  0
    2.0208   -0.4333    0.0000 C    0  0  0  0  0  0  0  0  0  0  0  0
    1.3083    0.8042    0.0000 C    0  0  0  0  0  0  0  0  0  0  0  0
   -1.5500   -0.0208    0.0000 C    0  0  0  0  0  0  0  0  0  0  0  0
   -0.1208   -0.0208    0.0000 O    0  0  0  0  0  0  0  0  0  0  0  0
    0.5917   -1.2583    0.0000 O    0  0  0  0  0  0  0  0  0  0  0  0
   -1.5500    0.8042    0.0000 O    0  0  0  0  0  0  0  0  0  0  0  0
    2.7375   -0.0208    0.0000 C    0  0  0  0  0  0  0  0  0  0  0  0
   -0.8375   -0.4333    0.0000 C    0  0  0  0  0  0  0  0  0  0  0  0
   -2.2625   -0.4333    0.0000 N    0  0  0  0  0  0  0  0  0  0  0  0
    2.0208    1.2167    0.0000 C    0  0  0  0  0  0  0  0  0  0  0  0
    2.0208   -1.2583    0.0000 N    0  0  0  0  0  0  0  0  0  0  0  0
    2.7375    0.8042    0.0000 C    0  0  0  0  0  0  0  0  0  0  0  0
    2.0208    2.0417    0.0000 Br   0  0  0  0  0  0  0  0  0  0  0  0
   -2.9792   -0.0208    0.0000 C    0  0  0  0  0  0  0  0  0  0  0  0
  2  1  1  0  0  0  0
  3 18  1  0  0  0  0
  4  3  3  0  0  0  0
  5  1  2  0  0  0  0
  6  1  1  0  0  0  0
  7 12  1  0  0  0  0
  8  2  1  0  0  0  0
  9  2  2  0  0  0  0
 10  7  2  0  0  0  0
 11  5  1  0  0  0  0
 12  8  1  0  0  0  0
 13  7  1  0  0  0  0
 14  6  2  0  0  0  0
 14 16  1  0  0  0  0
 15  5  1  0  0  0  0
 16 11  2  0  0  0  0
 17 14  1  0  0  0  0
 18 13  1  0  0  0  0
M  END
> <CdId>
3616

> <Mol Weight>
311.131

> <Formula>
C12H11BrN2O3

> <Click_ID>
CLK047H07 __ __ 

$$$$
