CLK012_H02
 OpenBabel03191401532D

 25 26  0  0  0  0  0  0  0  0999 V2000
    1.5667   -0.8167    0.0000 N    0  0  0  0  0  0  0  0  0  0  0  0
    1.8250   -1.6042    0.0000 C    0  0  0  0  0  0  0  0  0  0  0  0
    2.9042   -0.8167    0.0000 C    0  0  0  0  0  0  0  0  0  0  0  0
    2.2375   -0.3292    0.0000 C    0  0  0  0  0  0  0  0  0  0  0  0
    2.6500   -1.6042    0.0000 S    0  0  0  0  0  0  0  0  0  0  0  0
    3.6917   -0.5625    0.0000 C    0  0  0  0  0  0  0  0  0  0  0  0
    3.8542    0.2458    0.0000 C    0  0  0  0  0  0  0  0  0  0  0  0
    4.8167    1.2958    0.0000 C    0  0  0  0  0  0  0  0  0  0  0  0
    4.6375    0.4958    0.0000 C    0  0  0  0  0  0  0  0  0  0  0  0
    4.2042    1.8500    0.0000 C    0  0  0  0  0  0  0  0  0  0  0  0
    0.6125    0.2458    0.0000 C    0  0  0  0  0  0  0  0  0  0  0  0
    3.2500    0.7958    0.0000 C    0  0  0  0  0  0  0  0  0  0  0  0
    5.3542    3.7083    0.0000 C    0  0  0  0  0  0  0  0  0  0  0  0
    3.4167    1.6083    0.0000 C    0  0  0  0  0  0  0  0  0  0  0  0
    5.5292    4.5125    0.0000 C    0  0  0  0  0  0  0  0  0  0  0  0
    0.3917    1.0458    0.0000 C    0  0  0  0  0  0  0  0  0  0  0  0
    1.3375   -2.2667    0.0000 O    0  0  0  0  0  0  0  0  0  0  0  0
    2.2292    0.4958    0.0000 O    0  0  0  0  0  0  0  0  0  0  0  0
    0.7875   -0.5625    0.0000 C    0  0  0  0  0  0  0  0  0  0  0  0
    5.2417   -0.0542    0.0000 Br   0  0  0  0  0  0  0  0  0  0  0  0
    4.3917    2.6583    0.0000 O    0  0  0  0  0  0  0  0  0  0  0  0
    2.8250    2.1583    0.0000 O    0  0  0  0  0  0  0  0  0  0  0  0
    5.1667    2.9083    0.0000 C    0  0  0  0  0  0  0  0  0  0  0  0
    2.0375    1.9000    0.0000 C    0  0  0  0  0  0  0  0  0  0  0  0
    1.4292    2.4583    0.0000 C    0  0  0  0  0  0  0  0  0  0  0  0
  2  1  1  0  0  0  0
  3  4  1  0  0  0  0
  3  5  1  0  0  0  0
  4  1  1  0  0  0  0
  5  2  1  0  0  0  0
  6  3  2  0  0  0  0
  7  6  1  0  0  0  0
  8  9  2  0  0  0  0
  8 10  1  0  0  0  0
  9  7  1  0  0  0  0
 10 14  2  0  0  0  0
 11 19  1  0  0  0  0
 12  7  2  0  0  0  0
 13 23  1  0  0  0  0
 14 12  1  0  0  0  0
 15 13  3  0  0  0  0
 16 11  3  0  0  0  0
 17  2  2  0  0  0  0
 18  4  2  0  0  0  0
 19  1  1  0  0  0  0
 20  9  1  0  0  0  0
 21 10  1  0  0  0  0
 22 14  1  0  0  0  0
 23 21  1  0  0  0  0
 24 22  1  0  0  0  0
 25 24  1  0  0  0  0
M  END
> <CdId>
907

> <Mol Weight>
420.277

> <Formula>
C18H14BrNO4S

> <Click_ID>
CLK012_H02 __ __ 

$$$$
