CLK035_G10
 OpenBabel03191401532D

 29 31  0  0  0  0  0  0  0  0999 V2000
    0.4131    2.6124    0.0000 C   0  0  0  0  0  0  0  0  0  0  0  0
   -0.2963    2.1993    0.0000 N   0  0  0  0  0  0  0  0  0  0  0  0
    0.4800    3.4387    0.0000 N   0  0  0  0  0  0  0  0  0  0  0  0
    1.1685    2.2911    0.0000 S   0  0  0  0  0  0  0  0  0  0  0  0
   -1.0141    2.6124    0.0000 C   0  0  0  0  0  0  0  0  0  0  0  0
    3.7601    3.6766    0.0000 S   0  0  0  0  0  0  0  0  0  0  0  0
    1.7069    2.9171    0.0000 C   0  0  0  0  0  0  0  0  0  0  0  0
   -1.7235    2.1909    0.0000 C   0  0  0  0  0  0  0  0  0  0  0  0
    1.2895    3.6182    0.0000 C   0  0  0  0  0  0  0  0  0  0  0  0
   -2.4413    2.6041    0.0000 C   0  0  0  0  0  0  0  0  0  0  0  0
    2.9296    3.6557    0.0000 C   0  0  0  0  0  0  0  0  0  0  0  0
    2.5290    2.9296    0.0000 C   0  0  0  0  0  0  0  0  0  0  0  0
    0.0167    4.7742    0.0000 C   0  0  0  0  0  0  0  0  0  0  0  0
    1.6776    4.3360    0.0000 C   0  0  0  0  0  0  0  0  0  0  0  0
   -0.6009    5.3209    0.0000 C   0  0  0  0  0  0  0  0  0  0  0  0
    3.7559    4.4988    0.0000 O   0  0  0  0  0  0  0  0  0  0  0  0
    4.6072    3.6891    0.0000 O   0  0  0  0  0  0  0  0  0  0  0  0
   -1.0141    3.4387    0.0000 O   0  0  0  0  0  0  0  0  0  0  0  0
    2.5081    4.3485    0.0000 C   0  0  0  0  0  0  0  0  0  0  0  0
   -3.1550    2.1909    0.0000 C   0  0  0  0  0  0  0  0  0  0  0  0
   -0.1377    3.9770    0.0000 C   0  0  0  0  0  0  0  0  0  0  0  0
   -2.4496    3.4304    0.0000 O   0  0  0  0  0  0  0  0  0  0  0  0
    3.7726    2.8252    0.0000 C   0  0  0  0  0  0  0  0  0  0  0  0
   -1.7235    1.3604    0.0000 C   0  0  0  0  0  0  0  0  0  0  0  0
   -3.8769    2.6041    0.0000 O   0  0  0  0  0  0  0  0  0  0  0  0
   -2.4413    0.9473    0.0000 C   0  0  0  0  0  0  0  0  0  0  0  0
   -3.1550    1.3604    0.0000 C   0  0  0  0  0  0  0  0  0  0  0  0
   -3.1633    3.8393    0.0000 C   0  0  0  0  0  0  0  0  0  0  0  0
   -4.5905    2.1909    0.0000 C   0  0  0  0  0  0  0  0  0  0  0  0
  2  1  2  0  0  0  0
  3  1  1  0  0  0  0
  4  1  1  0  0  0  0
  5  2  1  0  0  0  0
  6 11  1  0  0  0  0
  7  4  1  0  0  0  0
  8  5  1  0  0  0  0
  9  3  1  0  0  0  0
  9  7  2  0  0  0  0
 10  8  2  0  0  0  0
 11 12  2  0  0  0  0
 12  7  1  0  0  0  0
 13 21  1  0  0  0  0
 14  9  1  0  0  0  0
 15 13  3  0  0  0  0
 16  6  2  0  0  0  0
 17  6  2  0  0  0  0
 18  5  2  0  0  0  0
 19 14  2  0  0  0  0
 19 11  1  0  0  0  0
 20 10  1  0  0  0  0
 21  3  1  0  0  0  0
 22 10  1  0  0  0  0
 23  6  1  0  0  0  0
 24  8  1  0  0  0  0
 25 20  1  0  0  0  0
 26 24  2  0  0  0  0
 27 26  1  0  0  0  0
 27 20  2  0  0  0  0
 28 22  1  0  0  0  0
 29 25  1  0  0  0  0
M  END
> <CdId>
2714

> <Mol Weight>
430.497

> <Formula>
C20H18N2O5S2

> <Click_ID>
CLK035_G10 __ __ 

$$$$
