CLK028_H04
 OpenBabel03191401532D

 29 30  0  0  0  0  0  0  0  0999 V2000
   -4.6504   -0.4018    0.0000 C   0  0  0  0  0  0  0  0  0  0  0  0
    2.4900    0.4224    0.0000 C   0  0  0  0  0  0  0  0  0  0  0  0
    2.4797   -0.4018    0.0000 C   0  0  0  0  0  0  0  0  0  0  0  0
    1.7791    0.8381    0.0000 C   0  0  0  0  0  0  0  0  0  0  0  0
   -3.9394   -0.8140    0.0000 C   0  0  0  0  0  0  0  0  0  0  0  0
    4.6366    0.8002    0.0000 C   0  0  0  0  0  0  0  0  0  0  0  0
    5.3579    1.2090    0.0000 C   0  0  0  0  0  0  0  0  0  0  0  0
   -0.3709   -0.4018    0.0000 N   0  0  0  0  0  0  0  0  0  0  0  0
   -1.7963   -0.4018    0.0000 C   0  0  0  0  0  0  0  0  0  0  0  0
    1.7688   -0.8208    0.0000 C   0  0  0  0  0  0  0  0  0  0  0  0
    1.0578    0.4259    0.0000 C   0  0  0  0  0  0  0  0  0  0  0  0
    1.0578   -0.3984    0.0000 C   0  0  0  0  0  0  0  0  0  0  0  0
   -3.2285   -0.3984    0.0000 C   0  0  0  0  0  0  0  0  0  0  0  0
   -1.0853   -0.8140    0.0000 N   0  0  0  0  0  0  0  0  0  0  0  0
   -1.7963    0.4224    0.0000 O   0  0  0  0  0  0  0  0  0  0  0  0
   -2.5072   -0.8140    0.0000 C   0  0  0  0  0  0  0  0  0  0  0  0
   -4.0734    0.1752    0.0000 F   0  0  0  0  0  0  0  0  0  0  0  0
   -4.6504    0.4224    0.0000 F   0  0  0  0  0  0  0  0  0  0  0  0
   -5.3579   -0.8140    0.0000 F   0  0  0  0  0  0  0  0  0  0  0  0
    0.3400   -0.8140    0.0000 C   0  0  0  0  0  0  0  0  0  0  0  0
   -2.5141    0.0103    0.0000 C   0  0  0  0  0  0  0  0  0  0  0  0
    3.1941   -0.8243    0.0000 I   0  0  0  0  0  0  0  0  0  0  0  0
    3.2044    0.8243    0.0000 O   0  0  0  0  0  0  0  0  0  0  0  0
    1.7860    1.6554    0.0000 O   0  0  0  0  0  0  0  0  0  0  0  0
    3.9222    0.4018    0.0000 C   0  0  0  0  0  0  0  0  0  0  0  0
   -3.9394   -1.6417    0.0000 C   0  0  0  0  0  0  0  0  0  0  0  0
   -3.2285   -2.0539    0.0000 C   0  0  0  0  0  0  0  0  0  0  0  0
   -2.5072   -1.6417    0.0000 C   0  0  0  0  0  0  0  0  0  0  0  0
    1.0819    2.0573    0.0000 C   0  0  0  0  0  0  0  0  0  0  0  0
  2  4  2  0  0  0  0
  3 10  2  0  0  0  0
  3  2  1  0  0  0  0
  4 11  1  0  0  0  0
  5  1  1  0  0  0  0
  6 25  1  0  0  0  0
  7  6  3  0  0  0  0
  8 14  1  0  0  0  0
  9 21  1  0  0  0  0
 10 12  1  0  0  0  0
 11 12  2  0  0  0  0
 12 20  1  0  0  0  0
 13  5  2  0  0  0  0
 14  9  1  0  0  0  0
 15  9  2  0  0  0  0
 16 13  1  0  0  0  0
 16 28  2  0  0  0  0
 17  1  1  0  0  0  0
 18  1  1  0  0  0  0
 19  1  1  0  0  0  0
 20  8  2  0  0  0  0
 21 16  1  0  0  0  0
 22  3  1  0  0  0  0
 23  2  1  0  0  0  0
 24  4  1  0  0  0  0
 25 23  1  0  0  0  0
 26  5  1  0  0  0  0
 27 26  2  0  0  0  0
 28 27  1  0  0  0  0
 29 24  1  0  0  0  0
M  END
> <CdId>
2158

> <Mol Weight>
516.2523

> <Formula>
C20H16F3IN2O3

> <Click_ID>
CLK028_H04 __ __ 

$$$$
