CLK001_H08
 OpenBabel03191401532D

 25 28  0  0  0  0  0  0  0  0999 V2000
   -0.6832   -0.9009    0.0000 C   0  0  0  0  0  0  0  0  0  0  0  0
    0.0051   -0.5061    0.0000 C   0  0  0  0  0  0  0  0  0  0  0  0
   -1.4171   -0.5061    0.0000 C   0  0  0  0  0  0  0  0  0  0  0  0
   -1.3791   -1.3285    0.0000 C   0  0  0  0  0  0  0  0  0  0  0  0
    0.0051   -1.3285    0.0000 C   0  0  0  0  0  0  0  0  0  0  0  0
    0.0051    0.3594    0.0000 C   0  0  0  0  0  0  0  0  0  0  0  0
    0.7364   -0.9009    0.0000 C   0  0  0  0  0  0  0  0  0  0  0  0
   -1.4171    0.3594    0.0000 C   0  0  0  0  0  0  0  0  0  0  0  0
   -1.3791   -2.1712    0.0000 C   0  0  0  0  0  0  0  0  0  0  0  0
    0.0051   -2.1712    0.0000 C   0  0  0  0  0  0  0  0  0  0  0  0
   -0.6909    0.7515    0.0000 C   0  0  0  0  0  0  0  0  0  0  0  0
    0.7364    0.7515    0.0000 N   0  0  0  0  0  0  0  0  0  0  0  0
    1.4728   -0.5061    0.0000 N   0  0  0  0  0  0  0  0  0  0  0  0
    0.7364   -1.7436    0.0000 O   0  0  0  0  0  0  0  0  0  0  0  0
   -2.1130    0.7515    0.0000 C   0  0  0  0  0  0  0  0  0  0  0  0
   -0.6301   -2.5229    0.0000 C   0  0  0  0  0  0  0  0  0  0  0  0
   -0.6909    1.5765    0.0000 C   0  0  0  0  0  0  0  0  0  0  0  0
    1.4728    0.3594    0.0000 C   0  0  0  0  0  0  0  0  0  0  0  0
    2.1661   -0.9338    0.0000 C   0  0  0  0  0  0  0  0  0  0  0  0
   -2.1130    1.5765    0.0000 C   0  0  0  0  0  0  0  0  0  0  0  0
   -1.4171    1.9991    0.0000 C   0  0  0  0  0  0  0  0  0  0  0  0
    2.1788    0.8148    0.0000 S   0  0  0  0  0  0  0  0  0  0  0  0
    2.1788    1.6676    0.0000 C   0  0  0  0  0  0  0  0  0  0  0  0
    1.4702    2.0725    0.0000 C   0  0  0  0  0  0  0  0  0  0  0  0
    0.7642    2.4749    0.0000 C   0  0  0  0  0  0  0  0  0  0  0  0
  1  2  1  0  0  0  0
  1  3  1  0  0  0  0
  1  4  1  0  0  0  0
  1  5  1  0  0  0  0
  2  6  2  0  0  0  0
  2  7  1  0  0  0  0
  3  8  1  0  0  0  0
  4  9  1  0  0  0  0
  5 10  1  0  0  0  0
  6 11  1  0  0  0  0
  6 12  1  0  0  0  0
  7 13  1  0  0  0  0
  7 14  2  0  0  0  0
  8 15  2  0  0  0  0
  8 11  1  0  0  0  0
  9 16  1  0  0  0  0
 10 16  1  0  0  0  0
 11 17  2  0  0  0  0
 12 18  2  0  0  0  0
 13 19  1  0  0  0  0
 13 18  1  0  0  0  0
 15 20  1  0  0  0  0
 17 21  1  0  0  0  0
 18 22  1  0  0  0  0
 20 21  2  0  0  0  0
 22 23  1  0  0  0  0
 23 24  1  0  0  0  0
 24 25  3  0  0  0  0
M  END
> <CdId>
77

> <Mol Weight>
350.477

> <Formula>
C21H22N2OS

> <Click_ID>
CLK001_H08 __ __ 

$$$$
