CLK038B06
 OpenBabel03191401532D

 22 22  0  0  0  0  0  0  0  0999 V2000
    0.8417    0.1125    0.0000 C   0  0  0  0  0  0  0  0  0  0  0  0
    1.5583    0.5250    0.0000 C   0  0  0  0  0  0  0  0  0  0  0  0
    0.1292    0.5250    0.0000 N   0  0  0  0  0  0  0  0  0  0  0  0
   -1.3000    0.5250    0.0000 C   0  0  0  0  0  0  0  0  0  0  0  0
   -3.4458    0.1125    0.0000 C   0  0  0  0  0  0  0  0  0  0  0  0
   -4.1583   -0.3000    0.0000 C   0  0  0  0  0  0  0  0  0  0  0  0
   -0.5875    0.1125    0.0000 C   0  0  3  0  0  0  0  0  0  0  0  0
    0.8417   -0.7125    0.0000 O   0  0  0  0  0  0  0  0  0  0  0  0
    2.2708    0.1125    0.0000 C   0  0  0  0  0  0  0  0  0  0  0  0
   -1.3000    1.3500    0.0000 O   0  0  0  0  0  0  0  0  0  0  0  0
   -2.0167    0.1125    0.0000 N   0  0  0  0  0  0  0  0  0  0  0  0
   -0.5875   -0.7125    0.0000 C   0  0  0  0  0  0  0  0  0  0  0  0
   -1.3000   -1.9500    0.0000 S   0  0  0  0  0  0  0  0  0  0  0  0
   -2.7292    0.5250    0.0000 C   0  0  0  0  0  0  0  0  0  0  0  0
    1.5583    1.3500    0.0000 C   0  0  0  0  0  0  0  0  0  0  0  0
    2.2708   -0.7125    0.0000 O   0  0  0  0  0  0  0  0  0  0  0  0
   -1.3000   -1.1250    0.0000 C   0  0  0  0  0  0  0  0  0  0  0  0
    2.9875    0.5250    0.0000 C   0  0  0  0  0  0  0  0  0  0  0  0
   -2.0167   -2.3625    0.0000 C   0  0  0  0  0  0  0  0  0  0  0  0
    2.9875   -1.1250    0.0000 C   0  0  0  0  0  0  0  0  0  0  0  0
    2.2708    1.7625    0.0000 C   0  0  0  0  0  0  0  0  0  0  0  0
    2.9875    1.3500    0.0000 C   0  0  0  0  0  0  0  0  0  0  0  0
  2  1  1  0  0  0  0
  3  1  1  0  0  0  0
  4  7  1  0  0  0  0
  5 14  1  0  0  0  0
  6  5  3  0  0  0  0
  7  3  1  0  0  0  0
  8  1  2  0  0  0  0
  9  2  2  0  0  0  0
 10  4  2  0  0  0  0
 11  4  1  0  0  0  0
 12  7  1  0  0  0  0
 13 17  1  0  0  0  0
 14 11  1  0  0  0  0
 15  2  1  0  0  0  0
 16  9  1  0  0  0  0
 17 12  1  0  0  0  0
 18  9  1  0  0  0  0
 19 13  1  0  0  0  0
 20 16  1  0  0  0  0
 21 15  2  0  0  0  0
 21 22  1  0  0  0  0
 22 18  2  0  0  0  0
M  END
> <CdId>
2882

> <Mol Weight>
320.407

> <Formula>
C16H20N2O3S

> <Click_ID>
CLK038B06 __ __ 

$$$$
