CLK015_E02
 OpenBabel03191401532D

 22 23  0  0  0  0  0  0  0  0999 V2000
    6.1233   -2.7459    0.0000 N   0  0  0  0  0  0  0  0  0  0  0  0
    5.7120   -3.4521    0.0000 C   0  0  0  0  0  0  0  0  0  0  0  0
    4.8147   -2.4551    0.0000 C   0  0  0  0  0  0  0  0  0  0  0  0
    5.5749   -2.1228    0.0000 C   0  0  0  0  0  0  0  0  0  0  0  0
    4.9019   -3.2776    0.0000 S   0  0  0  0  0  0  0  0  0  0  0  0
    4.1043   -2.0356    0.0000 C   0  0  0  0  0  0  0  0  0  0  0  0
    7.4276   -3.3192    0.0000 C   0  0  0  0  0  0  0  0  0  0  0  0
    3.3898   -2.4468    0.0000 C   0  0  0  0  0  0  0  0  0  0  0  0
    7.8306   -4.0420    0.0000 C   0  0  0  0  0  0  0  0  0  0  0  0
    6.0360   -4.2123    0.0000 O   0  0  0  0  0  0  0  0  0  0  0  0
    5.7494   -1.3127    0.0000 O   0  0  0  0  0  0  0  0  0  0  0  0
    1.9608    0.0207    0.0000 C   0  0  0  0  0  0  0  0  0  0  0  0
    6.9458   -2.6587    0.0000 C   0  0  0  0  0  0  0  0  0  0  0  0
    2.6712   -2.0356    0.0000 C   0  0  0  0  0  0  0  0  0  0  0  0
    2.6712   -1.2130    0.0000 O   0  0  0  0  0  0  0  0  0  0  0  0
    1.2462    0.4362    0.0000 O   0  0  0  0  0  0  0  0  0  0  0  0
    1.9608   -0.8018    0.0000 C   0  0  0  0  0  0  0  0  0  0  0  0
    2.6712    0.4320    0.0000 O   0  0  0  0  0  0  0  0  0  0  0  0
    3.3898   -3.2694    0.0000 C   0  0  0  0  0  0  0  0  0  0  0  0
    1.9608   -2.4468    0.0000 C   0  0  0  0  0  0  0  0  0  0  0  0
    2.6712   -3.6889    0.0000 C   0  0  0  0  0  0  0  0  0  0  0  0
    1.9566   -3.2818    0.0000 C   0  0  0  0  0  0  0  0  0  0  0  0
  2  1  1  0  0  0  0
  3  4  1  0  0  0  0
  4  1  1  0  0  0  0
  5  2  1  0  0  0  0
  5  3  1  0  0  0  0
  6  3  2  0  0  0  0
  7 13  1  0  0  0  0
  8  6  1  0  0  0  0
  9  7  3  0  0  0  0
 10  2  2  0  0  0  0
 11  4  2  0  0  0  0
 12 17  1  0  0  0  0
 13  1  1  0  0  0  0
 14  8  2  0  0  0  0
 15 14  1  0  0  0  0
 16 12  2  0  0  0  0
 17 15  1  0  0  0  0
 18 12  1  0  0  0  0
 19  8  1  0  0  0  0
 20 14  1  0  0  0  0
 20 22  2  0  0  0  0
 21 19  2  0  0  0  0
 22 21  1  0  0  0  0
M  END
> <CdId>
1117

> <Mol Weight>
317.317

> <Formula>
C15H11NO5S

> <Click_ID>
CLK015_E02 __ __ 

$$$$
