CLK023_D09
 OpenBabel03191401532D

 25 27  0  0  0  0  0  0  0  0999 V2000
   -2.7259   -0.4709    0.0000 N   0  0  0  0  0  0  0  0  0  0  0  0
   -2.4681   -1.2581    0.0000 C   0  0  0  0  0  0  0  0  0  0  0  0
   -1.3887   -0.4709    0.0000 C   0  0  0  0  0  0  0  0  0  0  0  0
   -2.0556    0.0138    0.0000 C   0  0  0  0  0  0  0  0  0  0  0  0
   -1.6431   -1.2581    0.0000 S   0  0  0  0  0  0  0  0  0  0  0  0
   -0.6050   -0.2200    0.0000 C   0  0  0  0  0  0  0  0  0  0  0  0
   -0.4331    0.5878    0.0000 C   0  0  0  0  0  0  0  0  0  0  0  0
    0.3197    0.9246    0.0000 N   0  0  0  0  0  0  0  0  0  0  0  0
    3.1830   -0.7219    0.0000 N   0  3  0  0  0  0  0  0  0  0  0  0
   -3.6780    0.5878    0.0000 C   0  0  0  0  0  0  0  0  0  0  0  0
    2.4646   -0.3094    0.0000 C   0  0  0  0  0  0  0  0  0  0  0  0
    1.0415    0.5156    0.0000 C   0  0  0  0  0  0  0  0  0  0  0  0
   -3.8980    1.3853    0.0000 C   0  0  0  0  0  0  0  0  0  0  0  0
    0.2303    1.7462    0.0000 C   0  0  0  0  0  0  0  0  0  0  0  0
    3.1727   -1.5434    0.0000 O   0  5  0  0  0  0  0  0  0  0  0  0
   -2.9527   -1.9181    0.0000 O   0  0  0  0  0  0  0  0  0  0  0  0
   -0.9900    1.2031    0.0000 C   0  0  0  0  0  0  0  0  0  0  0  0
    3.8945   -0.3094    0.0000 O   0  0  0  0  0  0  0  0  0  0  0  0
   -2.0624    0.8387    0.0000 O   0  0  0  0  0  0  0  0  0  0  0  0
   -0.5809    1.9215    0.0000 C   0  0  0  0  0  0  0  0  0  0  0  0
   -3.5027   -0.2200    0.0000 C   0  0  0  0  0  0  0  0  0  0  0  0
    2.4646    0.5121    0.0000 C   0  0  0  0  0  0  0  0  0  0  0  0
    1.7496   -0.7219    0.0000 C   0  0  0  0  0  0  0  0  0  0  0  0
    1.7531    0.9281    0.0000 C   0  0  0  0  0  0  0  0  0  0  0  0
    1.0381   -0.3094    0.0000 C   0  0  0  0  0  0  0  0  0  0  0  0
  2  1  1  0  0  0  0
  3  4  1  0  0  0  0
  4  1  1  0  0  0  0
  5  2  1  0  0  0  0
  5  3  1  0  0  0  0
  6  3  2  0  0  0  0
  7  6  1  0  0  0  0
  8  7  1  0  0  0  0
  9 11  1  0  0  0  0
 10 21  1  0  0  0  0
 11 23  2  0  0  0  0
 12  8  1  0  0  0  0
 13 10  3  0  0  0  0
 14  8  1  0  0  0  0
 15  9  1  0  0  0  0
 16  2  2  0  0  0  0
 17  7  2  0  0  0  0
 18  9  2  0  0  0  0
 19  4  2  0  0  0  0
 20 17  1  0  0  0  0
 20 14  2  0  0  0  0
 21  1  1  0  0  0  0
 22 24  2  0  0  0  0
 22 11  1  0  0  0  0
 23 25  1  0  0  0  0
 24 12  1  0  0  0  0
 25 12  2  0  0  0  0
M  END
> <CdId>
1734

> <Mol Weight>
353.352

> <Formula>
C17H11N3O4S

> <Click_ID>
CLK023_D09 __ __ 

$$$$
