CLK019_E08
 OpenBabel03191401532D

 20 20  0  0  0  0  0  0  0  0999 V2000
   -0.4934   -0.3816    0.0000 C   0  0  0  0  0  0  0  0  0  0  0  0
   -2.1693    1.0775    0.0000 C   0  0  0  0  0  0  0  0  0  0  0  0
   -1.3162   -0.3816    0.0000 N   0  0  0  0  0  0  0  0  0  0  0  0
   -0.0798   -1.0826    0.0000 N   0  0  0  0  0  0  0  0  0  0  0  0
   -2.6022    1.7936    0.0000 C   0  0  0  0  0  0  0  0  0  0  0  0
   -0.0874    0.3295    0.0000 S   0  0  0  0  0  0  0  0  0  0  0  0
    1.9819   -0.3614    0.0000 C   0  0  0  0  0  0  0  0  0  0  0  0
   -1.7382    0.3446    0.0000 C   0  0  0  0  0  0  0  0  0  0  0  0
    2.3988    0.3505    0.0000 C   0  0  0  0  0  0  0  0  0  0  0  0
    1.1431   -0.3715    0.0000 C   0  0  0  0  0  0  0  0  0  0  0  0
    0.7413   -1.0826    0.0000 C   0  0  0  0  0  0  0  0  0  0  0  0
    3.2275    0.3505    0.0000 O   0  0  0  0  0  0  0  0  0  0  0  0
    2.3887   -1.0767    0.0000 C   0  0  0  0  0  0  0  0  0  0  0  0
    1.9870   -1.7878    0.0000 C   0  0  0  0  0  0  0  0  0  0  0  0
    1.1683   -1.7936    0.0000 C   0  0  0  0  0  0  0  0  0  0  0  0
    1.9870    1.0716    0.0000 C   0  0  0  0  0  0  0  0  0  0  0  0
   -2.4820   -0.0967    0.0000 C   0  0  0  0  0  0  0  0  0  0  0  0
   -1.1515    0.7203    0.0000 C   0  0  0  0  0  0  0  0  0  0  0  0
   -3.2275    0.3068    0.0000 C   0  0  0  0  0  0  0  0  0  0  0  0
   -1.1515    1.5280    0.0000 C   0  0  0  0  0  0  0  0  0  0  0  0
  2  8  1  0  0  0  0
  3  1  1  0  0  0  0
  4  1  1  0  0  0  0
  5  2  3  0  0  0  0
  6  1  2  0  0  0  0
  7 10  1  0  0  0  0
  8  3  1  0  0  0  0
  9  7  1  0  0  0  0
 10 11  2  0  0  0  0
 11  4  1  0  0  0  0
 12  9  2  0  0  0  0
 13 14  1  0  0  0  0
 13  7  2  0  0  0  0
 14 15  2  0  0  0  0
 15 11  1  0  0  0  0
 16  9  1  0  0  0  0
 17  8  1  0  0  0  0
 18  8  1  0  0  0  0
 19 17  1  0  0  0  0
 20 18  1  0  0  0  0
M  END
> <CdId>
1443

> <Mol Weight>
288.408

> <Formula>
C16H20N2OS

> <Click_ID>
CLK019_E08 __ __ 

$$$$
