CLK007_E04
 OpenBabel03191401532D

 25 27  0  0  0  0  0  0  0  0999 V2000
    4.5375  -17.1167    0.0000 N   0  0  0  0  0  0  0  0  0  0  0  0
    4.6250  -17.9375    0.0000 C   0  0  0  0  0  0  0  0  0  0  0  0
    5.2875  -16.7792    0.0000 C   0  0  0  0  0  0  0  0  0  0  0  0
    5.8417  -17.3917    0.0000 C   0  0  0  0  0  0  0  0  0  0  0  0
    6.9000  -16.4292    0.0000 C   0  0  0  0  0  0  0  0  0  0  0  0
    5.4292  -18.1042    0.0000 N   0  0  0  0  0  0  0  0  0  0  0  0
    6.9000  -15.1000    0.0000 N   0  0  0  0  0  0  0  0  0  0  0  0
    6.6417  -17.2167    0.0000 C   0  0  0  0  0  0  0  0  0  0  0  0
    6.4167  -15.7625    0.0000 C   0  0  0  0  0  0  0  0  0  0  0  0
    7.6792  -16.1792    0.0000 C   0  0  0  0  0  0  0  0  0  0  0  0
    7.6792  -15.3542    0.0000 C   0  0  0  0  0  0  0  0  0  0  0  0
    3.8042  -16.7042    0.0000 C   0  0  0  0  0  0  0  0  0  0  0  0
    5.8417  -14.1375    0.0000 C   0  0  0  0  0  0  0  0  0  0  0  0
    5.0292  -13.9625    0.0000 C   0  0  0  0  0  0  0  0  0  0  0  0
    3.7917  -15.8792    0.0000 C   0  0  0  0  0  0  0  0  0  0  0  0
    4.0125  -18.4875    0.0000 O   0  0  0  0  0  0  0  0  0  0  0  0
    5.4500  -15.9667    0.0000 O   0  0  0  0  0  0  0  0  0  0  0  0
    4.5042  -15.4625    0.0000 O   0  0  0  0  0  0  0  0  0  0  0  0
    6.6417  -14.3125    0.0000 C   0  0  0  0  0  0  0  0  0  0  0  0
    3.0750  -15.4667    0.0000 O   0  0  0  0  0  0  0  0  0  0  0  0
    8.3917  -14.9417    0.0000 C   0  0  0  0  0  0  0  0  0  0  0  0
    8.3917  -16.5917    0.0000 C   0  0  0  0  0  0  0  0  0  0  0  0
    3.0667  -14.6417    0.0000 C   0  0  0  0  0  0  0  0  0  0  0  0
    9.1125  -16.1792    0.0000 C   0  0  0  0  0  0  0  0  0  0  0  0
    9.1125  -15.3542    0.0000 C   0  0  0  0  0  0  0  0  0  0  0  0
  2  1  1  0  0  0  0
  3  1  1  0  0  0  0
  4  3  1  0  0  0  0
  5  8  1  0  0  0  0
  6  2  1  0  0  0  0
  6  4  1  0  0  0  0
  7  9  1  0  0  0  0
  7 11  1  0  0  0  0
  8  4  2  0  0  0  0
  9  5  2  0  0  0  0
 10  5  1  0  0  0  0
 11 10  1  0  0  0  0
 12  1  1  0  0  0  0
 13 19  1  0  0  0  0
 14 13  3  0  0  0  0
 15 12  1  0  0  0  0
 16  2  2  0  0  0  0
 17  3  2  0  0  0  0
 18 15  2  0  0  0  0
 19  7  1  0  0  0  0
 20 15  1  0  0  0  0
 21 11  2  0  0  0  0
 22 10  2  0  0  0  0
 23 20  1  0  0  0  0
 24 22  1  0  0  0  0
 25 24  2  0  0  0  0
 25 21  1  0  0  0  0
M  END
> <CdId>
523

> <Mol Weight>
337.3294

> <Formula>
C18H15N3O4

> <Click_ID>
CLK007_E04 __ __ 

$$$$
