CLK010_F10
 OpenBabel03191401532D

 26 28  0  0  0  0  0  0  0  0999 V2000
    7.0545   -4.0724    0.0000 C    0  0  0  0  0  0  0  0  0  0  0  0
    7.1369   -4.8832    0.0000 C    0  0  0  0  0  0  0  0  0  0  0  0
    7.8103   -3.7379    0.0000 C    0  0  0  0  0  0  0  0  0  0  0  0
    7.9477   -5.0618    0.0000 N    0  0  0  0  0  0  0  0  0  0  0  0
    8.3600   -4.3472    0.0000 C    0  0  0  0  0  0  0  0  0  0  0  0
    6.3398   -3.6601    0.0000 N    0  0  0  0  0  0  0  0  0  0  0  0
    4.1960   -4.0724    0.0000 C    0  0  0  0  0  0  0  0  0  0  0  0
    4.9106   -3.6601    0.0000 C    0  0  0  0  0  0  0  0  0  0  0  0
    5.6252   -4.0724    0.0000 N    0  0  0  0  0  0  0  0  0  0  0  0
    9.1021   -5.9001    0.0000 C    0  0  0  0  0  0  0  0  0  0  0  0
    9.1708   -4.1823    0.0000 C    0  0  0  0  0  0  0  0  0  0  0  0
    9.9266   -5.9917    0.0000 C    0  0  0  0  0  0  0  0  0  0  0  0
    8.0668   -2.9546    0.0000 C    0  0  0  0  0  0  0  0  0  0  0  0
    4.1960   -4.8969    0.0000 C    0  0  0  0  0  0  0  0  0  0  0  0
    6.5322   -5.4420    0.0000 O    0  0  0  0  0  0  0  0  0  0  0  0
    3.4814   -3.6555    0.0000 C    0  0  0  0  0  0  0  0  0  0  0  0
    4.9106   -2.8355    0.0000 O    0  0  0  0  0  0  0  0  0  0  0  0
    8.2866   -5.8176    0.0000 C    0  0  0  0  0  0  0  0  0  0  0  0
    3.4814   -5.3092    0.0000 C    0  0  0  0  0  0  0  0  0  0  0  0
    8.8684   -2.7806    0.0000 C    0  0  0  0  0  0  0  0  0  0  0  0
    2.7668   -4.0724    0.0000 C    0  0  0  0  0  0  0  0  0  0  0  0
    9.4273   -3.3990    0.0000 C    0  0  0  0  0  0  0  0  0  0  0  0
    2.7668   -4.8969    0.0000 C    0  0  0  0  0  0  0  0  0  0  0  0
    4.9106   -5.3092    0.0000 O    0  0  0  0  0  0  0  0  0  0  0  0
    1.9285   -3.5501    0.0000 Cl   0  0  0  0  0  0  0  0  0  0  0  0
    9.1295   -1.9973    0.0000 Br   0  0  0  0  0  0  0  0  0  0  0  0
  2  1  1  0  0  0  0
  3  1  1  0  0  0  0
  4  2  1  0  0  0  0
  5  3  2  0  0  0  0
  5  4  1  0  0  0  0
  6  1  2  0  0  0  0
  7  8  1  0  0  0  0
  8  9  1  0  0  0  0
  9  6  1  0  0  0  0
 10 18  1  0  0  0  0
 11  5  1  0  0  0  0
 12 10  3  0  0  0  0
 13  3  1  0  0  0  0
 14  7  2  0  0  0  0
 15  2  2  0  0  0  0
 16  7  1  0  0  0  0
 17  8  2  0  0  0  0
 18  4  1  0  0  0  0
 19 14  1  0  0  0  0
 19 23  2  0  0  0  0
 20 13  2  0  0  0  0
 21 16  2  0  0  0  0
 22 20  1  0  0  0  0
 22 11  2  0  0  0  0
 23 21  1  0  0  0  0
 24 14  1  0  0  0  0
 25 21  1  0  0  0  0
 26 20  1  0  0  0  0
M  END
> <CdId>
735

> <Mol Weight>
432.655

> <Formula>
C18H11BrClN3O3

> <Click_ID>
CLK010_F10 __ __ 

$$$$
