CLK015_G02
 OpenBabel03191401532D

 27 29  0  0  0  0  0  0  0  0999 V2000
    1.6576   -2.9686    0.0000 C   0  0  0  0  0  0  0  0  0  0  0  0
    0.7683   -3.9582    0.0000 N   0  0  0  0  0  0  0  0  0  0  0  0
    1.5699   -3.7870    0.0000 C   0  0  0  0  0  0  0  0  0  0  0  0
    0.3549   -3.2442    0.0000 N   0  0  0  0  0  0  0  0  0  0  0  0
    0.9061   -2.6304    0.0000 C   0  0  0  0  0  0  0  0  0  0  0  0
    2.3716   -2.5553    0.0000 C   0  0  0  0  0  0  0  0  0  0  0  0
    4.8392   -3.5824    0.0000 C   0  0  0  0  0  0  0  0  0  0  0  0
    4.8392   -2.7474    0.0000 C   0  0  0  0  0  0  0  0  0  0  0  0
    4.1252   -3.9958    0.0000 C   0  0  0  0  0  0  0  0  0  0  0  0
    3.4113   -2.7557    0.0000 C   0  0  0  0  0  0  0  0  0  0  0  0
    6.9937   -3.9958    0.0000 C   0  0  0  0  0  0  0  0  0  0  0  0
    7.7076   -3.5824    0.0000 C   0  0  0  0  0  0  0  0  0  0  0  0
    0.4301   -4.7139    0.0000 C   0  0  0  0  0  0  0  0  0  0  0  0
    2.1837   -4.3382    0.0000 O   0  0  0  0  0  0  0  0  0  0  0  0
    4.1252   -2.3340    0.0000 C   0  0  0  0  0  0  0  0  0  0  0  0
    3.4113   -3.5824    0.0000 C   0  0  0  0  0  0  0  0  0  0  0  0
    0.7307   -1.8205    0.0000 O   0  0  0  0  0  0  0  0  0  0  0  0
    5.5532   -2.3340    0.0000 I   0  0  0  0  0  0  0  0  0  0  0  0
    5.5615   -3.9958    0.0000 O   0  0  0  0  0  0  0  0  0  0  0  0
    4.1210   -4.8267    0.0000 O   0  0  0  0  0  0  0  0  0  0  0  0
    6.2797   -3.5824    0.0000 C   0  0  0  0  0  0  0  0  0  0  0  0
    0.9269   -5.3903    0.0000 C   0  0  0  0  0  0  0  0  0  0  0  0
   -0.3883   -4.8016    0.0000 C   0  0  0  0  0  0  0  0  0  0  0  0
    3.3987   -5.2358    0.0000 C   0  0  0  0  0  0  0  0  0  0  0  0
   -0.7223   -5.5532    0.0000 C   0  0  0  0  0  0  0  0  0  0  0  0
    0.5804   -6.1419    0.0000 C   0  0  0  0  0  0  0  0  0  0  0  0
   -0.2380   -6.2296    0.0000 C   0  0  0  0  0  0  0  0  0  0  0  0
  2  3  1  0  0  0  0
  3  1  1  0  0  0  0
  4  5  1  0  0  0  0
  4  2  1  0  0  0  0
  5  1  1  0  0  0  0
  6  1  2  0  0  0  0
  7  9  2  0  0  0  0
  8 15  2  0  0  0  0
  8  7  1  0  0  0  0
  9 16  1  0  0  0  0
 10  6  1  0  0  0  0
 11 21  1  0  0  0  0
 12 11  3  0  0  0  0
 13  2  1  0  0  0  0
 14  3  2  0  0  0  0
 15 10  1  0  0  0  0
 16 10  2  0  0  0  0
 17  5  2  0  0  0  0
 18  8  1  0  0  0  0
 19  7  1  0  0  0  0
 20  9  1  0  0  0  0
 21 19  1  0  0  0  0
 22 13  1  0  0  0  0
 23 13  2  0  0  0  0
 24 20  1  0  0  0  0
 25 23  1  0  0  0  0
 26 22  2  0  0  0  0
 27 25  2  0  0  0  0
 27 26  1  0  0  0  0
M  END
> <CdId>
1137

> <Mol Weight>
474.2486

> <Formula>
C20H15IN2O4

> <Click_ID>
CLK015_G02 __ __ 

$$$$
