CLK051E05
 OpenBabel03191401532D

 16 16  0  0  0  0  0  0  0  0999 V2000
    0.0875    1.4458    0.0000 C   0  0  0  0  0  0  0  0  0  0  0  0
    1.5167    3.0958    0.0000 C   0  0  0  0  0  0  0  0  0  0  0  0
    2.2292    3.5083    0.0000 C   0  0  0  0  0  0  0  0  0  0  0  0
    0.0875    0.6208    0.0000 N   0  0  0  0  0  0  0  0  0  0  0  0
   -0.6292    1.8583    0.0000 O   0  0  0  0  0  0  0  0  0  0  0  0
    0.8000    1.8583    0.0000 N   0  0  0  0  0  0  0  0  0  0  0  0
   -0.6292    0.2083    0.0000 C   0  0  0  0  0  0  0  0  0  0  0  0
   -0.6292   -0.6167    0.0000 C   0  0  0  0  0  0  0  0  0  0  0  0
   -0.6292   -2.2667    0.0000 C   0  0  0  0  0  0  0  0  0  0  0  0
    0.8000    2.6833    0.0000 C   0  0  0  0  0  0  0  0  0  0  0  0
    0.0875   -1.0292    0.0000 C   0  0  0  0  0  0  0  0  0  0  0  0
   -1.3417   -1.0292    0.0000 C   0  0  0  0  0  0  0  0  0  0  0  0
    0.0875   -1.8542    0.0000 C   0  0  0  0  0  0  0  0  0  0  0  0
   -1.3417   -1.8542    0.0000 C   0  0  0  0  0  0  0  0  0  0  0  0
   -0.6292   -3.0917    0.0000 O   0  0  0  0  0  0  0  0  0  0  0  0
    0.0875   -3.5042    0.0000 C   0  0  0  0  0  0  0  0  0  0  0  0
  2 10  1  0  0  0  0
  3  2  3  0  0  0  0
  4  1  1  0  0  0  0
  5  1  2  0  0  0  0
  6  1  1  0  0  0  0
  7  4  1  0  0  0  0
  8  7  1  0  0  0  0
  9 14  2  0  0  0  0
 10  6  1  0  0  0  0
 11  8  1  0  0  0  0
 12  8  2  0  0  0  0
 13 11  2  0  0  0  0
 13  9  1  0  0  0  0
 14 12  1  0  0  0  0
 15  9  1  0  0  0  0
 16 15  1  0  0  0  0
M  END
> <CdId>
3917

> <Mol Weight>
218.2518

> <Formula>
C12H14N2O2

> <Click_ID>
CLK051E05 __ __ 

$$$$
