CLK040G02
 OpenBabel03191401532D

 23 24  0  0  0  0  0  0  0  0999 V2000
    0.1208    2.2958    0.0000 S   0  0  0  0  0  0  0  0  0  0  0  0
    0.1208   -1.0042    0.0000 C   0  0  0  0  0  0  0  0  0  0  0  0
   -0.5917   -1.4167    0.0000 N   0  0  0  0  0  0  0  0  0  0  0  0
    0.1208    1.4708    0.0000 C   0  0  0  0  0  0  0  0  0  0  0  0
   -0.5917   -2.2417    0.0000 C   0  0  0  0  0  0  0  0  0  0  0  0
   -1.3083   -2.6542    0.0000 N   0  0  0  0  0  0  0  0  0  0  0  0
    0.8375    4.3542    0.0000 C   0  0  0  0  0  0  0  0  0  0  0  0
    0.8375    5.1792    0.0000 C   0  0  0  0  0  0  0  0  0  0  0  0
    0.9458    2.2958    0.0000 O   0  0  0  0  0  0  0  0  0  0  0  0
   -0.7042    2.2958    0.0000 O   0  0  0  0  0  0  0  0  0  0  0  0
    0.1208   -0.1792    0.0000 C   0  0  0  0  0  0  0  0  0  0  0  0
    0.1208    3.1208    0.0000 N   0  0  0  0  0  0  0  0  0  0  0  0
    0.8375   -1.4167    0.0000 O   0  0  0  0  0  0  0  0  0  0  0  0
   -0.5917    1.0583    0.0000 C   0  0  0  0  0  0  0  0  0  0  0  0
    0.8375    1.0583    0.0000 C   0  0  0  0  0  0  0  0  0  0  0  0
   -0.5917    0.2333    0.0000 C   0  0  0  0  0  0  0  0  0  0  0  0
    0.8375    0.2333    0.0000 C   0  0  0  0  0  0  0  0  0  0  0  0
   -1.3083   -3.4792    0.0000 C   0  0  0  0  0  0  0  0  0  0  0  0
    0.1208   -2.6542    0.0000 C   0  0  0  0  0  0  0  0  0  0  0  0
   -0.5917   -3.8917    0.0000 C   0  0  0  0  0  0  0  0  0  0  0  0
    0.8375    3.5333    0.0000 C   0  0  0  0  0  0  0  0  0  0  0  0
    0.1208   -3.4792    0.0000 C   0  0  0  0  0  0  0  0  0  0  0  0
   -0.5917   -4.7167    0.0000 C   0  0  0  0  0  0  0  0  0  0  0  0
  2 11  1  0  0  0  0
  3  2  1  0  0  0  0
  4  1  1  0  0  0  0
  5  3  1  0  0  0  0
  6  5  2  0  0  0  0
  7 21  1  0  0  0  0
  8  7  3  0  0  0  0
  9  1  2  0  0  0  0
 10  1  2  0  0  0  0
 11 16  2  0  0  0  0
 12  1  1  0  0  0  0
 13  2  2  0  0  0  0
 14  4  2  0  0  0  0
 15  4  1  0  0  0  0
 16 14  1  0  0  0  0
 17 15  2  0  0  0  0
 17 11  1  0  0  0  0
 18  6  1  0  0  0  0
 19  5  1  0  0  0  0
 20 18  2  0  0  0  0
 21 12  1  0  0  0  0
 22 19  2  0  0  0  0
 22 20  1  0  0  0  0
 23 20  1  0  0  0  0
M  END
> <CdId>
3015

> <Mol Weight>
329.374

> <Formula>
C16H15N3O3S

> <Click_ID>
CLK040G02 __ __ 

$$$$
