CLK039B10
 OpenBabel03191401532D

 19 20  0  0  0  0  0  0  0  0999 V2000
   -0.0333   -1.8958    0.0000 C   0  0  0  0  0  0  0  0  0  0  0  0
   -0.0333   -1.0708    0.0000 N   0  0  0  0  0  0  0  0  0  0  0  0
   -0.8208   -0.8167    0.0000 C   0  0  0  0  0  0  0  0  0  0  0  0
    0.6792   -0.6583    0.0000 C   0  0  0  0  0  0  0  0  0  0  0  0
   -0.8208   -2.1542    0.0000 N   0  0  0  0  0  0  0  0  0  0  0  0
    0.6792   -2.3083    0.0000 N   0  0  0  0  0  0  0  0  0  0  0  0
   -1.3042   -1.4833    0.0000 N   0  0  0  0  0  0  0  0  0  0  0  0
    1.3958   -1.0708    0.0000 C   0  0  0  0  0  0  0  0  0  0  0  0
    1.3958   -1.8958    0.0000 C   0  0  0  0  0  0  0  0  0  0  0  0
   -1.0750   -0.0333    0.0000 S   0  0  0  0  0  0  0  0  0  0  0  0
    0.0708    3.3750    0.0000 C   0  0  0  0  0  0  0  0  0  0  0  0
    0.6250    3.9875    0.0000 C   0  0  0  0  0  0  0  0  0  0  0  0
   -0.7750    1.3625    0.0000 C   0  0  0  0  0  0  0  0  0  0  0  0
   -1.5833    1.5375    0.0000 O   0  0  0  0  0  0  0  0  0  0  0  0
   -0.5208    0.5792    0.0000 C   0  0  0  0  0  0  0  0  0  0  0  0
   -0.2250    1.9792    0.0000 N   0  0  0  0  0  0  0  0  0  0  0  0
    0.6792    0.1667    0.0000 C   0  0  0  0  0  0  0  0  0  0  0  0
   -0.4792    2.7625    0.0000 C   0  0  0  0  0  0  0  0  0  0  0  0
    2.1083   -2.3083    0.0000 C   0  0  0  0  0  0  0  0  0  0  0  0
  2  1  1  0  0  0  0
  3  2  1  0  0  0  0
  4  2  1  0  0  0  0
  4  8  2  0  0  0  0
  5  1  2  0  0  0  0
  6  1  1  0  0  0  0
  7  5  1  0  0  0  0
  7  3  2  0  0  0  0
  8  9  1  0  0  0  0
  9  6  2  0  0  0  0
 10  3  1  0  0  0  0
 11 18  1  0  0  0  0
 12 11  3  0  0  0  0
 13 15  1  0  0  0  0
 14 13  2  0  0  0  0
 15 10  1  0  0  0  0
 16 13  1  0  0  0  0
 17  4  1  0  0  0  0
 18 16  1  0  0  0  0
 19  9  1  0  0  0  0
M  END
> <CdId>
2994

> <Mol Weight>
275.33

> <Formula>
C12H13N5OS

> <Click_ID>
CLK039B10 __ __ 

$$$$
