CLK013_G03
 OpenBabel03191401532D

 29 31  0  0  0  0  0  0  0  0999 V2000
    5.4085   -2.3381    0.0000 N   0  0  0  0  0  0  0  0  0  0  0  0
    5.2795   -3.1494    0.0000 C   0  0  0  0  0  0  0  0  0  0  0  0
    4.6721   -1.9595    0.0000 C   0  0  0  0  0  0  0  0  0  0  0  0
    4.0855   -2.5461    0.0000 C   0  0  0  0  0  0  0  0  0  0  0  0
    4.4599   -3.2825    0.0000 N   0  0  0  0  0  0  0  0  0  0  0  0
    3.2742   -2.4130    0.0000 C   0  0  0  0  0  0  0  0  0  0  0  0
    6.1449   -1.9637    0.0000 C   0  0  0  0  0  0  0  0  0  0  0  0
    5.8578   -3.7360    0.0000 S   0  0  0  0  0  0  0  0  0  0  0  0
    0.9652   -6.3945    0.0000 C   0  0  0  0  0  0  0  0  0  0  0  0
    0.4493   -7.0310    0.0000 C   0  0  0  0  0  0  0  0  0  0  0  0
    1.4146   -3.5613    0.0000 C   0  0  0  0  0  0  0  0  0  0  0  0
    4.5473   -1.1483    0.0000 O   0  0  0  0  0  0  0  0  0  0  0  0
    2.7500   -3.0496    0.0000 C   0  0  0  0  0  0  0  0  0  0  0  0
    1.9346   -2.9248    0.0000 C   0  0  0  0  0  0  0  0  0  0  0  0
    1.7099   -4.3351    0.0000 C   0  0  0  0  0  0  0  0  0  0  0  0
    6.1823   -1.1400    0.0000 C   0  0  0  0  0  0  0  0  0  0  0  0
    6.8313   -2.4213    0.0000 C   0  0  0  0  0  0  0  0  0  0  0  0
    2.5254   -4.4682    0.0000 C   0  0  0  0  0  0  0  0  0  0  0  0
    3.0496   -3.8234    0.0000 C   0  0  0  0  0  0  0  0  0  0  0  0
    7.6134   -1.2273    0.0000 C   0  0  0  0  0  0  0  0  0  0  0  0
    0.5991   -3.4365    0.0000 O   0  0  0  0  0  0  0  0  0  0  0  0
    7.5635   -2.0511    0.0000 C   0  0  0  0  0  0  0  0  0  0  0  0
    6.9270   -0.7738    0.0000 C   0  0  0  0  0  0  0  0  0  0  0  0
    1.1899   -4.9799    0.0000 O   0  0  0  0  0  0  0  0  0  0  0  0
    1.4852   -5.7455    0.0000 C   0  0  0  0  0  0  0  0  0  0  0  0
    8.3498   -0.8654    0.0000 O   0  0  0  0  0  0  0  0  0  0  0  0
    8.3914   -0.0416    0.0000 C   0  0  0  0  0  0  0  0  0  0  0  0
    0.0791   -4.0730    0.0000 C   0  0  0  0  0  0  0  0  0  0  0  0
    9.1278    0.3328    0.0000 C   0  0  0  0  0  0  0  0  0  0  0  0
  2  1  1  0  0  0  0
  3  1  1  0  0  0  0
  4  3  1  0  0  0  0
  5  2  1  0  0  0  0
  5  4  1  0  0  0  0
  6  4  2  0  0  0  0
  7  1  1  0  0  0  0
  8  2  2  0  0  0  0
  9 25  1  0  0  0  0
 10  9  3  0  0  0  0
 11 14  1  0  0  0  0
 11 15  2  0  0  0  0
 12  3  2  0  0  0  0
 13  6  1  0  0  0  0
 14 13  2  0  0  0  0
 15 18  1  0  0  0  0
 16  7  1  0  0  0  0
 17  7  2  0  0  0  0
 18 19  2  0  0  0  0
 19 13  1  0  0  0  0
 20 22  2  0  0  0  0
 20 23  1  0  0  0  0
 21 11  1  0  0  0  0
 22 17  1  0  0  0  0
 23 16  2  0  0  0  0
 24 15  1  0  0  0  0
 25 24  1  0  0  0  0
 26 20  1  0  0  0  0
 27 26  1  0  0  0  0
 28 21  1  0  0  0  0
 29 27  1  0  0  0  0
M  END
> <CdId>
978

> <Mol Weight>
408.47

> <Formula>
C22H20N2O4S

> <Click_ID>
CLK013_G03 __ __ 

$$$$
