CLK040C02
 OpenBabel03191401532D

 15 15  0  0  0  0  0  0  0  0999 V2000
   -0.0500    0.5792    0.0000 S   0  0  0  0  0  0  0  0  0  0  0  0
   -0.0500   -0.2458    0.0000 C   0  0  0  0  0  0  0  0  0  0  0  0
   -0.7625   -0.6583    0.0000 C   0  0  0  0  0  0  0  0  0  0  0  0
   -0.7625   -1.4833    0.0000 C   0  0  0  0  0  0  0  0  0  0  0  0
    0.6667    2.6417    0.0000 C   0  0  0  0  0  0  0  0  0  0  0  0
    0.6667    3.4667    0.0000 C   0  0  0  0  0  0  0  0  0  0  0  0
   -0.8750    0.5792    0.0000 O   0  0  0  0  0  0  0  0  0  0  0  0
    0.7750    0.5792    0.0000 O   0  0  0  0  0  0  0  0  0  0  0  0
   -0.0500    1.4042    0.0000 N   0  0  0  0  0  0  0  0  0  0  0  0
   -0.0500   -1.8958    0.0000 C   0  0  0  0  0  0  0  0  0  0  0  0
    0.6667   -0.6583    0.0000 C   0  0  0  0  0  0  0  0  0  0  0  0
    0.6667   -1.4833    0.0000 C   0  0  0  0  0  0  0  0  0  0  0  0
   -1.4792   -1.8958    0.0000 F   0  0  0  0  0  0  0  0  0  0  0  0
   -0.0500   -2.7208    0.0000 F   0  0  0  0  0  0  0  0  0  0  0  0
    0.6667    1.8167    0.0000 C   0  0  0  0  0  0  0  0  0  0  0  0
  2  1  1  0  0  0  0
  3  2  2  0  0  0  0
  4  3  1  0  0  0  0
  5 15  1  0  0  0  0
  6  5  3  0  0  0  0
  7  1  2  0  0  0  0
  8  1  2  0  0  0  0
  9  1  1  0  0  0  0
 10  4  2  0  0  0  0
 11  2  1  0  0  0  0
 12 11  2  0  0  0  0
 12 10  1  0  0  0  0
 13  4  1  0  0  0  0
 14 10  1  0  0  0  0
 15  9  1  0  0  0  0
M  END
> <CdId>
3011

> <Mol Weight>
231.219

> <Formula>
C9H7F2NO2S

> <Click_ID>
CLK040C02 __ __ 

$$$$
