CLK043A04
 OpenBabel03191401532D

 27 29  0  0  0  0  0  0  0  0999 V2000
    1.9875   -1.0250    0.0000 S   0  0  0  0  0  0  0  0  0  0  0  0
    1.2083   -1.2958    0.0000 C   0  0  0  0  0  0  0  0  0  0  0  0
   -0.8208   -0.4958    0.0000 C   0  0  0  0  0  0  0  0  0  0  0  0
   -0.6667    0.3125    0.0000 N   0  0  0  0  0  0  0  0  0  0  0  0
    4.1708   -1.0125    0.0000 C   0  0  0  0  0  0  0  0  0  0  0  0
   -0.1958   -1.0333    0.0000 C   0  0  0  0  0  0  0  0  0  0  0  0
    0.5833   -0.7583    0.0000 C   0  0  0  0  0  0  0  0  0  0  0  0
   -1.1417    1.6625    0.0000 C   0  0  0  0  0  0  0  0  0  0  0  0
    4.9500   -0.7417    0.0000 C   0  0  0  0  0  0  0  0  0  0  0  0
    1.7125   -0.2458    0.0000 O   0  0  0  0  0  0  0  0  0  0  0  0
    2.2625   -1.8000    0.0000 O   0  0  0  0  0  0  0  0  0  0  0  0
    2.7667   -0.7500    0.0000 N   0  0  0  0  0  0  0  0  0  0  0  0
   -1.2958    0.8500    0.0000 C   0  0  0  0  0  0  0  0  0  0  0  0
   -1.6000   -0.7708    0.0000 O   0  0  0  0  0  0  0  0  0  0  0  0
   -1.9542    1.5083    0.0000 C   0  0  0  0  0  0  0  0  0  0  0  0
    3.3917   -1.2875    0.0000 C   0  0  0  0  0  0  0  0  0  0  0  0
   -1.1417    2.4875    0.0000 C   0  0  0  0  0  0  0  0  0  0  0  0
   -0.3167    1.6625    0.0000 C   0  0  0  0  0  0  0  0  0  0  0  0
    1.0583   -2.1083    0.0000 C   0  0  0  0  0  0  0  0  0  0  0  0
   -0.3458   -1.8458    0.0000 C   0  0  0  0  0  0  0  0  0  0  0  0
    0.2792   -2.3833    0.0000 C   0  0  0  0  0  0  0  0  0  0  0  0
   -0.3167    2.4875    0.0000 C   0  0  0  0  0  0  0  0  0  0  0  0
   -2.2292    0.7333    0.0000 C   0  0  0  0  0  0  0  0  0  0  0  0
   -2.4917    2.1375    0.0000 C   0  0  0  0  0  0  0  0  0  0  0  0
   -3.3000    1.9833    0.0000 C   0  0  0  0  0  0  0  0  0  0  0  0
   -3.0375    0.5792    0.0000 C   0  0  0  0  0  0  0  0  0  0  0  0
   -3.5750    1.2042    0.0000 C   0  0  0  0  0  0  0  0  0  0  0  0
  2  1  1  0  0  0  0
  3  6  1  0  0  0  0
  4  3  1  0  0  0  0
  5 16  1  0  0  0  0
  6  7  2  0  0  0  0
  7  2  1  0  0  0  0
  8 13  1  0  0  0  0
  9  5  3  0  0  0  0
 10  1  2  0  0  0  0
 11  1  2  0  0  0  0
 12  1  1  0  0  0  0
 13  4  1  0  0  0  0
 14  3  2  0  0  0  0
 15  8  1  0  0  0  0
 16 12  1  0  0  0  0
 17  8  1  0  0  0  0
 18  8  1  0  0  0  0
 19  2  2  0  0  0  0
 20  6  1  0  0  0  0
 21 19  1  0  0  0  0
 21 20  2  0  0  0  0
 22 17  1  0  0  0  0
 22 18  1  0  0  0  0
 23 15  2  0  0  0  0
 24 15  1  0  0  0  0
 25 24  2  0  0  0  0
 26 23  1  0  0  0  0
 27 26  2  0  0  0  0
 27 25  1  0  0  0  0
M  END
> <CdId>
3265

> <Mol Weight>
382.476

> <Formula>
C21H22N2O3S

> <Click_ID>
CLK043A04 __ __ 

$$$$
