CLK028_H02
 OpenBabel03191401532D

 27 28  0  0  0  0  0  0  0  0999 V2000
   -0.3617    0.6165    0.0000 C    0  0  0  0  0  0  0  0  0  0  0  0
   -1.0850    1.0333    0.0000 C    0  0  0  0  0  0  0  0  0  0  0  0
   -1.7980    0.6165    0.0000 N    0  0  0  0  0  0  0  0  0  0  0  0
    0.3479    1.0333    0.0000 C    0  0  0  0  0  0  0  0  0  0  0  0
    2.5042   -0.2067    0.0000 C    0  0  0  0  0  0  0  0  0  0  0  0
   -2.5110    1.0333    0.0000 C    0  0  0  0  0  0  0  0  0  0  0  0
   -3.2309    0.6303    0.0000 C    0  0  0  0  0  0  0  0  0  0  0  0
   -0.3617   -0.2067    0.0000 C    0  0  0  0  0  0  0  0  0  0  0  0
    1.7842   -0.6165    0.0000 C    0  0  0  0  0  0  0  0  0  0  0  0
    2.5042    0.6165    0.0000 C    0  0  0  0  0  0  0  0  0  0  0  0
    1.0678    0.6165    0.0000 C    0  0  0  0  0  0  0  0  0  0  0  0
   -0.3755   -1.0299    0.0000 N    0  0  0  0  0  0  0  0  0  0  0  0
    3.9370   -1.8635    0.0000 C    0  0  0  0  0  0  0  0  0  0  0  0
    4.6501   -2.2768    0.0000 C    0  0  0  0  0  0  0  0  0  0  0  0
    1.0712   -0.2067    0.0000 C    0  0  0  0  0  0  0  0  0  0  0  0
    1.7842    1.0333    0.0000 C    0  0  0  0  0  0  0  0  0  0  0  0
   -1.0850    1.8635    0.0000 O    0  0  0  0  0  0  0  0  0  0  0  0
   -3.9405    1.0333    0.0000 C    0  0  0  0  0  0  0  0  0  0  0  0
    1.7842   -1.4502    0.0000 Br   0  0  0  0  0  0  0  0  0  0  0  0
    3.2172    1.0299    0.0000 Br   0  0  0  0  0  0  0  0  0  0  0  0
    3.2137   -0.6165    0.0000 O    0  0  0  0  0  0  0  0  0  0  0  0
   -4.6535    0.6200    0.0000 Cl   0  0  0  0  0  0  0  0  0  0  0  0
    3.2137   -1.4502    0.0000 C    0  0  0  0  0  0  0  0  0  0  0  0
   -2.5110    1.8669    0.0000 C    0  0  0  0  0  0  0  0  0  0  0  0
   -3.2309   -0.1929    0.0000 C    0  0  0  0  0  0  0  0  0  0  0  0
   -3.2309    2.2802    0.0000 C    0  0  0  0  0  0  0  0  0  0  0  0
   -3.9405    1.8669    0.0000 C    0  0  0  0  0  0  0  0  0  0  0  0
  2  1  1  0  0  0  0
  3  2  1  0  0  0  0
  4  1  2  0  0  0  0
  5 10  2  0  0  0  0
  5  9  1  0  0  0  0
  6  3  1  0  0  0  0
  7  6  1  0  0  0  0
  8  1  1  0  0  0  0
  9 15  2  0  0  0  0
 10 16  1  0  0  0  0
 11  4  1  0  0  0  0
 12  8  3  0  0  0  0
 13 23  1  0  0  0  0
 14 13  3  0  0  0  0
 15 11  1  0  0  0  0
 16 11  2  0  0  0  0
 17  2  2  0  0  0  0
 18  7  2  0  0  0  0
 19  9  1  0  0  0  0
 20 10  1  0  0  0  0
 21  5  1  0  0  0  0
 22 18  1  0  0  0  0
 23 21  1  0  0  0  0
 24  6  2  0  0  0  0
 25  7  1  0  0  0  0
 26 24  1  0  0  0  0
 27 26  2  0  0  0  0
 27 18  1  0  0  0  0
M  END
> <CdId>
2156

> <Mol Weight>
508.59

> <Formula>
C20H13Br2ClN2O2

> <Click_ID>
CLK028_H02 __ __ 

$$$$
