CLK024_A05
 OpenBabel03191401532D

 21 22  0  0  0  0  0  0  0  0999 V2000
   -1.1819   -1.3365    0.0000 N    0  0  0  0  0  0  0  0  0  0  0  0
   -0.9070   -2.1130    0.0000 C    0  0  0  0  0  0  0  0  0  0  0  0
   -0.5360   -0.8384    0.0000 C    0  0  0  0  0  0  0  0  0  0  0  0
    0.1511   -1.3125    0.0000 C    0  0  0  0  0  0  0  0  0  0  0  0
   -0.0825   -2.0992    0.0000 S    0  0  0  0  0  0  0  0  0  0  0  0
    0.8624   -0.8899    0.0000 C    0  0  0  0  0  0  0  0  0  0  0  0
    0.8520    1.5839    0.0000 C    0  0  0  0  0  0  0  0  0  0  0  0
    1.5667    1.1716    0.0000 C    0  0  0  0  0  0  0  0  0  0  0  0
    0.1408    1.1716    0.0000 C    0  0  0  0  0  0  0  0  0  0  0  0
    0.8520   -0.0653    0.0000 C    0  0  0  0  0  0  0  0  0  0  0  0
   -2.0924   -0.1168    0.0000 C    0  0  0  0  0  0  0  0  0  0  0  0
   -2.2814    0.6837    0.0000 C    0  0  0  0  0  0  0  0  0  0  0  0
   -1.3228   -2.8277    0.0000 O    0  0  0  0  0  0  0  0  0  0  0  0
    1.5667    0.3436    0.0000 C    0  0  0  0  0  0  0  0  0  0  0  0
    0.1408    0.3436    0.0000 C    0  0  0  0  0  0  0  0  0  0  0  0
   -0.5463   -0.0138    0.0000 O    0  0  0  0  0  0  0  0  0  0  0  0
   -1.8931   -0.9242    0.0000 C    0  0  0  0  0  0  0  0  0  0  0  0
   -0.5737    1.5839    0.0000 Cl   0  0  0  0  0  0  0  0  0  0  0  0
    2.2779    1.5942    0.0000 Br   0  0  0  0  0  0  0  0  0  0  0  0
    0.8487    2.4085    0.0000 O    0  0  0  0  0  0  0  0  0  0  0  0
    1.5599    2.8311    0.0000 C    0  0  0  0  0  0  0  0  0  0  0  0
  2  1  1  0  0  0  0
  3  1  1  0  0  0  0
  4  3  1  0  0  0  0
  5  2  1  0  0  0  0
  5  4  1  0  0  0  0
  6  4  2  0  0  0  0
  7  9  1  0  0  0  0
  8 14  1  0  0  0  0
  8  7  2  0  0  0  0
  9 15  2  0  0  0  0
 10  6  1  0  0  0  0
 11 17  1  0  0  0  0
 12 11  3  0  0  0  0
 13  2  2  0  0  0  0
 14 10  2  0  0  0  0
 15 10  1  0  0  0  0
 16  3  2  0  0  0  0
 17  1  1  0  0  0  0
 18  9  1  0  0  0  0
 19  8  1  0  0  0  0
 20  7  1  0  0  0  0
 21 20  1  0  0  0  0
M  END
> <CdId>
1780

> <Mol Weight>
386.648

> <Formula>
C14H9BrClNO3S

> <Click_ID>
CLK024_A05 __ __ 

$$$$
