CLK014_B02
 OpenBabel03191401532D

 30 32  0  0  0  0  0  0  0  0999 V2000
    3.1359   -0.2760    0.0000 N    0  0  0  0  0  0  0  0  0  0  0  0
    2.8767    0.5143    0.0000 C    0  0  0  0  0  0  0  0  0  0  0  0
    3.9638   -0.2760    0.0000 C    0  0  0  0  0  0  0  0  0  0  0  0
    4.2188    0.5143    0.0000 C    0  0  0  0  0  0  0  0  0  0  0  0
    3.5498    0.9993    0.0000 S    0  0  0  0  0  0  0  0  0  0  0  0
    5.0091    0.7735    0.0000 C    0  0  0  0  0  0  0  0  0  0  0  0
    2.6467   -0.9450    0.0000 C    0  0  0  0  0  0  0  0  0  0  0  0
    2.9770   -1.6976    0.0000 C    0  0  0  0  0  0  0  0  0  0  0  0
    6.6523    5.0425    0.0000 C    0  0  0  0  0  0  0  0  0  0  0  0
    6.8279    5.8453    0.0000 C    0  0  0  0  0  0  0  0  0  0  0  0
    6.1212    2.6341    0.0000 C    0  0  0  0  0  0  0  0  0  0  0  0
    2.0948    0.7735    0.0000 O    0  0  0  0  0  0  0  0  0  0  0  0
    2.4962   -2.3707    0.0000 N    0  0  0  0  0  0  0  0  0  0  0  0
    4.4446   -0.9450    0.0000 O    0  0  0  0  0  0  0  0  0  0  0  0
    5.1721    1.5763    0.0000 C    0  0  0  0  0  0  0  0  0  0  0  0
    5.9498    1.8271    0.0000 C    0  0  0  0  0  0  0  0  0  0  0  0
    5.5108    3.1818    0.0000 C    0  0  0  0  0  0  0  0  0  0  0  0
    3.8049   -1.7854    0.0000 O    0  0  0  0  0  0  0  0  0  0  0  0
    1.6725   -2.2829    0.0000 C    0  0  0  0  0  0  0  0  0  0  0  0
    4.7331    2.9352    0.0000 C    0  0  0  0  0  0  0  0  0  0  0  0
    6.9032    2.8850    0.0000 Br   0  0  0  0  0  0  0  0  0  0  0  0
    1.3338   -1.5220    0.0000 C    0  0  0  0  0  0  0  0  0  0  0  0
    4.5658    2.1282    0.0000 C    0  0  0  0  0  0  0  0  0  0  0  0
    5.6864    3.9972    0.0000 O    0  0  0  0  0  0  0  0  0  0  0  0
    0.5185   -1.4342    0.0000 C    0  0  0  0  0  0  0  0  0  0  0  0
    6.4725    4.2314    0.0000 C    0  0  0  0  0  0  0  0  0  0  0  0
    0.3638   -2.8599    0.0000 C    0  0  0  0  0  0  0  0  0  0  0  0
    1.1833   -2.9519    0.0000 C    0  0  0  0  0  0  0  0  0  0  0  0
    0.0293   -2.0990    0.0000 C    0  0  0  0  0  0  0  0  0  0  0  0
    0.1798   -0.6774    0.0000 C    0  0  0  0  0  0  0  0  0  0  0  0
  2  1  1  0  0  0  0
  3  1  1  0  0  0  0
  4  3  1  0  0  0  0
  5  2  1  0  0  0  0
  5  4  1  0  0  0  0
  6  4  2  0  0  0  0
  7  1  1  0  0  0  0
  8  7  1  0  0  0  0
  9 26  1  0  0  0  0
 10  9  3  0  0  0  0
 11 16  2  0  0  0  0
 12  2  2  0  0  0  0
 13  8  1  0  0  0  0
 14  3  2  0  0  0  0
 15  6  1  0  0  0  0
 16 15  1  0  0  0  0
 17 20  2  0  0  0  0
 17 11  1  0  0  0  0
 18  8  2  0  0  0  0
 19 13  1  0  0  0  0
 20 23  1  0  0  0  0
 21 11  1  0  0  0  0
 22 19  2  0  0  0  0
 23 15  2  0  0  0  0
 24 17  1  0  0  0  0
 25 22  1  0  0  0  0
 26 24  1  0  0  0  0
 27 28  2  0  0  0  0
 28 19  1  0  0  0  0
 29 27  1  0  0  0  0
 29 25  2  0  0  0  0
 30 25  1  0  0  0  0
M  END
> <CdId>
1007

> <Mol Weight>
485.35

> <Formula>
C22H17BrN2O4S

> <Click_ID>
CLK014_B02 __ __ 

$$$$
