CLK016_C04
 OpenBabel03191401532D

 31 33  0  0  0  0  0  0  0  0999 V2000
    1.5825   -0.8249    0.0000 N    0  0  0  0  0  0  0  0  0  0  0  0
    1.8434   -1.6203    0.0000 C    0  0  0  0  0  0  0  0  0  0  0  0
    2.2600   -0.3325    0.0000 C    0  0  0  0  0  0  0  0  0  0  0  0
    2.9334   -0.8249    0.0000 C    0  0  0  0  0  0  0  0  0  0  0  0
    2.6767   -1.6203    0.0000 S    0  0  0  0  0  0  0  0  0  0  0  0
    3.7288   -0.5682    0.0000 C    0  0  0  0  0  0  0  0  0  0  0  0
    4.2717    1.8517    0.0000 C    0  0  0  0  0  0  0  0  0  0  0  0
    3.4763    1.5908    0.0000 C    0  0  0  0  0  0  0  0  0  0  0  0
    3.9056    0.2356    0.0000 C    0  0  0  0  0  0  0  0  0  0  0  0
    4.8778    1.2962    0.0000 C    0  0  0  0  0  0  0  0  0  0  0  0
    4.4443    2.6514    0.0000 O    0  0  0  0  0  0  0  0  0  0  0  0
    0.6187    0.2483    0.0000 C    0  0  0  0  0  0  0  0  0  0  0  0
    0.3956    1.0563    0.0000 C    0  0  0  0  0  0  0  0  0  0  0  0
    1.3510   -2.2895    0.0000 O    0  0  0  0  0  0  0  0  0  0  0  0
    2.2516    0.5008    0.0000 O    0  0  0  0  0  0  0  0  0  0  0  0
    3.2953    0.7912    0.0000 C    0  0  0  0  0  0  0  0  0  0  0  0
    4.6884    0.4755    0.0000 C    0  0  0  0  0  0  0  0  0  0  0  0
    0.7954   -0.5682    0.0000 C    0  0  0  0  0  0  0  0  0  0  0  0
    6.2666    0.9932    0.0000 C    0  0  0  0  0  0  0  0  0  0  0  0
    7.0494    1.2457    0.0000 C    0  0  0  0  0  0  0  0  0  0  0  0
    5.2313    2.9123    0.0000 C    0  0  0  0  0  0  0  0  0  0  0  0
    5.7573    5.3154    0.0000 C    0  0  0  0  0  0  0  0  0  0  0  0
    2.8703    2.1548    0.0000 O    0  0  0  0  0  0  0  0  0  0  0  0
    5.4081    3.7203    0.0000 C    0  0  0  0  0  0  0  0  0  0  0  0
    5.6606    1.5530    0.0000 C    0  0  0  0  0  0  0  0  0  0  0  0
    5.9341    6.1151    0.0000 Cl   0  0  0  0  0  0  0  0  0  0  0  0
    6.3634    4.7641    0.0000 C    0  0  0  0  0  0  0  0  0  0  0  0
    4.9745    5.0672    0.0000 C    0  0  0  0  0  0  0  0  0  0  0  0
    4.7978    4.2591    0.0000 C    0  0  0  0  0  0  0  0  0  0  0  0
    6.1908    3.9602    0.0000 C    0  0  0  0  0  0  0  0  0  0  0  0
    2.0832    1.9149    0.0000 C    0  0  0  0  0  0  0  0  0  0  0  0
  2  1  1  0  0  0  0
  3  1  1  0  0  0  0
  4  3  1  0  0  0  0
  4  5  1  0  0  0  0
  5  2  1  0  0  0  0
  6  4  2  0  0  0  0
  7 10  1  0  0  0  0
  7  8  2  0  0  0  0
  8 16  1  0  0  0  0
  9  6  1  0  0  0  0
 10 17  2  0  0  0  0
 11  7  1  0  0  0  0
 12 18  1  0  0  0  0
 13 12  3  0  0  0  0
 14  2  2  0  0  0  0
 15  3  2  0  0  0  0
 16  9  2  0  0  0  0
 17  9  1  0  0  0  0
 18  1  1  0  0  0  0
 19 25  1  0  0  0  0
 20 19  2  0  0  0  0
 21 11  1  0  0  0  0
 22 27  1  0  0  0  0
 22 28  2  0  0  0  0
 23  8  1  0  0  0  0
 24 21  1  0  0  0  0
 25 10  1  0  0  0  0
 26 22  1  0  0  0  0
 27 30  2  0  0  0  0
 28 29  1  0  0  0  0
 29 24  2  0  0  0  0
 30 24  1  0  0  0  0
 31 23  1  0  0  0  0
M  END
> <CdId>
1179

> <Mol Weight>
453.938

> <Formula>
C24H20ClNO4S

> <Click_ID>
CLK016_C04 __ __ 

$$$$
