CLK019_B07
 OpenBabel03191401532D

 24 25  0  0  0  0  0  0  0  0999 V2000
    3.4125    0.3833    0.0000 C    0  0  0  0  0  0  0  0  0  0  0  0
    1.2625    2.4333    0.0000 C    0  0  0  0  0  0  0  0  0  0  0  0
    3.4042    1.2083    0.0000 C    0  0  0  0  0  0  0  0  0  0  0  0
    1.9667    2.8375    0.0000 C    0  0  0  0  0  0  0  0  0  0  0  0
    1.2542    1.6083    0.0000 C    0  0  0  0  0  0  0  0  0  0  0  0
    2.6875    1.6125    0.0000 C    0  0  0  0  0  0  0  0  0  0  0  0
    4.1292   -0.0292    0.0000 C    0  0  0  0  0  0  0  0  0  0  0  0
    4.8417   -0.4417    0.0000 N    0  0  0  0  0  0  0  0  0  0  0  0
   -0.1583    4.0875    0.0000 C    0  0  0  0  0  0  0  0  0  0  0  0
   -0.8708    4.5000    0.0000 C    0  0  0  0  0  0  0  0  0  0  0  0
    2.7000   -0.0292    0.0000 C    0  0  0  0  0  0  0  0  0  0  0  0
    2.6917    2.4333    0.0000 C    0  0  0  0  0  0  0  0  0  0  0  0
    1.9750    1.1958    0.0000 C    0  0  0  0  0  0  0  0  0  0  0  0
    2.7000   -0.8667    0.0000 C    0  0  0  0  0  0  0  0  0  0  0  0
    1.9792    0.3750    0.0000 C    0  0  0  0  0  0  0  0  0  0  0  0
    1.9750    3.6708    0.0000 Cl   0  0  0  0  0  0  0  0  0  0  0  0
    0.5417    2.8458    0.0000 O    0  0  0  0  0  0  0  0  0  0  0  0
    1.2667   -0.8667    0.0000 C    0  0  0  0  0  0  0  0  0  0  0  0
    0.5500    1.2000    0.0000 O    0  0  0  0  0  0  0  0  0  0  0  0
    1.2667   -0.0292    0.0000 C    0  0  0  0  0  0  0  0  0  0  0  0
    1.9792   -1.2792    0.0000 C    0  0  0  0  0  0  0  0  0  0  0  0
    0.5542   -1.2792    0.0000 Cl   0  0  0  0  0  0  0  0  0  0  0  0
    0.5542    3.6708    0.0000 C    0  0  0  0  0  0  0  0  0  0  0  0
    0.5500    0.3875    0.0000 C    0  0  0  0  0  0  0  0  0  0  0  0
  2  5  2  0  0  0  0
  3  1  2  0  0  0  0
  4 12  2  0  0  0  0
  4  2  1  0  0  0  0
  5 13  1  0  0  0  0
  6  3  1  0  0  0  0
  7  1  1  0  0  0  0
  8  7  3  0  0  0  0
  9 23  1  0  0  0  0
 10  9  3  0  0  0  0
 11  1  1  0  0  0  0
 12  6  1  0  0  0  0
 13  6  2  0  0  0  0
 14 11  1  0  0  0  0
 15 11  2  0  0  0  0
 16  4  1  0  0  0  0
 17  2  1  0  0  0  0
 18 20  2  0  0  0  0
 19  5  1  0  0  0  0
 20 15  1  0  0  0  0
 21 14  2  0  0  0  0
 21 18  1  0  0  0  0
 22 18  1  0  0  0  0
 23 17  1  0  0  0  0
 24 19  1  0  0  0  0
M  END
> <CdId>
1412

> <Mol Weight>
358.218

> <Formula>
C19H13Cl2NO2

> <Click_ID>
CLK019_B07 __ __ 

$$$$
