CLK016_B06
 OpenBabel03191401532D

 19 20  0  0  0  0  0  0  0  0999 V2000
    1.5551   -0.8107    0.0000 N    0  0  0  0  0  0  0  0  0  0  0  0
    1.8115   -1.5924    0.0000 C    0  0  0  0  0  0  0  0  0  0  0  0
    2.8828   -0.8107    0.0000 C    0  0  0  0  0  0  0  0  0  0  0  0
    2.2210   -0.3268    0.0000 C    0  0  0  0  0  0  0  0  0  0  0  0
    2.6304   -1.5924    0.0000 S    0  0  0  0  0  0  0  0  0  0  0  0
    3.6645   -0.5583    0.0000 C    0  0  0  0  0  0  0  0  0  0  0  0
    3.8382    0.2482    0.0000 C    0  0  0  0  0  0  0  0  0  0  0  0
    4.6281    0.5045    0.0000 C    0  0  0  0  0  0  0  0  0  0  0  0
    0.6080    0.2440    0.0000 C    0  0  0  0  0  0  0  0  0  0  0  0
    0.3888    1.0381    0.0000 C    0  0  0  0  0  0  0  0  0  0  0  0
    4.8018    1.3152    0.0000 C    0  0  0  0  0  0  0  0  0  0  0  0
    1.3276   -2.2500    0.0000 O    0  0  0  0  0  0  0  0  0  0  0  0
    2.2128    0.4921    0.0000 O    0  0  0  0  0  0  0  0  0  0  0  0
    0.7817   -0.5583    0.0000 C    0  0  0  0  0  0  0  0  0  0  0  0
    3.2178    0.8023    0.0000 C    0  0  0  0  0  0  0  0  0  0  0  0
    4.1814    1.8694    0.0000 C    0  0  0  0  0  0  0  0  0  0  0  0
    5.2402   -0.0496    0.0000 Cl   0  0  0  0  0  0  0  0  0  0  0  0
    3.3915    1.6088    0.0000 C    0  0  0  0  0  0  0  0  0  0  0  0
    4.3469    2.6759    0.0000 Cl   0  0  0  0  0  0  0  0  0  0  0  0
  2  1  1  0  0  0  0
  3  4  1  0  0  0  0
  3  5  1  0  0  0  0
  4  1  1  0  0  0  0
  5  2  1  0  0  0  0
  6  3  2  0  0  0  0
  7  6  1  0  0  0  0
  8  7  1  0  0  0  0
  9 14  1  0  0  0  0
 10  9  3  0  0  0  0
 11  8  2  0  0  0  0
 11 16  1  0  0  0  0
 12  2  2  0  0  0  0
 13  4  2  0  0  0  0
 14  1  1  0  0  0  0
 15  7  2  0  0  0  0
 16 18  2  0  0  0  0
 17  8  1  0  0  0  0
 18 15  1  0  0  0  0
 19 16  1  0  0  0  0
M  END
> <CdId>
1171

> <Mol Weight>
312.171

> <Formula>
C13H7Cl2NO2S

> <Click_ID>
CLK016_B06 __ __ 

$$$$
