CLK015_C06
 OpenBabel03191401532D

 21 22  0  0  0  0  0  0  0  0999 V2000
    2.6233   -1.1958    0.0000 N   0  0  0  0  0  0  0  0  0  0  0  0
    3.4508   -1.1958    0.0000 C   0  0  0  0  0  0  0  0  0  0  0  0
    3.0329   -2.4619    0.0000 C   0  0  0  0  0  0  0  0  0  0  0  0
    2.3626   -1.9860    0.0000 C   0  0  0  0  0  0  0  0  0  0  0  0
    3.7032   -1.9860    0.0000 N   0  0  0  0  0  0  0  0  0  0  0  0
    3.0329   -3.2894    0.0000 C   0  0  0  0  0  0  0  0  0  0  0  0
    3.9349   -0.5338    0.0000 S   0  0  0  0  0  0  0  0  0  0  0  0
    7.3526   -4.9445    0.0000 C   0  0  0  0  0  0  0  0  0  0  0  0
    8.0683   -5.3541    0.0000 C   0  0  0  0  0  0  0  0  0  0  0  0
    1.5888   -2.2385    0.0000 O   0  0  0  0  0  0  0  0  0  0  0  0
    2.1392   -0.5338    0.0000 C   0  0  0  0  0  0  0  0  0  0  0  0
    3.7611   -3.7032    0.0000 C   0  0  0  0  0  0  0  0  0  0  0  0
    4.4852   -2.2385    0.0000 C   0  0  0  0  0  0  0  0  0  0  0  0
    5.2010   -4.5348    0.0000 C   0  0  0  0  0  0  0  0  0  0  0  0
    4.4728   -3.2936    0.0000 C   0  0  0  0  0  0  0  0  0  0  0  0
    3.7528   -4.5431    0.0000 C   0  0  0  0  0  0  0  0  0  0  0  0
    5.1886   -3.7032    0.0000 C   0  0  0  0  0  0  0  0  0  0  0  0
    4.4686   -4.9569    0.0000 C   0  0  0  0  0  0  0  0  0  0  0  0
    6.6326   -4.5431    0.0000 C   0  0  0  0  0  0  0  0  0  0  0  0
    5.9127   -4.9527    0.0000 O   0  0  0  0  0  0  0  0  0  0  0  0
    2.4743    0.2193    0.0000 C   0  0  0  0  0  0  0  0  0  0  0  0
  2  1  1  0  0  0  0
  3  4  1  0  0  0  0
  4  1  1  0  0  0  0
  5  2  1  0  0  0  0
  5  3  1  0  0  0  0
  6  3  2  0  0  0  0
  7  2  2  0  0  0  0
  8 19  1  0  0  0  0
  9  8  3  0  0  0  0
 10  4  2  0  0  0  0
 11  1  1  0  0  0  0
 12  6  1  0  0  0  0
 13  5  1  0  0  0  0
 14 18  2  0  0  0  0
 14 17  1  0  0  0  0
 15 12  1  0  0  0  0
 16 12  2  0  0  0  0
 17 15  2  0  0  0  0
 18 16  1  0  0  0  0
 19 20  1  0  0  0  0
 20 14  1  0  0  0  0
 21 11  1  0  0  0  0
M  END
> <CdId>
1101

> <Mol Weight>
300.375

> <Formula>
C16H16N2O2S

> <Click_ID>
CLK015_C06 __ __ 

$$$$
