CLK050B08
 OpenBabel03191401532D

 18 19  0  0  0  0  0  0  0  0999 V2000
    0.0666    1.0738    0.0000 C   0  0  0  0  0  0  0  0  0  0  0  0
    0.0666    0.2497    0.0000 N   0  0  0  0  0  0  0  0  0  0  0  0
   -0.7199   -0.0042    0.0000 C   0  0  0  0  0  0  0  0  0  0  0  0
   -1.2028    0.6617    0.0000 S   0  0  0  0  0  0  0  0  0  0  0  0
   -0.7199    1.3318    0.0000 C   0  0  0  0  0  0  0  0  0  0  0  0
    0.7324    1.5607    0.0000 C   0  0  0  0  0  0  0  0  0  0  0  0
    2.9049    1.3734    0.0000 C   0  0  0  0  0  0  0  0  0  0  0  0
    3.6582    1.0405    0.0000 C   0  0  0  0  0  0  0  0  0  0  0  0
   -0.9739   -0.7865    0.0000 C   0  0  0  0  0  0  0  0  0  0  0  0
    0.6450    2.3806    0.0000 O   0  0  0  0  0  0  0  0  0  0  0  0
    1.4858    1.2236    0.0000 N   0  0  0  0  0  0  0  0  0  0  0  0
   -0.4203   -1.3984    0.0000 C   0  0  0  0  0  0  0  0  0  0  0  0
   -1.7771   -0.9572    0.0000 C   0  0  0  0  0  0  0  0  0  0  0  0
   -0.6742   -2.1849    0.0000 C   0  0  0  0  0  0  0  0  0  0  0  0
   -2.0351   -1.7438    0.0000 C   0  0  0  0  0  0  0  0  0  0  0  0
   -1.4816   -2.3555    0.0000 C   0  0  0  0  0  0  0  0  0  0  0  0
    2.1517    1.7105    0.0000 C   0  0  0  0  0  0  0  0  0  0  0  0
   -1.7355   -3.1381    0.0000 C   0  0  0  0  0  0  0  0  0  0  0  0
  2  1  1  0  0  0  0
  3  2  2  0  0  0  0
  4  5  1  0  0  0  0
  4  3  1  0  0  0  0
  5  1  2  0  0  0  0
  6  1  1  0  0  0  0
  7 17  1  0  0  0  0
  8  7  3  0  0  0  0
  9  3  1  0  0  0  0
 10  6  2  0  0  0  0
 11  6  1  0  0  0  0
 12  9  1  0  0  0  0
 13  9  2  0  0  0  0
 14 12  2  0  0  0  0
 14 16  1  0  0  0  0
 15 13  1  0  0  0  0
 16 15  2  0  0  0  0
 17 11  1  0  0  0  0
 18 16  1  0  0  0  0
M  END
> <CdId>
3858

> <Mol Weight>
256.323

> <Formula>
C14H12N2OS

> <Click_ID>
CLK050B08 __ __ 

$$$$
