CLK032_A07
 OpenBabel03191401532D

 35 38  0  0  0  0  0  0  0  0999 V2000
   -1.1625    2.3833    0.0000 C   0  0  0  0  0  0  0  0  0  0  0  0
    3.3792    3.0708    0.0000 S   0  0  0  0  0  0  0  0  0  0  0  0
   -0.3375    2.3750    0.0000 N   0  0  0  0  0  0  0  0  0  0  0  0
   -1.6458    1.7208    0.0000 N   0  0  0  0  0  0  0  0  0  0  0  0
   -1.6458    3.0500    0.0000 S   0  0  0  0  0  0  0  0  0  0  0  0
   -2.4333    2.7958    0.0000 C   0  0  0  0  0  0  0  0  0  0  0  0
   -2.4333    1.9708    0.0000 C   0  0  0  0  0  0  0  0  0  0  0  0
    0.0750    3.0875    0.0000 C   0  0  0  0  0  0  0  0  0  0  0  0
    3.3750    2.2375    0.0000 N   0  0  0  0  0  0  0  0  0  0  0  0
    2.5542    3.0833    0.0000 C   0  0  0  0  0  0  0  0  0  0  0  0
   -3.1458    3.2083    0.0000 C   0  0  0  0  0  0  0  0  0  0  0  0
   -1.9458    0.3208    0.0000 C   0  0  0  0  0  0  0  0  0  0  0  0
    4.2042    3.0708    0.0000 O   0  0  0  0  0  0  0  0  0  0  0  0
    3.3917    3.9000    0.0000 O   0  0  0  0  0  0  0  0  0  0  0  0
   -2.4958   -0.2917    0.0000 C   0  0  0  0  0  0  0  0  0  0  0  0
   -3.1458    1.5583    0.0000 C   0  0  0  0  0  0  0  0  0  0  0  0
    0.9000    3.0875    0.0000 C   0  0  0  0  0  0  0  0  0  0  0  0
    4.0875    1.8250    0.0000 C   0  0  0  0  0  0  0  0  0  0  0  0
   -0.3375    3.8000    0.0000 O   0  0  0  0  0  0  0  0  0  0  0  0
   -1.3958    0.9333    0.0000 C   0  0  0  0  0  0  0  0  0  0  0  0
    2.1417    3.7958    0.0000 C   0  0  0  0  0  0  0  0  0  0  0  0
    2.1292    2.3625    0.0000 C   0  0  0  0  0  0  0  0  0  0  0  0
    1.3125    3.7958    0.0000 C   0  0  0  0  0  0  0  0  0  0  0  0
    1.3125    2.3708    0.0000 C   0  0  0  0  0  0  0  0  0  0  0  0
   -3.8583    2.7958    0.0000 C   0  0  0  0  0  0  0  0  0  0  0  0
   -3.8583    1.9708    0.0000 C   0  0  0  0  0  0  0  0  0  0  0  0
    4.0875    0.9958    0.0000 C   0  0  0  0  0  0  0  0  0  0  0  0
    2.6542    1.8333    0.0000 C   0  0  0  0  0  0  0  0  0  0  0  0
   -4.5833    3.2125    0.0000 O   0  0  0  0  0  0  0  0  0  0  0  0
    3.3625    0.5875    0.0000 C   0  0  0  0  0  0  0  0  0  0  0  0
    4.8000    0.5833    0.0000 C   0  0  0  0  0  0  0  0  0  0  0  0
   -5.2875    2.8000    0.0000 C   0  0  0  0  0  0  0  0  0  0  0  0
    4.7917   -0.2417    0.0000 C   0  0  0  0  0  0  0  0  0  0  0  0
    3.3542   -0.2417    0.0000 C   0  0  0  0  0  0  0  0  0  0  0  0
    4.0750   -0.6542    0.0000 C   0  0  0  0  0  0  0  0  0  0  0  0
  2 10  1  0  0  0  0
  3  1  2  0  0  0  0
  4  1  1  0  0  0  0
  5  1  1  0  0  0  0
  6  5  1  0  0  0  0
  6  7  2  0  0  0  0
  7  4  1  0  0  0  0
  8  3  1  0  0  0  0
  9  2  1  0  0  0  0
 10 22  2  0  0  0  0
 11  6  1  0  0  0  0
 12 20  1  0  0  0  0
 13  2  2  0  0  0  0
 14  2  2  0  0  0  0
 15 12  3  0  0  0  0
 16  7  1  0  0  0  0
 17  8  1  0  0  0  0
 18  9  1  0  0  0  0
 19  8  2  0  0  0  0
 20  4  1  0  0  0  0
 21 23  2  0  0  0  0
 21 10  1  0  0  0  0
 22 24  1  0  0  0  0
 23 17  1  0  0  0  0
 24 17  2  0  0  0  0
 25 11  2  0  0  0  0
 25 26  1  0  0  0  0
 26 16  2  0  0  0  0
 27 18  1  0  0  0  0
 28  9  1  0  0  0  0
 29 25  1  0  0  0  0
 30 27  2  0  0  0  0
 31 27  1  0  0  0  0
 32 29  1  0  0  0  0
 33 31  2  0  0  0  0
 34 30  1  0  0  0  0
 35 33  1  0  0  0  0
 35 34  2  0  0  0  0
M  END
> <CdId>
2411

> <Mol Weight>
505.609

> <Formula>
C26H23N3O4S2

> <Click_ID>
CLK032_A07 __ __ 

$$$$
