CLK013_E02
 OpenBabel03191401532D

 23 24  0  0  0  0  0  0  0  0999 V2000
    5.8780   -2.9681    0.0000 N    0  0  0  0  0  0  0  0  0  0  0  0
    5.1059   -3.2670    0.0000 C    0  0  0  0  0  0  0  0  0  0  0  0
    5.8324   -2.1462    0.0000 C    0  0  0  0  0  0  0  0  0  0  0  0
    5.0354   -1.9303    0.0000 C    0  0  0  0  0  0  0  0  0  0  0  0
    4.5871   -2.6194    0.0000 S    0  0  0  0  0  0  0  0  0  0  0  0
    4.7490   -1.1624    0.0000 C    0  0  0  0  0  0  0  0  0  0  0  0
    2.2914   -0.7638    0.0000 C    0  0  0  0  0  0  0  0  0  0  0  0
    2.8187   -0.1163    0.0000 C    0  0  0  0  0  0  0  0  0  0  0  0
    2.5945   -1.5318    0.0000 C    0  0  0  0  0  0  0  0  0  0  0  0
    3.9270   -1.0254    0.0000 C    0  0  0  0  0  0  0  0  0  0  0  0
    0.1412   -1.1457    0.0000 C    0  0  0  0  0  0  0  0  0  0  0  0
   -0.6725   -1.0129    0.0000 C    0  0  0  0  0  0  0  0  0  0  0  0
    4.8942   -4.0516    0.0000 O    0  0  0  0  0  0  0  0  0  0  0  0
    3.6364   -0.2491    0.0000 C    0  0  0  0  0  0  0  0  0  0  0  0
    6.4800   -1.6314    0.0000 O    0  0  0  0  0  0  0  0  0  0  0  0
    3.4040   -1.6605    0.0000 C    0  0  0  0  0  0  0  0  0  0  0  0
    6.5672   -3.4164    0.0000 C    0  0  0  0  0  0  0  0  0  0  0  0
    2.5322    0.6559    0.0000 Cl   0  0  0  0  0  0  0  0  0  0  0  0
    1.4737   -0.6269    0.0000 O    0  0  0  0  0  0  0  0  0  0  0  0
    2.0715   -2.1711    0.0000 O    0  0  0  0  0  0  0  0  0  0  0  0
    0.9506   -1.2620    0.0000 C    0  0  0  0  0  0  0  0  0  0  0  0
    2.3662   -2.9432    0.0000 C    0  0  0  0  0  0  0  0  0  0  0  0
    6.5174   -4.2384    0.0000 C    0  0  0  0  0  0  0  0  0  0  0  0
  2  1  1  0  0  0  0
  3  1  1  0  0  0  0
  4  3  1  0  0  0  0
  5  2  1  0  0  0  0
  5  4  1  0  0  0  0
  6  4  2  0  0  0  0
  7  9  1  0  0  0  0
  7  8  2  0  0  0  0
  8 14  1  0  0  0  0
  9 16  2  0  0  0  0
 10  6  1  0  0  0  0
 11 21  1  0  0  0  0
 12 11  3  0  0  0  0
 13  2  2  0  0  0  0
 14 10  2  0  0  0  0
 15  3  2  0  0  0  0
 16 10  1  0  0  0  0
 17  1  1  0  0  0  0
 18  8  1  0  0  0  0
 19  7  1  0  0  0  0
 20  9  1  0  0  0  0
 21 19  1  0  0  0  0
 22 20  1  0  0  0  0
 23 17  1  0  0  0  0
M  END
> <CdId>
957

> <Mol Weight>
351.805

> <Formula>
C16H14ClNO4S

> <Click_ID>
CLK013_E02 __ __ 

$$$$
