CLK023_C06
 OpenBabel03191401532D

 23 25  0  0  0  0  0  0  0  0999 V2000
    2.4134    0.2234    0.0000 N   0  0  0  0  0  0  0  0  0  0  0  0
    2.0971   -0.5191    0.0000 C   0  0  0  0  0  0  0  0  0  0  0  0
    1.0932    0.3610    0.0000 C   0  0  0  0  0  0  0  0  0  0  0  0
    1.7911    0.7700    0.0000 C   0  0  0  0  0  0  0  0  0  0  0  0
    1.2686   -0.4435    0.0000 S   0  0  0  0  0  0  0  0  0  0  0  0
    0.3713    0.7700    0.0000 C   0  0  0  0  0  0  0  0  0  0  0  0
   -2.4546   -0.9214    0.0000 N   0  0  0  0  0  0  0  0  0  0  0  0
   -0.3369    0.3472    0.0000 C   0  0  0  0  0  0  0  0  0  0  0  0
   -1.7430   -0.4985    0.0000 C   0  0  0  0  0  0  0  0  0  0  0  0
    3.4722    1.1826    0.0000 C   0  0  0  0  0  0  0  0  0  0  0  0
   -1.7568    0.3266    0.0000 C   0  0  0  0  0  0  0  0  0  0  0  0
    3.7335    1.9802    0.0000 C   0  0  0  0  0  0  0  0  0  0  0  0
   -1.0588    0.7460    0.0000 C   0  0  0  0  0  0  0  0  0  0  0  0
    2.5406   -1.2308    0.0000 O   0  0  0  0  0  0  0  0  0  0  0  0
    1.8667    1.6054    0.0000 O   0  0  0  0  0  0  0  0  0  0  0  0
    3.2247    0.3988    0.0000 C   0  0  0  0  0  0  0  0  0  0  0  0
   -1.0485   -0.8938    0.0000 C   0  0  0  0  0  0  0  0  0  0  0  0
   -0.3369   -0.4676    0.0000 C   0  0  0  0  0  0  0  0  0  0  0  0
   -3.2281   -0.6360    0.0000 C   0  0  0  0  0  0  0  0  0  0  0  0
   -2.4924   -1.7533    0.0000 C   0  0  0  0  0  0  0  0  0  0  0  0
   -1.0726    1.5814    0.0000 C   0  0  0  0  0  0  0  0  0  0  0  0
   -3.7370   -1.2823    0.0000 C   0  0  0  0  0  0  0  0  0  0  0  0
   -3.2900   -1.9767    0.0000 C   0  0  0  0  0  0  0  0  0  0  0  0
  2  1  1  0  0  0  0
  3  4  1  0  0  0  0
  4  1  1  0  0  0  0
  5  2  1  0  0  0  0
  5  3  1  0  0  0  0
  6  3  2  0  0  0  0
  7  9  1  0  0  0  0
  8  6  1  0  0  0  0
  9 17  1  0  0  0  0
  9 11  2  0  0  0  0
 10 16  1  0  0  0  0
 11 13  1  0  0  0  0
 12 10  3  0  0  0  0
 13  8  2  0  0  0  0
 14  2  2  0  0  0  0
 15  4  2  0  0  0  0
 16  1  1  0  0  0  0
 17 18  2  0  0  0  0
 18  8  1  0  0  0  0
 19  7  1  0  0  0  0
 20  7  1  0  0  0  0
 21 13  1  0  0  0  0
 22 19  1  0  0  0  0
 23 20  1  0  0  0  0
 23 22  1  0  0  0  0
M  END
> <CdId>
1721

> <Mol Weight>
326.413

> <Formula>
C18H18N2O2S

> <Click_ID>
CLK023_C06 __ __ 

$$$$
