CLK043E11
 OpenBabel03191401532D

 27 28  0  0  0  0  0  0  0  0999 V2000
   -0.9792    2.2458    0.0000 C    0  0  0  0  0  0  0  0  0  0  0  0
   -0.2667    1.8333    0.0000 C    0  0  0  0  0  0  0  0  0  0  0  0
   -1.6958    1.8333    0.0000 C    0  0  0  0  0  0  0  0  0  0  0  0
   -0.2667   -0.6417    0.0000 C    0  0  0  0  0  0  0  0  0  0  0  0
    0.4458   -1.8792    0.0000 C    0  0  0  0  0  0  0  0  0  0  0  0
   -0.2667   -1.4667    0.0000 C    0  0  0  0  0  0  0  0  0  0  0  0
   -0.2667    4.3042    0.0000 C    0  0  0  0  0  0  0  0  0  0  0  0
   -0.2667    5.1292    0.0000 C    0  0  0  0  0  0  0  0  0  0  0  0
    0.4458   -2.7042    0.0000 C    0  0  0  0  0  0  0  0  0  0  0  0
    1.1625   -3.1167    0.0000 C    0  0  0  0  0  0  0  0  0  0  0  0
   -0.9792   -0.2292    0.0000 C    0  0  0  0  0  0  0  0  0  0  0  0
   -0.9792    0.5958    0.0000 C    0  0  0  0  0  0  0  0  0  0  0  0
   -0.2667    1.0083    0.0000 C    0  0  0  0  0  0  0  0  0  0  0  0
   -1.6958    1.0083    0.0000 C    0  0  0  0  0  0  0  0  0  0  0  0
    1.8750   -2.7042    0.0000 C    0  0  0  0  0  0  0  0  0  0  0  0
    1.1625   -1.4667    0.0000 C    0  0  0  0  0  0  0  0  0  0  0  0
   -0.9792   -1.8792    0.0000 O    0  0  0  0  0  0  0  0  0  0  0  0
    1.8750   -1.8792    0.0000 C    0  0  0  0  0  0  0  0  0  0  0  0
    0.4458    2.2458    0.0000 Cl   0  0  0  0  0  0  0  0  0  0  0  0
   -0.9792    3.0708    0.0000 O    0  0  0  0  0  0  0  0  0  0  0  0
   -2.4083    2.2458    0.0000 O    0  0  0  0  0  0  0  0  0  0  0  0
    1.1625   -3.9417    0.0000 O    0  0  0  0  0  0  0  0  0  0  0  0
    2.5917   -3.1167    0.0000 O    0  0  0  0  0  0  0  0  0  0  0  0
   -0.2667    3.4833    0.0000 C    0  0  0  0  0  0  0  0  0  0  0  0
   -2.4083    3.0708    0.0000 C    0  0  0  0  0  0  0  0  0  0  0  0
    0.4458   -4.3542    0.0000 C    0  0  0  0  0  0  0  0  0  0  0  0
    3.3042   -2.7042    0.0000 C    0  0  0  0  0  0  0  0  0  0  0  0
  2  1  1  0  0  0  0
  3  1  2  0  0  0  0
  4 11  2  0  0  0  0
  5  6  1  0  0  0  0
  6  4  1  0  0  0  0
  7 24  1  0  0  0  0
  8  7  3  0  0  0  0
  9  5  2  0  0  0  0
 10  9  1  0  0  0  0
 11 12  1  0  0  0  0
 12 14  2  0  0  0  0
 13  2  2  0  0  0  0
 13 12  1  0  0  0  0
 14  3  1  0  0  0  0
 15 10  2  0  0  0  0
 16  5  1  0  0  0  0
 17  6  2  0  0  0  0
 18 16  2  0  0  0  0
 18 15  1  0  0  0  0
 19  2  1  0  0  0  0
 20  1  1  0  0  0  0
 21  3  1  0  0  0  0
 22 10  1  0  0  0  0
 23 15  1  0  0  0  0
 24 20  1  0  0  0  0
 25 21  1  0  0  0  0
 26 22  1  0  0  0  0
 27 23  1  0  0  0  0
M  END
> <CdId>
3325

> <Mol Weight>
386.826

> <Formula>
C21H19ClO5

> <Click_ID>
CLK043E11 __ __ 

$$$$
