CLK028_C03
 OpenBabel03191401532D

 25 26  0  0  0  0  0  0  0  0999 V2000
   -0.3713    0.6050    0.0000 C    0  0  0  0  0  0  0  0  0  0  0  0
   -1.0828    1.0072    0.0000 C    0  0  0  0  0  0  0  0  0  0  0  0
    0.3438    1.0209    0.0000 C    0  0  0  0  0  0  0  0  0  0  0  0
   -0.3678   -0.2200    0.0000 C    0  0  0  0  0  0  0  0  0  0  0  0
   -1.7944    0.5913    0.0000 N    0  0  0  0  0  0  0  0  0  0  0  0
   -0.3541   -1.0416    0.0000 N    0  0  0  0  0  0  0  0  0  0  0  0
    3.9325   -1.8425    0.0000 C    0  0  0  0  0  0  0  0  0  0  0  0
    4.6544   -2.2413    0.0000 C    0  0  0  0  0  0  0  0  0  0  0  0
    1.7806   -0.6153    0.0000 C    0  0  0  0  0  0  0  0  0  0  0  0
    1.0587    0.6084    0.0000 C    0  0  0  0  0  0  0  0  0  0  0  0
   -1.0966    1.8322    0.0000 O    0  0  0  0  0  0  0  0  0  0  0  0
    1.0587   -0.2166    0.0000 C    0  0  0  0  0  0  0  0  0  0  0  0
    2.4922   -0.2063    0.0000 C    0  0  0  0  0  0  0  0  0  0  0  0
    2.4785    0.6291    0.0000 C    0  0  0  0  0  0  0  0  0  0  0  0
   -2.5162    1.0038    0.0000 C    0  0  0  0  0  0  0  0  0  0  0  0
    1.7841   -1.4438    0.0000 Br   0  0  0  0  0  0  0  0  0  0  0  0
    1.7669    1.0313    0.0000 C    0  0  0  0  0  0  0  0  0  0  0  0
   -3.9462    1.8288    0.0000 C    0  0  0  0  0  0  0  0  0  0  0  0
    3.2072   -0.6084    0.0000 O    0  0  0  0  0  0  0  0  0  0  0  0
   -2.5162    1.8322    0.0000 C    0  0  0  0  0  0  0  0  0  0  0  0
   -3.2313    0.5913    0.0000 C    0  0  0  0  0  0  0  0  0  0  0  0
   -3.2313    2.2447    0.0000 C    0  0  0  0  0  0  0  0  0  0  0  0
   -3.9462    1.0038    0.0000 C    0  0  0  0  0  0  0  0  0  0  0  0
    3.2175   -1.4334    0.0000 C    0  0  0  0  0  0  0  0  0  0  0  0
   -4.6578    2.2413    0.0000 C    0  0  0  0  0  0  0  0  0  0  0  0
  2  1  1  0  0  0  0
  3  1  2  0  0  0  0
  4  1  1  0  0  0  0
  5  2  1  0  0  0  0
  6  4  3  0  0  0  0
  7 24  1  0  0  0  0
  8  7  3  0  0  0  0
  9 12  1  0  0  0  0
  9 13  2  0  0  0  0
 10  3  1  0  0  0  0
 11  2  2  0  0  0  0
 12 10  2  0  0  0  0
 13 14  1  0  0  0  0
 14 17  2  0  0  0  0
 15  5  1  0  0  0  0
 16  9  1  0  0  0  0
 17 10  1  0  0  0  0
 18 23  2  0  0  0  0
 19 13  1  0  0  0  0
 20 15  1  0  0  0  0
 21 15  2  0  0  0  0
 22 20  2  0  0  0  0
 22 18  1  0  0  0  0
 23 21  1  0  0  0  0
 24 19  1  0  0  0  0
 25 18  1  0  0  0  0
M  END
> <CdId>
2107

> <Mol Weight>
395.249

> <Formula>
C20H15BrN2O2

> <Click_ID>
CLK028_C03 __ __ 

$$$$
