CLK023_A05
 OpenBabel03191401532D

 30 32  0  0  0  0  0  0  0  0999 V2000
   -0.6772    1.8666    0.0000 N   0  0  0  0  0  0  0  0  0  0  0  0
    0.0241    0.6256    0.0000 C   0  0  0  0  0  0  0  0  0  0  0  0
   -0.6806    1.0416    0.0000 C   0  0  0  0  0  0  0  0  0  0  0  0
    0.0378    2.2825    0.0000 C   0  0  0  0  0  0  0  0  0  0  0  0
    0.7528    1.8631    0.0000 N   0  0  0  0  0  0  0  0  0  0  0  0
    0.7493    1.0347    0.0000 C   0  0  0  0  0  0  0  0  0  0  0  0
    0.0241   -0.1994    0.0000 C   0  0  0  0  0  0  0  0  0  0  0  0
    2.1553   -1.4403    0.0000 C   0  0  0  0  0  0  0  0  0  0  0  0
    1.4403   -1.8425    0.0000 C   0  0  0  0  0  0  0  0  0  0  0  0
    2.1553   -0.6188    0.0000 C   0  0  0  0  0  0  0  0  0  0  0  0
   -1.3957    2.2825    0.0000 C   0  0  0  0  0  0  0  0  0  0  0  0
    0.7357   -0.6153    0.0000 C   0  0  0  0  0  0  0  0  0  0  0  0
    3.5613   -3.1109    0.0000 C   0  0  0  0  0  0  0  0  0  0  0  0
    0.0378    3.1075    0.0000 O   0  0  0  0  0  0  0  0  0  0  0  0
    4.2625   -3.5269    0.0000 C   0  0  0  0  0  0  0  0  0  0  0  0
   -1.4025    0.6359    0.0000 O   0  0  0  0  0  0  0  0  0  0  0  0
    1.4541   -0.2063    0.0000 C   0  0  0  0  0  0  0  0  0  0  0  0
    0.7357   -1.4197    0.0000 C   0  0  0  0  0  0  0  0  0  0  0  0
    1.4644    0.6222    0.0000 O   0  0  0  0  0  0  0  0  0  0  0  0
   -2.1175    1.8666    0.0000 C   0  0  0  0  0  0  0  0  0  0  0  0
   -1.3957    3.1178    0.0000 C   0  0  0  0  0  0  0  0  0  0  0  0
    1.4300   -2.6606    0.0000 I   0  0  0  0  0  0  0  0  0  0  0  0
    2.8807   -0.2269    0.0000 I   0  0  0  0  0  0  0  0  0  0  0  0
    2.8600   -1.8597    0.0000 O   0  0  0  0  0  0  0  0  0  0  0  0
   -2.8325    3.1178    0.0000 C   0  0  0  0  0  0  0  0  0  0  0  0
   -2.1175    3.5269    0.0000 C   0  0  0  0  0  0  0  0  0  0  0  0
   -2.8325    2.2825    0.0000 C   0  0  0  0  0  0  0  0  0  0  0  0
    2.8531   -2.6847    0.0000 C   0  0  0  0  0  0  0  0  0  0  0  0
   -3.5510    3.5269    0.0000 O   0  0  0  0  0  0  0  0  0  0  0  0
   -4.2659    3.1178    0.0000 C   0  0  0  0  0  0  0  0  0  0  0  0
  2  3  1  0  0  0  0
  2  6  1  0  0  0  0
  3  1  1  0  0  0  0
  4  1  1  0  0  0  0
  5  4  1  0  0  0  0
  6  5  1  0  0  0  0
  7  2  2  0  0  0  0
  8  9  1  0  0  0  0
  9 18  2  0  0  0  0
 10 17  1  0  0  0  0
 10  8  2  0  0  0  0
 11  1  1  0  0  0  0
 12  7  1  0  0  0  0
 13 28  1  0  0  0  0
 14  4  2  0  0  0  0
 15 13  3  0  0  0  0
 16  3  2  0  0  0  0
 17 12  2  0  0  0  0
 18 12  1  0  0  0  0
 19  6  2  0  0  0  0
 20 11  1  0  0  0  0
 21 11  2  0  0  0  0
 22  9  1  0  0  0  0
 23 10  1  0  0  0  0
 24  8  1  0  0  0  0
 25 26  2  0  0  0  0
 25 27  1  0  0  0  0
 26 21  1  0  0  0  0
 27 20  2  0  0  0  0
 28 24  1  0  0  0  0
 29 25  1  0  0  0  0
 30 29  1  0  0  0  0
M  END
> <CdId>
1700

> <Mol Weight>
628.1552

> <Formula>
C21H14I2N2O5

> <Click_ID>
CLK023_A05 __ __ 

$$$$
