CLK037C08
 OpenBabel03191401532D

 31 33  0  0  0  0  0  0  0  0999 V2000
   -0.3458    0.8917    0.0000 N    0  0  0  0  0  0  0  0  0  0  0  0
   -1.0625    0.4792    0.0000 C    0  0  0  0  0  0  0  0  0  0  0  0
   -0.3458    1.7167    0.0000 C    0  0  0  0  0  0  0  0  0  0  0  0
   -1.7750    0.8917    0.0000 C    0  0  0  0  0  0  0  0  0  0  0  0
   -1.7750    1.7167    0.0000 C    0  0  0  0  0  0  0  0  0  0  0  0
   -1.0625    2.1292    0.0000 N    0  0  0  0  0  0  0  0  0  0  0  0
    0.3667    0.4792    0.0000 N    0  0  0  0  0  0  0  0  0  0  0  0
   -2.4917    0.4792    0.0000 C    0  0  0  0  0  0  0  0  0  0  0  0
    2.5083   -1.5833    0.0000 C    0  0  0  0  0  0  0  0  0  0  0  0
   -2.4917    2.1292    0.0000 C    0  0  0  0  0  0  0  0  0  0  0  0
    1.7958   -1.9958    0.0000 C    0  0  0  0  0  0  0  0  0  0  0  0
    2.5083   -0.7583    0.0000 C    0  0  0  0  0  0  0  0  0  0  0  0
   -3.2042    0.8917    0.0000 C    0  0  0  0  0  0  0  0  0  0  0  0
   -3.2042    1.7167    0.0000 C    0  0  0  0  0  0  0  0  0  0  0  0
    3.9375   -3.2333    0.0000 C    0  0  0  0  0  0  0  0  0  0  0  0
    4.6542   -3.6458    0.0000 C    0  0  0  0  0  0  0  0  0  0  0  0
    0.3667    2.1292    0.0000 O    0  0  0  0  0  0  0  0  0  0  0  0
   -1.0625   -0.3458    0.0000 O    0  0  0  0  0  0  0  0  0  0  0  0
    0.3667   -0.3458    0.0000 C    0  0  0  0  0  0  0  0  0  0  0  0
    1.0792   -0.7583    0.0000 C    0  0  0  0  0  0  0  0  0  0  0  0
    1.0792   -1.5833    0.0000 C    0  0  0  0  0  0  0  0  0  0  0  0
    1.7958   -0.3458    0.0000 C    0  0  0  0  0  0  0  0  0  0  0  0
    1.7958   -2.8208    0.0000 Cl   0  0  0  0  0  0  0  0  0  0  0  0
    3.2250   -1.9958    0.0000 O    0  0  0  0  0  0  0  0  0  0  0  0
    3.2250   -0.3458    0.0000 O    0  0  0  0  0  0  0  0  0  0  0  0
   -3.9208    0.4792    0.0000 O    0  0  0  0  0  0  0  0  0  0  0  0
   -3.9208    2.1292    0.0000 O    0  0  0  0  0  0  0  0  0  0  0  0
    3.2250   -2.8208    0.0000 C    0  0  0  0  0  0  0  0  0  0  0  0
    3.2250    0.4792    0.0000 C    0  0  0  0  0  0  0  0  0  0  0  0
   -3.9208    2.9542    0.0000 C    0  0  0  0  0  0  0  0  0  0  0  0
   -4.6333    0.8917    0.0000 C    0  0  0  0  0  0  0  0  0  0  0  0
  2  1  1  0  0  0  0
  3  1  1  0  0  0  0
  4  2  1  0  0  0  0
  5  4  2  0  0  0  0
  5  6  1  0  0  0  0
  6  3  1  0  0  0  0
  7  1  1  0  0  0  0
  8  4  1  0  0  0  0
  9 11  1  0  0  0  0
  9 12  2  0  0  0  0
 10  5  1  0  0  0  0
 11 21  2  0  0  0  0
 12 22  1  0  0  0  0
 13  8  2  0  0  0  0
 13 14  1  0  0  0  0
 14 10  2  0  0  0  0
 15 28  1  0  0  0  0
 16 15  3  0  0  0  0
 17  3  2  0  0  0  0
 18  2  2  0  0  0  0
 19  7  2  0  0  0  0
 20 19  1  0  0  0  0
 21 20  1  0  0  0  0
 22 20  2  0  0  0  0
 23 11  1  0  0  0  0
 24  9  1  0  0  0  0
 25 12  1  0  0  0  0
 26 13  1  0  0  0  0
 27 14  1  0  0  0  0
 28 24  1  0  0  0  0
 29 25  1  0  0  0  0
 30 27  1  0  0  0  0
 31 26  1  0  0  0  0
M  END
> <CdId>
2819

> <Mol Weight>
443.837

> <Formula>
C21H18ClN3O6

> <Click_ID>
CLK037C08 __ __ 

$$$$
