CLK041C11
 OpenBabel03191401532D

 23 24  0  0  0  0  0  0  0  0999 V2000
   -1.3708    1.6875    0.0000 S   0  0  0  0  0  0  0  0  0  0  0  0
   -0.6542    1.2750    0.0000 C   0  0  0  0  0  0  0  0  0  0  0  0
    0.0583   -0.7875    0.0000 C   0  0  0  0  0  0  0  0  0  0  0  0
   -2.7958    3.3375    0.0000 C   0  0  0  0  0  0  0  0  0  0  0  0
    0.0583    0.0375    0.0000 C   0  0  0  0  0  0  0  0  0  0  0  0
   -0.6542    0.4500    0.0000 C   0  0  0  0  0  0  0  0  0  0  0  0
   -3.5125    3.7500    0.0000 C   0  0  0  0  0  0  0  0  0  0  0  0
    0.7750   -1.2000    0.0000 N   0  0  0  0  0  0  0  0  0  0  0  0
   -1.7833    0.9750    0.0000 O   0  0  0  0  0  0  0  0  0  0  0  0
   -0.9583    2.4042    0.0000 O   0  0  0  0  0  0  0  0  0  0  0  0
   -2.0833    2.1000    0.0000 N   0  0  0  0  0  0  0  0  0  0  0  0
   -0.6542   -1.2000    0.0000 O   0  0  0  0  0  0  0  0  0  0  0  0
    0.7750   -2.0250    0.0000 C   0  0  0  0  0  0  0  0  0  0  0  0
   -2.0833    2.9250    0.0000 C   0  0  0  0  0  0  0  0  0  0  0  0
    1.4875   -2.4375    0.0000 C   0  0  0  0  0  0  0  0  0  0  0  0
    0.0583    1.6875    0.0000 C   0  0  0  0  0  0  0  0  0  0  0  0
    0.7750    0.4500    0.0000 C   0  0  0  0  0  0  0  0  0  0  0  0
    0.7750    1.2750    0.0000 C   0  0  0  0  0  0  0  0  0  0  0  0
    2.2042   -2.0250    0.0000 C   0  0  0  0  0  0  0  0  0  0  0  0
    1.4875   -3.2625    0.0000 C   0  0  0  0  0  0  0  0  0  0  0  0
    2.2042   -3.6750    0.0000 C   0  0  0  0  0  0  0  0  0  0  0  0
    2.9167   -2.4375    0.0000 C   0  0  0  0  0  0  0  0  0  0  0  0
    2.9167   -3.2625    0.0000 C   0  0  0  0  0  0  0  0  0  0  0  0
  2  1  1  0  0  0  0
  3  5  1  0  0  0  0
  4 14  1  0  0  0  0
  5  6  2  0  0  0  0
  6  2  1  0  0  0  0
  7  4  3  0  0  0  0
  8  3  1  0  0  0  0
  9  1  2  0  0  0  0
 10  1  2  0  0  0  0
 11  1  1  0  0  0  0
 12  3  2  0  0  0  0
 13  8  1  0  0  0  0
 14 11  1  0  0  0  0
 15 13  1  0  0  0  0
 16  2  2  0  0  0  0
 17  5  1  0  0  0  0
 18 16  1  0  0  0  0
 18 17  2  0  0  0  0
 19 15  2  0  0  0  0
 20 15  1  0  0  0  0
 21 20  2  0  0  0  0
 22 19  1  0  0  0  0
 23 22  2  0  0  0  0
 23 21  1  0  0  0  0
M  END
> <CdId>
3163

> <Mol Weight>
328.386

> <Formula>
C17H16N2O3S

> <Click_ID>
CLK041C11 __ __ 

$$$$
