CLK033_E09
 OpenBabel03191401532D

 29 31  0  0  0  0  0  0  0  0999 V2000
   -4.5766    2.5463    0.0000 C   0  0  0  0  0  0  0  0  0  0  0  0
   -0.9943    5.4420    0.0000 S   0  0  0  0  0  0  0  0  0  0  0  0
   -3.8651    2.9665    0.0000 N   0  0  0  0  0  0  0  0  0  0  0  0
   -4.6682    1.7308    0.0000 N   0  0  0  0  0  0  0  0  0  0  0  0
   -5.3130    2.8916    0.0000 S   0  0  0  0  0  0  0  0  0  0  0  0
   -5.4753    1.5685    0.0000 C   0  0  0  0  0  0  0  0  0  0  0  0
   -5.8747    2.2924    0.0000 C   0  0  0  0  0  0  0  0  0  0  0  0
   -3.8651    3.7944    0.0000 C   0  0  0  0  0  0  0  0  0  0  0  0
   -6.6944    2.3049    0.0000 C   0  0  0  0  0  0  0  0  0  0  0  0
   -1.7100    5.0218    0.0000 C   0  0  0  0  0  0  0  0  0  0  0  0
   -0.2704    5.8456    0.0000 N   0  0  0  0  0  0  0  0  0  0  0  0
   -4.2396    0.3495    0.0000 C   0  0  0  0  0  0  0  0  0  0  0  0
   -1.4062    6.1577    0.0000 O   0  0  0  0  0  0  0  0  0  0  0  0
   -0.5824    4.7223    0.0000 O   0  0  0  0  0  0  0  0  0  0  0  0
   -4.4143   -0.4535    0.0000 C   0  0  0  0  0  0  0  0  0  0  0  0
   -5.8997    0.8695    0.0000 C   0  0  0  0  0  0  0  0  0  0  0  0
   -3.1537    4.2063    0.0000 C   0  0  0  0  0  0  0  0  0  0  0  0
   -7.1188    1.5977    0.0000 C   0  0  0  0  0  0  0  0  0  0  0  0
   -4.5891    4.2063    0.0000 O   0  0  0  0  0  0  0  0  0  0  0  0
   -6.7069    0.8820    0.0000 C   0  0  0  0  0  0  0  0  0  0  0  0
   -4.0524    1.1608    0.0000 C   0  0  0  0  0  0  0  0  0  0  0  0
   -2.4339    5.4420    0.0000 C   0  0  0  0  0  0  0  0  0  0  0  0
   -1.7225    4.1980    0.0000 C   0  0  0  0  0  0  0  0  0  0  0  0
   -3.1454    5.0343    0.0000 C   0  0  0  0  0  0  0  0  0  0  0  0
   -2.4339    3.8027    0.0000 C   0  0  0  0  0  0  0  0  0  0  0  0
   -7.0938    3.0289    0.0000 C   0  0  0  0  0  0  0  0  0  0  0  0
   -0.2746    6.6819    0.0000 C   0  0  0  0  0  0  0  0  0  0  0  0
    0.4369    5.4462    0.0000 C   0  0  0  0  0  0  0  0  0  0  0  0
   -7.1063    0.1581    0.0000 C   0  0  0  0  0  0  0  0  0  0  0  0
  2 10  1  0  0  0  0
  3  1  2  0  0  0  0
  4  1  1  0  0  0  0
  5  1  1  0  0  0  0
  6  4  1  0  0  0  0
  7  5  1  0  0  0  0
  7  6  2  0  0  0  0
  8  3  1  0  0  0  0
  9  7  1  0  0  0  0
 10 23  2  0  0  0  0
 10 22  1  0  0  0  0
 11  2  1  0  0  0  0
 12 21  1  0  0  0  0
 13  2  2  0  0  0  0
 14  2  2  0  0  0  0
 15 12  3  0  0  0  0
 16  6  1  0  0  0  0
 17  8  1  0  0  0  0
 18  9  2  0  0  0  0
 19  8  2  0  0  0  0
 20 16  2  0  0  0  0
 20 18  1  0  0  0  0
 21  4  1  0  0  0  0
 22 24  2  0  0  0  0
 23 25  1  0  0  0  0
 24 17  1  0  0  0  0
 25 17  2  0  0  0  0
 26  9  1  0  0  0  0
 27 11  1  0  0  0  0
 28 11  1  0  0  0  0
 29 20  1  0  0  0  0
M  END
> <CdId>
2533

> <Mol Weight>
427.54

> <Formula>
C21H21N3O3S2

> <Click_ID>
CLK033_E09 __ __ 

$$$$
