CLK039C03
 OpenBabel03191401532D

 16 16  0  0  0  0  0  0  0  0999 V2000
   -0.4917    0.4917    0.0000 S   0  0  0  0  0  0  0  0  0  0  0  0
    0.2208    0.0792    0.0000 C   0  0  0  0  0  0  0  0  0  0  0  0
    0.9375   -1.9833    0.0000 C   0  0  0  0  0  0  0  0  0  0  0  0
   -1.9208    2.1417    0.0000 C   0  0  0  0  0  0  0  0  0  0  0  0
    0.9375   -1.1583    0.0000 C   0  0  0  0  0  0  0  0  0  0  0  0
    0.2208   -0.7458    0.0000 C   0  0  0  0  0  0  0  0  0  0  0  0
   -2.6375    2.5542    0.0000 C   0  0  0  0  0  0  0  0  0  0  0  0
   -0.9042   -0.2208    0.0000 O   0  0  0  0  0  0  0  0  0  0  0  0
   -0.0792    1.2083    0.0000 O   0  0  0  0  0  0  0  0  0  0  0  0
   -1.2083    0.9042    0.0000 N   0  0  0  0  0  0  0  0  0  0  0  0
    1.6500   -2.3958    0.0000 O   0  0  0  0  0  0  0  0  0  0  0  0
    0.2208   -2.3958    0.0000 O   0  0  0  0  0  0  0  0  0  0  0  0
   -1.2083    1.7292    0.0000 C   0  0  0  0  0  0  0  0  0  0  0  0
    0.9375    0.4917    0.0000 C   0  0  0  0  0  0  0  0  0  0  0  0
    1.6500   -0.7458    0.0000 C   0  0  0  0  0  0  0  0  0  0  0  0
    1.6500    0.0792    0.0000 C   0  0  0  0  0  0  0  0  0  0  0  0
  2  1  1  0  0  0  0
  3  5  1  0  0  0  0
  4 13  1  0  0  0  0
  5  6  2  0  0  0  0
  6  2  1  0  0  0  0
  7  4  3  0  0  0  0
  8  1  2  0  0  0  0
  9  1  2  0  0  0  0
 10  1  1  0  0  0  0
 11  3  2  0  0  0  0
 12  3  1  0  0  0  0
 13 10  1  0  0  0  0
 14  2  2  0  0  0  0
 15  5  1  0  0  0  0
 16 14  1  0  0  0  0
 16 15  2  0  0  0  0
M  END
> <CdId>
2939

> <Mol Weight>
239.248

> <Formula>
C10H9NO4S

> <Click_ID>
CLK039C03 __ __ 

$$$$
