CLK027_B04
 OpenBabel03191401532D

 33 36  0  0  0  0  0  0  0  0999 V2000
   -4.8194    0.0619    0.0000 N    0  0  0  0  0  0  0  0  0  0  0  0
   -4.4722   -0.6909    0.0000 C    0  0  0  0  0  0  0  0  0  0  0  0
   -3.4959    0.2200    0.0000 C    0  0  0  0  0  0  0  0  0  0  0  0
   -4.2178    0.6222    0.0000 C    0  0  0  0  0  0  0  0  0  0  0  0
   -0.7906   -0.3025    0.0000 N    0  0  0  0  0  0  0  0  0  0  0  0
   -2.0728    0.0860    0.0000 C    0  0  0  0  0  0  0  0  0  0  0  0
   -3.6575   -0.5913    0.0000 S    0  0  0  0  0  0  0  0  0  0  0  0
   -1.2753   -0.9762    0.0000 C    0  0  0  0  0  0  0  0  0  0  0  0
   -1.2856    0.3575    0.0000 C    0  0  0  0  0  0  0  0  0  0  0  0
   -2.7466    0.5740    0.0000 C    0  0  0  0  0  0  0  0  0  0  0  0
   -2.0590   -0.7357    0.0000 C    0  0  0  0  0  0  0  0  0  0  0  0
    0.0344   -0.2922    0.0000 C    0  0  0  0  0  0  0  0  0  0  0  0
   -5.8884    0.9968    0.0000 C    0  0  0  0  0  0  0  0  0  0  0  0
   -6.1978    1.7669    0.0000 C    0  0  0  0  0  0  0  0  0  0  0  0
   -4.8710   -1.4025    0.0000 O    0  0  0  0  0  0  0  0  0  0  0  0
   -4.3244    1.4437    0.0000 O    0  0  0  0  0  0  0  0  0  0  0  0
   -5.6272    0.2200    0.0000 C    0  0  0  0  0  0  0  0  0  0  0  0
    0.4572   -1.0106    0.0000 C    0  0  0  0  0  0  0  0  0  0  0  0
    0.4331    0.4331    0.0000 C    0  0  0  0  0  0  0  0  0  0  0  0
    2.5025   -0.2750    0.0000 O    0  0  0  0  0  0  0  0  0  0  0  0
    1.6775   -0.2887    0.0000 C    0  0  0  0  0  0  0  0  0  0  0  0
    5.3728    0.4572    0.0000 C    0  0  0  0  0  0  0  0  0  0  0  0
   -1.0141   -1.7634    0.0000 C    0  0  0  0  0  0  0  0  0  0  0  0
    3.7297    0.4434    0.0000 C    0  0  0  0  0  0  0  0  0  0  0  0
   -1.0416    1.1447    0.0000 C    0  0  0  0  0  0  0  0  0  0  0  0
    2.9047    0.4434    0.0000 C    0  0  0  0  0  0  0  0  0  0  0  0
    1.2719   -0.9968    0.0000 C    0  0  0  0  0  0  0  0  0  0  0  0
    1.2581    0.4331    0.0000 C    0  0  0  0  0  0  0  0  0  0  0  0
    6.1978    0.4572    0.0000 Cl   0  0  0  0  0  0  0  0  0  0  0  0
    4.9638   -0.2543    0.0000 C    0  0  0  0  0  0  0  0  0  0  0  0
    4.9603    1.1688    0.0000 C    0  0  0  0  0  0  0  0  0  0  0  0
    4.1285    1.1585    0.0000 C    0  0  0  0  0  0  0  0  0  0  0  0
    4.1491   -0.2681    0.0000 C    0  0  0  0  0  0  0  0  0  0  0  0
  2  1  1  0  0  0  0
  3  4  1  0  0  0  0
  4  1  1  0  0  0  0
  5  9  1  0  0  0  0
  6 10  1  0  0  0  0
  7  2  1  0  0  0  0
  7  3  1  0  0  0  0
  8 11  2  0  0  0  0
  8  5  1  0  0  0  0
  9  6  2  0  0  0  0
 10  3  2  0  0  0  0
 11  6  1  0  0  0  0
 12  5  1  0  0  0  0
 13 17  1  0  0  0  0
 14 13  3  0  0  0  0
 15  2  2  0  0  0  0
 16  4  2  0  0  0  0
 17  1  1  0  0  0  0
 18 12  2  0  0  0  0
 19 12  1  0  0  0  0
 20 21  1  0  0  0  0
 21 28  1  0  0  0  0
 22 30  2  0  0  0  0
 23  8  1  0  0  0  0
 24 26  1  0  0  0  0
 25  9  1  0  0  0  0
 26 20  1  0  0  0  0
 27 18  1  0  0  0  0
 27 21  2  0  0  0  0
 28 19  2  0  0  0  0
 29 22  1  0  0  0  0
 30 33  1  0  0  0  0
 31 32  2  0  0  0  0
 31 22  1  0  0  0  0
 32 24  1  0  0  0  0
 33 24  2  0  0  0  0
M  END
> <CdId>
2028

> <Mol Weight>
476.975

> <Formula>
C26H21ClN2O3S

> <Click_ID>
CLK027_B04 __ __ 

$$$$
