CLK018_G06
 OpenBabel03191401532D

 24 25  0  0  0  0  0  0  0  0999 V2000
   -0.2097    0.6256    0.0000 C   0  0  0  0  0  0  0  0  0  0  0  0
   -0.6291   -0.0979    0.0000 N   0  0  0  0  0  0  0  0  0  0  0  0
   -1.4679   -0.0979    0.0000 C   0  0  0  0  0  0  0  0  0  0  0  0
    0.6117    0.6046    0.0000 C   0  0  0  0  0  0  0  0  0  0  0  0
   -0.6291    1.3421    0.0000 C   0  0  0  0  0  0  0  0  0  0  0  0
   -0.1852    2.0132    0.0000 C   0  0  0  0  0  0  0  0  0  0  0  0
   -0.5837    2.6947    0.0000 C   0  0  0  0  0  0  0  0  0  0  0  0
   -1.8629    0.2481    0.0000 O   0  0  0  0  0  0  0  0  0  0  0  0
   -1.8874   -0.8214    0.0000 C   0  0  0  0  0  0  0  0  0  0  0  0
    1.0101   -0.1153    0.0000 O   0  0  0  0  0  0  0  0  0  0  0  0
   -1.4539    1.3421    0.0000 C   0  0  0  0  0  0  0  0  0  0  0  0
    1.0101    1.3281    0.0000 O   0  0  0  0  0  0  0  0  0  0  0  0
   -3.1141    1.3421    0.0000 C   0  0  0  0  0  0  0  0  0  0  0  0
   -1.7895    0.8074    0.0000 C   0  0  0  0  0  0  0  0  0  0  0  0
   -1.8733    2.0656    0.0000 C   0  0  0  0  0  0  0  0  0  0  0  0
   -2.6947    2.0656    0.0000 C   0  0  0  0  0  0  0  0  0  0  0  0
   -2.6283    0.8248    0.0000 C   0  0  0  0  0  0  0  0  0  0  0  0
    0.6117    2.0132    0.0000 C   0  0  0  0  0  0  0  0  0  0  0  0
   -1.4854   -1.5239    0.0000 C   0  0  0  0  0  0  0  0  0  0  0  0
   -2.7262   -0.8214    0.0000 C   0  0  0  0  0  0  0  0  0  0  0  0
   -3.9389    1.1744    0.0000 C   0  0  0  0  0  0  0  0  0  0  0  0
   -1.8874   -2.2474    0.0000 C   0  0  0  0  0  0  0  0  0  0  0  0
   -3.1316   -1.5239    0.0000 C   0  0  0  0  0  0  0  0  0  0  0  0
   -2.7122   -2.2648    0.0000 C   0  0  0  0  0  0  0  0  0  0  0  0
  2  1  1  0  0  0  0
  3  2  1  0  0  0  0
  4  1  1  0  0  0  0
  5  1  2  0  0  0  0
  6 18  1  0  0  0  0
  7  6  3  0  0  0  0
  8  3  2  0  0  0  0
  9  3  1  0  0  0  0
 10  4  2  0  0  0  0
 11  5  1  0  0  0  0
 12  4  1  0  0  0  0
 13 16  2  0  0  0  0
 14 11  1  0  0  0  0
 15 11  2  0  0  0  0
 16 15  1  0  0  0  0
 17 14  2  0  0  0  0
 17 13  1  0  0  0  0
 18 12  1  0  0  0  0
 19  9  1  0  0  0  0
 20  9  2  0  0  0  0
 21 13  1  0  0  0  0
 22 19  2  0  0  0  0
 22 24  1  0  0  0  0
 23 20  1  0  0  0  0
 24 23  2  0  0  0  0
M  END
> <CdId>
1381

> <Mol Weight>
319.3539

> <Formula>
C20H17NO3

> <Click_ID>
CLK018_G06 __ __ 

$$$$
