CLK051H04
 OpenBabel03191401532D

 15 15  0  0  0  0  0  0  0  0999 V2000
   -1.0042   -0.3542    0.0000 C    0  0  0  0  0  0  0  0  0  0  0  0
   -3.1458    0.0583    0.0000 C    0  0  0  0  0  0  0  0  0  0  0  0
   -3.8583    0.4708    0.0000 C    0  0  0  0  0  0  0  0  0  0  0  0
    1.1417    0.0583    0.0000 C    0  0  0  0  0  0  0  0  0  0  0  0
   -0.2875    0.0583    0.0000 N    0  0  0  0  0  0  0  0  0  0  0  0
   -1.0042   -1.1792    0.0000 O    0  0  0  0  0  0  0  0  0  0  0  0
    0.4250   -0.3542    0.0000 C    0  0  0  0  0  0  0  0  0  0  0  0
    1.8542   -0.3542    0.0000 C    0  0  0  0  0  0  0  0  0  0  0  0
   -1.7167    0.0583    0.0000 N    0  0  0  0  0  0  0  0  0  0  0  0
    1.8542   -1.1792    0.0000 Cl   0  0  0  0  0  0  0  0  0  0  0  0
   -2.4333   -0.3542    0.0000 C    0  0  0  0  0  0  0  0  0  0  0  0
    1.1417    0.8833    0.0000 C    0  0  0  0  0  0  0  0  0  0  0  0
    2.5708    0.0583    0.0000 C    0  0  0  0  0  0  0  0  0  0  0  0
    1.8542    1.2958    0.0000 C    0  0  0  0  0  0  0  0  0  0  0  0
    2.5708    0.8833    0.0000 C    0  0  0  0  0  0  0  0  0  0  0  0
  2 11  1  0  0  0  0
  3  2  3  0  0  0  0
  4  7  1  0  0  0  0
  5  1  1  0  0  0  0
  6  1  2  0  0  0  0
  7  5  1  0  0  0  0
  8  4  2  0  0  0  0
  9  1  1  0  0  0  0
 10  8  1  0  0  0  0
 11  9  1  0  0  0  0
 12  4  1  0  0  0  0
 13  8  1  0  0  0  0
 14 12  2  0  0  0  0
 14 15  1  0  0  0  0
 15 13  2  0  0  0  0
M  END
> <CdId>
3912

> <Mol Weight>
222.671

> <Formula>
C11H11ClN2O

> <Click_ID>
CLK051H04 __ __ 

$$$$
