CLK027_A09
 OpenBabel03191401532D

 27 29  0  0  0  0  0  0  0  0999 V2000
   -1.9951   -0.0241    0.0000 C    0  0  0  0  0  0  0  0  0  0  0  0
   -2.1087    0.7878    0.0000 N    0  0  0  0  0  0  0  0  0  0  0  0
   -0.7981    0.5538    0.0000 C    0  0  0  0  0  0  0  0  0  0  0  0
   -1.3725    1.1523    0.0000 C    0  0  0  0  0  0  0  0  0  0  0  0
   -1.1833   -0.1651    0.0000 S    0  0  0  0  0  0  0  0  0  0  0  0
   -0.0035    0.7636    0.0000 C    0  0  0  0  0  0  0  0  0  0  0  0
    0.5744    0.1754    0.0000 C    0  0  0  0  0  0  0  0  0  0  0  0
   -2.5971   -0.5882    0.0000 N    0  0  0  0  0  0  0  0  0  0  0  0
    1.3690    0.3887    0.0000 C    0  0  0  0  0  0  0  0  0  0  0  0
    1.9504   -0.1995    0.0000 C    0  0  0  0  0  0  0  0  0  0  0  0
    1.7372   -0.9872    0.0000 C    0  0  0  0  0  0  0  0  0  0  0  0
    2.6040    2.2049    0.0000 C    0  0  0  0  0  0  0  0  0  0  0  0
    2.8241    2.9995    0.0000 C    0  0  0  0  0  0  0  0  0  0  0  0
    0.3543   -0.6226    0.0000 C    0  0  0  0  0  0  0  0  0  0  0  0
    0.9356   -1.2039    0.0000 C    0  0  0  0  0  0  0  0  0  0  0  0
   -1.2452    1.9676    0.0000 O    0  0  0  0  0  0  0  0  0  0  0  0
   -2.4010   -1.3931    0.0000 C    0  0  0  0  0  0  0  0  0  0  0  0
    2.7622   -0.0103    0.0000 O    0  0  0  0  0  0  0  0  0  0  0  0
    1.5892    1.1902    0.0000 O    0  0  0  0  0  0  0  0  0  0  0  0
    0.7120   -2.0055    0.0000 Br   0  0  0  0  0  0  0  0  0  0  0  0
    2.3907    1.4035    0.0000 C    0  0  0  0  0  0  0  0  0  0  0  0
   -3.0030   -1.9572    0.0000 C    0  0  0  0  0  0  0  0  0  0  0  0
   -1.6099   -1.6305    0.0000 C    0  0  0  0  0  0  0  0  0  0  0  0
    2.9995    0.7878    0.0000 C    0  0  0  0  0  0  0  0  0  0  0  0
   -2.8172   -2.7450    0.0000 C    0  0  0  0  0  0  0  0  0  0  0  0
   -1.4206   -2.4319    0.0000 C    0  0  0  0  0  0  0  0  0  0  0  0
   -2.0226   -2.9961    0.0000 C    0  0  0  0  0  0  0  0  0  0  0  0
  2  1  1  0  0  0  0
  3  5  1  0  0  0  0
  4  2  1  0  0  0  0
  4  3  1  0  0  0  0
  5  1  1  0  0  0  0
  6  3  2  0  0  0  0
  7  6  1  0  0  0  0
  8  1  2  0  0  0  0
  9  7  2  0  0  0  0
 10  9  1  0  0  0  0
 11 15  1  0  0  0  0
 11 10  2  0  0  0  0
 12 21  1  0  0  0  0
 13 12  3  0  0  0  0
 14  7  1  0  0  0  0
 15 14  2  0  0  0  0
 16  4  2  0  0  0  0
 17  8  1  0  0  0  0
 18 10  1  0  0  0  0
 19  9  1  0  0  0  0
 20 15  1  0  0  0  0
 21 19  1  0  0  0  0
 22 17  2  0  0  0  0
 23 17  1  0  0  0  0
 24 18  1  0  0  0  0
 25 22  1  0  0  0  0
 26 23  2  0  0  0  0
 27 26  1  0  0  0  0
 27 25  2  0  0  0  0
M  END
> <CdId>
2024

> <Mol Weight>
443.314

> <Formula>
C20H15BrN2O3S

> <Click_ID>
CLK027_A09 __ __ 

$$$$
