CLK044E08
 OpenBabel03191401532D

 20 21  0  0  0  0  0  0  0  0999 V2000
    2.0083   -0.5333    0.0000 C   0  0  0  0  0  0  0  0  0  0  0  0
    3.2750   -0.9458    0.0000 N   0  0  0  0  0  0  0  0  0  0  0  0
    3.2750   -0.1208    0.0000 O   0  0  0  0  0  0  0  0  0  0  0  0
    2.4917    0.1333    0.0000 C   0  0  0  0  0  0  0  0  0  0  0  0
    2.4917   -1.2000    0.0000 C   0  0  0  0  0  0  0  0  0  0  0  0
   -2.9417   -0.5333    0.0000 C   0  0  0  0  0  0  0  0  0  0  0  0
    1.1833   -0.5333    0.0000 C   0  0  0  0  0  0  0  0  0  0  0  0
   -3.3542   -1.2500    0.0000 C   0  0  0  0  0  0  0  0  0  0  0  0
   -0.0542    0.1792    0.0000 C   0  0  0  0  0  0  0  0  0  0  0  0
   -0.4667    0.8958    0.0000 N   0  0  0  0  0  0  0  0  0  0  0  0
   -1.2917    0.8958    0.0000 C   0  0  0  0  0  0  0  0  0  0  0  0
   -0.4667   -0.5333    0.0000 O   0  0  0  0  0  0  0  0  0  0  0  0
    0.7708    0.1792    0.0000 C   0  0  0  0  0  0  0  0  0  0  0  0
   -2.5292    0.1792    0.0000 C   0  0  0  0  0  0  0  0  0  0  0  0
   -1.7042    0.1792    0.0000 C   0  0  0  0  0  0  0  0  0  0  0  0
    2.2375    0.9167    0.0000 C   0  0  0  0  0  0  0  0  0  0  0  0
    2.2375   -1.9875    0.0000 C   0  0  0  0  0  0  0  0  0  0  0  0
   -2.5292    1.6083    0.0000 C   0  0  0  0  0  0  0  0  0  0  0  0
   -1.7042    1.6083    0.0000 C   0  0  0  0  0  0  0  0  0  0  0  0
   -2.9417    0.8958    0.0000 C   0  0  0  0  0  0  0  0  0  0  0  0
  2  5  2  0  0  0  0
  3  4  1  0  0  0  0
  3  2  1  0  0  0  0
  4  1  2  0  0  0  0
  5  1  1  0  0  0  0
  6 14  1  0  0  0  0
  7  1  1  0  0  0  0
  8  6  3  0  0  0  0
  9 13  1  0  0  0  0
 10  9  1  0  0  0  0
 11 10  1  0  0  0  0
 12  9  2  0  0  0  0
 13  7  1  0  0  0  0
 14 15  1  0  0  0  0
 15 11  2  0  0  0  0
 16  4  1  0  0  0  0
 17  5  1  0  0  0  0
 18 19  2  0  0  0  0
 19 11  1  0  0  0  0
 20 14  2  0  0  0  0
 20 18  1  0  0  0  0
M  END
> <CdId>
3381

> <Mol Weight>
268.3104

> <Formula>
C16H16N2O2

> <Click_ID>
CLK044E08 __ __ 

$$$$
