CLK044B03
 OpenBabel03191401532D

 20 21  0  0  0  0  0  0  0  0999 V2000
   -2.3583   -1.8958    0.0000 C   0  0  0  0  0  0  0  0  0  0  0  0
   -2.3583   -2.7208    0.0000 C   0  0  0  0  0  0  0  0  0  0  0  0
   -0.2167    0.1667    0.0000 C   0  0  0  0  0  0  0  0  0  0  0  0
   -0.9292    0.5792    0.0000 N   0  0  0  0  0  0  0  0  0  0  0  0
    1.2125    0.1667    0.0000 O   0  0  0  0  0  0  0  0  0  0  0  0
    1.9250    0.5792    0.0000 C   0  0  0  0  0  0  0  0  0  0  0  0
   -1.6458    0.1667    0.0000 C   0  0  0  0  0  0  0  0  0  0  0  0
   -0.2167   -0.6583    0.0000 O   0  0  0  0  0  0  0  0  0  0  0  0
    2.6417    0.1667    0.0000 C   0  0  0  0  0  0  0  0  0  0  0  0
   -2.3583   -1.0708    0.0000 C   0  0  0  0  0  0  0  0  0  0  0  0
    0.5000    0.5792    0.0000 C   0  0  0  0  0  0  0  0  0  0  0  0
   -1.6458   -0.6583    0.0000 C   0  0  0  0  0  0  0  0  0  0  0  0
   -3.0750    0.1667    0.0000 C   0  0  0  0  0  0  0  0  0  0  0  0
   -2.3583    0.5792    0.0000 C   0  0  0  0  0  0  0  0  0  0  0  0
    1.9250    1.4042    0.0000 C   0  0  0  0  0  0  0  0  0  0  0  0
    2.6417   -0.6583    0.0000 C   0  0  0  0  0  0  0  0  0  0  0  0
   -3.0750   -0.6583    0.0000 C   0  0  0  0  0  0  0  0  0  0  0  0
    3.3542    0.5792    0.0000 C   0  0  0  0  0  0  0  0  0  0  0  0
    2.6417    1.8167    0.0000 C   0  0  0  0  0  0  0  0  0  0  0  0
    3.3542    1.4042    0.0000 C   0  0  0  0  0  0  0  0  0  0  0  0
  2  1  3  0  0  0  0
  3  4  1  0  0  0  0
  4  7  1  0  0  0  0
  5 11  1  0  0  0  0
  6  5  1  0  0  0  0
  7 12  2  0  0  0  0
  8  3  2  0  0  0  0
  9  6  2  0  0  0  0
 10  1  1  0  0  0  0
 11  3  1  0  0  0  0
 12 10  1  0  0  0  0
 13 17  1  0  0  0  0
 13 14  2  0  0  0  0
 14  7  1  0  0  0  0
 15  6  1  0  0  0  0
 16  9  1  0  0  0  0
 17 10  2  0  0  0  0
 18  9  1  0  0  0  0
 19 15  2  0  0  0  0
 19 20  1  0  0  0  0
 20 18  2  0  0  0  0
M  END
> <CdId>
3338

> <Mol Weight>
265.3065

> <Formula>
C17H15NO2

> <Click_ID>
CLK044B03 __ __ 

$$$$
