CLK027_G08
 OpenBabel03191401532D

 28 30  0  0  0  0  0  0  0  0999 V2000
   -1.8696   -0.1684    0.0000 N    0  0  0  0  0  0  0  0  0  0  0  0
   -2.1582    0.5980    0.0000 C    0  0  0  0  0  0  0  0  0  0  0  0
   -1.0481   -0.1375    0.0000 C    0  0  0  0  0  0  0  0  0  0  0  0
   -0.8248    0.6564    0.0000 C    0  0  0  0  0  0  0  0  0  0  0  0
   -1.5121    1.1100    0.0000 S    0  0  0  0  0  0  0  0  0  0  0  0
   -0.0344    0.8557    0.0000 C    0  0  0  0  0  0  0  0  0  0  0  0
    0.5396    0.2749    0.0000 C    0  0  0  0  0  0  0  0  0  0  0  0
    1.3334    0.4846    0.0000 C    0  0  0  0  0  0  0  0  0  0  0  0
    1.9108   -0.0996    0.0000 C    0  0  0  0  0  0  0  0  0  0  0  0
   -2.3300   -0.8660    0.0000 C    0  0  0  0  0  0  0  0  0  0  0  0
    1.6977   -0.8763    0.0000 C    0  0  0  0  0  0  0  0  0  0  0  0
    2.5603    2.2923    0.0000 C    0  0  0  0  0  0  0  0  0  0  0  0
    2.7802    3.0895    0.0000 C    0  0  0  0  0  0  0  0  0  0  0  0
   -2.9589    0.8179    0.0000 O    0  0  0  0  0  0  0  0  0  0  0  0
    0.3231   -0.5155    0.0000 C    0  0  0  0  0  0  0  0  0  0  0  0
   -0.5396   -0.7904    0.0000 O    0  0  0  0  0  0  0  0  0  0  0  0
    0.9004   -1.1032    0.0000 C    0  0  0  0  0  0  0  0  0  0  0  0
    2.7183    0.0963    0.0000 O    0  0  0  0  0  0  0  0  0  0  0  0
    1.5499    1.2853    0.0000 O    0  0  0  0  0  0  0  0  0  0  0  0
    0.6770   -1.9005    0.0000 Br   0  0  0  0  0  0  0  0  0  0  0  0
   -1.9554   -1.6015    0.0000 C    0  0  0  0  0  0  0  0  0  0  0  0
    2.3472    1.4949    0.0000 C    0  0  0  0  0  0  0  0  0  0  0  0
    2.9555    0.8798    0.0000 C    0  0  0  0  0  0  0  0  0  0  0  0
   -1.1341   -1.6496    0.0000 C    0  0  0  0  0  0  0  0  0  0  0  0
   -2.4160   -2.2956    0.0000 C    0  0  0  0  0  0  0  0  0  0  0  0
   -0.7629   -2.3884    0.0000 C    0  0  0  0  0  0  0  0  0  0  0  0
   -2.0482   -3.0346    0.0000 C    0  0  0  0  0  0  0  0  0  0  0  0
   -1.2200   -3.0861    0.0000 C    0  0  0  0  0  0  0  0  0  0  0  0
  2  1  1  0  0  0  0
  3  1  1  0  0  0  0
  4  3  1  0  0  0  0
  4  5  1  0  0  0  0
  5  2  1  0  0  0  0
  6  4  2  0  0  0  0
  7  6  1  0  0  0  0
  8  7  2  0  0  0  0
  9  8  1  0  0  0  0
  9 11  2  0  0  0  0
 10  1  1  0  0  0  0
 11 17  1  0  0  0  0
 12 22  1  0  0  0  0
 13 12  3  0  0  0  0
 14  2  2  0  0  0  0
 15  7  1  0  0  0  0
 16  3  2  0  0  0  0
 17 15  2  0  0  0  0
 18  9  1  0  0  0  0
 19  8  1  0  0  0  0
 20 17  1  0  0  0  0
 21 10  1  0  0  0  0
 22 19  1  0  0  0  0
 23 18  1  0  0  0  0
 24 21  1  0  0  0  0
 25 21  2  0  0  0  0
 26 24  2  0  0  0  0
 26 28  1  0  0  0  0
 27 25  1  0  0  0  0
 28 27  2  0  0  0  0
M  END
> <CdId>
2076

> <Mol Weight>
458.325

> <Formula>
C21H16BrNO4S

> <Click_ID>
CLK027_G08 __ __ 

$$$$
