CLK041E03
 OpenBabel03191401532D

 31 34  0  0  0  0  0  0  0  0999 V2000
    0.7449    1.4691    0.0000 N   0  0  0  0  0  0  0  0  0  0  0  0
    0.7449    0.6450    0.0000 C   0  0  0  0  0  0  0  0  0  0  0  0
    1.4566    0.2330    0.0000 N   0  0  0  0  0  0  0  0  0  0  0  0
    1.4566    1.8811    0.0000 C   0  0  0  0  0  0  0  0  0  0  0  0
    2.1724    1.4691    0.0000 C   0  0  0  0  0  0  0  0  0  0  0  0
    2.1724    0.6450    0.0000 C   0  0  0  0  0  0  0  0  0  0  0  0
   -0.0416    0.3912    0.0000 C   0  0  0  0  0  0  0  0  0  0  0  0
   -0.2954   -0.3912    0.0000 C   0  0  0  0  0  0  0  0  0  0  0  0
   -0.0416    1.7272    0.0000 C   0  0  0  0  0  0  0  0  0  0  0  0
    4.3117    0.2330    0.0000 C   0  0  0  0  0  0  0  0  0  0  0  0
    2.8842    0.2330    0.0000 C   0  0  0  0  0  0  0  0  0  0  0  0
    2.8842    1.8811    0.0000 C   0  0  0  0  0  0  0  0  0  0  0  0
    3.6000    0.6450    0.0000 C   0  0  0  0  0  0  0  0  0  0  0  0
   -4.8776   -0.6367    0.0000 C   0  0  0  0  0  0  0  0  0  0  0  0
   -5.6809   -0.8074    0.0000 C   0  0  0  0  0  0  0  0  0  0  0  0
   -2.1600   -1.5190    0.0000 C   0  0  0  0  0  0  0  0  0  0  0  0
    1.4566    2.7052    0.0000 O   0  0  0  0  0  0  0  0  0  0  0  0
   -0.5244    1.0571    0.0000 C   0  0  0  0  0  0  0  0  0  0  0  0
   -1.0988   -0.5618    0.0000 C   0  0  0  0  0  0  0  0  0  0  0  0
   -1.3567   -1.3484    0.0000 C   0  0  0  0  0  0  0  0  0  0  0  0
   -2.7136   -0.9073    0.0000 C   0  0  0  0  0  0  0  0  0  0  0  0
    3.6000    1.4691    0.0000 C   0  0  0  0  0  0  0  0  0  0  0  0
    5.0274    0.6450    0.0000 O   0  0  0  0  0  0  0  0  0  0  0  0
   -2.4597   -0.1207    0.0000 C   0  0  0  0  0  0  0  0  0  0  0  0
    4.3117   -0.5910    0.0000 O   0  0  0  0  0  0  0  0  0  0  0  0
   -1.6523    0.0499    0.0000 C   0  0  0  0  0  0  0  0  0  0  0  0
   -2.4139   -2.3015    0.0000 O   0  0  0  0  0  0  0  0  0  0  0  0
   -3.5167   -1.0780    0.0000 O   0  0  0  0  0  0  0  0  0  0  0  0
   -4.0703   -0.4661    0.0000 C   0  0  0  0  0  0  0  0  0  0  0  0
   -1.8645   -2.9133    0.0000 C   0  0  0  0  0  0  0  0  0  0  0  0
   -2.1183   -3.6999    0.0000 C   0  0  0  0  0  0  0  0  0  0  0  0
  2  1  1  0  0  0  0
  3  2  2  0  0  0  0
  4  1  1  0  0  0  0
  5  4  1  0  0  0  0
  6  5  2  0  0  0  0
  6  3  1  0  0  0  0
  7  2  1  0  0  0  0
  8  7  2  0  0  0  0
  9  1  1  0  0  0  0
 10 13  1  0  0  0  0
 11  6  1  0  0  0  0
 12  5  1  0  0  0  0
 13 11  2  0  0  0  0
 14 29  1  0  0  0  0
 15 14  3  0  0  0  0
 16 20  1  0  0  0  0
 17  4  2  0  0  0  0
 18  9  1  0  0  0  0
 18  7  1  0  0  0  0
 19  8  1  0  0  0  0
 20 19  2  0  0  0  0
 21 24  1  0  0  0  0
 21 16  2  0  0  0  0
 22 12  2  0  0  0  0
 22 13  1  0  0  0  0
 23 10  2  0  0  0  0
 24 26  2  0  0  0  0
 25 10  1  0  0  0  0
 26 19  1  0  0  0  0
 27 16  1  0  0  0  0
 28 21  1  0  0  0  0
 29 28  1  0  0  0  0
 30 27  1  0  0  0  0
 31 30  1  0  0  0  0
M  END
> <CdId>
3101

> <Mol Weight>
416.426

> <Formula>
C24H20N2O5

> <Click_ID>
CLK041E03 __ __ 

$$$$
