CLK049F05
 OpenBabel03191401532D

 23 24  0  0  0  0  0  0  0  0999 V2000
   -0.6292    2.0875    0.0000 S   0  0  0  0  0  0  0  0  0  0  0  0
   -0.6292   -1.2125    0.0000 C   0  0  0  0  0  0  0  0  0  0  0  0
    0.0833   -1.6250    0.0000 N   0  0  0  0  0  0  0  0  0  0  0  0
   -0.6292    1.2625    0.0000 C   0  0  0  0  0  0  0  0  0  0  0  0
    0.0833    4.1458    0.0000 C   0  0  0  0  0  0  0  0  0  0  0  0
    0.7958   -2.8625    0.0000 C   0  0  0  0  0  0  0  0  0  0  0  0
    0.0833    4.9708    0.0000 C   0  0  0  0  0  0  0  0  0  0  0  0
    1.5500   -2.5292    0.0000 S   0  0  0  0  0  0  0  0  0  0  0  0
   -1.4542    2.0875    0.0000 O   0  0  0  0  0  0  0  0  0  0  0  0
    0.1958    2.0875    0.0000 O   0  0  0  0  0  0  0  0  0  0  0  0
   -0.6292   -0.3875    0.0000 C   0  0  0  0  0  0  0  0  0  0  0  0
    0.0833   -2.4500    0.0000 C   0  0  0  0  0  0  0  0  0  0  0  0
   -0.6292    2.9125    0.0000 N   0  0  0  0  0  0  0  0  0  0  0  0
   -1.3458   -1.6250    0.0000 O   0  0  0  0  0  0  0  0  0  0  0  0
    2.1042   -3.1417    0.0000 C   0  0  0  0  0  0  0  0  0  0  0  0
    0.8833   -3.6833    0.0000 C   0  0  0  0  0  0  0  0  0  0  0  0
    1.6917   -3.8542    0.0000 C   0  0  0  0  0  0  0  0  0  0  0  0
    0.0833    0.8500    0.0000 C   0  0  0  0  0  0  0  0  0  0  0  0
   -1.3458    0.8500    0.0000 C   0  0  0  0  0  0  0  0  0  0  0  0
    0.0833    0.0250    0.0000 C   0  0  0  0  0  0  0  0  0  0  0  0
   -1.3458    0.0250    0.0000 C   0  0  0  0  0  0  0  0  0  0  0  0
    0.0833    3.3250    0.0000 C   0  0  0  0  0  0  0  0  0  0  0  0
    0.7958   -1.2125    0.0000 C   0  0  0  0  0  0  0  0  0  0  0  0
  2 11  1  0  0  0  0
  3  2  1  0  0  0  0
  4  1  1  0  0  0  0
  5 22  1  0  0  0  0
  6 12  1  0  0  0  0
  7  5  3  0  0  0  0
  8  6  1  0  0  0  0
  9  1  2  0  0  0  0
 10  1  2  0  0  0  0
 11 21  2  0  0  0  0
 12  3  1  0  0  0  0
 13  1  1  0  0  0  0
 14  2  2  0  0  0  0
 15  8  1  0  0  0  0
 15 17  2  0  0  0  0
 16  6  2  0  0  0  0
 17 16  1  0  0  0  0
 18  4  1  0  0  0  0
 19  4  2  0  0  0  0
 20 18  2  0  0  0  0
 20 11  1  0  0  0  0
 21 19  1  0  0  0  0
 22 13  1  0  0  0  0
 23  3  1  0  0  0  0
M  END
> <CdId>
3758

> <Mol Weight>
348.44

> <Formula>
C16H16N2O3S2

> <Click_ID>
CLK049F05 __ __ 

$$$$
