CLK040C07
 OpenBabel03191401532D

 27 29  0  0  0  0  0  0  0  0999 V2000
   -0.5083    2.8333    0.0000 S   0  0  0  0  0  0  0  0  0  0  0  0
   -0.0250    2.1667    0.0000 N   0  0  0  0  0  0  0  0  0  0  0  0
   -0.5083    1.5000    0.0000 C   0  0  0  0  0  0  0  0  0  0  0  0
   -1.2917    1.7542    0.0000 C   0  0  0  0  0  0  0  0  0  0  0  0
   -1.2917    2.5792    0.0000 C   0  0  0  0  0  0  0  0  0  0  0  0
   -0.2542    0.7167    0.0000 N   0  0  0  0  0  0  0  0  0  0  0  0
    0.5125   -1.6375    0.0000 C   0  0  0  0  0  0  0  0  0  0  0  0
   -0.4958    3.6583    0.0000 O   0  0  0  0  0  0  0  0  0  0  0  0
   -0.0333    3.5083    0.0000 O   0  0  0  0  0  0  0  0  0  0  0  0
    1.3167   -1.8083    0.0000 N   0  0  0  0  0  0  0  0  0  0  0  0
    1.8292   -3.3792    0.0000 C   0  0  0  0  0  0  0  0  0  0  0  0
    2.0833   -4.1625    0.0000 C   0  0  0  0  0  0  0  0  0  0  0  0
    1.5708   -2.5958    0.0000 C   0  0  0  0  0  0  0  0  0  0  0  0
    0.2542   -0.8542    0.0000 C   0  0  3  0  0  0  0  0  0  0  0  0
   -0.8042    0.1042    0.0000 C   0  0  0  0  0  0  0  0  0  0  0  0
    0.5542    0.5458    0.0000 C   0  0  0  0  0  0  0  0  0  0  0  0
   -0.0417   -2.2500    0.0000 O   0  0  0  0  0  0  0  0  0  0  0  0
   -0.5500   -0.6833    0.0000 C   0  0  0  0  0  0  0  0  0  0  0  0
    0.8083   -0.2417    0.0000 C   0  0  0  0  0  0  0  0  0  0  0  0
   -2.0083    1.3417    0.0000 C   0  0  0  0  0  0  0  0  0  0  0  0
   -2.0083    2.9917    0.0000 C   0  0  0  0  0  0  0  0  0  0  0  0
    2.3583   -2.3375    0.0000 C   0  0  0  0  0  0  0  0  0  0  0  0
    0.7875   -2.8500    0.0000 C   0  0  0  0  0  0  0  0  0  0  0  0
   -2.7208    1.7542    0.0000 C   0  0  0  0  0  0  0  0  0  0  0  0
    0.1750   -2.2958    0.0000 C   0  0  0  0  0  0  0  0  0  0  0  0
    2.9708   -2.8917    0.0000 C   0  0  0  0  0  0  0  0  0  0  0  0
   -2.7208    2.5792    0.0000 C   0  0  0  0  0  0  0  0  0  0  0  0
  2  1  1  0  0  0  0
  3  2  2  0  0  0  0
  4  5  2  0  0  0  0
  4  3  1  0  0  0  0
  5  1  1  0  0  0  0
  6  3  1  0  0  0  0
  7 14  1  0  0  0  0
  8  1  2  0  0  0  0
  9  1  2  0  0  0  0
 10  7  1  0  0  0  0
 11 13  1  0  0  0  0
 12 11  3  0  0  0  0
 13 10  1  0  0  0  0
 14 18  1  0  0  0  0
 15  6  1  0  0  0  0
 16  6  1  0  0  0  0
 17  7  2  0  0  0  0
 18 15  1  0  0  0  0
 19 16  1  0  0  0  0
 19 14  1  0  0  0  0
 20  4  1  0  0  0  0
 21  5  1  0  0  0  0
 22 13  1  0  0  0  0
 23 13  1  0  0  0  0
 24 20  2  0  0  0  0
 24 27  1  0  0  0  0
 25 23  1  0  0  0  0
 26 22  1  0  0  0  0
 27 21  2  0  0  0  0
M  END
> <CdId>
3051

> <Mol Weight>
387.496

> <Formula>
C20H25N3O3S

> <Click_ID>
CLK040C07 __ __ 

$$$$
