CLK038E09
 OpenBabel03191401532D

 27 27  0  0  0  0  0  0  0  0999 V2000
   -2.4708   -1.1250    0.0000 N   0  0  0  0  0  0  0  0  0  0  0  0
   -2.3833   -0.3042    0.0000 C   0  0  0  0  0  0  0  0  0  0  0  0
   -3.2792   -1.2958    0.0000 C   0  0  0  0  0  0  0  0  0  0  0  0
   -3.6917   -0.5792    0.0000 S   0  0  0  0  0  0  0  0  0  0  0  0
    7.6458    0.3583    0.0000 C   0  0  0  0  0  0  0  0  0  0  0  0
    7.2333   -0.3542    0.0000 C   0  0  0  0  0  0  0  0  0  0  0  0
   -3.1375    0.0333    0.0000 C   0  0  0  0  0  0  0  0  0  0  0  0
    4.0458    0.9333    0.0000 C   0  0  0  0  0  0  0  0  0  0  0  0
    4.7583    0.5208    0.0000 C   0  0  0  0  0  0  0  0  0  0  0  0
    0.4750   -0.3042    0.0000 C   0  0  0  0  0  0  0  0  0  0  0  0
   -0.2417    0.1083    0.0000 C   0  0  0  0  0  0  0  0  0  0  0  0
   -0.9542   -0.3042    0.0000 O   0  0  0  0  0  0  0  0  0  0  0  0
    8.4708    0.3583    0.0000 O   0  0  0  0  0  0  0  0  0  0  0  0
    7.6458   -1.0708    0.0000 O   0  0  0  0  0  0  0  0  0  0  0  0
    1.1875    0.1083    0.0000 C   0  0  0  0  0  0  0  0  0  0  0  0
   -1.6708    0.1083    0.0000 C   0  0  0  0  0  0  0  0  0  0  0  0
   -0.2417    0.9333    0.0000 C   0  0  0  0  0  0  0  0  0  0  0  0
    7.2333    1.0750    0.0000 O   0  0  0  0  0  0  0  0  0  0  0  0
    6.4083   -0.3542    0.0000 O   0  0  0  0  0  0  0  0  0  0  0  0
    1.1875    0.9333    0.0000 C   0  0  0  0  0  0  0  0  0  0  0  0
    2.6167    0.9333    0.0000 N   0  0  0  0  0  0  0  0  0  0  0  0
    0.4750    1.3458    0.0000 C   0  0  0  0  0  0  0  0  0  0  0  0
    0.4750   -1.1292    0.0000 O   0  0  0  0  0  0  0  0  0  0  0  0
    3.3292    1.3458    0.0000 C   0  0  0  0  0  0  0  0  0  0  0  0
   -3.6125   -2.0500    0.0000 C   0  0  0  0  0  0  0  0  0  0  0  0
    1.9042    1.3458    0.0000 C   0  0  0  0  0  0  0  0  0  0  0  0
    1.1875   -1.5417    0.0000 C   0  0  0  0  0  0  0  0  0  0  0  0
  2  1  1  0  0  0  0
  3  1  2  0  0  0  0
  4  3  1  0  0  0  0
  4  7  1  0  0  0  0
  6  5  1  0  0  0  0
  7  2  2  0  0  0  0
  8 24  1  0  0  0  0
  9  8  3  0  0  0  0
 10 11  2  0  0  0  0
 11 12  1  0  0  0  0
 12 16  1  0  0  0  0
 13  5  2  0  0  0  0
 14  6  2  0  0  0  0
 15 10  1  0  0  0  0
 16  2  1  0  0  0  0
 17 11  1  0  0  0  0
 18  5  1  0  0  0  0
 19  6  1  0  0  0  0
 20 15  2  0  0  0  0
 21 26  1  0  0  0  0
 22 17  2  0  0  0  0
 22 20  1  0  0  0  0
 23 10  1  0  0  0  0
 24 21  1  0  0  0  0
 25  3  1  0  0  0  0
 26 20  1  0  0  0  0
 27 23  1  0  0  0  0
M  END
> <CdId>
2909

> <Mol Weight>
392.426

> <Formula>
C18H20N2O6S

> <Click_ID>
CLK038E09 __ __ 

$$$$
