CLK037D07
 OpenBabel03191401532D

 27 28  0  0  0  0  0  0  0  0999 V2000
   -2.4625   -0.0750    0.0000 C    0  0  0  0  0  0  0  0  0  0  0  0
   -2.4625    0.7500    0.0000 C    0  0  0  0  0  0  0  0  0  0  0  0
   -1.7500   -0.4875    0.0000 C    0  0  0  0  0  0  0  0  0  0  0  0
    0.3958    0.7500    0.0000 C    0  0  0  0  0  0  0  0  0  0  0  0
   -4.6083   -0.4875    0.0000 C    0  0  0  0  0  0  0  0  0  0  0  0
   -5.3208   -0.9000    0.0000 C    0  0  0  0  0  0  0  0  0  0  0  0
    1.1083    1.1625    0.0000 C    0  0  0  0  0  0  0  0  0  0  0  0
   -0.3208    1.1625    0.0000 C    0  0  0  0  0  0  0  0  0  0  0  0
    3.9667   -1.3125    0.0000 C    0  0  0  0  0  0  0  0  0  0  0  0
   -1.0333    0.7500    0.0000 C    0  0  0  0  0  0  0  0  0  0  0  0
   -1.7500    1.1625    0.0000 C    0  0  0  0  0  0  0  0  0  0  0  0
   -1.0333   -0.0750    0.0000 C    0  0  0  0  0  0  0  0  0  0  0  0
    1.8250    0.7500    0.0000 C    0  0  0  0  0  0  0  0  0  0  0  0
    3.9667   -0.4875    0.0000 O    0  0  0  0  0  0  0  0  0  0  0  0
    1.1083    1.9875    0.0000 O    0  0  0  0  0  0  0  0  0  0  0  0
    2.5375    1.1625    0.0000 C    0  0  0  0  0  0  0  0  0  0  0  0
    1.8250   -0.0750    0.0000 C    0  0  0  0  0  0  0  0  0  0  0  0
   -3.1792    1.1625    0.0000 Cl   0  0  0  0  0  0  0  0  0  0  0  0
    3.2542   -0.0750    0.0000 C    0  0  0  0  0  0  0  0  0  0  0  0
   -3.1792   -0.4875    0.0000 O    0  0  0  0  0  0  0  0  0  0  0  0
    3.2542   -1.7250    0.0000 F    0  0  0  0  0  0  0  0  0  0  0  0
    4.6833   -1.7250    0.0000 F    0  0  0  0  0  0  0  0  0  0  0  0
   -1.7500   -1.3125    0.0000 O    0  0  0  0  0  0  0  0  0  0  0  0
    2.5375   -0.4875    0.0000 C    0  0  0  0  0  0  0  0  0  0  0  0
    3.2542    0.7500    0.0000 C    0  0  0  0  0  0  0  0  0  0  0  0
   -3.8917   -0.0750    0.0000 C    0  0  0  0  0  0  0  0  0  0  0  0
   -1.0333   -1.7250    0.0000 C    0  0  0  0  0  0  0  0  0  0  0  0
  2  1  1  0  0  0  0
  3  1  2  0  0  0  0
  4  8  2  0  0  0  0
  5 26  1  0  0  0  0
  6  5  3  0  0  0  0
  7  4  1  0  0  0  0
  8 10  1  0  0  0  0
  9 14  1  0  0  0  0
 10 12  2  0  0  0  0
 11  2  2  0  0  0  0
 11 10  1  0  0  0  0
 12  3  1  0  0  0  0
 13  7  1  0  0  0  0
 14 19  1  0  0  0  0
 15  7  2  0  0  0  0
 16 13  2  0  0  0  0
 17 13  1  0  0  0  0
 18  2  1  0  0  0  0
 19 25  2  0  0  0  0
 19 24  1  0  0  0  0
 20  1  1  0  0  0  0
 21  9  1  0  0  0  0
 22  9  1  0  0  0  0
 23  3  1  0  0  0  0
 24 17  2  0  0  0  0
 25 16  1  0  0  0  0
 26 20  1  0  0  0  0
 27 23  1  0  0  0  0
M  END
> <CdId>
2812

> <Mol Weight>
392.781

> <Formula>
C20H15ClF2O4

> <Click_ID>
CLK037D07 __ __ 

$$$$
