CLK043C09
 OpenBabel03191401532D

 26 27  0  0  0  0  0  0  0  0999 V2000
   -2.5833    0.6667    0.0000 S   0  0  0  0  0  0  0  0  0  0  0  0
    0.2708   -0.9833    0.0000 C   0  0  0  0  0  0  0  0  0  0  0  0
    0.9875   -0.5708    0.0000 N   0  0  0  0  0  0  0  0  0  0  0  0
    2.4167   -0.5708    0.0000 C   0  0  0  0  0  0  0  0  0  0  0  0
    1.7000   -0.9833    0.0000 C   0  0  0  0  0  0  0  0  0  0  0  0
   -1.8708    0.2542    0.0000 C   0  0  0  0  0  0  0  0  0  0  0  0
   -4.0125    2.3167    0.0000 C   0  0  0  0  0  0  0  0  0  0  0  0
   -4.7292    2.7292    0.0000 C   0  0  0  0  0  0  0  0  0  0  0  0
   -2.9958   -0.0458    0.0000 O   0  0  0  0  0  0  0  0  0  0  0  0
   -2.1708    1.3833    0.0000 O   0  0  0  0  0  0  0  0  0  0  0  0
   -0.4417   -0.5708    0.0000 C   0  0  0  0  0  0  0  0  0  0  0  0
   -3.3000    1.0792    0.0000 N   0  0  0  0  0  0  0  0  0  0  0  0
    0.2708   -1.8083    0.0000 O   0  0  0  0  0  0  0  0  0  0  0  0
    3.1292   -0.9833    0.0000 C   0  0  0  0  0  0  0  0  0  0  0  0
   -1.1542    0.6667    0.0000 C   0  0  0  0  0  0  0  0  0  0  0  0
   -1.8708   -0.5708    0.0000 C   0  0  0  0  0  0  0  0  0  0  0  0
   -0.4417    0.2542    0.0000 C   0  0  0  0  0  0  0  0  0  0  0  0
   -1.1542   -0.9833    0.0000 C   0  0  0  0  0  0  0  0  0  0  0  0
   -3.3000    1.9042    0.0000 C   0  0  0  0  0  0  0  0  0  0  0  0
    3.1292   -1.8083    0.0000 O   0  0  0  0  0  0  0  0  0  0  0  0
    0.9875    0.2542    0.0000 C   0  0  0  0  0  0  0  0  0  0  0  0
    2.4167    0.2542    0.0000 C   0  0  0  0  0  0  0  0  0  0  0  0
    3.8458   -0.5708    0.0000 C   0  0  0  0  0  0  0  0  0  0  0  0
    3.8458   -2.2208    0.0000 C   0  0  0  0  0  0  0  0  0  0  0  0
    3.1292    0.6667    0.0000 C   0  0  0  0  0  0  0  0  0  0  0  0
    3.8458    0.2542    0.0000 C   0  0  0  0  0  0  0  0  0  0  0  0
  2 11  1  0  0  0  0
  3  2  1  0  0  0  0
  4  5  1  0  0  0  0
  5  3  1  0  0  0  0
  6  1  1  0  0  0  0
  7 19  1  0  0  0  0
  8  7  3  0  0  0  0
  9  1  2  0  0  0  0
 10  1  2  0  0  0  0
 11 18  2  0  0  0  0
 12  1  1  0  0  0  0
 13  2  2  0  0  0  0
 14  4  2  0  0  0  0
 15  6  1  0  0  0  0
 16  6  2  0  0  0  0
 17 15  2  0  0  0  0
 17 11  1  0  0  0  0
 18 16  1  0  0  0  0
 19 12  1  0  0  0  0
 20 14  1  0  0  0  0
 21  3  1  0  0  0  0
 22  4  1  0  0  0  0
 23 14  1  0  0  0  0
 24 20  1  0  0  0  0
 25 22  2  0  0  0  0
 25 26  1  0  0  0  0
 26 23  2  0  0  0  0
M  END
> <CdId>
3307

> <Mol Weight>
372.438

> <Formula>
C19H20N2O4S

> <Click_ID>
CLK043C09 __ __ 

$$$$
