CLK002_G09
 OpenBabel03191401532D

 30 34  0  0  0  0  0  0  0  0999 V2000
   -1.3313   -0.6620    0.0000 C   0  0  0  0  0  0  0  0  0  0  0  0
   -0.6498   -0.2726    0.0000 C   0  0  0  0  0  0  0  0  0  0  0  0
   -2.0614   -0.2726    0.0000 C   0  0  0  0  0  0  0  0  0  0  0  0
   -2.0249   -1.0854    0.0000 C   0  0  0  0  0  0  0  0  0  0  0  0
   -0.6498   -1.0854    0.0000 C   0  0  0  0  0  0  0  0  0  0  0  0
   -0.6498    0.5865    0.0000 C   0  0  0  0  0  0  0  0  0  0  0  0
    0.0657   -0.6620    0.0000 C   0  0  0  0  0  0  0  0  0  0  0  0
   -2.0614    0.5865    0.0000 C   0  0  0  0  0  0  0  0  0  0  0  0
   -2.0249   -1.9275    0.0000 C   0  0  0  0  0  0  0  0  0  0  0  0
   -0.6498   -1.9275    0.0000 C   0  0  0  0  0  0  0  0  0  0  0  0
   -1.3410    0.9662    0.0000 C   0  0  0  0  0  0  0  0  0  0  0  0
    0.0657    0.9662    0.0000 N   0  0  0  0  0  0  0  0  0  0  0  0
    0.7983   -0.2726    0.0000 N   0  0  0  0  0  0  0  0  0  0  0  0
    0.0657   -1.5040    0.0000 O   0  0  0  0  0  0  0  0  0  0  0  0
   -2.7575    0.9662    0.0000 C   0  0  0  0  0  0  0  0  0  0  0  0
   -1.3410    1.7912    0.0000 C   0  0  0  0  0  0  0  0  0  0  0  0
    0.7983    0.5865    0.0000 C   0  0  0  0  0  0  0  0  0  0  0  0
    1.4554   -0.6839    0.0000 C   0  0  0  0  0  0  0  0  0  0  0  0
   -2.7575    1.7912    0.0000 C   0  0  0  0  0  0  0  0  0  0  0  0
   -2.0614    2.2050    0.0000 C   0  0  0  0  0  0  0  0  0  0  0  0
    1.4943    1.0368    0.0000 S   0  0  0  0  0  0  0  0  0  0  0  0
    1.4554   -1.4968    0.0000 C   0  0  0  0  0  0  0  0  0  0  0  0
    2.1880   -0.2969    0.0000 C   0  0  0  0  0  0  0  0  0  0  0  0
    1.4943    1.8838    0.0000 C   0  0  0  0  0  0  0  0  0  0  0  0
    2.1466   -1.9397    0.0000 C   0  0  0  0  0  0  0  0  0  0  0  0
    2.9156   -0.7058    0.0000 C   0  0  0  0  0  0  0  0  0  0  0  0
    0.7885    2.2804    0.0000 C   0  0  0  0  0  0  0  0  0  0  0  0
    2.9230   -1.5406    0.0000 C   0  0  0  0  0  0  0  0  0  0  0  0
    0.0925    2.6820    0.0000 C   0  0  0  0  0  0  0  0  0  0  0  0
    3.6117   -1.9835    0.0000 C   0  0  0  0  0  0  0  0  0  0  0  0
  1  2  1  0  0  0  0
  1  3  1  0  0  0  0
  1  4  1  0  0  0  0
  1  5  1  0  0  0  0
  2  6  2  0  0  0  0
  2  7  1  0  0  0  0
  3  8  1  0  0  0  0
  4  9  1  0  0  0  0
  5 10  1  0  0  0  0
  6 11  1  0  0  0  0
  6 12  1  0  0  0  0
  7 13  1  0  0  0  0
  7 14  2  0  0  0  0
  8 15  2  0  0  0  0
  8 11  1  0  0  0  0
  9 10  1  0  0  0  0
 11 16  2  0  0  0  0
 12 17  2  0  0  0  0
 13 18  1  0  0  0  0
 13 17  1  0  0  0  0
 15 19  1  0  0  0  0
 16 20  1  0  0  0  0
 17 21  1  0  0  0  0
 18 22  1  0  0  0  0
 18 23  2  0  0  0  0
 19 20  2  0  0  0  0
 21 24  1  0  0  0  0
 22 25  2  0  0  0  0
 23 26  1  0  0  0  0
 24 27  1  0  0  0  0
 25 28  1  0  0  0  0
 26 28  2  0  0  0  0
 27 29  3  0  0  0  0
 28 30  1  0  0  0  0
M  END
> <CdId>
148

> <Mol Weight>
412.547

> <Formula>
C26H24N2OS

> <Click_ID>
CLK002_G09 __ __ 

$$$$
