CLK015_C07
 OpenBabel03191401532D

 29 32  0  0  0  0  0  0  0  0999 V2000
    1.5619   -0.8142    0.0000 N   0  0  0  0  0  0  0  0  0  0  0  0
    1.8195   -1.5993    0.0000 C   0  0  0  0  0  0  0  0  0  0  0  0
    2.8954   -0.8142    0.0000 C   0  0  0  0  0  0  0  0  0  0  0  0
    2.2307   -0.3282    0.0000 C   0  0  0  0  0  0  0  0  0  0  0  0
    2.6420   -1.5993    0.0000 S   0  0  0  0  0  0  0  0  0  0  0  0
    3.6805   -0.5608    0.0000 C   0  0  0  0  0  0  0  0  0  0  0  0
    0.6106    0.2451    0.0000 C   0  0  0  0  0  0  0  0  0  0  0  0
    3.8508    0.2451    0.0000 C   0  0  0  0  0  0  0  0  0  0  0  0
    0.3905    1.0426    0.0000 C   0  0  0  0  0  0  0  0  0  0  0  0
    1.3334   -2.2598    0.0000 O   0  0  0  0  0  0  0  0  0  0  0  0
    2.2224    0.4943    0.0000 O   0  0  0  0  0  0  0  0  0  0  0  0
    7.4191   -0.1039    0.0000 C   0  0  0  0  0  0  0  0  0  0  0  0
    0.7851   -0.5608    0.0000 C   0  0  0  0  0  0  0  0  0  0  0  0
    5.2383   -0.0540    0.0000 O   0  0  0  0  0  0  0  0  0  0  0  0
    4.6359    0.4985    0.0000 C   0  0  0  0  0  0  0  0  0  0  0  0
    6.6340   -0.3531    0.0000 C   0  0  0  0  0  0  0  0  0  0  0  0
    6.0234    0.1952    0.0000 C   0  0  0  0  0  0  0  0  0  0  0  0
    8.0298   -0.6605    0.0000 C   0  0  0  0  0  0  0  0  0  0  0  0
    7.0702   -1.7198    0.0000 C   0  0  0  0  0  0  0  0  0  0  0  0
    3.2319    0.7976    0.0000 C   0  0  0  0  0  0  0  0  0  0  0  0
    6.4595   -1.1632    0.0000 C   0  0  0  0  0  0  0  0  0  0  0  0
    7.5936    0.7103    0.0000 C   0  0  0  0  0  0  0  0  0  0  0  0
    7.8511   -1.4623    0.0000 C   0  0  0  0  0  0  0  0  0  0  0  0
    4.8021    1.3043    0.0000 C   0  0  0  0  0  0  0  0  0  0  0  0
    8.8149   -0.4154    0.0000 C   0  0  0  0  0  0  0  0  0  0  0  0
    3.4063    1.6034    0.0000 C   0  0  0  0  0  0  0  0  0  0  0  0
    8.3870    0.9554    0.0000 C   0  0  0  0  0  0  0  0  0  0  0  0
    4.1997    1.8527    0.0000 C   0  0  0  0  0  0  0  0  0  0  0  0
    8.9976    0.3946    0.0000 C   0  0  0  0  0  0  0  0  0  0  0  0
  2  1  1  0  0  0  0
  3  4  1  0  0  0  0
  3  5  1  0  0  0  0
  4  1  1  0  0  0  0
  5  2  1  0  0  0  0
  6  3  2  0  0  0  0
  7 13  1  0  0  0  0
  8  6  1  0  0  0  0
  9  7  3  0  0  0  0
 10  2  2  0  0  0  0
 11  4  2  0  0  0  0
 12 16  1  0  0  0  0
 13  1  1  0  0  0  0
 14 15  1  0  0  0  0
 15  8  1  0  0  0  0
 16 17  1  0  0  0  0
 17 14  1  0  0  0  0
 18 12  1  0  0  0  0
 18 23  1  0  0  0  0
 19 21  1  0  0  0  0
 20  8  2  0  0  0  0
 21 16  2  0  0  0  0
 22 12  2  0  0  0  0
 23 19  2  0  0  0  0
 24 15  2  0  0  0  0
 24 28  1  0  0  0  0
 25 18  2  0  0  0  0
 25 29  1  0  0  0  0
 26 20  1  0  0  0  0
 27 22  1  0  0  0  0
 28 26  2  0  0  0  0
 29 27  2  0  0  0  0
M  END
> <CdId>
1102

> <Mol Weight>
399.462

> <Formula>
C24H17NO3S

> <Click_ID>
CLK015_C07 __ __ 

$$$$
