CLK018_D08
 OpenBabel03191401532D

 15 15  0  0  0  0  0  0  0  0999 V2000
   -0.3300   -2.4197    0.0000 C   0  0  0  0  0  0  0  0  0  0  0  0
   -0.7515   -3.1254    0.0000 C   0  0  0  0  0  0  0  0  0  0  0  0
    2.1631   -1.0220    0.0000 C   0  0  0  0  0  0  0  0  0  0  0  0
    1.7460   -1.7369    0.0000 C   0  0  0  0  0  0  0  0  0  0  0  0
    4.6194   -2.4930    0.0000 N   0  0  0  0  0  0  0  0  0  0  0  0
    2.9880   -1.0357    0.0000 C   0  0  0  0  0  0  0  0  0  0  0  0
    2.1447   -2.4518    0.0000 C   0  0  0  0  0  0  0  0  0  0  0  0
    3.3866   -1.7598    0.0000 C   0  0  0  0  0  0  0  0  0  0  0  0
    4.2115   -1.7735    0.0000 C   0  0  0  0  0  0  0  0  0  0  0  0
    5.4305   -2.5296    0.0000 O   0  0  0  0  0  0  0  0  0  0  0  0
    2.9696   -2.4655    0.0000 C   0  0  0  0  0  0  0  0  0  0  0  0
    1.7644   -0.3071    0.0000 O   0  0  0  0  0  0  0  0  0  0  0  0
    0.9211   -1.7231    0.0000 O   0  0  0  0  0  0  0  0  0  0  0  0
    0.4949   -2.4334    0.0000 C   0  0  0  0  0  0  0  0  0  0  0  0
    2.1859    0.3987    0.0000 C   0  0  0  0  0  0  0  0  0  0  0  0
  2  1  3  0  0  0  0
  3  4  1  0  0  0  0
  4 13  1  0  0  0  0
  5  9  2  0  0  0  0
  6  3  2  0  0  0  0
  7  4  2  0  0  0  0
  8 11  2  0  0  0  0
  8  6  1  0  0  0  0
  9  8  1  0  0  0  0
 10  5  1  0  0  0  0
 11  7  1  0  0  0  0
 12  3  1  0  0  0  0
 13 14  1  0  0  0  0
 14  1  1  0  0  0  0
 15 12  1  0  0  0  0
M  END
> <CdId>
1353

> <Mol Weight>
205.2099

> <Formula>
C11H11NO3

> <Click_ID>
CLK018_D08 __ __ 

$$$$
