CLK007_F10
 OpenBabel03191401532D

 23 25  0  0  0  0  0  0  0  0999 V2000
    0.8707   -0.0034    0.0000 C   0  0  3  0  0  0  0  0  0  0  0  0
    0.1555   -0.4146    0.0000 C   0  0  0  0  0  0  0  0  0  0  0  0
    0.8707    0.8257    0.0000 C   0  0  0  0  0  0  0  0  0  0  0  0
    1.5824   -0.4077    0.0000 C   0  0  0  0  0  0  0  0  0  0  0  0
    0.1555   -1.2334    0.0000 C   0  0  0  0  0  0  0  0  0  0  0  0
   -0.5597    0.0069    0.0000 C   0  0  0  0  0  0  0  0  0  0  0  0
    1.5824    1.2369    0.0000 C   0  0  0  0  0  0  0  0  0  0  0  0
    0.1555    1.2334    0.0000 C   0  0  0  0  0  0  0  0  0  0  0  0
    1.5824   -1.2334    0.0000 C   0  0  0  0  0  0  0  0  0  0  0  0
   -0.5597   -1.6481    0.0000 N   0  0  0  0  0  0  0  0  0  0  0  0
    0.8707   -1.6481    0.0000 N   0  0  0  0  0  0  0  0  0  0  0  0
   -1.2646   -0.4146    0.0000 N   0  0  0  0  0  0  0  0  0  0  0  0
   -0.5597    0.8326    0.0000 O   0  0  0  0  0  0  0  0  0  0  0  0
    1.5790    2.0662    0.0000 C   0  0  0  0  0  0  0  0  0  0  0  0
    0.1417    2.0524    0.0000 C   0  0  0  0  0  0  0  0  0  0  0  0
    2.2976   -1.6481    0.0000 O   0  0  0  0  0  0  0  0  0  0  0  0
   -1.2646   -1.2404    0.0000 C   0  0  0  0  0  0  0  0  0  0  0  0
    0.8638    2.4739    0.0000 C   0  0  0  0  0  0  0  0  0  0  0  0
    2.2976    2.4773    0.0000 F   0  0  0  0  0  0  0  0  0  0  0  0
   -1.9867   -1.6550    0.0000 S   0  0  0  0  0  0  0  0  0  0  0  0
   -2.7019   -1.2404    0.0000 C   0  0  0  0  0  0  0  0  0  0  0  0
   -2.7019   -0.4146    0.0000 C   0  0  0  0  0  0  0  0  0  0  0  0
   -3.4136   -0.0034    0.0000 C   0  0  0  0  0  0  0  0  0  0  0  0
  1  2  1  0  0  0  0
  1  3  1  0  0  0  0
  1  4  1  0  0  0  0
  2  5  2  0  0  0  0
  2  6  1  0  0  0  0
  3  7  2  0  0  0  0
  3  8  1  0  0  0  0
  4  9  1  0  0  0  0
  5 10  1  0  0  0  0
  5 11  1  0  0  0  0
  6 12  1  0  0  0  0
  6 13  2  0  0  0  0
  7 14  1  0  0  0  0
  8 15  2  0  0  0  0
  9 16  2  0  0  0  0
  9 11  1  0  0  0  0
 10 17  2  0  0  0  0
 12 17  1  0  0  0  0
 14 18  2  0  0  0  0
 14 19  1  0  0  0  0
 15 18  1  0  0  0  0
 17 20  1  0  0  0  0
 20 21  1  0  0  0  0
 21 22  1  0  0  0  0
 22 23  3  0  0  0  0
M  END
> <CdId>
539

> <Mol Weight>
329.349

> <Formula>
C16H12FN3O2S

> <Click_ID>
CLK007_F10 __ __ 

$$$$
