CLK045E08
 OpenBabel03191401532D

 24 25  0  0  0  0  0  0  0  0999 V2000
    2.2917   -0.3500    0.0000 C   0  0  0  0  0  0  0  0  0  0  0  0
   -2.2458    0.3667    0.0000 S   0  0  0  0  0  0  0  0  0  0  0  0
    2.7750   -1.0167    0.0000 N   0  0  0  0  0  0  0  0  0  0  0  0
    1.4667   -0.3500    0.0000 N   0  0  0  0  0  0  0  0  0  0  0  0
    1.0542    0.3667    0.0000 C   0  0  0  0  0  0  0  0  0  0  0  0
    3.5625   -0.7625    0.0000 N   0  0  0  0  0  0  0  0  0  0  0  0
    2.7750    0.3167    0.0000 C   0  0  0  0  0  0  0  0  0  0  0  0
   -1.4208    0.3667    0.0000 C   0  0  0  0  0  0  0  0  0  0  0  0
   -4.3083    1.0792    0.0000 C   0  0  0  0  0  0  0  0  0  0  0  0
   -5.1333    1.0792    0.0000 C   0  0  0  0  0  0  0  0  0  0  0  0
   -2.2458   -0.4583    0.0000 O   0  0  0  0  0  0  0  0  0  0  0  0
   -2.2458    1.1917    0.0000 O   0  0  0  0  0  0  0  0  0  0  0  0
    3.5625    0.0625    0.0000 C   0  0  0  0  0  0  0  0  0  0  0  0
    0.2292    0.3667    0.0000 C   0  0  0  0  0  0  0  0  0  0  0  0
   -3.0708    0.3667    0.0000 N   0  0  0  0  0  0  0  0  0  0  0  0
    1.4667    1.0792    0.0000 O   0  0  0  0  0  0  0  0  0  0  0  0
    2.5208   -1.8000    0.0000 C   0  0  0  0  0  0  0  0  0  0  0  0
   -1.0083    1.0792    0.0000 C   0  0  0  0  0  0  0  0  0  0  0  0
   -1.0083   -0.3500    0.0000 C   0  0  0  0  0  0  0  0  0  0  0  0
   -0.1833    1.0792    0.0000 C   0  0  0  0  0  0  0  0  0  0  0  0
   -0.1833   -0.3500    0.0000 C   0  0  0  0  0  0  0  0  0  0  0  0
   -3.4833    1.0792    0.0000 C   0  0  0  0  0  0  0  0  0  0  0  0
    3.0750   -2.4125    0.0000 C   0  0  0  0  0  0  0  0  0  0  0  0
    1.7125   -1.9750    0.0000 C   0  0  0  0  0  0  0  0  0  0  0  0
  2  8  1  0  0  0  0
  3  1  1  0  0  0  0
  4  1  1  0  0  0  0
  5  4  1  0  0  0  0
  6  3  1  0  0  0  0
  7  1  2  0  0  0  0
  8 19  2  0  0  0  0
  8 18  1  0  0  0  0
  9 22  1  0  0  0  0
 10  9  3  0  0  0  0
 11  2  2  0  0  0  0
 12  2  2  0  0  0  0
 13  7  1  0  0  0  0
 13  6  2  0  0  0  0
 14  5  1  0  0  0  0
 15  2  1  0  0  0  0
 16  5  2  0  0  0  0
 17  3  1  0  0  0  0
 18 20  2  0  0  0  0
 19 21  1  0  0  0  0
 20 14  1  0  0  0  0
 21 14  2  0  0  0  0
 22 15  1  0  0  0  0
 23 17  1  0  0  0  0
 24 17  1  0  0  0  0
M  END
> <CdId>
3461

> <Mol Weight>
346.404

> <Formula>
C16H18N4O3S

> <Click_ID>
CLK045E08 __ __ 

$$$$
