CLK006_G03
 OpenBabel03191401532D

 16 17  0  0  0  0  0  0  0  0999 V2000
   -0.8414    0.0586    0.0000 C   0  0  0  0  0  0  0  0  0  0  0  0
   -0.0483   -0.1931    0.0000 N   0  0  0  0  0  0  0  0  0  0  0  0
   -0.8483    0.8897    0.0000 C   0  0  0  0  0  0  0  0  0  0  0  0
   -1.5621   -0.3517    0.0000 C   0  0  0  0  0  0  0  0  0  0  0  0
    0.4379    0.4862    0.0000 C   0  0  0  0  0  0  0  0  0  0  0  0
    0.3621   -0.9034    0.0000 C   0  0  0  0  0  0  0  0  0  0  0  0
   -0.0586    1.1586    0.0000 N   0  0  0  0  0  0  0  0  0  0  0  0
   -1.5621    1.3034    0.0000 C   0  0  0  0  0  0  0  0  0  0  0  0
   -2.2759    0.0621    0.0000 C   0  0  0  0  0  0  0  0  0  0  0  0
    1.2621    0.4897    0.0000 C   0  0  0  0  0  0  0  0  0  0  0  0
   -0.0414   -1.6172    0.0000 C   0  0  0  0  0  0  0  0  0  0  0  0
   -2.2759    0.8897    0.0000 C   0  0  0  0  0  0  0  0  0  0  0  0
    1.6793   -0.2207    0.0000 C   0  0  0  0  0  0  0  0  0  0  0  0
    0.3690   -2.3310    0.0000 C   0  0  0  0  0  0  0  0  0  0  0  0
    2.5000   -0.2207    0.0000 C   0  0  0  0  0  0  0  0  0  0  0  0
    2.9103    0.4966    0.0000 O   0  0  0  0  0  0  0  0  0  0  0  0
  1  2  1  0  0  0  0
  1  3  1  0  0  0  0
  1  4  2  0  0  0  0
  2  5  1  0  0  0  0
  2  6  1  0  0  0  0
  3  7  1  0  0  0  0
  3  8  2  0  0  0  0
  4  9  1  0  0  0  0
  5 10  1  0  0  0  0
  5  7  2  0  0  0  0
  6 11  1  0  0  0  0
  8 12  1  0  0  0  0
  9 12  2  0  0  0  0
 10 13  1  0  0  0  0
 11 14  3  0  0  0  0
 13 15  1  0  0  0  0
 15 16  1  0  0  0  0
M  END
> <CdId>
462

> <Mol Weight>
214.2631

> <Formula>
C13H14N2O

> <Click_ID>
CLK006_G03 __ __ 

$$$$
