CLK025_D10
 OpenBabel03191401532D

 39 43  0  0  0  0  0  0  0  0999 V2000
   -0.2100    1.1362    0.0000 N   0  0  0  0  0  0  0  0  0  0  0  0
   -0.2100    1.9625    0.0000 C   0  0  0  0  0  0  0  0  0  0  0  0
   -1.6388    1.1362    0.0000 C   0  0  0  0  0  0  0  0  0  0  0  0
    0.5716    0.8814    0.0000 C   0  0  0  0  0  0  0  0  0  0  0  0
   -0.9227    2.3722    0.0000 N   0  0  0  0  0  0  0  0  0  0  0  0
   -0.9227    0.7230    0.0000 C   0  0  3  0  0  0  0  0  0  0  0  0
    1.0536    1.5562    0.0000 C   0  0  0  0  0  0  0  0  0  0  0  0
   -1.6388    1.9625    0.0000 C   0  0  0  0  0  0  0  0  0  0  0  0
    0.5716    2.2207    0.0000 S   0  0  0  0  0  0  0  0  0  0  0  0
   -2.3585    0.7230    0.0000 C   0  0  0  0  0  0  0  0  0  0  0  0
    1.8764    1.5562    0.0000 C   0  0  0  0  0  0  0  0  0  0  0  0
   -3.0712    1.1465    0.0000 N   0  0  0  0  0  0  0  0  0  0  0  0
    2.2896    0.8435    0.0000 C   0  0  0  0  0  0  0  0  0  0  0  0
    4.7892    2.2689    0.0000 C   0  0  0  0  0  0  0  0  0  0  0  0
   -0.9227   -0.1033    0.0000 C   0  0  0  0  0  0  0  0  0  0  0  0
    5.2093    2.9954    0.0000 C   0  0  0  0  0  0  0  0  0  0  0  0
    0.8263    0.0964    0.0000 O   0  0  0  0  0  0  0  0  0  0  0  0
   -2.3619   -0.0998    0.0000 O   0  0  0  0  0  0  0  0  0  0  0  0
    3.1228    0.8435    0.0000 C   0  0  0  0  0  0  0  0  0  0  0  0
   -1.6388   -0.5164    0.0000 C   0  0  0  0  0  0  0  0  0  0  0  0
   -0.2100   -0.5164    0.0000 C   0  0  0  0  0  0  0  0  0  0  0  0
   -3.7839    0.7334    0.0000 C   0  0  0  0  0  0  0  0  0  0  0  0
   -2.3585    2.3825    0.0000 C   0  0  0  0  0  0  0  0  0  0  0  0
   -0.9227   -1.7525    0.0000 C   0  0  0  0  0  0  0  0  0  0  0  0
   -0.2100   -1.3428    0.0000 C   0  0  0  0  0  0  0  0  0  0  0  0
   -1.6388   -1.3428    0.0000 C   0  0  0  0  0  0  0  0  0  0  0  0
    3.5463    1.5700    0.0000 O   0  0  0  0  0  0  0  0  0  0  0  0
    4.3760    1.5562    0.0000 C   0  0  0  0  0  0  0  0  0  0  0  0
   -0.9227   -2.5788    0.0000 O   0  0  0  0  0  0  0  0  0  0  0  0
    1.8764    0.1343    0.0000 C   0  0  0  0  0  0  0  0  0  0  0  0
    3.5360    0.1343    0.0000 C   0  0  0  0  0  0  0  0  0  0  0  0
   -4.4966    1.1465    0.0000 C   0  0  0  0  0  0  0  0  0  0  0  0
   -3.7839   -0.0998    0.0000 C   0  0  0  0  0  0  0  0  0  0  0  0
   -1.6354   -2.9919    0.0000 C   0  0  0  0  0  0  0  0  0  0  0  0
    2.2896   -0.5784    0.0000 C   0  0  0  0  0  0  0  0  0  0  0  0
    3.1228   -0.5784    0.0000 C   0  0  0  0  0  0  0  0  0  0  0  0
   -4.4966   -0.5130    0.0000 C   0  0  0  0  0  0  0  0  0  0  0  0
   -5.2093    0.7334    0.0000 C   0  0  0  0  0  0  0  0  0  0  0  0
   -5.2093   -0.0998    0.0000 C   0  0  0  0  0  0  0  0  0  0  0  0
  2  1  1  0  0  0  0
  3  6  1  0  0  0  0
  4  1  1  0  0  0  0
  5  2  2  0  0  0  0
  6  1  1  0  0  0  0
  7  4  1  0  0  0  0
  8  3  2  0  0  0  0
  8  5  1  0  0  0  0
  9  2  1  0  0  0  0
  9  7  1  0  0  0  0
 10  3  1  0  0  0  0
 11  7  2  0  0  0  0
 12 10  1  0  0  0  0
 13 11  1  0  0  0  0
 14 28  1  0  0  0  0
 15  6  1  0  0  0  0
 16 14  3  0  0  0  0
 17  4  2  0  0  0  0
 18 10  2  0  0  0  0
 19 13  2  0  0  0  0
 20 15  2  0  0  0  0
 21 15  1  0  0  0  0
 22 12  1  0  0  0  0
 23  8  1  0  0  0  0
 24 25  1  0  0  0  0
 24 26  2  0  0  0  0
 25 21  2  0  0  0  0
 26 20  1  0  0  0  0
 27 19  1  0  0  0  0
 28 27  1  0  0  0  0
 29 24  1  0  0  0  0
 30 13  1  0  0  0  0
 31 19  1  0  0  0  0
 32 22  2  0  0  0  0
 33 22  1  0  0  0  0
 34 29  1  0  0  0  0
 35 30  2  0  0  0  0
 36 35  1  0  0  0  0
 36 31  2  0  0  0  0
 37 33  2  0  0  0  0
 38 32  1  0  0  0  0
 39 37  1  0  0  0  0
 39 38  2  0  0  0  0
M  END
> <CdId>
1895

> <Mol Weight>
535.613

> <Formula>
C31H25N3O4S

> <Click_ID>
CLK025_D10 __ __ 

$$$$
