CLK013_D07
 OpenBabel03191401532D

 26 28  0  0  0  0  0  0  0  0999 V2000
    1.5667   -0.8167    0.0000 N    0  0  0  0  0  0  0  0  0  0  0  0
    1.8250   -1.6042    0.0000 C    0  0  0  0  0  0  0  0  0  0  0  0
    2.9042   -0.8167    0.0000 C    0  0  0  0  0  0  0  0  0  0  0  0
    2.2375   -0.3292    0.0000 C    0  0  0  0  0  0  0  0  0  0  0  0
    2.6500   -1.6042    0.0000 S    0  0  0  0  0  0  0  0  0  0  0  0
    7.3042    1.9750    0.0000 N    0  0  0  0  0  0  0  0  0  0  0  0
    4.5250    1.3875    0.0000 C    0  0  0  0  0  0  0  0  0  0  0  0
    5.1292    1.9375    0.0000 C    0  0  0  0  0  0  0  0  0  0  0  0
    3.6917   -0.5625    0.0000 C    0  0  0  0  0  0  0  0  0  0  0  0
    4.6042    0.5708    0.0000 O    0  0  0  0  0  0  0  0  0  0  0  0
    3.8542    0.2375    0.0000 C    0  0  0  0  0  0  0  0  0  0  0  0
    5.9167    1.6833    0.0000 C    0  0  0  0  0  0  0  0  0  0  0  0
    6.5250    2.2333    0.0000 C    0  0  0  0  0  0  0  0  0  0  0  0
    3.7042    1.5625    0.0000 C    0  0  0  0  0  0  0  0  0  0  0  0
    0.6125    0.2458    0.0000 C    0  0  0  0  0  0  0  0  0  0  0  0
    3.3042    0.8500    0.0000 C    0  0  0  0  0  0  0  0  0  0  0  0
    0.3917    1.0458    0.0000 C    0  0  0  0  0  0  0  0  0  0  0  0
    7.4750    1.1708    0.0000 O    0  0  0  0  0  0  0  0  0  0  0  0
    4.9542    2.7375    0.0000 C    0  0  0  0  0  0  0  0  0  0  0  0
    1.3375   -2.2667    0.0000 O    0  0  0  0  0  0  0  0  0  0  0  0
    7.9125    2.5208    0.0000 O    0  0  0  0  0  0  0  0  0  0  0  0
    2.2292    0.4958    0.0000 O    0  0  0  0  0  0  0  0  0  0  0  0
    0.7875   -0.5625    0.0000 C    0  0  0  0  0  0  0  0  0  0  0  0
    6.3500    3.0333    0.0000 C    0  0  0  0  0  0  0  0  0  0  0  0
    5.5667    3.2958    0.0000 C    0  0  0  0  0  0  0  0  0  0  0  0
    4.1792    2.9958    0.0000 Cl   0  0  0  0  0  0  0  0  0  0  0  0
  2  1  1  0  0  0  0
  3  4  1  0  0  0  0
  4  1  1  0  0  0  0
  5  2  1  0  0  0  0
  5  3  1  0  0  0  0
  6 13  1  0  0  0  0
  7 10  1  0  0  0  0
  8  7  1  0  0  0  0
  9  3  2  0  0  0  0
 10 11  1  0  0  0  0
 11  9  1  0  0  0  0
 12  8  2  0  0  0  0
 13 12  1  0  0  0  0
 14 16  1  0  0  0  0
 14  7  2  0  0  0  0
 15 23  1  0  0  0  0
 16 11  2  0  0  0  0
 17 15  3  0  0  0  0
 18  6  1  0  0  0  0
 19  8  1  0  0  0  0
 20  2  2  0  0  0  0
 21  6  2  0  0  0  0
 22  4  2  0  0  0  0
 23  1  1  0  0  0  0
 24 25  1  0  0  0  0
 24 13  2  0  0  0  0
 25 19  2  0  0  0  0
 26 19  1  0  0  0  0
M  END
> <CdId>
952

> <Mol Weight>
388.782

> <Formula>
C17H9ClN2O5S

> <Click_ID>
CLK013_D07 __ __ 

$$$$
