CLK005_D02
 OpenBabel03191401532D

 27 30  0  0  0  0  0  0  0  0999 V2000
    0.5283    0.4979    0.0000 C    0  0  3  0  0  0  0  0  0  0  0  0
    1.2430    0.0950    0.0000 C    0  0  0  0  0  0  0  0  0  0  0  0
    0.5131    1.3228    0.0000 C    0  0  0  0  0  0  0  0  0  0  0  0
   -0.1900    0.0798    0.0000 C    0  0  0  0  0  0  0  0  0  0  0  0
    1.9576    0.5207    0.0000 C    0  0  0  0  0  0  0  0  0  0  0  0
    1.2543   -0.7184    0.0000 C    0  0  0  0  0  0  0  0  0  0  0  0
    1.2163    1.7371    0.0000 C    0  0  0  0  0  0  0  0  0  0  0  0
   -0.2015    1.7257    0.0000 C    0  0  0  0  0  0  0  0  0  0  0  0
   -0.1748   -0.7451    0.0000 C    0  0  0  0  0  0  0  0  0  0  0  0
   -0.9047    0.4790    0.0000 C    0  0  0  0  0  0  0  0  0  0  0  0
    1.9424    1.3380    0.0000 N    0  0  0  0  0  0  0  0  0  0  0  0
    2.6760    0.1140    0.0000 C    0  0  0  0  0  0  0  0  0  0  0  0
    1.9728   -1.1327    0.0000 C    0  0  0  0  0  0  0  0  0  0  0  0
    0.5359   -1.1556    0.0000 O    0  0  0  0  0  0  0  0  0  0  0  0
    1.2125    2.5733    0.0000 C    0  0  0  0  0  0  0  0  0  0  0  0
   -0.2167    2.5467    0.0000 C    0  0  0  0  0  0  0  0  0  0  0  0
   -0.9199    1.3076    0.0000 O    0  0  0  0  0  0  0  0  0  0  0  0
   -0.8818   -1.1745    0.0000 C    0  0  0  0  0  0  0  0  0  0  0  0
   -1.6230    0.0532    0.0000 C    0  0  0  0  0  0  0  0  0  0  0  0
    2.6873   -0.7146    0.0000 C    0  0  0  0  0  0  0  0  0  0  0  0
    0.4866    2.9649    0.0000 C    0  0  0  0  0  0  0  0  0  0  0  0
   -1.6078   -0.7716    0.0000 C    0  0  0  0  0  0  0  0  0  0  0  0
   -0.8705   -1.9994    0.0000 Cl   0  0  0  0  0  0  0  0  0  0  0  0
   -2.3149   -1.1973    0.0000 O    0  0  0  0  0  0  0  0  0  0  0  0
   -2.3035   -2.0259    0.0000 C    0  0  0  0  0  0  0  0  0  0  0  0
   -3.0143   -2.4517    0.0000 C    0  0  0  0  0  0  0  0  0  0  0  0
   -2.9991   -3.2765    0.0000 C    0  0  0  0  0  0  0  0  0  0  0  0
  1  2  1  0  0  0  0
  1  3  1  0  0  0  0
  1  4  1  0  0  0  0
  2  5  2  0  0  0  0
  2  6  1  0  0  0  0
  3  7  2  0  0  0  0
  3  8  1  0  0  0  0
  4  9  2  0  0  0  0
  4 10  1  0  0  0  0
  5 11  1  0  0  0  0
  5 12  1  0  0  0  0
  6 13  1  0  0  0  0
  6 14  2  0  0  0  0
  7 15  1  0  0  0  0
  7 11  1  0  0  0  0
  8 16  1  0  0  0  0
  8 17  2  0  0  0  0
  9 18  1  0  0  0  0
 10 19  2  0  0  0  0
 12 20  1  0  0  0  0
 13 20  1  0  0  0  0
 15 21  1  0  0  0  0
 16 21  1  0  0  0  0
 18 22  2  0  0  0  0
 18 23  1  0  0  0  0
 19 22  1  0  0  0  0
 22 24  1  0  0  0  0
 24 25  1  0  0  0  0
 25 26  1  0  0  0  0
 26 27  3  0  0  0  0
M  END
> <CdId>
351

> <Mol Weight>
381.852

> <Formula>
C22H20ClNO3

> <Click_ID>
CLK005_D02 __ __ 

$$$$
