CLK043D06
 OpenBabel03191401532D

 28 30  0  0  0  0  0  0  0  0999 V2000
    2.1656    2.4654    0.0000 S   0  0  0  0  0  0  0  0  0  0  0  0
   -2.7236   -2.7486    0.0000 C   0  0  0  0  0  0  0  0  0  0  0  0
   -2.7236   -3.5732    0.0000 N   0  0  0  0  0  0  0  0  0  0  0  0
   -2.0573   -2.2655    0.0000 C   0  0  0  0  0  0  0  0  0  0  0  0
   -2.0573   -1.4410    0.0000 S   0  0  0  0  0  0  0  0  0  0  0  0
   -3.5065   -2.4945    0.0000 C   0  0  0  0  0  0  0  0  0  0  0  0
   -3.5065   -3.8273    0.0000 C   0  0  0  0  0  0  0  0  0  0  0  0
   -3.9938   -3.1609    0.0000 S   0  0  0  0  0  0  0  0  0  0  0  0
    1.9115    1.6824    0.0000 C   0  0  0  0  0  0  0  0  0  0  0  0
    0.0417    0.5539    0.0000 C   0  0  0  0  0  0  0  0  0  0  0  0
   -1.2744   -2.5195    0.0000 C   0  0  0  0  0  0  0  0  0  0  0  0
   -1.2744   -1.1869    0.0000 C   0  0  0  0  0  0  0  0  0  0  0  0
    3.4815    4.2021    0.0000 C   0  0  0  0  0  0  0  0  0  0  0  0
    0.8496    0.7246    0.0000 C   0  0  0  0  0  0  0  0  0  0  0  0
    1.1036    1.5117    0.0000 C   0  0  0  0  0  0  0  0  0  0  0  0
   -0.2124   -0.2291    0.0000 N   0  0  0  0  0  0  0  0  0  0  0  0
   -0.7871   -1.8533    0.0000 C   0  0  0  0  0  0  0  0  0  0  0  0
    3.7356    4.9850    0.0000 C   0  0  0  0  0  0  0  0  0  0  0  0
    2.9485    2.2114    0.0000 O   0  0  0  0  0  0  0  0  0  0  0  0
    1.3826    2.7194    0.0000 O   0  0  0  0  0  0  0  0  0  0  0  0
    2.4196    3.2483    0.0000 N   0  0  0  0  0  0  0  0  0  0  0  0
   -0.5080    1.1661    0.0000 O   0  0  0  0  0  0  0  0  0  0  0  0
   -1.0162   -0.3998    0.0000 C   0  0  0  0  0  0  0  0  0  0  0  0
    3.2276    3.4233    0.0000 C   0  0  0  0  0  0  0  0  0  0  0  0
    2.4612    1.0703    0.0000 C   0  0  0  0  0  0  0  0  0  0  0  0
    1.4035    0.1124    0.0000 C   0  0  0  0  0  0  0  0  0  0  0  0
   -3.7648   -4.6144    0.0000 C   0  0  0  0  0  0  0  0  0  0  0  0
    2.2072    0.2832    0.0000 C   0  0  0  0  0  0  0  0  0  0  0  0
  2  4  1  0  0  0  0
  3  2  1  0  0  0  0
  4  5  1  0  0  0  0
  5 12  1  0  0  0  0
  6  2  2  0  0  0  0
  7  3  2  0  0  0  0
  8  6  1  0  0  0  0
  8  7  1  0  0  0  0
  9  1  1  0  0  0  0
 10 14  1  0  0  0  0
 11 17  1  0  0  0  0
 11  4  2  0  0  0  0
 12 23  1  0  0  0  0
 13 24  1  0  0  0  0
 14 15  2  0  0  0  0
 15  9  1  0  0  0  0
 16 10  1  0  0  0  0
 17 12  2  0  0  0  0
 18 13  3  0  0  0  0
 19  1  2  0  0  0  0
 20  1  2  0  0  0  0
 21  1  1  0  0  0  0
 22 10  2  0  0  0  0
 23 16  1  0  0  0  0
 24 21  1  0  0  0  0
 25  9  2  0  0  0  0
 26 14  1  0  0  0  0
 27  7  1  0  0  0  0
 28 25  1  0  0  0  0
 28 26  2  0  0  0  0
M  END
> <CdId>
3284

> <Mol Weight>
431.552

> <Formula>
C19H17N3O3S3

> <Click_ID>
CLK043D06 __ __ 

$$$$
