CLK040H11
 OpenBabel03191401532D

 25 26  0  0  0  0  0  0  0  0999 V2000
    0.9570   -0.1409    0.0000 N   0  0  0  0  0  0  0  0  0  0  0  0
    1.7399    0.0828    0.0000 C   0  0  0  0  0  0  0  0  0  0  0  0
    0.4598    0.5178    0.0000 C   0  0  0  0  0  0  0  0  0  0  0  0
    1.7317    0.9197    0.0000 N   0  0  0  0  0  0  0  0  0  0  0  0
    0.9321    1.2014    0.0000 C   0  0  0  0  0  0  0  0  0  0  0  0
    0.6877   -0.9073    0.0000 C   0  0  0  0  0  0  0  0  0  0  0  0
   -0.1119   -1.0606    0.0000 C   0  0  0  0  0  0  0  0  0  0  0  0
   -2.0340   -2.2329    0.0000 C   0  0  0  0  0  0  0  0  0  0  0  0
   -2.8419   -2.3986    0.0000 C   0  0  0  0  0  0  0  0  0  0  0  0
   -0.4308   -1.8269    0.0000 N   0  0  0  0  0  0  0  0  0  0  0  0
    2.4152   -0.4184    0.0000 O   0  0  0  0  0  0  0  0  0  0  0  0
   -0.3728    0.6048    0.0000 O   0  0  0  0  0  0  0  0  0  0  0  0
   -1.2055   -2.1376    0.0000 C   0  0  0  0  0  0  0  0  0  0  0  0
   -0.2486   -0.2486    0.0000 O   0  0  0  0  0  0  0  0  0  0  0  0
    1.5411    1.7648    0.0000 C   0  0  0  0  0  0  0  0  0  0  0  0
    0.0952    1.2925    0.0000 C   0  0  0  0  0  0  0  0  0  0  0  0
   -1.6032   -1.4126    0.0000 C   0  0  0  0  0  0  0  0  0  0  0  0
   -1.0895   -2.9579    0.0000 C   0  0  0  0  0  0  0  0  0  0  0  0
   -0.4432    1.9222    0.0000 C   0  0  0  0  0  0  0  0  0  0  0  0
    1.5990    2.5809    0.0000 C   0  0  0  0  0  0  0  0  0  0  0  0
   -1.0606   -0.7996    0.0000 C   0  0  0  0  0  0  0  0  0  0  0  0
   -1.7109   -3.4965    0.0000 C   0  0  0  0  0  0  0  0  0  0  0  0
    1.0564    3.2023    0.0000 C   0  0  0  0  0  0  0  0  0  0  0  0
    0.2486    3.2603    0.0000 C   0  0  0  0  0  0  0  0  0  0  0  0
   -0.3687    2.7424    0.0000 C   0  0  0  0  0  0  0  0  0  0  0  0
  2  1  1  0  0  0  0
  3  1  1  0  0  0  0
  4  2  1  0  0  0  0
  5  3  1  0  0  0  0
  5  4  1  0  0  0  0
  6  1  1  0  0  0  0
  7  6  1  0  0  0  0
  8 13  1  0  0  0  0
  9  8  3  0  0  0  0
 10  7  1  0  0  0  0
 11  2  2  0  0  0  0
 12  3  2  0  0  0  0
 13 10  1  0  0  0  0
 14  7  2  0  0  0  0
 15  5  1  0  0  0  0
 16  5  1  0  0  0  0
 17 13  1  0  0  0  0
 18 13  1  0  0  0  0
 19 16  1  0  0  0  0
 20 15  1  0  0  0  0
 21 17  1  0  0  0  0
 22 18  1  0  0  0  0
 23 20  1  0  0  0  0
 24 25  1  0  0  0  0
 24 23  1  0  0  0  0
 25 19  1  0  0  0  0
M  END
> <CdId>
3088

> <Mol Weight>
347.4519

> <Formula>
C19H29N3O3

> <Click_ID>
CLK040H11 __ __ 

$$$$
