CLK051B04
 OpenBabel03191401532D

 17 18  0  0  0  0  0  0  0  0999 V2000
    0.0833   -0.0458    0.0000 C   0  0  0  0  0  0  0  0  0  0  0  0
    0.0833   -1.6958    0.0000 N   0  0  0  0  0  0  0  0  0  0  0  0
    0.0833    0.7792    0.0000 C   0  0  0  0  0  0  0  0  0  0  0  0
   -0.6333   -0.4583    0.0000 C   0  0  0  0  0  0  0  0  0  0  0  0
   -0.6333   -1.2833    0.0000 C   0  0  0  0  0  0  0  0  0  0  0  0
    1.5125    2.4292    0.0000 C   0  0  0  0  0  0  0  0  0  0  0  0
    2.2250    2.8417    0.0000 C   0  0  0  0  0  0  0  0  0  0  0  0
    0.7958   -0.4583    0.0000 C   0  0  0  0  0  0  0  0  0  0  0  0
    0.7958   -1.2833    0.0000 C   0  0  0  0  0  0  0  0  0  0  0  0
   -0.6333    1.1917    0.0000 O   0  0  0  0  0  0  0  0  0  0  0  0
    0.7958    1.1917    0.0000 N   0  0  0  0  0  0  0  0  0  0  0  0
    0.7958    2.0167    0.0000 C   0  0  0  0  0  0  0  0  0  0  0  0
   -1.3458   -0.0458    0.0000 C   0  0  0  0  0  0  0  0  0  0  0  0
   -1.3458   -1.6958    0.0000 C   0  0  0  0  0  0  0  0  0  0  0  0
    1.5125   -1.6958    0.0000 C   0  0  0  0  0  0  0  0  0  0  0  0
   -2.0625   -0.4583    0.0000 C   0  0  0  0  0  0  0  0  0  0  0  0
   -2.0625   -1.2833    0.0000 C   0  0  0  0  0  0  0  0  0  0  0  0
  2  5  1  0  0  0  0
  2  9  2  0  0  0  0
  3  1  1  0  0  0  0
  4  1  1  0  0  0  0
  5  4  2  0  0  0  0
  6 12  1  0  0  0  0
  7  6  3  0  0  0  0
  8  1  2  0  0  0  0
  9  8  1  0  0  0  0
 10  3  2  0  0  0  0
 11  3  1  0  0  0  0
 12 11  1  0  0  0  0
 13  4  1  0  0  0  0
 14  5  1  0  0  0  0
 15  9  1  0  0  0  0
 16 13  2  0  0  0  0
 17 14  2  0  0  0  0
 17 16  1  0  0  0  0
M  END
> <CdId>
3906

> <Mol Weight>
224.2579

> <Formula>
C14H12N2O

> <Click_ID>
CLK051B04 __ __ 

$$$$
