CLK003_G05
 OpenBabel03191401532D

 34 37  0  0  0  0  0  0  0  0999 V2000
    0.4215   -0.2619    0.0000 C   0  0  3  0  0  0  0  0  0  0  0  0
    0.4215   -1.0858    0.0000 C   0  0  0  0  0  0  0  0  0  0  0  0
    1.1314    0.1442    0.0000 C   0  0  0  0  0  0  0  0  0  0  0  0
   -0.2962    0.1518    0.0000 C   0  0  0  0  0  0  0  0  0  0  0  0
    1.1314   -1.4997    0.0000 C   0  0  0  0  0  0  0  0  0  0  0  0
   -0.2962   -1.4958    0.0000 C   0  0  0  0  0  0  0  0  0  0  0  0
    1.8376   -0.2695    0.0000 C   0  0  0  0  0  0  0  0  0  0  0  0
    1.1314    0.9681    0.0000 C   0  0  0  0  0  0  0  0  0  0  0  0
   -1.0099   -0.2619    0.0000 C   0  0  0  0  0  0  0  0  0  0  0  0
   -0.2962    0.9796    0.0000 C   0  0  0  0  0  0  0  0  0  0  0  0
    1.8376   -1.0858    0.0000 N   0  0  0  0  0  0  0  0  0  0  0  0
    1.1314   -2.3235    0.0000 C   0  0  0  0  0  0  0  0  0  0  0  0
   -0.2962   -2.3235    0.0000 C   0  0  0  0  0  0  0  0  0  0  0  0
   -1.0174   -1.0821    0.0000 O   0  0  0  0  0  0  0  0  0  0  0  0
    2.5513    0.1518    0.0000 C   0  0  0  0  0  0  0  0  0  0  0  0
    1.8376    1.3781    0.0000 C   0  0  0  0  0  0  0  0  0  0  0  0
    0.4139    1.3896    0.0000 O   0  0  0  0  0  0  0  0  0  0  0  0
   -1.7275    0.1518    0.0000 C   0  0  0  0  0  0  0  0  0  0  0  0
   -1.0099    1.3896    0.0000 C   0  0  0  0  0  0  0  0  0  0  0  0
    2.5513   -1.4997    0.0000 C   0  0  0  0  0  0  0  0  0  0  0  0
    0.4139   -2.7373    0.0000 C   0  0  0  0  0  0  0  0  0  0  0  0
    2.5513    0.9644    0.0000 C   0  0  0  0  0  0  0  0  0  0  0  0
   -1.7275    0.9796    0.0000 C   0  0  0  0  0  0  0  0  0  0  0  0
   -2.4412   -0.2619    0.0000 O   0  0  0  0  0  0  0  0  0  0  0  0
    0.4139   -3.5726    0.0000 C   0  0  0  0  0  0  0  0  0  0  0  0
   -0.4215   -2.7373    0.0000 C   0  0  0  0  0  0  0  0  0  0  0  0
    2.1375    1.6857    0.0000 C   0  0  0  0  0  0  0  0  0  0  0  0
    3.2765    1.3896    0.0000 C   0  0  0  0  0  0  0  0  0  0  0  0
   -2.4412    1.3820    0.0000 O   0  0  0  0  0  0  0  0  0  0  0  0
   -3.1588    0.1518    0.0000 C   0  0  0  0  0  0  0  0  0  0  0  0
   -2.4412    2.2058    0.0000 C   0  0  0  0  0  0  0  0  0  0  0  0
   -3.1588    0.9681    0.0000 C   0  0  0  0  0  0  0  0  0  0  0  0
   -1.7275    2.6196    0.0000 C   0  0  0  0  0  0  0  0  0  0  0  0
   -1.7275    3.4473    0.0000 C   0  0  0  0  0  0  0  0  0  0  0  0
  1  2  1  0  0  0  0
  1  3  1  0  0  0  0
  1  4  1  0  0  0  0
  2  5  2  0  0  0  0
  2  6  1  0  0  0  0
  3  7  2  0  0  0  0
  3  8  1  0  0  0  0
  4  9  1  0  0  0  0
  4 10  2  0  0  0  0
  5 11  1  0  0  0  0
  5 12  1  0  0  0  0
  6 13  1  0  0  0  0
  6 14  2  0  0  0  0
  7 15  1  0  0  0  0
  7 11  1  0  0  0  0
  8 16  1  0  0  0  0
  8 17  2  0  0  0  0
  9 18  2  0  0  0  0
 10 19  1  0  0  0  0
 11 20  1  0  0  0  0
 12 21  1  0  0  0  0
 13 21  1  0  0  0  0
 15 22  1  0  0  0  0
 16 22  1  0  0  0  0
 18 23  1  0  0  0  0
 18 24  1  0  0  0  0
 19 23  2  0  0  0  0
 21 25  1  0  0  0  0
 21 26  1  0  0  0  0
 22 27  1  0  0  0  0
 22 28  1  0  0  0  0
 23 29  1  0  0  0  0
 24 30  1  0  0  0  0
 29 31  1  0  0  0  0
 30 32  1  0  0  0  0
 31 33  1  0  0  0  0
 33 34  3  0  0  0  0
M  END
> <CdId>
224

> <Mol Weight>
461.5925

> <Formula>
C29H35NO4

> <Click_ID>
CLK003_G05 __ __ 

$$$$
