CLK020_F11
 OpenBabel03191401532D

 20 21  0  0  0  0  0  0  0  0999 V2000
   -0.7905   -1.0058    0.0000 C    0  0  0  0  0  0  0  0  0  0  0  0
   -0.3808   -0.2898    0.0000 C    0  0  0  0  0  0  0  0  0  0  0  0
    2.1151   -1.7384    0.0000 C    0  0  0  0  0  0  0  0  0  0  0  0
    1.6805   -2.4380    0.0000 N    0  0  0  0  0  0  0  0  0  0  0  0
    0.8568   -2.4380    0.0000 C    0  0  0  0  0  0  0  0  0  0  0  0
    1.7260   -1.0100    0.0000 O    0  0  0  0  0  0  0  0  0  0  0  0
   -0.3808   -1.7178    0.0000 C    0  0  0  0  0  0  0  0  0  0  0  0
    3.3320   -2.4877    0.0000 O    0  0  0  0  0  0  0  0  0  0  0  0
    2.9347   -1.7633    0.0000 C    0  0  0  0  0  0  0  0  0  0  0  0
    0.4470   -1.7178    0.0000 C    0  0  0  0  0  0  0  0  0  0  0  0
    4.1516   -2.5125    0.0000 C    0  0  0  0  0  0  0  0  0  0  0  0
    5.7989   -2.5622    0.0000 C    0  0  0  0  0  0  0  0  0  0  0  0
    6.6227   -2.5870    0.0000 Br   0  0  0  0  0  0  0  0  0  0  0  0
    4.5738   -1.8129    0.0000 C    0  0  0  0  0  0  0  0  0  0  0  0
    4.5365   -3.2409    0.0000 C    0  0  0  0  0  0  0  0  0  0  0  0
    5.3561   -3.2658    0.0000 C    0  0  0  0  0  0  0  0  0  0  0  0
    5.4016   -1.8295    0.0000 C    0  0  0  0  0  0  0  0  0  0  0  0
   -0.3725   -3.1458    0.0000 C    0  0  0  0  0  0  0  0  0  0  0  0
    0.4470   -3.1458    0.0000 C    0  0  0  0  0  0  0  0  0  0  0  0
   -0.7905   -2.4338    0.0000 C    0  0  0  0  0  0  0  0  0  0  0  0
  2  1  3  0  0  0  0
  3  4  1  0  0  0  0
  4  5  1  0  0  0  0
  5 10  2  0  0  0  0
  6  3  2  0  0  0  0
  7  1  1  0  0  0  0
  8  9  1  0  0  0  0
  9  3  1  0  0  0  0
 10  7  1  0  0  0  0
 11  8  1  0  0  0  0
 12 16  2  0  0  0  0
 13 12  1  0  0  0  0
 14 11  1  0  0  0  0
 15 11  2  0  0  0  0
 16 15  1  0  0  0  0
 17 14  2  0  0  0  0
 17 12  1  0  0  0  0
 18 20  1  0  0  0  0
 19 18  2  0  0  0  0
 19  5  1  0  0  0  0
 20  7  2  0  0  0  0
M  END
> <CdId>
1536

> <Mol Weight>
330.176

> <Formula>
C16H12BrNO2

> <Click_ID>
CLK020_F11 __ __ 

$$$$
