CLK050G06
 OpenBabel03191401532D

 17 17  0  0  0  0  0  0  0  0999 V2000
    0.5042    1.8458    0.0000 C    0  0  0  0  0  0  0  0  0  0  0  0
    1.9292    3.4958    0.0000 C    0  0  0  0  0  0  0  0  0  0  0  0
    2.6458    3.9083    0.0000 C    0  0  0  0  0  0  0  0  0  0  0  0
   -0.2125    2.2583    0.0000 O    0  0  0  0  0  0  0  0  0  0  0  0
    1.2167    2.2583    0.0000 N    0  0  0  0  0  0  0  0  0  0  0  0
    0.5042    1.0208    0.0000 N    0  0  0  0  0  0  0  0  0  0  0  0
   -0.9250   -3.1042    0.0000 C    0  0  0  0  0  0  0  0  0  0  0  0
   -0.9250   -1.4542    0.0000 C    0  0  0  0  0  0  0  0  0  0  0  0
   -0.9250   -3.9292    0.0000 Cl   0  0  0  0  0  0  0  0  0  0  0  0
    1.2167    3.0833    0.0000 C    0  0  0  0  0  0  0  0  0  0  0  0
   -0.2125   -2.6917    0.0000 C    0  0  0  0  0  0  0  0  0  0  0  0
   -1.6417   -2.6917    0.0000 C    0  0  0  0  0  0  0  0  0  0  0  0
   -1.6417   -1.8667    0.0000 C    0  0  0  0  0  0  0  0  0  0  0  0
   -0.2125   -1.8667    0.0000 C    0  0  0  0  0  0  0  0  0  0  0  0
   -0.9250   -0.6292    0.0000 O    0  0  0  0  0  0  0  0  0  0  0  0
   -0.2125    0.6083    0.0000 C    0  0  0  0  0  0  0  0  0  0  0  0
   -0.2125   -0.2167    0.0000 C    0  0  0  0  0  0  0  0  0  0  0  0
  2 10  1  0  0  0  0
  3  2  3  0  0  0  0
  4  1  2  0  0  0  0
  5  1  1  0  0  0  0
  6  1  1  0  0  0  0
  7 12  2  0  0  0  0
  8 15  1  0  0  0  0
  9  7  1  0  0  0  0
 10  5  1  0  0  0  0
 11 14  2  0  0  0  0
 11  7  1  0  0  0  0
 12 13  1  0  0  0  0
 13  8  2  0  0  0  0
 14  8  1  0  0  0  0
 15 17  1  0  0  0  0
 16  6  1  0  0  0  0
 17 16  1  0  0  0  0
M  END
> <CdId>
3847

> <Mol Weight>
252.697

> <Formula>
C12H13ClN2O2

> <Click_ID>
CLK050G06 __ __ 

$$$$
