CLK022_F07
 OpenBabel03191401532D

 25 26  0  0  0  0  0  0  0  0999 V2000
    5.4466    0.4214    0.0000 C   0  0  0  0  0  0  0  0  0  0  0  0
    9.9816    1.1360    0.0000 C   0  0  0  0  0  0  0  0  0  0  0  0
   10.8061    1.1360    0.0000 C   0  0  0  0  0  0  0  0  0  0  0  0
    1.7362    2.5652    0.0000 C   0  0  0  0  0  0  0  0  0  0  0  0
    6.2711    0.4214    0.0000 C   0  0  0  0  0  0  0  0  0  0  0  0
    1.3239    1.8506    0.0000 C   0  0  0  0  0  0  0  0  0  0  0  0
    2.5607    2.5652    0.0000 C   0  0  0  0  0  0  0  0  0  0  0  0
    5.0343   -0.2932    0.0000 O   0  0  0  0  0  0  0  0  0  0  0  0
    5.0343    1.1360    0.0000 N   0  0  0  0  0  0  0  0  0  0  0  0
    6.6834   -0.2932    0.0000 C   0  0  0  0  0  0  0  0  0  0  0  0
    6.6834    1.1360    0.0000 C   0  0  0  0  0  0  0  0  0  0  0  0
    1.7362    1.1360    0.0000 C   0  0  0  0  0  0  0  0  0  0  0  0
    2.9730    1.8506    0.0000 C   0  0  0  0  0  0  0  0  0  0  0  0
    7.9202    0.4214    0.0000 C   0  0  0  0  0  0  0  0  0  0  0  0
    2.5607    1.1360    0.0000 C   0  0  0  0  0  0  0  0  0  0  0  0
    1.3239    3.2798    0.0000 O   0  0  0  0  0  0  0  0  0  0  0  0
    7.5080   -0.2932    0.0000 C   0  0  0  0  0  0  0  0  0  0  0  0
    7.5080    1.1360    0.0000 C   0  0  0  0  0  0  0  0  0  0  0  0
    0.4993    1.8506    0.0000 O   0  0  0  0  0  0  0  0  0  0  0  0
    4.2098    1.1360    0.0000 C   0  0  0  0  0  0  0  0  0  0  0  0
    9.1570    1.1360    0.0000 C   0  0  0  0  0  0  0  0  0  0  0  0
    8.7448    0.4214    0.0000 O   0  0  0  0  0  0  0  0  0  0  0  0
    3.7975    1.8506    0.0000 C   0  0  0  0  0  0  0  0  0  0  0  0
    1.7362    3.9853    0.0000 C   0  0  0  0  0  0  0  0  0  0  0  0
    0.0871    1.1360    0.0000 C   0  0  0  0  0  0  0  0  0  0  0  0
  2 21  1  0  0  0  0
  3  2  3  0  0  0  0
  4  7  1  0  0  0  0
  4  6  2  0  0  0  0
  5  1  1  0  0  0  0
  6 12  1  0  0  0  0
  7 13  2  0  0  0  0
  8  1  2  0  0  0  0
  9  1  1  0  0  0  0
 10  5  1  0  0  0  0
 11  5  2  0  0  0  0
 12 15  2  0  0  0  0
 13 23  1  0  0  0  0
 14 18  2  0  0  0  0
 14 17  1  0  0  0  0
 15 13  1  0  0  0  0
 16  4  1  0  0  0  0
 17 10  2  0  0  0  0
 18 11  1  0  0  0  0
 19  6  1  0  0  0  0
 20  9  1  0  0  0  0
 21 22  1  0  0  0  0
 22 14  1  0  0  0  0
 23 20  1  0  0  0  0
 24 16  1  0  0  0  0
 25 19  1  0  0  0  0
M  END
> <CdId>
1681

> <Mol Weight>
339.385

> <Formula>
C20H21NO4

> <Click_ID>
CLK022_F07 __ __ 

$$$$
