CLK044C11
 OpenBabel03191401532D

 16 16  0  0  0  0  0  0  0  0999 V2000
   -0.4042   -1.2625    0.0000 N   0  3  0  0  0  0  0  0  0  0  0  0
    0.3125   -0.0250    0.0000 C   0  0  0  0  0  0  0  0  0  0  0  0
    0.3125   -0.8500    0.0000 C   0  0  0  0  0  0  0  0  0  0  0  0
   -0.4042    0.3875    0.0000 C   0  0  0  0  0  0  0  0  0  0  0  0
   -1.1167    2.4500    0.0000 C   0  0  0  0  0  0  0  0  0  0  0  0
   -1.1167    3.2750    0.0000 C   0  0  0  0  0  0  0  0  0  0  0  0
   -1.1167   -0.8500    0.0000 O   0  5  0  0  0  0  0  0  0  0  0  0
   -0.4042   -2.0875    0.0000 O   0  0  0  0  0  0  0  0  0  0  0  0
    1.0250   -1.2625    0.0000 C   0  0  0  0  0  0  0  0  0  0  0  0
   -1.1167   -0.0250    0.0000 O   0  0  0  0  0  0  0  0  0  0  0  0
   -0.4042    1.2125    0.0000 N   0  0  0  0  0  0  0  0  0  0  0  0
    1.0250    0.3875    0.0000 C   0  0  0  0  0  0  0  0  0  0  0  0
   -1.1167    1.6250    0.0000 C   0  0  0  0  0  0  0  0  0  0  0  0
    1.7375   -0.0250    0.0000 C   0  0  0  0  0  0  0  0  0  0  0  0
    1.7375   -0.8500    0.0000 C   0  0  0  0  0  0  0  0  0  0  0  0
    1.0250   -2.0875    0.0000 C   0  0  0  0  0  0  0  0  0  0  0  0
  2  3  1  0  0  0  0
  3  1  1  0  0  0  0
  4  2  1  0  0  0  0
  5 13  1  0  0  0  0
  6  5  3  0  0  0  0
  7  1  1  0  0  0  0
  8  1  2  0  0  0  0
  9  3  2  0  0  0  0
 10  4  2  0  0  0  0
 11  4  1  0  0  0  0
 12  2  2  0  0  0  0
 12 14  1  0  0  0  0
 13 11  1  0  0  0  0
 14 15  2  0  0  0  0
 15  9  1  0  0  0  0
 16  9  1  0  0  0  0
M  END
> <CdId>
3403

> <Mol Weight>
218.2087

> <Formula>
C11H10N2O3

> <Click_ID>
CLK044C11 __ __ 

$$$$
