CLK012_A02
 OpenBabel03191401532D

 20 21  0  0  0  0  0  0  0  0999 V2000
    1.5646   -0.8156    0.0000 N   0  0  0  0  0  0  0  0  0  0  0  0
    1.8225   -1.6020    0.0000 C   0  0  0  0  0  0  0  0  0  0  0  0
    2.2345   -0.3288    0.0000 C   0  0  0  0  0  0  0  0  0  0  0  0
    2.9003   -0.8156    0.0000 C   0  0  0  0  0  0  0  0  0  0  0  0
    2.6464   -1.6020    0.0000 S   0  0  0  0  0  0  0  0  0  0  0  0
    3.6867   -0.5617    0.0000 C   0  0  0  0  0  0  0  0  0  0  0  0
    4.3816    2.6672    0.0000 C   0  0  0  0  0  0  0  0  0  0  0  0
    0.6117    0.2455    0.0000 C   0  0  0  0  0  0  0  0  0  0  0  0
    0.3912    1.0444    0.0000 C   0  0  0  0  0  0  0  0  0  0  0  0
    1.3357   -2.2636    0.0000 O   0  0  0  0  0  0  0  0  0  0  0  0
    2.2262    0.4951    0.0000 O   0  0  0  0  0  0  0  0  0  0  0  0
    4.2068    1.8558    0.0000 C   0  0  0  0  0  0  0  0  0  0  0  0
    0.7864   -0.5617    0.0000 C   0  0  0  0  0  0  0  0  0  0  0  0
    3.7699    3.2165    0.0000 O   0  0  0  0  0  0  0  0  0  0  0  0
    3.8615    0.2455    0.0000 C   0  0  0  0  0  0  0  0  0  0  0  0
    4.8185    1.3107    0.0000 C   0  0  0  0  0  0  0  0  0  0  0  0
    3.4246    1.6061    0.0000 C   0  0  0  0  0  0  0  0  0  0  0  0
    5.1597    2.9169    0.0000 O   0  0  0  0  0  0  0  0  0  0  0  0
    3.2498    0.7989    0.0000 C   0  0  0  0  0  0  0  0  0  0  0  0
    4.6437    0.5076    0.0000 C   0  0  0  0  0  0  0  0  0  0  0  0
  2  1  1  0  0  0  0
  3  1  1  0  0  0  0
  4  3  1  0  0  0  0
  4  5  1  0  0  0  0
  5  2  1  0  0  0  0
  6  4  2  0  0  0  0
  7 12  1  0  0  0  0
  8 13  1  0  0  0  0
  9  8  3  0  0  0  0
 10  2  2  0  0  0  0
 11  3  2  0  0  0  0
 12 16  1  0  0  0  0
 12 17  2  0  0  0  0
 13  1  1  0  0  0  0
 14  7  2  0  0  0  0
 15  6  1  0  0  0  0
 16 20  2  0  0  0  0
 17 19  1  0  0  0  0
 18  7  1  0  0  0  0
 19 15  2  0  0  0  0
 20 15  1  0  0  0  0
M  END
> <CdId>
837

> <Mol Weight>
287.291

> <Formula>
C14H9NO4S

> <Click_ID>
CLK012_A02 __ __ 

$$$$
