CLK016_G03
 OpenBabel03191401532D

 25 26  0  0  0  0  0  0  0  0999 V2000
    1.5667   -0.8167    0.0000 N   0  0  0  0  0  0  0  0  0  0  0  0
    1.8250   -1.6042    0.0000 C   0  0  0  0  0  0  0  0  0  0  0  0
    2.2375   -0.3292    0.0000 C   0  0  0  0  0  0  0  0  0  0  0  0
    2.9042   -0.8167    0.0000 C   0  0  0  0  0  0  0  0  0  0  0  0
    2.6500   -1.6042    0.0000 S   0  0  0  0  0  0  0  0  0  0  0  0
    3.6917   -0.5625    0.0000 C   0  0  0  0  0  0  0  0  0  0  0  0
    0.6125    0.2458    0.0000 C   0  0  0  0  0  0  0  0  0  0  0  0
    0.3917    1.0458    0.0000 C   0  0  0  0  0  0  0  0  0  0  0  0
    1.3375   -2.2667    0.0000 O   0  0  0  0  0  0  0  0  0  0  0  0
    4.8167    1.3000    0.0000 C   0  0  0  0  0  0  0  0  0  0  0  0
    2.2292    0.4958    0.0000 O   0  0  0  0  0  0  0  0  0  0  0  0
    2.9875    2.9583    0.0000 C   0  0  0  0  0  0  0  0  0  0  0  0
    4.2042    1.8583    0.0000 C   0  0  0  0  0  0  0  0  0  0  0  0
    3.8625    0.2458    0.0000 C   0  0  0  0  0  0  0  0  0  0  0  0
    0.7875   -0.5625    0.0000 C   0  0  0  0  0  0  0  0  0  0  0  0
    4.6417    0.4958    0.0000 C   0  0  0  0  0  0  0  0  0  0  0  0
    4.3792    2.6583    0.0000 O   0  0  0  0  0  0  0  0  0  0  0  0
    2.8125    2.1500    0.0000 O   0  0  0  0  0  0  0  0  0  0  0  0
    3.4250    1.5958    0.0000 C   0  0  0  0  0  0  0  0  0  0  0  0
    3.7667    3.2125    0.0000 C   0  0  0  0  0  0  0  0  0  0  0  0
    2.3667    3.5083    0.0000 N   0  0  0  0  0  0  0  0  0  0  0  0
    3.2500    0.7958    0.0000 C   0  0  0  0  0  0  0  0  0  0  0  0
    5.6000    1.5500    0.0000 O   0  0  0  0  0  0  0  0  0  0  0  0
    5.7750    2.3583    0.0000 C   0  0  0  0  0  0  0  0  0  0  0  0
    5.1625    2.9083    0.0000 C   0  0  0  0  0  0  0  0  0  0  0  0
  2  1  1  0  0  0  0
  3  1  1  0  0  0  0
  4  3  1  0  0  0  0
  4  5  1  0  0  0  0
  5  2  1  0  0  0  0
  6  4  2  0  0  0  0
  7 15  1  0  0  0  0
  8  7  3  0  0  0  0
  9  2  2  0  0  0  0
 10 16  1  0  0  0  0
 11  3  2  0  0  0  0
 12 20  1  0  0  0  0
 13 19  1  0  0  0  0
 13 10  2  0  0  0  0
 14  6  1  0  0  0  0
 15  1  1  0  0  0  0
 16 14  2  0  0  0  0
 17 13  1  0  0  0  0
 18 12  2  0  0  0  0
 19 22  2  0  0  0  0
 20 17  1  0  0  0  0
 21 12  1  0  0  0  0
 22 14  1  0  0  0  0
 23 10  1  0  0  0  0
 24 23  1  0  0  0  0
 25 24  1  0  0  0  0
M  END
> <CdId>
1218

> <Mol Weight>
360.384

> <Formula>
C17H16N2O5S

> <Click_ID>
CLK016_G03 __ __ 

$$$$
