CLK001_H03
 OpenBabel03191401532D

 23 24  0  0  0  0  0  0  0  0999 V2000
   -1.4895   -0.5003    0.0000 C   0  0  0  0  0  0  0  0  0  0  0  0
   -0.7770   -0.9134    0.0000 C   0  0  0  0  0  0  0  0  0  0  0  0
   -1.4895    0.3222    0.0000 C   0  0  0  0  0  0  0  0  0  0  0  0
   -2.2058   -0.9134    0.0000 C   0  0  0  0  0  0  0  0  0  0  0  0
   -0.0607   -0.5003    0.0000 C   0  0  0  0  0  0  0  0  0  0  0  0
   -2.2058    0.7353    0.0000 N   0  0  0  0  0  0  0  0  0  0  0  0
   -0.7770    0.7353    0.0000 O   0  0  0  0  0  0  0  0  0  0  0  0
   -2.9184   -0.5003    0.0000 N   0  0  0  0  0  0  0  0  0  0  0  0
   -2.2058   -1.7397    0.0000 O   0  0  0  0  0  0  0  0  0  0  0  0
    0.6519   -0.9134    0.0000 C   0  0  0  0  0  0  0  0  0  0  0  0
   -0.0607    0.3222    0.0000 C   0  0  0  0  0  0  0  0  0  0  0  0
   -2.9184    0.3222    0.0000 C   0  0  0  0  0  0  0  0  0  0  0  0
    1.3682   -0.5003    0.0000 C   0  0  0  0  0  0  0  0  0  0  0  0
    0.6519    0.7353    0.0000 C   0  0  0  0  0  0  0  0  0  0  0  0
   -3.6347    0.7353    0.0000 O   0  0  0  0  0  0  0  0  0  0  0  0
    1.3682    0.3222    0.0000 C   0  0  0  0  0  0  0  0  0  0  0  0
    2.0808   -0.9134    0.0000 O   0  0  0  0  0  0  0  0  0  0  0  0
    2.0808    0.7353    0.0000 O   0  0  0  0  0  0  0  0  0  0  0  0
    2.0808   -1.7397    0.0000 C   0  0  0  0  0  0  0  0  0  0  0  0
    2.0808    1.5577    0.0000 C   0  0  0  0  0  0  0  0  0  0  0  0
    2.7971   -2.1490    0.0000 C   0  0  0  0  0  0  0  0  0  0  0  0
    2.7971    1.9708    0.0000 C   0  0  0  0  0  0  0  0  0  0  0  0
    2.7971    2.7971    0.0000 C   0  0  0  0  0  0  0  0  0  0  0  0
  1  2  2  0  0  0  0
  1  3  1  0  0  0  0
  1  4  1  0  0  0  0
  2  5  1  0  0  0  0
  3  6  1  0  0  0  0
  3  7  2  0  0  0  0
  4  8  1  0  0  0  0
  4  9  2  0  0  0  0
  5 10  1  0  0  0  0
  5 11  2  0  0  0  0
  6 12  1  0  0  0  0
  8 12  1  0  0  0  0
 10 13  2  0  0  0  0
 11 14  1  0  0  0  0
 12 15  2  0  0  0  0
 13 16  1  0  0  0  0
 13 17  1  0  0  0  0
 14 16  2  0  0  0  0
 16 18  1  0  0  0  0
 17 19  1  0  0  0  0
 18 20  1  0  0  0  0
 19 21  1  0  0  0  0
 20 22  1  0  0  0  0
 22 23  3  0  0  0  0
M  END
> <CdId>
72

> <Mol Weight>
314.2928

> <Formula>
C16H14N2O5

> <Click_ID>
CLK001_H03 __ __ 

$$$$
