CLK020_D05
 OpenBabel03191401532D

 28 31  0  0  0  0  0  0  0  0999 V2000
    3.5639    2.5240    0.0000 C   0  0  3  0  0  0  0  0  0  0  0  0
    2.8996    3.0096    0.0000 C   0  0  0  0  0  0  0  0  0  0  0  0
    2.2309    2.5240    0.0000 N   0  0  0  0  0  0  0  0  0  0  0  0
    3.3119    1.7407    0.0000 C   0  0  0  0  0  0  0  0  0  0  0  0
    2.4828    1.7407    0.0000 C   0  0  0  0  0  0  0  0  0  0  0  0
    4.3197    2.1942    0.0000 C   0  0  0  0  0  0  0  0  0  0  0  0
    8.0943    1.9880    0.0000 N   0  0  0  0  0  0  0  0  0  0  0  0
    4.8923    2.7851    0.0000 C   0  0  0  0  0  0  0  0  0  0  0  0
    0.9391    2.1301    0.0000 C   0  0  0  0  0  0  0  0  0  0  0  0
    0.4306    1.4796    0.0000 C   0  0  0  0  0  0  0  0  0  0  0  0
    7.2881    2.1850    0.0000 C   0  0  0  0  0  0  0  0  0  0  0  0
    2.8996    3.8341    0.0000 O   0  0  0  0  0  0  0  0  0  0  0  0
    5.6940    2.5836    0.0000 C   0  0  0  0  0  0  0  0  0  0  0  0
    8.7264    2.5149    0.0000 C   0  0  0  0  0  0  0  0  0  0  0  0
    8.4012    1.2185    0.0000 C   0  0  0  0  0  0  0  0  0  0  0  0
    1.4476    2.7851    0.0000 C   0  0  0  0  0  0  0  0  0  0  0  0
    3.9762    3.2386    0.0000 O   0  0  0  0  0  0  0  0  0  0  0  0
    4.7320    3.3440    0.0000 O   0  0  0  0  0  0  0  0  0  0  0  0
    9.2257    1.2780    0.0000 C   0  0  0  0  0  0  0  0  0  0  0  0
    9.4273    2.0842    0.0000 C   0  0  0  0  0  0  0  0  0  0  0  0
    7.0682    2.9775    0.0000 C   0  0  0  0  0  0  0  0  0  0  0  0
    6.7200    1.5895    0.0000 C   0  0  0  0  0  0  0  0  0  0  0  0
    5.9230    1.7956    0.0000 C   0  0  0  0  0  0  0  0  0  0  0  0
    6.2665    3.1791    0.0000 C   0  0  0  0  0  0  0  0  0  0  0  0
    3.7242    1.0261    0.0000 C   0  0  0  0  0  0  0  0  0  0  0  0
    2.0751    1.0261    0.0000 C   0  0  0  0  0  0  0  0  0  0  0  0
    3.3119    0.3115    0.0000 C   0  0  0  0  0  0  0  0  0  0  0  0
    2.4828    0.3115    0.0000 C   0  0  0  0  0  0  0  0  0  0  0  0
  2  1  1  0  0  0  0
  3  2  1  0  0  0  0
  3  5  1  0  0  0  0
  4  1  1  0  0  0  0
  5  4  2  0  0  0  0
  6  1  1  0  0  0  0
  7 11  1  0  0  0  0
  8  6  1  0  0  0  0
  9 16  1  0  0  0  0
 10  9  3  0  0  0  0
 11 21  2  0  0  0  0
 11 22  1  0  0  0  0
 12  2  2  0  0  0  0
 13  8  1  0  0  0  0
 14  7  1  0  0  0  0
 15  7  1  0  0  0  0
 16  3  1  0  0  0  0
 17  1  1  0  0  0  0
 18  8  2  0  0  0  0
 19 15  2  0  0  0  0
 20 14  2  0  0  0  0
 20 19  1  0  0  0  0
 21 24  1  0  0  0  0
 22 23  2  0  0  0  0
 23 13  1  0  0  0  0
 24 13  2  0  0  0  0
 25  4  1  0  0  0  0
 26  5  1  0  0  0  0
 26 28  2  0  0  0  0
 27 25  2  0  0  0  0
 28 27  1  0  0  0  0
M  END
> <CdId>
1510

> <Mol Weight>
370.4006

> <Formula>
C23H18N2O3

> <Click_ID>
CLK020_D05 __ __ 

$$$$
