CLK015_A05
 OpenBabel03191401532D

 28 30  0  0  0  0  0  0  0  0999 V2000
    6.4160   -2.7126    0.0000 N    0  0  0  0  0  0  0  0  0  0  0  0
    6.0073   -3.4227    0.0000 C    0  0  0  0  0  0  0  0  0  0  0  0
    5.8628   -2.0974    0.0000 C    0  0  0  0  0  0  0  0  0  0  0  0
    5.1196   -2.4318    0.0000 C    0  0  0  0  0  0  0  0  0  0  0  0
    5.2022   -3.2576    0.0000 N    0  0  0  0  0  0  0  0  0  0  0  0
    4.4012   -2.0231    0.0000 C    0  0  0  0  0  0  0  0  0  0  0  0
    2.2461   -3.2741    0.0000 C    0  0  0  0  0  0  0  0  0  0  0  0
    2.2461   -2.4318    0.0000 C    0  0  0  0  0  0  0  0  0  0  0  0
    2.9727   -3.6787    0.0000 C    0  0  0  0  0  0  0  0  0  0  0  0
    6.3417   -4.1783    0.0000 S    0  0  0  0  0  0  0  0  0  0  0  0
    3.6828   -2.4442    0.0000 C    0  0  0  0  0  0  0  0  0  0  0  0
    7.2377   -2.6300    0.0000 C    0  0  0  0  0  0  0  0  0  0  0  0
    0.8216   -4.9338    0.0000 C    0  0  0  0  0  0  0  0  0  0  0  0
    0.1033   -5.3426    0.0000 C    0  0  0  0  0  0  0  0  0  0  0  0
    6.0362   -1.3005    0.0000 O    0  0  0  0  0  0  0  0  0  0  0  0
    2.9644   -2.0231    0.0000 C    0  0  0  0  0  0  0  0  0  0  0  0
    3.6828   -3.2617    0.0000 C    0  0  0  0  0  0  0  0  0  0  0  0
    1.5400   -2.0231    0.0000 Cl   0  0  0  0  0  0  0  0  0  0  0  0
    4.5870   -3.8025    0.0000 C    0  0  0  0  0  0  0  0  0  0  0  0
    1.5277   -3.6828    0.0000 O    0  0  0  0  0  0  0  0  0  0  0  0
    2.9727   -4.5003    0.0000 O    0  0  0  0  0  0  0  0  0  0  0  0
    1.5277   -4.5127    0.0000 C    0  0  0  0  0  0  0  0  0  0  0  0
    7.5679   -1.8745    0.0000 C    0  0  0  0  0  0  0  0  0  0  0  0
    7.7166   -3.2989    0.0000 C    0  0  0  0  0  0  0  0  0  0  0  0
    3.6828   -4.9215    0.0000 C    0  0  0  0  0  0  0  0  0  0  0  0
    8.5258   -3.2122    0.0000 C    0  0  0  0  0  0  0  0  0  0  0  0
    8.3896   -1.8001    0.0000 C    0  0  0  0  0  0  0  0  0  0  0  0
    8.8726   -2.4690    0.0000 C    0  0  0  0  0  0  0  0  0  0  0  0
  2  1  1  0  0  0  0
  3  1  1  0  0  0  0
  4  3  1  0  0  0  0
  5  2  1  0  0  0  0
  5  4  1  0  0  0  0
  6  4  2  0  0  0  0
  7  9  1  0  0  0  0
  7  8  2  0  0  0  0
  8 16  1  0  0  0  0
  9 17  2  0  0  0  0
 10  2  2  0  0  0  0
 11  6  1  0  0  0  0
 12  1  1  0  0  0  0
 13 22  1  0  0  0  0
 14 13  3  0  0  0  0
 15  3  2  0  0  0  0
 16 11  2  0  0  0  0
 17 11  1  0  0  0  0
 18  8  1  0  0  0  0
 19  5  1  0  0  0  0
 20  7  1  0  0  0  0
 21  9  1  0  0  0  0
 22 20  1  0  0  0  0
 23 12  1  0  0  0  0
 24 12  2  0  0  0  0
 25 21  1  0  0  0  0
 26 24  1  0  0  0  0
 27 23  2  0  0  0  0
 28 26  2  0  0  0  0
 28 27  1  0  0  0  0
M  END
> <CdId>
1080

> <Mol Weight>
412.889

> <Formula>
C21H17ClN2O3S

> <Click_ID>
CLK015_A05 __ __ 

$$$$
