CLK050C04
 OpenBabel03191401532D

 22 23  0  0  0  0  0  0  0  0999 V2000
   -0.1333    0.4875    0.0000 C   0  0  0  0  0  0  0  0  0  0  0  0
   -0.1333    1.3125    0.0000 N   0  0  0  0  0  0  0  0  0  0  0  0
   -2.9917    1.3125    0.0000 C   0  0  0  0  0  0  0  0  0  0  0  0
    0.5833    0.0750    0.0000 C   0  0  0  0  0  0  0  0  0  0  0  0
   -3.7042    0.9000    0.0000 C   0  0  0  0  0  0  0  0  0  0  0  0
    2.0125   -3.2250    0.0000 C   0  0  0  0  0  0  0  0  0  0  0  0
   -0.8458    0.0750    0.0000 O   0  0  0  0  0  0  0  0  0  0  0  0
   -0.8458    1.7250    0.0000 C   0  0  0  0  0  0  0  0  0  0  0  0
    0.5833   -0.7500    0.0000 C   0  0  0  0  0  0  0  0  0  0  0  0
    2.7250   -3.6375    0.0000 O   0  0  0  0  0  0  0  0  0  0  0  0
   -2.2750    1.7250    0.0000 C   0  0  0  0  0  0  0  0  0  0  0  0
    1.2958   -1.9875    0.0000 O   0  0  0  0  0  0  0  0  0  0  0  0
    2.0125   -2.4000    0.0000 C   0  0  0  0  0  0  0  0  0  0  0  0
    1.2958   -3.6375    0.0000 N   0  0  0  0  0  0  0  0  0  0  0  0
    1.2958   -1.1625    0.0000 C   0  0  0  0  0  0  0  0  0  0  0  0
   -1.5625    1.3125    0.0000 C   0  0  0  0  0  0  0  0  0  0  0  0
    1.2958    0.4875    0.0000 C   0  0  0  0  0  0  0  0  0  0  0  0
    2.0125    0.0750    0.0000 C   0  0  0  0  0  0  0  0  0  0  0  0
   -1.5625    2.9625    0.0000 C   0  0  0  0  0  0  0  0  0  0  0  0
   -0.8458    2.5500    0.0000 C   0  0  0  0  0  0  0  0  0  0  0  0
   -2.2750    2.5500    0.0000 C   0  0  0  0  0  0  0  0  0  0  0  0
    2.0125   -0.7500    0.0000 C   0  0  0  0  0  0  0  0  0  0  0  0
  2  1  1  0  0  0  0
  3 11  1  0  0  0  0
  4  1  1  0  0  0  0
  5  3  3  0  0  0  0
  6 13  1  0  0  0  0
  7  1  2  0  0  0  0
  8  2  1  0  0  0  0
  9  4  1  0  0  0  0
 10  6  2  0  0  0  0
 11 16  1  0  0  0  0
 12 15  1  0  0  0  0
 13 12  1  0  0  0  0
 14  6  1  0  0  0  0
 15  9  2  0  0  0  0
 16  8  2  0  0  0  0
 17  4  2  0  0  0  0
 18 17  1  0  0  0  0
 18 22  2  0  0  0  0
 19 20  2  0  0  0  0
 20  8  1  0  0  0  0
 21 11  2  0  0  0  0
 21 19  1  0  0  0  0
 22 15  1  0  0  0  0
M  END
> <CdId>
3827

> <Mol Weight>
294.3047

> <Formula>
C17H14N2O3

> <Click_ID>
CLK050C04 __ __ 

$$$$
