CLK018_B04
 OpenBabel03191401532D

 24 25  0  0  0  0  0  0  0  0999 V2000
    5.5623   -2.7832    0.0000 N   0  0  0  0  0  0  0  0  0  0  0  0
    5.8115   -3.5683    0.0000 C   0  0  0  0  0  0  0  0  0  0  0  0
    6.2228   -2.2972    0.0000 C   0  0  0  0  0  0  0  0  0  0  0  0
    6.8957   -2.7832    0.0000 C   0  0  0  0  0  0  0  0  0  0  0  0
    6.6423   -3.5683    0.0000 S   0  0  0  0  0  0  0  0  0  0  0  0
    7.6808   -2.5298    0.0000 C   0  0  0  0  0  0  0  0  0  0  0  0
    8.2000   -0.1122    0.0000 C   0  0  0  0  0  0  0  0  0  0  0  0
    8.8024   -0.6647    0.0000 C   0  0  0  0  0  0  0  0  0  0  0  0
    7.4191   -0.3531    0.0000 C   0  0  0  0  0  0  0  0  0  0  0  0
    7.8553   -1.7198    0.0000 C   0  0  0  0  0  0  0  0  0  0  0  0
    9.3507    1.7530    0.0000 C   0  0  0  0  0  0  0  0  0  0  0  0
    9.5335    2.5547    0.0000 C   0  0  0  0  0  0  0  0  0  0  0  0
    5.3255   -4.2413    0.0000 O   0  0  0  0  0  0  0  0  0  0  0  0
    8.6362   -1.4747    0.0000 C   0  0  0  0  0  0  0  0  0  0  0  0
    6.2228   -1.4705    0.0000 O   0  0  0  0  0  0  0  0  0  0  0  0
    7.2405   -1.1632    0.0000 C   0  0  0  0  0  0  0  0  0  0  0  0
    4.7772   -2.5298    0.0000 C   0  0  0  0  0  0  0  0  0  0  0  0
    4.1665   -3.0823    0.0000 C   0  0  0  0  0  0  0  0  0  0  0  0
    3.3814   -2.8331    0.0000 C   0  0  0  0  0  0  0  0  0  0  0  0
    9.5958   -0.4154    0.0000 I   0  0  0  0  0  0  0  0  0  0  0  0
    8.3787    0.6979    0.0000 O   0  0  0  0  0  0  0  0  0  0  0  0
    6.8085    0.1952    0.0000 O   0  0  0  0  0  0  0  0  0  0  0  0
    9.1721    0.9429    0.0000 C   0  0  0  0  0  0  0  0  0  0  0  0
    6.0358   -0.0498    0.0000 C   0  0  0  0  0  0  0  0  0  0  0  0
  2  1  1  0  0  0  0
  3  1  1  0  0  0  0
  4  3  1  0  0  0  0
  4  5  1  0  0  0  0
  5  2  1  0  0  0  0
  6  4  2  0  0  0  0
  7  9  2  0  0  0  0
  7  8  1  0  0  0  0
  8 14  2  0  0  0  0
  9 16  1  0  0  0  0
 10  6  1  0  0  0  0
 11 23  1  0  0  0  0
 12 11  3  0  0  0  0
 13  2  2  0  0  0  0
 14 10  1  0  0  0  0
 15  3  2  0  0  0  0
 16 10  2  0  0  0  0
 17  1  1  0  0  0  0
 18 17  1  0  0  0  0
 19 18  2  0  0  0  0
 20  8  1  0  0  0  0
 21  7  1  0  0  0  0
 22  9  1  0  0  0  0
 23 21  1  0  0  0  0
 24 22  1  0  0  0  0
M  END
> <CdId>
1329

> <Mol Weight>
455.267

> <Formula>
C17H14INO4S

> <Click_ID>
CLK018_B04 __ __ 

$$$$
