CLK051H06
 OpenBabel03191401532D

 20 21  0  0  0  0  0  0  0  0999 V2000
    0.9625    0.4333    0.0000 C   0  0  0  0  0  0  0  0  0  0  0  0
    0.2500    0.0208    0.0000 C   0  0  0  0  0  0  0  0  0  0  0  0
    0.9625    1.2583    0.0000 C   0  0  0  0  0  0  0  0  0  0  0  0
    1.6750    0.0208    0.0000 C   0  0  0  0  0  0  0  0  0  0  0  0
    1.6750    1.6708    0.0000 O   0  0  0  0  0  0  0  0  0  0  0  0
    2.3917    1.2583    0.0000 C   0  0  0  0  0  0  0  0  0  0  0  0
    2.3917    0.4333    0.0000 C   0  0  0  0  0  0  0  0  0  0  0  0
   -0.4667    0.4333    0.0000 N   0  0  0  0  0  0  0  0  0  0  0  0
   -1.8958   -2.0417    0.0000 C   0  0  0  0  0  0  0  0  0  0  0  0
   -1.8958   -2.8667    0.0000 C   0  0  0  0  0  0  0  0  0  0  0  0
    0.2500   -0.8042    0.0000 O   0  0  0  0  0  0  0  0  0  0  0  0
    3.1042    1.6708    0.0000 O   0  0  0  0  0  0  0  0  0  0  0  0
   -1.1792    0.0208    0.0000 C   0  0  0  0  0  0  0  0  0  0  0  0
   -1.8958   -1.2167    0.0000 C   0  0  0  0  0  0  0  0  0  0  0  0
   -1.1792   -0.8042    0.0000 C   0  0  0  0  0  0  0  0  0  0  0  0
    0.2500    1.6708    0.0000 C   0  0  0  0  0  0  0  0  0  0  0  0
    1.6750   -0.8042    0.0000 C   0  0  0  0  0  0  0  0  0  0  0  0
   -2.6083    0.0208    0.0000 C   0  0  0  0  0  0  0  0  0  0  0  0
   -1.8958    0.4333    0.0000 C   0  0  0  0  0  0  0  0  0  0  0  0
   -2.6083   -0.8042    0.0000 C   0  0  0  0  0  0  0  0  0  0  0  0
  2  1  1  0  0  0  0
  3  1  2  0  0  0  0
  4  1  1  0  0  0  0
  5  3  1  0  0  0  0
  5  6  1  0  0  0  0
  6  7  1  0  0  0  0
  7  4  2  0  0  0  0
  8  2  1  0  0  0  0
  9 14  1  0  0  0  0
 10  9  3  0  0  0  0
 11  2  2  0  0  0  0
 12  6  2  0  0  0  0
 13  8  1  0  0  0  0
 14 15  1  0  0  0  0
 15 13  2  0  0  0  0
 16  3  1  0  0  0  0
 17  4  1  0  0  0  0
 18 19  2  0  0  0  0
 19 13  1  0  0  0  0
 20 14  2  0  0  0  0
 20 18  1  0  0  0  0
M  END
> <CdId>
3928

> <Mol Weight>
267.2793

> <Formula>
C16H13NO3

> <Click_ID>
CLK051H06 __ __ 

$$$$
