CLK040B03
 OpenBabel03191401532D

 24 25  0  0  0  0  0  0  0  0999 V2000
   -0.5051    2.4667    0.0000 S   0  0  0  0  0  0  0  0  0  0  0  0
    0.2171   -2.0785    0.0000 C   0  0  0  0  0  0  0  0  0  0  0  0
   -0.2672   -2.7463    0.0000 N   0  0  0  0  0  0  0  0  0  0  0  0
   -0.0376   -1.2897    0.0000 N   0  0  0  0  0  0  0  0  0  0  0  0
    0.2171   -3.4141    0.0000 C   0  0  0  0  0  0  0  0  0  0  0  0
    0.5134   -0.6761    0.0000 C   0  0  0  0  0  0  0  0  0  0  0  0
    1.0017   -2.3331    0.0000 S   0  0  0  0  0  0  0  0  0  0  0  0
    1.0017   -3.1595    0.0000 C   0  0  0  0  0  0  0  0  0  0  0  0
   -0.2504    1.6820    0.0000 C   0  0  0  0  0  0  0  0  0  0  0  0
   -0.4633    4.6495    0.0000 C   0  0  0  0  0  0  0  0  0  0  0  0
   -0.7179    5.4342    0.0000 C   0  0  0  0  0  0  0  0  0  0  0  0
    0.2797    2.7213    0.0000 O   0  0  0  0  0  0  0  0  0  0  0  0
   -1.2939    2.2120    0.0000 O   0  0  0  0  0  0  0  0  0  0  0  0
    0.2587    0.1085    0.0000 C   0  0  0  0  0  0  0  0  0  0  0  0
   -0.7638    3.2513    0.0000 N   0  0  0  0  0  0  0  0  0  0  0  0
    1.3230   -0.8472    0.0000 O   0  0  0  0  0  0  0  0  0  0  0  0
   -0.8056    1.0685    0.0000 C   0  0  0  0  0  0  0  0  0  0  0  0
    0.5551    1.5108    0.0000 C   0  0  0  0  0  0  0  0  0  0  0  0
   -0.5509    0.2797    0.0000 C   0  0  0  0  0  0  0  0  0  0  0  0
    0.8139    0.7220    0.0000 C   0  0  0  0  0  0  0  0  0  0  0  0
   -0.0376   -4.1988    0.0000 C   0  0  0  0  0  0  0  0  0  0  0  0
   -0.2087    3.8648    0.0000 C   0  0  0  0  0  0  0  0  0  0  0  0
    0.5134   -4.8123    0.0000 C   0  0  0  0  0  0  0  0  0  0  0  0
   -0.8472   -4.3741    0.0000 C   0  0  0  0  0  0  0  0  0  0  0  0
  2  4  1  0  0  0  0
  3  2  2  0  0  0  0
  4  6  1  0  0  0  0
  5  3  1  0  0  0  0
  6 14  1  0  0  0  0
  7  2  1  0  0  0  0
  8  7  1  0  0  0  0
  8  5  2  0  0  0  0
  9  1  1  0  0  0  0
 10 22  1  0  0  0  0
 11 10  3  0  0  0  0
 12  1  2  0  0  0  0
 13  1  2  0  0  0  0
 14 19  2  0  0  0  0
 15  1  1  0  0  0  0
 16  6  2  0  0  0  0
 17  9  2  0  0  0  0
 18  9  1  0  0  0  0
 19 17  1  0  0  0  0
 20 18  2  0  0  0  0
 20 14  1  0  0  0  0
 21  5  1  0  0  0  0
 22 15  1  0  0  0  0
 23 21  1  0  0  0  0
 24 21  1  0  0  0  0
M  END
> <CdId>
3018

> <Mol Weight>
363.454

> <Formula>
C16H17N3O3S2

> <Click_ID>
CLK040B03 __ __ 

$$$$
