CLK024_A04
 OpenBabel03191401532D

 26 27  0  0  0  0  0  0  0  0999 V2000
   -2.3888    1.3337    0.0000 N    0  0  0  0  0  0  0  0  0  0  0  0
   -1.9730    0.6222    0.0000 C    0  0  0  0  0  0  0  0  0  0  0  0
   -1.8526    1.9454    0.0000 C    0  0  0  0  0  0  0  0  0  0  0  0
   -1.0999    1.6189    0.0000 C    0  0  0  0  0  0  0  0  0  0  0  0
   -1.1755    0.7975    0.0000 S    0  0  0  0  0  0  0  0  0  0  0  0
    1.7668    0.8215    0.0000 C    0  0  0  0  0  0  0  0  0  0  0  0
   -0.3884    2.0452    0.0000 C    0  0  0  0  0  0  0  0  0  0  0  0
    1.7565    1.6464    0.0000 C    0  0  0  0  0  0  0  0  0  0  0  0
    1.0586    0.4022    0.0000 C    0  0  0  0  0  0  0  0  0  0  0  0
    0.3300    1.6361    0.0000 C    0  0  0  0  0  0  0  0  0  0  0  0
    2.4886    0.4159    0.0000 O    0  0  0  0  0  0  0  0  0  0  0  0
   -3.5541    2.1483    0.0000 C    0  0  0  0  0  0  0  0  0  0  0  0
   -3.9425    2.8804    0.0000 C    0  0  0  0  0  0  0  0  0  0  0  0
   -2.2960   -0.1375    0.0000 O    0  0  0  0  0  0  0  0  0  0  0  0
    0.3368    0.8146    0.0000 C    0  0  0  0  0  0  0  0  0  0  0  0
    1.0449    2.0555    0.0000 C    0  0  0  0  0  0  0  0  0  0  0  0
   -2.0383    2.7464    0.0000 O    0  0  0  0  0  0  0  0  0  0  0  0
    3.2104   -0.8249    0.0000 C    0  0  0  0  0  0  0  0  0  0  0  0
   -3.2104    1.3989    0.0000 C    0  0  0  0  0  0  0  0  0  0  0  0
    3.9253   -0.4090    0.0000 O    0  0  0  0  0  0  0  0  0  0  0  0
    2.4920   -0.4125    0.0000 C    0  0  0  0  0  0  0  0  0  0  0  0
    1.0656   -0.4228    0.0000 Br   0  0  0  0  0  0  0  0  0  0  0  0
    2.4748    2.0555    0.0000 Br   0  0  0  0  0  0  0  0  0  0  0  0
    3.2138   -1.6464    0.0000 O    0  0  0  0  0  0  0  0  0  0  0  0
    3.9391   -2.0520    0.0000 C    0  0  0  0  0  0  0  0  0  0  0  0
    3.9391   -2.8770    0.0000 C    0  0  0  0  0  0  0  0  0  0  0  0
  2  1  1  0  0  0  0
  3  1  1  0  0  0  0
  4  3  1  0  0  0  0
  5  2  1  0  0  0  0
  5  4  1  0  0  0  0
  6  8  2  0  0  0  0
  7  4  2  0  0  0  0
  8 16  1  0  0  0  0
  9 15  2  0  0  0  0
  9  6  1  0  0  0  0
 10  7  1  0  0  0  0
 11  6  1  0  0  0  0
 12 19  1  0  0  0  0
 13 12  3  0  0  0  0
 14  2  2  0  0  0  0
 15 10  1  0  0  0  0
 16 10  2  0  0  0  0
 17  3  2  0  0  0  0
 18 21  1  0  0  0  0
 19  1  1  0  0  0  0
 20 18  2  0  0  0  0
 21 11  1  0  0  0  0
 22  9  1  0  0  0  0
 23  8  1  0  0  0  0
 24 18  1  0  0  0  0
 25 24  1  0  0  0  0
 26 25  1  0  0  0  0
M  END
> <CdId>
1779

> <Mol Weight>
503.162

> <Formula>
C17H13Br2NO5S

> <Click_ID>
CLK024_A04 __ __ 

$$$$
