CLK049H02
 OpenBabel03191401532D

 18 19  0  0  0  0  0  0  0  0999 V2000
    1.1500    0.6208    0.0000 C   0  0  0  0  0  0  0  0  0  0  0  0
    0.4333    0.2083    0.0000 C   0  0  0  0  0  0  0  0  0  0  0  0
    1.8625    0.2083    0.0000 C   0  0  0  0  0  0  0  0  0  0  0  0
   -0.2792    0.6208    0.0000 N   0  0  0  0  0  0  0  0  0  0  0  0
   -1.7083   -1.8542    0.0000 C   0  0  0  0  0  0  0  0  0  0  0  0
   -1.7083   -2.6792    0.0000 C   0  0  0  0  0  0  0  0  0  0  0  0
    1.1500    1.4458    0.0000 N   0  0  0  0  0  0  0  0  0  0  0  0
    2.5792    0.6208    0.0000 N   0  0  0  0  0  0  0  0  0  0  0  0
    0.4333   -0.6167    0.0000 O   0  0  0  0  0  0  0  0  0  0  0  0
   -0.9958    0.2083    0.0000 C   0  0  0  0  0  0  0  0  0  0  0  0
   -1.7083   -1.0292    0.0000 C   0  0  0  0  0  0  0  0  0  0  0  0
    1.8625   -0.6167    0.0000 N   0  0  0  0  0  0  0  0  0  0  0  0
   -0.9958   -0.6167    0.0000 C   0  0  0  0  0  0  0  0  0  0  0  0
    1.8625    1.8583    0.0000 C   0  0  0  0  0  0  0  0  0  0  0  0
   -2.4250    0.2083    0.0000 C   0  0  0  0  0  0  0  0  0  0  0  0
    2.5792    1.4458    0.0000 C   0  0  0  0  0  0  0  0  0  0  0  0
   -1.7083    0.6208    0.0000 C   0  0  0  0  0  0  0  0  0  0  0  0
   -2.4250   -0.6167    0.0000 C   0  0  0  0  0  0  0  0  0  0  0  0
  2  1  1  0  0  0  0
  3  1  2  0  0  0  0
  4  2  1  0  0  0  0
  5 11  1  0  0  0  0
  6  5  3  0  0  0  0
  7  1  1  0  0  0  0
  8  3  1  0  0  0  0
  9  2  2  0  0  0  0
 10  4  1  0  0  0  0
 11 13  1  0  0  0  0
 12  3  1  0  0  0  0
 13 10  2  0  0  0  0
 14  7  2  0  0  0  0
 14 16  1  0  0  0  0
 15 17  2  0  0  0  0
 16  8  2  0  0  0  0
 17 10  1  0  0  0  0
 18 11  2  0  0  0  0
 18 15  1  0  0  0  0
M  END
> <CdId>
3736

> <Mol Weight>
238.2447

> <Formula>
C13H10N4O

> <Click_ID>
CLK049H02 __ __ 

$$$$
