CLK008_B05
 OpenBabel03191401532D

 14 15  0  0  0  0  0  0  0  0999 V2000
   -0.3591    0.0838    0.0000 C   0  0  3  0  0  0  0  0  0  0  0  0
    0.3523    0.5028    0.0000 C   0  0  3  0  0  0  0  0  0  0  0  0
   -0.3591   -0.7371    0.0000 C   0  0  3  0  0  0  0  0  0  0  0  0
   -1.0638    0.5028    0.0000 C   0  0  0  0  0  0  0  0  0  0  0  0
    1.0689    0.0838    0.0000 C   0  0  0  0  0  0  0  0  0  0  0  0
    0.3523    1.3340    0.0000 C   0  0  0  0  0  0  0  0  0  0  0  0
    1.0689    0.9184    0.0000 O   0  0  0  0  0  0  0  0  0  0  0  0
    0.3523   -1.1458    0.0000 N   0  0  0  0  0  0  0  0  0  0  0  0
   -1.0638   -1.1458    0.0000 C   0  0  0  0  0  0  0  0  0  0  0  0
   -1.7804    0.0838    0.0000 C   0  0  0  0  0  0  0  0  0  0  0  0
    1.0689   -0.7371    0.0000 C   0  0  3  0  0  0  0  0  0  0  0  0
    0.3523    2.1583    0.0000 C   0  0  0  0  0  0  0  0  0  0  0  0
   -1.7804   -0.7371    0.0000 C   0  0  0  0  0  0  0  0  0  0  0  0
    1.7906   -1.1561    0.0000 C   0  0  0  0  0  0  0  0  0  0  0  0
  1  2  1  0  0  0  0
  1  3  1  0  0  0  0
  1  4  1  0  0  0  0
  2  5  1  0  0  0  0
  2  6  1  0  0  0  0
  2  7  1  0  0  0  0
  3  8  1  0  0  0  0
  3  9  1  0  0  0  0
  4 10  1  0  0  0  0
  5 11  1  0  0  0  0
  6 12  3  0  0  0  0
  8 11  1  0  0  0  0
  9 13  1  0  0  0  0
 10 13  1  0  0  0  0
 11 14  1  0  0  0  0
M  END
> <CdId>
569

> <Mol Weight>
193.2854

> <Formula>
C12H19NO

> <Click_ID>
CLK008_B05 __ __ 

$$$$
