CLK021_H11
 OpenBabel03191401532D

 19 19  0  0  0  0  0  0  0  0999 V2000
    3.7171    2.0579    0.0000 S   0  0  0  0  0  0  0  0  0  0  0  0
    4.5421    2.0579    0.0000 C   0  0  0  0  0  0  0  0  0  0  0  0
    3.5062    2.8554    0.0000 N   0  0  0  0  0  0  0  0  0  0  0  0
    4.9546    1.3429    0.0000 C   0  0  0  0  0  0  0  0  0  0  0  0
    2.7087    3.9004    0.0000 C   0  0  0  0  0  0  0  0  0  0  0  0
    2.9059    1.9204    0.0000 O   0  0  0  0  0  0  0  0  0  0  0  0
    3.7950    1.2375    0.0000 O   0  0  0  0  0  0  0  0  0  0  0  0
    2.7087    4.7071    0.0000 C   0  0  0  0  0  0  0  0  0  0  0  0
    2.7087    3.0662    0.0000 C   0  0  0  0  0  0  0  0  0  0  0  0
    4.9546    2.7729    0.0000 C   0  0  0  0  0  0  0  0  0  0  0  0
    5.7796    1.3429    0.0000 C   0  0  0  0  0  0  0  0  0  0  0  0
    5.7796    2.7729    0.0000 C   0  0  0  0  0  0  0  0  0  0  0  0
    6.1921    2.0579    0.0000 C   0  0  0  0  0  0  0  0  0  0  0  0
    4.5421    0.6279    0.0000 C   0  0  0  0  0  0  0  0  0  0  0  0
    1.8884    3.1441    0.0000 C   0  0  0  0  0  0  0  0  0  0  0  0
    2.5621    2.2550    0.0000 C   0  0  0  0  0  0  0  0  0  0  0  0
    7.0171    2.0579    0.0000 C   0  0  0  0  0  0  0  0  0  0  0  0
    1.5400    3.8866    0.0000 C   0  0  0  0  0  0  0  0  0  0  0  0
    1.7921    1.9754    0.0000 C   0  0  0  0  0  0  0  0  0  0  0  0
  2  1  1  0  0  0  0
  3  1  1  0  0  0  0
  4  2  2  0  0  0  0
  5  9  1  0  0  0  0
  6  1  2  0  0  0  0
  7  1  2  0  0  0  0
  8  5  3  0  0  0  0
  9  3  1  0  0  0  0
 10  2  1  0  0  0  0
 11  4  1  0  0  0  0
 11 13  2  0  0  0  0
 12 10  2  0  0  0  0
 13 12  1  0  0  0  0
 14  4  1  0  0  0  0
 15  9  1  0  0  0  0
 16  9  1  0  0  0  0
 17 13  1  0  0  0  0
 18 15  1  0  0  0  0
 19 16  1  0  0  0  0
M  END
> <CdId>
1636

> <Mol Weight>
279.398

> <Formula>
C15H21NO2S

> <Click_ID>
CLK021_H11 __ __ 

$$$$
