CLK044H03
 OpenBabel03191401532D

 21 22  0  0  0  0  0  0  0  0999 V2000
   -0.3458    2.0710    0.0000 N   0  0  0  0  0  0  0  0  0  0  0  0
    0.1417    1.4044    0.0000 C   0  0  0  0  0  0  0  0  0  0  0  0
    0.1417    2.7420    0.0000 C   0  0  0  0  0  0  0  0  0  0  0  0
    0.9251    1.6585    0.0000 N   0  0  0  0  0  0  0  0  0  0  0  0
    0.9251    2.4836    0.0000 N   0  0  0  0  0  0  0  0  0  0  0  0
   -1.1709    2.0710    0.0000 C   0  0  0  0  0  0  0  0  0  0  0  0
   -1.8835    2.4836    0.0000 C   0  0  0  0  0  0  0  0  0  0  0  0
   -1.8835    1.6585    0.0000 C   0  0  0  0  0  0  0  0  0  0  0  0
    0.2250   -2.9586    0.0000 C   0  0  0  0  0  0  0  0  0  0  0  0
   -0.1125    0.6209    0.0000 S   0  0  0  0  0  0  0  0  0  0  0  0
   -0.0292   -3.7462    0.0000 C   0  0  0  0  0  0  0  0  0  0  0  0
    0.1833   -0.7751    0.0000 C   0  0  0  0  0  0  0  0  0  0  0  0
    0.7334   -1.3919    0.0000 N   0  0  0  0  0  0  0  0  0  0  0  0
    0.4793   -2.1752    0.0000 C   0  0  0  0  0  0  0  0  0  0  0  0
   -0.1125    3.5254    0.0000 O   0  0  0  0  0  0  0  0  0  0  0  0
   -0.6251   -0.9501    0.0000 O   0  0  0  0  0  0  0  0  0  0  0  0
    0.4375    0.0083    0.0000 C   0  0  0  0  0  0  0  0  0  0  0  0
    1.2668   -2.4295    0.0000 C   0  0  0  0  0  0  0  0  0  0  0  0
   -0.3042   -1.9210    0.0000 C   0  0  0  0  0  0  0  0  0  0  0  0
    1.4377   -3.2379    0.0000 C   0  0  0  0  0  0  0  0  0  0  0  0
   -0.4751   -1.1126    0.0000 C   0  0  0  0  0  0  0  0  0  0  0  0
  2  1  1  0  0  0  0
  3  1  1  0  0  0  0
  4  2  2  0  0  0  0
  5  3  1  0  0  0  0
  5  4  1  0  0  0  0
  6  1  1  0  0  0  0
  7  6  1  0  0  0  0
  8  6  1  0  0  0  0
  8  7  1  0  0  0  0
  9 14  1  0  0  0  0
 10  2  1  0  0  0  0
 11  9  3  0  0  0  0
 12 17  1  0  0  0  0
 13 12  1  0  0  0  0
 14 13  1  0  0  0  0
 15  3  2  0  0  0  0
 16 12  2  0  0  0  0
 17 10  1  0  0  0  0
 18 14  1  0  0  0  0
 19 14  1  0  0  0  0
 20 18  1  0  0  0  0
 21 19  1  0  0  0  0
M  END
> <CdId>
3344

> <Mol Weight>
308.399

> <Formula>
C14H20N4O2S

> <Click_ID>
CLK044H03 __ __ 

$$$$
