CLK015_A07
 OpenBabel03191401532D

 29 31  0  0  0  0  0  0  0  0999 V2000
    1.5636   -0.8151    0.0000 N    0  0  0  0  0  0  0  0  0  0  0  0
    1.8214   -1.6010    0.0000 C    0  0  0  0  0  0  0  0  0  0  0  0
    2.2331   -0.3286    0.0000 C    0  0  0  0  0  0  0  0  0  0  0  0
    2.8985   -0.8151    0.0000 C    0  0  0  0  0  0  0  0  0  0  0  0
    2.6448   -1.6010    0.0000 S    0  0  0  0  0  0  0  0  0  0  0  0
    4.2042    1.8588    0.0000 C    0  0  0  0  0  0  0  0  0  0  0  0
    3.6844   -0.5614    0.0000 C    0  0  0  0  0  0  0  0  0  0  0  0
    4.8072    1.3057    0.0000 C    0  0  0  0  0  0  0  0  0  0  0  0
    3.4183    1.6176    0.0000 C    0  0  0  0  0  0  0  0  0  0  0  0
    3.8549    0.2495    0.0000 C    0  0  0  0  0  0  0  0  0  0  0  0
    4.3913    2.6655    0.0000 O    0  0  0  0  0  0  0  0  0  0  0  0
    0.6113    0.2453    0.0000 C    0  0  0  0  0  0  0  0  0  0  0  0
    0.3909    1.0437    0.0000 C    0  0  0  0  0  0  0  0  0  0  0  0
    1.3349   -2.2622    0.0000 O    0  0  0  0  0  0  0  0  0  0  0  0
    4.6326    0.4948    0.0000 C    0  0  0  0  0  0  0  0  0  0  0  0
    2.2248    0.4948    0.0000 O    0  0  0  0  0  0  0  0  0  0  0  0
    3.2436    0.8067    0.0000 C    0  0  0  0  0  0  0  0  0  0  0  0
    0.7859   -0.5614    0.0000 C    0  0  0  0  0  0  0  0  0  0  0  0
    5.5932    1.5552    0.0000 Br   0  0  0  0  0  0  0  0  0  0  0  0
    5.1690    2.9150    0.0000 C    0  0  0  0  0  0  0  0  0  0  0  0
    2.8194    2.1665    0.0000 O    0  0  0  0  0  0  0  0  0  0  0  0
    5.3561    3.7259    0.0000 C    0  0  0  0  0  0  0  0  0  0  0  0
    5.7179    5.3187    0.0000 C    0  0  0  0  0  0  0  0  0  0  0  0
    6.1421    3.9630    0.0000 C    0  0  0  0  0  0  0  0  0  0  0  0
    4.7448    4.2708    0.0000 C    0  0  0  0  0  0  0  0  0  0  0  0
    6.3250    4.7573    0.0000 C    0  0  0  0  0  0  0  0  0  0  0  0
    4.9320    5.0692    0.0000 C    0  0  0  0  0  0  0  0  0  0  0  0
    5.9009    6.1254    0.0000 C    0  0  0  0  0  0  0  0  0  0  0  0
    2.0377    1.9170    0.0000 C    0  0  0  0  0  0  0  0  0  0  0  0
  2  1  1  0  0  0  0
  3  1  1  0  0  0  0
  4  3  1  0  0  0  0
  4  5  1  0  0  0  0
  5  2  1  0  0  0  0
  6  9  2  0  0  0  0
  6  8  1  0  0  0  0
  7  4  2  0  0  0  0
  8 15  2  0  0  0  0
  9 17  1  0  0  0  0
 10  7  1  0  0  0  0
 11  6  1  0  0  0  0
 12 18  1  0  0  0  0
 13 12  3  0  0  0  0
 14  2  2  0  0  0  0
 15 10  1  0  0  0  0
 16  3  2  0  0  0  0
 17 10  2  0  0  0  0
 18  1  1  0  0  0  0
 19  8  1  0  0  0  0
 20 11  1  0  0  0  0
 21  9  1  0  0  0  0
 22 20  1  0  0  0  0
 23 27  1  0  0  0  0
 24 22  2  0  0  0  0
 25 22  1  0  0  0  0
 26 24  1  0  0  0  0
 26 23  2  0  0  0  0
 27 25  2  0  0  0  0
 28 23  1  0  0  0  0
 29 21  1  0  0  0  0
M  END
> <CdId>
1082

> <Mol Weight>
472.352

> <Formula>
C22H18BrNO4S

> <Click_ID>
CLK015_A07 __ __ 

$$$$
