CLK011_A03
 OpenBabel03191401532D

 25 26  0  0  0  0  0  0  0  0999 V2000
    2.8356   -1.9028    0.0000 C    0  0  0  0  0  0  0  0  0  0  0  0
    2.8356   -0.2529    0.0000 C    0  0  0  0  0  0  0  0  0  0  0  0
    3.5486   -0.6716    0.0000 N    0  0  0  0  0  0  0  0  0  0  0  0
    2.1309   -0.6716    0.0000 N    0  0  0  0  0  0  0  0  0  0  0  0
    2.1309   -1.4966    0.0000 C    0  0  0  0  0  0  0  0  0  0  0  0
    3.5486   -1.4966    0.0000 C    0  0  0  0  0  0  0  0  0  0  0  0
    2.8356   -2.7278    0.0000 C    0  0  0  0  0  0  0  0  0  0  0  0
    4.9789   -3.9715    0.0000 C    0  0  0  0  0  0  0  0  0  0  0  0
    4.2658   -4.3777    0.0000 C    0  0  0  0  0  0  0  0  0  0  0  0
    4.9913   -3.1465    0.0000 C    0  0  0  0  0  0  0  0  0  0  0  0
    3.5486   -3.1382    0.0000 C    0  0  0  0  0  0  0  0  0  0  0  0
    2.8356    0.5721    0.0000 S    0  0  0  0  0  0  0  0  0  0  0  0
    6.3966   -5.6463    0.0000 C    0  0  0  0  0  0  0  0  0  0  0  0
    7.1180   -6.0608    0.0000 C    0  0  0  0  0  0  0  0  0  0  0  0
    4.2658   -1.9070    0.0000 O    0  0  0  0  0  0  0  0  0  0  0  0
    1.4095   -1.9070    0.0000 O    0  0  0  0  0  0  0  0  0  0  0  0
    3.5486   -3.9590    0.0000 C    0  0  0  0  0  0  0  0  0  0  0  0
    4.2700   -2.7278    0.0000 C    0  0  0  0  0  0  0  0  0  0  0  0
    4.2575   -0.2612    0.0000 C    0  0  0  0  0  0  0  0  0  0  0  0
    1.4178   -0.2612    0.0000 C    0  0  0  0  0  0  0  0  0  0  0  0
    4.2575   -5.2027    0.0000 Br   0  0  0  0  0  0  0  0  0  0  0  0
    5.6960   -4.3943    0.0000 O    0  0  0  0  0  0  0  0  0  0  0  0
    5.7002   -2.7402    0.0000 O    0  0  0  0  0  0  0  0  0  0  0  0
    5.6877   -5.2234    0.0000 C    0  0  0  0  0  0  0  0  0  0  0  0
    5.7002   -1.9277    0.0000 C    0  0  0  0  0  0  0  0  0  0  0  0
  2  3  1  0  0  0  0
  3  6  1  0  0  0  0
  4  5  1  0  0  0  0
  4  2  1  0  0  0  0
  5  1  1  0  0  0  0
  6  1  1  0  0  0  0
  7  1  2  0  0  0  0
  8 10  2  0  0  0  0
  9 17  2  0  0  0  0
  9  8  1  0  0  0  0
 10 18  1  0  0  0  0
 11  7  1  0  0  0  0
 12  2  2  0  0  0  0
 13 24  1  0  0  0  0
 14 13  3  0  0  0  0
 15  6  2  0  0  0  0
 16  5  2  0  0  0  0
 17 11  1  0  0  0  0
 18 11  2  0  0  0  0
 19  3  1  0  0  0  0
 20  4  1  0  0  0  0
 21  9  1  0  0  0  0
 22  8  1  0  0  0  0
 23 10  1  0  0  0  0
 24 22  1  0  0  0  0
 25 23  1  0  0  0  0
M  END
> <CdId>
758

> <Mol Weight>
423.281

> <Formula>
C17H15BrN2O4S

> <Click_ID>
CLK011_A03 __ __ 

$$$$
