CLK014_A09
 OpenBabel03191401532D

 22 23  0  0  0  0  0  0  0  0999 V2000
    5.5328   -0.6143    0.0000 N   0  0  0  0  0  0  0  0  0  0  0  0
    5.3958   -1.4361    0.0000 C   0  0  0  0  0  0  0  0  0  0  0  0
    4.7981   -0.2408    0.0000 C   0  0  0  0  0  0  0  0  0  0  0  0
    4.2129   -0.8260    0.0000 C   0  0  0  0  0  0  0  0  0  0  0  0
    4.5864   -1.5607    0.0000 S   0  0  0  0  0  0  0  0  0  0  0  0
    3.3993   -0.6890    0.0000 C   0  0  0  0  0  0  0  0  0  0  0  0
    5.9810   -2.0172    0.0000 S   0  0  0  0  0  0  0  0  0  0  0  0
    1.0750   -4.6736    0.0000 C   0  0  0  0  0  0  0  0  0  0  0  0
    0.5603   -5.3086    0.0000 C   0  0  0  0  0  0  0  0  0  0  0  0
    4.6694    0.5686    0.0000 O   0  0  0  0  0  0  0  0  0  0  0  0
    2.8764   -1.3365    0.0000 C   0  0  0  0  0  0  0  0  0  0  0  0
    6.2674   -0.2490    0.0000 C   0  0  0  0  0  0  0  0  0  0  0  0
    1.8221   -2.6191    0.0000 C   0  0  0  0  0  0  0  0  0  0  0  0
    3.1669   -2.1085    0.0000 C   0  0  0  0  0  0  0  0  0  0  0  0
    2.0545   -1.1996    0.0000 C   0  0  0  0  0  0  0  0  0  0  0  0
    2.6440   -2.7436    0.0000 C   0  0  0  0  0  0  0  0  0  0  0  0
    1.5316   -1.8346    0.0000 C   0  0  0  0  0  0  0  0  0  0  0  0
    1.5938   -4.0261    0.0000 C   0  0  0  0  0  0  0  0  0  0  0  0
    1.2992   -3.2624    0.0000 O   0  0  0  0  0  0  0  0  0  0  0  0
    7.6869   -0.3279    0.0000 O   0  0  0  0  0  0  0  0  0  0  0  0
    6.9523   -0.6973    0.0000 C   0  0  0  0  0  0  0  0  0  0  0  0
    8.3718   -0.7762    0.0000 C   0  0  0  0  0  0  0  0  0  0  0  0
  2  1  1  0  0  0  0
  3  1  1  0  0  0  0
  4  3  1  0  0  0  0
  5  2  1  0  0  0  0
  5  4  1  0  0  0  0
  6  4  2  0  0  0  0
  7  2  2  0  0  0  0
  8 18  1  0  0  0  0
  9  8  3  0  0  0  0
 10  3  2  0  0  0  0
 11  6  1  0  0  0  0
 12  1  1  0  0  0  0
 13 17  2  0  0  0  0
 13 16  1  0  0  0  0
 14 11  1  0  0  0  0
 15 11  2  0  0  0  0
 16 14  2  0  0  0  0
 17 15  1  0  0  0  0
 18 19  1  0  0  0  0
 19 13  1  0  0  0  0
 20 21  1  0  0  0  0
 21 12  1  0  0  0  0
 22 20  1  0  0  0  0
M  END
> <CdId>
1004

> <Mol Weight>
333.425

> <Formula>
C16H15NO3S2

> <Click_ID>
CLK014_A09 __ __ 

$$$$
