CLK004_F06
 OpenBabel03191401532D

 27 29  0  0  0  0  0  0  0  0999 V2000
   -1.7447   -0.0987    0.0000 C   0  0  0  0  0  0  0  0  0  0  0  0
   -1.8585   -0.9140    0.0000 C   0  0  0  0  0  0  0  0  0  0  0  0
   -0.9331    0.0455    0.0000 C   0  0  3  0  0  0  0  0  0  0  0  0
   -2.3894    0.4172    0.0000 C   0  0  0  0  0  0  0  0  0  0  0  0
   -1.1227   -1.2744    0.0000 N   0  0  0  0  0  0  0  0  0  0  0  0
   -2.6246   -1.2175    0.0000 C   0  0  0  0  0  0  0  0  0  0  0  0
   -0.5462   -0.6827    0.0000 C   0  0  0  0  0  0  0  0  0  0  0  0
    0.0000    0.6713    0.0000 C   0  0  0  0  0  0  0  0  0  0  0  0
   -1.1947    0.9823    0.0000 O   0  0  0  0  0  0  0  0  0  0  0  0
   -3.1594    0.1063    0.0000 C   0  0  0  0  0  0  0  0  0  0  0  0
   -0.9786   -2.0822    0.0000 C   0  0  0  0  0  0  0  0  0  0  0  0
   -3.2732   -0.7092    0.0000 C   0  0  0  0  0  0  0  0  0  0  0  0
    0.2731   -0.8003    0.0000 O   0  0  0  0  0  0  0  0  0  0  0  0
    0.7851    0.2579    0.0000 C   0  0  0  0  0  0  0  0  0  0  0  0
   -1.6119   -2.6209    0.0000 C   0  0  0  0  0  0  0  0  0  0  0  0
    1.4868    0.7055    0.0000 C   0  0  0  0  0  0  0  0  0  0  0  0
    0.8231   -0.4286    0.0000 O   0  0  0  0  0  0  0  0  0  0  0  0
   -2.2415   -3.1442    0.0000 C   0  0  0  0  0  0  0  0  0  0  0  0
    1.4451    1.5323    0.0000 C   0  0  0  0  0  0  0  0  0  0  0  0
    2.2150    0.3224    0.0000 C   0  0  0  0  0  0  0  0  0  0  0  0
    2.1430    1.9723    0.0000 C   0  0  0  0  0  0  0  0  0  0  0  0
    0.7168    1.9078    0.0000 O   0  0  0  0  0  0  0  0  0  0  0  0
    2.9129    0.7662    0.0000 C   0  0  0  0  0  0  0  0  0  0  0  0
    2.8749    1.5930    0.0000 C   0  0  0  0  0  0  0  0  0  0  0  0
    0.6751    2.7346    0.0000 C   0  0  0  0  0  0  0  0  0  0  0  0
    3.6410    0.3907    0.0000 O   0  0  0  0  0  0  0  0  0  0  0  0
    3.6752   -0.4324    0.0000 C   0  0  0  0  0  0  0  0  0  0  0  0
  1  2  2  0  0  0  0
  1  3  1  0  0  0  0
  1  4  1  0  0  0  0
  2  5  1  0  0  0  0
  2  6  1  0  0  0  0
  3  7  1  0  0  0  0
  3  8  1  0  0  0  0
  3  9  1  0  0  0  0
  4 10  2  0  0  0  0
  5 11  1  0  0  0  0
  5  7  1  0  0  0  0
  6 12  2  0  0  0  0
  7 13  2  0  0  0  0
  8 14  1  0  0  0  0
 10 12  1  0  0  0  0
 11 15  1  0  0  0  0
 14 16  1  0  0  0  0
 14 17  2  0  0  0  0
 15 18  3  0  0  0  0
 16 19  2  0  0  0  0
 16 20  1  0  0  0  0
 19 21  1  0  0  0  0
 19 22  1  0  0  0  0
 20 23  2  0  0  0  0
 21 24  2  0  0  0  0
 22 25  1  0  0  0  0
 23 26  1  0  0  0  0
 23 24  1  0  0  0  0
 26 27  1  0  0  0  0
M  END
> <CdId>
295

> <Mol Weight>
365.3793

> <Formula>
C21H19NO5

> <Click_ID>
CLK004_F06 __ __ 

$$$$
