CLK042B11
 OpenBabel03191401532D

 25 27  0  0  0  0  0  0  0  0999 V2000
    2.0000   -0.0417    0.0000 C    0  0  0  0  0  0  0  0  0  0  0  0
    1.1958    0.1292    0.0000 N    0  0  0  0  0  0  0  0  0  0  0  0
    1.1083    0.9500    0.0000 C    0  0  0  0  0  0  0  0  0  0  0  0
    2.4125    0.6708    0.0000 O    0  0  0  0  0  0  0  0  0  0  0  0
    1.8625    1.2833    0.0000 C    0  0  0  0  0  0  0  0  0  0  0  0
    2.3375   -0.7958    0.0000 C    0  0  0  0  0  0  0  0  0  0  0  0
   -1.7500    0.1250    0.0000 C    0  0  0  0  0  0  0  0  0  0  0  0
    0.3958    1.3625    0.0000 C    0  0  0  0  0  0  0  0  0  0  0  0
   -1.7500    0.9500    0.0000 C    0  0  0  0  0  0  0  0  0  0  0  0
   -1.0333   -0.2875    0.0000 C    0  0  0  0  0  0  0  0  0  0  0  0
   -0.3208    0.9500    0.0000 C    0  0  0  0  0  0  0  0  0  0  0  0
    3.1458   -0.9667    0.0000 S    0  0  0  0  0  0  0  0  0  0  0  0
   -3.8917   -0.2875    0.0000 C    0  0  0  0  0  0  0  0  0  0  0  0
   -4.6083   -0.7000    0.0000 C    0  0  0  0  0  0  0  0  0  0  0  0
   -1.0333    1.3625    0.0000 C    0  0  0  0  0  0  0  0  0  0  0  0
   -0.3208    0.1250    0.0000 C    0  0  0  0  0  0  0  0  0  0  0  0
    2.0333    2.0917    0.0000 O    0  0  0  0  0  0  0  0  0  0  0  0
    1.9250   -1.5125    0.0000 C    0  0  0  0  0  0  0  0  0  0  0  0
    3.2292   -1.7875    0.0000 C    0  0  0  0  0  0  0  0  0  0  0  0
    2.4750   -2.1250    0.0000 C    0  0  0  0  0  0  0  0  0  0  0  0
   -2.4625    1.3625    0.0000 Cl   0  0  0  0  0  0  0  0  0  0  0  0
   -2.4625   -0.2875    0.0000 O    0  0  0  0  0  0  0  0  0  0  0  0
   -1.0333   -1.1125    0.0000 O    0  0  0  0  0  0  0  0  0  0  0  0
   -3.1792    0.1250    0.0000 C    0  0  0  0  0  0  0  0  0  0  0  0
   -0.3208   -1.5250    0.0000 C    0  0  0  0  0  0  0  0  0  0  0  0
  2  1  2  0  0  0  0
  3  2  1  0  0  0  0
  4  1  1  0  0  0  0
  5  4  1  0  0  0  0
  5  3  1  0  0  0  0
  6  1  1  0  0  0  0
  7  9  1  0  0  0  0
  7 10  2  0  0  0  0
  8  3  2  0  0  0  0
  9 15  2  0  0  0  0
 10 16  1  0  0  0  0
 11  8  1  0  0  0  0
 12  6  1  0  0  0  0
 13 24  1  0  0  0  0
 14 13  3  0  0  0  0
 15 11  1  0  0  0  0
 16 11  2  0  0  0  0
 17  5  2  0  0  0  0
 18  6  2  0  0  0  0
 19 12  1  0  0  0  0
 19 20  2  0  0  0  0
 20 18  1  0  0  0  0
 21  9  1  0  0  0  0
 22  7  1  0  0  0  0
 23 10  1  0  0  0  0
 24 22  1  0  0  0  0
 25 23  1  0  0  0  0
M  END
> <CdId>
3242

> <Mol Weight>
373.81

> <Formula>
C18H12ClNO4S

> <Click_ID>
CLK042B11 __ __ 

$$$$
