CLK046G02
 OpenBabel03191401532D

 22 24  0  0  0  0  0  0  0  0999 V2000
   -0.4583   -0.4500    0.0000 C   0  0  0  0  0  0  0  0  0  0  0  0
   -0.4583    1.2000    0.0000 N   0  0  0  0  0  0  0  0  0  0  0  0
    0.2583    0.7875    0.0000 C   0  0  0  0  0  0  0  0  0  0  0  0
    0.2583   -0.0333    0.0000 C   0  0  0  0  0  0  0  0  0  0  0  0
   -0.4583   -1.2750    0.0000 C   0  0  0  0  0  0  0  0  0  0  0  0
   -1.1708   -0.0333    0.0000 C   0  0  0  0  0  0  0  0  0  0  0  0
   -1.1708    0.7875    0.0000 C   0  0  0  0  0  0  0  0  0  0  0  0
    0.9708   -2.9250    0.0000 C   0  0  0  0  0  0  0  0  0  0  0  0
    1.6875   -3.3375    0.0000 C   0  0  0  0  0  0  0  0  0  0  0  0
   -1.1708   -1.6875    0.0000 O   0  0  0  0  0  0  0  0  0  0  0  0
    0.9708    1.2000    0.0000 C   0  0  0  0  0  0  0  0  0  0  0  0
    2.4000    2.0250    0.0000 N   0  0  0  0  0  0  0  0  0  0  0  0
    0.2583   -1.6875    0.0000 N   0  0  0  0  0  0  0  0  0  0  0  0
    0.2583   -2.5125    0.0000 C   0  0  0  0  0  0  0  0  0  0  0  0
   -1.8875   -0.4500    0.0000 C   0  0  0  0  0  0  0  0  0  0  0  0
   -1.8875    1.2000    0.0000 C   0  0  0  0  0  0  0  0  0  0  0  0
    2.4000    1.2000    0.0000 C   0  0  0  0  0  0  0  0  0  0  0  0
    1.6875    2.4375    0.0000 C   0  0  0  0  0  0  0  0  0  0  0  0
    1.6875    0.7875    0.0000 C   0  0  0  0  0  0  0  0  0  0  0  0
    0.9708    2.0250    0.0000 C   0  0  0  0  0  0  0  0  0  0  0  0
   -2.6000   -0.0333    0.0000 C   0  0  0  0  0  0  0  0  0  0  0  0
   -2.6000    0.7875    0.0000 C   0  0  0  0  0  0  0  0  0  0  0  0
  2  7  2  0  0  0  0
  2  3  1  0  0  0  0
  3  4  2  0  0  0  0
  4  1  1  0  0  0  0
  5  1  1  0  0  0  0
  6  1  2  0  0  0  0
  7  6  1  0  0  0  0
  8 14  1  0  0  0  0
  9  8  3  0  0  0  0
 10  5  2  0  0  0  0
 11  3  1  0  0  0  0
 12 18  2  0  0  0  0
 12 17  1  0  0  0  0
 13  5  1  0  0  0  0
 14 13  1  0  0  0  0
 15  6  1  0  0  0  0
 16  7  1  0  0  0  0
 17 19  2  0  0  0  0
 18 20  1  0  0  0  0
 19 11  1  0  0  0  0
 20 11  2  0  0  0  0
 21 15  2  0  0  0  0
 21 22  1  0  0  0  0
 22 16  2  0  0  0  0
M  END
> <CdId>
3495

> <Mol Weight>
287.3153

> <Formula>
C18H13N3O

> <Click_ID>
CLK046G02 __ __ 

$$$$
