CLK038D08
 OpenBabel03191401532D

 22 23  0  0  0  0  0  0  0  0999 V2000
    0.9710    0.2418    0.0000 N   0  0  0  0  0  0  0  0  0  0  0  0
    1.7546    0.4959    0.0000 C   0  0  0  0  0  0  0  0  0  0  0  0
    0.4876    0.9085    0.0000 C   0  0  0  0  0  0  0  0  0  0  0  0
    1.7546    1.3211    0.0000 N   0  0  0  0  0  0  0  0  0  0  0  0
    0.9710    1.5754    0.0000 C   0  0  0  0  0  0  0  0  0  0  0  0
    0.7169   -0.5418    0.0000 C   0  0  0  0  0  0  0  0  0  0  0  0
   -0.0917   -0.7127    0.0000 C   0  0  0  0  0  0  0  0  0  0  0  0
   -1.9630   -1.8422    0.0000 C   0  0  0  0  0  0  0  0  0  0  0  0
   -2.7674   -2.0130    0.0000 C   0  0  0  0  0  0  0  0  0  0  0  0
   -0.3459   -1.5004    0.0000 N   0  0  0  0  0  0  0  0  0  0  0  0
    2.4214    0.0125    0.0000 O   0  0  0  0  0  0  0  0  0  0  0  0
   -0.3376    0.9085    0.0000 O   0  0  0  0  0  0  0  0  0  0  0  0
   -1.1545   -1.6712    0.0000 C   0  0  0  0  0  0  0  0  0  0  0  0
   -0.6419   -0.1000    0.0000 O   0  0  0  0  0  0  0  0  0  0  0  0
    1.4546    2.2464    0.0000 C   0  0  0  0  0  0  0  0  0  0  0  0
    0.1875    1.8338    0.0000 C   0  0  0  0  0  0  0  0  0  0  0  0
   -1.3253   -0.8627    0.0000 C   0  0  0  0  0  0  0  0  0  0  0  0
   -0.9836   -2.4798    0.0000 C   0  0  0  0  0  0  0  0  0  0  0  0
    0.1875    2.6590    0.0000 C   0  0  0  0  0  0  0  0  0  0  0  0
    0.9710    2.9132    0.0000 C   0  0  0  0  0  0  0  0  0  0  0  0
   -0.7127   -0.3126    0.0000 C   0  0  0  0  0  0  0  0  0  0  0  0
   -1.5962   -3.0300    0.0000 C   0  0  0  0  0  0  0  0  0  0  0  0
  2  1  1  0  0  0  0
  3  1  1  0  0  0  0
  4  2  1  0  0  0  0
  5  3  1  0  0  0  0
  5  4  1  0  0  0  0
  6  1  1  0  0  0  0
  7  6  1  0  0  0  0
  8 13  1  0  0  0  0
  9  8  3  0  0  0  0
 10  7  1  0  0  0  0
 11  2  2  0  0  0  0
 12  3  2  0  0  0  0
 13 10  1  0  0  0  0
 14  7  2  0  0  0  0
 15  5  1  0  0  0  0
 16  5  1  0  0  0  0
 17 13  1  0  0  0  0
 18 13  1  0  0  0  0
 19 16  1  0  0  0  0
 19 20  1  0  0  0  0
 20 15  1  0  0  0  0
 21 17  1  0  0  0  0
 22 18  1  0  0  0  0
M  END
> <CdId>
2900

> <Mol Weight>
305.3721

> <Formula>
C16H23N3O3

> <Click_ID>
CLK038D08 __ __ 

$$$$
