CLK006_D07
 OpenBabel03191401532D

 29 31  0  0  0  0  0  0  0  0999 V2000
   -1.8831   -1.4798    0.0000 C   0  0  3  0  0  0  0  0  0  0  0  0
   -1.1847   -0.9769    0.0000 C   0  0  0  0  0  0  0  0  0  0  0  0
   -2.5482   -0.9935    0.0000 C   0  0  0  0  0  0  0  0  0  0  0  0
   -1.1681   -1.8956    0.0000 C   0  0  0  0  0  0  0  0  0  0  0  0
   -1.4674   -0.2037    0.0000 C   0  0  0  0  0  0  0  0  0  0  0  0
   -2.2946   -0.2078    0.0000 N   0  0  0  0  0  0  0  0  0  0  0  0
   -1.1598   -2.7228    0.0000 C   0  0  0  0  0  0  0  0  0  0  0  0
   -1.8789   -3.1344    0.0000 O   0  0  0  0  0  0  0  0  0  0  0  0
   -2.5981   -1.9038    0.0000 C   0  0  0  0  0  0  0  0  0  0  0  0
   -0.3617   -0.9769    0.0000 C   0  0  0  0  0  0  0  0  0  0  0  0
   -2.5939   -2.7311    0.0000 C   0  0  0  0  0  0  0  0  0  0  0  0
   -0.4531   -2.3113    0.0000 C   0  0  0  0  0  0  0  0  0  0  0  0
    0.2577   -2.7228    0.0000 N   0  0  0  0  0  0  0  0  0  0  0  0
   -2.4401    1.2097    0.0000 C   0  0  0  0  0  0  0  0  0  0  0  0
   -2.1034    1.9621    0.0000 C   0  0  0  0  0  0  0  0  0  0  0  0
   -3.3796   -1.0019    0.0000 O   0  0  0  0  0  0  0  0  0  0  0  0
   -2.7768    0.4614    0.0000 C   0  0  0  0  0  0  0  0  0  0  0  0
   -0.4365   -3.1385    0.0000 N   0  0  0  0  0  0  0  0  0  0  0  0
    0.0416   -1.6877    0.0000 O   0  0  0  0  0  0  0  0  0  0  0  0
   -0.9977    0.4697    0.0000 C   0  0  0  0  0  0  0  0  0  0  0  0
    0.0416   -0.2619    0.0000 O   0  0  0  0  0  0  0  0  0  0  0  0
   -3.3130   -1.4882    0.0000 C   0  0  0  0  0  0  0  0  0  0  0  0
   -3.3006   -3.1468    0.0000 C   0  0  0  0  0  0  0  0  0  0  0  0
    2.0993    0.4656    0.0000 O   0  0  0  0  0  0  0  0  0  0  0  0
    0.8647   -0.2536    0.0000 C   0  0  0  0  0  0  0  0  0  0  0  0
    1.2762    0.4614    0.0000 C   0  0  0  0  0  0  0  0  0  0  0  0
    2.5066    1.1805    0.0000 C   0  0  0  0  0  0  0  0  0  0  0  0
   -4.0281   -1.9122    0.0000 C   0  0  0  0  0  0  0  0  0  0  0  0
   -4.0239   -2.7353    0.0000 C   0  0  0  0  0  0  0  0  0  0  0  0
  2  1  1  0  0  0  0
  3  1  1  0  0  0  0
  4  1  1  0  0  0  0
  5  2  2  0  0  0  0
  6  3  1  0  0  0  0
  6  5  1  0  0  0  0
  7  4  2  0  0  0  0
  8 11  1  0  0  0  0
  8  7  1  0  0  0  0
  9  1  1  0  0  0  0
 10  2  1  0  0  0  0
 11  9  1  0  0  0  0
 12  4  1  0  0  0  0
 13 12  3  0  0  0  0
 14 17  1  0  0  0  0
 15 14  3  0  0  0  0
 16  3  2  0  0  0  0
 17  6  1  0  0  0  0
 18  7  1  0  0  0  0
 19 10  2  0  0  0  0
 20  5  1  0  0  0  0
 21 10  1  0  0  0  0
 22  9  2  0  0  0  0
 23 11  2  0  0  0  0
 24 26  1  0  0  0  0
 25 21  1  0  0  0  0
 26 25  1  0  0  0  0
 27 24  1  0  0  0  0
 28 22  1  0  0  0  0
 29 28  2  0  0  0  0
 29 23  1  0  0  0  0
M  END
> <CdId>
436

> <Mol Weight>
393.3927

> <Formula>
C21H19N3O5

> <Click_ID>
CLK006_D07 __ __ 

$$$$
