CLK039C06
 OpenBabel03191401532D

 17 18  0  0  0  0  0  0  0  0999 V2000
    0.8793    0.1250    0.0000 N   0  0  0  0  0  0  0  0  0  0  0  0
    0.3917    0.7959    0.0000 C   0  0  0  0  0  0  0  0  0  0  0  0
    0.8793    1.4627    0.0000 N   0  0  0  0  0  0  0  0  0  0  0  0
    1.6627    0.3833    0.0000 N   0  0  0  0  0  0  0  0  0  0  0  0
    1.6627    1.2085    0.0000 N   0  0  0  0  0  0  0  0  0  0  0  0
    0.6251   -0.6584    0.0000 C   0  0  0  0  0  0  0  0  0  0  0  0
   -1.6710    1.5085    0.0000 C   0  0  0  0  0  0  0  0  0  0  0  0
   -2.4961    1.5085    0.0000 C   0  0  0  0  0  0  0  0  0  0  0  0
   -0.1833   -0.8293    0.0000 C   0  0  0  0  0  0  0  0  0  0  0  0
   -0.4334    0.7959    0.0000 S   0  0  0  0  0  0  0  0  0  0  0  0
   -0.8459    1.5085    0.0000 C   0  0  0  0  0  0  0  0  0  0  0  0
    1.1751   -1.2710    0.0000 C   0  0  0  0  0  0  0  0  0  0  0  0
   -0.7376   -0.2167    0.0000 O   0  0  0  0  0  0  0  0  0  0  0  0
   -0.4376   -1.6127    0.0000 C   0  0  0  0  0  0  0  0  0  0  0  0
   -1.5419   -0.3875    0.0000 C   0  0  0  0  0  0  0  0  0  0  0  0
    0.9209   -2.0545    0.0000 C   0  0  0  0  0  0  0  0  0  0  0  0
    0.1125   -2.2253    0.0000 C   0  0  0  0  0  0  0  0  0  0  0  0
  2  1  1  0  0  0  0
  3  2  2  0  0  0  0
  3  5  1  0  0  0  0
  4  1  1  0  0  0  0
  5  4  2  0  0  0  0
  6  1  1  0  0  0  0
  7 11  1  0  0  0  0
  8  7  3  0  0  0  0
  9  6  2  0  0  0  0
 10  2  1  0  0  0  0
 11 10  1  0  0  0  0
 12  6  1  0  0  0  0
 13  9  1  0  0  0  0
 14  9  1  0  0  0  0
 15 13  1  0  0  0  0
 16 12  2  0  0  0  0
 16 17  1  0  0  0  0
 17 14  2  0  0  0  0
M  END
> <CdId>
2963

> <Mol Weight>
246.288

> <Formula>
C11H10N4OS

> <Click_ID>
CLK039C06 __ __ 

$$$$
