CLK007_H03
 OpenBabel03191401532D

 34 38  0  0  0  0  0  0  0  0999 V2000
    6.2473  -19.1813    0.0000 C   0  0  3  0  0  0  0  0  0  0  0  0
    5.8410  -19.8818    0.0000 C   0  0  0  0  0  0  0  0  0  0  0  0
    5.0161  -19.8902    0.0000 C   0  0  0  0  0  0  0  0  0  0  0  0
    5.8327  -18.4600    0.0000 C   0  0  0  0  0  0  0  0  0  0  0  0
    4.5973  -19.1771    0.0000 N   0  0  0  0  0  0  0  0  0  0  0  0
    6.9354  -18.7128    0.0000 C   0  0  0  0  0  0  0  0  0  0  0  0
    5.0077  -18.4641    0.0000 C   0  0  0  0  0  0  0  0  0  0  0  0
    7.5905  -19.2351    0.0000 N   0  0  0  0  0  0  0  0  0  0  0  0
    6.4712  -19.9689    0.0000 C   0  0  0  0  0  0  0  0  0  0  0  0
    7.2961  -20.0021    0.0000 C   0  0  0  0  0  0  0  0  0  0  0  0
    3.7724  -19.1689    0.0000 C   0  0  0  0  0  0  0  0  0  0  0  0
    5.6296  -20.6820    0.0000 C   0  0  0  0  0  0  0  0  0  0  0  0
    6.2390  -17.7428    0.0000 C   0  0  0  0  0  0  0  0  0  0  0  0
    5.4223  -21.4779    0.0000 N   0  0  0  0  0  0  0  0  0  0  0  0
    9.0580  -19.4798    0.0000 C   0  0  0  0  0  0  0  0  0  0  0  0
    9.7461  -19.9316    0.0000 C   0  0  0  0  0  0  0  0  0  0  0  0
    7.3458  -17.9832    0.0000 O   0  0  0  0  0  0  0  0  0  0  0  0
    3.3703  -18.4600    0.0000 C   0  0  0  0  0  0  0  0  0  0  0  0
    3.3661  -19.8860    0.0000 C   0  0  0  0  0  0  0  0  0  0  0  0
    4.4357  -20.4830    0.0000 N   0  0  0  0  0  0  0  0  0  0  0  0
    8.3864  -19.0072    0.0000 C   0  0  0  0  0  0  0  0  0  0  0  0
    7.0018  -17.4070    0.0000 O   0  0  0  0  0  0  0  0  0  0  0  0
    2.5412  -19.8902    0.0000 C   0  0  0  0  0  0  0  0  0  0  0  0
    2.5453  -18.4641    0.0000 C   0  0  0  0  0  0  0  0  0  0  0  0
    4.5891  -17.7511    0.0000 C   0  0  0  0  0  0  0  0  0  0  0  0
    2.1225  -19.1813    0.0000 C   0  0  0  0  0  0  0  0  0  0  0  0
    6.0317  -20.6571    0.0000 C   0  0  0  0  0  0  0  0  0  0  0  0
    7.6858  -20.7359    0.0000 C   0  0  0  0  0  0  0  0  0  0  0  0
    5.8245  -17.0463    0.0000 C   0  0  0  0  0  0  0  0  0  0  0  0
    4.9995  -17.0505    0.0000 C   0  0  0  0  0  0  0  0  0  0  0  0
    2.1308  -20.6073    0.0000 C   0  0  0  0  0  0  0  0  0  0  0  0
    2.1308  -17.7428    0.0000 C   0  0  0  0  0  0  0  0  0  0  0  0
    6.4131  -21.3950    0.0000 C   0  0  0  0  0  0  0  0  0  0  0  0
    7.2422  -21.4281    0.0000 C   0  0  0  0  0  0  0  0  0  0  0  0
  2  1  1  0  0  0  0
  3  2  2  0  0  0  0
  4  1  1  0  0  0  0
  5  7  1  0  0  0  0
  5  3  1  0  0  0  0
  6  1  1  0  0  0  0
  7  4  2  0  0  0  0
  8  6  1  0  0  0  0
  8 10  1  0  0  0  0
  9  1  1  0  0  0  0
 10  9  2  0  0  0  0
 11  5  1  0  0  0  0
 12  2  1  0  0  0  0
 13  4  1  0  0  0  0
 14 12  3  0  0  0  0
 15 21  1  0  0  0  0
 16 15  3  0  0  0  0
 17  6  2  0  0  0  0
 18 11  2  0  0  0  0
 19 11  1  0  0  0  0
 20  3  1  0  0  0  0
 21  8  1  0  0  0  0
 22 13  2  0  0  0  0
 23 19  2  0  0  0  0
 24 18  1  0  0  0  0
 25  7  1  0  0  0  0
 26 23  1  0  0  0  0
 26 24  2  0  0  0  0
 27  9  1  0  0  0  0
 28 10  1  0  0  0  0
 29 13  1  0  0  0  0
 30 29  1  0  0  0  0
 30 25  1  0  0  0  0
 31 23  1  0  0  0  0
 32 24  1  0  0  0  0
 33 27  2  0  0  0  0
 34 33  1  0  0  0  0
 34 28  2  0  0  0  0
M  END
> <CdId>
552

> <Mol Weight>
448.5158

> <Formula>
C28H24N4O2

> <Click_ID>
CLK007_H03 __ __ 

$$$$
