CLK027_F03
 OpenBabel03191401532D

 25 27  0  0  0  0  0  0  0  0999 V2000
   -1.1466   -0.2712    0.0000 C    0  0  3  0  0  0  0  0  0  0  0  0
   -1.7095   -0.8891    0.0000 C    0  0  0  0  0  0  0  0  0  0  0  0
   -1.5722    0.4428    0.0000 C    0  0  0  0  0  0  0  0  0  0  0  0
   -2.4544   -0.5596    0.0000 N    0  0  0  0  0  0  0  0  0  0  0  0
   -2.3789    0.2643    0.0000 C    0  0  0  0  0  0  0  0  0  0  0  0
   -0.4291    0.1373    0.0000 C    0  0  0  0  0  0  0  0  0  0  0  0
    0.2815   -0.2712    0.0000 C    0  0  0  0  0  0  0  0  0  0  0  0
   -3.1650   -1.7987    0.0000 C    0  0  0  0  0  0  0  0  0  0  0  0
   -2.9212    0.8719    0.0000 C    0  0  0  0  0  0  0  0  0  0  0  0
   -3.1650   -2.6123    0.0000 C    0  0  0  0  0  0  0  0  0  0  0  0
   -1.3079    1.2220    0.0000 C    0  0  0  0  0  0  0  0  0  0  0  0
   -1.5379   -1.6924    0.0000 O    0  0  0  0  0  0  0  0  0  0  0  0
    1.0024    0.1304    0.0000 C    0  0  0  0  0  0  0  0  0  0  0  0
   -3.1650   -0.9783    0.0000 C    0  0  0  0  0  0  0  0  0  0  0  0
   -0.7483   -0.9818    0.0000 O    0  0  0  0  0  0  0  0  0  0  0  0
    0.2815   -1.0916    0.0000 O    0  0  0  0  0  0  0  0  0  0  0  0
    1.0058    0.9509    0.0000 C    0  0  0  0  0  0  0  0  0  0  0  0
    1.7060   -0.2986    0.0000 C    0  0  0  0  0  0  0  0  0  0  0  0
   -1.8708    1.8331    0.0000 C    0  0  0  0  0  0  0  0  0  0  0  0
   -2.6810    1.6580    0.0000 C    0  0  0  0  0  0  0  0  0  0  0  0
    2.4407    0.9268    0.0000 C    0  0  0  0  0  0  0  0  0  0  0  0
    2.4269    0.1030    0.0000 C    0  0  0  0  0  0  0  0  0  0  0  0
    1.7301    1.3594    0.0000 C    0  0  0  0  0  0  0  0  0  0  0  0
   -1.6203    2.6157    0.0000 Br   0  0  0  0  0  0  0  0  0  0  0  0
    3.1615    1.3353    0.0000 Cl   0  0  0  0  0  0  0  0  0  0  0  0
  2  1  1  0  0  0  0
  3  1  1  0  0  0  0
  4  2  1  0  0  0  0
  4  5  1  0  0  0  0
  5  3  2  0  0  0  0
  6  1  1  0  0  0  0
  7  6  1  0  0  0  0
  8 14  1  0  0  0  0
  9  5  1  0  0  0  0
 10  8  3  0  0  0  0
 11  3  1  0  0  0  0
 12  2  2  0  0  0  0
 13  7  1  0  0  0  0
 14  4  1  0  0  0  0
 15  1  1  0  0  0  0
 16  7  2  0  0  0  0
 17 13  1  0  0  0  0
 18 13  2  0  0  0  0
 19 11  2  0  0  0  0
 20 19  1  0  0  0  0
 20  9  2  0  0  0  0
 21 22  2  0  0  0  0
 21 23  1  0  0  0  0
 22 18  1  0  0  0  0
 23 17  2  0  0  0  0
 24 19  1  0  0  0  0
 25 21  1  0  0  0  0
M  END
> <CdId>
2063

> <Mol Weight>
418.668

> <Formula>
C19H13BrClNO3

> <Click_ID>
CLK027_F03 __ __ 

$$$$
