CLK004_A09
 OpenBabel03191401532D

 29 32  0  0  0  0  0  0  0  0999 V2000
    1.3789    0.4532    0.0000 C    0  0  0  0  0  0  0  0  0  0  0  0
    0.6653    0.8630    0.0000 C    0  0  3  0  0  0  0  0  0  0  0  0
    1.3717   -0.3688    0.0000 C    0  0  0  0  0  0  0  0  0  0  0  0
    2.0901    0.8679    0.0000 C    0  0  0  0  0  0  0  0  0  0  0  0
   -0.0458    0.4532    0.0000 C    0  0  0  0  0  0  0  0  0  0  0  0
    0.6702    1.6850    0.0000 C    0  0  0  0  0  0  0  0  0  0  0  0
    2.0901   -0.7787    0.0000 C    0  0  0  0  0  0  0  0  0  0  0  0
    0.6605   -0.7787    0.0000 C    0  0  0  0  0  0  0  0  0  0  0  0
    2.8036    0.4532    0.0000 C    0  0  0  0  0  0  0  0  0  0  0  0
    2.0901    1.6947    0.0000 N    0  0  0  0  0  0  0  0  0  0  0  0
   -0.7594    0.8679    0.0000 C    0  0  0  0  0  0  0  0  0  0  0  0
   -0.0531   -0.3688    0.0000 C    0  0  0  0  0  0  0  0  0  0  0  0
    1.3813    2.1045    0.0000 C    0  0  0  0  0  0  0  0  0  0  0  0
    2.8036   -0.3737    0.0000 C    0  0  0  0  0  0  0  0  0  0  0  0
    2.0901   -1.6055    0.0000 C    0  0  0  0  0  0  0  0  0  0  0  0
    0.6557   -1.6007    0.0000 C    0  0  0  0  0  0  0  0  0  0  0  0
   -1.4753    0.4629    0.0000 C    0  0  0  0  0  0  0  0  0  0  0  0
   -0.7618   -0.7787    0.0000 C    0  0  0  0  0  0  0  0  0  0  0  0
    1.3717    2.9362    0.0000 O    0  0  0  0  0  0  0  0  0  0  0  0
    1.3717   -2.0202    0.0000 C    0  0  0  0  0  0  0  0  0  0  0  0
   -1.4753   -0.3688    0.0000 C    0  0  0  0  0  0  0  0  0  0  0  0
   -2.1841    0.8751    0.0000 O    0  0  0  0  0  0  0  0  0  0  0  0
   -0.7690   -1.6055    0.0000 Cl   0  0  0  0  0  0  0  0  0  0  0  0
   -2.1865   -0.7883    0.0000 O    0  0  0  0  0  0  0  0  0  0  0  0
   -2.1792    1.6971    0.0000 C    0  0  0  0  0  0  0  0  0  0  0  0
   -2.1841   -1.6176    0.0000 C    0  0  0  0  0  0  0  0  0  0  0  0
   -2.8928    2.1141    0.0000 C    0  0  0  0  0  0  0  0  0  0  0  0
   -2.9001   -2.0274    0.0000 C    0  0  0  0  0  0  0  0  0  0  0  0
   -3.6185   -2.4468    0.0000 C    0  0  0  0  0  0  0  0  0  0  0  0
  1  2  1  0  0  0  0
  1  3  1  0  0  0  0
  1  4  2  0  0  0  0
  2  5  1  0  0  0  0
  2  6  1  0  0  0  0
  3  7  1  0  0  0  0
  3  8  2  0  0  0  0
  4  9  1  0  0  0  0
  4 10  1  0  0  0  0
  5 11  2  0  0  0  0
  5 12  1  0  0  0  0
  6 13  1  0  0  0  0
  7 14  1  0  0  0  0
  7 15  2  0  0  0  0
  8 16  1  0  0  0  0
  9 14  2  0  0  0  0
 10 13  1  0  0  0  0
 11 17  1  0  0  0  0
 12 18  2  0  0  0  0
 13 19  2  0  0  0  0
 15 20  1  0  0  0  0
 16 20  2  0  0  0  0
 17 21  2  0  0  0  0
 17 22  1  0  0  0  0
 18 23  1  0  0  0  0
 18 21  1  0  0  0  0
 21 24  1  0  0  0  0
 22 25  1  0  0  0  0
 24 26  1  0  0  0  0
 25 27  1  0  0  0  0
 26 28  1  0  0  0  0
 28 29  3  0  0  0  0
M  END
> <CdId>
248

> <Mol Weight>
405.874

> <Formula>
C24H20ClNO3

> <Click_ID>
CLK004_A09 __ __ 

$$$$
