CLK041H08
 OpenBabel03191401532D

 25 28  0  0  0  0  0  0  0  0999 V2000
   -0.8208   -0.1417    0.0000 C   0  0  0  0  0  0  0  0  0  0  0  0
   -1.3083    0.5292    0.0000 N   0  0  0  0  0  0  0  0  0  0  0  0
   -1.3083   -0.8083    0.0000 N   0  0  0  0  0  0  0  0  0  0  0  0
    0.0042   -0.1417    0.0000 C   0  0  3  0  0  0  0  0  0  0  0  0
    1.2708    0.2708    0.0000 N   0  0  0  0  0  0  0  0  0  0  0  0
    1.2708   -0.5542    0.0000 C   0  0  0  0  0  0  0  0  0  0  0  0
    0.4875    0.5292    0.0000 C   0  0  0  0  0  0  0  0  0  0  0  0
   -2.0917   -0.5542    0.0000 C   0  0  0  0  0  0  0  0  0  0  0  0
   -2.0917    0.2708    0.0000 C   0  0  0  0  0  0  0  0  0  0  0  0
    0.4875   -0.8083    0.0000 C   0  0  0  0  0  0  0  0  0  0  0  0
    1.9375    0.7583    0.0000 C   0  0  0  0  0  0  0  0  0  0  0  0
   -1.6042   -2.2042    0.0000 C   0  0  0  0  0  0  0  0  0  0  0  0
   -2.1583   -2.8167    0.0000 C   0  0  0  0  0  0  0  0  0  0  0  0
    1.9375   -1.0375    0.0000 O   0  0  0  0  0  0  0  0  0  0  0  0
   -1.0542   -1.5917    0.0000 C   0  0  0  0  0  0  0  0  0  0  0  0
    1.8542    1.5792    0.0000 C   0  0  0  0  0  0  0  0  0  0  0  0
    2.6917    0.4208    0.0000 C   0  0  0  0  0  0  0  0  0  0  0  0
    3.2750    1.7292    0.0000 C   0  0  0  0  0  0  0  0  0  0  0  0
    2.5208    2.0625    0.0000 C   0  0  0  0  0  0  0  0  0  0  0  0
    3.3583    0.9083    0.0000 C   0  0  0  0  0  0  0  0  0  0  0  0
    3.9417    2.2125    0.0000 F   0  0  0  0  0  0  0  0  0  0  0  0
   -2.8083   -0.9667    0.0000 C   0  0  0  0  0  0  0  0  0  0  0  0
   -2.8083    0.6833    0.0000 C   0  0  0  0  0  0  0  0  0  0  0  0
   -3.5208   -0.5542    0.0000 C   0  0  0  0  0  0  0  0  0  0  0  0
   -3.5208    0.2708    0.0000 C   0  0  0  0  0  0  0  0  0  0  0  0
  2  1  2  0  0  0  0
  3  1  1  0  0  0  0
  4  1  1  0  0  0  0
  5  7  1  0  0  0  0
  6 10  1  0  0  0  0
  6  5  1  0  0  0  0
  7  4  1  0  0  0  0
  8  3  1  0  0  0  0
  8  9  2  0  0  0  0
  9  2  1  0  0  0  0
 10  4  1  0  0  0  0
 11  5  1  0  0  0  0
 12 15  1  0  0  0  0
 13 12  3  0  0  0  0
 14  6  2  0  0  0  0
 15  3  1  0  0  0  0
 16 11  1  0  0  0  0
 17 11  2  0  0  0  0
 18 20  2  0  0  0  0
 19 16  2  0  0  0  0
 19 18  1  0  0  0  0
 20 17  1  0  0  0  0
 21 18  1  0  0  0  0
 22  8  1  0  0  0  0
 23  9  1  0  0  0  0
 24 22  2  0  0  0  0
 24 25  1  0  0  0  0
 25 23  2  0  0  0  0
M  END
> <CdId>
3144

> <Mol Weight>
333.3589

> <Formula>
C20H16FN3O

> <Click_ID>
CLK041H08 __ __ 

$$$$
