CLK036_F04
 OpenBabel03191401532D

 27 29  0  0  0  0  0  0  0  0999 V2000
    3.6873   -0.6410    0.0000 C   0  0  0  0  0  0  0  0  0  0  0  0
    4.1742   -1.3151    0.0000 N   0  0  0  0  0  0  0  0  0  0  0  0
    2.8633   -0.6410    0.0000 N   0  0  0  0  0  0  0  0  0  0  0  0
    3.9370    0.1373    0.0000 S   0  0  0  0  0  0  0  0  0  0  0  0
    2.6011    0.1456    0.0000 C   0  0  0  0  0  0  0  0  0  0  0  0
    4.9982   -1.2235    0.0000 C   0  0  0  0  0  0  0  0  0  0  0  0
    6.6338   -1.0404    0.0000 S   0  0  0  0  0  0  0  0  0  0  0  0
    3.2711    0.6243    0.0000 C   0  0  0  0  0  0  0  0  0  0  0  0
    5.4852   -1.8895    0.0000 C   0  0  0  0  0  0  0  0  0  0  0  0
    6.3050   -1.8021    0.0000 C   0  0  0  0  0  0  0  0  0  0  0  0
    1.8520    0.4828    0.0000 C   0  0  0  0  0  0  0  0  0  0  0  0
    3.1837    1.4441    0.0000 C   0  0  0  0  0  0  0  0  0  0  0  0
    1.7646    1.2985    0.0000 C   0  0  0  0  0  0  0  0  0  0  0  0
    1.5524   -1.2402    0.0000 C   0  0  0  0  0  0  0  0  0  0  0  0
    0.7283   -1.1653    0.0000 C   0  0  0  0  0  0  0  0  0  0  0  0
    5.8722   -0.7033    0.0000 O   0  0  0  0  0  0  0  0  0  0  0  0
    7.3954   -1.3734    0.0000 O   0  0  0  0  0  0  0  0  0  0  0  0
    2.4263    1.7812    0.0000 C   0  0  0  0  0  0  0  0  0  0  0  0
    5.3353   -0.4662    0.0000 O   0  0  0  0  0  0  0  0  0  0  0  0
    2.3763   -1.3234    0.0000 C   0  0  0  0  0  0  0  0  0  0  0  0
    1.1778   -0.0042    0.0000 F   0  0  0  0  0  0  0  0  0  0  0  0
    6.9709   -0.2789    0.0000 C   0  0  0  0  0  0  0  0  0  0  0  0
    2.3389    2.6052    0.0000 F   0  0  0  0  0  0  0  0  0  0  0  0
    5.1481   -2.6386    0.0000 C   0  0  0  0  0  0  0  0  0  0  0  0
    6.7919   -2.4720    0.0000 C   0  0  0  0  0  0  0  0  0  0  0  0
    5.6350   -3.3128    0.0000 C   0  0  0  0  0  0  0  0  0  0  0  0
    6.4548   -3.2254    0.0000 C   0  0  0  0  0  0  0  0  0  0  0  0
  2  1  2  0  0  0  0
  3  1  1  0  0  0  0
  4  1  1  0  0  0  0
  5  3  1  0  0  0  0
  5  8  2  0  0  0  0
  6  2  1  0  0  0  0
  7 10  1  0  0  0  0
  8  4  1  0  0  0  0
  9  6  1  0  0  0  0
 10  9  1  0  0  0  0
 11  5  1  0  0  0  0
 12  8  1  0  0  0  0
 13 11  2  0  0  0  0
 13 18  1  0  0  0  0
 14 20  1  0  0  0  0
 15 14  3  0  0  0  0
 16  7  2  0  0  0  0
 17  7  2  0  0  0  0
 18 12  2  0  0  0  0
 19  6  2  0  0  0  0
 20  3  1  0  0  0  0
 21 11  1  0  0  0  0
 22  7  1  0  0  0  0
 23 18  1  0  0  0  0
 24  9  2  0  0  0  0
 25 10  2  0  0  0  0
 25 27  1  0  0  0  0
 26 24  1  0  0  0  0
 27 26  2  0  0  0  0
M  END
> <CdId>
2756

> <Mol Weight>
406.426

> <Formula>
C18H12F2N2O3S2

> <Click_ID>
CLK036_F04 __ __ 

$$$$
