CLK048D02
 OpenBabel03191401532D

 24 26  0  0  0  0  0  0  0  0999 V2000
   -0.9458    2.4333    0.0000 S   0  0  0  0  0  0  0  0  0  0  0  0
   -0.4583    1.7625    0.0000 N   0  0  0  0  0  0  0  0  0  0  0  0
   -0.9458    1.0958    0.0000 C   0  0  0  0  0  0  0  0  0  0  0  0
   -1.7292    1.3500    0.0000 C   0  0  0  0  0  0  0  0  0  0  0  0
   -1.7292    2.1750    0.0000 C   0  0  0  0  0  0  0  0  0  0  0  0
   -0.9333    3.2583    0.0000 O   0  0  0  0  0  0  0  0  0  0  0  0
   -0.4667    3.1083    0.0000 O   0  0  0  0  0  0  0  0  0  0  0  0
   -0.6875    0.3125    0.0000 N   0  0  0  0  0  0  0  0  0  0  0  0
    3.3042   -2.7292    0.0000 C   0  0  0  0  0  0  0  0  0  0  0  0
    4.1125   -2.9000    0.0000 C   0  0  0  0  0  0  0  0  0  0  0  0
    0.3750   -0.6417    0.0000 C   0  0  0  0  0  0  0  0  0  0  0  0
    1.1792   -0.8167    0.0000 N   0  0  0  0  0  0  0  0  0  0  0  0
    1.4333   -1.6000    0.0000 C   0  0  0  0  0  0  0  0  0  0  0  0
   -0.1792   -1.2583    0.0000 O   0  0  0  0  0  0  0  0  0  0  0  0
    0.1167    0.1417    0.0000 C   0  0  0  0  0  0  0  0  0  0  0  0
    2.4958   -2.5542    0.0000 C   0  0  0  0  0  0  0  0  0  0  0  0
    2.2417   -1.7708    0.0000 C   0  0  0  0  0  0  0  0  0  0  0  0
   -2.4417    0.9375    0.0000 C   0  0  0  0  0  0  0  0  0  0  0  0
   -2.4417    2.5875    0.0000 C   0  0  0  0  0  0  0  0  0  0  0  0
    1.1375   -2.9958    0.0000 C   0  0  0  0  0  0  0  0  0  0  0  0
    0.8833   -2.2125    0.0000 C   0  0  0  0  0  0  0  0  0  0  0  0
    1.9458   -3.1708    0.0000 C   0  0  0  0  0  0  0  0  0  0  0  0
   -3.1583    1.3500    0.0000 C   0  0  0  0  0  0  0  0  0  0  0  0
   -3.1583    2.1750    0.0000 C   0  0  0  0  0  0  0  0  0  0  0  0
  2  1  1  0  0  0  0
  3  2  2  0  0  0  0
  4  5  2  0  0  0  0
  4  3  1  0  0  0  0
  5  1  1  0  0  0  0
  6  1  2  0  0  0  0
  7  1  2  0  0  0  0
  8  3  1  0  0  0  0
  9 16  1  0  0  0  0
 10  9  3  0  0  0  0
 11 15  1  0  0  0  0
 12 11  1  0  0  0  0
 13 12  1  0  0  0  0
 14 11  2  0  0  0  0
 15  8  1  0  0  0  0
 16 17  1  0  0  0  0
 17 13  2  0  0  0  0
 18  4  1  0  0  0  0
 19  5  1  0  0  0  0
 20 21  2  0  0  0  0
 21 13  1  0  0  0  0
 22 16  2  0  0  0  0
 22 20  1  0  0  0  0
 23 18  2  0  0  0  0
 23 24  1  0  0  0  0
 24 19  2  0  0  0  0
M  END
> <CdId>
3652

> <Mol Weight>
339.368

> <Formula>
C17H13N3O3S

> <Click_ID>
CLK048D02 __ __ 

$$$$
