CLK046F09
 OpenBabel03191401532D

 15 16  0  0  0  0  0  0  0  0999 V2000
    0.7125   -0.5500    0.0000 C   0  0  0  0  0  0  0  0  0  0  0  0
   -0.0042   -0.1375    0.0000 C   0  0  0  0  0  0  0  0  0  0  0  0
    2.8542   -0.1375    0.0000 C   0  0  0  0  0  0  0  0  0  0  0  0
    3.5708    0.2750    0.0000 C   0  0  0  0  0  0  0  0  0  0  0  0
   -0.7167   -0.5500    0.0000 C   0  0  0  0  0  0  0  0  0  0  0  0
   -1.4333   -0.1375    0.0000 C   0  0  0  0  0  0  0  0  0  0  0  0
   -1.4333    0.6875    0.0000 C   0  0  0  0  0  0  0  0  0  0  0  0
    0.7125   -1.3750    0.0000 O   0  0  0  0  0  0  0  0  0  0  0  0
   -0.0042    0.6875    0.0000 C   0  0  0  0  0  0  0  0  0  0  0  0
   -0.7167    1.1000    0.0000 C   0  0  0  0  0  0  0  0  0  0  0  0
    1.4250   -0.1375    0.0000 N   0  0  0  0  0  0  0  0  0  0  0  0
    2.1417   -0.5500    0.0000 C   0  0  0  0  0  0  0  0  0  0  0  0
   -2.2167   -0.3917    0.0000 C   0  0  0  0  0  0  0  0  0  0  0  0
   -2.7000    0.2750    0.0000 C   0  0  0  0  0  0  0  0  0  0  0  0
   -2.2167    0.9458    0.0000 C   0  0  0  0  0  0  0  0  0  0  0  0
  2  1  1  0  0  0  0
  3 12  1  0  0  0  0
  4  3  3  0  0  0  0
  5  2  2  0  0  0  0
  6  5  1  0  0  0  0
  7  6  2  0  0  0  0
  7 10  1  0  0  0  0
  8  1  2  0  0  0  0
  9  2  1  0  0  0  0
 10  9  2  0  0  0  0
 11  1  1  0  0  0  0
 12 11  1  0  0  0  0
 13  6  1  0  0  0  0
 14 13  1  0  0  0  0
 14 15  1  0  0  0  0
 15  7  1  0  0  0  0
M  END
> <CdId>
3550

> <Mol Weight>
199.2484

> <Formula>
C13H13NO

> <Click_ID>
CLK046F09 __ __ 

$$$$
