CLK051E08
 OpenBabel03191401532D

 20 21  0  0  0  0  0  0  0  0999 V2000
   -0.7417   -0.6750    0.0000 C   0  0  0  0  0  0  0  0  0  0  0  0
   -1.2250   -1.3458    0.0000 O   0  0  0  0  0  0  0  0  0  0  0  0
   -1.2250   -0.0083    0.0000 C   0  0  0  0  0  0  0  0  0  0  0  0
    0.4958    0.0375    0.0000 N   0  0  0  0  0  0  0  0  0  0  0  0
    0.0833   -0.6750    0.0000 C   0  0  3  0  0  0  0  0  0  0  0  0
   -2.0083   -1.0875    0.0000 C   0  0  0  0  0  0  0  0  0  0  0  0
   -2.0083   -0.2625    0.0000 C   0  0  0  0  0  0  0  0  0  0  0  0
    3.7958    1.4667    0.0000 C   0  0  0  0  0  0  0  0  0  0  0  0
    4.6208    1.4667    0.0000 C   0  0  0  0  0  0  0  0  0  0  0  0
    1.7333    0.7542    0.0000 C   0  0  0  0  0  0  0  0  0  0  0  0
    1.3208    0.0375    0.0000 C   0  0  0  0  0  0  0  0  0  0  0  0
    1.3208    1.4667    0.0000 O   0  0  0  0  0  0  0  0  0  0  0  0
    2.5583    0.7542    0.0000 N   0  0  0  0  0  0  0  0  0  0  0  0
    2.9708    1.4667    0.0000 C   0  0  0  0  0  0  0  0  0  0  0  0
    0.0833    0.7542    0.0000 C   0  0  0  0  0  0  0  0  0  0  0  0
   -2.7250   -1.5000    0.0000 C   0  0  0  0  0  0  0  0  0  0  0  0
   -2.7250    0.1500    0.0000 C   0  0  0  0  0  0  0  0  0  0  0  0
    0.4958   -1.3917    0.0000 C   0  0  0  0  0  0  0  0  0  0  0  0
   -3.4375   -1.0875    0.0000 C   0  0  0  0  0  0  0  0  0  0  0  0
   -3.4375   -0.2625    0.0000 C   0  0  0  0  0  0  0  0  0  0  0  0
  2  1  1  0  0  0  0
  3  1  2  0  0  0  0
  4  5  1  0  0  0  0
  5  1  1  0  0  0  0
  6  2  1  0  0  0  0
  6  7  2  0  0  0  0
  7  3  1  0  0  0  0
  8 14  1  0  0  0  0
  9  8  3  0  0  0  0
 10 11  1  0  0  0  0
 11  4  1  0  0  0  0
 12 10  2  0  0  0  0
 13 10  1  0  0  0  0
 14 13  1  0  0  0  0
 15  4  1  0  0  0  0
 16  6  1  0  0  0  0
 17  7  1  0  0  0  0
 18  5  1  0  0  0  0
 19 16  2  0  0  0  0
 19 20  1  0  0  0  0
 20 17  2  0  0  0  0
M  END
> <CdId>
3941

> <Mol Weight>
270.3263

> <Formula>
C16H18N2O2

> <Click_ID>
CLK051E08 __ __ 

$$$$
