CLK002_H05
 OpenBabel03191401532D

 11 11  0  0  0  0  0  0  0  0999 V2000
   -0.0658    0.1865    0.0000 C   0  0  0  0  0  0  0  0  0  0  0  0
   -0.0658   -0.6618    0.0000 C   0  0  0  0  0  0  0  0  0  0  0  0
   -0.7825    0.5923    0.0000 C   0  0  0  0  0  0  0  0  0  0  0  0
    0.6582    0.6107    0.0000 N   0  0  0  0  0  0  0  0  0  0  0  0
   -0.7825   -1.0640    0.0000 C   0  0  0  0  0  0  0  0  0  0  0  0
   -1.5028    0.1865    0.0000 C   0  0  0  0  0  0  0  0  0  0  0  0
    1.3785    0.2085    0.0000 C   0  0  0  0  0  0  0  0  0  0  0  0
   -1.5028   -0.6618    0.0000 C   0  0  0  0  0  0  0  0  0  0  0  0
    2.0806    0.6326    0.0000 C   0  0  0  0  0  0  0  0  0  0  0  0
   -2.2049   -1.0859    0.0000 C   0  0  0  0  0  0  0  0  0  0  0  0
    2.7972    1.0568    0.0000 C   0  0  0  0  0  0  0  0  0  0  0  0
  1  2  1  0  0  0  0
  1  3  2  0  0  0  0
  1  4  1  0  0  0  0
  2  5  2  0  0  0  0
  3  6  1  0  0  0  0
  4  7  1  0  0  0  0
  5  8  1  0  0  0  0
  6  8  2  0  0  0  0
  7  9  1  0  0  0  0
  8 10  1  0  0  0  0
  9 11  3  0  0  0  0
M  END
> <CdId>
154

> <Mol Weight>
145.201

> <Formula>
C10H11N

> <Click_ID>
CLK002_H05 __ __ 

$$$$
