CLK020_D04
 OpenBabel03191401532D

 29 32  0  0  0  0  0  0  0  0999 V2000
    3.0005    2.6660    0.0000 C   0  0  0  0  0  0  0  0  0  0  0  0
    3.0005    3.4906    0.0000 C   0  0  0  0  0  0  0  0  0  0  0  0
    3.7151    2.2537    0.0000 C   0  0  3  0  0  0  0  0  0  0  0  0
    2.2859    3.9028    0.0000 C   0  0  0  0  0  0  0  0  0  0  0  0
    3.7151    1.4292    0.0000 N   0  0  0  0  0  0  0  0  0  0  0  0
    2.2859    2.2537    0.0000 C   0  0  0  0  0  0  0  0  0  0  0  0
    8.0027    3.9028    0.0000 C   0  0  0  0  0  0  0  0  0  0  0  0
    8.7173    4.3151    0.0000 C   0  0  0  0  0  0  0  0  0  0  0  0
    4.4297    1.0169    0.0000 C   0  0  0  0  0  0  0  0  0  0  0  0
    4.4297    2.6660    0.0000 C   0  0  0  0  0  0  0  0  0  0  0  0
    2.2859    4.7182    0.0000 N   0  0  0  0  0  0  0  0  0  0  0  0
    4.4297    0.1924    0.0000 N   0  0  0  0  0  0  0  0  0  0  0  0
    1.5712    3.4906    0.0000 C   0  0  0  0  0  0  0  0  0  0  0  0
    1.5712    2.6660    0.0000 C   0  0  0  0  0  0  0  0  0  0  0  0
    5.1443    2.2537    0.0000 C   0  0  0  0  0  0  0  0  0  0  0  0
    4.4297    3.4906    0.0000 C   0  0  0  0  0  0  0  0  0  0  0  0
    3.7151    3.9028    0.0000 O   0  0  0  0  0  0  0  0  0  0  0  0
    5.8589    3.4906    0.0000 C   0  0  0  0  0  0  0  0  0  0  0  0
    5.1443    3.9028    0.0000 C   0  0  0  0  0  0  0  0  0  0  0  0
    5.8589    2.6660    0.0000 C   0  0  0  0  0  0  0  0  0  0  0  0
    7.2881    3.4906    0.0000 C   0  0  0  0  0  0  0  0  0  0  0  0
    6.5735    3.9028    0.0000 O   0  0  0  0  0  0  0  0  0  0  0  0
    1.5712    5.1305    0.0000 C   0  0  0  0  0  0  0  0  0  0  0  0
    5.1443   -0.2199    0.0000 C   0  0  0  0  0  0  0  0  0  0  0  0
    5.1443    1.4292    0.0000 C   0  0  0  0  0  0  0  0  0  0  0  0
    0.8566    3.9028    0.0000 C   0  0  0  0  0  0  0  0  0  0  0  0
    0.8566    4.7182    0.0000 C   0  0  0  0  0  0  0  0  0  0  0  0
    5.8589    0.1924    0.0000 C   0  0  0  0  0  0  0  0  0  0  0  0
    5.8589    1.0169    0.0000 C   0  0  0  0  0  0  0  0  0  0  0  0
  2  1  2  0  0  0  0
  3  1  1  0  0  0  0
  4  2  1  0  0  0  0
  4 13  1  0  0  0  0
  5  3  1  0  0  0  0
  6  1  1  0  0  0  0
  7 21  1  0  0  0  0
  8  7  3  0  0  0  0
  9  5  1  0  0  0  0
 10  3  1  0  0  0  0
 11  4  2  0  0  0  0
 12  9  2  0  0  0  0
 13 14  1  0  0  0  0
 14  6  2  0  0  0  0
 15 10  1  0  0  0  0
 16 10  2  0  0  0  0
 17  2  1  0  0  0  0
 18 19  2  0  0  0  0
 19 16  1  0  0  0  0
 20 15  2  0  0  0  0
 20 18  1  0  0  0  0
 21 22  1  0  0  0  0
 22 18  1  0  0  0  0
 23 11  1  0  0  0  0
 23 27  2  0  0  0  0
 24 12  1  0  0  0  0
 25  9  1  0  0  0  0
 26 13  2  0  0  0  0
 27 26  1  0  0  0  0
 28 29  1  0  0  0  0
 28 24  2  0  0  0  0
 29 25  2  0  0  0  0
M  END
> <CdId>
1509

> <Mol Weight>
381.4266

> <Formula>
C24H19N3O2

> <Click_ID>
CLK020_D04 __ __ 

$$$$
