CLK051G03
 OpenBabel03191401532D

 20 22  0  0  0  0  0  0  0  0999 V2000
   -0.7833   -0.4625    0.0000 C   0  0  0  0  0  0  0  0  0  0  0  0
   -1.2667   -1.1292    0.0000 N   0  0  0  0  0  0  0  0  0  0  0  0
    0.0417   -0.4625    0.0000 C   0  0  0  0  0  0  0  0  0  0  0  0
   -1.2667    0.2042    0.0000 C   0  0  0  0  0  0  0  0  0  0  0  0
   -2.0500   -0.8750    0.0000 C   0  0  0  0  0  0  0  0  0  0  0  0
    0.4542    0.2542    0.0000 N   0  0  0  0  0  0  0  0  0  0  0  0
   -2.0500   -0.0500    0.0000 C   0  0  0  0  0  0  0  0  0  0  0  0
    2.9292    1.6792    0.0000 C   0  0  0  0  0  0  0  0  0  0  0  0
    3.3417    2.3958    0.0000 C   0  0  0  0  0  0  0  0  0  0  0  0
    0.4542   -1.1750    0.0000 O   0  0  0  0  0  0  0  0  0  0  0  0
    1.2792    0.2542    0.0000 C   0  0  0  0  0  0  0  0  0  0  0  0
    2.5167    0.9667    0.0000 C   0  0  0  0  0  0  0  0  0  0  0  0
    1.6917    0.9667    0.0000 C   0  0  0  0  0  0  0  0  0  0  0  0
   -2.7667   -1.2875    0.0000 C   0  0  0  0  0  0  0  0  0  0  0  0
    2.5167   -0.4625    0.0000 C   0  0  0  0  0  0  0  0  0  0  0  0
   -2.7667    0.3625    0.0000 C   0  0  0  0  0  0  0  0  0  0  0  0
    1.6917   -0.4625    0.0000 C   0  0  0  0  0  0  0  0  0  0  0  0
    2.9292    0.2542    0.0000 C   0  0  0  0  0  0  0  0  0  0  0  0
   -3.4792   -0.8750    0.0000 C   0  0  0  0  0  0  0  0  0  0  0  0
   -3.4792   -0.0500    0.0000 C   0  0  0  0  0  0  0  0  0  0  0  0
  2  1  1  0  0  0  0
  3  1  1  0  0  0  0
  4  1  2  0  0  0  0
  5  2  1  0  0  0  0
  5  7  2  0  0  0  0
  6  3  1  0  0  0  0
  7  4  1  0  0  0  0
  8 12  1  0  0  0  0
  9  8  3  0  0  0  0
 10  3  2  0  0  0  0
 11  6  1  0  0  0  0
 12 13  1  0  0  0  0
 13 11  2  0  0  0  0
 14  5  1  0  0  0  0
 15 17  2  0  0  0  0
 16  7  1  0  0  0  0
 17 11  1  0  0  0  0
 18 12  2  0  0  0  0
 18 15  1  0  0  0  0
 19 14  2  0  0  0  0
 19 20  1  0  0  0  0
 20 16  2  0  0  0  0
M  END
> <CdId>
3903

> <Mol Weight>
260.29

> <Formula>
C17H12N2O

> <Click_ID>
CLK051G03 __ __ 

$$$$
