CLK028_D11
 OpenBabel03191401532D

 29 31  0  0  0  0  0  0  0  0999 V2000
   -2.1805    0.3066    0.0000 C    0  0  0  0  0  0  0  0  0  0  0  0
   -2.1805   -1.1196    0.0000 C    0  0  0  0  0  0  0  0  0  0  0  0
   -1.7740   -0.4065    0.0000 C    0  0  0  0  0  0  0  0  0  0  0  0
   -2.9866    0.4822    0.0000 C    0  0  0  0  0  0  0  0  0  0  0  0
   -2.9866   -1.2953    0.0000 C    0  0  0  0  0  0  0  0  0  0  0  0
   -2.3252    1.6432    0.0000 N    0  0  0  0  0  0  0  0  0  0  0  0
   -2.3252   -2.4561    0.0000 N    0  0  0  0  0  0  0  0  0  0  0  0
   -0.9404   -0.4065    0.0000 C    0  0  0  0  0  0  0  0  0  0  0  0
   -3.0762   -2.1151    0.0000 N    0  0  0  0  0  0  0  0  0  0  0  0
   -3.0762    1.2987    0.0000 N    0  0  0  0  0  0  0  0  0  0  0  0
   -1.7740    1.0231    0.0000 C    0  0  0  0  0  0  0  0  0  0  0  0
   -1.7740   -1.8395    0.0000 C    0  0  0  0  0  0  0  0  0  0  0  0
    0.7131   -0.4065    0.0000 C    0  0  0  0  0  0  0  0  0  0  0  0
    0.2997   -1.1196    0.0000 C    0  0  0  0  0  0  0  0  0  0  0  0
    0.2997    0.3066    0.0000 C    0  0  0  0  0  0  0  0  0  0  0  0
   -0.5305   -1.1196    0.0000 C    0  0  0  0  0  0  0  0  0  0  0  0
   -0.5305    0.3066    0.0000 C    0  0  0  0  0  0  0  0  0  0  0  0
    2.7765   -1.1196    0.0000 C    0  0  0  0  0  0  0  0  0  0  0  0
    3.5998   -1.1196    0.0000 C    0  0  0  0  0  0  0  0  0  0  0  0
   -3.6032   -0.0655    0.0000 O    0  0  0  0  0  0  0  0  0  0  0  0
   -3.6032   -0.7509    0.0000 O    0  0  0  0  0  0  0  0  0  0  0  0
    0.7199   -1.8430    0.0000 Cl   0  0  0  0  0  0  0  0  0  0  0  0
    1.5398   -0.4065    0.0000 O    0  0  0  0  0  0  0  0  0  0  0  0
    0.7199    1.0300    0.0000 O    0  0  0  0  0  0  0  0  0  0  0  0
    1.9497   -1.1196    0.0000 C    0  0  0  0  0  0  0  0  0  0  0  0
   -0.9404    1.1058    0.0000 C    0  0  0  0  0  0  0  0  0  0  0  0
   -0.9404   -1.9187    0.0000 C    0  0  0  0  0  0  0  0  0  0  0  0
    0.3100    1.7465    0.0000 C    0  0  0  0  0  0  0  0  0  0  0  0
    0.7269    2.4596    0.0000 C    0  0  0  0  0  0  0  0  0  0  0  0
  2  3  1  0  0  0  0
  3  1  1  0  0  0  0
  4  1  2  0  0  0  0
  5  2  2  0  0  0  0
  6 11  2  0  0  0  0
  6 10  1  0  0  0  0
  7 12  2  0  0  0  0
  8  3  1  0  0  0  0
  9  5  1  0  0  0  0
  9  7  1  0  0  0  0
 10  4  1  0  0  0  0
 11  1  1  0  0  0  0
 12  2  1  0  0  0  0
 13 15  1  0  0  0  0
 14 16  1  0  0  0  0
 14 13  2  0  0  0  0
 15 17  2  0  0  0  0
 16  8  2  0  0  0  0
 17  8  1  0  0  0  0
 18 25  1  0  0  0  0
 19 18  3  0  0  0  0
 20  4  1  0  0  0  0
 21  5  1  0  0  0  0
 22 14  1  0  0  0  0
 23 13  1  0  0  0  0
 24 15  1  0  0  0  0
 25 23  1  0  0  0  0
 26 11  1  0  0  0  0
 27 12  1  0  0  0  0
 28 24  1  0  0  0  0
 29 28  1  0  0  0  0
M  END
> <CdId>
2125

> <Mol Weight>
416.858

> <Formula>
C20H21ClN4O4

> <Click_ID>
CLK028_D11 __ __ 

$$$$
