CLK009_G09
 OpenBabel03191401532D

 14 14  0  0  0  0  0  0  0  0999 V2000
   -0.3320    0.1174    0.0000 C    0  0  0  0  0  0  0  0  0  0  0  0
   -2.4113    0.8149    0.0000 C    0  0  0  0  0  0  0  0  0  0  0  0
   -3.2363    0.8149    0.0000 C    0  0  0  0  0  0  0  0  0  0  0  0
    0.0704   -0.6070    0.0000 N    0  0  0  0  0  0  0  0  0  0  0  0
    0.9089   -0.6070    0.0000 C    0  0  0  0  0  0  0  0  0  0  0  0
    0.0704    0.8149    0.0000 O    0  0  0  0  0  0  0  0  0  0  0  0
    1.3280    0.0905    0.0000 C    0  0  0  0  0  0  0  0  0  0  0  0
    2.1464    0.0905    0.0000 C    0  0  0  0  0  0  0  0  0  0  0  0
   -1.1671    0.1174    0.0000 O    0  0  0  0  0  0  0  0  0  0  0  0
    2.5790    0.8149    0.0000 Cl   0  0  0  0  0  0  0  0  0  0  0  0
   -1.5695    0.8149    0.0000 C    0  0  0  0  0  0  0  0  0  0  0  0
    2.1464   -1.3314    0.0000 C    0  0  0  0  0  0  0  0  0  0  0  0
    1.3280   -1.3582    0.0000 C    0  0  0  0  0  0  0  0  0  0  0  0
    2.5655   -0.6070    0.0000 C    0  0  0  0  0  0  0  0  0  0  0  0
  2 11  1  0  0  0  0
  3  2  3  0  0  0  0
  4  1  1  0  0  0  0
  5  4  1  0  0  0  0
  6  1  2  0  0  0  0
  7  5  2  0  0  0  0
  8  7  1  0  0  0  0
  9  1  1  0  0  0  0
 10  8  1  0  0  0  0
 11  9  1  0  0  0  0
 12 13  2  0  0  0  0
 13  5  1  0  0  0  0
 14 12  1  0  0  0  0
 14  8  2  0  0  0  0
M  END
> <CdId>
664

> <Mol Weight>
209.629

> <Formula>
C10H8ClNO2

> <Click_ID>
CLK009_G09 __ __ 

$$$$
