CLK043A05
 OpenBabel03191401532D

 22 23  0  0  0  0  0  0  0  0999 V2000
    0.0625    0.1500    0.0000 C    0  0  0  0  0  0  0  0  0  0  0  0
   -2.0792   -1.0875    0.0000 C    0  0  0  0  0  0  0  0  0  0  0  0
   -0.6500   -0.2625    0.0000 C    0  0  0  0  0  0  0  0  0  0  0  0
   -1.3667   -1.5000    0.0000 C    0  0  0  0  0  0  0  0  0  0  0  0
   -2.0792   -0.2625    0.0000 C    0  0  0  0  0  0  0  0  0  0  0  0
    0.7792   -0.2625    0.0000 N    0  0  0  0  0  0  0  0  0  0  0  0
   -0.6500   -1.0875    0.0000 C    0  0  0  0  0  0  0  0  0  0  0  0
   -1.3667    0.1500    0.0000 C    0  0  0  0  0  0  0  0  0  0  0  0
    2.2083    2.2125    0.0000 C    0  0  0  0  0  0  0  0  0  0  0  0
    2.2083    3.0417    0.0000 C    0  0  0  0  0  0  0  0  0  0  0  0
    0.0625    0.9750    0.0000 O    0  0  0  0  0  0  0  0  0  0  0  0
    1.4917    0.1500    0.0000 C    0  0  0  0  0  0  0  0  0  0  0  0
   -2.7958   -1.5000    0.0000 Br   0  0  0  0  0  0  0  0  0  0  0  0
    2.2083    1.3875    0.0000 C    0  0  0  0  0  0  0  0  0  0  0  0
    1.4917    0.9750    0.0000 C    0  0  0  0  0  0  0  0  0  0  0  0
   -1.3667   -2.3250    0.0000 O    0  0  0  0  0  0  0  0  0  0  0  0
   -2.7958    0.1500    0.0000 O    0  0  0  0  0  0  0  0  0  0  0  0
    2.9208    0.1500    0.0000 C    0  0  0  0  0  0  0  0  0  0  0  0
    2.2083   -0.2625    0.0000 C    0  0  0  0  0  0  0  0  0  0  0  0
    2.9208    0.9750    0.0000 C    0  0  0  0  0  0  0  0  0  0  0  0
   -2.7958    0.9750    0.0000 C    0  0  0  0  0  0  0  0  0  0  0  0
   -0.6500   -2.7375    0.0000 C    0  0  0  0  0  0  0  0  0  0  0  0
  2  5  1  0  0  0  0
  2  4  2  0  0  0  0
  3  1  1  0  0  0  0
  4  7  1  0  0  0  0
  5  8  2  0  0  0  0
  6  1  1  0  0  0  0
  7  3  2  0  0  0  0
  8  3  1  0  0  0  0
  9 14  1  0  0  0  0
 10  9  3  0  0  0  0
 11  1  2  0  0  0  0
 12  6  1  0  0  0  0
 13  2  1  0  0  0  0
 14 15  1  0  0  0  0
 15 12  2  0  0  0  0
 16  4  1  0  0  0  0
 17  5  1  0  0  0  0
 18 19  2  0  0  0  0
 19 12  1  0  0  0  0
 20 14  2  0  0  0  0
 20 18  1  0  0  0  0
 21 17  1  0  0  0  0
 22 16  1  0  0  0  0
M  END
> <CdId>
3273

> <Mol Weight>
360.202

> <Formula>
C17H14BrNO3

> <Click_ID>
CLK043A05 __ __ 

$$$$
