CLK034_A07
 OpenBabel03191401532D

 27 30  0  0  0  0  0  0  0  0999 V2000
   -4.5776    2.5468    0.0000 C    0  0  0  0  0  0  0  0  0  0  0  0
   -3.8660    2.9671    0.0000 N    0  0  0  0  0  0  0  0  0  0  0  0
   -4.6692    1.7312    0.0000 N    0  0  0  0  0  0  0  0  0  0  0  0
   -5.3142    2.8922    0.0000 S    0  0  0  0  0  0  0  0  0  0  0  0
   -3.1544    4.2073    0.0000 C    0  0  0  0  0  0  0  0  0  0  0  0
   -5.4765    1.5689    0.0000 C    0  0  0  0  0  0  0  0  0  0  0  0
   -3.8660    3.7953    0.0000 C    0  0  0  0  0  0  0  0  0  0  0  0
   -3.1419    5.0355    0.0000 C    0  0  0  0  0  0  0  0  0  0  0  0
   -5.8760    2.2930    0.0000 C    0  0  0  0  0  0  0  0  0  0  0  0
   -2.4428    3.8036    0.0000 O    0  0  0  0  0  0  0  0  0  0  0  0
   -2.4303    5.4433    0.0000 C    0  0  0  0  0  0  0  0  0  0  0  0
   -1.7104    5.0230    0.0000 C    0  0  0  0  0  0  0  0  0  0  0  0
   -1.7229    4.2073    0.0000 C    0  0  0  0  0  0  0  0  0  0  0  0
   -4.2405    0.3496    0.0000 C    0  0  0  0  0  0  0  0  0  0  0  0
   -4.4153   -0.4536    0.0000 C    0  0  0  0  0  0  0  0  0  0  0  0
   -5.9010    0.8697    0.0000 C    0  0  0  0  0  0  0  0  0  0  0  0
   -4.5901    4.2073    0.0000 O    0  0  0  0  0  0  0  0  0  0  0  0
   -2.4303    6.2714    0.0000 O    0  0  0  0  0  0  0  0  0  0  0  0
   -4.0533    1.1569    0.0000 C    0  0  0  0  0  0  0  0  0  0  0  0
   -5.5015    0.1456    0.0000 Cl   0  0  0  0  0  0  0  0  0  0  0  0
   -6.6959    2.3054    0.0000 C    0  0  0  0  0  0  0  0  0  0  0  0
   -0.9946    5.4350    0.0000 C    0  0  0  0  0  0  0  0  0  0  0  0
   -1.0071    3.7953    0.0000 C    0  0  0  0  0  0  0  0  0  0  0  0
   -7.1204    1.5980    0.0000 C    0  0  0  0  0  0  0  0  0  0  0  0
   -6.7084    0.8739    0.0000 C    0  0  0  0  0  0  0  0  0  0  0  0
   -0.2829    5.0230    0.0000 C    0  0  0  0  0  0  0  0  0  0  0  0
   -0.2871    4.1990    0.0000 C    0  0  0  0  0  0  0  0  0  0  0  0
  2  1  2  0  0  0  0
  3  1  1  0  0  0  0
  4  1  1  0  0  0  0
  5  7  1  0  0  0  0
  6  3  1  0  0  0  0
  7  2  1  0  0  0  0
  8  5  2  0  0  0  0
  9  4  1  0  0  0  0
  9  6  2  0  0  0  0
 10  5  1  0  0  0  0
 11  8  1  0  0  0  0
 12 13  2  0  0  0  0
 12 11  1  0  0  0  0
 13 10  1  0  0  0  0
 14 19  1  0  0  0  0
 15 14  3  0  0  0  0
 16  6  1  0  0  0  0
 17  7  2  0  0  0  0
 18 11  2  0  0  0  0
 19  3  1  0  0  0  0
 20 16  1  0  0  0  0
 21  9  1  0  0  0  0
 22 12  1  0  0  0  0
 22 26  2  0  0  0  0
 23 13  1  0  0  0  0
 24 21  2  0  0  0  0
 25 16  2  0  0  0  0
 25 24  1  0  0  0  0
 26 27  1  0  0  0  0
 27 23  2  0  0  0  0
M  END
> <CdId>
2571

> <Mol Weight>
394.831

> <Formula>
C20H11ClN2O3S

> <Click_ID>
CLK034_A07 __ __ 

$$$$
