CLK024_G07
 OpenBabel03191401532D

 33 36  0  0  0  0  0  0  0  0999 V2000
   -3.4852   -1.5089    0.0000 N   0  0  0  0  0  0  0  0  0  0  0  0
   -3.4027   -2.3304    0.0000 C   0  0  0  0  0  0  0  0  0  0  0  0
   -2.1825   -1.7907    0.0000 C   0  0  0  0  0  0  0  0  0  0  0  0
   -2.7393   -1.1755    0.0000 C   0  0  0  0  0  0  0  0  0  0  0  0
   -0.1237    0.0447    0.0000 N   0  0  0  0  0  0  0  0  0  0  0  0
   -1.0208   -0.9521    0.0000 C   0  0  0  0  0  0  0  0  0  0  0  0
   -2.5916   -2.5056    0.0000 S   0  0  0  0  0  0  0  0  0  0  0  0
   -0.8765    0.3747    0.0000 C   0  0  0  0  0  0  0  0  0  0  0  0
   -0.2097   -0.7768    0.0000 C   0  0  0  0  0  0  0  0  0  0  0  0
   -1.3576   -1.7048    0.0000 C   0  0  0  0  0  0  0  0  0  0  0  0
   -1.4436   -0.2372    0.0000 C   0  0  0  0  0  0  0  0  0  0  0  0
    0.5981    0.4434    0.0000 C   0  0  0  0  0  0  0  0  0  0  0  0
   -4.9150   -1.5089    0.0000 C   0  0  0  0  0  0  0  0  0  0  0  0
   -5.6093   -1.9591    0.0000 C   0  0  0  0  0  0  0  0  0  0  0  0
   -4.0179   -2.8803    0.0000 O   0  0  0  0  0  0  0  0  0  0  0  0
    4.1795    1.6498    0.0000 C   0  0  0  0  0  0  0  0  0  0  0  0
   -2.5640   -0.3644    0.0000 O   0  0  0  0  0  0  0  0  0  0  0  0
   -4.1932   -1.0965    0.0000 C   0  0  0  0  0  0  0  0  0  0  0  0
    4.8807    1.2270    0.0000 C   0  0  0  0  0  0  0  0  0  0  0  0
    3.4611    1.2442    0.0000 C   0  0  0  0  0  0  0  0  0  0  0  0
    0.5981    1.2648    0.0000 C   0  0  0  0  0  0  0  0  0  0  0  0
    1.3061    0.0344    0.0000 C   0  0  0  0  0  0  0  0  0  0  0  0
    2.7463    1.6636    0.0000 O   0  0  0  0  0  0  0  0  0  0  0  0
    2.0279    1.2580    0.0000 C   0  0  0  0  0  0  0  0  0  0  0  0
   -1.0449    1.1790    0.0000 C   0  0  0  0  0  0  0  0  0  0  0  0
    4.8807    0.4193    0.0000 F   0  0  0  0  0  0  0  0  0  0  0  0
    0.3987   -1.3336    0.0000 C   0  0  0  0  0  0  0  0  0  0  0  0
    1.3164    1.6807    0.0000 C   0  0  0  0  0  0  0  0  0  0  0  0
    2.0175    0.4365    0.0000 C   0  0  0  0  0  0  0  0  0  0  0  0
    4.1795    2.4712    0.0000 C   0  0  0  0  0  0  0  0  0  0  0  0
    5.5956    1.6292    0.0000 C   0  0  0  0  0  0  0  0  0  0  0  0
    4.9013    2.8837    0.0000 C   0  0  0  0  0  0  0  0  0  0  0  0
    5.6093    2.4506    0.0000 C   0  0  0  0  0  0  0  0  0  0  0  0
  2  1  1  0  0  0  0
  3  4  1  0  0  0  0
  4  1  1  0  0  0  0
  5  9  1  0  0  0  0
  6 10  1  0  0  0  0
  7  2  1  0  0  0  0
  7  3  1  0  0  0  0
  8 11  2  0  0  0  0
  8  5  1  0  0  0  0
  9  6  2  0  0  0  0
 10  3  2  0  0  0  0
 11  6  1  0  0  0  0
 12  5  1  0  0  0  0
 13 18  1  0  0  0  0
 14 13  3  0  0  0  0
 15  2  2  0  0  0  0
 16 20  1  0  0  0  0
 17  4  2  0  0  0  0
 18  1  1  0  0  0  0
 19 16  2  0  0  0  0
 20 23  1  0  0  0  0
 21 12  1  0  0  0  0
 22 12  2  0  0  0  0
 23 24  1  0  0  0  0
 24 29  2  0  0  0  0
 24 28  1  0  0  0  0
 25  8  1  0  0  0  0
 26 19  1  0  0  0  0
 27  9  1  0  0  0  0
 28 21  2  0  0  0  0
 29 22  1  0  0  0  0
 30 16  1  0  0  0  0
 31 19  1  0  0  0  0
 32 30  2  0  0  0  0
 33 32  1  0  0  0  0
 33 31  2  0  0  0  0
M  END
> <CdId>
1842

> <Mol Weight>
460.52

> <Formula>
C26H21FN2O3S

> <Click_ID>
CLK024_G07 __ __ 

$$$$
