CLK035_D06
 OpenBabel03191401532D

 26 28  0  0  0  0  0  0  0  0999 V2000
   -4.5862    2.5516    0.0000 C    0  0  0  0  0  0  0  0  0  0  0  0
   -3.8733    2.9727    0.0000 N    0  0  0  0  0  0  0  0  0  0  0  0
   -4.6780    1.7344    0.0000 N    0  0  0  0  0  0  0  0  0  0  0  0
   -3.8733    3.8024    0.0000 C    0  0  0  0  0  0  0  0  0  0  0  0
   -5.3242    2.8977    0.0000 S    0  0  0  0  0  0  0  0  0  0  0  0
   -5.4868    1.5718    0.0000 C    0  0  0  0  0  0  0  0  0  0  0  0
   -3.1603    4.2152    0.0000 C    0  0  0  0  0  0  0  0  0  0  0  0
   -5.8871    2.2973    0.0000 C    0  0  0  0  0  0  0  0  0  0  0  0
   -4.2485    0.3502    0.0000 C    0  0  0  0  0  0  0  0  0  0  0  0
   -4.4236   -0.4545    0.0000 C    0  0  0  0  0  0  0  0  0  0  0  0
   -4.5987    4.2152    0.0000 O    0  0  0  0  0  0  0  0  0  0  0  0
   -5.9121    0.8714    0.0000 C    0  0  0  0  0  0  0  0  0  0  0  0
   -3.1520    5.0324    0.0000 C    0  0  0  0  0  0  0  0  0  0  0  0
   -2.4349    3.8024    0.0000 C    0  0  0  0  0  0  0  0  0  0  0  0
   -4.0609    1.1590    0.0000 C    0  0  0  0  0  0  0  0  0  0  0  0
   -5.5118    0.1459    0.0000 Cl   0  0  0  0  0  0  0  0  0  0  0  0
   -6.7085    2.3098    0.0000 C    0  0  0  0  0  0  0  0  0  0  0  0
   -2.4349    2.9852    0.0000 O    0  0  0  0  0  0  0  0  0  0  0  0
   -3.8733    5.4452    0.0000 O    0  0  0  0  0  0  0  0  0  0  0  0
   -7.1338    1.6010    0.0000 C    0  0  0  0  0  0  0  0  0  0  0  0
   -1.7219    5.0324    0.0000 C    0  0  0  0  0  0  0  0  0  0  0  0
   -6.7210    0.8756    0.0000 C    0  0  0  0  0  0  0  0  0  0  0  0
   -1.7219    4.2069    0.0000 C    0  0  0  0  0  0  0  0  0  0  0  0
   -2.4349    5.4452    0.0000 C    0  0  0  0  0  0  0  0  0  0  0  0
   -3.8608    6.2832    0.0000 C    0  0  0  0  0  0  0  0  0  0  0  0
   -1.7136    2.5599    0.0000 C    0  0  0  0  0  0  0  0  0  0  0  0
  2  1  2  0  0  0  0
  3  1  1  0  0  0  0
  4  2  1  0  0  0  0
  5  1  1  0  0  0  0
  6  3  1  0  0  0  0
  7  4  1  0  0  0  0
  8  5  1  0  0  0  0
  8  6  2  0  0  0  0
  9 15  1  0  0  0  0
 10  9  3  0  0  0  0
 11  4  2  0  0  0  0
 12  6  1  0  0  0  0
 13  7  2  0  0  0  0
 14  7  1  0  0  0  0
 15  3  1  0  0  0  0
 16 12  1  0  0  0  0
 17  8  1  0  0  0  0
 18 14  1  0  0  0  0
 19 13  1  0  0  0  0
 20 17  2  0  0  0  0
 21 23  1  0  0  0  0
 21 24  2  0  0  0  0
 22 12  2  0  0  0  0
 22 20  1  0  0  0  0
 23 14  2  0  0  0  0
 24 13  1  0  0  0  0
 25 19  1  0  0  0  0
 26 18  1  0  0  0  0
M  END
> <CdId>
2680

> <Mol Weight>
386.852

> <Formula>
C19H15ClN2O3S

> <Click_ID>
CLK035_D06 __ __ 

$$$$
