CLK001_E11
 OpenBabel03191401532D

 25 27  0  0  0  0  0  0  0  0999 V2000
    1.8019    0.1689    0.0000 C   0  0  0  0  0  0  0  0  0  0  0  0
    1.7158    0.9923    0.0000 C   0  0  0  0  0  0  0  0  0  0  0  0
    1.0405   -0.1620    0.0000 C   0  0  0  0  0  0  0  0  0  0  0  0
    2.5531   -0.1723    0.0000 C   0  0  0  0  0  0  0  0  0  0  0  0
    0.9130    1.1680    0.0000 N   0  0  0  0  0  0  0  0  0  0  0  0
    2.3877    1.4747    0.0000 C   0  0  0  0  0  0  0  0  0  0  0  0
    0.4893    0.4513    0.0000 C   0  0  0  0  0  0  0  0  0  0  0  0
    0.8648   -0.9716    0.0000 C   0  0  0  0  0  0  0  0  0  0  0  0
    3.2145    0.3135    0.0000 C   0  0  0  0  0  0  0  0  0  0  0  0
    0.5788    1.9260    0.0000 C   0  0  0  0  0  0  0  0  0  0  0  0
    3.1353    1.1370    0.0000 C   0  0  0  0  0  0  0  0  0  0  0  0
    0.0792   -1.2231    0.0000 C   0  0  0  0  0  0  0  0  0  0  0  0
    1.0646    2.5875    0.0000 C   0  0  0  0  0  0  0  0  0  0  0  0
   -0.5341   -0.6718    0.0000 C   0  0  0  0  0  0  0  0  0  0  0  0
   -0.0965   -2.0293    0.0000 C   0  0  0  0  0  0  0  0  0  0  0  0
    1.5987    3.2249    0.0000 C   0  0  0  0  0  0  0  0  0  0  0  0
   -1.3196   -0.9233    0.0000 N   0  0  0  0  0  0  0  0  0  0  0  0
   -0.3583    0.1309    0.0000 O   0  0  0  0  0  0  0  0  0  0  0  0
   -0.3100   -2.8218    0.0000 N   0  0  0  0  0  0  0  0  0  0  0  0
   -1.9225   -0.3721    0.0000 C   0  0  0  0  0  0  0  0  0  0  0  0
   -2.7115   -0.6236    0.0000 C   0  0  0  0  0  0  0  0  0  0  0  0
   -2.9699   -1.4091    0.0000 C   0  0  0  0  0  0  0  0  0  0  0  0
   -3.3800   -0.1447    0.0000 O   0  0  0  0  0  0  0  0  0  0  0  0
   -3.7934   -1.4091    0.0000 C   0  0  0  0  0  0  0  0  0  0  0  0
   -4.0414   -0.6236    0.0000 C   0  0  0  0  0  0  0  0  0  0  0  0
  1  2  1  0  0  0  0
  1  3  1  0  0  0  0
  1  4  2  0  0  0  0
  2  5  1  0  0  0  0
  2  6  2  0  0  0  0
  3  7  2  0  0  0  0
  3  8  1  0  0  0  0
  4  9  1  0  0  0  0
  5 10  1  0  0  0  0
  5  7  1  0  0  0  0
  6 11  1  0  0  0  0
  8 12  2  0  0  0  0
  9 11  2  0  0  0  0
 10 13  1  0  0  0  0
 12 14  1  0  0  0  0
 12 15  1  0  0  0  0
 13 16  3  0  0  0  0
 14 17  1  0  0  0  0
 14 18  2  0  0  0  0
 15 19  3  0  0  0  0
 17 20  1  0  0  0  0
 20 21  1  0  0  0  0
 21 22  2  0  0  0  0
 21 23  1  0  0  0  0
 22 24  1  0  0  0  0
 23 25  1  0  0  0  0
 24 25  2  0  0  0  0
M  END
> <CdId>
50

> <Mol Weight>
329.352

> <Formula>
C20H15N3O2

> <Click_ID>
CLK001_E11 __ __ 

$$$$
