CLK019_C10
 OpenBabel03191401532D

 20 20  0  0  0  0  0  0  0  0999 V2000
   -0.0860   -0.3404    0.0000 C   0  0  0  0  0  0  0  0  0  0  0  0
    0.3382    0.3721    0.0000 N   0  0  0  0  0  0  0  0  0  0  0  0
   -1.7654    1.1191    0.0000 C   0  0  0  0  0  0  0  0  0  0  0  0
   -0.9110   -0.3404    0.0000 N   0  0  0  0  0  0  0  0  0  0  0  0
   -2.1978    1.8375    0.0000 C   0  0  0  0  0  0  0  0  0  0  0  0
    1.1699    0.3522    0.0000 C   0  0  0  0  0  0  0  0  0  0  0  0
   -1.3331    0.3853    0.0000 C   0  0  0  0  0  0  0  0  0  0  0  0
    0.3338   -1.0529    0.0000 O   0  0  0  0  0  0  0  0  0  0  0  0
    1.5507   -0.3691    0.0000 C   0  0  0  0  0  0  0  0  0  0  0  0
    1.1103   -1.0610    0.0000 O   0  0  0  0  0  0  0  0  0  0  0  0
    1.5978    1.0507    0.0000 C   0  0  0  0  0  0  0  0  0  0  0  0
   -0.7456    0.7618    0.0000 C   0  0  0  0  0  0  0  0  0  0  0  0
   -2.0779   -0.0559    0.0000 C   0  0  0  0  0  0  0  0  0  0  0  0
    2.3713   -0.4044    0.0000 C   0  0  0  0  0  0  0  0  0  0  0  0
    1.4868   -1.7978    0.0000 C   0  0  0  0  0  0  0  0  0  0  0  0
   -0.7456    1.5713    0.0000 C   0  0  0  0  0  0  0  0  0  0  0  0
   -2.8235    0.3485    0.0000 C   0  0  0  0  0  0  0  0  0  0  0  0
    2.3059   -1.8375    0.0000 C   0  0  0  0  0  0  0  0  0  0  0  0
    2.4353    1.0191    0.0000 C   0  0  0  0  0  0  0  0  0  0  0  0
    2.8235    0.2838    0.0000 C   0  0  0  0  0  0  0  0  0  0  0  0
  2  1  1  0  0  0  0
  3  7  1  0  0  0  0
  4  1  1  0  0  0  0
  5  3  3  0  0  0  0
  6  2  1  0  0  0  0
  7  4  1  0  0  0  0
  8  1  2  0  0  0  0
  9  6  1  0  0  0  0
 10  9  1  0  0  0  0
 11  6  2  0  0  0  0
 12  7  1  0  0  0  0
 13  7  1  0  0  0  0
 14  9  2  0  0  0  0
 15 10  1  0  0  0  0
 16 12  1  0  0  0  0
 17 13  1  0  0  0  0
 18 15  1  0  0  0  0
 19 11  1  0  0  0  0
 20 19  2  0  0  0  0
 20 14  1  0  0  0  0
M  END
> <CdId>
1425

> <Mol Weight>
274.3581

> <Formula>
C16H22N2O2

> <Click_ID>
CLK019_C10 __ __ 

$$$$
