CLK034_E06
 OpenBabel03191401532D

 26 28  0  0  0  0  0  0  0  0999 V2000
   -4.5935    2.5570    0.0000 C   0  0  0  0  0  0  0  0  0  0  0  0
   -4.6810    1.7324    0.0000 N   0  0  0  0  0  0  0  0  0  0  0  0
   -3.8606    2.9818    0.0000 N   0  0  0  0  0  0  0  0  0  0  0  0
   -5.3182    2.8944    0.0000 S   0  0  0  0  0  0  0  0  0  0  0  0
   -5.4848    1.5825    0.0000 C   0  0  0  0  0  0  0  0  0  0  0  0
   -5.8929    2.2989    0.0000 C   0  0  0  0  0  0  0  0  0  0  0  0
   -3.8689    3.7981    0.0000 C   0  0  0  0  0  0  0  0  0  0  0  0
   -4.2562    0.3581    0.0000 C   0  0  0  0  0  0  0  0  0  0  0  0
   -4.4436   -0.4540    0.0000 C   0  0  0  0  0  0  0  0  0  0  0  0
   -5.9179    0.8829    0.0000 C   0  0  0  0  0  0  0  0  0  0  0  0
   -3.1567    4.2104    0.0000 C   0  0  0  0  0  0  0  0  0  0  0  0
   -4.0688    1.1619    0.0000 C   0  0  0  0  0  0  0  0  0  0  0  0
   -4.5810    4.2146    0.0000 O   0  0  0  0  0  0  0  0  0  0  0  0
   -3.1567    5.0517    0.0000 C   0  0  0  0  0  0  0  0  0  0  0  0
   -6.7009    2.3197    0.0000 C   0  0  0  0  0  0  0  0  0  0  0  0
   -5.5181    0.1457    0.0000 O   0  0  0  0  0  0  0  0  0  0  0  0
   -3.8689    5.4515    0.0000 O   0  0  0  0  0  0  0  0  0  0  0  0
   -3.8689    6.2761    0.0000 C   0  0  0  0  0  0  0  0  0  0  0  0
   -7.1382    1.6200    0.0000 C   0  0  0  0  0  0  0  0  0  0  0  0
   -6.7259    0.8871    0.0000 C   0  0  0  0  0  0  0  0  0  0  0  0
   -5.9554   -0.5539    0.0000 C   0  0  0  0  0  0  0  0  0  0  0  0
   -3.1567    6.7009    0.0000 C   0  0  0  0  0  0  0  0  0  0  0  0
   -4.5810    6.6842    0.0000 C   0  0  0  0  0  0  0  0  0  0  0  0
   -3.1609    7.5213    0.0000 C   0  0  0  0  0  0  0  0  0  0  0  0
   -4.5935    7.5088    0.0000 C   0  0  0  0  0  0  0  0  0  0  0  0
   -3.8814    7.9253    0.0000 C   0  0  0  0  0  0  0  0  0  0  0  0
  2  1  1  0  0  0  0
  3  1  2  0  0  0  0
  4  1  1  0  0  0  0
  5  2  1  0  0  0  0
  6  4  1  0  0  0  0
  6  5  2  0  0  0  0
  7  3  1  0  0  0  0
  8 12  1  0  0  0  0
  9  8  3  0  0  0  0
 10  5  1  0  0  0  0
 11  7  1  0  0  0  0
 12  2  1  0  0  0  0
 13  7  2  0  0  0  0
 14 11  1  0  0  0  0
 15  6  1  0  0  0  0
 16 10  1  0  0  0  0
 17 14  1  0  0  0  0
 18 17  1  0  0  0  0
 19 15  2  0  0  0  0
 20 10  2  0  0  0  0
 20 19  1  0  0  0  0
 21 16  1  0  0  0  0
 22 18  2  0  0  0  0
 23 18  1  0  0  0  0
 24 22  1  0  0  0  0
 25 23  2  0  0  0  0
 26 25  1  0  0  0  0
 26 24  2  0  0  0  0
M  END
> <CdId>
2610

> <Mol Weight>
366.434

> <Formula>
C20H18N2O3S

> <Click_ID>
CLK034_E06 __ __ 

$$$$
