CLK050G10
 OpenBabel03191401532D

 17 17  0  0  0  0  0  0  0  0999 V2000
   -1.2625    1.4083    0.0000 C   0  0  0  0  0  0  0  0  0  0  0  0
   -1.9792    3.4708    0.0000 C   0  0  0  0  0  0  0  0  0  0  0  0
   -1.9792    4.2917    0.0000 C   0  0  0  0  0  0  0  0  0  0  0  0
   -1.9792    0.9958    0.0000 O   0  0  0  0  0  0  0  0  0  0  0  0
   -1.2625    2.2333    0.0000 N   0  0  0  0  0  0  0  0  0  0  0  0
   -0.5500    0.9958    0.0000 N   0  0  0  0  0  0  0  0  0  0  0  0
    0.8792   -2.3042    0.0000 C   0  0  0  0  0  0  0  0  0  0  0  0
    0.8792   -1.4792    0.0000 C   0  0  0  0  0  0  0  0  0  0  0  0
   -1.9792    2.6458    0.0000 C   0  0  0  0  0  0  0  0  0  0  0  0
    1.5958   -2.7167    0.0000 C   0  0  0  0  0  0  0  0  0  0  0  0
    0.1667   -1.0667    0.0000 O   0  0  0  0  0  0  0  0  0  0  0  0
    2.3083   -1.4792    0.0000 C   0  0  0  0  0  0  0  0  0  0  0  0
   -0.5500    0.1708    0.0000 C   0  0  0  0  0  0  0  0  0  0  0  0
    1.5958   -1.0667    0.0000 C   0  0  0  0  0  0  0  0  0  0  0  0
    2.3083   -2.3042    0.0000 C   0  0  0  0  0  0  0  0  0  0  0  0
    0.1667   -0.2417    0.0000 C   0  0  0  0  0  0  0  0  0  0  0  0
    1.5958   -3.5417    0.0000 C   0  0  0  0  0  0  0  0  0  0  0  0
  2  9  1  0  0  0  0
  3  2  3  0  0  0  0
  4  1  2  0  0  0  0
  5  1  1  0  0  0  0
  6  1  1  0  0  0  0
  7  8  1  0  0  0  0
  8 11  1  0  0  0  0
  9  5  1  0  0  0  0
 10  7  2  0  0  0  0
 11 16  1  0  0  0  0
 12 14  1  0  0  0  0
 12 15  2  0  0  0  0
 13  6  1  0  0  0  0
 14  8  2  0  0  0  0
 15 10  1  0  0  0  0
 16 13  1  0  0  0  0
 17 10  1  0  0  0  0
M  END
> <CdId>
3879

> <Mol Weight>
232.2783

> <Formula>
C13H16N2O2

> <Click_ID>
CLK050G10 __ __ 

$$$$
