CLK032_A08
 OpenBabel03191401532D

 20 21  0  0  0  0  0  0  0  0999 V2000
   -1.4246    2.6385    0.0000 C   0  0  0  0  0  0  0  0  0  0  0  0
   -0.6000    2.6339    0.0000 N   0  0  0  0  0  0  0  0  0  0  0  0
   -1.9056    1.9880    0.0000 N   0  0  0  0  0  0  0  0  0  0  0  0
   -1.9056    3.3210    0.0000 S   0  0  0  0  0  0  0  0  0  0  0  0
   -2.6889    2.2354    0.0000 C   0  0  0  0  0  0  0  0  0  0  0  0
   -2.6889    3.0599    0.0000 C   0  0  0  0  0  0  0  0  0  0  0  0
   -3.4035    1.8231    0.0000 C   0  0  0  0  0  0  0  0  0  0  0  0
   -0.1787    3.3348    0.0000 C   0  0  0  0  0  0  0  0  0  0  0  0
   -3.4035    3.4722    0.0000 C   0  0  0  0  0  0  0  0  0  0  0  0
   -4.1181    2.2354    0.0000 C   0  0  0  0  0  0  0  0  0  0  0  0
   -0.8383    1.0169    0.0000 C   0  0  0  0  0  0  0  0  0  0  0  0
   -0.0366    0.8474    0.0000 C   0  0  0  0  0  0  0  0  0  0  0  0
   -4.1181    3.0599    0.0000 C   0  0  0  0  0  0  0  0  0  0  0  0
   -0.5909    4.0403    0.0000 O   0  0  0  0  0  0  0  0  0  0  0  0
   -1.6445    1.1910    0.0000 C   0  0  0  0  0  0  0  0  0  0  0  0
   -3.4035    0.9986    0.0000 F   0  0  0  0  0  0  0  0  0  0  0  0
    0.6505    3.3210    0.0000 C   0  0  0  0  0  0  0  0  0  0  0  0
   -4.8327    3.4859    0.0000 F   0  0  0  0  0  0  0  0  0  0  0  0
    1.0628    2.6110    0.0000 C   0  0  0  0  0  0  0  0  0  0  0  0
    1.0628    4.0356    0.0000 C   0  0  0  0  0  0  0  0  0  0  0  0
  2  1  2  0  0  0  0
  3  1  1  0  0  0  0
  4  1  1  0  0  0  0
  5  3  1  0  0  0  0
  5  6  2  0  0  0  0
  6  4  1  0  0  0  0
  7  5  1  0  0  0  0
  8  2  1  0  0  0  0
  9  6  1  0  0  0  0
 10  7  2  0  0  0  0
 10 13  1  0  0  0  0
 11 15  1  0  0  0  0
 12 11  3  0  0  0  0
 13  9  2  0  0  0  0
 14  8  2  0  0  0  0
 15  3  1  0  0  0  0
 16  7  1  0  0  0  0
 17  8  1  0  0  0  0
 18 13  1  0  0  0  0
 19 17  1  0  0  0  0
 20 17  1  0  0  0  0
M  END
> <CdId>
2412

> <Mol Weight>
294.32

> <Formula>
C14H12F2N2OS

> <Click_ID>
CLK032_A08 __ __ 

$$$$
