CLK019_D05
 OpenBabel03191401532D

 16 16  0  0  0  0  0  0  0  0999 V2000
   -0.5625   -1.0625    0.0000 C   0  0  0  0  0  0  0  0  0  0  0  0
   -0.5625   -1.8875    0.0000 N   0  0  0  0  0  0  0  0  0  0  0  0
   -0.1500    0.2125    0.0000 C   0  0  0  0  0  0  0  0  0  0  0  0
    0.3375    0.8833    0.0000 C   0  0  0  0  0  0  0  0  0  0  0  0
   -1.2750   -2.2917    0.0000 C   0  0  0  0  0  0  0  0  0  0  0  0
   -1.2250   -0.5750    0.0000 O   0  0  0  0  0  0  0  0  0  0  0  0
   -0.9750    0.2125    0.0000 C   0  0  0  0  0  0  0  0  0  0  0  0
    0.1042   -0.5750    0.0000 O   0  0  0  0  0  0  0  0  0  0  0  0
   -1.9875   -1.8792    0.0000 C   0  0  0  0  0  0  0  0  0  0  0  0
   -1.2750   -3.1167    0.0000 C   0  0  0  0  0  0  0  0  0  0  0  0
   -0.9833    1.0375    0.0000 C   0  0  0  0  0  0  0  0  0  0  0  0
   -1.7833    0.4333    0.0000 C   0  0  0  0  0  0  0  0  0  0  0  0
   -1.9833   -1.0542    0.0000 C   0  0  0  0  0  0  0  0  0  0  0  0
   -2.7000   -2.2917    0.0000 C   0  0  0  0  0  0  0  0  0  0  0  0
   -1.9833   -3.5292    0.0000 C   0  0  0  0  0  0  0  0  0  0  0  0
   -2.7083   -3.1167    0.0000 C   0  0  0  0  0  0  0  0  0  0  0  0
  2  1  1  0  0  0  0
  3  7  1  0  0  0  0
  4  3  3  0  0  0  0
  5  2  1  0  0  0  0
  6  1  1  0  0  0  0
  7  6  1  0  0  0  0
  8  1  2  0  0  0  0
  9  5  2  0  0  0  0
 10  5  1  0  0  0  0
 11  7  1  0  0  0  0
 12  7  1  0  0  0  0
 13  9  1  0  0  0  0
 14  9  1  0  0  0  0
 15 10  2  0  0  0  0
 16 15  1  0  0  0  0
 16 14  2  0  0  0  0
M  END
> <CdId>
1430

> <Mol Weight>
217.2637

> <Formula>
C13H15NO2

> <Click_ID>
CLK019_D05 __ __ 

$$$$
