CLK005_E03
 OpenBabel03191401532D

 27 30  0  0  0  0  0  0  0  0999 V2000
    0.6345    0.4034    0.0000 C   0  0  3  0  0  0  0  0  0  0  0  0
    1.3034   -0.0793    0.0000 C   0  0  3  0  0  0  0  0  0  0  0  0
   -0.0276   -0.0793    0.0000 C   0  0  3  0  0  0  0  0  0  0  0  0
    0.8759    1.6655    0.0000 O   0  0  0  0  0  0  0  0  0  0  0  0
   -0.1655    0.6207    0.0000 C   0  0  0  0  0  0  0  0  0  0  0  0
    1.8897    0.5069    0.0000 C   0  0  3  0  0  0  0  0  0  0  0  0
    1.0483   -0.8690    0.0000 C   0  0  0  0  0  0  0  0  0  0  0  0
    0.2241   -0.8690    0.0000 N   0  0  0  0  0  0  0  0  0  0  0  0
   -0.8103    0.1793    0.0000 C   0  0  0  0  0  0  0  0  0  0  0  0
    1.2138    0.9931    0.0000 C   0  0  3  0  0  0  0  0  0  0  0  0
    0.4138    1.2069    0.0000 C   0  0  0  0  0  0  0  0  0  0  0  0
    2.7103    0.5793    0.0000 C   0  0  0  0  0  0  0  0  0  0  0  0
    1.5345   -1.5345    0.0000 O   0  0  0  0  0  0  0  0  0  0  0  0
   -0.2586   -1.5345    0.0000 C   0  0  0  0  0  0  0  0  0  0  0  0
   -1.4276   -0.3793    0.0000 N   0  0  0  0  0  0  0  0  0  0  0  0
   -0.9862    0.9793    0.0000 O   0  0  0  0  0  0  0  0  0  0  0  0
    3.0621    1.3276    0.0000 N   0  0  0  0  0  0  0  0  0  0  0  0
    3.1759   -0.0966    0.0000 O   0  0  0  0  0  0  0  0  0  0  0  0
    0.0724   -2.2793    0.0000 C   0  0  0  0  0  0  0  0  0  0  0  0
   -2.2103   -0.1207    0.0000 C   0  0  0  0  0  0  0  0  0  0  0  0
    3.8759    1.3931    0.0000 C   0  0  0  0  0  0  0  0  0  0  0  0
   -0.4103   -2.9483    0.0000 C   0  0  0  0  0  0  0  0  0  0  0  0
   -2.3759    0.6897    0.0000 C   0  0  0  0  0  0  0  0  0  0  0  0
   -2.8241   -0.6724    0.0000 C   0  0  0  0  0  0  0  0  0  0  0  0
   -3.1586    0.9448    0.0000 C   0  0  0  0  0  0  0  0  0  0  0  0
   -3.6103   -0.4103    0.0000 C   0  0  0  0  0  0  0  0  0  0  0  0
   -3.7724    0.3931    0.0000 C   0  0  0  0  0  0  0  0  0  0  0  0
  1  2  1  0  0  0  0
  1  3  1  0  0  0  0
  1  4  1  0  0  0  0
  1  5  1  0  0  0  0
  2  6  1  0  0  0  0
  2  7  1  0  0  0  0
  3  8  1  0  0  0  0
  3  9  1  0  0  0  0
  4 10  1  0  0  0  0
  5 11  2  0  0  0  0
  6 12  1  0  0  0  0
  6 10  1  0  0  0  0
  7 13  2  0  0  0  0
  7  8  1  0  0  0  0
  8 14  1  0  0  0  0
  9 15  1  0  0  0  0
  9 16  2  0  0  0  0
 10 11  1  0  0  0  0
 12 17  1  0  0  0  0
 12 18  2  0  0  0  0
 14 19  1  0  0  0  0
 15 20  1  0  0  0  0
 17 21  1  0  0  0  0
 19 22  3  0  0  0  0
 20 23  1  0  0  0  0
 20 24  1  0  0  0  0
 23 25  1  0  0  0  0
 24 26  1  0  0  0  0
 25 27  1  0  0  0  0
 26 27  1  0  0  0  0
M  END
> <CdId>
362

> <Mol Weight>
371.4302

> <Formula>
C20H25N3O4

> <Click_ID>
CLK005_E03 __ __ 

$$$$
