CLK027_F06
 OpenBabel03191401532D

 32 34  0  0  0  0  0  0  0  0999 V2000
   -1.3680   -0.3094    0.0000 N    0  0  0  0  0  0  0  0  0  0  0  0
   -1.1172   -1.1034    0.0000 C    0  0  0  0  0  0  0  0  0  0  0  0
   -0.7081    0.1685    0.0000 C    0  0  0  0  0  0  0  0  0  0  0  0
   -0.0378   -0.3094    0.0000 C    0  0  0  0  0  0  0  0  0  0  0  0
   -0.2956   -1.1034    0.0000 S    0  0  0  0  0  0  0  0  0  0  0  0
    0.7493   -0.0619    0.0000 C    0  0  0  0  0  0  0  0  0  0  0  0
    1.3612   -0.6084    0.0000 C    0  0  0  0  0  0  0  0  0  0  0  0
   -2.1517   -0.0619    0.0000 C    0  0  0  0  0  0  0  0  0  0  0  0
    2.7671   -0.9178    0.0000 C    0  0  0  0  0  0  0  0  0  0  0  0
   -2.3271    0.7493    0.0000 C    0  0  0  0  0  0  0  0  0  0  0  0
    2.1517   -0.3609    0.0000 C    0  0  0  0  0  0  0  0  0  0  0  0
    2.5918   -1.7153    0.0000 C    0  0  0  0  0  0  0  0  0  0  0  0
    1.1962   -1.4265    0.0000 C    0  0  0  0  0  0  0  0  0  0  0  0
    3.6367   -3.6436    0.0000 C    0  0  0  0  0  0  0  0  0  0  0  0
    1.8081   -1.9799    0.0000 C    0  0  0  0  0  0  0  0  0  0  0  0
    4.2314   -4.2211    0.0000 C    0  0  0  0  0  0  0  0  0  0  0  0
   -1.6052   -1.7668    0.0000 O    0  0  0  0  0  0  0  0  0  0  0  0
   -3.1142    1.0037    0.0000 N    0  0  0  0  0  0  0  0  0  0  0  0
   -0.7081    0.9968    0.0000 O    0  0  0  0  0  0  0  0  0  0  0  0
   -1.7153    1.3028    0.0000 O    0  0  0  0  0  0  0  0  0  0  0  0
   -3.2861    1.8081    0.0000 C    0  0  0  0  0  0  0  0  0  0  0  0
    2.3271    0.4366    0.0000 Br   0  0  0  0  0  0  0  0  0  0  0  0
    3.2036   -2.2755    0.0000 O    0  0  0  0  0  0  0  0  0  0  0  0
    1.6328   -2.7877    0.0000 O    0  0  0  0  0  0  0  0  0  0  0  0
   -3.6264    3.4098    0.0000 C    0  0  0  0  0  0  0  0  0  0  0  0
   -2.6743    2.3546    0.0000 C    0  0  0  0  0  0  0  0  0  0  0  0
   -4.0698    2.0624    0.0000 C    0  0  0  0  0  0  0  0  0  0  0  0
   -4.2348    2.8667    0.0000 C    0  0  0  0  0  0  0  0  0  0  0  0
   -2.8393    3.1658    0.0000 C    0  0  0  0  0  0  0  0  0  0  0  0
    3.0283   -3.0868    0.0000 C    0  0  0  0  0  0  0  0  0  0  0  0
   -3.7948    4.2211    0.0000 C    0  0  0  0  0  0  0  0  0  0  0  0
    0.8491   -3.0352    0.0000 C    0  0  0  0  0  0  0  0  0  0  0  0
  2  1  1  0  0  0  0
  3  1  1  0  0  0  0
  4  3  1  0  0  0  0
  4  5  1  0  0  0  0
  5  2  1  0  0  0  0
  6  4  2  0  0  0  0
  7  6  1  0  0  0  0
  8  1  1  0  0  0  0
  9 11  1  0  0  0  0
 10  8  1  0  0  0  0
 11  7  2  0  0  0  0
 12 15  1  0  0  0  0
 12  9  2  0  0  0  0
 13  7  1  0  0  0  0
 14 30  1  0  0  0  0
 15 13  2  0  0  0  0
 16 14  3  0  0  0  0
 17  2  2  0  0  0  0
 18 10  1  0  0  0  0
 19  3  2  0  0  0  0
 20 10  2  0  0  0  0
 21 18  1  0  0  0  0
 22 11  1  0  0  0  0
 23 12  1  0  0  0  0
 24 15  1  0  0  0  0
 25 28  1  0  0  0  0
 26 21  2  0  0  0  0
 27 21  1  0  0  0  0
 28 27  2  0  0  0  0
 29 26  1  0  0  0  0
 29 25  2  0  0  0  0
 30 23  1  0  0  0  0
 31 25  1  0  0  0  0
 32 24  1  0  0  0  0
M  END
> <CdId>
2066

> <Mol Weight>
515.376

> <Formula>
C23H19BrN2O5S

> <Click_ID>
CLK027_F06 __ __ 

$$$$
