CLK004_F08
 OpenBabel03191401532D

 24 26  0  0  0  0  0  0  0  0999 V2000
    0.0977   -0.2016    0.0000 C   0  0  0  0  0  0  0  0  0  0  0  0
    0.6340    0.4303    0.0000 C   0  0  0  0  0  0  0  0  0  0  0  0
   -0.6651    0.1144    0.0000 N   0  0  0  0  0  0  0  0  0  0  0  0
    0.3783   -0.9707    0.0000 N   0  0  0  0  0  0  0  0  0  0  0  0
    1.4467    0.2786    0.0000 C   0  0  0  0  0  0  0  0  0  0  0  0
    0.2016    1.1308    0.0000 N   0  0  0  0  0  0  0  0  0  0  0  0
   -1.3656   -0.3201    0.0000 C   0  0  0  0  0  0  0  0  0  0  0  0
   -0.5986    0.9395    0.0000 N   0  0  0  0  0  0  0  0  0  0  0  0
    1.1890   -1.1225    0.0000 C   0  0  0  0  0  0  0  0  0  0  0  0
    1.7211   -0.4989    0.0000 N   0  0  0  0  0  0  0  0  0  0  0  0
    1.9809    0.9084    0.0000 N   0  0  0  0  0  0  0  0  0  0  0  0
   -2.0911    0.0728    0.0000 C   0  0  0  0  0  0  0  0  0  0  0  0
    1.4654   -1.8978    0.0000 C   0  0  0  0  0  0  0  0  0  0  0  0
    2.7937    0.7608    0.0000 C   0  0  0  0  0  0  0  0  0  0  0  0
   -2.7957   -0.3555    0.0000 C   0  0  0  0  0  0  0  0  0  0  0  0
   -2.1160    0.9021    0.0000 C   0  0  0  0  0  0  0  0  0  0  0  0
    2.2781   -2.0475    0.0000 C   0  0  0  0  0  0  0  0  0  0  0  0
    0.9292   -2.5297    0.0000 C   0  0  0  0  0  0  0  0  0  0  0  0
    3.3279    1.3864    0.0000 C   0  0  0  0  0  0  0  0  0  0  0  0
   -3.5191    0.0312    0.0000 C   0  0  0  0  0  0  0  0  0  0  0  0
   -2.7708   -1.1765    0.0000 F   0  0  0  0  0  0  0  0  0  0  0  0
   -2.8394    1.2929    0.0000 C   0  0  0  0  0  0  0  0  0  0  0  0
    3.8579    2.0183    0.0000 C   0  0  0  0  0  0  0  0  0  0  0  0
   -3.5420    0.8564    0.0000 C   0  0  0  0  0  0  0  0  0  0  0  0
  1  2  1  0  0  0  0
  1  3  1  0  0  0  0
  1  4  2  0  0  0  0
  2  5  2  0  0  0  0
  2  6  1  0  0  0  0
  3  7  1  0  0  0  0
  3  8  1  0  0  0  0
  4  9  1  0  0  0  0
  5 10  1  0  0  0  0
  5 11  1  0  0  0  0
  6  8  2  0  0  0  0
  7 12  1  0  0  0  0
  9 13  1  0  0  0  0
  9 10  2  0  0  0  0
 11 14  1  0  0  0  0
 12 15  2  0  0  0  0
 12 16  1  0  0  0  0
 13 17  1  0  0  0  0
 13 18  1  0  0  0  0
 14 19  1  0  0  0  0
 15 20  1  0  0  0  0
 15 21  1  0  0  0  0
 16 22  2  0  0  0  0
 19 23  3  0  0  0  0
 20 24  2  0  0  0  0
 22 24  1  0  0  0  0
M  END
> <CdId>
297

> <Mol Weight>
324.3555

> <Formula>
C17H17FN6

> <Click_ID>
CLK004_F08 __ __ 

$$$$
