CLK029_C03
 OpenBabel03191401532D

 26 28  0  0  0  0  0  0  0  0999 V2000
   -1.1734    0.9646    0.0000 C   0  0  0  0  0  0  0  0  0  0  0  0
   -1.6619    0.2964    0.0000 N   0  0  0  0  0  0  0  0  0  0  0  0
   -0.3466    0.9646    0.0000 N   0  0  0  0  0  0  0  0  0  0  0  0
   -1.6619    1.6369    0.0000 S   0  0  0  0  0  0  0  0  0  0  0  0
   -2.4512    0.5512    0.0000 C   0  0  0  0  0  0  0  0  0  0  0  0
   -2.4512    1.3780    0.0000 C   0  0  0  0  0  0  0  0  0  0  0  0
    2.0462    1.6286    0.0000 N   0  0  0  0  0  0  0  0  0  0  0  0
    2.2549    2.4303    0.0000 C   0  0  0  0  0  0  0  0  0  0  0  0
   -0.1336    1.7664    0.0000 C   0  0  0  0  0  0  0  0  0  0  0  0
   -0.6013   -0.6556    0.0000 C   0  0  0  0  0  0  0  0  0  0  0  0
   -0.0501   -0.0418    0.0000 C   0  0  0  0  0  0  0  0  0  0  0  0
    3.0484    2.6516    0.0000 O   0  0  0  0  0  0  0  0  0  0  0  0
   -1.4031   -0.4802    0.0000 C   0  0  0  0  0  0  0  0  0  0  0  0
   -0.7224    2.3509    0.0000 O   0  0  0  0  0  0  0  0  0  0  0  0
    0.8686    2.7894    0.0000 S   0  0  0  0  0  0  0  0  0  0  0  0
    1.6661    3.0066    0.0000 C   0  0  0  0  0  0  0  0  0  0  0  0
    0.6556    1.9876    0.0000 C   0  0  0  0  0  0  0  0  0  0  0  0
    1.2695    1.3362    0.0000 C   0  0  0  0  0  0  0  0  0  0  0  0
    2.5681    0.9980    0.0000 C   0  0  0  0  0  0  0  0  0  0  0  0
   -3.1652    0.1461    0.0000 C   0  0  0  0  0  0  0  0  0  0  0  0
   -3.1652    1.7997    0.0000 C   0  0  0  0  0  0  0  0  0  0  0  0
    2.1213    0.3007    0.0000 C   0  0  0  0  0  0  0  0  0  0  0  0
    1.3196    0.5136    0.0000 C   0  0  0  0  0  0  0  0  0  0  0  0
   -3.8710    0.5512    0.0000 C   0  0  0  0  0  0  0  0  0  0  0  0
   -3.8710    1.3780    0.0000 C   0  0  0  0  0  0  0  0  0  0  0  0
   -4.5933    1.7872    0.0000 H   0  0  0  0  0  0  0  0  0  0  0  0
  2  1  1  0  0  0  0
  3  1  2  0  0  0  0
  4  1  1  0  0  0  0
  5  2  1  0  0  0  0
  6  4  1  0  0  0  0
  6  5  2  0  0  0  0
  7  8  1  0  0  0  0
  8 16  1  0  0  0  0
  9  3  1  0  0  0  0
 10 13  1  0  0  0  0
 11 10  3  0  0  0  0
 12  8  2  0  0  0  0
 13  2  1  0  0  0  0
 14  9  2  0  0  0  0
 15 17  1  0  0  0  0
 16 15  1  0  0  0  0
 17  9  1  0  0  0  0
 18  7  1  0  0  0  0
 19  7  1  0  0  0  0
 20  5  1  0  0  0  0
 21  6  1  0  0  0  0
 22 19  1  0  0  0  0
 22 23  1  0  0  0  0
 23 18  1  0  0  0  0
 24 20  2  0  0  0  0
 25 21  2  0  0  0  0
 25 24  1  0  0  0  0
 26 25  1  0  0  0  0
M  END
> <CdId>
2187

> <Mol Weight>
373.492

> <Formula>
C18H19N3O2S2

> <Click_ID>
CLK029_C03 __ __ 

$$$$
