CLK018_B03
 OpenBabel03191401532D

 21 22  0  0  0  0  0  0  0  0999 V2000
    5.7756   -2.8649    0.0000 C   0  0  0  0  0  0  0  0  0  0  0  0
    6.3378   -3.4729    0.0000 C   0  0  0  0  0  0  0  0  0  0  0  0
    2.2361   -2.1986    0.0000 C   0  0  0  0  0  0  0  0  0  0  0  0
   -0.1707   -2.7400    0.0000 C   0  0  0  0  0  0  0  0  0  0  0  0
    3.0398   -2.0238    0.0000 N   0  0  0  0  0  0  0  0  0  0  0  0
    0.6371   -2.5609    0.0000 C   0  0  0  0  0  0  0  0  0  0  0  0
    0.8787   -1.7739    0.0000 O   0  0  0  0  0  0  0  0  0  0  0  0
   -0.4122   -3.5270    0.0000 C   0  0  0  0  0  0  0  0  0  0  0  0
    3.6020   -2.6276    0.0000 C   0  0  0  0  0  0  0  0  0  0  0  0
    1.9905   -2.9857    0.0000 O   0  0  0  0  0  0  0  0  0  0  0  0
    1.1993   -3.1606    0.0000 C   0  0  0  0  0  0  0  0  0  0  0  0
    4.9761   -3.0523    0.0000 C   0  0  0  0  0  0  0  0  0  0  0  0
    1.6782   -1.5907    0.0000 C   0  0  0  0  0  0  0  0  0  0  0  0
    4.4140   -2.4527    0.0000 C   0  0  0  0  0  0  0  0  0  0  0  0
    0.1499   -4.1267    0.0000 C   0  0  0  0  0  0  0  0  0  0  0  0
    0.9536   -3.9476    0.0000 C   0  0  0  0  0  0  0  0  0  0  0  0
    3.9143   -4.0350    0.0000 C   0  0  0  0  0  0  0  0  0  0  0  0
   -0.7246   -2.1362    0.0000 C   0  0  0  0  0  0  0  0  0  0  0  0
    3.3521   -3.4271    0.0000 C   0  0  0  0  0  0  0  0  0  0  0  0
    4.7221   -3.8518    0.0000 C   0  0  0  0  0  0  0  0  0  0  0  0
   -0.0957   -4.9220    0.0000 C   0  0  0  0  0  0  0  0  0  0  0  0
  2  1  3  0  0  0  0
  3  5  1  0  0  0  0
  4  6  2  0  0  0  0
  5  9  1  0  0  0  0
  6  7  1  0  0  0  0
  7 13  1  0  0  0  0
  8  4  1  0  0  0  0
  9 14  2  0  0  0  0
 10  3  2  0  0  0  0
 11  6  1  0  0  0  0
 12  1  1  0  0  0  0
 13  3  1  0  0  0  0
 14 12  1  0  0  0  0
 15 16  1  0  0  0  0
 15  8  2  0  0  0  0
 16 11  2  0  0  0  0
 17 20  1  0  0  0  0
 18  4  1  0  0  0  0
 19 17  2  0  0  0  0
 19  9  1  0  0  0  0
 20 12  2  0  0  0  0
 21 15  1  0  0  0  0
M  END
> <CdId>
1328

> <Mol Weight>
279.3331

> <Formula>
C18H17NO2

> <Click_ID>
CLK018_B03 __ __ 

$$$$
