CLK027_B02
 OpenBabel03191401532D

 24 23  0  0  0  0  0  0  0  0999 V2000
    3.1716    2.2801    0.0000 C   0  0  0  0  0  0  0  0  0  0  0  0
   -3.1750   -2.2767    0.0000 C   0  0  0  0  0  0  0  0  0  0  0  0
    3.8779    2.7087    0.0000 C   0  0  0  0  0  0  0  0  0  0  0  0
   -3.8814   -2.6985    0.0000 C   0  0  0  0  0  0  0  0  0  0  0  0
    2.4584    1.8584    0.0000 C   0  0  0  0  0  0  0  0  0  0  0  0
   -2.4584   -1.8481    0.0000 C   0  0  0  0  0  0  0  0  0  0  0  0
    1.0355    0.2228    0.0000 C   0  0  0  0  0  0  0  0  0  0  0  0
   -0.3532   -1.4058    0.0000 C   0  0  0  0  0  0  0  0  0  0  0  0
   -1.7795   -1.4332    0.0000 O   0  0  0  0  0  0  0  0  0  0  0  0
    1.7521    1.4744    0.0000 O   0  0  0  0  0  0  0  0  0  0  0  0
   -1.0698   -1.8481    0.0000 O   0  0  0  0  0  0  0  0  0  0  0  0
    1.7521    0.6515    0.0000 O   0  0  0  0  0  0  0  0  0  0  0  0
    4.5877    3.1167    0.0000 I   0  0  0  0  0  0  0  0  0  0  0  0
   -4.5911   -3.1133    0.0000 I   0  0  0  0  0  0  0  0  0  0  0  0
    0.3532   -0.1989    0.0000 C   0  0  0  0  0  0  0  0  0  0  0  0
    0.3532   -1.0081    0.0000 C   0  0  0  0  0  0  0  0  0  0  0  0
   -2.8802   -1.1418    0.0000 C   0  0  0  0  0  0  0  0  0  0  0  0
    2.8767    1.1452    0.0000 C   0  0  0  0  0  0  0  0  0  0  0  0
    2.0367    2.5647    0.0000 C   0  0  0  0  0  0  0  0  0  0  0  0
   -2.0401   -2.5647    0.0000 C   0  0  0  0  0  0  0  0  0  0  0  0
    1.4606   -0.4835    0.0000 C   0  0  0  0  0  0  0  0  0  0  0  0
    0.6172    0.9360    0.0000 C   0  0  0  0  0  0  0  0  0  0  0  0
   -0.7749   -0.6960    0.0000 C   0  0  0  0  0  0  0  0  0  0  0  0
    0.0652   -2.1430    0.0000 C   0  0  0  0  0  0  0  0  0  0  0  0
  2  6  1  0  0  0  0
  3  1  3  0  0  0  0
  4  2  3  0  0  0  0
  5  1  1  0  0  0  0
  6  9  1  0  0  0  0
  7 12  1  0  0  0  0
  8 16  1  0  0  0  0
  9 11  1  0  0  0  0
 10  5  1  0  0  0  0
 11  8  1  0  0  0  0
 12 10  1  0  0  0  0
 13  3  1  0  0  0  0
 14  4  1  0  0  0  0
 15  7  1  0  0  0  0
 16 15  1  0  0  0  0
 17  6  1  0  0  0  0
 18  5  1  0  0  0  0
 19  5  1  0  0  0  0
 20  6  1  0  0  0  0
 21  7  1  0  0  0  0
 22  7  1  0  0  0  0
 23  8  1  0  0  0  0
 24  8  1  0  0  0  0
M  END
> <CdId>
2026

> <Mol Weight>
562.2215

> <Formula>
C18H28I2O4

> <Click_ID>
CLK027_B02 __ __ 

$$$$
