CLK014_G09
 OpenBabel03191401532D

 26 27  0  0  0  0  0  0  0  0999 V2000
    2.0254   -1.0794    0.0000 N    0  0  0  0  0  0  0  0  0  0  0  0
    2.2755   -1.8671    0.0000 C    0  0  0  0  0  0  0  0  0  0  0  0
    2.6881   -0.5918    0.0000 C    0  0  0  0  0  0  0  0  0  0  0  0
    3.3549   -1.0794    0.0000 C    0  0  0  0  0  0  0  0  0  0  0  0
    3.1007   -1.8671    0.0000 S    0  0  0  0  0  0  0  0  0  0  0  0
    4.1426   -0.8252    0.0000 C    0  0  0  0  0  0  0  0  0  0  0  0
    4.6427    1.5836    0.0000 C    0  0  0  0  0  0  0  0  0  0  0  0
    5.2511    1.0377    0.0000 C    0  0  0  0  0  0  0  0  0  0  0  0
    3.8675    1.3336    0.0000 C    0  0  0  0  0  0  0  0  0  0  0  0
    1.2420   -0.8252    0.0000 C    0  0  0  0  0  0  0  0  0  0  0  0
    4.3134   -0.0167    0.0000 C    0  0  0  0  0  0  0  0  0  0  0  0
    5.7887    3.4382    0.0000 C    0  0  0  0  0  0  0  0  0  0  0  0
    5.9638    4.2301    0.0000 C    0  0  0  0  0  0  0  0  0  0  0  0
    0.6251   -1.3795    0.0000 C    0  0  0  0  0  0  0  0  0  0  0  0
    1.7921   -2.5297    0.0000 O    0  0  0  0  0  0  0  0  0  0  0  0
    2.6881    0.2333    0.0000 O    0  0  0  0  0  0  0  0  0  0  0  0
    3.6925    0.5334    0.0000 C    0  0  0  0  0  0  0  0  0  0  0  0
    5.0803    0.2333    0.0000 C    0  0  0  0  0  0  0  0  0  0  0  0
    0.8002   -2.1880    0.0000 O    0  0  0  0  0  0  0  0  0  0  0  0
    6.0305    1.2878    0.0000 Cl   0  0  0  0  0  0  0  0  0  0  0  0
    3.2674    1.8962    0.0000 Cl   0  0  0  0  0  0  0  0  0  0  0  0
    4.8177    2.3963    0.0000 O    0  0  0  0  0  0  0  0  0  0  0  0
   -0.1583   -1.1252    0.0000 O    0  0  0  0  0  0  0  0  0  0  0  0
    5.6054    2.6339    0.0000 C    0  0  0  0  0  0  0  0  0  0  0  0
   -0.3334   -0.3168    0.0000 C    0  0  0  0  0  0  0  0  0  0  0  0
   -1.1210   -0.0667    0.0000 C    0  0  0  0  0  0  0  0  0  0  0  0
  2  1  1  0  0  0  0
  3  1  1  0  0  0  0
  4  3  1  0  0  0  0
  4  5  1  0  0  0  0
  5  2  1  0  0  0  0
  6  4  2  0  0  0  0
  7  8  1  0  0  0  0
  7  9  2  0  0  0  0
  8 18  2  0  0  0  0
  9 17  1  0  0  0  0
 10  1  1  0  0  0  0
 11  6  1  0  0  0  0
 12 24  1  0  0  0  0
 13 12  3  0  0  0  0
 14 10  1  0  0  0  0
 15  2  2  0  0  0  0
 16  3  2  0  0  0  0
 17 11  2  0  0  0  0
 18 11  1  0  0  0  0
 19 14  2  0  0  0  0
 20  8  1  0  0  0  0
 21  9  1  0  0  0  0
 22  7  1  0  0  0  0
 23 14  1  0  0  0  0
 24 22  1  0  0  0  0
 25 23  1  0  0  0  0
 26 25  1  0  0  0  0
M  END
> <CdId>
1064

> <Mol Weight>
414.26

> <Formula>
C17H13Cl2NO5S

> <Click_ID>
CLK014_G09 __ __ 

$$$$
