CLK022_F08
 OpenBabel03191401532D

 21 22  0  0  0  0  0  0  0  0999 V2000
    3.2844    1.0261    0.0000 C   0  0  0  0  0  0  0  0  0  0  0  0
    2.8722    1.7407    0.0000 N   0  0  0  0  0  0  0  0  0  0  0  0
    7.8194    1.7407    0.0000 C   0  0  0  0  0  0  0  0  0  0  0  0
    2.0476    1.7407    0.0000 C   0  0  0  0  0  0  0  0  0  0  0  0
    8.6439    1.7407    0.0000 C   0  0  0  0  0  0  0  0  0  0  0  0
    4.1090    1.0261    0.0000 C   0  0  0  0  0  0  0  0  0  0  0  0
    2.8722    0.3115    0.0000 O   0  0  0  0  0  0  0  0  0  0  0  0
    1.6353    2.4553    0.0000 C   0  0  0  0  0  0  0  0  0  0  0  0
    4.5212    0.3115    0.0000 C   0  0  0  0  0  0  0  0  0  0  0  0
    4.5212    1.7407    0.0000 C   0  0  0  0  0  0  0  0  0  0  0  0
    5.7581    1.0261    0.0000 C   0  0  0  0  0  0  0  0  0  0  0  0
    5.3458    0.3115    0.0000 C   0  0  0  0  0  0  0  0  0  0  0  0
    5.3458    1.7407    0.0000 C   0  0  0  0  0  0  0  0  0  0  0  0
    6.9949    1.7407    0.0000 C   0  0  0  0  0  0  0  0  0  0  0  0
    6.5826    1.0261    0.0000 O   0  0  0  0  0  0  0  0  0  0  0  0
    1.6353    1.0261    0.0000 C   0  0  0  0  0  0  0  0  0  0  0  0
    2.0476    3.1699    0.0000 C   0  0  0  0  0  0  0  0  0  0  0  0
    0.8108    2.4553    0.0000 C   0  0  0  0  0  0  0  0  0  0  0  0
    1.6353    3.8845    0.0000 C   0  0  0  0  0  0  0  0  0  0  0  0
    0.8108    1.0261    0.0000 C   0  0  0  0  0  0  0  0  0  0  0  0
    0.3985    1.7407    0.0000 C   0  0  0  0  0  0  0  0  0  0  0  0
  2  1  1  0  0  0  0
  3 14  1  0  0  0  0
  4  2  1  0  0  0  0
  5  3  3  0  0  0  0
  6  1  1  0  0  0  0
  7  1  2  0  0  0  0
  8  4  1  0  0  0  0
  9  6  2  0  0  0  0
 10  6  1  0  0  0  0
 11 13  1  0  0  0  0
 11 12  2  0  0  0  0
 12  9  1  0  0  0  0
 13 10  2  0  0  0  0
 14 15  1  0  0  0  0
 15 11  1  0  0  0  0
 16  4  2  0  0  0  0
 17  8  1  0  0  0  0
 18  8  2  0  0  0  0
 19 17  1  0  0  0  0
 20 16  1  0  0  0  0
 21 20  2  0  0  0  0
 21 18  1  0  0  0  0
M  END
> <CdId>
1682

> <Mol Weight>
279.3331

> <Formula>
C18H17NO2

> <Click_ID>
CLK022_F08 __ __ 

$$$$
