CLK049B09
 OpenBabel03191401532D

 21 22  0  0  0  0  0  0  0  0999 V2000
    2.4125    0.0625    0.0000 C    0  0  0  0  0  0  0  0  0  0  0  0
    1.7000    0.4750    0.0000 C    0  0  0  0  0  0  0  0  0  0  0  0
    0.9833    0.0625    0.0000 N    0  0  0  0  0  0  0  0  0  0  0  0
   -2.5875   -2.0000    0.0000 C    0  0  0  0  0  0  0  0  0  0  0  0
    0.2708    0.4750    0.0000 C    0  0  0  0  0  0  0  0  0  0  0  0
   -2.5875   -2.8250    0.0000 C    0  0  0  0  0  0  0  0  0  0  0  0
    3.1292    0.4750    0.0000 C    0  0  0  0  0  0  0  0  0  0  0  0
   -1.1583    0.4750    0.0000 N    0  0  0  0  0  0  0  0  0  0  0  0
    0.2708    1.3000    0.0000 O    0  0  0  0  0  0  0  0  0  0  0  0
   -2.5875   -1.1750    0.0000 C    0  0  0  0  0  0  0  0  0  0  0  0
   -0.4458    0.0625    0.0000 C    0  0  0  0  0  0  0  0  0  0  0  0
   -1.8750    0.0625    0.0000 C    0  0  0  0  0  0  0  0  0  0  0  0
   -1.8750   -0.7625    0.0000 C    0  0  0  0  0  0  0  0  0  0  0  0
    3.8417    0.0625    0.0000 Cl   0  0  0  0  0  0  0  0  0  0  0  0
    1.7000    1.3000    0.0000 C    0  0  0  0  0  0  0  0  0  0  0  0
    2.4125   -0.7625    0.0000 C    0  0  0  0  0  0  0  0  0  0  0  0
    2.4125    1.7125    0.0000 C    0  0  0  0  0  0  0  0  0  0  0  0
   -3.3042    0.0625    0.0000 C    0  0  0  0  0  0  0  0  0  0  0  0
    3.1292    1.3000    0.0000 C    0  0  0  0  0  0  0  0  0  0  0  0
   -3.3042   -0.7625    0.0000 C    0  0  0  0  0  0  0  0  0  0  0  0
   -2.5875    0.4750    0.0000 C    0  0  0  0  0  0  0  0  0  0  0  0
  2  1  2  0  0  0  0
  3  2  1  0  0  0  0
  4 10  1  0  0  0  0
  5  3  1  0  0  0  0
  6  4  3  0  0  0  0
  7  1  1  0  0  0  0
  8 11  1  0  0  0  0
  9  5  2  0  0  0  0
 10 13  1  0  0  0  0
 11  5  1  0  0  0  0
 12  8  1  0  0  0  0
 13 12  2  0  0  0  0
 14  7  1  0  0  0  0
 15  2  1  0  0  0  0
 16  1  1  0  0  0  0
 17 15  2  0  0  0  0
 17 19  1  0  0  0  0
 18 21  2  0  0  0  0
 19  7  2  0  0  0  0
 20 10  2  0  0  0  0
 20 18  1  0  0  0  0
 21 12  1  0  0  0  0
M  END
> <CdId>
3786

> <Mol Weight>
298.767

> <Formula>
C17H15ClN2O

> <Click_ID>
CLK049B09 __ __ 

$$$$
