CLK045C11
 OpenBabel03191401532D

 28 30  0  0  0  0  0  0  0  0999 V2000
   -1.2083   -0.4167    0.0000 C   0  0  0  0  0  0  0  0  0  0  0  0
    0.2208   -0.4167    0.0000 N   0  0  0  0  0  0  0  0  0  0  0  0
   -1.2083    0.4083    0.0000 C   0  0  0  0  0  0  0  0  0  0  0  0
   -0.4917    0.8208    0.0000 N   0  0  0  0  0  0  0  0  0  0  0  0
   -0.4917   -0.8292    0.0000 C   0  0  0  0  0  0  0  0  0  0  0  0
    0.2208    0.4083    0.0000 C   0  0  0  0  0  0  0  0  0  0  0  0
   -1.9917   -0.6708    0.0000 C   0  0  0  0  0  0  0  0  0  0  0  0
   -1.9917    0.6667    0.0000 S   0  0  0  0  0  0  0  0  0  0  0  0
   -2.4750   -0.0042    0.0000 C   0  0  0  0  0  0  0  0  0  0  0  0
   -2.2458   -1.4542    0.0000 C   0  0  0  0  0  0  0  0  0  0  0  0
    0.9375   -0.8292    0.0000 C   0  0  0  0  0  0  0  0  0  0  0  0
    0.9375    0.8208    0.0000 S   0  0  0  0  0  0  0  0  0  0  0  0
   -1.7625   -2.1208    0.0000 S   0  0  0  0  0  0  0  0  0  0  0  0
    2.3667    4.1167    0.0000 C   0  0  0  0  0  0  0  0  0  0  0  0
    2.3667    4.9417    0.0000 C   0  0  0  0  0  0  0  0  0  0  0  0
   -0.4917   -1.6542    0.0000 O   0  0  0  0  0  0  0  0  0  0  0  0
    1.6500    2.0583    0.0000 C   0  0  0  0  0  0  0  0  0  0  0  0
   -3.0333   -1.7083    0.0000 C   0  0  0  0  0  0  0  0  0  0  0  0
   -2.2458   -2.7875    0.0000 C   0  0  0  0  0  0  0  0  0  0  0  0
   -3.0333   -2.5333    0.0000 C   0  0  0  0  0  0  0  0  0  0  0  0
    2.3667    1.6458    0.0000 O   0  0  0  0  0  0  0  0  0  0  0  0
    0.9375    1.6458    0.0000 C   0  0  0  0  0  0  0  0  0  0  0  0
    1.6500    2.8833    0.0000 N   0  0  0  0  0  0  0  0  0  0  0  0
    0.9375   -1.6542    0.0000 C   0  0  0  0  0  0  0  0  0  0  0  0
    2.3667    3.2958    0.0000 C   0  0  0  0  0  0  0  0  0  0  0  0
    1.6500   -2.0667    0.0000 C   0  0  0  0  0  0  0  0  0  0  0  0
    1.6500   -2.8917    0.0000 C   0  0  0  0  0  0  0  0  0  0  0  0
    2.3667   -1.6542    0.0000 C   0  0  0  0  0  0  0  0  0  0  0  0
  2  5  1  0  0  0  0
  3  1  2  0  0  0  0
  4  3  1  0  0  0  0
  4  6  2  0  0  0  0
  5  1  1  0  0  0  0
  6  2  1  0  0  0  0
  7  1  1  0  0  0  0
  8  3  1  0  0  0  0
  9  7  2  0  0  0  0
  9  8  1  0  0  0  0
 10  7  1  0  0  0  0
 11  2  1  0  0  0  0
 12  6  1  0  0  0  0
 13 10  1  0  0  0  0
 14 25  1  0  0  0  0
 15 14  3  0  0  0  0
 16  5  2  0  0  0  0
 17 22  1  0  0  0  0
 18 10  2  0  0  0  0
 19 13  1  0  0  0  0
 19 20  2  0  0  0  0
 20 18  1  0  0  0  0
 21 17  2  0  0  0  0
 22 12  1  0  0  0  0
 23 17  1  0  0  0  0
 24 11  1  0  0  0  0
 25 23  1  0  0  0  0
 26 24  1  0  0  0  0
 27 26  1  0  0  0  0
 28 26  1  0  0  0  0
M  END
> <CdId>
3483

> <Mol Weight>
431.595

> <Formula>
C20H21N3O2S3

> <Click_ID>
CLK045C11 __ __ 

$$$$
