CLK031_H03
 OpenBabel03191401532D

 28 30  0  0  0  0  0  0  0  0999 V2000
   -1.1649    2.3882    0.0000 C    0  0  0  0  0  0  0  0  0  0  0  0
   -4.5928    3.2192    0.0000 S    0  0  0  0  0  0  0  0  0  0  0  0
   -1.6492    1.7244    0.0000 N    0  0  0  0  0  0  0  0  0  0  0  0
   -0.3382    2.3799    0.0000 N    0  0  0  0  0  0  0  0  0  0  0  0
   -1.6492    3.0563    0.0000 S    0  0  0  0  0  0  0  0  0  0  0  0
   -2.4383    2.8016    0.0000 C    0  0  0  0  0  0  0  0  0  0  0  0
   -2.4383    1.9749    0.0000 C    0  0  0  0  0  0  0  0  0  0  0  0
   -3.8663    2.8016    0.0000 C    0  0  0  0  0  0  0  0  0  0  0  0
   -3.1523    3.2149    0.0000 C    0  0  0  0  0  0  0  0  0  0  0  0
    0.0752    3.0939    0.0000 C    0  0  0  0  0  0  0  0  0  0  0  0
   -1.9498    0.3215    0.0000 C    0  0  0  0  0  0  0  0  0  0  0  0
   -3.1523    1.5615    0.0000 C    0  0  0  0  0  0  0  0  0  0  0  0
   -2.5010   -0.2923    0.0000 C    0  0  0  0  0  0  0  0  0  0  0  0
   -4.1544    3.9164    0.0000 O    0  0  0  0  0  0  0  0  0  0  0  0
   -5.0312    2.5135    0.0000 O    0  0  0  0  0  0  0  0  0  0  0  0
   -5.2942    3.6534    0.0000 N    0  0  0  0  0  0  0  0  0  0  0  0
   -3.8663    1.9749    0.0000 C    0  0  0  0  0  0  0  0  0  0  0  0
   -1.3987    0.9352    0.0000 C    0  0  0  0  0  0  0  0  0  0  0  0
   -0.3382    3.8079    0.0000 O    0  0  0  0  0  0  0  0  0  0  0  0
    1.3194    3.8162    0.0000 O    0  0  0  0  0  0  0  0  0  0  0  0
    0.9019    3.0939    0.0000 C    0  0  0  0  0  0  0  0  0  0  0  0
    2.1461    3.8204    0.0000 C    0  0  0  0  0  0  0  0  0  0  0  0
    3.8121    3.8204    0.0000 C    0  0  0  0  0  0  0  0  0  0  0  0
    4.6388    3.8287    0.0000 Cl   0  0  0  0  0  0  0  0  0  0  0  0
    2.5470    4.5261    0.0000 C    0  0  0  0  0  0  0  0  0  0  0  0
    2.5678    3.1147    0.0000 C    0  0  0  0  0  0  0  0  0  0  0  0
    3.3820    4.5261    0.0000 C    0  0  0  0  0  0  0  0  0  0  0  0
    3.3945    3.1147    0.0000 C    0  0  0  0  0  0  0  0  0  0  0  0
  2  8  1  0  0  0  0
  3  1  1  0  0  0  0
  4  1  2  0  0  0  0
  5  1  1  0  0  0  0
  6  5  1  0  0  0  0
  6  7  2  0  0  0  0
  7  3  1  0  0  0  0
  8  9  2  0  0  0  0
  8 17  1  0  0  0  0
  9  6  1  0  0  0  0
 10  4  1  0  0  0  0
 11 18  1  0  0  0  0
 12  7  1  0  0  0  0
 13 11  3  0  0  0  0
 14  2  2  0  0  0  0
 15  2  2  0  0  0  0
 16  2  1  0  0  0  0
 17 12  2  0  0  0  0
 18  3  1  0  0  0  0
 19 10  2  0  0  0  0
 20 21  1  0  0  0  0
 21 10  1  0  0  0  0
 22 20  1  0  0  0  0
 23 28  2  0  0  0  0
 23 27  1  0  0  0  0
 24 23  1  0  0  0  0
 25 22  1  0  0  0  0
 26 22  2  0  0  0  0
 27 25  2  0  0  0  0
 28 26  1  0  0  0  0
M  END
> <CdId>
2397

> <Mol Weight>
435.904

> <Formula>
C18H14ClN3O4S2

> <Click_ID>
CLK031_H03 __ __ 

$$$$
