CLK040H05
 OpenBabel03191401532D

 20 21  0  0  0  0  0  0  0  0999 V2000
    0.6088   -0.3086    0.0000 N   0  0  0  0  0  0  0  0  0  0  0  0
    1.3929   -0.0542    0.0000 C   0  0  0  0  0  0  0  0  0  0  0  0
    0.1251    0.3586    0.0000 C   0  0  0  0  0  0  0  0  0  0  0  0
    1.3929    0.7714    0.0000 N   0  0  0  0  0  0  0  0  0  0  0  0
    0.6088    1.0259    0.0000 C   0  0  0  0  0  0  0  0  0  0  0  0
    0.3545   -1.0926    0.0000 C   0  0  0  0  0  0  0  0  0  0  0  0
   -1.7723   -3.0067    0.0000 C   0  0  0  0  0  0  0  0  0  0  0  0
   -2.0267   -3.7907    0.0000 C   0  0  0  0  0  0  0  0  0  0  0  0
   -0.4546   -1.2636    0.0000 C   0  0  0  0  0  0  0  0  0  0  0  0
    2.0642   -0.5379    0.0000 O   0  0  0  0  0  0  0  0  0  0  0  0
   -0.7006    0.3586    0.0000 O   0  0  0  0  0  0  0  0  0  0  0  0
   -1.0050   -0.6505    0.0000 O   0  0  0  0  0  0  0  0  0  0  0  0
   -0.7089   -2.0517    0.0000 N   0  0  0  0  0  0  0  0  0  0  0  0
   -0.2085    1.1384    0.0000 C   0  0  0  0  0  0  0  0  0  0  0  0
    1.2052    1.5971    0.0000 C   0  0  0  0  0  0  0  0  0  0  0  0
   -1.5180   -2.2227    0.0000 C   0  0  0  0  0  0  0  0  0  0  0  0
   -0.6338    1.8473    0.0000 C   0  0  0  0  0  0  0  0  0  0  0  0
    1.1301    2.4228    0.0000 C   0  0  0  0  0  0  0  0  0  0  0  0
    0.4421    2.8774    0.0000 C   0  0  0  0  0  0  0  0  0  0  0  0
   -0.3420    2.6189    0.0000 C   0  0  0  0  0  0  0  0  0  0  0  0
  2  1  1  0  0  0  0
  3  1  1  0  0  0  0
  4  2  1  0  0  0  0
  5  3  1  0  0  0  0
  5  4  1  0  0  0  0
  6  1  1  0  0  0  0
  7 16  1  0  0  0  0
  8  7  3  0  0  0  0
  9  6  1  0  0  0  0
 10  2  2  0  0  0  0
 11  3  2  0  0  0  0
 12  9  2  0  0  0  0
 13  9  1  0  0  0  0
 14  5  1  0  0  0  0
 15  5  1  0  0  0  0
 16 13  1  0  0  0  0
 17 14  1  0  0  0  0
 18 15  1  0  0  0  0
 19 18  1  0  0  0  0
 20 17  1  0  0  0  0
 20 19  1  0  0  0  0
M  END
> <CdId>
3040

> <Mol Weight>
277.319

> <Formula>
C14H19N3O3

> <Click_ID>
CLK040H05 __ __ 

$$$$
