CLK040H04
 OpenBabel03191401532D

 17 18  0  0  0  0  0  0  0  0999 V2000
   -0.1292   -0.7875    0.0000 S   0  0  0  0  0  0  0  0  0  0  0  0
   -0.1292    0.0375    0.0000 N   0  0  0  0  0  0  0  0  0  0  0  0
   -0.1292   -1.6125    0.0000 C   0  0  0  0  0  0  0  0  0  0  0  0
    0.5375   -2.0958    0.0000 S   0  0  0  0  0  0  0  0  0  0  0  0
   -0.9542   -0.7875    0.0000 O   0  0  0  0  0  0  0  0  0  0  0  0
    0.6958   -0.7875    0.0000 O   0  0  0  0  0  0  0  0  0  0  0  0
    0.5875    2.9250    0.0000 C   0  0  0  0  0  0  0  0  0  0  0  0
   -0.1292    1.6875    0.0000 N   0  0  0  0  0  0  0  0  0  0  0  0
    1.3000    3.3375    0.0000 C   0  0  0  0  0  0  0  0  0  0  0  0
    0.5875    0.4500    0.0000 C   0  0  0  0  0  0  0  0  0  0  0  0
   -0.8417    0.4500    0.0000 C   0  0  0  0  0  0  0  0  0  0  0  0
   -0.7958   -2.0958    0.0000 C   0  0  0  0  0  0  0  0  0  0  0  0
    0.2833   -2.8792    0.0000 C   0  0  0  0  0  0  0  0  0  0  0  0
   -0.5417   -2.8792    0.0000 C   0  0  0  0  0  0  0  0  0  0  0  0
    0.5875    1.2750    0.0000 C   0  0  0  0  0  0  0  0  0  0  0  0
   -0.8417    1.2750    0.0000 C   0  0  0  0  0  0  0  0  0  0  0  0
   -0.1292    2.5125    0.0000 C   0  0  0  0  0  0  0  0  0  0  0  0
  2  1  1  0  0  0  0
  3  1  1  0  0  0  0
  4  3  1  0  0  0  0
  5  1  2  0  0  0  0
  6  1  2  0  0  0  0
  7 17  1  0  0  0  0
  8 16  1  0  0  0  0
  8 15  1  0  0  0  0
  9  7  3  0  0  0  0
 10  2  1  0  0  0  0
 11  2  1  0  0  0  0
 12  3  2  0  0  0  0
 13  4  1  0  0  0  0
 13 14  2  0  0  0  0
 14 12  1  0  0  0  0
 15 10  1  0  0  0  0
 16 11  1  0  0  0  0
 17  8  1  0  0  0  0
M  END
> <CdId>
3032

> <Mol Weight>
270.371

> <Formula>
C11H14N2O2S2

> <Click_ID>
CLK040H04 __ __ 

$$$$
