CLK015_B04
 OpenBabel03191401532D

 24 25  0  0  0  0  0  0  0  0999 V2000
    2.1848   -1.4042    0.0000 N   0  0  0  0  0  0  0  0  0  0  0  0
    3.0025   -1.4001    0.0000 C   0  0  0  0  0  0  0  0  0  0  0  0
    2.5937   -2.6639    0.0000 C   0  0  0  0  0  0  0  0  0  0  0  0
    1.9246   -2.1848    0.0000 C   0  0  0  0  0  0  0  0  0  0  0  0
    3.2586   -2.1848    0.0000 N   0  0  0  0  0  0  0  0  0  0  0  0
    2.5937   -3.4858    0.0000 C   0  0  0  0  0  0  0  0  0  0  0  0
    3.4858   -0.7352    0.0000 S   0  0  0  0  0  0  0  0  0  0  0  0
    6.9012   -5.1419    0.0000 C   0  0  0  0  0  0  0  0  0  0  0  0
    7.6116   -5.5549    0.0000 C   0  0  0  0  0  0  0  0  0  0  0  0
    1.1440   -2.4408    0.0000 O   0  0  0  0  0  0  0  0  0  0  0  0
    4.7454   -3.9070    0.0000 C   0  0  0  0  0  0  0  0  0  0  0  0
    3.3123   -3.9070    0.0000 C   0  0  0  0  0  0  0  0  0  0  0  0
    4.0268   -3.4940    0.0000 C   0  0  0  0  0  0  0  0  0  0  0  0
    4.7578   -4.7371    0.0000 C   0  0  0  0  0  0  0  0  0  0  0  0
    1.7016   -0.7352    0.0000 C   0  0  0  0  0  0  0  0  0  0  0  0
    4.0268   -5.1460    0.0000 C   0  0  0  0  0  0  0  0  0  0  0  0
    4.0433   -2.4408    0.0000 C   0  0  0  0  0  0  0  0  0  0  0  0
    3.3123   -4.7371    0.0000 C   0  0  0  0  0  0  0  0  0  0  0  0
    5.4558   -3.4940    0.0000 O   0  0  0  0  0  0  0  0  0  0  0  0
    5.4682   -5.1460    0.0000 O   0  0  0  0  0  0  0  0  0  0  0  0
    6.1826   -4.7371    0.0000 C   0  0  0  0  0  0  0  0  0  0  0  0
    5.4558   -2.6639    0.0000 C   0  0  0  0  0  0  0  0  0  0  0  0
    2.0361    0.0082    0.0000 C   0  0  0  0  0  0  0  0  0  0  0  0
    6.1744   -2.2550    0.0000 C   0  0  0  0  0  0  0  0  0  0  0  0
  2  1  1  0  0  0  0
  3  4  1  0  0  0  0
  4  1  1  0  0  0  0
  5  2  1  0  0  0  0
  5  3  1  0  0  0  0
  6  3  2  0  0  0  0
  7  2  2  0  0  0  0
  8 21  1  0  0  0  0
  9  8  3  0  0  0  0
 10  4  2  0  0  0  0
 11 13  2  0  0  0  0
 12  6  1  0  0  0  0
 13 12  1  0  0  0  0
 14 16  2  0  0  0  0
 14 11  1  0  0  0  0
 15  1  1  0  0  0  0
 16 18  1  0  0  0  0
 17  5  1  0  0  0  0
 18 12  2  0  0  0  0
 19 11  1  0  0  0  0
 20 14  1  0  0  0  0
 21 20  1  0  0  0  0
 22 19  1  0  0  0  0
 23 15  1  0  0  0  0
 24 22  1  0  0  0  0
M  END
> <CdId>
1089

> <Mol Weight>
344.428

> <Formula>
C18H20N2O3S

> <Click_ID>
CLK015_B04 __ __ 

$$$$
