CLK012_H10
 OpenBabel03191401532D

 28 30  0  0  0  0  0  0  0  0999 V2000
    6.5708   -3.3874    0.0000 N    0  0  0  0  0  0  0  0  0  0  0  0
    6.0548   -4.0324    0.0000 C    0  0  0  0  0  0  0  0  0  0  0  0
    6.1214   -2.6966    0.0000 C    0  0  0  0  0  0  0  0  0  0  0  0
    5.3224   -2.9088    0.0000 C    0  0  0  0  0  0  0  0  0  0  0  0
    5.2808   -3.7369    0.0000 S    0  0  0  0  0  0  0  0  0  0  0  0
    7.3948   -3.4373    0.0000 C    0  0  0  0  0  0  0  0  0  0  0  0
    4.6857   -2.3887    0.0000 C    0  0  0  0  0  0  0  0  0  0  0  0
    3.9117   -2.6841    0.0000 C    0  0  0  0  0  0  0  0  0  0  0  0
    7.8442   -2.7465    0.0000 C    0  0  0  0  0  0  0  0  0  0  0  0
    2.8963   -0.0167    0.0000 C    0  0  0  0  0  0  0  0  0  0  0  0
    3.0211    0.7948    0.0000 C    0  0  0  0  0  0  0  0  0  0  0  0
    6.2587   -4.8313    0.0000 O    0  0  0  0  0  0  0  0  0  0  0  0
    6.4210   -1.9267    0.0000 O    0  0  0  0  0  0  0  0  0  0  0  0
    3.2708   -2.1597    0.0000 C    0  0  0  0  0  0  0  0  0  0  0  0
    3.7827   -3.4997    0.0000 C    0  0  0  0  0  0  0  0  0  0  0  0
    7.4780   -2.0141    0.0000 O    0  0  0  0  0  0  0  0  0  0  0  0
    8.6681   -2.7881    0.0000 C    0  0  0  0  0  0  0  0  0  0  0  0
    2.5010   -2.4511    0.0000 C    0  0  0  0  0  0  0  0  0  0  0  0
    3.0087   -3.7993    0.0000 C    0  0  0  0  0  0  0  0  0  0  0  0
    2.3637   -3.2750    0.0000 C    0  0  0  0  0  0  0  0  0  0  0  0
    2.8755   -4.6108    0.0000 Br   0  0  0  0  0  0  0  0  0  0  0  0
    3.3999   -1.3525    0.0000 O    0  0  0  0  0  0  0  0  0  0  0  0
    2.7632   -0.8281    0.0000 C    0  0  0  0  0  0  0  0  0  0  0  0
    9.0385   -3.5247    0.0000 C    0  0  0  0  0  0  0  0  0  0  0  0
    9.1134   -2.1015    0.0000 C    0  0  0  0  0  0  0  0  0  0  0  0
    9.8541   -3.5746    0.0000 C    0  0  0  0  0  0  0  0  0  0  0  0
    9.9415   -2.1515    0.0000 C    0  0  0  0  0  0  0  0  0  0  0  0
   10.3118   -2.8880    0.0000 C    0  0  0  0  0  0  0  0  0  0  0  0
  2  1  1  0  0  0  0
  3  1  1  0  0  0  0
  4  3  1  0  0  0  0
  5  2  1  0  0  0  0
  5  4  1  0  0  0  0
  6  1  1  0  0  0  0
  7  4  2  0  0  0  0
  8  7  1  0  0  0  0
  9  6  1  0  0  0  0
 10 23  1  0  0  0  0
 11 10  3  0  0  0  0
 12  2  2  0  0  0  0
 13  3  2  0  0  0  0
 14  8  2  0  0  0  0
 15  8  1  0  0  0  0
 16  9  2  0  0  0  0
 17  9  1  0  0  0  0
 18 14  1  0  0  0  0
 19 15  2  0  0  0  0
 20 19  1  0  0  0  0
 20 18  2  0  0  0  0
 21 19  1  0  0  0  0
 22 14  1  0  0  0  0
 23 22  1  0  0  0  0
 24 17  2  0  0  0  0
 25 17  1  0  0  0  0
 26 24  1  0  0  0  0
 27 25  2  0  0  0  0
 28 27  1  0  0  0  0
 28 26  2  0  0  0  0
M  END
> <CdId>
915

> <Mol Weight>
456.309

> <Formula>
C21H14BrNO4S

> <Click_ID>
CLK012_H10 __ __ 

$$$$
