CLK021_D06
 OpenBabel03191401532D

 32 34  0  0  0  0  0  0  0  0999 V2000
    4.4459    4.7896    0.0000 C   0  0  0  0  0  0  0  0  0  0  0  0
    4.4459    5.6146    0.0000 C   0  0  0  0  0  0  0  0  0  0  0  0
    3.7309    4.3816    0.0000 C   0  0  3  0  0  0  0  0  0  0  0  0
    5.1609    4.3816    0.0000 C   0  0  0  0  0  0  0  0  0  0  0  0
    4.4459    3.1441    0.0000 C   0  0  0  0  0  0  0  0  0  0  0  0
    5.1609    3.5566    0.0000 N   0  0  0  0  0  0  0  0  0  0  0  0
    3.7309    3.5566    0.0000 N   0  0  0  0  0  0  0  0  0  0  0  0
    5.1609    6.0271    0.0000 N   0  0  0  0  0  0  0  0  0  0  0  0
    3.0159    4.7896    0.0000 C   0  0  0  0  0  0  0  0  0  0  0  0
    3.0159    5.6146    0.0000 C   0  0  0  0  0  0  0  0  0  0  0  0
   -0.5591    6.0271    0.0000 C   0  0  0  0  0  0  0  0  0  0  0  0
    5.1609    6.8521    0.0000 C   0  0  0  0  0  0  0  0  0  0  0  0
   -1.2741    6.4396    0.0000 C   0  0  0  0  0  0  0  0  0  0  0  0
    2.3009    6.0271    0.0000 C   0  0  0  0  0  0  0  0  0  0  0  0
    3.7309    6.0271    0.0000 O   0  0  0  0  0  0  0  0  0  0  0  0
    4.4459    2.3191    0.0000 O   0  0  0  0  0  0  0  0  0  0  0  0
    1.5859    5.6146    0.0000 C   0  0  0  0  0  0  0  0  0  0  0  0
    2.3009    4.3816    0.0000 C   0  0  0  0  0  0  0  0  0  0  0  0
    5.8759    7.2646    0.0000 C   0  0  0  0  0  0  0  0  0  0  0  0
    1.5859    4.7896    0.0000 C   0  0  0  0  0  0  0  0  0  0  0  0
    5.8759    4.7896    0.0000 C   0  0  0  0  0  0  0  0  0  0  0  0
    2.3009    6.8521    0.0000 O   0  0  0  0  0  0  0  0  0  0  0  0
    0.8709    6.0271    0.0000 O   0  0  0  0  0  0  0  0  0  0  0  0
    6.5909    6.8521    0.0000 O   0  0  0  0  0  0  0  0  0  0  0  0
    0.1559    5.6146    0.0000 C   0  0  0  0  0  0  0  0  0  0  0  0
    4.4459    7.2646    0.0000 C   0  0  0  0  0  0  0  0  0  0  0  0
    5.8759    8.0896    0.0000 C   0  0  0  0  0  0  0  0  0  0  0  0
    3.0159    7.2646    0.0000 C   0  0  0  0  0  0  0  0  0  0  0  0
    7.3059    7.2646    0.0000 C   0  0  0  0  0  0  0  0  0  0  0  0
    3.0159    8.0896    0.0000 C   0  0  0  0  0  0  0  0  0  0  0  0
    4.4459    8.0896    0.0000 C   0  0  0  0  0  0  0  0  0  0  0  0
    5.1609    8.5021    0.0000 C   0  0  0  0  0  0  0  0  0  0  0  0
  2  1  1  0  0  0  0
  3  1  1  0  0  0  0
  4  1  2  0  0  0  0
  5  6  1  0  0  0  0
  5  7  1  0  0  0  0
  6  4  1  0  0  0  0
  7  3  1  0  0  0  0
  8  2  1  0  0  0  0
  9  3  1  0  0  0  0
 10  9  2  0  0  0  0
 11 25  1  0  0  0  0
 12  8  1  0  0  0  0
 13 11  3  0  0  0  0
 14 10  1  0  0  0  0
 15  2  2  0  0  0  0
 16  5  2  0  0  0  0
 17 20  1  0  0  0  0
 17 14  2  0  0  0  0
 18  9  1  0  0  0  0
 19 12  1  0  0  0  0
 20 18  2  0  0  0  0
 21  4  1  0  0  0  0
 22 14  1  0  0  0  0
 23 17  1  0  0  0  0
 24 19  1  0  0  0  0
 25 23  1  0  0  0  0
 26 12  2  0  0  0  0
 27 19  2  0  0  0  0
 28 22  1  0  0  0  0
 29 24  1  0  0  0  0
 30 28  1  0  0  0  0
 31 26  1  0  0  0  0
 32 31  2  0  0  0  0
 32 27  1  0  0  0  0
M  END
> <CdId>
1591

> <Mol Weight>
435.4724

> <Formula>
C24H25N3O5

> <Click_ID>
CLK021_D06 __ __ 

$$$$
