CLK048G05
 OpenBabel03191401532D

 19 20  0  0  0  0  0  0  0  0999 V2000
    0.7333    0.0208    0.0000 C   0  0  0  0  0  0  0  0  0  0  0  0
   -0.5375    0.4333    0.0000 N   0  0  0  0  0  0  0  0  0  0  0  0
   -0.0542   -0.2333    0.0000 C   0  0  0  0  0  0  0  0  0  0  0  0
   -0.0542    1.1000    0.0000 N   0  0  0  0  0  0  0  0  0  0  0  0
    0.7333    0.8458    0.0000 C   0  0  0  0  0  0  0  0  0  0  0  0
    1.4000   -0.4625    0.0000 C   0  0  0  0  0  0  0  0  0  0  0  0
   -1.3625    0.4333    0.0000 C   0  0  0  0  0  0  0  0  0  0  0  0
    3.5750   -0.2792    0.0000 C   0  0  0  0  0  0  0  0  0  0  0  0
    4.3292    0.0583    0.0000 C   0  0  0  0  0  0  0  0  0  0  0  0
   -1.7750   -0.2792    0.0000 C   0  0  0  0  0  0  0  0  0  0  0  0
    1.3125   -1.2833    0.0000 O   0  0  0  0  0  0  0  0  0  0  0  0
    2.1542   -0.1292    0.0000 N   0  0  0  0  0  0  0  0  0  0  0  0
   -0.3083   -1.0208    0.0000 C   0  0  0  0  0  0  0  0  0  0  0  0
   -2.6000   -0.2792    0.0000 C   0  0  0  0  0  0  0  0  0  0  0  0
    2.8208   -0.6125    0.0000 C   0  0  0  0  0  0  0  0  0  0  0  0
   -1.7750    1.1458    0.0000 C   0  0  0  0  0  0  0  0  0  0  0  0
   -2.6000    1.1458    0.0000 C   0  0  0  0  0  0  0  0  0  0  0  0
   -3.0125    0.4333    0.0000 C   0  0  0  0  0  0  0  0  0  0  0  0
   -3.0125   -0.9958    0.0000 C   0  0  0  0  0  0  0  0  0  0  0  0
  2  3  1  0  0  0  0
  2  4  1  0  0  0  0
  3  1  2  0  0  0  0
  4  5  2  0  0  0  0
  5  1  1  0  0  0  0
  6  1  1  0  0  0  0
  7  2  1  0  0  0  0
  8 15  1  0  0  0  0
  9  8  3  0  0  0  0
 10  7  2  0  0  0  0
 11  6  2  0  0  0  0
 12  6  1  0  0  0  0
 13  3  1  0  0  0  0
 14 10  1  0  0  0  0
 15 12  1  0  0  0  0
 16  7  1  0  0  0  0
 17 16  2  0  0  0  0
 18 14  2  0  0  0  0
 18 17  1  0  0  0  0
 19 14  1  0  0  0  0
M  END
> <CdId>
3679

> <Mol Weight>
253.2991

> <Formula>
C15H15N3O

> <Click_ID>
CLK048G05 __ __ 

$$$$
