CLK034_H08
 OpenBabel03191401532D

 29 32  0  0  0  0  0  0  0  0999 V2000
   -4.5802    2.5483    0.0000 C    0  0  0  0  0  0  0  0  0  0  0  0
   -3.8682    2.9688    0.0000 N    0  0  0  0  0  0  0  0  0  0  0  0
   -4.6718    1.7321    0.0000 N    0  0  0  0  0  0  0  0  0  0  0  0
   -1.0076    3.7932    0.0000 N    0  0  0  0  0  0  0  0  0  0  0  0
   -5.3172    2.8938    0.0000 S    0  0  0  0  0  0  0  0  0  0  0  0
   -5.4796    1.5697    0.0000 C    0  0  0  0  0  0  0  0  0  0  0  0
   -5.8793    2.2942    0.0000 C    0  0  0  0  0  0  0  0  0  0  0  0
   -3.8682    3.7974    0.0000 C    0  0  0  0  0  0  0  0  0  0  0  0
   -1.7196    4.2096    0.0000 C    0  0  0  0  0  0  0  0  0  0  0  0
   -0.9618    2.9688    0.0000 C    0  0  0  0  0  0  0  0  0  0  0  0
   -0.2373    4.0889    0.0000 C    0  0  0  0  0  0  0  0  0  0  0  0
   -2.4358    3.8057    0.0000 C    0  0  0  0  0  0  0  0  0  0  0  0
   -3.1562    4.2096    0.0000 C    0  0  0  0  0  0  0  0  0  0  0  0
   -4.2429    0.3498    0.0000 C    0  0  0  0  0  0  0  0  0  0  0  0
   -4.4178   -0.4539    0.0000 C    0  0  0  0  0  0  0  0  0  0  0  0
   -5.9043    0.8702    0.0000 C    0  0  0  0  0  0  0  0  0  0  0  0
   -4.5927    4.2096    0.0000 O    0  0  0  0  0  0  0  0  0  0  0  0
   -0.1457    2.7689    0.0000 C    0  0  0  0  0  0  0  0  0  0  0  0
    0.2915    3.4684    0.0000 C    0  0  0  0  0  0  0  0  0  0  0  0
   -1.5947    2.4566    0.0000 O    0  0  0  0  0  0  0  0  0  0  0  0
   -0.0208    4.8842    0.0000 O    0  0  0  0  0  0  0  0  0  0  0  0
   -4.0556    1.1575    0.0000 C    0  0  0  0  0  0  0  0  0  0  0  0
   -5.5046    0.1457    0.0000 Cl   0  0  0  0  0  0  0  0  0  0  0  0
   -6.6997    2.3067    0.0000 C    0  0  0  0  0  0  0  0  0  0  0  0
   -1.7113    5.0258    0.0000 C    0  0  0  0  0  0  0  0  0  0  0  0
   -3.1479    5.0383    0.0000 C    0  0  0  0  0  0  0  0  0  0  0  0
   -2.4317    5.4505    0.0000 C    0  0  0  0  0  0  0  0  0  0  0  0
   -7.1244    1.5989    0.0000 C    0  0  0  0  0  0  0  0  0  0  0  0
   -6.7122    0.8744    0.0000 C    0  0  0  0  0  0  0  0  0  0  0  0
  2  1  2  0  0  0  0
  3  1  1  0  0  0  0
  4  9  1  0  0  0  0
  5  1  1  0  0  0  0
  6  3  1  0  0  0  0
  7  5  1  0  0  0  0
  7  6  2  0  0  0  0
  8  2  1  0  0  0  0
  9 12  1  0  0  0  0
  9 25  2  0  0  0  0
 10  4  1  0  0  0  0
 11  4  1  0  0  0  0
 12 13  2  0  0  0  0
 13  8  1  0  0  0  0
 14 22  1  0  0  0  0
 15 14  3  0  0  0  0
 16  6  1  0  0  0  0
 17  8  2  0  0  0  0
 18 10  1  0  0  0  0
 18 19  1  0  0  0  0
 19 11  1  0  0  0  0
 20 10  2  0  0  0  0
 21 11  2  0  0  0  0
 22  3  1  0  0  0  0
 23 16  1  0  0  0  0
 24  7  1  0  0  0  0
 25 27  1  0  0  0  0
 26 13  1  0  0  0  0
 27 26  2  0  0  0  0
 28 24  2  0  0  0  0
 29 16  2  0  0  0  0
 29 28  1  0  0  0  0
M  END
> <CdId>
2642

> <Mol Weight>
423.872

> <Formula>
C21H14ClN3O3S

> <Click_ID>
CLK034_H08 __ __ 

$$$$
