CLK046A11
 OpenBabel03191401532D

 17 18  0  0  0  0  0  0  0  0999 V2000
    0.6417    0.2500    0.0000 C   0  0  0  0  0  0  0  0  0  0  0  0
    0.1583    0.9167    0.0000 C   0  0  0  0  0  0  0  0  0  0  0  0
    0.3875   -0.5375    0.0000 C   0  0  0  0  0  0  0  0  0  0  0  0
    1.4292    0.5042    0.0000 O   0  0  0  0  0  0  0  0  0  0  0  0
    1.2375   -2.5458    0.0000 C   0  0  0  0  0  0  0  0  0  0  0  0
    1.7875   -3.1625    0.0000 C   0  0  0  0  0  0  0  0  0  0  0  0
    0.6417    1.5833    0.0000 C   0  0  0  0  0  0  0  0  0  0  0  0
    1.4292    1.3292    0.0000 C   0  0  0  0  0  0  0  0  0  0  0  0
   -0.6667    0.9167    0.0000 C   0  0  0  0  0  0  0  0  0  0  0  0
   -0.4208   -0.7083    0.0000 O   0  0  0  0  0  0  0  0  0  0  0  0
    0.9417   -1.1500    0.0000 N   0  0  0  0  0  0  0  0  0  0  0  0
    0.6833   -1.9333    0.0000 C   0  0  0  0  0  0  0  0  0  0  0  0
   -1.0792    1.6292    0.0000 C   0  0  0  0  0  0  0  0  0  0  0  0
   -1.0792    0.2000    0.0000 C   0  0  0  0  0  0  0  0  0  0  0  0
   -1.9042    0.2000    0.0000 C   0  0  0  0  0  0  0  0  0  0  0  0
   -1.9042    1.6292    0.0000 C   0  0  0  0  0  0  0  0  0  0  0  0
   -2.3167    0.9167    0.0000 C   0  0  0  0  0  0  0  0  0  0  0  0
  2  1  2  0  0  0  0
  3  1  1  0  0  0  0
  4  1  1  0  0  0  0
  5 12  1  0  0  0  0
  6  5  3  0  0  0  0
  7  2  1  0  0  0  0
  7  8  2  0  0  0  0
  8  4  1  0  0  0  0
  9  2  1  0  0  0  0
 10  3  2  0  0  0  0
 11  3  1  0  0  0  0
 12 11  1  0  0  0  0
 13  9  1  0  0  0  0
 14  9  2  0  0  0  0
 15 14  1  0  0  0  0
 16 13  2  0  0  0  0
 17 15  2  0  0  0  0
 17 16  1  0  0  0  0
M  END
> <CdId>
3561

> <Mol Weight>
225.2426

> <Formula>
C14H11NO2

> <Click_ID>
CLK046A11 __ __ 

$$$$
