CLK013_G08
 OpenBabel03191401532D

 26 27  0  0  0  0  0  0  0  0999 V2000
    6.0157   -1.3896    0.0000 N   0  0  0  0  0  0  0  0  0  0  0  0
    5.8826   -2.2133    0.0000 C   0  0  0  0  0  0  0  0  0  0  0  0
    5.2794   -1.0151    0.0000 C   0  0  0  0  0  0  0  0  0  0  0  0
    4.6928   -1.6017    0.0000 C   0  0  0  0  0  0  0  0  0  0  0  0
    5.0672   -2.3381    0.0000 S   0  0  0  0  0  0  0  0  0  0  0  0
    3.8815   -1.4644    0.0000 C   0  0  0  0  0  0  0  0  0  0  0  0
    2.3131   -3.3948    0.0000 C   0  0  0  0  0  0  0  0  0  0  0  0
    3.1327   -3.5238    0.0000 C   0  0  0  0  0  0  0  0  0  0  0  0
    2.0136   -2.6210    0.0000 C   0  0  0  0  0  0  0  0  0  0  0  0
    3.3573   -2.1093    0.0000 C   0  0  0  0  0  0  0  0  0  0  0  0
    6.7521   -1.0234    0.0000 C   0  0  0  0  0  0  0  0  0  0  0  0
    1.5643   -5.4416    0.0000 C   0  0  0  0  0  0  0  0  0  0  0  0
    1.0484   -6.0781    0.0000 C   0  0  0  0  0  0  0  0  0  0  0  0
    6.4650   -2.7957    0.0000 O   0  0  0  0  0  0  0  0  0  0  0  0
    5.1546   -0.2039    0.0000 O   0  0  0  0  0  0  0  0  0  0  0  0
    3.6486   -2.8831    0.0000 C   0  0  0  0  0  0  0  0  0  0  0  0
    2.5378   -1.9762    0.0000 C   0  0  0  0  0  0  0  0  0  0  0  0
    3.4239   -4.2934    0.0000 I   0  0  0  0  0  0  0  0  0  0  0  0
    1.7889   -4.0355    0.0000 O   0  0  0  0  0  0  0  0  0  0  0  0
    1.2023   -2.4879    0.0000 O   0  0  0  0  0  0  0  0  0  0  0  0
    2.0885   -4.8051    0.0000 C   0  0  0  0  0  0  0  0  0  0  0  0
    7.4385   -1.4727    0.0000 C   0  0  0  0  0  0  0  0  0  0  0  0
    0.6782   -3.1369    0.0000 C   0  0  0  0  0  0  0  0  0  0  0  0
    8.1749   -1.1025    0.0000 C   0  0  0  0  0  0  0  0  0  0  0  0
    7.3928   -2.2965    0.0000 C   0  0  0  0  0  0  0  0  0  0  0  0
   -0.1331   -2.9996    0.0000 C   0  0  0  0  0  0  0  0  0  0  0  0
  2  1  1  0  0  0  0
  3  1  1  0  0  0  0
  4  3  1  0  0  0  0
  5  2  1  0  0  0  0
  5  4  1  0  0  0  0
  6  4  2  0  0  0  0
  7  9  2  0  0  0  0
  7  8  1  0  0  0  0
  8 16  2  0  0  0  0
  9 17  1  0  0  0  0
 10  6  1  0  0  0  0
 11  1  1  0  0  0  0
 12 21  1  0  0  0  0
 13 12  3  0  0  0  0
 14  2  2  0  0  0  0
 15  3  2  0  0  0  0
 16 10  1  0  0  0  0
 17 10  2  0  0  0  0
 18  8  1  0  0  0  0
 19  7  1  0  0  0  0
 20  9  1  0  0  0  0
 21 19  1  0  0  0  0
 22 11  1  0  0  0  0
 23 20  1  0  0  0  0
 24 22  1  0  0  0  0
 25 22  1  0  0  0  0
 26 23  1  0  0  0  0
M  END
> <CdId>
983

> <Mol Weight>
485.336

> <Formula>
C19H20INO4S

> <Click_ID>
CLK013_G08 __ __ 

$$$$
