CLK006_D02
 OpenBabel03191401532D

 30 33  0  0  0  0  0  0  0  0999 V2000
   -0.1404   -1.0075    0.0000 C   0  0  0  0  0  0  0  0  0  0  0  0
   -0.2668   -0.2177    0.0000 C   0  0  0  0  0  0  0  0  0  0  0  0
   -0.8425   -1.3831    0.0000 N   0  0  0  0  0  0  0  0  0  0  0  0
    0.6108   -1.3971    0.0000 N   0  0  0  0  0  0  0  0  0  0  0  0
    0.2211    0.2703    0.0000 C   0  0  3  0  0  0  0  0  0  0  0  0
   -1.0672   -0.1053    0.0000 C   0  0  0  0  0  0  0  0  0  0  0  0
   -0.9584   -2.2011    0.0000 C   0  0  0  0  0  0  0  0  0  0  0  0
   -1.4182   -0.8319    0.0000 N   0  0  0  0  0  0  0  0  0  0  0  0
    1.3866   -1.0321    0.0000 C   0  0  0  0  0  0  0  0  0  0  0  0
    0.2106    1.1093    0.0000 C   0  0  0  0  0  0  0  0  0  0  0  0
    1.0355    0.2809    0.0000 S   0  0  0  0  0  0  0  0  0  0  0  0
   -1.7938    0.3054    0.0000 C   0  0  0  0  0  0  0  0  0  0  0  0
   -1.7306   -2.5099    0.0000 C   0  0  0  0  0  0  0  0  0  0  0  0
   -0.3159   -2.7030    0.0000 C   0  0  0  0  0  0  0  0  0  0  0  0
    1.5375   -0.2317    0.0000 C   0  0  3  0  0  0  0  0  0  0  0  0
    2.0360   -1.5340    0.0000 O   0  0  0  0  0  0  0  0  0  0  0  0
   -0.5055    1.5095    0.0000 C   0  0  0  0  0  0  0  0  0  0  0  0
    0.9232    1.5200    0.0000 C   0  0  0  0  0  0  0  0  0  0  0  0
   -1.8429   -3.3279    0.0000 C   0  0  0  0  0  0  0  0  0  0  0  0
   -0.4283   -3.5245    0.0000 C   0  0  0  0  0  0  0  0  0  0  0  0
    2.3274    0.0035    0.0000 C   0  0  0  0  0  0  0  0  0  0  0  0
   -0.5160    2.3344    0.0000 C   0  0  0  0  0  0  0  0  0  0  0  0
    0.9232    2.3485    0.0000 C   0  0  0  0  0  0  0  0  0  0  0  0
   -1.1935   -3.8369    0.0000 C   0  0  0  0  0  0  0  0  0  0  0  0
    0.2106    2.7486    0.0000 C   0  0  0  0  0  0  0  0  0  0  0  0
   -1.3094   -4.6548    0.0000 C   0  0  0  0  0  0  0  0  0  0  0  0
    0.1966    3.5876    0.0000 O   0  0  0  0  0  0  0  0  0  0  0  0
    0.9092    4.0018    0.0000 C   0  0  0  0  0  0  0  0  0  0  0  0
    0.9092    4.8268    0.0000 C   0  0  0  0  0  0  0  0  0  0  0  0
    0.8987    5.6553    0.0000 C   0  0  0  0  0  0  0  0  0  0  0  0
  1  2  2  0  0  0  0
  1  3  1  0  0  0  0
  1  4  1  0  0  0  0
  2  5  1  0  0  0  0
  2  6  1  0  0  0  0
  3  7  1  0  0  0  0
  3  8  1  0  0  0  0
  4  9  1  0  0  0  0
  5 10  1  0  0  0  0
  5 11  1  0  0  0  0
  6 12  1  0  0  0  0
  6  8  2  0  0  0  0
  7 13  2  0  0  0  0
  7 14  1  0  0  0  0
  9 15  1  0  0  0  0
  9 16  2  0  0  0  0
 10 17  1  0  0  0  0
 10 18  2  0  0  0  0
 11 15  1  0  0  0  0
 13 19  1  0  0  0  0
 14 20  2  0  0  0  0
 15 21  1  0  0  0  0
 17 22  2  0  0  0  0
 18 23  1  0  0  0  0
 19 24  2  0  0  0  0
 20 24  1  0  0  0  0
 22 25  1  0  0  0  0
 23 25  2  0  0  0  0
 24 26  1  0  0  0  0
 25 27  1  0  0  0  0
 27 28  1  0  0  0  0
 28 29  1  0  0  0  0
 29 30  3  0  0  0  0
M  END
> <CdId>
431

> <Mol Weight>
417.523

> <Formula>
C24H23N3O2S

> <Click_ID>
CLK006_D02 __ __ 

$$$$
