CLK046E09
 OpenBabel03191401532D

 30 32  0  0  0  0  0  0  0  0999 V2000
   -0.2292    0.9250    0.0000 S   0  0  0  0  0  0  0  0  0  0  0  0
    0.4833    0.5125    0.0000 N   0  0  0  0  0  0  0  0  0  0  0  0
    0.4833   -0.3125    0.0000 C   0  0  3  0  0  0  0  0  0  0  0  0
    1.2000   -0.7250    0.0000 C   0  0  0  0  0  0  0  0  0  0  0  0
   -0.9458    1.3375    0.0000 C   0  0  0  0  0  0  0  0  0  0  0  0
   -1.6583    0.9250    0.0000 C   0  0  0  0  0  0  0  0  0  0  0  0
    1.2000   -1.5500    0.0000 N   0  0  0  0  0  0  0  0  0  0  0  0
   -2.3750    1.3375    0.0000 C   0  0  0  0  0  0  0  0  0  0  0  0
    4.0542   -1.5500    0.0000 C   0  0  0  0  0  0  0  0  0  0  0  0
    0.1833    1.6375    0.0000 O   0  0  0  0  0  0  0  0  0  0  0  0
   -0.6417    0.2083    0.0000 O   0  0  0  0  0  0  0  0  0  0  0  0
    4.7708   -1.1375    0.0000 C   0  0  0  0  0  0  0  0  0  0  0  0
   -2.3750    2.1625    0.0000 C   0  0  0  0  0  0  0  0  0  0  0  0
    1.9125   -0.3125    0.0000 O   0  0  0  0  0  0  0  0  0  0  0  0
   -3.0208    0.8208    0.0000 O   0  0  0  0  0  0  0  0  0  0  0  0
    1.9125   -1.9625    0.0000 C   0  0  0  0  0  0  0  0  0  0  0  0
   -3.0208    2.6750    0.0000 O   0  0  0  0  0  0  0  0  0  0  0  0
   -0.9458    2.1625    0.0000 C   0  0  0  0  0  0  0  0  0  0  0  0
   -1.6583    2.5750    0.0000 C   0  0  0  0  0  0  0  0  0  0  0  0
   -0.2292   -0.7250    0.0000 C   0  0  0  0  0  0  0  0  0  0  0  0
    3.3417   -1.9625    0.0000 C   0  0  0  0  0  0  0  0  0  0  0  0
    2.6250   -1.5500    0.0000 C   0  0  0  0  0  0  0  0  0  0  0  0
   -4.1833    1.7500    0.0000 C   0  0  0  0  0  0  0  0  0  0  0  0
   -3.8250    1.0042    0.0000 C   0  0  0  0  0  0  0  0  0  0  0  0
   -3.8250    2.4917    0.0000 C   0  0  0  0  0  0  0  0  0  0  0  0
    2.6250   -3.2000    0.0000 C   0  0  0  0  0  0  0  0  0  0  0  0
    1.9125   -2.7875    0.0000 C   0  0  0  0  0  0  0  0  0  0  0  0
    3.3417   -2.7875    0.0000 C   0  0  0  0  0  0  0  0  0  0  0  0
   -0.2292   -1.5500    0.0000 C   0  0  0  0  0  0  0  0  0  0  0  0
   -0.9458   -0.3125    0.0000 C   0  0  0  0  0  0  0  0  0  0  0  0
  2  1  1  0  0  0  0
  3  2  1  0  0  0  0
  4  3  1  0  0  0  0
  5  1  1  0  0  0  0
  6  5  2  0  0  0  0
  7  4  1  0  0  0  0
  8  6  1  0  0  0  0
  9 21  1  0  0  0  0
 10  1  2  0  0  0  0
 11  1  2  0  0  0  0
 12  9  3  0  0  0  0
 13  8  2  0  0  0  0
 13 19  1  0  0  0  0
 14  4  2  0  0  0  0
 15  8  1  0  0  0  0
 16  7  1  0  0  0  0
 17 13  1  0  0  0  0
 18  5  1  0  0  0  0
 19 18  2  0  0  0  0
 20  3  1  0  0  0  0
 21 22  1  0  0  0  0
 22 16  2  0  0  0  0
 23 24  1  0  0  0  0
 23 25  1  0  0  0  0
 24 15  1  0  0  0  0
 25 17  1  0  0  0  0
 26 27  2  0  0  0  0
 27 16  1  0  0  0  0
 28 21  2  0  0  0  0
 28 26  1  0  0  0  0
 29 20  1  0  0  0  0
 30 20  1  0  0  0  0
M  END
> <CdId>
3549

> <Mol Weight>
428.501

> <Formula>
C22H24N2O5S

> <Click_ID>
CLK046E09 __ __ 

$$$$
