CLK032_E11
 OpenBabel03191401532D

 16 17  0  0  0  0  0  0  0  0999 V2000
   -0.5556   -0.8671    0.0000 N   0  0  0  0  0  0  0  0  0  0  0  0
   -1.3221   -1.0682    0.0000 C   0  0  0  0  0  0  0  0  0  0  0  0
   -1.8921   -0.4934    0.0000 C   0  0  3  0  0  0  0  0  0  0  0  0
   -0.7568   -0.0479    0.0000 C   0  0  0  0  0  0  0  0  0  0  0  0
   -2.2513    0.7042    0.0000 C   0  0  0  0  0  0  0  0  0  0  0  0
   -1.5520    0.3018    0.0000 C   0  0  3  0  0  0  0  0  0  0  0  0
   -2.4525   -0.8958    0.0000 C   0  0  0  0  0  0  0  0  0  0  0  0
   -2.2801   -0.0862    0.0000 C   0  0  0  0  0  0  0  0  0  0  0  0
    0.8958   -0.8814    0.0000 C   0  0  0  0  0  0  0  0  0  0  0  0
    1.6143   -1.3125    0.0000 C   0  0  0  0  0  0  0  0  0  0  0  0
   -1.5328   -1.8442    0.0000 O   0  0  0  0  0  0  0  0  0  0  0  0
   -0.0958    0.5125    0.0000 O   0  0  0  0  0  0  0  0  0  0  0  0
    0.1629   -1.2982    0.0000 C   0  0  0  0  0  0  0  0  0  0  0  0
   -2.2944   -1.1976    0.0000 C   0  0  0  0  0  0  0  0  0  0  0  0
   -3.0561    0.7042    0.0000 C   0  0  0  0  0  0  0  0  0  0  0  0
   -1.8490    1.4035    0.0000 C   0  0  0  0  0  0  0  0  0  0  0  0
  2  1  1  0  0  0  0
  3  2  1  0  0  0  0
  4  1  1  0  0  0  0
  5  6  1  0  0  0  0
  5  3  1  0  0  0  0
  6  4  1  0  0  0  0
  7  3  1  0  0  0  0
  7  8  1  0  0  0  0
  8  6  1  0  0  0  0
  9 13  1  0  0  0  0
 10  9  3  0  0  0  0
 11  2  2  0  0  0  0
 12  4  2  0  0  0  0
 13  1  1  0  0  0  0
 14  3  1  0  0  0  0
 15  5  1  0  0  0  0
 16  5  1  0  0  0  0
M  END
> <CdId>
2455

> <Mol Weight>
219.2796

> <Formula>
C13H17NO2

> <Click_ID>
CLK032_E11 __ __ 

$$$$
