CLK016_F02
 OpenBabel03191401532D

 22 24  0  0  0  0  0  0  0  0999 V2000
    2.6224    0.4217    0.0000 N   0  0  0  0  0  0  0  0  0  0  0  0
    3.9629    0.4217    0.0000 C   0  0  0  0  0  0  0  0  0  0  0  0
    2.8813   -0.3675    0.0000 C   0  0  0  0  0  0  0  0  0  0  0  0
    3.2947    0.9020    0.0000 C   0  0  0  0  0  0  0  0  0  0  0  0
    5.0360    0.7642    0.0000 C   0  0  0  0  0  0  0  0  0  0  0  0
    3.7081   -0.3675    0.0000 N   0  0  0  0  0  0  0  0  0  0  0  0
    5.2114    1.5742    0.0000 C   0  0  0  0  0  0  0  0  0  0  0  0
    5.9923    1.8290    0.0000 C   0  0  0  0  0  0  0  0  0  0  0  0
    3.3741    3.2404    0.0000 C   0  0  0  0  0  0  0  0  0  0  0  0
    3.5452    4.0380    0.0000 C   0  0  0  0  0  0  0  0  0  0  0  0
    4.5975    2.1254    0.0000 C   0  0  0  0  0  0  0  0  0  0  0  0
    2.3844   -1.0398    0.0000 O   0  0  0  0  0  0  0  0  0  0  0  0
    3.2864    1.7288    0.0000 O   0  0  0  0  0  0  0  0  0  0  0  0
    6.1677    2.6307    0.0000 C   0  0  0  0  0  0  0  0  0  0  0  0
    4.7646    2.9397    0.0000 C   0  0  0  0  0  0  0  0  0  0  0  0
    5.5538    3.1903    0.0000 C   0  0  0  0  0  0  0  0  0  0  0  0
    3.8125    1.8749    0.0000 O   0  0  0  0  0  0  0  0  0  0  0  0
    3.1987    2.4303    0.0000 C   0  0  0  0  0  0  0  0  0  0  0  0
    6.6061    1.2736    0.0000 C   0  0  0  0  0  0  0  0  0  0  0  0
    6.9444    2.8896    0.0000 C   0  0  0  0  0  0  0  0  0  0  0  0
    7.3828    1.5367    0.0000 C   0  0  0  0  0  0  0  0  0  0  0  0
    7.5540    2.3426    0.0000 C   0  0  0  0  0  0  0  0  0  0  0  0
  2  4  1  0  0  0  0
  2  6  1  0  0  0  0
  3  1  1  0  0  0  0
  4  1  1  0  0  0  0
  5  2  2  0  0  0  0
  6  3  1  0  0  0  0
  7  5  1  0  0  0  0
  8  7  1  0  0  0  0
  9 18  1  0  0  0  0
 10  9  3  0  0  0  0
 11  7  2  0  0  0  0
 12  3  2  0  0  0  0
 13  4  2  0  0  0  0
 14  8  1  0  0  0  0
 14 16  1  0  0  0  0
 15 11  1  0  0  0  0
 16 15  2  0  0  0  0
 17 11  1  0  0  0  0
 18 17  1  0  0  0  0
 19  8  2  0  0  0  0
 20 14  2  0  0  0  0
 20 22  1  0  0  0  0
 21 19  1  0  0  0  0
 22 21  2  0  0  0  0
M  END
> <CdId>
1207

> <Mol Weight>
292.2888

> <Formula>
C17H12N2O3

> <Click_ID>
CLK016_F02 __ __ 

$$$$
