CLK035_F02
 OpenBabel03191401532D

 26 28  0  0  0  0  0  0  0  0999 V2000
   -4.5958    2.5583    0.0000 C   0  0  0  0  0  0  0  0  0  0  0  0
   -3.8625    2.9833    0.0000 N   0  0  0  0  0  0  0  0  0  0  0  0
   -4.6833    1.7333    0.0000 N   0  0  0  0  0  0  0  0  0  0  0  0
   -5.3208    2.8958    0.0000 S   0  0  0  0  0  0  0  0  0  0  0  0
   -3.8708    3.8000    0.0000 C   0  0  0  0  0  0  0  0  0  0  0  0
   -3.8708    5.4417    0.0000 N   0  3  0  0  0  0  0  0  0  0  0  0
   -5.4875    1.5833    0.0000 C   0  0  0  0  0  0  0  0  0  0  0  0
   -3.1583    4.2125    0.0000 C   0  0  0  0  0  0  0  0  0  0  0  0
   -5.8958    2.3000    0.0000 C   0  0  0  0  0  0  0  0  0  0  0  0
   -3.1500    5.0292    0.0000 C   0  0  0  0  0  0  0  0  0  0  0  0
   -4.2583    0.3583    0.0000 C   0  0  0  0  0  0  0  0  0  0  0  0
   -4.4458   -0.4542    0.0000 C   0  0  0  0  0  0  0  0  0  0  0  0
   -3.8750    6.2667    0.0000 O   0  5  0  0  0  0  0  0  0  0  0  0
   -4.5833    5.0250    0.0000 O   0  0  0  0  0  0  0  0  0  0  0  0
   -4.5833    4.2167    0.0000 O   0  0  0  0  0  0  0  0  0  0  0  0
   -5.9208    0.8833    0.0000 C   0  0  0  0  0  0  0  0  0  0  0  0
   -4.0708    1.1625    0.0000 C   0  0  0  0  0  0  0  0  0  0  0  0
   -2.4333    3.8000    0.0000 C   0  0  0  0  0  0  0  0  0  0  0  0
   -6.7042    2.3208    0.0000 C   0  0  0  0  0  0  0  0  0  0  0  0
   -5.5208    0.1458    0.0000 O   0  0  0  0  0  0  0  0  0  0  0  0
   -2.4375    5.4417    0.0000 C   0  0  0  0  0  0  0  0  0  0  0  0
   -7.1417    1.6208    0.0000 C   0  0  0  0  0  0  0  0  0  0  0  0
   -6.7292    0.8875    0.0000 C   0  0  0  0  0  0  0  0  0  0  0  0
   -5.9583   -0.5542    0.0000 C   0  0  0  0  0  0  0  0  0  0  0  0
   -1.7208    4.2042    0.0000 C   0  0  0  0  0  0  0  0  0  0  0  0
   -1.7208    5.0292    0.0000 C   0  0  0  0  0  0  0  0  0  0  0  0
  2  1  2  0  0  0  0
  3  1  1  0  0  0  0
  4  1  1  0  0  0  0
  5  2  1  0  0  0  0
  6 10  1  0  0  0  0
  7  3  1  0  0  0  0
  8  5  1  0  0  0  0
  9  4  1  0  0  0  0
  9  7  2  0  0  0  0
 10  8  1  0  0  0  0
 11 17  1  0  0  0  0
 12 11  3  0  0  0  0
 13  6  1  0  0  0  0
 14  6  2  0  0  0  0
 15  5  2  0  0  0  0
 16  7  1  0  0  0  0
 17  3  1  0  0  0  0
 18  8  2  0  0  0  0
 19  9  1  0  0  0  0
 20 16  1  0  0  0  0
 21 10  2  0  0  0  0
 21 26  1  0  0  0  0
 22 19  2  0  0  0  0
 23 16  2  0  0  0  0
 23 22  1  0  0  0  0
 24 20  1  0  0  0  0
 25 18  1  0  0  0  0
 26 25  2  0  0  0  0
M  END
> <CdId>
2696

> <Mol Weight>
367.379

> <Formula>
C18H13N3O4S

> <Click_ID>
CLK035_F02 __ __ 

$$$$
