CLK046F11
 OpenBabel03191401532D

 25 26  0  0  0  0  0  0  0  0999 V2000
    1.7417   -1.7625    0.0000 S    0  0  0  0  0  0  0  0  0  0  0  0
   -1.1167   -0.1125    0.0000 C    0  0  0  0  0  0  0  0  0  0  0  0
   -1.1167    0.7125    0.0000 N    0  0  0  0  0  0  0  0  0  0  0  0
    1.0250   -1.3500    0.0000 C    0  0  0  0  0  0  0  0  0  0  0  0
    3.1708   -3.4125    0.0000 C    0  0  0  0  0  0  0  0  0  0  0  0
    3.8833   -3.8250    0.0000 C    0  0  0  0  0  0  0  0  0  0  0  0
    2.1542   -1.0500    0.0000 O    0  0  0  0  0  0  0  0  0  0  0  0
    1.3292   -2.4792    0.0000 O    0  0  0  0  0  0  0  0  0  0  0  0
   -0.4042   -0.5250    0.0000 C    0  0  0  0  0  0  0  0  0  0  0  0
    2.4542   -2.1750    0.0000 N    0  0  0  0  0  0  0  0  0  0  0  0
   -1.8292    1.1250    0.0000 C    0  0  0  0  0  0  0  0  0  0  0  0
   -1.8292   -0.5250    0.0000 O    0  0  0  0  0  0  0  0  0  0  0  0
    0.3125   -1.7625    0.0000 C    0  0  0  0  0  0  0  0  0  0  0  0
    1.0250   -0.5250    0.0000 C    0  0  0  0  0  0  0  0  0  0  0  0
   -0.4042   -1.3500    0.0000 C    0  0  0  0  0  0  0  0  0  0  0  0
    0.3125   -0.1125    0.0000 C    0  0  0  0  0  0  0  0  0  0  0  0
   -1.8292    1.9500    0.0000 C    0  0  0  0  0  0  0  0  0  0  0  0
   -1.8292    3.6000    0.0000 C    0  0  0  0  0  0  0  0  0  0  0  0
    2.4542   -3.0000    0.0000 C    0  0  0  0  0  0  0  0  0  0  0  0
   -1.8292    4.4208    0.0000 Br   0  0  0  0  0  0  0  0  0  0  0  0
   -2.5458    2.3625    0.0000 C    0  0  0  0  0  0  0  0  0  0  0  0
   -1.1167    2.3625    0.0000 C    0  0  0  0  0  0  0  0  0  0  0  0
   -1.1167    3.1875    0.0000 C    0  0  0  0  0  0  0  0  0  0  0  0
   -2.5458    3.1875    0.0000 C    0  0  0  0  0  0  0  0  0  0  0  0
   -0.4042    1.1250    0.0000 C    0  0  0  0  0  0  0  0  0  0  0  0
  2  9  1  0  0  0  0
  3  2  1  0  0  0  0
  4  1  1  0  0  0  0
  5 19  1  0  0  0  0
  6  5  3  0  0  0  0
  7  1  2  0  0  0  0
  8  1  2  0  0  0  0
  9 16  2  0  0  0  0
 10  1  1  0  0  0  0
 11  3  1  0  0  0  0
 12  2  2  0  0  0  0
 13  4  1  0  0  0  0
 14  4  2  0  0  0  0
 15 13  2  0  0  0  0
 15  9  1  0  0  0  0
 16 14  1  0  0  0  0
 17 11  1  0  0  0  0
 18 24  2  0  0  0  0
 18 23  1  0  0  0  0
 19 10  1  0  0  0  0
 20 18  1  0  0  0  0
 21 17  2  0  0  0  0
 22 17  1  0  0  0  0
 23 22  2  0  0  0  0
 24 21  1  0  0  0  0
 25  3  1  0  0  0  0
M  END
> <CdId>
3566

> <Mol Weight>
421.308

> <Formula>
C18H17BrN2O3S

> <Click_ID>
CLK046F11 __ __ 

$$$$
