CLK041C05
 OpenBabel03191401532D

 17 17  0  0  0  0  0  0  0  0999 V2000
   -0.5500   -2.8875    0.0000 N   0  3  0  0  0  0  0  0  0  0  0  0
   -0.5500   -2.0625    0.0000 C   0  0  0  0  0  0  0  0  0  0  0  0
    1.5958    3.3000    0.0000 C   0  0  0  0  0  0  0  0  0  0  0  0
    2.3083    3.7125    0.0000 C   0  0  0  0  0  0  0  0  0  0  0  0
   -1.2625   -3.3000    0.0000 O   0  5  0  0  0  0  0  0  0  0  0  0
    0.1667    1.6500    0.0000 C   0  0  0  0  0  0  0  0  0  0  0  0
    0.1667   -3.3000    0.0000 O   0  0  0  0  0  0  0  0  0  0  0  0
   -0.5500    0.4125    0.0000 S   0  0  0  0  0  0  0  0  0  0  0  0
   -0.5500    2.0625    0.0000 O   0  0  0  0  0  0  0  0  0  0  0  0
    0.1667   -1.6500    0.0000 C   0  0  0  0  0  0  0  0  0  0  0  0
   -1.2625   -1.6500    0.0000 C   0  0  0  0  0  0  0  0  0  0  0  0
    0.8792    2.0625    0.0000 N   0  0  0  0  0  0  0  0  0  0  0  0
    0.1667    0.8250    0.0000 C   0  0  0  0  0  0  0  0  0  0  0  0
   -0.5500   -0.4125    0.0000 C   0  0  0  0  0  0  0  0  0  0  0  0
   -1.2625   -0.8250    0.0000 C   0  0  0  0  0  0  0  0  0  0  0  0
    0.1667   -0.8250    0.0000 C   0  0  0  0  0  0  0  0  0  0  0  0
    0.8792    2.8917    0.0000 C   0  0  0  0  0  0  0  0  0  0  0  0
  2  1  1  0  0  0  0
  3 17  1  0  0  0  0
  4  3  3  0  0  0  0
  5  1  1  0  0  0  0
  6 13  1  0  0  0  0
  7  1  2  0  0  0  0
  8 14  1  0  0  0  0
  9  6  2  0  0  0  0
 10  2  1  0  0  0  0
 11  2  2  0  0  0  0
 12  6  1  0  0  0  0
 13  8  1  0  0  0  0
 14 15  2  0  0  0  0
 14 16  1  0  0  0  0
 15 11  1  0  0  0  0
 16 10  2  0  0  0  0
 17 12  1  0  0  0  0
M  END
> <CdId>
3115

> <Mol Weight>
250.274

> <Formula>
C11H10N2O3S

> <Click_ID>
CLK041C05 __ __ 

$$$$
