CLK020_A05
 OpenBabel03191401532D

 23 25  0  0  0  0  0  0  0  0999 V2000
    2.2034    1.7681    0.0000 C    0  0  3  0  0  0  0  0  0  0  0  0
    2.8768    1.2872    0.0000 C    0  0  0  0  0  0  0  0  0  0  0  0
    3.5364    1.7681    0.0000 N    0  0  0  0  0  0  0  0  0  0  0  0
    2.4645    2.5515    0.0000 C    0  0  0  0  0  0  0  0  0  0  0  0
    3.2890    2.5515    0.0000 C    0  0  0  0  0  0  0  0  0  0  0  0
    1.4567    2.1026    0.0000 C    0  0  0  0  0  0  0  0  0  0  0  0
    0.0825    1.7132    0.0000 C    0  0  0  0  0  0  0  0  0  0  0  0
   -0.5497    1.1772    0.0000 S    0  0  0  0  0  0  0  0  0  0  0  0
    0.8841    1.5070    0.0000 C    0  0  0  0  0  0  0  0  0  0  0  0
   -1.2506    1.6170    0.0000 C    0  0  0  0  0  0  0  0  0  0  0  0
   -0.2290    2.4736    0.0000 C    0  0  0  0  0  0  0  0  0  0  0  0
   -1.0535    2.4140    0.0000 C    0  0  0  0  0  0  0  0  0  0  0  0
    4.8282    2.1667    0.0000 C    0  0  0  0  0  0  0  0  0  0  0  0
    5.3367    2.8126    0.0000 C    0  0  0  0  0  0  0  0  0  0  0  0
    2.8768    0.4626    0.0000 O    0  0  0  0  0  0  0  0  0  0  0  0
    4.3288    1.5117    0.0000 C    0  0  0  0  0  0  0  0  0  0  0  0
    1.7911    1.0535    0.0000 O    0  0  0  0  0  0  0  0  0  0  0  0
    1.0353    0.9573    0.0000 O    0  0  0  0  0  0  0  0  0  0  0  0
   -2.0155    1.3055    0.0000 Cl   0  0  0  0  0  0  0  0  0  0  0  0
    2.0522    3.2661    0.0000 C    0  0  0  0  0  0  0  0  0  0  0  0
    3.7013    3.2661    0.0000 C    0  0  0  0  0  0  0  0  0  0  0  0
    2.4645    3.9807    0.0000 C    0  0  0  0  0  0  0  0  0  0  0  0
    3.2890    3.9807    0.0000 C    0  0  0  0  0  0  0  0  0  0  0  0
  2  1  1  0  0  0  0
  3  2  1  0  0  0  0
  4  1  1  0  0  0  0
  5  4  2  0  0  0  0
  5  3  1  0  0  0  0
  6  1  1  0  0  0  0
  7  9  1  0  0  0  0
  8  7  1  0  0  0  0
  9  6  1  0  0  0  0
 10  8  1  0  0  0  0
 10 12  2  0  0  0  0
 11  7  2  0  0  0  0
 12 11  1  0  0  0  0
 13 16  1  0  0  0  0
 14 13  3  0  0  0  0
 15  2  2  0  0  0  0
 16  3  1  0  0  0  0
 17  1  1  0  0  0  0
 18  9  2  0  0  0  0
 19 10  1  0  0  0  0
 20  4  1  0  0  0  0
 21  5  1  0  0  0  0
 22 20  2  0  0  0  0
 23 22  1  0  0  0  0
 23 21  2  0  0  0  0
M  END
> <CdId>
1480

> <Mol Weight>
345.8

> <Formula>
C17H12ClNO3S

> <Click_ID>
CLK020_A05 __ __ 

$$$$
