CLK026_B02
 OpenBabel03191401532D

 24 25  0  0  0  0  0  0  0  0999 V2000
    1.9105    0.4856    0.0000 C    0  0  0  0  0  0  0  0  0  0  0  0
    1.2087    0.8968    0.0000 C    0  0  0  0  0  0  0  0  0  0  0  0
    1.9247   -0.3367    0.0000 C    0  0  0  0  0  0  0  0  0  0  0  0
   -1.7794   -0.7586    0.0000 C    0  0  0  0  0  0  0  0  0  0  0  0
    3.3390    2.1338    0.0000 C    0  0  0  0  0  0  0  0  0  0  0  0
    3.3390    2.9561    0.0000 C    0  0  0  0  0  0  0  0  0  0  0  0
   -0.9960   -0.3048    0.0000 N    0  0  0  0  0  0  0  0  0  0  0  0
   -1.7794   -1.6765    0.0000 C    0  0  0  0  0  0  0  0  0  0  0  0
    0.4927    0.4856    0.0000 C    0  0  0  0  0  0  0  0  0  0  0  0
    1.2122   -0.7479    0.0000 C    0  0  0  0  0  0  0  0  0  0  0  0
    0.4998   -0.3367    0.0000 C    0  0  0  0  0  0  0  0  0  0  0  0
   -2.5733   -0.3048    0.0000 C    0  0  0  0  0  0  0  0  0  0  0  0
   -3.3567   -0.7727    0.0000 C    0  0  0  0  0  0  0  0  0  0  0  0
   -2.5733   -2.1303    0.0000 C    0  0  0  0  0  0  0  0  0  0  0  0
   -0.2127   -0.7586    0.0000 C    0  0  0  0  0  0  0  0  0  0  0  0
    1.1980    1.7226    0.0000 Br   0  0  0  0  0  0  0  0  0  0  0  0
    2.6265    0.8968    0.0000 O    0  0  0  0  0  0  0  0  0  0  0  0
    2.6407   -0.7479    0.0000 O    0  0  0  0  0  0  0  0  0  0  0  0
   -3.3567   -1.6765    0.0000 C    0  0  0  0  0  0  0  0  0  0  0  0
   -2.5733   -2.9526    0.0000 Cl   0  0  0  0  0  0  0  0  0  0  0  0
    2.6265    1.7226    0.0000 C    0  0  0  0  0  0  0  0  0  0  0  0
   -2.5733    0.5175    0.0000 C    0  0  0  0  0  0  0  0  0  0  0  0
    2.6407   -1.5667    0.0000 C    0  0  0  0  0  0  0  0  0  0  0  0
    3.3532   -1.9814    0.0000 C    0  0  0  0  0  0  0  0  0  0  0  0
  2  1  2  0  0  0  0
  3  1  1  0  0  0  0
  4  7  1  0  0  0  0
  5 21  1  0  0  0  0
  6  5  3  0  0  0  0
  7 15  1  0  0  0  0
  8  4  1  0  0  0  0
  9  2  1  0  0  0  0
  9 11  2  0  0  0  0
 10  3  2  0  0  0  0
 11 10  1  0  0  0  0
 12  4  2  0  0  0  0
 13 12  1  0  0  0  0
 14  8  2  0  0  0  0
 15 11  1  0  0  0  0
 16  2  1  0  0  0  0
 17  1  1  0  0  0  0
 18  3  1  0  0  0  0
 19 13  2  0  0  0  0
 19 14  1  0  0  0  0
 20 14  1  0  0  0  0
 21 17  1  0  0  0  0
 22 12  1  0  0  0  0
 23 18  1  0  0  0  0
 24 23  1  0  0  0  0
M  END
> <CdId>
1947

> <Mol Weight>
408.717

> <Formula>
C19H19BrClNO2

> <Click_ID>
CLK026_B02 __ __ 

$$$$
