CLK046A03
 OpenBabel03191401532D

 22 23  0  0  0  0  0  0  0  0999 V2000
   -0.4875    3.5458    0.0000 C   0  0  0  0  0  0  0  0  0  0  0  0
   -1.2042    3.9583    0.0000 C   0  0  0  0  0  0  0  0  0  0  0  0
    0.2250    0.6583    0.0000 C   0  0  0  0  0  0  0  0  0  0  0  0
    0.9417    1.0708    0.0000 N   0  0  0  0  0  0  0  0  0  0  0  0
   -0.4875   -3.8792    0.0000 C   0  0  0  0  0  0  0  0  0  0  0  0
   -0.4875   -3.0542    0.0000 C   0  0  0  0  0  0  0  0  0  0  0  0
    0.9417    1.8958    0.0000 C   0  0  0  0  0  0  0  0  0  0  0  0
   -0.4875    1.0708    0.0000 O   0  0  0  0  0  0  0  0  0  0  0  0
    0.2250   -4.2917    0.0000 O   0  0  0  0  0  0  0  0  0  0  0  0
    0.2250   -2.6417    0.0000 C   0  0  0  0  0  0  0  0  0  0  0  0
   -1.2042   -2.6417    0.0000 C   0  0  0  0  0  0  0  0  0  0  0  0
    0.2250    3.1333    0.0000 C   0  0  0  0  0  0  0  0  0  0  0  0
   -0.4875   -0.5792    0.0000 O   0  0  0  0  0  0  0  0  0  0  0  0
    0.2250   -0.1667    0.0000 C   0  0  0  0  0  0  0  0  0  0  0  0
    0.2250    2.3083    0.0000 C   0  0  0  0  0  0  0  0  0  0  0  0
   -0.4875   -1.4042    0.0000 C   0  0  0  0  0  0  0  0  0  0  0  0
   -1.2042   -1.8167    0.0000 C   0  0  0  0  0  0  0  0  0  0  0  0
    0.2250   -1.8167    0.0000 C   0  0  0  0  0  0  0  0  0  0  0  0
    1.6542    3.1333    0.0000 C   0  0  0  0  0  0  0  0  0  0  0  0
    1.6542    2.3083    0.0000 C   0  0  0  0  0  0  0  0  0  0  0  0
   -1.2042   -4.2917    0.0000 C   0  0  0  0  0  0  0  0  0  0  0  0
    0.9417    3.5458    0.0000 C   0  0  0  0  0  0  0  0  0  0  0  0
  2  1  3  0  0  0  0
  3  4  1  0  0  0  0
  4  7  1  0  0  0  0
  5  6  1  0  0  0  0
  6 11  2  0  0  0  0
  7 15  2  0  0  0  0
  8  3  2  0  0  0  0
  9  5  2  0  0  0  0
 10 18  2  0  0  0  0
 10  6  1  0  0  0  0
 11 17  1  0  0  0  0
 12  1  1  0  0  0  0
 13 14  1  0  0  0  0
 14  3  1  0  0  0  0
 15 12  1  0  0  0  0
 16 13  1  0  0  0  0
 17 16  2  0  0  0  0
 18 16  1  0  0  0  0
 19 22  1  0  0  0  0
 19 20  2  0  0  0  0
 20  7  1  0  0  0  0
 21  5  1  0  0  0  0
 22 12  2  0  0  0  0
M  END
> <CdId>
3497

> <Mol Weight>
293.3166

> <Formula>
C18H15NO3

> <Click_ID>
CLK046A03 __ __ 

$$$$
