CLK026_H06
 OpenBabel03191401532D

 24 25  0  0  0  0  0  0  0  0999 V2000
    1.8630   -0.4125    0.0000 N   0  0  0  0  0  0  0  0  0  0  0  0
    1.5262    0.3265    0.0000 C   0  0  0  0  0  0  0  0  0  0  0  0
    0.5500   -0.5878    0.0000 C   0  0  0  0  0  0  0  0  0  0  0  0
    1.2615   -0.9797    0.0000 C   0  0  0  0  0  0  0  0  0  0  0  0
    0.7081    0.2200    0.0000 S   0  0  0  0  0  0  0  0  0  0  0  0
   -0.1547   -1.0141    0.0000 C   0  0  0  0  0  0  0  0  0  0  0  0
   -0.8834   -0.6050    0.0000 C   0  0  0  0  0  0  0  0  0  0  0  0
   -2.3065   -0.6187    0.0000 C   0  0  0  0  0  0  0  0  0  0  0  0
   -1.6052   -1.0174    0.0000 C   0  0  0  0  0  0  0  0  0  0  0  0
   -2.3168    0.2200    0.0000 C   0  0  0  0  0  0  0  0  0  0  0  0
    3.2139    0.0722    0.0000 C   0  0  0  0  0  0  0  0  0  0  0  0
   -0.8903    0.2200    0.0000 C   0  0  0  0  0  0  0  0  0  0  0  0
   -1.6052    0.6325    0.0000 C   0  0  0  0  0  0  0  0  0  0  0  0
    3.7536    0.6978    0.0000 C   0  0  0  0  0  0  0  0  0  0  0  0
    1.9387    1.0484    0.0000 O   0  0  0  0  0  0  0  0  0  0  0  0
    1.3715   -1.8081    0.0000 O   0  0  0  0  0  0  0  0  0  0  0  0
    2.6777   -0.5534    0.0000 C   0  0  0  0  0  0  0  0  0  0  0  0
   -3.0043   -1.0415    0.0000 C   0  0  0  0  0  0  0  0  0  0  0  0
   -3.0352    0.6325    0.0000 O   0  0  0  0  0  0  0  0  0  0  0  0
   -0.1822    0.6325    0.0000 C   0  0  0  0  0  0  0  0  0  0  0  0
   -2.9802   -1.8700    0.0000 C   0  0  0  0  0  0  0  0  0  0  0  0
   -3.7227   -0.6565    0.0000 C   0  0  0  0  0  0  0  0  0  0  0  0
   -3.0352    1.4643    0.0000 C   0  0  0  0  0  0  0  0  0  0  0  0
   -3.7571    1.8733    0.0000 C   0  0  0  0  0  0  0  0  0  0  0  0
  2  1  1  0  0  0  0
  3  4  1  0  0  0  0
  4  1  1  0  0  0  0
  5  2  1  0  0  0  0
  5  3  1  0  0  0  0
  6  3  2  0  0  0  0
  7  6  1  0  0  0  0
  8  9  1  0  0  0  0
  9  7  2  0  0  0  0
 10 13  1  0  0  0  0
 10  8  2  0  0  0  0
 11 17  1  0  0  0  0
 12  7  1  0  0  0  0
 13 12  2  0  0  0  0
 14 11  3  0  0  0  0
 15  2  2  0  0  0  0
 16  4  2  0  0  0  0
 17  1  1  0  0  0  0
 18  8  1  0  0  0  0
 19 10  1  0  0  0  0
 20 12  1  0  0  0  0
 21 18  1  0  0  0  0
 22 18  1  0  0  0  0
 23 19  1  0  0  0  0
 24 23  1  0  0  0  0
M  END
> <CdId>
2011

> <Mol Weight>
343.44

> <Formula>
C19H21NO3S

> <Click_ID>
CLK026_H06 __ __ 

$$$$
