CLK020_H02
 OpenBabel03191401532D

 15 15  0  0  0  0  0  0  0  0999 V2000
    3.7792    1.2368    0.0000 C   0  0  0  0  0  0  0  0  0  0  0  0
    1.7636    0.6550    0.0000 C   0  0  0  0  0  0  0  0  0  0  0  0
    1.1818    0.0778    0.0000 C   0  0  0  0  0  0  0  0  0  0  0  0
    4.4938    0.8245    0.0000 N   0  0  0  0  0  0  0  0  0  0  0  0
    3.0645    0.8245    0.0000 O   0  0  0  0  0  0  0  0  0  0  0  0
    2.3408    1.2368    0.0000 C   0  0  0  0  0  0  0  0  0  0  0  0
    3.7792    2.0614    0.0000 O   0  0  0  0  0  0  0  0  0  0  0  0
    5.1992    1.2368    0.0000 C   0  0  0  0  0  0  0  0  0  0  0  0
    2.8218    1.9193    0.0000 C   0  0  0  0  0  0  0  0  0  0  0  0
    1.7178    1.7681    0.0000 C   0  0  0  0  0  0  0  0  0  0  0  0
    5.9138    0.8245    0.0000 C   0  0  0  0  0  0  0  0  0  0  0  0
    5.1992    2.0614    0.0000 C   0  0  0  0  0  0  0  0  0  0  0  0
    5.9138    2.4736    0.0000 C   0  0  0  0  0  0  0  0  0  0  0  0
    6.6284    1.2368    0.0000 C   0  0  0  0  0  0  0  0  0  0  0  0
    6.6284    2.0614    0.0000 C   0  0  0  0  0  0  0  0  0  0  0  0
  2  6  1  0  0  0  0
  3  2  3  0  0  0  0
  4  1  1  0  0  0  0
  5  1  1  0  0  0  0
  6  5  1  0  0  0  0
  7  1  2  0  0  0  0
  8  4  1  0  0  0  0
  9  6  1  0  0  0  0
 10  6  1  0  0  0  0
 11  8  2  0  0  0  0
 12  8  1  0  0  0  0
 13 12  2  0  0  0  0
 14 11  1  0  0  0  0
 14 15  2  0  0  0  0
 15 13  1  0  0  0  0
M  END
> <CdId>
1547

> <Mol Weight>
203.2371

> <Formula>
C12H13NO2

> <Click_ID>
CLK020_H02 __ __ 

$$$$
