CLK025_F03
 OpenBabel03191401532D

 33 35  0  0  0  0  0  0  0  0999 V2000
    2.7030   -0.5846    0.0000 C   0  0  0  0  0  0  0  0  0  0  0  0
    3.4389   -0.9560    0.0000 C   0  0  0  0  0  0  0  0  0  0  0  0
    4.0166   -0.3714    0.0000 N   0  0  0  0  0  0  0  0  0  0  0  0
    2.8336    0.2304    0.0000 C   0  0  0  0  0  0  0  0  0  0  0  0
    3.6383    0.3645    0.0000 C   0  0  0  0  0  0  0  0  0  0  0  0
    1.9670   -0.9698    0.0000 N   0  0  0  0  0  0  0  0  0  0  0  0
    0.5433   -0.9113    0.0000 C   0  0  0  0  0  0  0  0  0  0  0  0
   -3.7346    0.8391    0.0000 C   0  0  0  0  0  0  0  0  0  0  0  0
    1.2655   -0.5227    0.0000 N   0  0  0  0  0  0  0  0  0  0  0  0
    5.3612    0.1273    0.0000 C   0  0  0  0  0  0  0  0  0  0  0  0
    5.8770    0.7634    0.0000 C   0  0  0  0  0  0  0  0  0  0  0  0
    3.5661   -1.7710    0.0000 O   0  0  0  0  0  0  0  0  0  0  0  0
   -3.0193    0.4264    0.0000 C   0  0  0  0  0  0  0  0  0  0  0  0
   -4.4568    1.2518    0.0000 C   0  0  0  0  0  0  0  0  0  0  0  0
    4.8350   -0.5055    0.0000 C   0  0  0  0  0  0  0  0  0  0  0  0
    0.5124   -1.7332    0.0000 O   0  0  0  0  0  0  0  0  0  0  0  0
   -5.1652    0.8391    0.0000 C   0  0  0  0  0  0  0  0  0  0  0  0
   -2.2868    0.8253    0.0000 C   0  0  0  0  0  0  0  0  0  0  0  0
   -3.0296   -0.3989    0.0000 C   0  0  0  0  0  0  0  0  0  0  0  0
   -0.1616   -0.4746    0.0000 C   0  0  0  0  0  0  0  0  0  0  0  0
   -0.8941   -0.8597    0.0000 O   0  0  0  0  0  0  0  0  0  0  0  0
   -1.5956   -0.4230    0.0000 C   0  0  0  0  0  0  0  0  0  0  0  0
    2.3144    0.8666    0.0000 C   0  0  0  0  0  0  0  0  0  0  0  0
   -1.5819    0.4023    0.0000 C   0  0  0  0  0  0  0  0  0  0  0  0
   -2.3178   -0.8219    0.0000 C   0  0  0  0  0  0  0  0  0  0  0  0
    3.9409    1.1314    0.0000 C   0  0  0  0  0  0  0  0  0  0  0  0
   -3.3219    1.5543    0.0000 C   0  0  0  0  0  0  0  0  0  0  0  0
   -4.1473    0.1273    0.0000 C   0  0  0  0  0  0  0  0  0  0  0  0
   -5.8770    0.4264    0.0000 C   0  0  0  0  0  0  0  0  0  0  0  0
   -4.7560    0.1169    0.0000 C   0  0  0  0  0  0  0  0  0  0  0  0
   -5.5675    1.5510    0.0000 C   0  0  0  0  0  0  0  0  0  0  0  0
    2.6101    1.6369    0.0000 C   0  0  0  0  0  0  0  0  0  0  0  0
    3.4251    1.7745    0.0000 C   0  0  0  0  0  0  0  0  0  0  0  0
  2  1  1  0  0  0  0
  3  2  1  0  0  0  0
  4  1  1  0  0  0  0
  5  4  2  0  0  0  0
  5  3  1  0  0  0  0
  6  1  2  0  0  0  0
  7  9  1  0  0  0  0
  8 13  1  0  0  0  0
  9  6  1  0  0  0  0
 10 15  1  0  0  0  0
 11 10  3  0  0  0  0
 12  2  2  0  0  0  0
 13 19  2  0  0  0  0
 13 18  1  0  0  0  0
 14  8  1  0  0  0  0
 15  3  1  0  0  0  0
 16  7  2  0  0  0  0
 17 14  1  0  0  0  0
 18 24  2  0  0  0  0
 19 25  1  0  0  0  0
 20  7  1  0  0  0  0
 21 20  1  0  0  0  0
 22 21  1  0  0  0  0
 23  4  1  0  0  0  0
 24 22  1  0  0  0  0
 25 22  2  0  0  0  0
 26  5  1  0  0  0  0
 26 33  2  0  0  0  0
 27  8  1  0  0  0  0
 28  8  1  0  0  0  0
 29 17  1  0  0  0  0
 30 17  1  0  0  0  0
 31 17  1  0  0  0  0
 32 23  2  0  0  0  0
 33 32  1  0  0  0  0
M  END
> <CdId>
1908

> <Mol Weight>
445.5533

> <Formula>
C27H31N3O3

> <Click_ID>
CLK025_F03 __ __ 

$$$$
