CLK007_E02
 OpenBabel03191401532D

 33 37  0  0  0  0  0  0  0  0999 V2000
    6.2492  -19.1957    0.0000 C   0  0  3  0  0  0  0  0  0  0  0  0
    5.8426  -19.9094    0.0000 C   0  0  0  0  0  0  0  0  0  0  0  0
    4.5977  -19.1957    0.0000 N   0  0  0  0  0  0  0  0  0  0  0  0
    5.0168  -19.9135    0.0000 C   0  0  0  0  0  0  0  0  0  0  0  0
    5.8384  -18.4861    0.0000 C   0  0  0  0  0  0  0  0  0  0  0  0
    6.9380  -18.7393    0.0000 C   0  0  0  0  0  0  0  0  0  0  0  0
    5.0126  -18.4778    0.0000 C   0  0  0  0  0  0  0  0  0  0  0  0
    7.5936  -19.2537    0.0000 N   0  0  0  0  0  0  0  0  0  0  0  0
    6.4733  -19.9882    0.0000 C   0  0  0  0  0  0  0  0  0  0  0  0
    7.2949  -20.0297    0.0000 C   0  0  0  0  0  0  0  0  0  0  0  0
    3.7719  -19.1957    0.0000 C   0  0  0  0  0  0  0  0  0  0  0  0
    5.6516  -20.7102    0.0000 C   0  0  0  0  0  0  0  0  0  0  0  0
    6.2450  -17.7683    0.0000 C   0  0  0  0  0  0  0  0  0  0  0  0
    5.4607  -21.5153    0.0000 N   0  0  0  0  0  0  0  0  0  0  0  0
    8.9754  -19.6023    0.0000 C   0  0  0  0  0  0  0  0  0  0  0  0
    9.5563  -20.1874    0.0000 C   0  0  0  0  0  0  0  0  0  0  0  0
    7.2782  -17.9799    0.0000 O   0  0  0  0  0  0  0  0  0  0  0  0
    4.5271  -20.5775    0.0000 N   0  0  0  0  0  0  0  0  0  0  0  0
    3.3694  -19.9094    0.0000 C   0  0  0  0  0  0  0  0  0  0  0  0
    8.3821  -19.0297    0.0000 C   0  0  0  0  0  0  0  0  0  0  0  0
    6.9878  -17.3948    0.0000 O   0  0  0  0  0  0  0  0  0  0  0  0
    4.5935  -17.7765    0.0000 C   0  0  0  0  0  0  0  0  0  0  0  0
    3.3860  -20.7351    0.0000 F   0  0  0  0  0  0  0  0  0  0  0  0
    6.0376  -20.6853    0.0000 C   0  0  0  0  0  0  0  0  0  0  0  0
    7.6849  -20.7600    0.0000 C   0  0  0  0  0  0  0  0  0  0  0  0
    3.3736  -18.4737    0.0000 C   0  0  0  0  0  0  0  0  0  0  0  0
    5.8301  -17.0587    0.0000 C   0  0  0  0  0  0  0  0  0  0  0  0
    5.0043  -17.0587    0.0000 C   0  0  0  0  0  0  0  0  0  0  0  0
    2.5395  -19.9052    0.0000 C   0  0  0  0  0  0  0  0  0  0  0  0
    6.4152  -21.4198    0.0000 C   0  0  0  0  0  0  0  0  0  0  0  0
    7.2451  -21.4571    0.0000 C   0  0  0  0  0  0  0  0  0  0  0  0
    2.5478  -18.4737    0.0000 C   0  0  0  0  0  0  0  0  0  0  0  0
    2.1245  -19.1874    0.0000 C   0  0  0  0  0  0  0  0  0  0  0  0
  2  1  1  0  0  0  0
  3  7  1  0  0  0  0
  3  4  1  0  0  0  0
  4  2  2  0  0  0  0
  5  1  1  0  0  0  0
  6  1  1  0  0  0  0
  7  5  2  0  0  0  0
  8  6  1  0  0  0  0
  8 10  1  0  0  0  0
  9  1  1  0  0  0  0
 10  9  2  0  0  0  0
 11  3  1  0  0  0  0
 12  2  1  0  0  0  0
 13  5  1  0  0  0  0
 14 12  3  0  0  0  0
 15 20  1  0  0  0  0
 16 15  3  0  0  0  0
 17  6  2  0  0  0  0
 18  4  1  0  0  0  0
 19 11  1  0  0  0  0
 20  8  1  0  0  0  0
 21 13  2  0  0  0  0
 22  7  1  0  0  0  0
 23 19  1  0  0  0  0
 24  9  1  0  0  0  0
 25 10  1  0  0  0  0
 26 11  2  0  0  0  0
 27 13  1  0  0  0  0
 28 27  1  0  0  0  0
 28 22  1  0  0  0  0
 29 19  2  0  0  0  0
 30 24  2  0  0  0  0
 31 30  1  0  0  0  0
 31 25  2  0  0  0  0
 32 26  1  0  0  0  0
 33 32  2  0  0  0  0
 33 29  1  0  0  0  0
M  END
> <CdId>
521

> <Mol Weight>
438.4531

> <Formula>
C26H19FN4O2

> <Click_ID>
CLK007_E02 __ __ 

$$$$
