CLK024_B03
 OpenBabel03191401532D

 36 39  0  0  0  0  0  0  0  0999 V2000
    1.0872    1.7084    0.0000 N   0  0  0  0  0  0  0  0  0  0  0  0
    1.8120    2.1330    0.0000 C   0  0  0  0  0  0  0  0  0  0  0  0
    0.3727    2.9648    0.0000 C   0  0  0  0  0  0  0  0  0  0  0  0
    0.3727    2.1330    0.0000 C   0  0  3  0  0  0  0  0  0  0  0  0
    1.2632    0.8836    0.0000 C   0  0  0  0  0  0  0  0  0  0  0  0
    1.8085    2.9648    0.0000 N   0  0  0  0  0  0  0  0  0  0  0  0
    2.1019    0.7938    0.0000 C   0  0  0  0  0  0  0  0  0  0  0  0
    1.0872    3.3720    0.0000 C   0  0  0  0  0  0  0  0  0  0  0  0
    2.4401    1.5704    0.0000 S   0  0  0  0  0  0  0  0  0  0  0  0
   -0.3555    1.7084    0.0000 C   0  0  0  0  0  0  0  0  0  0  0  0
   -0.3555    3.3720    0.0000 C   0  0  0  0  0  0  0  0  0  0  0  0
    2.5022    0.0725    0.0000 C   0  0  0  0  0  0  0  0  0  0  0  0
    2.0398   -3.4859    0.0000 C   0  0  0  0  0  0  0  0  0  0  0  0
    2.4401   -4.2107    0.0000 C   0  0  0  0  0  0  0  0  0  0  0  0
    0.7006    0.2692    0.0000 O   0  0  0  0  0  0  0  0  0  0  0  0
   -0.3313    0.8973    0.0000 C   0  0  0  0  0  0  0  0  0  0  0  0
   -0.3555    4.2003    0.0000 O   0  0  0  0  0  0  0  0  0  0  0  0
    2.0743   -0.6316    0.0000 C   0  0  0  0  0  0  0  0  0  0  0  0
   -1.0665    2.9648    0.0000 O   0  0  0  0  0  0  0  0  0  0  0  0
    1.0872    4.2107    0.0000 C   0  0  0  0  0  0  0  0  0  0  0  0
    1.2321   -2.0466    0.0000 C   0  0  0  0  0  0  0  0  0  0  0  0
    2.4850   -1.3529    0.0000 C   0  0  0  0  0  0  0  0  0  0  0  0
    1.2494   -0.6212    0.0000 C   0  0  0  0  0  0  0  0  0  0  0  0
    0.3831    0.4935    0.0000 O   0  0  0  0  0  0  0  0  0  0  0  0
   -1.0665    2.1191    0.0000 C   0  0  0  0  0  0  0  0  0  0  0  0
    0.8318   -1.3288    0.0000 C   0  0  0  0  0  0  0  0  0  0  0  0
    2.0640   -2.0605    0.0000 C   0  0  0  0  0  0  0  0  0  0  0  0
    1.2114   -3.4721    0.0000 C   0  0  0  0  0  0  0  0  0  0  0  0
    0.8111   -2.7542    0.0000 O   0  0  0  0  0  0  0  0  0  0  0  0
   -1.0665    0.4935    0.0000 C   0  0  0  0  0  0  0  0  0  0  0  0
   -1.7913    3.3686    0.0000 C   0  0  0  0  0  0  0  0  0  0  0  0
    0.3727   -0.3313    0.0000 C   0  0  0  0  0  0  0  0  0  0  0  0
   -1.7706    1.7084    0.0000 C   0  0  0  0  0  0  0  0  0  0  0  0
   -2.5057    2.9475    0.0000 C   0  0  0  0  0  0  0  0  0  0  0  0
   -0.3452   -0.7317    0.0000 C   0  0  0  0  0  0  0  0  0  0  0  0
   -1.7706    0.8973    0.0000 C   0  0  0  0  0  0  0  0  0  0  0  0
  2  1  1  0  0  0  0
  3  4  1  0  0  0  0
  4  1  1  0  0  0  0
  5  1  1  0  0  0  0
  6  2  2  0  0  0  0
  7  5  1  0  0  0  0
  8  3  2  0  0  0  0
  8  6  1  0  0  0  0
  9  2  1  0  0  0  0
  9  7  1  0  0  0  0
 10  4  1  0  0  0  0
 11  3  1  0  0  0  0
 12  7  2  0  0  0  0
 13 28  1  0  0  0  0
 14 13  3  0  0  0  0
 15  5  2  0  0  0  0
 16 10  2  0  0  0  0
 17 11  2  0  0  0  0
 18 12  1  0  0  0  0
 19 11  1  0  0  0  0
 20  8  1  0  0  0  0
 21 26  2  0  0  0  0
 21 27  1  0  0  0  0
 22 18  1  0  0  0  0
 23 18  2  0  0  0  0
 24 16  1  0  0  0  0
 25 10  1  0  0  0  0
 26 23  1  0  0  0  0
 27 22  2  0  0  0  0
 28 29  1  0  0  0  0
 29 21  1  0  0  0  0
 30 16  1  0  0  0  0
 31 19  1  0  0  0  0
 32 24  1  0  0  0  0
 33 25  2  0  0  0  0
 34 31  1  0  0  0  0
 35 32  1  0  0  0  0
 36 33  1  0  0  0  0
 36 30  2  0  0  0  0
M  END
> <CdId>
1788

> <Mol Weight>
502.581

> <Formula>
C28H26N2O5S

> <Click_ID>
CLK024_B03 __ __ 

$$$$
