CLK042H05
 OpenBabel03191401532D

 34 37  0  0  0  0  0  0  0  0999 V2000
   -0.9458   -0.1542    0.0000 S    0  0  0  0  0  0  0  0  0  0  0  0
   -0.9458    0.6708    0.0000 C    0  0  0  0  0  0  0  0  0  0  0  0
   -0.9458   -0.9792    0.0000 N    0  0  0  0  0  0  0  0  0  0  0  0
   -0.2333    1.0833    0.0000 C    0  0  0  0  0  0  0  0  0  0  0  0
    0.4792    2.3208    0.0000 C    0  0  0  0  0  0  0  0  0  0  0  0
   -0.9458   -2.6292    0.0000 N    0  0  0  0  0  0  0  0  0  0  0  0
   -0.2333    1.9083    0.0000 C    0  0  0  0  0  0  0  0  0  0  0  0
    1.1958    1.9083    0.0000 N    0  0  0  0  0  0  0  0  0  0  0  0
   -1.7708   -0.1542    0.0000 O    0  0  0  0  0  0  0  0  0  0  0  0
   -0.1208   -0.1542    0.0000 O    0  0  0  0  0  0  0  0  0  0  0  0
    2.6250    4.3792    0.0000 C    0  0  0  0  0  0  0  0  0  0  0  0
   -1.6625    1.0833    0.0000 C    0  0  0  0  0  0  0  0  0  0  0  0
   -0.2333   -1.3917    0.0000 C    0  0  0  0  0  0  0  0  0  0  0  0
   -1.6625   -1.3917    0.0000 C    0  0  0  0  0  0  0  0  0  0  0  0
    2.6250    5.2042    0.0000 C    0  0  0  0  0  0  0  0  0  0  0  0
   -0.9458   -3.4542    0.0000 C    0  0  0  0  0  0  0  0  0  0  0  0
   -1.6625   -2.2167    0.0000 C    0  0  0  0  0  0  0  0  0  0  0  0
   -0.2333   -2.2167    0.0000 C    0  0  0  0  0  0  0  0  0  0  0  0
    0.4792    3.1458    0.0000 O    0  0  0  0  0  0  0  0  0  0  0  0
    1.9083    2.3208    0.0000 C    0  0  0  0  0  0  0  0  0  0  0  0
   -0.9458    2.3208    0.0000 C    0  0  0  0  0  0  0  0  0  0  0  0
   -1.6625    1.9083    0.0000 C    0  0  0  0  0  0  0  0  0  0  0  0
   -1.6625   -3.8667    0.0000 C    0  0  0  0  0  0  0  0  0  0  0  0
   -0.2333   -3.8667    0.0000 C    0  0  0  0  0  0  0  0  0  0  0  0
    2.6250    3.5583    0.0000 C    0  0  0  0  0  0  0  0  0  0  0  0
    1.9083    3.1458    0.0000 C    0  0  0  0  0  0  0  0  0  0  0  0
   -2.3750    0.6708    0.0000 Cl   0  0  0  0  0  0  0  0  0  0  0  0
   -0.9458   -5.1042    0.0000 C    0  0  0  0  0  0  0  0  0  0  0  0
   -0.2333   -4.6917    0.0000 C    0  0  0  0  0  0  0  0  0  0  0  0
   -1.6625   -4.6917    0.0000 C    0  0  0  0  0  0  0  0  0  0  0  0
   -0.9458   -5.9292    0.0000 F    0  0  0  0  0  0  0  0  0  0  0  0
    3.3375    2.3208    0.0000 C    0  0  0  0  0  0  0  0  0  0  0  0
    2.6250    1.9083    0.0000 C    0  0  0  0  0  0  0  0  0  0  0  0
    3.3375    3.1458    0.0000 C    0  0  0  0  0  0  0  0  0  0  0  0
  2  1  1  0  0  0  0
  3  1  1  0  0  0  0
  4  2  1  0  0  0  0
  5  7  1  0  0  0  0
  6 17  1  0  0  0  0
  7  4  2  0  0  0  0
  8  5  1  0  0  0  0
  9  1  2  0  0  0  0
 10  1  2  0  0  0  0
 11 25  1  0  0  0  0
 12  2  2  0  0  0  0
 13  3  1  0  0  0  0
 14  3  1  0  0  0  0
 15 11  3  0  0  0  0
 16  6  1  0  0  0  0
 17 14  1  0  0  0  0
 18 13  1  0  0  0  0
 18  6  1  0  0  0  0
 19  5  2  0  0  0  0
 20  8  1  0  0  0  0
 21 22  2  0  0  0  0
 21  7  1  0  0  0  0
 22 12  1  0  0  0  0
 23 16  2  0  0  0  0
 24 16  1  0  0  0  0
 25 26  1  0  0  0  0
 26 20  2  0  0  0  0
 27 12  1  0  0  0  0
 28 30  2  0  0  0  0
 29 24  2  0  0  0  0
 29 28  1  0  0  0  0
 30 23  1  0  0  0  0
 31 28  1  0  0  0  0
 32 33  2  0  0  0  0
 33 20  1  0  0  0  0
 34 25  2  0  0  0  0
 34 32  1  0  0  0  0
M  END
> <CdId>
3200

> <Mol Weight>
497.969

> <Formula>
C25H21ClFN3O3S

> <Click_ID>
CLK042H05 __ __ 

$$$$
