CLK035_G05
 OpenBabel03191401532D

 24 26  0  0  0  0  0  0  0  0999 V2000
   -4.5794    2.5478    0.0000 C    0  0  0  0  0  0  0  0  0  0  0  0
   -3.1556    5.0374    0.0000 N    0  0  0  0  0  0  0  0  0  0  0  0
   -4.6710    1.7318    0.0000 N    0  0  0  0  0  0  0  0  0  0  0  0
   -3.8675    2.9683    0.0000 N    0  0  0  0  0  0  0  0  0  0  0  0
   -5.3163    2.8933    0.0000 S    0  0  0  0  0  0  0  0  0  0  0  0
   -5.4786    1.5695    0.0000 C    0  0  0  0  0  0  0  0  0  0  0  0
   -5.8783    2.2939    0.0000 C    0  0  0  0  0  0  0  0  0  0  0  0
   -2.4812    5.5120    0.0000 C    0  0  0  0  0  0  0  0  0  0  0  0
   -3.8176    5.5120    0.0000 C    0  0  0  0  0  0  0  0  0  0  0  0
   -3.8675    3.7968    0.0000 C    0  0  0  0  0  0  0  0  0  0  0  0
   -3.1556    4.2089    0.0000 C    0  0  0  0  0  0  0  0  0  0  0  0
   -4.2422    0.3497    0.0000 C    0  0  0  0  0  0  0  0  0  0  0  0
   -4.4170   -0.4538    0.0000 C    0  0  0  0  0  0  0  0  0  0  0  0
   -5.9033    0.8701    0.0000 C    0  0  0  0  0  0  0  0  0  0  0  0
   -3.5678    6.2988    0.0000 C    0  0  0  0  0  0  0  0  0  0  0  0
   -2.7435    6.3071    0.0000 C    0  0  0  0  0  0  0  0  0  0  0  0
   -4.6044    5.2705    0.0000 O    0  0  0  0  0  0  0  0  0  0  0  0
   -1.6944    5.2580    0.0000 O    0  0  0  0  0  0  0  0  0  0  0  0
   -4.5919    4.2089    0.0000 O    0  0  0  0  0  0  0  0  0  0  0  0
   -4.0549    1.1573    0.0000 C    0  0  0  0  0  0  0  0  0  0  0  0
   -5.5036    0.1457    0.0000 Cl   0  0  0  0  0  0  0  0  0  0  0  0
   -6.6985    2.3063    0.0000 C    0  0  0  0  0  0  0  0  0  0  0  0
   -7.1231    1.5986    0.0000 C    0  0  0  0  0  0  0  0  0  0  0  0
   -6.7110    0.8743    0.0000 C    0  0  0  0  0  0  0  0  0  0  0  0
  2 11  1  0  0  0  0
  3  1  1  0  0  0  0
  4  1  2  0  0  0  0
  5  1  1  0  0  0  0
  6  3  1  0  0  0  0
  7  5  1  0  0  0  0
  7  6  2  0  0  0  0
  8  2  1  0  0  0  0
  9  2  1  0  0  0  0
 10  4  1  0  0  0  0
 11 10  1  0  0  0  0
 12 20  1  0  0  0  0
 13 12  3  0  0  0  0
 14  6  1  0  0  0  0
 15  9  1  0  0  0  0
 15 16  1  0  0  0  0
 16  8  1  0  0  0  0
 17  9  2  0  0  0  0
 18  8  2  0  0  0  0
 19 10  2  0  0  0  0
 20  3  1  0  0  0  0
 21 14  1  0  0  0  0
 22  7  1  0  0  0  0
 23 22  2  0  0  0  0
 24 14  2  0  0  0  0
 24 23  1  0  0  0  0
M  END
> <CdId>
2709

> <Mol Weight>
361.803

> <Formula>
C16H12ClN3O3S

> <Click_ID>
CLK035_G05 __ __ 

$$$$
