CLK014_C06
 OpenBabel03191401532D

 30 32  0  0  0  0  0  0  0  0999 V2000
    1.5691   -0.8179    0.0000 N    0  0  0  0  0  0  0  0  0  0  0  0
    1.8278   -1.6066    0.0000 C    0  0  0  0  0  0  0  0  0  0  0  0
    2.2409   -0.3297    0.0000 C    0  0  0  0  0  0  0  0  0  0  0  0
    2.9086   -0.8179    0.0000 C    0  0  0  0  0  0  0  0  0  0  0  0
    2.6540   -1.6066    0.0000 S    0  0  0  0  0  0  0  0  0  0  0  0
    5.9965    6.0633    0.0000 N    0  0  0  0  0  0  0  0  0  0  0  0
    4.2481    1.8403    0.0000 C    0  0  0  0  0  0  0  0  0  0  0  0
    3.6973   -0.5633    0.0000 C    0  0  0  0  0  0  0  0  0  0  0  0
    3.4594    1.5982    0.0000 C    0  0  0  0  0  0  0  0  0  0  0  0
    4.8448    1.2727    0.0000 C    0  0  0  0  0  0  0  0  0  0  0  0
    3.8725    0.2337    0.0000 C    0  0  0  0  0  0  0  0  0  0  0  0
    4.4359    2.6373    0.0000 O    0  0  0  0  0  0  0  0  0  0  0  0
    0.6134    0.2462    0.0000 C    0  0  0  0  0  0  0  0  0  0  0  0
    5.8004    5.2579    0.0000 C    0  0  0  0  0  0  0  0  0  0  0  0
    0.3923    1.0474    0.0000 C    0  0  0  0  0  0  0  0  0  0  0  0
    6.7852    6.2887    0.0000 O    0  0  0  0  0  0  0  0  0  0  0  0
    1.3395   -2.2701    0.0000 O    0  0  0  0  0  0  0  0  0  0  0  0
    4.6612    0.4757    0.0000 C    0  0  0  0  0  0  0  0  0  0  0  0
    3.2716    0.7887    0.0000 C    0  0  0  0  0  0  0  0  0  0  0  0
    5.3998    6.6267    0.0000 O    0  0  0  0  0  0  0  0  0  0  0  0
    2.2326    0.4965    0.0000 O    0  0  0  0  0  0  0  0  0  0  0  0
    0.7887   -0.5633    0.0000 C    0  0  0  0  0  0  0  0  0  0  0  0
    6.3971    4.6863    0.0000 C    0  0  0  0  0  0  0  0  0  0  0  0
    5.0201    5.0243    0.0000 C    0  0  0  0  0  0  0  0  0  0  0  0
    2.8585    2.1532    0.0000 Cl   0  0  0  0  0  0  0  0  0  0  0  0
    5.6335    1.5106    0.0000 Cl   0  0  0  0  0  0  0  0  0  0  0  0
    5.2246    2.8626    0.0000 C    0  0  0  0  0  0  0  0  0  0  0  0
    5.4249    3.6763    0.0000 C    0  0  0  0  0  0  0  0  0  0  0  0
    4.8115    4.2231    0.0000 C    0  0  0  0  0  0  0  0  0  0  0  0
    6.2010    3.9017    0.0000 C    0  0  0  0  0  0  0  0  0  0  0  0
  2  1  1  0  0  0  0
  3  1  1  0  0  0  0
  4  3  1  0  0  0  0
  4  5  1  0  0  0  0
  5  2  1  0  0  0  0
  6 14  1  0  0  0  0
  7  9  2  0  0  0  0
  7 10  1  0  0  0  0
  8  4  2  0  0  0  0
  9 19  1  0  0  0  0
 10 18  2  0  0  0  0
 11  8  1  0  0  0  0
 12  7  1  0  0  0  0
 13 22  1  0  0  0  0
 14 23  2  0  0  0  0
 14 24  1  0  0  0  0
 15 13  3  0  0  0  0
 16  6  1  0  0  0  0
 17  2  2  0  0  0  0
 18 11  1  0  0  0  0
 19 11  2  0  0  0  0
 20  6  2  0  0  0  0
 21  3  2  0  0  0  0
 22  1  1  0  0  0  0
 23 30  1  0  0  0  0
 24 29  2  0  0  0  0
 25  9  1  0  0  0  0
 26 10  1  0  0  0  0
 27 12  1  0  0  0  0
 28 27  1  0  0  0  0
 29 28  1  0  0  0  0
 30 28  2  0  0  0  0
M  END
> <CdId>
1021

> <Mol Weight>
463.291

> <Formula>
C20H12Cl2N2O5S

> <Click_ID>
CLK014_C06 __ __ 

$$$$
