CLK019_E02
 OpenBabel03191401532D

 14 14  0  0  0  0  0  0  0  0999 V2000
   -1.1223    0.8337    0.0000 C    0  0  0  0  0  0  0  0  0  0  0  0
   -1.1223    0.0091    0.0000 C    0  0  0  0  0  0  0  0  0  0  0  0
   -0.4077    1.2459    0.0000 C    0  0  0  0  0  0  0  0  0  0  0  0
   -3.2661    1.2459    0.0000 C    0  0  0  0  0  0  0  0  0  0  0  0
   -3.9715    0.8337    0.0000 C    0  0  0  0  0  0  0  0  0  0  0  0
   -0.4077   -0.4031    0.0000 C    0  0  0  0  0  0  0  0  0  0  0  0
    0.3069    0.8337    0.0000 C    0  0  0  0  0  0  0  0  0  0  0  0
    0.3069    0.0091    0.0000 C    0  0  0  0  0  0  0  0  0  0  0  0
   -1.8369   -0.4031    0.0000 Cl   0  0  0  0  0  0  0  0  0  0  0  0
   -0.4077    2.0705    0.0000 Cl   0  0  0  0  0  0  0  0  0  0  0  0
   -1.8369    1.2459    0.0000 O    0  0  0  0  0  0  0  0  0  0  0  0
   -2.5515    0.8337    0.0000 C    0  0  0  0  0  0  0  0  0  0  0  0
    1.7362    0.0091    0.0000 O    0  0  0  0  0  0  0  0  0  0  0  0
    1.0216   -0.4031    0.0000 C    0  0  0  0  0  0  0  0  0  0  0  0
  2  1  2  0  0  0  0
  3  1  1  0  0  0  0
  4 12  1  0  0  0  0
  5  4  3  0  0  0  0
  6  2  1  0  0  0  0
  6  8  2  0  0  0  0
  7  3  2  0  0  0  0
  8  7  1  0  0  0  0
  9  2  1  0  0  0  0
 10  3  1  0  0  0  0
 11  1  1  0  0  0  0
 12 11  1  0  0  0  0
 13 14  1  0  0  0  0
 14  8  1  0  0  0  0
M  END
> <CdId>
1437

> <Mol Weight>
231.075

> <Formula>
C10H8Cl2O2

> <Click_ID>
CLK019_E02 __ __ 

$$$$
