CLK040F11
 OpenBabel03191401532D

 25 26  0  0  0  0  0  0  0  0999 V2000
    0.7043    0.6334    0.0000 N   0  0  0  0  0  0  0  0  0  0  0  0
    1.4919    0.3793    0.0000 C   0  0  0  0  0  0  0  0  0  0  0  0
    0.2208   -0.0333    0.0000 C   0  0  0  0  0  0  0  0  0  0  0  0
    1.4919   -0.4459    0.0000 N   0  0  0  0  0  0  0  0  0  0  0  0
    0.7043   -0.7043    0.0000 C   0  0  3  0  0  0  0  0  0  0  0  0
    0.4501    1.4169    0.0000 C   0  0  0  0  0  0  0  0  0  0  0  0
    0.0500   -1.2044    0.0000 C   0  0  0  0  0  0  0  0  0  0  0  0
    1.0459    4.2089    0.0000 C   0  0  0  0  0  0  0  0  0  0  0  0
    0.7876    4.9924    0.0000 C   0  0  0  0  0  0  0  0  0  0  0  0
    1.0043    2.0295    0.0000 C   0  0  0  0  0  0  0  0  0  0  0  0
    2.1586    0.8626    0.0000 O   0  0  0  0  0  0  0  0  0  0  0  0
   -0.6043   -0.0333    0.0000 O   0  0  0  0  0  0  0  0  0  0  0  0
   -2.6712   -2.4045    0.0000 C   0  0  0  0  0  0  0  0  0  0  0  0
   -1.9086   -2.7171    0.0000 O   0  0  0  0  0  0  0  0  0  0  0  0
    1.8086    1.8586    0.0000 O   0  0  0  0  0  0  0  0  0  0  0  0
   -0.7126   -0.8918    0.0000 C   0  0  0  0  0  0  0  0  0  0  0  0
    0.1625   -2.0253    0.0000 C   0  0  0  0  0  0  0  0  0  0  0  0
    0.7459    2.8171    0.0000 N   0  0  0  0  0  0  0  0  0  0  0  0
   -1.2544   -2.2128    0.0000 C   0  0  0  0  0  0  0  0  0  0  0  0
   -3.3255   -2.9087    0.0000 F   0  0  0  0  0  0  0  0  0  0  0  0
   -2.7796   -1.5835    0.0000 F   0  0  0  0  0  0  0  0  0  0  0  0
    0.9376   -1.4919    0.0000 C   0  0  0  0  0  0  0  0  0  0  0  0
   -0.4918   -2.5296    0.0000 C   0  0  0  0  0  0  0  0  0  0  0  0
   -1.3627   -1.3960    0.0000 C   0  0  0  0  0  0  0  0  0  0  0  0
    1.3002    3.4297    0.0000 C   0  0  0  0  0  0  0  0  0  0  0  0
  2  1  1  0  0  0  0
  3  1  1  0  0  0  0
  4  2  1  0  0  0  0
  4  5  1  0  0  0  0
  5  3  1  0  0  0  0
  6  1  1  0  0  0  0
  7  5  1  0  0  0  0
  8 25  1  0  0  0  0
  9  8  3  0  0  0  0
 10  6  1  0  0  0  0
 11  2  2  0  0  0  0
 12  3  2  0  0  0  0
 13 14  1  0  0  0  0
 14 19  1  0  0  0  0
 15 10  2  0  0  0  0
 16  7  1  0  0  0  0
 17  7  2  0  0  0  0
 18 10  1  0  0  0  0
 19 23  2  0  0  0  0
 19 24  1  0  0  0  0
 20 13  1  0  0  0  0
 21 13  1  0  0  0  0
 22  5  1  0  0  0  0
 23 17  1  0  0  0  0
 24 16  2  0  0  0  0
 25 18  1  0  0  0  0
M  END
> <CdId>
3086

> <Mol Weight>
351.3048

> <Formula>
C16H15F2N3O4

> <Click_ID>
CLK040F11 __ __ 

$$$$
