CLK021_E03
 OpenBabel03191401532D

 17 17  0  0  0  0  0  0  0  0999 V2000
    3.4237    3.3916    0.0000 C   0  0  0  0  0  0  0  0  0  0  0  0
    3.0112    2.6766    0.0000 C   0  0  0  0  0  0  0  0  0  0  0  0
    3.4237    1.9616    0.0000 C   0  0  0  0  0  0  0  0  0  0  0  0
    0.9487    1.9616    0.0000 C   0  0  0  0  0  0  0  0  0  0  0  0
    0.1237    1.9616    0.0000 C   0  0  0  0  0  0  0  0  0  0  0  0
    3.0112    4.1066    0.0000 C   0  0  0  0  0  0  0  0  0  0  0  0
    4.2487    3.3916    0.0000 C   0  0  0  0  0  0  0  0  0  0  0  0
    4.2487    1.9616    0.0000 C   0  0  0  0  0  0  0  0  0  0  0  0
    4.6612    2.6766    0.0000 C   0  0  0  0  0  0  0  0  0  0  0  0
    3.0112    1.2512    0.0000 C   0  0  0  0  0  0  0  0  0  0  0  0
    3.4237    0.5362    0.0000 O   0  0  0  0  0  0  0  0  0  0  0  0
    2.1862    2.6766    0.0000 O   0  0  0  0  0  0  0  0  0  0  0  0
    1.7737    1.9616    0.0000 C   0  0  0  0  0  0  0  0  0  0  0  0
    3.5934    4.6796    0.0000 C   0  0  0  0  0  0  0  0  0  0  0  0
    2.4796    4.7346    0.0000 C   0  0  0  0  0  0  0  0  0  0  0  0
    2.3375    3.6391    0.0000 C   0  0  0  0  0  0  0  0  0  0  0  0
    5.4863    2.6766    0.0000 C   0  0  0  0  0  0  0  0  0  0  0  0
  2  1  2  0  0  0  0
  3  2  1  0  0  0  0
  4 13  1  0  0  0  0
  5  4  3  0  0  0  0
  6  1  1  0  0  0  0
  7  1  1  0  0  0  0
  8  9  1  0  0  0  0
  8  3  2  0  0  0  0
  9  7  2  0  0  0  0
 10  3  1  0  0  0  0
 11 10  2  0  0  0  0
 12  2  1  0  0  0  0
 13 12  1  0  0  0  0
 14  6  1  0  0  0  0
 15  6  1  0  0  0  0
 16  6  1  0  0  0  0
 17  9  1  0  0  0  0
M  END
> <CdId>
1598

> <Mol Weight>
230.3022

> <Formula>
C15H18O2

> <Click_ID>
CLK021_E03 __ __ 

$$$$
