CLK017_G11
 OpenBabel03191401532D

 25 26  0  0  0  0  0  0  0  0999 V2000
    5.6132   -3.6482    0.0000 N   0  0  0  0  0  0  0  0  0  0  0  0
    4.9043   -4.0586    0.0000 C   0  0  0  0  0  0  0  0  0  0  0  0
    5.4515   -2.8398    0.0000 C   0  0  0  0  0  0  0  0  0  0  0  0
    4.6307   -2.7485    0.0000 C   0  0  0  0  0  0  0  0  0  0  0  0
    4.2949   -3.4989    0.0000 S   0  0  0  0  0  0  0  0  0  0  0  0
    4.2202   -2.0314    0.0000 C   0  0  0  0  0  0  0  0  0  0  0  0
    6.4547   -4.8048    0.0000 C   0  0  0  0  0  0  0  0  0  0  0  0
    6.4464   -5.6256    0.0000 C   0  0  0  0  0  0  0  0  0  0  0  0
    4.8130   -4.8794    0.0000 O   0  0  0  0  0  0  0  0  0  0  0  0
    2.1516   -1.3100    0.0000 C   0  0  0  0  0  0  0  0  0  0  0  0
    6.0070   -2.2304    0.0000 O   0  0  0  0  0  0  0  0  0  0  0  0
    1.7329   -2.0314    0.0000 C   0  0  0  0  0  0  0  0  0  0  0  0
    3.3952   -2.0314    0.0000 C   0  0  0  0  0  0  0  0  0  0  0  0
    6.3718   -3.9839    0.0000 C   0  0  0  0  0  0  0  0  0  0  0  0
    2.9724   -1.3100    0.0000 C   0  0  0  0  0  0  0  0  0  0  0  0
    0.9203   -2.0314    0.0000 O   0  0  0  0  0  0  0  0  0  0  0  0
    2.1516   -2.7403    0.0000 C   0  0  0  0  0  0  0  0  0  0  0  0
    2.9724   -2.7403    0.0000 C   0  0  0  0  0  0  0  0  0  0  0  0
    0.5099   -2.7485    0.0000 C   0  0  0  0  0  0  0  0  0  0  0  0
    1.7411   -0.6011    0.0000 O   0  0  0  0  0  0  0  0  0  0  0  0
   -0.3109   -2.7485    0.0000 C   0  0  0  0  0  0  0  0  0  0  0  0
    0.9203   -0.6011    0.0000 C   0  0  0  0  0  0  0  0  0  0  0  0
   -0.7213   -3.4574    0.0000 C   0  0  0  0  0  0  0  0  0  0  0  0
   -0.7213   -2.0314    0.0000 C   0  0  0  0  0  0  0  0  0  0  0  0
    0.5099    0.1078    0.0000 C   0  0  0  0  0  0  0  0  0  0  0  0
  2  1  1  0  0  0  0
  3  1  1  0  0  0  0
  4  3  1  0  0  0  0
  5  2  1  0  0  0  0
  5  4  1  0  0  0  0
  6  4  2  0  0  0  0
  7 14  1  0  0  0  0
  8  7  3  0  0  0  0
  9  2  2  0  0  0  0
 10 15  1  0  0  0  0
 10 12  2  0  0  0  0
 11  3  2  0  0  0  0
 12 17  1  0  0  0  0
 13  6  1  0  0  0  0
 14  1  1  0  0  0  0
 15 13  2  0  0  0  0
 16 12  1  0  0  0  0
 17 18  2  0  0  0  0
 18 13  1  0  0  0  0
 19 16  1  0  0  0  0
 20 10  1  0  0  0  0
 21 19  1  0  0  0  0
 22 20  1  0  0  0  0
 23 21  1  0  0  0  0
 24 21  1  0  0  0  0
 25 22  1  0  0  0  0
M  END
> <CdId>
1306

> <Mol Weight>
359.439

> <Formula>
C19H21NO4S

> <Click_ID>
CLK017_G11 __ __ 

$$$$
