CLK024_D09
 OpenBabel03191401532D

 33 36  0  0  0  0  0  0  0  0999 V2000
    0.7734   -0.9418    0.0000 N   0  0  0  0  0  0  0  0  0  0  0  0
    1.0277   -1.7289    0.0000 C   0  0  0  0  0  0  0  0  0  0  0  0
    1.4402   -0.4572    0.0000 C   0  0  0  0  0  0  0  0  0  0  0  0
    2.1104   -0.9418    0.0000 C   0  0  0  0  0  0  0  0  0  0  0  0
    3.0626    0.1169    0.0000 C   0  0  0  0  0  0  0  0  0  0  0  0
    1.8526   -1.7289    0.0000 S   0  0  0  0  0  0  0  0  0  0  0  0
    2.9354    1.4539    0.0000 N   0  0  0  0  0  0  0  0  0  0  0  0
    2.8976   -0.6840    0.0000 C   0  0  0  0  0  0  0  0  0  0  0  0
    2.5229    0.7390    0.0000 C   0  0  0  0  0  0  0  0  0  0  0  0
    3.8256    0.4572    0.0000 C   0  0  0  0  0  0  0  0  0  0  0  0
    3.7466    1.2752    0.0000 C   0  0  0  0  0  0  0  0  0  0  0  0
   -0.0103   -0.6840    0.0000 C   0  0  0  0  0  0  0  0  0  0  0  0
   -0.6255   -1.2443    0.0000 C   0  0  0  0  0  0  0  0  0  0  0  0
    3.0970    2.8804    0.0000 C   0  0  0  0  0  0  0  0  0  0  0  0
    3.6263    3.4957    0.0000 C   0  0  0  0  0  0  0  0  0  0  0  0
    0.5397   -2.3923    0.0000 O   0  0  0  0  0  0  0  0  0  0  0  0
   -1.4092   -0.9865    0.0000 N   0  0  0  0  0  0  0  0  0  0  0  0
    1.4368    0.3678    0.0000 O   0  0  0  0  0  0  0  0  0  0  0  0
   -0.4502   -2.0486    0.0000 O   0  0  0  0  0  0  0  0  0  0  0  0
    2.6089    2.2032    0.0000 C   0  0  0  0  0  0  0  0  0  0  0  0
   -2.0211   -1.5364    0.0000 C   0  0  0  0  0  0  0  0  0  0  0  0
   -3.2447   -2.6433    0.0000 C   0  0  0  0  0  0  0  0  0  0  0  0
   -2.8013   -1.2855    0.0000 C   0  0  0  0  0  0  0  0  0  0  0  0
   -1.8458   -2.3442    0.0000 C   0  0  0  0  0  0  0  0  0  0  0  0
   -2.4507   -2.8976    0.0000 C   0  0  0  0  0  0  0  0  0  0  0  0
   -3.4132   -1.8355    0.0000 C   0  0  0  0  0  0  0  0  0  0  0  0
    4.4134    1.7565    0.0000 C   0  0  0  0  0  0  0  0  0  0  0  0
    4.5749    0.1066    0.0000 C   0  0  0  0  0  0  0  0  0  0  0  0
   -3.8566   -3.1966    0.0000 O   0  0  0  0  0  0  0  0  0  0  0  0
   -4.6368   -2.9423    0.0000 C   0  0  0  0  0  0  0  0  0  0  0  0
    5.2452    0.5946    0.0000 C   0  0  0  0  0  0  0  0  0  0  0  0
    5.1593    1.4162    0.0000 C   0  0  0  0  0  0  0  0  0  0  0  0
   -5.2452   -3.4957    0.0000 C   0  0  0  0  0  0  0  0  0  0  0  0
  2  1  1  0  0  0  0
  3  1  1  0  0  0  0
  4  3  1  0  0  0  0
  5  8  1  0  0  0  0
  6  2  1  0  0  0  0
  6  4  1  0  0  0  0
  7  9  1  0  0  0  0
  8  4  2  0  0  0  0
  9  5  2  0  0  0  0
 10  5  1  0  0  0  0
 11 10  1  0  0  0  0
 11  7  1  0  0  0  0
 12  1  1  0  0  0  0
 13 12  1  0  0  0  0
 14 20  1  0  0  0  0
 15 14  3  0  0  0  0
 16  2  2  0  0  0  0
 17 13  1  0  0  0  0
 18  3  2  0  0  0  0
 19 13  2  0  0  0  0
 20  7  1  0  0  0  0
 21 17  1  0  0  0  0
 22 25  1  0  0  0  0
 23 21  2  0  0  0  0
 24 21  1  0  0  0  0
 25 24  2  0  0  0  0
 26 23  1  0  0  0  0
 26 22  2  0  0  0  0
 27 11  2  0  0  0  0
 28 10  2  0  0  0  0
 29 22  1  0  0  0  0
 30 29  1  0  0  0  0
 31 28  1  0  0  0  0
 32 31  2  0  0  0  0
 32 27  1  0  0  0  0
 33 30  1  0  0  0  0
M  END
> <CdId>
1814

> <Mol Weight>
459.517

> <Formula>
C25H21N3O4S

> <Click_ID>
CLK024_D09 __ __ 

$$$$
