CLK046A07
 OpenBabel03191401532D

 25 26  0  0  0  0  0  0  0  0999 V2000
   -2.5750   -0.9542    0.0000 C   0  0  0  0  0  0  0  0  0  0  0  0
   -2.5750   -0.1292    0.0000 C   0  0  0  0  0  0  0  0  0  0  0  0
   -1.8583   -1.3667    0.0000 C   0  0  0  0  0  0  0  0  0  0  0  0
   -1.1458   -0.1292    0.0000 C   0  0  0  0  0  0  0  0  0  0  0  0
   -1.1458   -0.9542    0.0000 C   0  0  0  0  0  0  0  0  0  0  0  0
   -1.8583    0.2833    0.0000 C   0  0  0  0  0  0  0  0  0  0  0  0
    3.1417    2.3458    0.0000 C   0  0  0  0  0  0  0  0  0  0  0  0
    3.1417    3.1708    0.0000 C   0  0  0  0  0  0  0  0  0  0  0  0
   -0.4292    0.2833    0.0000 N   0  0  0  0  0  0  0  0  0  0  0  0
    0.2833   -0.1292    0.0000 C   0  0  0  0  0  0  0  0  0  0  0  0
    1.7125   -0.1292    0.0000 N   0  0  0  0  0  0  0  0  0  0  0  0
    0.2833   -0.9542    0.0000 O   0  0  0  0  0  0  0  0  0  0  0  0
    3.1417    1.5208    0.0000 C   0  0  0  0  0  0  0  0  0  0  0  0
    1.0000    0.2833    0.0000 C   0  0  0  0  0  0  0  0  0  0  0  0
   -3.2875   -1.3667    0.0000 O   0  0  0  0  0  0  0  0  0  0  0  0
    2.4292    0.2833    0.0000 C   0  0  0  0  0  0  0  0  0  0  0  0
   -1.8583   -2.1917    0.0000 O   0  0  0  0  0  0  0  0  0  0  0  0
   -3.2875    0.2833    0.0000 O   0  0  0  0  0  0  0  0  0  0  0  0
    2.4292    1.1083    0.0000 C   0  0  0  0  0  0  0  0  0  0  0  0
    3.8542    0.2833    0.0000 C   0  0  0  0  0  0  0  0  0  0  0  0
    3.8542    1.1083    0.0000 C   0  0  0  0  0  0  0  0  0  0  0  0
    3.1417   -0.1292    0.0000 C   0  0  0  0  0  0  0  0  0  0  0  0
   -4.0042   -0.9542    0.0000 C   0  0  0  0  0  0  0  0  0  0  0  0
   -3.2875    1.1083    0.0000 C   0  0  0  0  0  0  0  0  0  0  0  0
   -1.1458   -2.6042    0.0000 C   0  0  0  0  0  0  0  0  0  0  0  0
  2  1  1  0  0  0  0
  3  1  2  0  0  0  0
  4  5  2  0  0  0  0
  5  3  1  0  0  0  0
  6  2  2  0  0  0  0
  6  4  1  0  0  0  0
  7 13  1  0  0  0  0
  8  7  3  0  0  0  0
  9  4  1  0  0  0  0
 10  9  1  0  0  0  0
 11 14  1  0  0  0  0
 12 10  2  0  0  0  0
 13 19  1  0  0  0  0
 14 10  1  0  0  0  0
 15  1  1  0  0  0  0
 16 11  1  0  0  0  0
 17  3  1  0  0  0  0
 18  2  1  0  0  0  0
 19 16  2  0  0  0  0
 20 22  2  0  0  0  0
 21 13  2  0  0  0  0
 21 20  1  0  0  0  0
 22 16  1  0  0  0  0
 23 15  1  0  0  0  0
 24 18  1  0  0  0  0
 25 17  1  0  0  0  0
M  END
> <CdId>
3529

> <Mol Weight>
340.3731

> <Formula>
C19H20N2O4

> <Click_ID>
CLK046A07 __ __ 

$$$$
