CLK012_B08
 OpenBabel03191401532D

 30 32  0  0  0  0  0  0  0  0999 V2000
    3.9336    0.5470    0.0000 N    0  0  0  0  0  0  0  0  0  0  0  0
    3.6747   -0.2422    0.0000 C    0  0  0  0  0  0  0  0  0  0  0  0
    3.2613    1.0272    0.0000 C    0  0  0  0  0  0  0  0  0  0  0  0
    2.5974    0.5470    0.0000 C    0  0  0  0  0  0  0  0  0  0  0  0
    2.8479   -0.2422    0.0000 S    0  0  0  0  0  0  0  0  0  0  0  0
    1.8081    0.7975    0.0000 C    0  0  0  0  0  0  0  0  0  0  0  0
    4.7228    0.7975    0.0000 C    0  0  0  0  0  0  0  0  0  0  0  0
    5.3283    0.2463    0.0000 C    0  0  0  0  0  0  0  0  0  0  0  0
   -2.0294   -1.6954    0.0000 C    0  0  0  0  0  0  0  0  0  0  0  0
   -2.6433   -2.2466    0.0000 C    0  0  0  0  0  0  0  0  0  0  0  0
   -0.1837   -0.0626    0.0000 C    0  0  0  0  0  0  0  0  0  0  0  0
    4.1633   -0.9145    0.0000 O    0  0  0  0  0  0  0  0  0  0  0  0
    6.1176    0.4969    0.0000 N    0  0  0  0  0  0  0  0  0  0  0  0
    3.2613    1.8540    0.0000 O    0  0  0  0  0  0  0  0  0  0  0  0
    1.1943    0.2380    0.0000 C    0  0  0  0  0  0  0  0  0  0  0  0
    0.4301    0.4969    0.0000 C    0  0  0  0  0  0  0  0  0  0  0  0
   -0.0125   -0.8644    0.0000 C    0  0  0  0  0  0  0  0  0  0  0  0
    5.1613   -0.5679    0.0000 O    0  0  0  0  0  0  0  0  0  0  0  0
    0.7559   -1.1191    0.0000 C    0  0  0  0  0  0  0  0  0  0  0  0
    6.7314   -0.0543    0.0000 C    0  0  0  0  0  0  0  0  0  0  0  0
   -0.9646    0.1962    0.0000 Br   0  0  0  0  0  0  0  0  0  0  0  0
    1.3697   -0.5554    0.0000 C    0  0  0  0  0  0  0  0  0  0  0  0
    7.9549   -1.1693    0.0000 C    0  0  0  0  0  0  0  0  0  0  0  0
   -0.6347   -1.4073    0.0000 O    0  0  0  0  0  0  0  0  0  0  0  0
    7.5164    0.1962    0.0000 C    0  0  0  0  0  0  0  0  0  0  0  0
    6.5560   -0.8686    0.0000 C    0  0  0  0  0  0  0  0  0  0  0  0
    8.1303   -0.3633    0.0000 C    0  0  0  0  0  0  0  0  0  0  0  0
    7.1656   -1.4198    0.0000 C    0  0  0  0  0  0  0  0  0  0  0  0
   -1.4114   -1.1525    0.0000 C    0  0  0  0  0  0  0  0  0  0  0  0
    8.5687   -1.7288    0.0000 C    0  0  0  0  0  0  0  0  0  0  0  0
  2  1  1  0  0  0  0
  3  1  1  0  0  0  0
  4  3  1  0  0  0  0
  4  5  1  0  0  0  0
  5  2  1  0  0  0  0
  6  4  2  0  0  0  0
  7  1  1  0  0  0  0
  8  7  1  0  0  0  0
  9 29  1  0  0  0  0
 10  9  3  0  0  0  0
 11 16  2  0  0  0  0
 11 17  1  0  0  0  0
 12  2  2  0  0  0  0
 13  8  1  0  0  0  0
 14  3  2  0  0  0  0
 15  6  1  0  0  0  0
 16 15  1  0  0  0  0
 17 19  2  0  0  0  0
 18  8  2  0  0  0  0
 19 22  1  0  0  0  0
 20 13  1  0  0  0  0
 21 11  1  0  0  0  0
 22 15  2  0  0  0  0
 23 28  2  0  0  0  0
 24 17  1  0  0  0  0
 25 20  1  0  0  0  0
 26 20  2  0  0  0  0
 27 25  2  0  0  0  0
 27 23  1  0  0  0  0
 28 26  1  0  0  0  0
 29 24  1  0  0  0  0
 30 23  1  0  0  0  0
M  END
> <CdId>
853

> <Mol Weight>
485.35

> <Formula>
C22H17BrN2O4S

> <Click_ID>
CLK012_B08 __ __ 

$$$$
