CLK010_E08
 OpenBabel03191401532D

 23 26  0  0  0  0  0  0  0  0999 V2000
   -0.4779    1.3306    0.0000 C   0  0  0  0  0  0  0  0  0  0  0  0
   -1.2812    1.1205    0.0000 C   0  0  0  0  0  0  0  0  0  0  0  0
   -0.1318   -0.0289    0.0000 N   0  0  0  0  0  0  0  0  0  0  0  0
   -1.5284    0.3172    0.0000 N   0  0  0  0  0  0  0  0  0  0  0  0
   -0.9352   -0.2761    0.0000 C   0  0  0  0  0  0  0  0  0  0  0  0
    0.0783    0.7250    0.0000 C   0  0  0  0  0  0  0  0  0  0  0  0
   -1.7303    1.8415    0.0000 S   0  0  0  0  0  0  0  0  0  0  0  0
   -0.4573    2.1587    0.0000 C   0  0  0  0  0  0  0  0  0  0  0  0
   -1.2318    2.4430    0.0000 C   0  0  0  0  0  0  0  0  0  0  0  0
   -0.8034   -2.4760    0.0000 C   0  0  0  0  0  0  0  0  0  0  0  0
    0.4491   -0.6427    0.0000 C   0  0  0  0  0  0  0  0  0  0  0  0
   -1.0093   -3.2794    0.0000 C   0  0  0  0  0  0  0  0  0  0  0  0
    0.9393    0.9228    0.0000 O   0  0  0  0  0  0  0  0  0  0  0  0
   -1.1823   -1.0753    0.0000 S   0  0  0  0  0  0  0  0  0  0  0  0
    0.0536    2.8014    0.0000 C   0  0  0  0  0  0  0  0  0  0  0  0
   -1.2318    3.2463    0.0000 C   0  0  0  0  0  0  0  0  0  0  0  0
   -0.5891   -1.6809    0.0000 C   0  0  0  0  0  0  0  0  0  0  0  0
   -0.4573    3.4812    0.0000 C   0  0  0  0  0  0  0  0  0  0  0  0
    0.2472   -1.4007    0.0000 C   0  0  0  0  0  0  0  0  0  0  0  0
    1.2524   -0.3955    0.0000 C   0  0  0  0  0  0  0  0  0  0  0  0
    0.8569   -1.9569    0.0000 C   0  0  0  0  0  0  0  0  0  0  0  0
    1.8457   -0.9558    0.0000 C   0  0  0  0  0  0  0  0  0  0  0  0
    1.6603   -1.7179    0.0000 C   0  0  0  0  0  0  0  0  0  0  0  0
  2  1  2  0  0  0  0
  3  6  1  0  0  0  0
  4  2  1  0  0  0  0
  4  5  2  0  0  0  0
  5  3  1  0  0  0  0
  6  1  1  0  0  0  0
  7  2  1  0  0  0  0
  7  9  1  0  0  0  0
  8  1  1  0  0  0  0
  9  8  2  0  0  0  0
 10 17  1  0  0  0  0
 11  3  1  0  0  0  0
 12 10  3  0  0  0  0
 13  6  2  0  0  0  0
 14  5  1  0  0  0  0
 15  8  1  0  0  0  0
 16  9  1  0  0  0  0
 17 14  1  0  0  0  0
 18 15  1  0  0  0  0
 18 16  1  0  0  0  0
 19 11  2  0  0  0  0
 20 11  1  0  0  0  0
 21 19  1  0  0  0  0
 22 20  2  0  0  0  0
 23 22  1  0  0  0  0
 23 21  2  0  0  0  0
M  END
> <CdId>
723

> <Mol Weight>
338.447

> <Formula>
C18H14N2OS2

> <Click_ID>
CLK010_E08 __ __ 

$$$$
