CLK013_H02
 OpenBabel03191401532D

 21 22  0  0  0  0  0  0  0  0999 V2000
    5.3115   -3.6379    0.0000 N   0  0  0  0  0  0  0  0  0  0  0  0
    4.5391   -3.9286    0.0000 C   0  0  0  0  0  0  0  0  0  0  0  0
    5.2742   -2.8074    0.0000 C   0  0  0  0  0  0  0  0  0  0  0  0
    4.4768   -2.5956    0.0000 C   0  0  0  0  0  0  0  0  0  0  0  0
    4.0283   -3.2891    0.0000 N   0  0  0  0  0  0  0  0  0  0  0  0
    4.1861   -1.8231    0.0000 C   0  0  0  0  0  0  0  0  0  0  0  0
    4.3273   -4.7260    0.0000 S   0  0  0  0  0  0  0  0  0  0  0  0
   -0.4069   -1.8231    0.0000 C   0  0  0  0  0  0  0  0  0  0  0  0
   -1.2168   -1.6861    0.0000 C   0  0  0  0  0  0  0  0  0  0  0  0
    2.2592   -0.7891    0.0000 C   0  0  0  0  0  0  0  0  0  0  0  0
    5.9178   -2.2966    0.0000 O   0  0  0  0  0  0  0  0  0  0  0  0
    3.3680   -1.6986    0.0000 C   0  0  0  0  0  0  0  0  0  0  0  0
    3.0773   -0.9261    0.0000 C   0  0  0  0  0  0  0  0  0  0  0  0
    1.7359   -1.4369    0.0000 C   0  0  0  0  0  0  0  0  0  0  0  0
    6.0050   -4.0864    0.0000 C   0  0  0  0  0  0  0  0  0  0  0  0
    2.0349   -2.2052    0.0000 C   0  0  0  0  0  0  0  0  0  0  0  0
    2.8447   -2.3339    0.0000 C   0  0  0  0  0  0  0  0  0  0  0  0
    1.9602   -0.0249    0.0000 O   0  0  0  0  0  0  0  0  0  0  0  0
    0.9261   -1.3082    0.0000 O   0  0  0  0  0  0  0  0  0  0  0  0
    0.4029   -1.9477    0.0000 C   0  0  0  0  0  0  0  0  0  0  0  0
    1.1504    0.1079    0.0000 C   0  0  0  0  0  0  0  0  0  0  0  0
  2  1  1  0  0  0  0
  3  1  1  0  0  0  0
  4  3  1  0  0  0  0
  5  2  1  0  0  0  0
  5  4  1  0  0  0  0
  6  4  2  0  0  0  0
  7  2  2  0  0  0  0
  8 20  1  0  0  0  0
  9  8  3  0  0  0  0
 10 13  1  0  0  0  0
 10 14  2  0  0  0  0
 11  3  2  0  0  0  0
 12  6  1  0  0  0  0
 13 12  2  0  0  0  0
 14 16  1  0  0  0  0
 15  1  1  0  0  0  0
 16 17  2  0  0  0  0
 17 12  1  0  0  0  0
 18 10  1  0  0  0  0
 19 14  1  0  0  0  0
 20 19  1  0  0  0  0
 21 18  1  0  0  0  0
M  END
> <CdId>
987

> <Mol Weight>
302.348

> <Formula>
C15H14N2O3S

> <Click_ID>
CLK013_H02 __ __ 

$$$$
