CLK050H02
 OpenBabel03191401532D

 18 18  0  0  0  0  0  0  0  0999 V2000
    0.1583    1.8833    0.0000 C   0  0  0  0  0  0  0  0  0  0  0  0
   -0.5583   -2.6542    0.0000 C   0  0  0  0  0  0  0  0  0  0  0  0
    1.5875    3.5333    0.0000 C   0  0  0  0  0  0  0  0  0  0  0  0
    2.3000    3.9458    0.0000 C   0  0  0  0  0  0  0  0  0  0  0  0
   -0.5583   -1.8292    0.0000 C   0  0  0  0  0  0  0  0  0  0  0  0
    0.1583    1.0583    0.0000 N   0  0  0  0  0  0  0  0  0  0  0  0
   -0.5583    2.2958    0.0000 O   0  0  0  0  0  0  0  0  0  0  0  0
   -1.2708   -3.0667    0.0000 O   0  0  0  0  0  0  0  0  0  0  0  0
    0.8708    2.2958    0.0000 N   0  0  0  0  0  0  0  0  0  0  0  0
    0.1583   -3.0667    0.0000 N   0  0  0  0  0  0  0  0  0  0  0  0
    0.1583   -1.4167    0.0000 C   0  0  0  0  0  0  0  0  0  0  0  0
   -1.2708   -1.4167    0.0000 C   0  0  0  0  0  0  0  0  0  0  0  0
   -0.5583    0.6458    0.0000 C   0  0  0  0  0  0  0  0  0  0  0  0
   -0.5583   -0.1792    0.0000 C   0  0  0  0  0  0  0  0  0  0  0  0
   -1.2708   -0.5917    0.0000 C   0  0  0  0  0  0  0  0  0  0  0  0
    0.1583   -0.5917    0.0000 C   0  0  0  0  0  0  0  0  0  0  0  0
    0.8708    3.1208    0.0000 C   0  0  0  0  0  0  0  0  0  0  0  0
    0.1583   -3.8917    0.0000 C   0  0  0  0  0  0  0  0  0  0  0  0
  2  5  1  0  0  0  0
  3 17  1  0  0  0  0
  4  3  3  0  0  0  0
  5 12  2  0  0  0  0
  6  1  1  0  0  0  0
  7  1  2  0  0  0  0
  8  2  2  0  0  0  0
  9  1  1  0  0  0  0
 10  2  1  0  0  0  0
 11 16  2  0  0  0  0
 11  5  1  0  0  0  0
 12 15  1  0  0  0  0
 13  6  1  0  0  0  0
 14 13  1  0  0  0  0
 15 14  2  0  0  0  0
 16 14  1  0  0  0  0
 17  9  1  0  0  0  0
 18 10  1  0  0  0  0
M  END
> <CdId>
3816

> <Mol Weight>
245.2771

> <Formula>
C13H15N3O2

> <Click_ID>
CLK050H02 __ __ 

$$$$
