CLK052F03
 OpenBabel03191401532D

 22 22  0  0  0  0  0  0  0  0999 V2000
    0.3875   -1.6125    0.0000 C   0  0  0  0  0  0  0  0  0  0  0  0
   -0.3250   -1.2000    0.0000 C   0  0  0  0  0  0  0  0  0  0  0  0
    0.3875   -2.4375    0.0000 C   0  0  0  0  0  0  0  0  0  0  0  0
    1.1042   -1.2000    0.0000 C   0  0  0  0  0  0  0  0  0  0  0  0
    1.8167   -0.7875    0.0000 N   0  0  0  0  0  0  0  0  0  0  0  0
    0.3875    3.3375    0.0000 C   0  0  0  0  0  0  0  0  0  0  0  0
    0.3875    4.1583    0.0000 C   0  0  0  0  0  0  0  0  0  0  0  0
   -1.0417    0.8625    0.0000 C   0  0  0  0  0  0  0  0  0  0  0  0
   -0.3250   -0.3750    0.0000 C   0  0  0  0  0  0  0  0  0  0  0  0
   -1.0417    0.0375    0.0000 C   0  0  0  0  0  0  0  0  0  0  0  0
   -0.3250    1.2750    0.0000 C   0  0  0  0  0  0  0  0  0  0  0  0
   -0.3250   -2.8500    0.0000 O   0  0  0  0  0  0  0  0  0  0  0  0
    0.3875    0.8625    0.0000 C   0  0  0  0  0  0  0  0  0  0  0  0
    0.3875    0.0375    0.0000 C   0  0  0  0  0  0  0  0  0  0  0  0
    1.1042   -2.8500    0.0000 O   0  0  0  0  0  0  0  0  0  0  0  0
   -1.7542    1.2750    0.0000 O   0  0  0  0  0  0  0  0  0  0  0  0
   -0.3250    2.1000    0.0000 O   0  0  0  0  0  0  0  0  0  0  0  0
    0.3875    2.5167    0.0000 C   0  0  0  0  0  0  0  0  0  0  0  0
    1.1042   -3.6750    0.0000 C   0  0  0  0  0  0  0  0  0  0  0  0
   -1.7542    2.1000    0.0000 C   0  0  0  0  0  0  0  0  0  0  0  0
   -2.4708    2.5167    0.0000 C   0  0  0  0  0  0  0  0  0  0  0  0
    1.8167   -4.0875    0.0000 C   0  0  0  0  0  0  0  0  0  0  0  0
  2  1  2  0  0  0  0
  3  1  1  0  0  0  0
  4  1  1  0  0  0  0
  5  4  3  0  0  0  0
  6 18  1  0  0  0  0
  7  6  3  0  0  0  0
  8 10  1  0  0  0  0
  9  2  1  0  0  0  0
 10  9  2  0  0  0  0
 11  8  2  0  0  0  0
 11 13  1  0  0  0  0
 12  3  2  0  0  0  0
 13 14  2  0  0  0  0
 14  9  1  0  0  0  0
 15  3  1  0  0  0  0
 16  8  1  0  0  0  0
 17 11  1  0  0  0  0
 18 17  1  0  0  0  0
 19 15  1  0  0  0  0
 20 16  1  0  0  0  0
 21 20  1  0  0  0  0
 22 19  1  0  0  0  0
M  END
> <CdId>
3982

> <Mol Weight>
299.3212

> <Formula>
C17H17NO4

> <Click_ID>
CLK052F03 __ __ 

$$$$
