CLK016_D03
 OpenBabel03191401532D

 29 31  0  0  0  0  0  0  0  0999 V2000
    1.5629   -0.8147    0.0000 N   0  0  0  0  0  0  0  0  0  0  0  0
    1.8205   -1.6003    0.0000 C   0  0  0  0  0  0  0  0  0  0  0  0
    2.8971   -0.8147    0.0000 C   0  0  0  0  0  0  0  0  0  0  0  0
    2.2320   -0.3284    0.0000 C   0  0  0  0  0  0  0  0  0  0  0  0
    4.5139    1.4173    0.0000 N   0  0  0  0  0  0  0  0  0  0  0  0
    3.8448    0.2577    0.0000 C   0  0  0  0  0  0  0  0  0  0  0  0
    2.6435   -1.6003    0.0000 S   0  0  0  0  0  0  0  0  0  0  0  0
    3.7034    1.5794    0.0000 C   0  0  0  0  0  0  0  0  0  0  0  0
    4.6012    0.5943    0.0000 C   0  0  0  0  0  0  0  0  0  0  0  0
    3.6827   -0.5611    0.0000 C   0  0  0  0  0  0  0  0  0  0  0  0
    3.2836    0.8562    0.0000 C   0  0  0  0  0  0  0  0  0  0  0  0
    6.9496    3.6411    0.0000 C   0  0  0  0  0  0  0  0  0  0  0  0
    5.1249    1.9702    0.0000 C   0  0  0  0  0  0  0  0  0  0  0  0
    0.6110    0.2452    0.0000 C   0  0  0  0  0  0  0  0  0  0  0  0
    0.3907    1.0432    0.0000 C   0  0  0  0  0  0  0  0  0  0  0  0
    1.3342   -2.2611    0.0000 O   0  0  0  0  0  0  0  0  0  0  0  0
    2.2237    0.4946    0.0000 O   0  0  0  0  0  0  0  0  0  0  0  0
    6.3344    3.0799    0.0000 C   0  0  0  0  0  0  0  0  0  0  0  0
    0.7856   -0.5611    0.0000 C   0  0  0  0  0  0  0  0  0  0  0  0
    6.7833    4.4433    0.0000 O   0  0  0  0  0  0  0  0  0  0  0  0
    4.9421    2.7807    0.0000 C   0  0  0  0  0  0  0  0  0  0  0  0
    5.9147    1.7166    0.0000 C   0  0  0  0  0  0  0  0  0  0  0  0
    5.5531    3.3376    0.0000 C   0  0  0  0  0  0  0  0  0  0  0  0
    6.5132    2.2777    0.0000 C   0  0  0  0  0  0  0  0  0  0  0  0
    3.3584    2.3276    0.0000 C   0  0  0  0  0  0  0  0  0  0  0  0
    7.7435    3.3875    0.0000 O   0  0  0  0  0  0  0  0  0  0  0  0
    5.3161    0.1870    0.0000 C   0  0  0  0  0  0  0  0  0  0  0  0
    8.3587    3.9361    0.0000 C   0  0  0  0  0  0  0  0  0  0  0  0
    9.1400    3.6785    0.0000 C   0  0  0  0  0  0  0  0  0  0  0  0
  2  1  1  0  0  0  0
  3  4  1  0  0  0  0
  3  7  1  0  0  0  0
  4  1  1  0  0  0  0
  5  9  1  0  0  0  0
  5  8  1  0  0  0  0
  6 10  1  0  0  0  0
  7  2  1  0  0  0  0
  8 11  2  0  0  0  0
  9  6  2  0  0  0  0
 10  3  2  0  0  0  0
 11  6  1  0  0  0  0
 12 18  1  0  0  0  0
 13  5  1  0  0  0  0
 14 19  1  0  0  0  0
 15 14  3  0  0  0  0
 16  2  2  0  0  0  0
 17  4  2  0  0  0  0
 18 24  2  0  0  0  0
 19  1  1  0  0  0  0
 20 12  2  0  0  0  0
 21 13  1  0  0  0  0
 22 13  2  0  0  0  0
 23 21  2  0  0  0  0
 23 18  1  0  0  0  0
 24 22  1  0  0  0  0
 25  8  1  0  0  0  0
 26 12  1  0  0  0  0
 27  9  1  0  0  0  0
 28 26  1  0  0  0  0
 29 28  1  0  0  0  0
M  END
> <CdId>
1188

> <Mol Weight>
408.47

> <Formula>
C22H20N2O4S

> <Click_ID>
CLK016_D03 __ __ 

$$$$
