CLK030_E08
 OpenBabel03191401532D

 26 28  0  0  0  0  0  0  0  0999 V2000
   -1.1626    2.3835    0.0000 C   0  0  0  0  0  0  0  0  0  0  0  0
   -0.3375    2.3752    0.0000 N   0  0  0  0  0  0  0  0  0  0  0  0
   -4.5837    3.2128    0.0000 S   0  0  0  0  0  0  0  0  0  0  0  0
   -1.6460    1.7210    0.0000 N   0  0  0  0  0  0  0  0  0  0  0  0
   -1.6460    3.0503    0.0000 S   0  0  0  0  0  0  0  0  0  0  0  0
   -2.4335    2.7961    0.0000 C   0  0  0  0  0  0  0  0  0  0  0  0
   -2.4335    1.9710    0.0000 C   0  0  0  0  0  0  0  0  0  0  0  0
    0.0750    3.0878    0.0000 C   0  0  0  0  0  0  0  0  0  0  0  0
   -3.8587    2.7961    0.0000 C   0  0  0  0  0  0  0  0  0  0  0  0
   -3.1461    3.2086    0.0000 C   0  0  0  0  0  0  0  0  0  0  0  0
   -1.9460    0.3208    0.0000 C   0  0  0  0  0  0  0  0  0  0  0  0
   -3.1461    1.5584    0.0000 C   0  0  0  0  0  0  0  0  0  0  0  0
   -2.4960   -0.2917    0.0000 C   0  0  0  0  0  0  0  0  0  0  0  0
   -4.1462    3.9087    0.0000 O   0  0  0  0  0  0  0  0  0  0  0  0
   -5.0213    2.5085    0.0000 O   0  0  0  0  0  0  0  0  0  0  0  0
    0.9001    3.0878    0.0000 C   0  0  0  0  0  0  0  0  0  0  0  0
   -5.2838    3.6461    0.0000 N   0  0  0  0  0  0  0  0  0  0  0  0
   -0.3375    3.8004    0.0000 O   0  0  0  0  0  0  0  0  0  0  0  0
   -3.8587    1.9710    0.0000 C   0  0  0  0  0  0  0  0  0  0  0  0
   -1.3959    0.9334    0.0000 C   0  0  0  0  0  0  0  0  0  0  0  0
    1.3168    3.8004    0.0000 C   0  0  0  0  0  0  0  0  0  0  0  0
    1.3126    2.3710    0.0000 C   0  0  0  0  0  0  0  0  0  0  0  0
    2.1419    3.8004    0.0000 C   0  0  0  0  0  0  0  0  0  0  0  0
    2.1294    2.3710    0.0000 C   0  0  0  0  0  0  0  0  0  0  0  0
    2.5502    3.0836    0.0000 C   0  0  0  0  0  0  0  0  0  0  0  0
    3.3753    3.0711    0.0000 C   0  0  0  0  0  0  0  0  0  0  0  0
  2  1  2  0  0  0  0
  3  9  1  0  0  0  0
  4  1  1  0  0  0  0
  5  1  1  0  0  0  0
  6  5  1  0  0  0  0
  6  7  2  0  0  0  0
  7  4  1  0  0  0  0
  8  2  1  0  0  0  0
  9 10  2  0  0  0  0
  9 19  1  0  0  0  0
 10  6  1  0  0  0  0
 11 20  1  0  0  0  0
 12  7  1  0  0  0  0
 13 11  3  0  0  0  0
 14  3  2  0  0  0  0
 15  3  2  0  0  0  0
 16  8  1  0  0  0  0
 17  3  1  0  0  0  0
 18  8  2  0  0  0  0
 19 12  2  0  0  0  0
 20  4  1  0  0  0  0
 21 16  1  0  0  0  0
 22 16  2  0  0  0  0
 23 21  2  0  0  0  0
 24 22  1  0  0  0  0
 25 24  2  0  0  0  0
 25 23  1  0  0  0  0
 26 25  1  0  0  0  0
M  END
> <CdId>
2292

> <Mol Weight>
385.46

> <Formula>
C18H15N3O3S2

> <Click_ID>
CLK030_E08 __ __ 

$$$$
