CLK052G04
 OpenBabel03191401532D

 31 32  0  0  0  0  0  0  0  0999 V2000
    0.0667   -1.7125    0.0000 C   0  0  0  0  0  0  0  0  0  0  0  0
    0.7833   -2.1250    0.0000 C   0  0  0  0  0  0  0  0  0  0  0  0
   -0.6458   -2.1250    0.0000 N   0  0  0  0  0  0  0  0  0  0  0  0
   -2.0750   -1.3000    0.0000 C   0  0  0  0  0  0  0  0  0  0  0  0
   -2.7917   -0.8875    0.0000 C   0  0  0  0  0  0  0  0  0  0  0  0
   -0.6458    2.0000    0.0000 C   0  0  0  0  0  0  0  0  0  0  0  0
   -0.6458    2.8250    0.0000 C   0  0  0  0  0  0  0  0  0  0  0  0
    0.7833    0.3500    0.0000 C   0  0  0  0  0  0  0  0  0  0  0  0
    1.4958   -1.7125    0.0000 C   0  0  0  0  0  0  0  0  0  0  0  0
   -1.3625   -1.7125    0.0000 C   0  0  0  0  0  0  0  0  0  0  0  0
    1.4958   -0.8875    0.0000 S   0  0  0  0  0  0  0  0  0  0  0  0
    0.0667    0.7625    0.0000 N   0  0  0  0  0  0  0  0  0  0  0  0
    0.0667    1.5875    0.0000 C   0  0  0  0  0  0  0  0  0  0  0  0
    0.0667   -0.8875    0.0000 O   0  0  0  0  0  0  0  0  0  0  0  0
    0.0667    3.2375    0.0000 C   0  0  0  0  0  0  0  0  0  0  0  0
    1.4958    0.7625    0.0000 O   0  0  0  0  0  0  0  0  0  0  0  0
    0.7833   -0.4750    0.0000 C   0  0  0  0  0  0  0  0  0  0  0  0
    0.7833    2.8250    0.0000 C   0  0  0  0  0  0  0  0  0  0  0  0
    0.7833    2.0000    0.0000 C   0  0  0  0  0  0  0  0  0  0  0  0
   -1.3625    3.2375    0.0000 O   0  0  0  0  0  0  0  0  0  0  0  0
    0.7833   -2.9500    0.0000 C   0  0  0  0  0  0  0  0  0  0  0  0
    0.0667    4.0583    0.0000 O   0  0  0  0  0  0  0  0  0  0  0  0
   -0.9500   -1.0000    0.0000 C   0  0  0  0  0  0  0  0  0  0  0  0
   -1.7750   -2.4292    0.0000 C   0  0  0  0  0  0  0  0  0  0  0  0
    2.2125   -2.1250    0.0000 C   0  0  0  0  0  0  0  0  0  0  0  0
   -1.3625    4.0583    0.0000 C   0  0  0  0  0  0  0  0  0  0  0  0
    0.7833    4.4708    0.0000 C   0  0  0  0  0  0  0  0  0  0  0  0
    1.4958   -3.3625    0.0000 C   0  0  0  0  0  0  0  0  0  0  0  0
   -0.1250   -1.0000    0.0000 C   0  0  0  0  0  0  0  0  0  0  0  0
   -2.6000   -2.4292    0.0000 C   0  0  0  0  0  0  0  0  0  0  0  0
    2.2125   -2.9500    0.0000 C   0  0  0  0  0  0  0  0  0  0  0  0
  2  1  1  0  0  0  0
  3  1  1  0  0  0  0
  4 10  1  0  0  0  0
  5  4  3  0  0  0  0
  6 13  2  0  0  0  0
  7  6  1  0  0  0  0
  8 17  1  0  0  0  0
  9  2  2  0  0  0  0
 10  3  1  0  0  0  0
 11  9  1  0  0  0  0
 12  8  1  0  0  0  0
 13 12  1  0  0  0  0
 14  1  2  0  0  0  0
 15  7  2  0  0  0  0
 15 18  1  0  0  0  0
 16  8  2  0  0  0  0
 17 11  1  0  0  0  0
 18 19  2  0  0  0  0
 19 13  1  0  0  0  0
 20  7  1  0  0  0  0
 21  2  1  0  0  0  0
 22 15  1  0  0  0  0
 23 10  1  0  0  0  0
 24 10  1  0  0  0  0
 25  9  1  0  0  0  0
 26 20  1  0  0  0  0
 27 22  1  0  0  0  0
 28 21  2  0  0  0  0
 29 23  1  0  0  0  0
 30 24  1  0  0  0  0
 31 25  2  0  0  0  0
 31 28  1  0  0  0  0
M  END
> <CdId>
3991

> <Mol Weight>
440.555

> <Formula>
C24H28N2O4S

> <Click_ID>
CLK052G04 __ __ 

$$$$
