CLK020_F09
 OpenBabel03191401532D

 30 33  0  0  0  0  0  0  0  0999 V2000
    2.8500   -1.5644    0.0000 N   0  0  0  0  0  0  0  0  0  0  0  0
    3.3367   -0.9029    0.0000 C   0  0  0  0  0  0  0  0  0  0  0  0
    3.3242   -2.2259    0.0000 C   0  0  0  0  0  0  0  0  0  0  0  0
    4.1106   -1.9763    0.0000 C   0  0  0  0  0  0  0  0  0  0  0  0
    2.8500   -0.2413    0.0000 N   0  0  0  0  0  0  0  0  0  0  0  0
    4.1106   -1.1608    0.0000 S   0  0  0  0  0  0  0  0  0  0  0  0
    2.0636   -1.3147    0.0000 C   0  0  0  0  0  0  0  0  0  0  0  0
    2.0636   -0.4910    0.0000 C   0  0  0  0  0  0  0  0  0  0  0  0
    4.7721   -2.4630    0.0000 C   0  0  0  0  0  0  0  0  0  0  0  0
    5.5293   -2.1343    0.0000 C   0  0  0  0  0  0  0  0  0  0  0  0
    6.3822   -0.9777    0.0000 C   0  0  0  0  0  0  0  0  0  0  0  0
    7.0437   -1.4770    0.0000 C   0  0  0  0  0  0  0  0  0  0  0  0
    6.9438   -2.2966    0.0000 C   0  0  0  0  0  0  0  0  0  0  0  0
    9.2279   -1.3272    0.0000 C   0  0  0  0  0  0  0  0  0  0  0  0
    9.9893   -0.9985    0.0000 C   0  0  0  0  0  0  0  0  0  0  0  0
    3.0704   -3.0122    0.0000 O   0  0  0  0  0  0  0  0  0  0  0  0
    5.6208   -1.3105    0.0000 C   0  0  0  0  0  0  0  0  0  0  0  0
    6.1908   -2.6253    0.0000 C   0  0  0  0  0  0  0  0  0  0  0  0
    7.5305   -3.5988    0.0000 C   0  0  0  0  0  0  0  0  0  0  0  0
    8.1920   -4.0856    0.0000 C   0  0  0  0  0  0  0  0  0  0  0  0
    6.4820   -0.1665    0.0000 O   0  0  0  0  0  0  0  0  0  0  0  0
    7.8051   -1.1525    0.0000 O   0  0  0  0  0  0  0  0  0  0  0  0
    7.6178   -2.7751    0.0000 C   0  0  0  0  0  0  0  0  0  0  0  0
    8.4666   -1.6517    0.0000 C   0  0  0  0  0  0  0  0  0  0  0  0
    1.3605   -1.7266    0.0000 C   0  0  0  0  0  0  0  0  0  0  0  0
    1.3605   -0.0791    0.0000 C   0  0  0  0  0  0  0  0  0  0  0  0
    5.8205    0.3120    0.0000 C   0  0  0  0  0  0  0  0  0  0  0  0
    0.6532   -1.3147    0.0000 C   0  0  0  0  0  0  0  0  0  0  0  0
    0.6532   -0.4910    0.0000 C   0  0  0  0  0  0  0  0  0  0  0  0
    5.9204    1.1316    0.0000 C   0  0  0  0  0  0  0  0  0  0  0  0
  2  1  1  0  0  0  0
  3  1  1  0  0  0  0
  4  3  1  0  0  0  0
  5  2  2  0  0  0  0
  6  2  1  0  0  0  0
  6  4  1  0  0  0  0
  7  1  1  0  0  0  0
  8  7  1  0  0  0  0
  8  5  1  0  0  0  0
  9  4  2  0  0  0  0
 10  9  1  0  0  0  0
 11 17  1  0  0  0  0
 12 13  1  0  0  0  0
 12 11  2  0  0  0  0
 13 18  2  0  0  0  0
 14 24  1  0  0  0  0
 15 14  3  0  0  0  0
 16  3  2  0  0  0  0
 17 10  2  0  0  0  0
 18 10  1  0  0  0  0
 19 23  1  0  0  0  0
 20 19  2  0  0  0  0
 21 11  1  0  0  0  0
 22 12  1  0  0  0  0
 23 13  1  0  0  0  0
 24 22  1  0  0  0  0
 25  7  2  0  0  0  0
 26  8  2  0  0  0  0
 27 21  1  0  0  0  0
 28 25  1  0  0  0  0
 29 28  2  0  0  0  0
 29 26  1  0  0  0  0
 30 27  1  0  0  0  0
M  END
> <CdId>
1534

> <Mol Weight>
416.492

> <Formula>
C24H20N2O3S

> <Click_ID>
CLK020_F09 __ __ 

$$$$
