CLK033_B03
 OpenBabel03191401532D

 25 27  0  0  0  0  0  0  0  0999 V2000
   -4.5928    2.5553    0.0000 C    0  0  0  0  0  0  0  0  0  0  0  0
   -3.8788    2.9770    0.0000 N    0  0  0  0  0  0  0  0  0  0  0  0
   -4.6847    1.7369    0.0000 N    0  0  0  0  0  0  0  0  0  0  0  0
   -5.3318    2.9018    0.0000 S    0  0  0  0  0  0  0  0  0  0  0  0
   -5.4947    1.5741    0.0000 C    0  0  0  0  0  0  0  0  0  0  0  0
   -1.0104    5.4655    0.0000 N    0  0  0  0  0  0  0  0  0  0  0  0
   -5.8955    2.3006    0.0000 C    0  0  0  0  0  0  0  0  0  0  0  0
   -3.8788    3.8079    0.0000 C    0  0  0  0  0  0  0  0  0  0  0  0
   -4.2546    0.3507    0.0000 C    0  0  0  0  0  0  0  0  0  0  0  0
   -1.7244    5.0521    0.0000 C    0  0  0  0  0  0  0  0  0  0  0  0
   -4.4300   -0.4551    0.0000 C    0  0  0  0  0  0  0  0  0  0  0  0
   -0.2964    5.0521    0.0000 O    0  0  0  0  0  0  0  0  0  0  0  0
   -3.1648    4.2212    0.0000 C    0  0  0  0  0  0  0  0  0  0  0  0
   -1.0146    6.2922    0.0000 O    0  0  0  0  0  0  0  0  0  0  0  0
   -5.9205    0.8726    0.0000 C    0  0  0  0  0  0  0  0  0  0  0  0
   -4.6053    4.2212    0.0000 O    0  0  0  0  0  0  0  0  0  0  0  0
   -4.0667    1.1607    0.0000 C    0  0  0  0  0  0  0  0  0  0  0  0
   -1.7244    4.2212    0.0000 C    0  0  0  0  0  0  0  0  0  0  0  0
   -2.4426    5.4530    0.0000 C    0  0  0  0  0  0  0  0  0  0  0  0
   -2.4426    3.8079    0.0000 C    0  0  0  0  0  0  0  0  0  0  0  0
   -3.1565    5.0396    0.0000 C    0  0  0  0  0  0  0  0  0  0  0  0
   -5.5197    0.1461    0.0000 Cl   0  0  0  0  0  0  0  0  0  0  0  0
   -6.7181    2.3131    0.0000 C    0  0  0  0  0  0  0  0  0  0  0  0
   -7.1440    1.6033    0.0000 C    0  0  0  0  0  0  0  0  0  0  0  0
   -6.7306    0.8768    0.0000 C    0  0  0  0  0  0  0  0  0  0  0  0
  2  1  2  0  0  0  0
  3  1  1  0  0  0  0
  4  1  1  0  0  0  0
  5  3  1  0  0  0  0
  6 10  1  0  0  0  0
  7  4  1  0  0  0  0
  7  5  2  0  0  0  0
  8  2  1  0  0  0  0
  9 17  1  0  0  0  0
 10 19  1  0  0  0  0
 10 18  2  0  0  0  0
 11  9  3  0  0  0  0
 12  6  1  0  0  0  0
 13  8  1  0  0  0  0
 14  6  2  0  0  0  0
 15  5  1  0  0  0  0
 16  8  2  0  0  0  0
 17  3  1  0  0  0  0
 18 20  1  0  0  0  0
 19 21  2  0  0  0  0
 20 13  2  0  0  0  0
 21 13  1  0  0  0  0
 22 15  1  0  0  0  0
 23  7  1  0  0  0  0
 24 23  2  0  0  0  0
 25 15  2  0  0  0  0
 25 24  1  0  0  0  0
M  END
> <CdId>
2497

> <Mol Weight>
371.798

> <Formula>
C17H10ClN3O3S

> <Click_ID>
CLK033_B03 __ __ 

$$$$
