CLK021_C08
 OpenBabel03191401532D

 21 23  0  0  0  0  0  0  0  0999 V2000
    3.9187    2.9059    0.0000 C   0  0  0  0  0  0  0  0  0  0  0  0
    3.8271    2.0854    0.0000 N   0  0  0  0  0  0  0  0  0  0  0  0
    3.1625    3.2404    0.0000 N   0  0  0  0  0  0  0  0  0  0  0  0
    2.6125    2.6309    0.0000 C   0  0  0  0  0  0  0  0  0  0  0  0
    3.0250    1.9112    0.0000 C   0  0  0  0  0  0  0  0  0  0  0  0
    4.6338    3.3184    0.0000 C   0  0  3  0  0  0  0  0  0  0  0  0
    2.2046    4.2991    0.0000 C   0  0  0  0  0  0  0  0  0  0  0  0
    1.4209    4.5512    0.0000 C   0  0  0  0  0  0  0  0  0  0  0  0
    5.3396    2.9059    0.0000 O   0  0  0  0  0  0  0  0  0  0  0  0
    2.9884    4.0425    0.0000 C   0  0  0  0  0  0  0  0  0  0  0  0
    6.0546    3.3184    0.0000 C   0  0  0  0  0  0  0  0  0  0  0  0
    1.7875    2.6309    0.0000 C   0  0  0  0  0  0  0  0  0  0  0  0
    2.6125    1.1962    0.0000 C   0  0  0  0  0  0  0  0  0  0  0  0
    4.6338    4.1434    0.0000 C   0  0  0  0  0  0  0  0  0  0  0  0
    6.7696    2.9059    0.0000 C   0  0  0  0  0  0  0  0  0  0  0  0
    6.0546    4.1434    0.0000 C   0  0  0  0  0  0  0  0  0  0  0  0
    1.3750    1.9112    0.0000 C   0  0  0  0  0  0  0  0  0  0  0  0
    1.7875    1.1962    0.0000 C   0  0  0  0  0  0  0  0  0  0  0  0
    6.7696    4.5421    0.0000 C   0  0  0  0  0  0  0  0  0  0  0  0
    7.4846    3.3184    0.0000 C   0  0  0  0  0  0  0  0  0  0  0  0
    7.4846    4.1434    0.0000 C   0  0  0  0  0  0  0  0  0  0  0  0
  2  1  2  0  0  0  0
  3  1  1  0  0  0  0
  4  3  1  0  0  0  0
  5  2  1  0  0  0  0
  5  4  1  0  0  0  0
  6  1  1  0  0  0  0
  7 10  1  0  0  0  0
  8  7  3  0  0  0  0
  9  6  1  0  0  0  0
 10  3  1  0  0  0  0
 11  9  1  0  0  0  0
 12  4  2  0  0  0  0
 13  5  2  0  0  0  0
 14  6  1  0  0  0  0
 15 11  1  0  0  0  0
 16 11  2  0  0  0  0
 17 12  1  0  0  0  0
 18 13  1  0  0  0  0
 18 17  2  0  0  0  0
 19 16  1  0  0  0  0
 20 15  2  0  0  0  0
 20 21  1  0  0  0  0
 21 19  2  0  0  0  0
M  END
> <CdId>
1583

> <Mol Weight>
276.3324

> <Formula>
C18H16N2O

> <Click_ID>
CLK021_C08 __ __ 

$$$$
