CLK050G08
 OpenBabel03191401532D

 21 22  0  0  0  0  0  0  0  0999 V2000
   -0.1375   -0.7833    0.0000 C   0  0  0  0  0  0  0  0  0  0  0  0
   -0.1375   -2.4333    0.0000 C   0  0  0  0  0  0  0  0  0  0  0  0
    0.5750   -2.0208    0.0000 C   0  0  0  0  0  0  0  0  0  0  0  0
   -0.8542   -2.0208    0.0000 C   0  0  0  0  0  0  0  0  0  0  0  0
   -0.8542   -1.1958    0.0000 C   0  0  0  0  0  0  0  0  0  0  0  0
    0.5750   -1.1958    0.0000 C   0  0  0  0  0  0  0  0  0  0  0  0
   -0.1375    0.0417    0.0000 C   0  0  0  0  0  0  0  0  0  0  0  0
   -0.8542    2.9292    0.0000 C   0  0  0  0  0  0  0  0  0  0  0  0
   -1.5667    3.3417    0.0000 C   0  0  0  0  0  0  0  0  0  0  0  0
    0.5750    0.4542    0.0000 N   0  0  0  0  0  0  0  0  0  0  0  0
   -0.1375   -3.2583    0.0000 F   0  0  0  0  0  0  0  0  0  0  0  0
    1.2917   -2.4333    0.0000 F   0  0  0  0  0  0  0  0  0  0  0  0
   -1.5667   -2.4333    0.0000 F   0  0  0  0  0  0  0  0  0  0  0  0
    1.2917   -0.7833    0.0000 F   0  0  0  0  0  0  0  0  0  0  0  0
   -1.5667   -0.7833    0.0000 F   0  0  0  0  0  0  0  0  0  0  0  0
   -0.1375    2.5167    0.0000 C   0  0  0  0  0  0  0  0  0  0  0  0
    0.5750    1.2792    0.0000 C   0  0  0  0  0  0  0  0  0  0  0  0
   -0.1375    1.6917    0.0000 C   0  0  0  0  0  0  0  0  0  0  0  0
    1.2917    2.5167    0.0000 C   0  0  0  0  0  0  0  0  0  0  0  0
    0.5750    2.9292    0.0000 C   0  0  0  0  0  0  0  0  0  0  0  0
    1.2917    1.6917    0.0000 C   0  0  0  0  0  0  0  0  0  0  0  0
  2  4  2  0  0  0  0
  3  6  2  0  0  0  0
  3  2  1  0  0  0  0
  4  5  1  0  0  0  0
  5  1  2  0  0  0  0
  6  1  1  0  0  0  0
  7  1  1  0  0  0  0
  8 16  1  0  0  0  0
  9  8  3  0  0  0  0
 10  7  1  0  0  0  0
 11  2  1  0  0  0  0
 12  3  1  0  0  0  0
 13  4  1  0  0  0  0
 14  6  1  0  0  0  0
 15  5  1  0  0  0  0
 16 18  1  0  0  0  0
 17 10  1  0  0  0  0
 18 17  2  0  0  0  0
 19 21  2  0  0  0  0
 20 16  2  0  0  0  0
 20 19  1  0  0  0  0
 21 17  1  0  0  0  0
M  END
> <CdId>
3863

> <Mol Weight>
297.2227

> <Formula>
C15H8F5N

> <Click_ID>
CLK050G08 __ __ 

$$$$
