CLK013_H03
 OpenBabel03191401532D

 28 30  0  0  0  0  0  0  0  0999 V2000
    5.6303   -2.0595    0.0000 N    0  0  0  0  0  0  0  0  0  0  0  0
    5.4975   -2.8774    0.0000 C    0  0  0  0  0  0  0  0  0  0  0  0
    4.8954   -1.6858    0.0000 C    0  0  0  0  0  0  0  0  0  0  0  0
    4.3099   -2.2671    0.0000 C    0  0  0  0  0  0  0  0  0  0  0  0
    4.6753   -3.0020    0.0000 S    0  0  0  0  0  0  0  0  0  0  0  0
    3.4920   -2.1342    0.0000 C    0  0  0  0  0  0  0  0  0  0  0  0
    1.9225   -4.0650    0.0000 C    0  0  0  0  0  0  0  0  0  0  0  0
    1.6235   -3.2802    0.0000 C    0  0  0  0  0  0  0  0  0  0  0  0
    2.7404   -4.1895    0.0000 C    0  0  0  0  0  0  0  0  0  0  0  0
    2.9688   -2.7820    0.0000 C    0  0  0  0  0  0  0  0  0  0  0  0
    6.3570   -1.6858    0.0000 C    0  0  0  0  0  0  0  0  0  0  0  0
    1.1751   -6.1161    0.0000 C    0  0  0  0  0  0  0  0  0  0  0  0
    0.6519   -6.7556    0.0000 C    0  0  0  0  0  0  0  0  0  0  0  0
    6.0787   -3.4546    0.0000 O    0  0  0  0  0  0  0  0  0  0  0  0
    4.7625   -0.8719    0.0000 O    0  0  0  0  0  0  0  0  0  0  0  0
    2.1467   -2.6408    0.0000 C    0  0  0  0  0  0  0  0  0  0  0  0
    3.2553   -3.5501    0.0000 C    0  0  0  0  0  0  0  0  0  0  0  0
    0.8139   -3.1432    0.0000 Cl   0  0  0  0  0  0  0  0  0  0  0  0
    1.3993   -4.7003    0.0000 O    0  0  0  0  0  0  0  0  0  0  0  0
    3.0311   -4.9577    0.0000 O    0  0  0  0  0  0  0  0  0  0  0  0
    7.0503   -2.1342    0.0000 C    0  0  0  0  0  0  0  0  0  0  0  0
    1.6858   -5.4726    0.0000 C    0  0  0  0  0  0  0  0  0  0  0  0
    3.8490   -5.0947    0.0000 C    0  0  0  0  0  0  0  0  0  0  0  0
    7.0005   -2.9564    0.0000 C    0  0  0  0  0  0  0  0  0  0  0  0
    7.7770   -1.7605    0.0000 C    0  0  0  0  0  0  0  0  0  0  0  0
    7.6856   -3.4048    0.0000 C    0  0  0  0  0  0  0  0  0  0  0  0
    8.4621   -2.2214    0.0000 C    0  0  0  0  0  0  0  0  0  0  0  0
    8.4205   -3.0394    0.0000 C    0  0  0  0  0  0  0  0  0  0  0  0
  2  1  1  0  0  0  0
  3  1  1  0  0  0  0
  4  3  1  0  0  0  0
  5  2  1  0  0  0  0
  5  4  1  0  0  0  0
  6  4  2  0  0  0  0
  7  9  1  0  0  0  0
  7  8  2  0  0  0  0
  8 16  1  0  0  0  0
  9 17  2  0  0  0  0
 10  6  1  0  0  0  0
 11  1  1  0  0  0  0
 12 22  1  0  0  0  0
 13 12  3  0  0  0  0
 14  2  2  0  0  0  0
 15  3  2  0  0  0  0
 16 10  2  0  0  0  0
 17 10  1  0  0  0  0
 18  8  1  0  0  0  0
 19  7  1  0  0  0  0
 20  9  1  0  0  0  0
 21 11  1  0  0  0  0
 22 19  1  0  0  0  0
 23 20  1  0  0  0  0
 24 21  2  0  0  0  0
 25 21  1  0  0  0  0
 26 24  1  0  0  0  0
 27 25  2  0  0  0  0
 28 27  1  0  0  0  0
 28 26  2  0  0  0  0
M  END
> <CdId>
988

> <Mol Weight>
413.874

> <Formula>
C21H16ClNO4S

> <Click_ID>
CLK013_H03 __ __ 

$$$$
