CLK014_A06
 OpenBabel03191401532D

 19 20  0  0  0  0  0  0  0  0999 V2000
    1.5650   -0.8158    0.0000 N    0  0  0  0  0  0  0  0  0  0  0  0
    1.8230   -1.6024    0.0000 C    0  0  0  0  0  0  0  0  0  0  0  0
    2.2350   -0.3288    0.0000 C    0  0  0  0  0  0  0  0  0  0  0  0
    2.9010   -0.8158    0.0000 C    0  0  0  0  0  0  0  0  0  0  0  0
    2.6470   -1.6024    0.0000 S    0  0  0  0  0  0  0  0  0  0  0  0
    3.6876   -0.5619    0.0000 C    0  0  0  0  0  0  0  0  0  0  0  0
    0.6118    0.2455    0.0000 C    0  0  0  0  0  0  0  0  0  0  0  0
    0.3913    1.0446    0.0000 C    0  0  0  0  0  0  0  0  0  0  0  0
    4.7988    1.3068    0.0000 C    0  0  0  0  0  0  0  0  0  0  0  0
    1.3360   -2.2642    0.0000 O    0  0  0  0  0  0  0  0  0  0  0  0
    2.2267    0.4952    0.0000 O    0  0  0  0  0  0  0  0  0  0  0  0
    3.8582    0.2372    0.0000 C    0  0  0  0  0  0  0  0  0  0  0  0
    0.7866   -0.5619    0.0000 C    0  0  0  0  0  0  0  0  0  0  0  0
    4.1995    1.8562    0.0000 C    0  0  0  0  0  0  0  0  0  0  0  0
    4.6323    0.5077    0.0000 C    0  0  0  0  0  0  0  0  0  0  0  0
    3.4129    1.5982    0.0000 C    0  0  0  0  0  0  0  0  0  0  0  0
    5.5813    1.5483    0.0000 Br   0  0  0  0  0  0  0  0  0  0  0  0
    3.2464    0.7991    0.0000 C    0  0  0  0  0  0  0  0  0  0  0  0
    4.3701    2.6553    0.0000 O    0  0  0  0  0  0  0  0  0  0  0  0
  2  1  1  0  0  0  0
  3  1  1  0  0  0  0
  4  3  1  0  0  0  0
  4  5  1  0  0  0  0
  5  2  1  0  0  0  0
  6  4  2  0  0  0  0
  7 13  1  0  0  0  0
  8  7  3  0  0  0  0
  9 15  1  0  0  0  0
  9 14  2  0  0  0  0
 10  2  2  0  0  0  0
 11  3  2  0  0  0  0
 12  6  1  0  0  0  0
 13  1  1  0  0  0  0
 14 16  1  0  0  0  0
 15 12  2  0  0  0  0
 16 18  2  0  0  0  0
 17  9  1  0  0  0  0
 18 12  1  0  0  0  0
 19 14  1  0  0  0  0
M  END
> <CdId>
1001

> <Mol Weight>
338.177

> <Formula>
C13H8BrNO3S

> <Click_ID>
CLK014_A06 __ __ 

$$$$
