CLK006_E06
 OpenBabel03191401532D

 28 31  0  0  0  0  0  0  0  0999 V2000
   -0.9736   -0.9154    0.0000 C   0  0  3  0  0  0  0  0  0  0  0  0
   -0.2746   -0.4119    0.0000 C   0  0  0  0  0  0  0  0  0  0  0  0
   -1.6394   -0.4286    0.0000 C   0  0  0  0  0  0  0  0  0  0  0  0
   -0.5575    0.3620    0.0000 C   0  0  0  0  0  0  0  0  0  0  0  0
   -0.2579   -1.3314    0.0000 C   0  0  0  0  0  0  0  0  0  0  0  0
   -1.3855    0.3578    0.0000 N   0  0  0  0  0  0  0  0  0  0  0  0
   -0.2496   -2.1594    0.0000 C   0  0  0  0  0  0  0  0  0  0  0  0
    0.5284   -0.5492    0.0000 C   0  0  0  0  0  0  0  0  0  0  0  0
   -0.9694   -2.5713    0.0000 O   0  0  0  0  0  0  0  0  0  0  0  0
   -1.6893   -1.3398    0.0000 C   0  0  0  0  0  0  0  0  0  0  0  0
   -1.6851   -2.1677    0.0000 C   0  0  0  0  0  0  0  0  0  0  0  0
    0.4576   -1.7475    0.0000 C   0  0  0  0  0  0  0  0  0  0  0  0
   -0.0374    0.9944    0.0000 C   0  0  0  0  0  0  0  0  0  0  0  0
    1.1691   -2.1594    0.0000 N   0  0  0  0  0  0  0  0  0  0  0  0
   -1.5311    1.7767    0.0000 C   0  0  0  0  0  0  0  0  0  0  0  0
    0.7739    0.8530    0.0000 C   0  0  0  0  0  0  0  0  0  0  0  0
    1.0610    0.0791    0.0000 C   0  0  0  0  0  0  0  0  0  0  0  0
   -1.1941    2.5297    0.0000 C   0  0  0  0  0  0  0  0  0  0  0  0
   -2.4715   -0.4369    0.0000 O   0  0  0  0  0  0  0  0  0  0  0  0
    1.1276   -1.1151    0.0000 O   0  0  0  0  0  0  0  0  0  0  0  0
   -1.8681    1.0277    0.0000 C   0  0  0  0  0  0  0  0  0  0  0  0
    0.4743   -2.5755    0.0000 N   0  0  0  0  0  0  0  0  0  0  0  0
   -2.4049   -0.9237    0.0000 C   0  0  0  0  0  0  0  0  0  0  0  0
   -2.3924   -2.5838    0.0000 C   0  0  0  0  0  0  0  0  0  0  0  0
    0.5575    1.6434    0.0000 C   0  0  0  0  0  0  0  0  0  0  0  0
    1.5686    0.6408    0.0000 C   0  0  0  0  0  0  0  0  0  0  0  0
   -3.1205   -1.3481    0.0000 C   0  0  0  0  0  0  0  0  0  0  0  0
   -3.1163   -2.1719    0.0000 C   0  0  0  0  0  0  0  0  0  0  0  0
  2  1  1  0  0  0  0
  3  1  1  0  0  0  0
  4  2  2  0  0  0  0
  5  1  1  0  0  0  0
  6  3  1  0  0  0  0
  6  4  1  0  0  0  0
  7  5  2  0  0  0  0
  8  2  1  0  0  0  0
  9 11  1  0  0  0  0
  9  7  1  0  0  0  0
 10  1  1  0  0  0  0
 11 10  1  0  0  0  0
 12  5  1  0  0  0  0
 13  4  1  0  0  0  0
 13 16  1  0  0  0  0
 14 12  3  0  0  0  0
 15 21  1  0  0  0  0
 16 17  1  0  0  0  0
 17  8  1  0  0  0  0
 18 15  3  0  0  0  0
 19  3  2  0  0  0  0
 20  8  2  0  0  0  0
 21  6  1  0  0  0  0
 22  7  1  0  0  0  0
 23 10  2  0  0  0  0
 24 11  2  0  0  0  0
 25 16  1  0  0  0  0
 26 16  1  0  0  0  0
 27 23  1  0  0  0  0
 28 27  2  0  0  0  0
 28 24  1  0  0  0  0
M  END
> <CdId>
445

> <Mol Weight>
373.4046

> <Formula>
C22H19N3O3

> <Click_ID>
CLK006_E06 __ __ 

$$$$
