CLK004_D08
 OpenBabel03191401532D

 22 24  0  0  0  0  0  0  0  0999 V2000
    0.3355   -0.5802    0.0000 C    0  0  0  0  0  0  0  0  0  0  0  0
    0.9136    0.0042    0.0000 C    0  0  0  0  0  0  0  0  0  0  0  0
   -0.4030   -0.2110    0.0000 N    0  0  0  0  0  0  0  0  0  0  0  0
    0.5570   -1.3693    0.0000 N    0  0  0  0  0  0  0  0  0  0  0  0
    1.7132   -0.2004    0.0000 C    0  0  0  0  0  0  0  0  0  0  0  0
    0.5359    0.7405    0.0000 N    0  0  0  0  0  0  0  0  0  0  0  0
   -1.1372   -0.5887    0.0000 C    0  0  0  0  0  0  0  0  0  0  0  0
   -0.2785    0.6034    0.0000 N    0  0  0  0  0  0  0  0  0  0  0  0
    1.3546   -1.5824    0.0000 C    0  0  0  0  0  0  0  0  0  0  0  0
    1.9326   -0.9917    0.0000 N    0  0  0  0  0  0  0  0  0  0  0  0
    2.2913    0.3903    0.0000 N    0  0  0  0  0  0  0  0  0  0  0  0
   -1.8314   -0.1540    0.0000 C    0  0  0  0  0  0  0  0  0  0  0  0
    3.0931    0.1815    0.0000 C    0  0  0  0  0  0  0  0  0  0  0  0
   -1.7976    0.6773    0.0000 C    0  0  0  0  0  0  0  0  0  0  0  0
   -2.5678   -0.5317    0.0000 C    0  0  0  0  0  0  0  0  0  0  0  0
    3.6733    0.7680    0.0000 C    0  0  0  0  0  0  0  0  0  0  0  0
   -2.4918    1.1203    0.0000 C    0  0  0  0  0  0  0  0  0  0  0  0
   -1.0613    1.0571    0.0000 F    0  0  0  0  0  0  0  0  0  0  0  0
   -3.2598   -0.0844    0.0000 C    0  0  0  0  0  0  0  0  0  0  0  0
   -2.6036   -1.3482    0.0000 Cl   0  0  0  0  0  0  0  0  0  0  0  0
    4.2514    1.3546    0.0000 C    0  0  0  0  0  0  0  0  0  0  0  0
   -3.2239    0.7405    0.0000 C    0  0  0  0  0  0  0  0  0  0  0  0
  1  2  1  0  0  0  0
  1  3  1  0  0  0  0
  1  4  2  0  0  0  0
  2  5  2  0  0  0  0
  2  6  1  0  0  0  0
  3  7  1  0  0  0  0
  3  8  1  0  0  0  0
  4  9  1  0  0  0  0
  5 10  1  0  0  0  0
  5 11  1  0  0  0  0
  6  8  2  0  0  0  0
  7 12  1  0  0  0  0
  9 10  2  0  0  0  0
 11 13  1  0  0  0  0
 12 14  2  0  0  0  0
 12 15  1  0  0  0  0
 13 16  1  0  0  0  0
 14 17  1  0  0  0  0
 14 18  1  0  0  0  0
 15 19  2  0  0  0  0
 15 20  1  0  0  0  0
 16 21  3  0  0  0  0
 17 22  2  0  0  0  0
 19 22  1  0  0  0  0
M  END
> <CdId>
277

> <Mol Weight>
316.721

> <Formula>
C14H10ClFN6

> <Click_ID>
CLK004_D08 __ __ 

$$$$
