CLK039G11
 OpenBabel03191401532D

 36 39  0  0  0  0  0  0  0  0999 V2000
   -1.5250   -1.5500    0.0000 C   0  0  0  0  0  0  0  0  0  0  0  0
   -1.0375   -2.2167    0.0000 C   0  0  0  0  0  0  0  0  0  0  0  0
   -1.5250   -2.8875    0.0000 N   0  0  0  0  0  0  0  0  0  0  0  0
    1.6208    3.5000    0.0000 S   0  0  0  0  0  0  0  0  0  0  0  0
   -2.3083   -1.8042    0.0000 C   0  0  0  0  0  0  0  0  0  0  0  0
   -2.3083   -2.6292    0.0000 C   0  0  0  0  0  0  0  0  0  0  0  0
   -1.2667   -0.7667    0.0000 C   0  0  0  0  0  0  0  0  0  0  0  0
    0.6000    0.3625    0.0000 C   0  0  0  0  0  0  0  0  0  0  0  0
    1.3667    2.7167    0.0000 C   0  0  0  0  0  0  0  0  0  0  0  0
    2.9375    5.2375    0.0000 C   0  0  0  0  0  0  0  0  0  0  0  0
    3.1917    6.0208    0.0000 C   0  0  0  0  0  0  0  0  0  0  0  0
    0.8375    3.7542    0.0000 O   0  0  0  0  0  0  0  0  0  0  0  0
    2.4042    3.2458    0.0000 O   0  0  0  0  0  0  0  0  0  0  0  0
   -0.2125   -2.2167    0.0000 C   0  0  0  0  0  0  0  0  0  0  0  0
   -0.2083    0.1875    0.0000 O   0  0  0  0  0  0  0  0  0  0  0  0
    0.8542    1.1458    0.0000 C   0  0  0  0  0  0  0  0  0  0  0  0
    1.8750    4.2792    0.0000 N   0  0  0  0  0  0  0  0  0  0  0  0
   -0.4625   -0.5958    0.0000 C   0  0  0  0  0  0  0  0  0  0  0  0
    1.1542   -0.2500    0.0000 O   0  0  0  0  0  0  0  0  0  0  0  0
   -1.8208   -0.1542    0.0000 O   0  0  0  0  0  0  0  0  0  0  0  0
    0.5583    2.5417    0.0000 C   0  0  0  0  0  0  0  0  0  0  0  0
    1.9167    2.1000    0.0000 C   0  0  0  0  0  0  0  0  0  0  0  0
    0.3042    1.7583    0.0000 C   0  0  0  0  0  0  0  0  0  0  0  0
    1.6625    1.3167    0.0000 C   0  0  0  0  0  0  0  0  0  0  0  0
   -1.2667   -3.6708    0.0000 C   0  0  0  0  0  0  0  0  0  0  0  0
   -3.0208   -1.3917    0.0000 C   0  0  0  0  0  0  0  0  0  0  0  0
    2.6833    4.4500    0.0000 C   0  0  0  0  0  0  0  0  0  0  0  0
   -3.0208   -3.0417    0.0000 C   0  0  0  0  0  0  0  0  0  0  0  0
    0.2000   -2.9333    0.0000 C   0  0  0  0  0  0  0  0  0  0  0  0
    0.2000   -1.5042    0.0000 C   0  0  0  0  0  0  0  0  0  0  0  0
   -0.4625   -3.8417    0.0000 C   0  0  0  0  0  0  0  0  0  0  0  0
   -3.7375   -1.8042    0.0000 C   0  0  0  0  0  0  0  0  0  0  0  0
   -3.7375   -2.6292    0.0000 C   0  0  0  0  0  0  0  0  0  0  0  0
    1.0250   -1.5042    0.0000 C   0  0  0  0  0  0  0  0  0  0  0  0
    1.0250   -2.9333    0.0000 C   0  0  0  0  0  0  0  0  0  0  0  0
    1.4375   -2.2167    0.0000 C   0  0  0  0  0  0  0  0  0  0  0  0
  2  1  2  0  0  0  0
  3  2  1  0  0  0  0
  4  9  1  0  0  0  0
  5  1  1  0  0  0  0
  6  5  2  0  0  0  0
  6  3  1  0  0  0  0
  7  1  1  0  0  0  0
  8 15  1  0  0  0  0
  9 21  2  0  0  0  0
  9 22  1  0  0  0  0
 10 27  1  0  0  0  0
 11 10  3  0  0  0  0
 12  4  2  0  0  0  0
 13  4  2  0  0  0  0
 14  2  1  0  0  0  0
 15 18  1  0  0  0  0
 16  8  1  0  0  0  0
 17  4  1  0  0  0  0
 18  7  1  0  0  0  0
 19  8  2  0  0  0  0
 20  7  2  0  0  0  0
 21 23  1  0  0  0  0
 22 24  2  0  0  0  0
 23 16  2  0  0  0  0
 24 16  1  0  0  0  0
 25  3  1  0  0  0  0
 26  5  1  0  0  0  0
 27 17  1  0  0  0  0
 28  6  1  0  0  0  0
 29 14  1  0  0  0  0
 30 14  2  0  0  0  0
 31 25  1  0  0  0  0
 32 26  2  0  0  0  0
 33 28  2  0  0  0  0
 33 32  1  0  0  0  0
 34 30  1  0  0  0  0
 35 29  2  0  0  0  0
 36 34  2  0  0  0  0
 36 35  1  0  0  0  0
M  END
> <CdId>
3007

> <Mol Weight>
500.566

> <Formula>
C28H24N2O5S

> <Click_ID>
CLK039G11 __ __ 

$$$$
