CLK043B09
 OpenBabel03191401532D

 26 28  0  0  0  0  0  0  0  0999 V2000
    0.3542   -2.1417    0.0000 S   0  0  0  0  0  0  0  0  0  0  0  0
    0.3542   -2.9667    0.0000 N   0  0  0  0  0  0  0  0  0  0  0  0
    0.3542    1.1583    0.0000 C   0  0  0  0  0  0  0  0  0  0  0  0
    0.3542   -1.3167    0.0000 C   0  0  0  0  0  0  0  0  0  0  0  0
   -0.3583    1.5708    0.0000 N   0  0  0  0  0  0  0  0  0  0  0  0
   -1.7875    4.0417    0.0000 C   0  0  0  0  0  0  0  0  0  0  0  0
   -0.4708   -2.1417    0.0000 O   0  0  0  0  0  0  0  0  0  0  0  0
    1.1792   -2.1417    0.0000 O   0  0  0  0  0  0  0  0  0  0  0  0
   -2.5042    4.4542    0.0000 C   0  0  0  0  0  0  0  0  0  0  0  0
    0.3542    0.3333    0.0000 C   0  0  0  0  0  0  0  0  0  0  0  0
    1.0708    1.5708    0.0000 O   0  0  0  0  0  0  0  0  0  0  0  0
   -0.3583    2.3958    0.0000 C   0  0  0  0  0  0  0  0  0  0  0  0
   -0.3583   -0.9042    0.0000 C   0  0  0  0  0  0  0  0  0  0  0  0
    1.0708   -0.9042    0.0000 C   0  0  0  0  0  0  0  0  0  0  0  0
   -0.3583   -0.0792    0.0000 C   0  0  0  0  0  0  0  0  0  0  0  0
    1.0708   -0.0792    0.0000 C   0  0  0  0  0  0  0  0  0  0  0  0
    0.3542   -4.6167    0.0000 O   0  0  0  0  0  0  0  0  0  0  0  0
   -0.3583   -3.3792    0.0000 C   0  0  0  0  0  0  0  0  0  0  0  0
    1.0708   -3.3792    0.0000 C   0  0  0  0  0  0  0  0  0  0  0  0
   -1.0750    3.6333    0.0000 C   0  0  0  0  0  0  0  0  0  0  0  0
   -1.0750    2.8083    0.0000 C   0  0  0  0  0  0  0  0  0  0  0  0
    1.0708   -4.2042    0.0000 C   0  0  0  0  0  0  0  0  0  0  0  0
   -0.3583   -4.2042    0.0000 C   0  0  0  0  0  0  0  0  0  0  0  0
    0.3542    3.6333    0.0000 C   0  0  0  0  0  0  0  0  0  0  0  0
    0.3542    2.8083    0.0000 C   0  0  0  0  0  0  0  0  0  0  0  0
   -0.3583    4.0417    0.0000 C   0  0  0  0  0  0  0  0  0  0  0  0
  2  1  1  0  0  0  0
  3 10  1  0  0  0  0
  4  1  1  0  0  0  0
  5  3  1  0  0  0  0
  6 20  1  0  0  0  0
  7  1  2  0  0  0  0
  8  1  2  0  0  0  0
  9  6  3  0  0  0  0
 10 16  2  0  0  0  0
 11  3  2  0  0  0  0
 12  5  1  0  0  0  0
 13  4  1  0  0  0  0
 14  4  2  0  0  0  0
 15 13  2  0  0  0  0
 15 10  1  0  0  0  0
 16 14  1  0  0  0  0
 17 22  1  0  0  0  0
 17 23  1  0  0  0  0
 18  2  1  0  0  0  0
 19  2  1  0  0  0  0
 20 21  1  0  0  0  0
 21 12  2  0  0  0  0
 22 19  1  0  0  0  0
 23 18  1  0  0  0  0
 24 25  2  0  0  0  0
 25 12  1  0  0  0  0
 26 20  2  0  0  0  0
 26 24  1  0  0  0  0
M  END
> <CdId>
3306

> <Mol Weight>
370.422

> <Formula>
C19H18N2O4S

> <Click_ID>
CLK043B09 __ __ 

$$$$
