CLK019_D10
 OpenBabel03191401532D

 35 39  0  0  0  0  0  0  0  0999 V2000
    5.7659    2.7041    0.0000 C   0  0  0  0  0  0  0  0  0  0  0  0
    5.7659    4.1204    0.0000 C   0  0  0  0  0  0  0  0  0  0  0  0
    4.5284    3.4054    0.0000 N   0  0  0  0  0  0  0  0  0  0  0  0
    4.9409    2.7041    0.0000 C   0  0  0  0  0  0  0  0  0  0  0  0
    4.9409    4.1204    0.0000 C   0  0  0  0  0  0  0  0  0  0  0  0
    6.1784    3.4054    0.0000 C   0  0  3  0  0  0  0  0  0  0  0  0
    7.0034    3.4054    0.0000 C   0  0  0  0  0  0  0  0  0  0  0  0
    6.1784    1.9800    0.0000 C   0  0  0  0  0  0  0  0  0  0  0  0
    6.1784    4.8309    0.0000 C   0  0  0  0  0  0  0  0  0  0  0  0
    3.7034    3.4054    0.0000 C   0  0  0  0  0  0  0  0  0  0  0  0
    7.4159    2.7041    0.0000 C   0  0  0  0  0  0  0  0  0  0  0  0
   10.7159    4.1204    0.0000 C   0  0  0  0  0  0  0  0  0  0  0  0
   11.5409    4.1204    0.0000 C   0  0  0  0  0  0  0  0  0  0  0  0
    8.2409    2.7041    0.0000 C   0  0  0  0  0  0  0  0  0  0  0  0
    7.4159    4.1204    0.0000 C   0  0  0  0  0  0  0  0  0  0  0  0
    8.6534    3.4054    0.0000 C   0  0  0  0  0  0  0  0  0  0  0  0
    7.0034    4.8309    0.0000 O   0  0  0  0  0  0  0  0  0  0  0  0
    7.0034    1.9800    0.0000 O   0  0  0  0  0  0  0  0  0  0  0  0
    8.2409    4.1204    0.0000 C   0  0  0  0  0  0  0  0  0  0  0  0
    3.2909    4.1204    0.0000 C   0  0  0  0  0  0  0  0  0  0  0  0
    3.2909    2.7041    0.0000 C   0  0  0  0  0  0  0  0  0  0  0  0
    4.5284    4.8309    0.0000 C   0  0  0  0  0  0  0  0  0  0  0  0
    4.5284    1.9800    0.0000 C   0  0  0  0  0  0  0  0  0  0  0  0
    2.0534    3.4054    0.0000 C   0  0  0  0  0  0  0  0  0  0  0  0
    8.6534    1.9800    0.0000 O   0  0  0  0  0  0  0  0  0  0  0  0
    2.4659    2.7041    0.0000 C   0  0  0  0  0  0  0  0  0  0  0  0
    2.4659    4.1204    0.0000 C   0  0  0  0  0  0  0  0  0  0  0  0
    1.2284    3.4054    0.0000 F   0  0  0  0  0  0  0  0  0  0  0  0
    9.4784    3.4054    0.0000 O   0  0  0  0  0  0  0  0  0  0  0  0
    9.8909    4.1204    0.0000 C   0  0  0  0  0  0  0  0  0  0  0  0
    5.7659    5.5459    0.0000 C   0  0  0  0  0  0  0  0  0  0  0  0
    5.7659    1.2650    0.0000 C   0  0  0  0  0  0  0  0  0  0  0  0
    4.9409    1.2650    0.0000 C   0  0  0  0  0  0  0  0  0  0  0  0
    4.9409    5.5459    0.0000 C   0  0  0  0  0  0  0  0  0  0  0  0
    8.2409    1.2650    0.0000 C   0  0  0  0  0  0  0  0  0  0  0  0
  2  6  1  0  0  0  0
  3  4  1  0  0  0  0
  3  5  1  0  0  0  0
  4  1  2  0  0  0  0
  5  2  2  0  0  0  0
  6  1  1  0  0  0  0
  7  6  1  0  0  0  0
  8  1  1  0  0  0  0
  9  2  1  0  0  0  0
 10  3  1  0  0  0  0
 11  7  2  0  0  0  0
 12 30  1  0  0  0  0
 13 12  3  0  0  0  0
 14 11  1  0  0  0  0
 14 16  2  0  0  0  0
 15  7  1  0  0  0  0
 16 19  1  0  0  0  0
 17  9  2  0  0  0  0
 18  8  2  0  0  0  0
 19 15  2  0  0  0  0
 20 10  2  0  0  0  0
 21 10  1  0  0  0  0
 22  5  1  0  0  0  0
 23  4  1  0  0  0  0
 24 26  1  0  0  0  0
 25 14  1  0  0  0  0
 26 21  2  0  0  0  0
 27 20  1  0  0  0  0
 27 24  2  0  0  0  0
 28 24  1  0  0  0  0
 29 16  1  0  0  0  0
 30 29  1  0  0  0  0
 31  9  1  0  0  0  0
 32  8  1  0  0  0  0
 33 32  1  0  0  0  0
 33 23  1  0  0  0  0
 34 31  1  0  0  0  0
 34 22  1  0  0  0  0
 35 25  1  0  0  0  0
M  END
> <CdId>
1435

> <Mol Weight>
471.5194

> <Formula>
C29H26FNO4

> <Click_ID>
CLK019_D10 __ __ 

$$$$
