CLK005_C02
 OpenBabel03191401532D

 28 31  0  0  0  0  0  0  0  0999 V2000
    0.3383   -0.1863    0.0000 C   0  0  3  0  0  0  0  0  0  0  0  0
    1.0567   -0.5892    0.0000 C   0  0  0  0  0  0  0  0  0  0  0  0
    0.3269    0.6348    0.0000 C   0  0  0  0  0  0  0  0  0  0  0  0
   -0.9427   -0.9503    0.0000 C   0  0  0  0  0  0  0  0  0  0  0  0
    1.7674   -0.1635    0.0000 C   0  0  0  0  0  0  0  0  0  0  0  0
    1.0643   -1.4026    0.0000 C   0  0  0  0  0  0  0  0  0  0  0  0
    1.0301    1.0529    0.0000 C   0  0  0  0  0  0  0  0  0  0  0  0
   -0.3915    1.0415    0.0000 C   0  0  0  0  0  0  0  0  0  0  0  0
   -1.6648   -0.5435    0.0000 C   0  0  0  0  0  0  0  0  0  0  0  0
   -0.9275   -1.7751    0.0000 C   0  0  0  0  0  0  0  0  0  0  0  0
    1.7523    0.6538    0.0000 N   0  0  0  0  0  0  0  0  0  0  0  0
    2.4897   -0.5740    0.0000 C   0  0  0  0  0  0  0  0  0  0  0  0
    1.7865   -1.8169    0.0000 C   0  0  0  0  0  0  0  0  0  0  0  0
    0.3497   -1.8398    0.0000 O   0  0  0  0  0  0  0  0  0  0  0  0
    1.0225    1.8891    0.0000 C   0  0  0  0  0  0  0  0  0  0  0  0
   -0.4029    1.8626    0.0000 C   0  0  0  0  0  0  0  0  0  0  0  0
   -1.1061    0.6234    0.0000 O   0  0  0  0  0  0  0  0  0  0  0  0
   -2.3757   -0.9617    0.0000 C   0  0  0  0  0  0  0  0  0  0  0  0
   -1.6724    0.2813    0.0000 O   0  0  0  0  0  0  0  0  0  0  0  0
   -1.6345   -2.2009    0.0000 C   0  0  0  0  0  0  0  0  0  0  0  0
    2.4631    1.0795    0.0000 C   0  0  0  0  0  0  0  0  0  0  0  0
    2.4973   -1.3988    0.0000 C   0  0  0  0  0  0  0  0  0  0  0  0
    0.2965    2.2807    0.0000 C   0  0  0  0  0  0  0  0  0  0  0  0
   -2.3605   -1.7979    0.0000 C   0  0  0  0  0  0  0  0  0  0  0  0
   -2.4023    0.6918    0.0000 C   0  0  0  0  0  0  0  0  0  0  0  0
    3.1853    0.6766    0.0000 C   0  0  0  0  0  0  0  0  0  0  0  0
   -2.4175    1.5167    0.0000 C   0  0  0  0  0  0  0  0  0  0  0  0
   -3.1321    1.9157    0.0000 C   0  0  0  0  0  0  0  0  0  0  0  0
  1  2  1  0  0  0  0
  1  3  1  0  0  0  0
  1  4  1  0  0  0  0
  2  5  2  0  0  0  0
  2  6  1  0  0  0  0
  3  7  2  0  0  0  0
  3  8  1  0  0  0  0
  4  9  1  0  0  0  0
  4 10  2  0  0  0  0
  5 11  1  0  0  0  0
  5 12  1  0  0  0  0
  6 13  1  0  0  0  0
  6 14  2  0  0  0  0
  7 15  1  0  0  0  0
  7 11  1  0  0  0  0
  8 16  1  0  0  0  0
  8 17  2  0  0  0  0
  9 18  2  0  0  0  0
  9 19  1  0  0  0  0
 10 20  1  0  0  0  0
 11 21  1  0  0  0  0
 12 22  1  0  0  0  0
 13 22  1  0  0  0  0
 15 23  1  0  0  0  0
 16 23  1  0  0  0  0
 18 24  1  0  0  0  0
 19 25  1  0  0  0  0
 20 24  2  0  0  0  0
 21 26  1  0  0  0  0
 25 27  1  0  0  0  0
 27 28  3  0  0  0  0
M  END
> <CdId>
341

> <Mol Weight>
375.4602

> <Formula>
C24H25NO3

> <Click_ID>
CLK005_C02 __ __ 

$$$$
