CLK038G03
 OpenBabel03191401532D

 23 23  0  0  0  0  0  0  0  0999 V2000
   -0.1875    0.3250    0.0000 C   0  0  0  0  0  0  0  0  0  0  0  0
   -0.9042    0.7375    0.0000 C   0  0  0  0  0  0  0  0  0  0  0  0
   -1.6167    0.3250    0.0000 N   0  3  0  0  0  0  0  0  0  0  0  0
   -0.1875   -0.5000    0.0000 C   0  0  0  0  0  0  0  0  0  0  0  0
   -0.9042    1.5625    0.0000 C   0  0  0  0  0  0  0  0  0  0  0  0
    0.5250    0.7375    0.0000 C   0  0  0  0  0  0  0  0  0  0  0  0
    0.5250   -0.9125    0.0000 N   0  0  0  0  0  0  0  0  0  0  0  0
   -0.1875    1.9750    0.0000 C   0  0  0  0  0  0  0  0  0  0  0  0
    0.5250   -2.5625    0.0000 C   0  0  0  0  0  0  0  0  0  0  0  0
    0.5250    1.5625    0.0000 C   0  0  0  0  0  0  0  0  0  0  0  0
    0.5250   -3.3875    0.0000 C   0  0  0  0  0  0  0  0  0  0  0  0
   -2.3333    0.7375    0.0000 O   0  5  0  0  0  0  0  0  0  0  0  0
    0.5250   -1.7375    0.0000 C   0  0  0  0  0  0  0  0  0  0  0  0
   -1.6167   -0.5000    0.0000 O   0  0  0  0  0  0  0  0  0  0  0  0
   -0.9042   -0.9125    0.0000 O   0  0  0  0  0  0  0  0  0  0  0  0
   -0.1875    2.8000    0.0000 O   0  0  0  0  0  0  0  0  0  0  0  0
    1.2417    1.9750    0.0000 O   0  0  0  0  0  0  0  0  0  0  0  0
    1.3500   -1.7375    0.0000 C   0  0  0  0  0  0  0  0  0  0  0  0
   -0.3000   -1.7375    0.0000 C   0  0  0  0  0  0  0  0  0  0  0  0
    0.5250    3.2125    0.0000 C   0  0  0  0  0  0  0  0  0  0  0  0
    1.9542    1.5625    0.0000 C   0  0  0  0  0  0  0  0  0  0  0  0
    1.7625   -2.4500    0.0000 C   0  0  0  0  0  0  0  0  0  0  0  0
   -0.7125   -1.0250    0.0000 C   0  0  0  0  0  0  0  0  0  0  0  0
  2  1  2  0  0  0  0
  3  2  1  0  0  0  0
  4  1  1  0  0  0  0
  5  2  1  0  0  0  0
  6  1  1  0  0  0  0
  7  4  1  0  0  0  0
  8  5  2  0  0  0  0
  8 10  1  0  0  0  0
  9 13  1  0  0  0  0
 10  6  2  0  0  0  0
 11  9  3  0  0  0  0
 12  3  1  0  0  0  0
 13  7  1  0  0  0  0
 14  3  2  0  0  0  0
 15  4  2  0  0  0  0
 16  8  1  0  0  0  0
 17 10  1  0  0  0  0
 18 13  1  0  0  0  0
 19 13  1  0  0  0  0
 20 16  1  0  0  0  0
 21 17  1  0  0  0  0
 22 18  1  0  0  0  0
 23 19  1  0  0  0  0
M  END
> <CdId>
2863

> <Mol Weight>
320.3404

> <Formula>
C16H20N2O5

> <Click_ID>
CLK038G03 __ __ 

$$$$
