CLK017_H08
 OpenBabel03191401532D

 21 22  0  0  0  0  0  0  0  0999 V2000
    3.3941   -1.6929    0.0000 N   0  0  0  0  0  0  0  0  0  0  0  0
    4.2095   -1.6929    0.0000 C   0  0  0  0  0  0  0  0  0  0  0  0
    3.1334   -2.4752    0.0000 C   0  0  0  0  0  0  0  0  0  0  0  0
    3.7915   -2.9719    0.0000 C   0  0  0  0  0  0  0  0  0  0  0  0
    4.4620   -2.4835    0.0000 S   0  0  0  0  0  0  0  0  0  0  0  0
    3.7915   -3.7915    0.0000 C   0  0  0  0  0  0  0  0  0  0  0  0
    8.0879   -5.4512    0.0000 C   0  0  0  0  0  0  0  0  0  0  0  0
    8.8039   -5.8652    0.0000 C   0  0  0  0  0  0  0  0  0  0  0  0
    4.6980   -1.0348    0.0000 O   0  0  0  0  0  0  0  0  0  0  0  0
    2.3469   -2.7318    0.0000 O   0  0  0  0  0  0  0  0  0  0  0  0
    2.9098   -1.0306    0.0000 C   0  0  0  0  0  0  0  0  0  0  0  0
    4.5117   -4.2095    0.0000 C   0  0  0  0  0  0  0  0  0  0  0  0
    3.2451   -0.2774    0.0000 C   0  0  0  0  0  0  0  0  0  0  0  0
    2.7608    0.3932    0.0000 C   0  0  0  0  0  0  0  0  0  0  0  0
    5.9479   -5.0415    0.0000 C   0  0  0  0  0  0  0  0  0  0  0  0
    5.2277   -3.7997    0.0000 C   0  0  0  0  0  0  0  0  0  0  0  0
    4.5075   -5.0415    0.0000 C   0  0  0  0  0  0  0  0  0  0  0  0
    5.9397   -4.2137    0.0000 C   0  0  0  0  0  0  0  0  0  0  0  0
    5.2195   -5.4554    0.0000 C   0  0  0  0  0  0  0  0  0  0  0  0
    7.3759   -5.0456    0.0000 C   0  0  0  0  0  0  0  0  0  0  0  0
    6.6599   -5.4554    0.0000 O   0  0  0  0  0  0  0  0  0  0  0  0
  2  1  1  0  0  0  0
  3  1  1  0  0  0  0
  4  3  1  0  0  0  0
  5  2  1  0  0  0  0
  5  4  1  0  0  0  0
  6  4  2  0  0  0  0
  7 20  1  0  0  0  0
  8  7  3  0  0  0  0
  9  2  2  0  0  0  0
 10  3  2  0  0  0  0
 11  1  1  0  0  0  0
 12  6  1  0  0  0  0
 13 11  1  0  0  0  0
 14 13  2  0  0  0  0
 15 19  2  0  0  0  0
 16 12  1  0  0  0  0
 17 12  2  0  0  0  0
 18 16  2  0  0  0  0
 18 15  1  0  0  0  0
 19 17  1  0  0  0  0
 20 21  1  0  0  0  0
 21 15  1  0  0  0  0
M  END
> <CdId>
1313

> <Mol Weight>
299.344

> <Formula>
C16H13NO3S

> <Click_ID>
CLK017_H08 __ __ 

$$$$
