CLK005_G02
 OpenBabel03191401532D

 27 29  0  0  0  0  0  0  0  0999 V2000
   -0.7938   -0.0622    0.0000 C    0  0  3  0  0  0  0  0  0  0  0  0
   -0.7973    0.7662    0.0000 C    0  0  0  0  0  0  0  0  0  0  0  0
   -0.0794   -0.4728    0.0000 C    0  0  0  0  0  0  0  0  0  0  0  0
   -1.5048   -0.4659    0.0000 C    0  0  0  0  0  0  0  0  0  0  0  0
   -1.5117    1.1735    0.0000 C    0  0  0  0  0  0  0  0  0  0  0  0
   -0.0829    1.1770    0.0000 C    0  0  0  0  0  0  0  0  0  0  0  0
    0.6316   -0.0622    0.0000 C    0  0  0  0  0  0  0  0  0  0  0  0
   -0.0829   -1.3046    0.0000 C    0  0  0  0  0  0  0  0  0  0  0  0
   -2.2193   -0.0517    0.0000 C    0  0  0  0  0  0  0  0  0  0  0  0
   -1.5048   -1.2909    0.0000 C    0  0  0  0  0  0  0  0  0  0  0  0
   -2.2193    0.7593    0.0000 O    0  0  0  0  0  0  0  0  0  0  0  0
   -1.5186    1.9985    0.0000 C    0  0  0  0  0  0  0  0  0  0  0  0
   -0.0932    2.0053    0.0000 C    0  0  0  0  0  0  0  0  0  0  0  0
    0.6282    0.7662    0.0000 O    0  0  0  0  0  0  0  0  0  0  0  0
    1.3530   -0.4728    0.0000 C    0  0  0  0  0  0  0  0  0  0  0  0
    0.6316   -1.7154    0.0000 C    0  0  0  0  0  0  0  0  0  0  0  0
   -2.9337   -0.4659    0.0000 N    0  0  0  0  0  0  0  0  0  0  0  0
   -1.5048   -2.1158    0.0000 N    0  0  0  0  0  0  0  0  0  0  0  0
   -0.8111    2.4126    0.0000 C    0  0  0  0  0  0  0  0  0  0  0  0
    1.3599   -1.3046    0.0000 C    0  0  0  0  0  0  0  0  0  0  0  0
    2.0709   -0.0656    0.0000 Cl   0  0  0  0  0  0  0  0  0  0  0  0
   -0.0932    2.8267    0.0000 C    0  0  0  0  0  0  0  0  0  0  0  0
   -1.5221    2.8267    0.0000 C    0  0  0  0  0  0  0  0  0  0  0  0
    2.0709   -1.7154    0.0000 O    0  0  0  0  0  0  0  0  0  0  0  0
    2.7923   -1.3046    0.0000 C    0  0  0  0  0  0  0  0  0  0  0  0
    3.5067   -1.7154    0.0000 C    0  0  0  0  0  0  0  0  0  0  0  0
    4.2246   -2.1296    0.0000 C    0  0  0  0  0  0  0  0  0  0  0  0
  1  2  1  0  0  0  0
  1  3  1  0  0  0  0
  1  4  1  0  0  0  0
  2  5  2  0  0  0  0
  2  6  1  0  0  0  0
  3  7  1  0  0  0  0
  3  8  2  0  0  0  0
  4  9  2  0  0  0  0
  4 10  1  0  0  0  0
  5 11  1  0  0  0  0
  5 12  1  0  0  0  0
  6 13  1  0  0  0  0
  6 14  2  0  0  0  0
  7 15  2  0  0  0  0
  8 16  1  0  0  0  0
  9 17  1  0  0  0  0
  9 11  1  0  0  0  0
 10 18  3  0  0  0  0
 12 19  1  0  0  0  0
 13 19  1  0  0  0  0
 15 20  1  0  0  0  0
 15 21  1  0  0  0  0
 16 20  2  0  0  0  0
 19 22  1  0  0  0  0
 19 23  1  0  0  0  0
 20 24  1  0  0  0  0
 24 25  1  0  0  0  0
 25 26  1  0  0  0  0
 26 27  3  0  0  0  0
M  END
> <CdId>
381

> <Mol Weight>
382.84

> <Formula>
C21H19ClN2O3

> <Click_ID>
CLK005_G02 __ __ 

$$$$
