CLK010_F07
 OpenBabel03191401532D

 30 32  0  0  0  0  0  0  0  0999 V2000
    2.4969   -0.6764    0.0000 N   0  0  0  0  0  0  0  0  0  0  0  0
    3.1983   -1.9165    0.0000 C   0  0  0  0  0  0  0  0  0  0  0  0
    2.4927   -1.5031    0.0000 C   0  0  0  0  0  0  0  0  0  0  0  0
    3.2108   -0.2630    0.0000 C   0  0  0  0  0  0  0  0  0  0  0  0
    3.9248   -0.6806    0.0000 N   0  0  0  0  0  0  0  0  0  0  0  0
    3.9206   -1.5073    0.0000 C   0  0  0  0  0  0  0  0  0  0  0  0
    1.7787   -0.2630    0.0000 C   0  0  0  0  0  0  0  0  0  0  0  0
    3.1983   -2.7432    0.0000 C   0  0  0  0  0  0  0  0  0  0  0  0
    6.7389   -5.6409    0.0000 C   0  0  0  0  0  0  0  0  0  0  0  0
    3.2108    0.5637    0.0000 O   0  0  0  0  0  0  0  0  0  0  0  0
    7.4446   -6.0625    0.0000 C   0  0  0  0  0  0  0  0  0  0  0  0
    1.7704   -1.9081    0.0000 O   0  0  0  0  0  0  0  0  0  0  0  0
    5.3360   -3.1607    0.0000 C   0  0  0  0  0  0  0  0  0  0  0  0
    1.0564   -0.6764    0.0000 C   0  0  0  0  0  0  0  0  0  0  0  0
    1.7787    0.5720    0.0000 C   0  0  0  0  0  0  0  0  0  0  0  0
    4.6346   -1.9207    0.0000 O   0  0  0  0  0  0  0  0  0  0  0  0
    3.9081   -3.1482    0.0000 C   0  0  0  0  0  0  0  0  0  0  0  0
    4.6263   -2.7474    0.0000 C   0  0  0  0  0  0  0  0  0  0  0  0
    5.3277   -3.9749    0.0000 C   0  0  0  0  0  0  0  0  0  0  0  0
    0.3424   -0.2630    0.0000 C   0  0  0  0  0  0  0  0  0  0  0  0
    1.0564    0.9853    0.0000 C   0  0  0  0  0  0  0  0  0  0  0  0
    4.6137   -4.3758    0.0000 C   0  0  0  0  0  0  0  0  0  0  0  0
    0.3424    0.5720    0.0000 C   0  0  0  0  0  0  0  0  0  0  0  0
    3.9081   -3.9624    0.0000 C   0  0  0  0  0  0  0  0  0  0  0  0
    6.0417   -2.7599    0.0000 O   0  0  0  0  0  0  0  0  0  0  0  0
    6.0375   -4.3883    0.0000 O   0  0  0  0  0  0  0  0  0  0  0  0
    6.0292   -5.2150    0.0000 C   0  0  0  0  0  0  0  0  0  0  0  0
   -0.3758   -0.6764    0.0000 C   0  0  0  0  0  0  0  0  0  0  0  0
    1.0564    1.8120    0.0000 C   0  0  0  0  0  0  0  0  0  0  0  0
    6.0500   -1.9415    0.0000 C   0  0  0  0  0  0  0  0  0  0  0  0
  2  3  1  0  0  0  0
  2  6  1  0  0  0  0
  3  1  1  0  0  0  0
  4  1  1  0  0  0  0
  5  4  1  0  0  0  0
  6  5  1  0  0  0  0
  7  1  1  0  0  0  0
  8  2  2  0  0  0  0
  9 27  1  0  0  0  0
 10  4  2  0  0  0  0
 11  9  3  0  0  0  0
 12  3  2  0  0  0  0
 13 18  1  0  0  0  0
 13 19  2  0  0  0  0
 14  7  1  0  0  0  0
 15  7  2  0  0  0  0
 16  6  2  0  0  0  0
 17  8  1  0  0  0  0
 18 17  2  0  0  0  0
 19 22  1  0  0  0  0
 20 14  2  0  0  0  0
 21 15  1  0  0  0  0
 22 24  2  0  0  0  0
 23 21  2  0  0  0  0
 23 20  1  0  0  0  0
 24 17  1  0  0  0  0
 25 13  1  0  0  0  0
 26 19  1  0  0  0  0
 27 26  1  0  0  0  0
 28 20  1  0  0  0  0
 29 21  1  0  0  0  0
 30 25  1  0  0  0  0
M  END
> <CdId>
732

> <Mol Weight>
404.4153

> <Formula>
C23H20N2O5

> <Click_ID>
CLK010_F07 __ __ 

$$$$
