CLK033_C07
 OpenBabel03191401532D

 29 31  0  0  0  0  0  0  0  0999 V2000
   -4.6057    2.5624    0.0000 C   0  0  0  0  0  0  0  0  0  0  0  0
   -3.8897    2.9853    0.0000 N   0  0  0  0  0  0  0  0  0  0  0  0
   -4.6978    1.7418    0.0000 N   0  0  0  0  0  0  0  0  0  0  0  0
   -5.3468    2.9099    0.0000 S   0  0  0  0  0  0  0  0  0  0  0  0
   -5.5100    1.5785    0.0000 C   0  0  0  0  0  0  0  0  0  0  0  0
   -5.9120    2.3070    0.0000 C   0  0  0  0  0  0  0  0  0  0  0  0
   -3.8897    3.8185    0.0000 C   0  0  0  0  0  0  0  0  0  0  0  0
   -3.1737    4.2330    0.0000 C   0  0  0  0  0  0  0  0  0  0  0  0
   -1.7543    5.0412    0.0000 C   0  0  0  0  0  0  0  0  0  0  0  0
   -2.4577    5.4557    0.0000 C   0  0  0  0  0  0  0  0  0  0  0  0
   -1.7543    4.2330    0.0000 C   0  0  0  0  0  0  0  0  0  0  0  0
   -6.7369    2.3196    0.0000 C   0  0  0  0  0  0  0  0  0  0  0  0
   -3.1737    5.0495    0.0000 C   0  0  0  0  0  0  0  0  0  0  0  0
   -2.4703    3.8269    0.0000 C   0  0  0  0  0  0  0  0  0  0  0  0
   -4.2665    0.3517    0.0000 C   0  0  0  0  0  0  0  0  0  0  0  0
   -4.4424   -0.4564    0.0000 C   0  0  0  0  0  0  0  0  0  0  0  0
   -5.9371    0.8750    0.0000 C   0  0  0  0  0  0  0  0  0  0  0  0
   -7.1640    1.6078    0.0000 C   0  0  0  0  0  0  0  0  0  0  0  0
   -4.6182    4.2330    0.0000 O   0  0  0  0  0  0  0  0  0  0  0  0
   -6.7495    0.8876    0.0000 C   0  0  0  0  0  0  0  0  0  0  0  0
   -4.0781    1.1682    0.0000 C   0  0  0  0  0  0  0  0  0  0  0  0
   -1.0383    5.4431    0.0000 O   0  0  0  0  0  0  0  0  0  0  0  0
   -1.0509    3.8269    0.0000 O   0  0  0  0  0  0  0  0  0  0  0  0
   -2.4620    6.2805    0.0000 O   0  0  0  0  0  0  0  0  0  0  0  0
   -7.1389    3.0481    0.0000 C   0  0  0  0  0  0  0  0  0  0  0  0
   -7.1514    0.1591    0.0000 C   0  0  0  0  0  0  0  0  0  0  0  0
   -0.1340    5.1291    0.0000 C   0  0  0  0  0  0  0  0  0  0  0  0
   -1.0509    3.0104    0.0000 C   0  0  0  0  0  0  0  0  0  0  0  0
   -1.7543    6.6867    0.0000 C   0  0  0  0  0  0  0  0  0  0  0  0
  2  1  2  0  0  0  0
  3  1  1  0  0  0  0
  4  1  1  0  0  0  0
  5  3  1  0  0  0  0
  6  4  1  0  0  0  0
  6  5  2  0  0  0  0
  7  2  1  0  0  0  0
  8  7  1  0  0  0  0
  9 11  2  0  0  0  0
  9 10  1  0  0  0  0
 10 13  2  0  0  0  0
 11 14  1  0  0  0  0
 12  6  1  0  0  0  0
 13  8  1  0  0  0  0
 14  8  2  0  0  0  0
 15 21  1  0  0  0  0
 16 15  3  0  0  0  0
 17  5  1  0  0  0  0
 18 12  2  0  0  0  0
 19  7  2  0  0  0  0
 20 17  2  0  0  0  0
 20 18  1  0  0  0  0
 21  3  1  0  0  0  0
 22  9  1  0  0  0  0
 23 11  1  0  0  0  0
 24 10  1  0  0  0  0
 25 12  1  0  0  0  0
 26 20  1  0  0  0  0
 27 22  1  0  0  0  0
 28 23  1  0  0  0  0
 29 24  1  0  0  0  0
M  END
> <CdId>
2511

> <Mol Weight>
410.486

> <Formula>
C22H22N2O4S

> <Click_ID>
CLK033_C07 __ __ 

$$$$
