CLK005_B11
 OpenBabel03191401532D

 19 20  0  0  0  0  0  0  0  0999 V2000
    1.3163    0.0694    0.0000 C   0  0  0  0  0  0  0  0  0  0  0  0
   -0.1175    0.0694    0.0000 C   0  0  0  0  0  0  0  0  0  0  0  0
    0.6007    0.4779    0.0000 C   0  0  0  0  0  0  0  0  0  0  0  0
   -1.5459    0.0694    0.0000 C   0  0  0  0  0  0  0  0  0  0  0  0
   -0.8303    0.4779    0.0000 N   0  0  0  0  0  0  0  0  0  0  0  0
    0.6007   -1.1721    0.0000 N   0  0  0  0  0  0  0  0  0  0  0  0
   -3.6978    0.4779    0.0000 C   0  0  0  0  0  0  0  0  0  0  0  0
    1.3163   -0.7556    0.0000 C   0  0  0  0  0  0  0  0  0  0  0  0
   -4.4000    0.8944    0.0000 C   0  0  0  0  0  0  0  0  0  0  0  0
   -0.1175   -0.7556    0.0000 C   0  0  0  0  0  0  0  0  0  0  0  0
    2.0291    0.4779    0.0000 C   0  0  0  0  0  0  0  0  0  0  0  0
   -1.5459   -0.7556    0.0000 O   0  0  0  0  0  0  0  0  0  0  0  0
   -2.2641    0.4779    0.0000 N   0  0  0  0  0  0  0  0  0  0  0  0
    2.0291   -1.1721    0.0000 C   0  0  0  0  0  0  0  0  0  0  0  0
    0.6007    1.3056    0.0000 O   0  0  0  0  0  0  0  0  0  0  0  0
    2.7473    0.0694    0.0000 C   0  0  0  0  0  0  0  0  0  0  0  0
    2.7473   -0.7556    0.0000 C   0  0  0  0  0  0  0  0  0  0  0  0
   -2.9769    0.0694    0.0000 C   0  0  0  0  0  0  0  0  0  0  0  0
    3.4629    0.4779    0.0000 C   0  0  0  0  0  0  0  0  0  0  0  0
  2  3  2  0  0  0  0
  3  1  1  0  0  0  0
  4  5  1  0  0  0  0
  5  2  1  0  0  0  0
  6  8  1  0  0  0  0
  7 18  1  0  0  0  0
  8  1  1  0  0  0  0
  9  7  3  0  0  0  0
 10  6  2  0  0  0  0
 10  2  1  0  0  0  0
 11  1  2  0  0  0  0
 12  4  2  0  0  0  0
 13  4  1  0  0  0  0
 14  8  2  0  0  0  0
 15  3  1  0  0  0  0
 16 11  1  0  0  0  0
 17 16  2  0  0  0  0
 17 14  1  0  0  0  0
 18 13  1  0  0  0  0
 19 16  1  0  0  0  0
M  END
> <CdId>
340

> <Mol Weight>
255.2719

> <Formula>
C14H13N3O2

> <Click_ID>
CLK005_B11 __ __ 

$$$$
