CLK013_A09
 OpenBabel03191401532D

 29 31  0  0  0  0  0  0  0  0999 V2000
    5.3211   -1.3896    0.0000 N    0  0  0  0  0  0  0  0  0  0  0  0
    5.1921   -2.2091    0.0000 C    0  0  0  0  0  0  0  0  0  0  0  0
    4.5847   -1.0152    0.0000 C    0  0  0  0  0  0  0  0  0  0  0  0
    3.9981   -1.5976    0.0000 C    0  0  0  0  0  0  0  0  0  0  0  0
    4.3726   -2.3381    0.0000 S    0  0  0  0  0  0  0  0  0  0  0  0
    6.0575   -1.0152    0.0000 C    0  0  0  0  0  0  0  0  0  0  0  0
    3.1869   -1.4645    0.0000 C    0  0  0  0  0  0  0  0  0  0  0  0
    1.6101   -3.3990    0.0000 C    0  0  0  0  0  0  0  0  0  0  0  0
    1.3147   -2.6127    0.0000 C    0  0  0  0  0  0  0  0  0  0  0  0
    6.7440   -1.4728    0.0000 C    0  0  0  0  0  0  0  0  0  0  0  0
    2.4255   -3.5238    0.0000 C    0  0  0  0  0  0  0  0  0  0  0  0
    2.6627   -2.1135    0.0000 C    0  0  0  0  0  0  0  0  0  0  0  0
    0.8612   -5.4584    0.0000 C    0  0  0  0  0  0  0  0  0  0  0  0
    0.3412   -6.0949    0.0000 C    0  0  0  0  0  0  0  0  0  0  0  0
    5.7704   -2.7958    0.0000 O    0  0  0  0  0  0  0  0  0  0  0  0
    4.4599   -0.1997    0.0000 O    0  0  0  0  0  0  0  0  0  0  0  0
    1.8389   -1.9762    0.0000 C    0  0  0  0  0  0  0  0  0  0  0  0
    2.9497   -2.8831    0.0000 C    0  0  0  0  0  0  0  0  0  0  0  0
    7.4803   -1.0983    0.0000 C    0  0  0  0  0  0  0  0  0  0  0  0
    0.5034   -2.4837    0.0000 Cl   0  0  0  0  0  0  0  0  0  0  0  0
    1.0858   -4.0356    0.0000 O    0  0  0  0  0  0  0  0  0  0  0  0
    2.7209   -4.2935    0.0000 O    0  0  0  0  0  0  0  0  0  0  0  0
    7.5261   -0.2746    0.0000 Cl   0  0  0  0  0  0  0  0  0  0  0  0
    1.3771   -4.8094    0.0000 C    0  0  0  0  0  0  0  0  0  0  0  0
    6.6940   -2.2882    0.0000 C    0  0  0  0  0  0  0  0  0  0  0  0
    8.1668   -1.5518    0.0000 C    0  0  0  0  0  0  0  0  0  0  0  0
    3.5363   -4.4308    0.0000 C    0  0  0  0  0  0  0  0  0  0  0  0
    7.3805   -2.7375    0.0000 C    0  0  0  0  0  0  0  0  0  0  0  0
    8.1169   -2.3756    0.0000 C    0  0  0  0  0  0  0  0  0  0  0  0
  2  1  1  0  0  0  0
  3  1  1  0  0  0  0
  4  3  1  0  0  0  0
  5  2  1  0  0  0  0
  5  4  1  0  0  0  0
  6  1  1  0  0  0  0
  7  4  2  0  0  0  0
  8 11  1  0  0  0  0
  8  9  2  0  0  0  0
  9 17  1  0  0  0  0
 10  6  1  0  0  0  0
 11 18  2  0  0  0  0
 12  7  1  0  0  0  0
 13 24  1  0  0  0  0
 14 13  3  0  0  0  0
 15  2  2  0  0  0  0
 16  3  2  0  0  0  0
 17 12  2  0  0  0  0
 18 12  1  0  0  0  0
 19 10  1  0  0  0  0
 20  9  1  0  0  0  0
 21  8  1  0  0  0  0
 22 11  1  0  0  0  0
 23 19  1  0  0  0  0
 24 21  1  0  0  0  0
 25 10  2  0  0  0  0
 26 19  2  0  0  0  0
 27 22  1  0  0  0  0
 28 25  1  0  0  0  0
 29 28  2  0  0  0  0
 29 26  1  0  0  0  0
M  END
> <CdId>
924

> <Mol Weight>
448.319

> <Formula>
C21H15Cl2NO4S

> <Click_ID>
CLK013_A09 __ __ 

$$$$
