CLK042F04
 OpenBabel03191401532D

 22 25  0  0  0  0  0  0  0  0999 V2000
   -0.2667    0.5833    0.0000 C   0  0  0  0  0  0  0  0  0  0  0  0
   -0.7500    1.2500    0.0000 N   0  0  0  0  0  0  0  0  0  0  0  0
   -0.7500   -0.0833    0.0000 N   0  0  0  0  0  0  0  0  0  0  0  0
    0.5583    0.5833    0.0000 C   0  0  3  0  0  0  0  0  0  0  0  0
    1.8292    0.1708    0.0000 N   0  0  0  0  0  0  0  0  0  0  0  0
    1.8292    0.9958    0.0000 C   0  0  0  0  0  0  0  0  0  0  0  0
   -1.5375    0.1708    0.0000 C   0  0  0  0  0  0  0  0  0  0  0  0
   -1.5375    0.9958    0.0000 C   0  0  0  0  0  0  0  0  0  0  0  0
    1.0417   -0.0833    0.0000 C   0  0  0  0  0  0  0  0  0  0  0  0
    1.0417    1.2500    0.0000 C   0  0  0  0  0  0  0  0  0  0  0  0
   -1.0500   -1.4833    0.0000 C   0  0  0  0  0  0  0  0  0  0  0  0
    2.4958   -0.3167    0.0000 C   0  0  0  0  0  0  0  0  0  0  0  0
   -1.6000   -2.0958    0.0000 C   0  0  0  0  0  0  0  0  0  0  0  0
    2.4083   -1.1333    0.0000 C   0  0  0  0  0  0  0  0  0  0  0  0
    2.7458   -1.8875    0.0000 C   0  0  0  0  0  0  0  0  0  0  0  0
    1.9250   -1.8042    0.0000 C   0  0  0  0  0  0  0  0  0  0  0  0
    2.4958    1.4792    0.0000 O   0  0  0  0  0  0  0  0  0  0  0  0
   -0.4958   -0.8708    0.0000 C   0  0  0  0  0  0  0  0  0  0  0  0
   -2.2500   -0.2417    0.0000 C   0  0  0  0  0  0  0  0  0  0  0  0
   -2.2500    1.4083    0.0000 C   0  0  0  0  0  0  0  0  0  0  0  0
   -2.9667    0.1708    0.0000 C   0  0  0  0  0  0  0  0  0  0  0  0
   -2.9667    0.9958    0.0000 C   0  0  0  0  0  0  0  0  0  0  0  0
  2  1  2  0  0  0  0
  3  1  1  0  0  0  0
  4  1  1  0  0  0  0
  5  9  1  0  0  0  0
  5  6  1  0  0  0  0
  6 10  1  0  0  0  0
  7  3  1  0  0  0  0
  7  8  2  0  0  0  0
  8  2  1  0  0  0  0
  9  4  1  0  0  0  0
 10  4  1  0  0  0  0
 11 18  1  0  0  0  0
 12  5  1  0  0  0  0
 13 11  3  0  0  0  0
 14 12  1  0  0  0  0
 15 14  1  0  0  0  0
 15 16  1  0  0  0  0
 16 14  1  0  0  0  0
 17  6  2  0  0  0  0
 18  3  1  0  0  0  0
 19  7  1  0  0  0  0
 20  8  1  0  0  0  0
 21 19  2  0  0  0  0
 21 22  1  0  0  0  0
 22 20  2  0  0  0  0
M  END
> <CdId>
3190

> <Mol Weight>
293.363

> <Formula>
C18H19N3O

> <Click_ID>
CLK042F04 __ __ 

$$$$
