CLK041C09
 OpenBabel03191401532D

 23 24  0  0  0  0  0  0  0  0999 V2000
   -0.0417    1.9542    0.0000 N   0  0  0  0  0  0  0  0  0  0  0  0
    0.4417    1.2875    0.0000 C   0  0  0  0  0  0  0  0  0  0  0  0
    1.2250    1.5417    0.0000 N   0  0  0  0  0  0  0  0  0  0  0  0
    1.2250    2.3667    0.0000 N   0  0  0  0  0  0  0  0  0  0  0  0
    0.4417    2.6250    0.0000 C   0  0  0  0  0  0  0  0  0  0  0  0
    0.5250   -3.0750    0.0000 C   0  0  0  0  0  0  0  0  0  0  0  0
    0.1875    0.5042    0.0000 S   0  0  0  0  0  0  0  0  0  0  0  0
    0.2708   -3.8625    0.0000 C   0  0  0  0  0  0  0  0  0  0  0  0
    0.4833   -0.8958    0.0000 C   0  0  0  0  0  0  0  0  0  0  0  0
   -0.8667    1.9542    0.0000 C   0  0  0  0  0  0  0  0  0  0  0  0
    1.0375   -1.5083    0.0000 N   0  0  0  0  0  0  0  0  0  0  0  0
    0.7792   -2.2917    0.0000 C   0  0  0  0  0  0  0  0  0  0  0  0
   -0.3250   -1.0667    0.0000 O   0  0  0  0  0  0  0  0  0  0  0  0
    0.7375   -0.1083    0.0000 C   0  0  0  0  0  0  0  0  0  0  0  0
   -0.0042   -2.0375    0.0000 C   0  0  0  0  0  0  0  0  0  0  0  0
    1.5667   -2.5458    0.0000 C   0  0  0  0  0  0  0  0  0  0  0  0
   -1.2792    2.6708    0.0000 C   0  0  0  0  0  0  0  0  0  0  0  0
   -1.2792    1.2417    0.0000 C   0  0  0  0  0  0  0  0  0  0  0  0
   -0.1750   -1.2292    0.0000 C   0  0  0  0  0  0  0  0  0  0  0  0
    1.7375   -3.3542    0.0000 C   0  0  0  0  0  0  0  0  0  0  0  0
   -2.1042    1.2417    0.0000 C   0  0  0  0  0  0  0  0  0  0  0  0
   -2.1042    2.6708    0.0000 C   0  0  0  0  0  0  0  0  0  0  0  0
   -2.5167    1.9542    0.0000 C   0  0  0  0  0  0  0  0  0  0  0  0
  2  1  1  0  0  0  0
  3  2  2  0  0  0  0
  4  5  2  0  0  0  0
  4  3  1  0  0  0  0
  5  1  1  0  0  0  0
  6 12  1  0  0  0  0
  7  2  1  0  0  0  0
  8  6  3  0  0  0  0
  9 14  1  0  0  0  0
 10  1  1  0  0  0  0
 11  9  1  0  0  0  0
 12 11  1  0  0  0  0
 13  9  2  0  0  0  0
 14  7  1  0  0  0  0
 15 12  1  0  0  0  0
 16 12  1  0  0  0  0
 17 10  1  0  0  0  0
 18 10  2  0  0  0  0
 19 15  1  0  0  0  0
 20 16  1  0  0  0  0
 21 18  1  0  0  0  0
 22 17  2  0  0  0  0
 23 21  2  0  0  0  0
 23 22  1  0  0  0  0
M  END
> <CdId>
3147

> <Mol Weight>
328.432

> <Formula>
C17H20N4OS

> <Click_ID>
CLK041C09 __ __ 

$$$$
