CLK041C04
 OpenBabel03191401532D

 25 26  0  0  0  0  0  0  0  0999 V2000
   -0.6292    1.9167    0.0000 C    0  0  0  0  0  0  0  0  0  0  0  0
   -0.6292    1.0917    0.0000 N    0  0  0  0  0  0  0  0  0  0  0  0
   -0.6292   -1.3833    0.0000 C    0  0  0  0  0  0  0  0  0  0  0  0
    0.0833   -1.7958    0.0000 N    0  0  0  0  0  0  0  0  0  0  0  0
    0.0833   -3.4458    0.0000 C    0  0  0  0  0  0  0  0  0  0  0  0
    0.0833   -4.2708    0.0000 C    0  0  0  0  0  0  0  0  0  0  0  0
    0.0833    2.3292    0.0000 C    0  0  0  0  0  0  0  0  0  0  0  0
    0.0833   -2.6208    0.0000 C    0  0  0  0  0  0  0  0  0  0  0  0
   -0.6292   -0.5583    0.0000 C    0  0  0  0  0  0  0  0  0  0  0  0
    0.0833    0.6792    0.0000 C    0  0  0  0  0  0  0  0  0  0  0  0
   -1.3458    0.6792    0.0000 C    0  0  0  0  0  0  0  0  0  0  0  0
   -1.3458    2.3292    0.0000 O    0  0  0  0  0  0  0  0  0  0  0  0
   -1.3458   -1.7958    0.0000 O    0  0  0  0  0  0  0  0  0  0  0  0
   -1.3458   -0.1458    0.0000 C    0  0  0  0  0  0  0  0  0  0  0  0
    0.0833   -0.1458    0.0000 C    0  0  0  0  0  0  0  0  0  0  0  0
    0.8000    1.9167    0.0000 C    0  0  0  0  0  0  0  0  0  0  0  0
    0.0833    3.1542    0.0000 C    0  0  0  0  0  0  0  0  0  0  0  0
    1.5125    3.1542    0.0000 C    0  0  0  0  0  0  0  0  0  0  0  0
    0.8000    3.5667    0.0000 C    0  0  0  0  0  0  0  0  0  0  0  0
    1.5125    2.3292    0.0000 C    0  0  0  0  0  0  0  0  0  0  0  0
    2.2250    3.5667    0.0000 Cl   0  0  0  0  0  0  0  0  0  0  0  0
    0.9083   -2.6208    0.0000 C    0  0  0  0  0  0  0  0  0  0  0  0
   -0.7417   -2.6208    0.0000 C    0  0  0  0  0  0  0  0  0  0  0  0
    1.3208   -3.3375    0.0000 C    0  0  0  0  0  0  0  0  0  0  0  0
   -1.1542   -1.9083    0.0000 C    0  0  0  0  0  0  0  0  0  0  0  0
  2  1  1  0  0  0  0
  3  9  1  0  0  0  0
  4  3  1  0  0  0  0
  5  8  1  0  0  0  0
  6  5  3  0  0  0  0
  7  1  1  0  0  0  0
  8  4  1  0  0  0  0
  9 14  1  0  0  0  0
 10  2  1  0  0  0  0
 11  2  1  0  0  0  0
 12  1  2  0  0  0  0
 13  3  2  0  0  0  0
 14 11  1  0  0  0  0
 15 10  1  0  0  0  0
 15  9  1  0  0  0  0
 16  7  1  0  0  0  0
 17  7  2  0  0  0  0
 18 19  2  0  0  0  0
 18 20  1  0  0  0  0
 19 17  1  0  0  0  0
 20 16  2  0  0  0  0
 21 18  1  0  0  0  0
 22  8  1  0  0  0  0
 23  8  1  0  0  0  0
 24 22  1  0  0  0  0
 25 23  1  0  0  0  0
M  END
> <CdId>
3107

> <Mol Weight>
360.878

> <Formula>
C20H25ClN2O2

> <Click_ID>
CLK041C04 __ __ 

$$$$
