CLK005_C04
 OpenBabel03191401532D

 23 25  0  0  0  0  0  0  0  0999 V2000
   -1.6039   -0.0416    0.0000 C   0  0  0  0  0  0  0  0  0  0  0  0
   -1.1916   -0.7551    0.0000 C   0  0  0  0  0  0  0  0  0  0  0  0
   -1.1916    0.6824    0.0000 C   0  0  0  0  0  0  0  0  0  0  0  0
   -2.4282   -0.0277    0.0000 C   0  0  0  0  0  0  0  0  0  0  0  0
   -0.3533   -0.7551    0.0000 C   0  0  0  0  0  0  0  0  0  0  0  0
   -1.6107   -1.4583    0.0000 C   0  0  0  0  0  0  0  0  0  0  0  0
   -0.3568    0.6893    0.0000 C   0  0  0  0  0  0  0  0  0  0  0  0
   -1.6004    1.3995    0.0000 C   0  0  0  0  0  0  0  0  0  0  0  0
   -2.8474   -0.7378    0.0000 C   0  0  0  0  0  0  0  0  0  0  0  0
   -2.8405    0.6893    0.0000 C   0  0  0  0  0  0  0  0  0  0  0  0
    0.0624   -0.0347    0.0000 N   0  0  0  0  0  0  0  0  0  0  0  0
    0.0555   -1.4722    0.0000 O   0  0  0  0  0  0  0  0  0  0  0  0
   -2.4387   -1.4549    0.0000 C   0  0  0  0  0  0  0  0  0  0  0  0
    0.0519    1.4064    0.0000 O   0  0  0  0  0  0  0  0  0  0  0  0
   -2.4213    1.3995    0.0000 C   0  0  0  0  0  0  0  0  0  0  0  0
    0.8868   -0.0347    0.0000 C   0  0  0  0  0  0  0  0  0  0  0  0
    1.2956    0.6790    0.0000 C   0  0  0  0  0  0  0  0  0  0  0  0
    2.1234    0.6790    0.0000 C   0  0  0  0  0  0  0  0  0  0  0  0
    2.5391   -0.0277    0.0000 O   0  0  0  0  0  0  0  0  0  0  0  0
    2.5356    1.3995    0.0000 O   0  0  0  0  0  0  0  0  0  0  0  0
    3.3670   -0.0277    0.0000 C   0  0  0  0  0  0  0  0  0  0  0  0
    3.7827   -0.7378    0.0000 C   0  0  0  0  0  0  0  0  0  0  0  0
    4.1880   -1.4549    0.0000 C   0  0  0  0  0  0  0  0  0  0  0  0
  1  2  2  0  0  0  0
  1  3  1  0  0  0  0
  1  4  1  0  0  0  0
  2  5  1  0  0  0  0
  2  6  1  0  0  0  0
  3  7  1  0  0  0  0
  3  8  2  0  0  0  0
  4  9  2  0  0  0  0
  4 10  1  0  0  0  0
  5 11  1  0  0  0  0
  5 12  2  0  0  0  0
  6 13  2  0  0  0  0
  7 14  2  0  0  0  0
  7 11  1  0  0  0  0
  8 15  1  0  0  0  0
  9 13  1  0  0  0  0
 10 15  2  0  0  0  0
 11 16  1  0  0  0  0
 16 17  1  0  0  0  0
 17 18  1  0  0  0  0
 18 19  1  0  0  0  0
 18 20  2  0  0  0  0
 19 21  1  0  0  0  0
 21 22  1  0  0  0  0
 22 23  3  0  0  0  0
M  END
> <CdId>
343

> <Mol Weight>
307.3001

> <Formula>
C18H13NO4

> <Click_ID>
CLK005_C04 __ __ 

$$$$
