CLK001_B07
 OpenBabel03191401532D

 18 20  0  0  0  0  0  0  0  0999 V2000
   -1.1878   -0.3215    0.0000 C   0  0  0  0  0  0  0  0  0  0  0  0
   -0.7755    0.3934    0.0000 C   0  0  0  0  0  0  0  0  0  0  0  0
   -2.0086   -0.3215    0.0000 C   0  0  0  0  0  0  0  0  0  0  0  0
   -0.7755   -1.0327    0.0000 C   0  0  0  0  0  0  0  0  0  0  0  0
    0.0454    0.3972    0.0000 C   0  0  0  0  0  0  0  0  0  0  0  0
   -1.1915    1.1083    0.0000 C   0  0  0  0  0  0  0  0  0  0  0  0
   -2.4246    0.3934    0.0000 C   0  0  0  0  0  0  0  0  0  0  0  0
   -2.4209   -1.0327    0.0000 C   0  0  0  0  0  0  0  0  0  0  0  0
   -1.1878   -1.7476    0.0000 C   0  0  0  0  0  0  0  0  0  0  0  0
    0.8700    0.3972    0.0000 C   0  0  0  0  0  0  0  0  0  0  0  0
   -2.0237    1.1083    0.0000 C   0  0  0  0  0  0  0  0  0  0  0  0
   -2.0086   -1.7476    0.0000 C   0  0  0  0  0  0  0  0  0  0  0  0
    1.6909    0.3972    0.0000 C   0  0  0  0  0  0  0  0  0  0  0  0
    2.1031   -0.3178    0.0000 C   0  0  0  0  0  0  0  0  0  0  0  0
    2.1031    1.1197    0.0000 C   0  0  0  0  0  0  0  0  0  0  0  0
    2.9278   -0.3178    0.0000 C   0  0  0  0  0  0  0  0  0  0  0  0
    2.9278    1.1197    0.0000 C   0  0  0  0  0  0  0  0  0  0  0  0
    3.3476    0.3972    0.0000 C   0  0  0  0  0  0  0  0  0  0  0  0
  1  2  1  0  0  0  0
  1  3  1  0  0  0  0
  1  4  2  0  0  0  0
  2  5  1  0  0  0  0
  2  6  2  0  0  0  0
  3  7  1  0  0  0  0
  3  8  2  0  0  0  0
  4  9  1  0  0  0  0
  5 10  3  0  0  0  0
  6 11  1  0  0  0  0
  7 11  2  0  0  0  0
  8 12  1  0  0  0  0
  9 12  2  0  0  0  0
 10 13  1  0  0  0  0
 13 14  1  0  0  0  0
 13 15  2  0  0  0  0
 14 16  2  0  0  0  0
 15 17  1  0  0  0  0
 16 18  1  0  0  0  0
 17 18  2  0  0  0  0
M  END
> <CdId>
16

> <Mol Weight>
228.2879

> <Formula>
C18H12

> <Click_ID>
CLK001_B07 __ __ 

$$$$
