CLK016_C03
 OpenBabel03191401532D

 31 33  0  0  0  0  0  0  0  0999 V2000
    1.5759   -0.8215    0.0000 N   0  0  0  0  0  0  0  0  0  0  0  0
    1.8357   -1.6136    0.0000 C   0  0  0  0  0  0  0  0  0  0  0  0
    2.2507   -0.3311    0.0000 C   0  0  0  0  0  0  0  0  0  0  0  0
    2.9213   -0.8215    0.0000 C   0  0  0  0  0  0  0  0  0  0  0  0
    2.6656   -1.6136    0.0000 S   0  0  0  0  0  0  0  0  0  0  0  0
    3.7134   -0.5658    0.0000 C   0  0  0  0  0  0  0  0  0  0  0  0
    5.9892    6.0521    0.0000 C   0  0  0  0  0  0  0  0  0  0  0  0
    0.6161    0.2472    0.0000 C   0  0  0  0  0  0  0  0  0  0  0  0
    0.3940    1.0520    0.0000 C   0  0  0  0  0  0  0  0  0  0  0  0
    1.3454   -2.2800    0.0000 O   0  0  0  0  0  0  0  0  0  0  0  0
    3.4703    1.5968    0.0000 C   0  0  0  0  0  0  0  0  0  0  0  0
    2.2423    0.4987    0.0000 O   0  0  0  0  0  0  0  0  0  0  0  0
    5.8006    5.2600    0.0000 C   0  0  0  0  0  0  0  0  0  0  0  0
    4.2624    1.8357    0.0000 C   0  0  0  0  0  0  0  0  0  0  0  0
    3.8894    0.2347    0.0000 C   0  0  0  0  0  0  0  0  0  0  0  0
    0.7921   -0.5658    0.0000 C   0  0  0  0  0  0  0  0  0  0  0  0
    3.2859    0.7879    0.0000 C   0  0  0  0  0  0  0  0  0  0  0  0
    4.4510    2.6362    0.0000 O   0  0  0  0  0  0  0  0  0  0  0  0
    5.3983    6.6305    0.0000 O   0  0  0  0  0  0  0  0  0  0  0  0
    4.8450    1.2783    0.0000 C   0  0  0  0  0  0  0  0  0  0  0  0
    5.0085    5.0294    0.0000 C   0  0  0  0  0  0  0  0  0  0  0  0
    6.3999    4.6941    0.0000 C   0  0  0  0  0  0  0  0  0  0  0  0
    6.7814    6.2993    0.0000 O   0  0  0  0  0  0  0  0  0  0  0  0
    4.6690    0.4778    0.0000 C   0  0  0  0  0  0  0  0  0  0  0  0
    5.2222    2.8668    0.0000 C   0  0  0  0  0  0  0  0  0  0  0  0
    5.4234    3.6798    0.0000 C   0  0  0  0  0  0  0  0  0  0  0  0
    4.8199    4.2247    0.0000 C   0  0  0  0  0  0  0  0  0  0  0  0
    6.2113    3.9061    0.0000 C   0  0  0  0  0  0  0  0  0  0  0  0
    2.8710    2.1458    0.0000 O   0  0  0  0  0  0  0  0  0  0  0  0
    2.0914    1.9070    0.0000 C   0  0  0  0  0  0  0  0  0  0  0  0
    1.4879    2.4728    0.0000 C   0  0  0  0  0  0  0  0  0  0  0  0
  2  1  1  0  0  0  0
  3  1  1  0  0  0  0
  4  3  1  0  0  0  0
  4  5  1  0  0  0  0
  5  2  1  0  0  0  0
  6  4  2  0  0  0  0
  7 13  1  0  0  0  0
  8 16  1  0  0  0  0
  9  8  3  0  0  0  0
 10  2  2  0  0  0  0
 11 17  1  0  0  0  0
 12  3  2  0  0  0  0
 13 22  2  0  0  0  0
 13 21  1  0  0  0  0
 14 20  1  0  0  0  0
 14 11  2  0  0  0  0
 15  6  1  0  0  0  0
 16  1  1  0  0  0  0
 17 15  2  0  0  0  0
 18 14  1  0  0  0  0
 19  7  2  0  0  0  0
 20 24  2  0  0  0  0
 21 27  2  0  0  0  0
 22 28  1  0  0  0  0
 23  7  1  0  0  0  0
 24 15  1  0  0  0  0
 25 18  1  0  0  0  0
 26 25  1  0  0  0  0
 27 26  1  0  0  0  0
 28 26  2  0  0  0  0
 29 11  1  0  0  0  0
 30 29  1  0  0  0  0
 31 30  1  0  0  0  0
M  END
> <CdId>
1178

> <Mol Weight>
437.465

> <Formula>
C23H19NO6S

> <Click_ID>
CLK016_C03 __ __ 

$$$$
