CLK004_F04
 OpenBabel03191401532D

 23 25  0  0  0  0  0  0  0  0999 V2000
   -0.0082   -0.2556    0.0000 C   0  0  0  0  0  0  0  0  0  0  0  0
    0.4947    0.3978    0.0000 C   0  0  0  0  0  0  0  0  0  0  0  0
   -0.7832    0.0268    0.0000 N   0  0  0  0  0  0  0  0  0  0  0  0
    0.3030   -1.0099    0.0000 N   0  0  0  0  0  0  0  0  0  0  0  0
    1.3129    0.2865    0.0000 C   0  0  0  0  0  0  0  0  0  0  0  0
    0.0350    1.0841    0.0000 N   0  0  0  0  0  0  0  0  0  0  0  0
   -1.4654   -0.4349    0.0000 C   0  0  0  0  0  0  0  0  0  0  0  0
   -0.7585    0.8512    0.0000 N   0  0  0  0  0  0  0  0  0  0  0  0
    1.1191   -1.1191    0.0000 C   0  0  0  0  0  0  0  0  0  0  0  0
    1.6262   -0.4761    0.0000 N   0  0  0  0  0  0  0  0  0  0  0  0
    1.8137    0.9398    0.0000 N   0  0  0  0  0  0  0  0  0  0  0  0
   -2.2074   -0.0763    0.0000 C   0  0  0  0  0  0  0  0  0  0  0  0
    1.4283   -1.8859    0.0000 C   0  0  0  0  0  0  0  0  0  0  0  0
    2.6361    0.8306    0.0000 C   0  0  0  0  0  0  0  0  0  0  0  0
   -2.2693    0.7481    0.0000 C   0  0  0  0  0  0  0  0  0  0  0  0
   -2.8916   -0.5400    0.0000 C   0  0  0  0  0  0  0  0  0  0  0  0
    2.2465   -1.9992    0.0000 C   0  0  0  0  0  0  0  0  0  0  0  0
    0.9254   -2.5392    0.0000 C   0  0  0  0  0  0  0  0  0  0  0  0
    3.1390    1.4799    0.0000 C   0  0  0  0  0  0  0  0  0  0  0  0
   -3.0112    1.1047    0.0000 C   0  0  0  0  0  0  0  0  0  0  0  0
   -3.6336   -0.1793    0.0000 C   0  0  0  0  0  0  0  0  0  0  0  0
    3.6460    2.1332    0.0000 C   0  0  0  0  0  0  0  0  0  0  0  0
   -3.6914    0.6369    0.0000 C   0  0  0  0  0  0  0  0  0  0  0  0
  1  2  1  0  0  0  0
  1  3  1  0  0  0  0
  1  4  2  0  0  0  0
  2  5  2  0  0  0  0
  2  6  1  0  0  0  0
  3  7  1  0  0  0  0
  3  8  1  0  0  0  0
  4  9  1  0  0  0  0
  5 10  1  0  0  0  0
  5 11  1  0  0  0  0
  6  8  2  0  0  0  0
  7 12  1  0  0  0  0
  9 13  1  0  0  0  0
  9 10  2  0  0  0  0
 11 14  1  0  0  0  0
 12 15  2  0  0  0  0
 12 16  1  0  0  0  0
 13 17  1  0  0  0  0
 13 18  1  0  0  0  0
 14 19  1  0  0  0  0
 15 20  1  0  0  0  0
 16 21  2  0  0  0  0
 19 22  3  0  0  0  0
 20 23  2  0  0  0  0
 21 23  1  0  0  0  0
M  END
> <CdId>
293

> <Mol Weight>
306.365

> <Formula>
C17H18N6

> <Click_ID>
CLK004_F04 __ __ 

$$$$
