CLK022_H04
 OpenBabel03191401532D

 17 18  0  0  0  0  0  0  0  0999 V2000
    2.4461    1.4017    0.0000 C   0  0  0  0  0  0  0  0  0  0  0  0
    2.0339    2.1163    0.0000 N   0  0  0  0  0  0  0  0  0  0  0  0
    6.9811    2.1163    0.0000 C   0  0  0  0  0  0  0  0  0  0  0  0
    7.8057    2.1163    0.0000 C   0  0  0  0  0  0  0  0  0  0  0  0
    3.2707    1.4017    0.0000 C   0  0  0  0  0  0  0  0  0  0  0  0
    2.0339    0.6871    0.0000 O   0  0  0  0  0  0  0  0  0  0  0  0
    3.6830    0.6871    0.0000 C   0  0  0  0  0  0  0  0  0  0  0  0
    3.6830    2.1163    0.0000 C   0  0  0  0  0  0  0  0  0  0  0  0
    4.9198    1.4017    0.0000 C   0  0  0  0  0  0  0  0  0  0  0  0
    4.5075    0.6871    0.0000 C   0  0  0  0  0  0  0  0  0  0  0  0
    4.5075    2.1163    0.0000 C   0  0  0  0  0  0  0  0  0  0  0  0
    2.3683    2.8722    0.0000 C   0  0  0  0  0  0  0  0  0  0  0  0
    1.2139    2.2079    0.0000 C   0  0  0  0  0  0  0  0  0  0  0  0
    6.1566    2.1163    0.0000 C   0  0  0  0  0  0  0  0  0  0  0  0
    5.7443    1.4017    0.0000 O   0  0  0  0  0  0  0  0  0  0  0  0
    1.7499    3.4218    0.0000 C   0  0  0  0  0  0  0  0  0  0  0  0
    1.0353    3.0096    0.0000 C   0  0  0  0  0  0  0  0  0  0  0  0
  2  1  1  0  0  0  0
  3 14  1  0  0  0  0
  4  3  3  0  0  0  0
  5  1  1  0  0  0  0
  6  1  2  0  0  0  0
  7  5  2  0  0  0  0
  8  5  1  0  0  0  0
  9 11  1  0  0  0  0
  9 10  2  0  0  0  0
 10  7  1  0  0  0  0
 11  8  2  0  0  0  0
 12  2  1  0  0  0  0
 13  2  1  0  0  0  0
 14 15  1  0  0  0  0
 15  9  1  0  0  0  0
 16 12  1  0  0  0  0
 17 13  1  0  0  0  0
 17 16  1  0  0  0  0
M  END
> <CdId>
1692

> <Mol Weight>
229.2744

> <Formula>
C14H15NO2

> <Click_ID>
CLK022_H04 __ __ 

$$$$
