CLK043C06
 OpenBabel03191401532D

 30 33  0  0  0  0  0  0  0  0999 V2000
    1.5708   -2.0750    0.0000 S   0  0  0  0  0  0  0  0  0  0  0  0
    0.2708    0.6000    0.0000 N   0  0  0  0  0  0  0  0  0  0  0  0
   -0.3417    0.0500    0.0000 C   0  0  0  0  0  0  0  0  0  0  0  0
    0.1875    1.4208    0.0000 C   0  0  3  0  0  0  0  0  0  0  0  0
   -0.1708   -0.7583    0.0000 C   0  0  0  0  0  0  0  0  0  0  0  0
   -0.5292    1.8333    0.0000 C   0  0  0  0  0  0  0  0  0  0  0  0
    0.7875   -1.8208    0.0000 C   0  0  0  0  0  0  0  0  0  0  0  0
   -1.9583    1.8333    0.0000 C   0  0  0  0  0  0  0  0  0  0  0  0
    0.6167   -1.0125    0.0000 C   0  0  0  0  0  0  0  0  0  0  0  0
   -1.2417    1.4208    0.0000 C   0  0  0  0  0  0  0  0  0  0  0  0
    3.3125   -3.3917    0.0000 C   0  0  0  0  0  0  0  0  0  0  0  0
    4.0958   -3.6458    0.0000 C   0  0  0  0  0  0  0  0  0  0  0  0
    1.8250   -1.2917    0.0000 O   0  0  0  0  0  0  0  0  0  0  0  0
    1.3167   -2.8583    0.0000 O   0  0  0  0  0  0  0  0  0  0  0  0
   -1.9583    2.6583    0.0000 C   0  0  0  0  0  0  0  0  0  0  0  0
    2.3542   -2.3292    0.0000 N   0  0  0  0  0  0  0  0  0  0  0  0
   -1.1250    0.3042    0.0000 O   0  0  0  0  0  0  0  0  0  0  0  0
   -2.6708    1.4208    0.0000 O   0  0  0  0  0  0  0  0  0  0  0  0
   -0.5292    2.6583    0.0000 C   0  0  0  0  0  0  0  0  0  0  0  0
   -2.6708    3.0708    0.0000 O   0  0  0  0  0  0  0  0  0  0  0  0
   -1.2417    3.0708    0.0000 C   0  0  0  0  0  0  0  0  0  0  0  0
    1.0792    0.4292    0.0000 C   0  0  0  0  0  0  0  0  0  0  0  0
    2.5292   -3.1375    0.0000 C   0  0  0  0  0  0  0  0  0  0  0  0
    0.9375    1.7583    0.0000 C   0  0  0  0  0  0  0  0  0  0  0  0
   -0.7833   -1.3083    0.0000 C   0  0  0  0  0  0  0  0  0  0  0  0
    0.1750   -2.3708    0.0000 C   0  0  0  0  0  0  0  0  0  0  0  0
    1.4917    1.1458    0.0000 C   0  0  0  0  0  0  0  0  0  0  0  0
   -0.6125   -2.1167    0.0000 C   0  0  0  0  0  0  0  0  0  0  0  0
   -3.3875    1.8333    0.0000 C   0  0  0  0  0  0  0  0  0  0  0  0
   -3.3875    2.6583    0.0000 C   0  0  0  0  0  0  0  0  0  0  0  0
  2  3  1  0  0  0  0
  3  5  1  0  0  0  0
  4  2  1  0  0  0  0
  5  9  2  0  0  0  0
  6  4  1  0  0  0  0
  7  1  1  0  0  0  0
  8 10  1  0  0  0  0
  9  7  1  0  0  0  0
 10  6  2  0  0  0  0
 11 23  1  0  0  0  0
 12 11  3  0  0  0  0
 13  1  2  0  0  0  0
 14  1  2  0  0  0  0
 15  8  2  0  0  0  0
 15 21  1  0  0  0  0
 16  1  1  0  0  0  0
 17  3  2  0  0  0  0
 18  8  1  0  0  0  0
 19  6  1  0  0  0  0
 20 15  1  0  0  0  0
 21 19  2  0  0  0  0
 22  2  1  0  0  0  0
 23 16  1  0  0  0  0
 24  4  1  0  0  0  0
 24 27  1  0  0  0  0
 25  5  1  0  0  0  0
 26  7  2  0  0  0  0
 27 22  1  0  0  0  0
 28 26  1  0  0  0  0
 28 25  2  0  0  0  0
 29 18  1  0  0  0  0
 29 30  1  0  0  0  0
 30 20  1  0  0  0  0
M  END
> <CdId>
3283

> <Mol Weight>
426.485

> <Formula>
C22H22N2O5S

> <Click_ID>
CLK043C06 __ __ 

$$$$
