CLK041D10
 OpenBabel03191401532D

 24 27  0  0  0  0  0  0  0  0999 V2000
   -0.6579    0.5664    0.0000 C   0  0  0  0  0  0  0  0  0  0  0  0
   -1.1410    1.2367    0.0000 N   0  0  0  0  0  0  0  0  0  0  0  0
   -1.1410   -0.0999    0.0000 N   0  0  0  0  0  0  0  0  0  0  0  0
    0.1666    0.5664    0.0000 C   0  0  3  0  0  0  0  0  0  0  0  0
    1.4366    0.1541    0.0000 N   0  0  0  0  0  0  0  0  0  0  0  0
    1.4366    0.9786    0.0000 C   0  0  0  0  0  0  0  0  0  0  0  0
    0.6496   -0.0999    0.0000 C   0  0  0  0  0  0  0  0  0  0  0  0
   -1.9280    0.1541    0.0000 C   0  0  0  0  0  0  0  0  0  0  0  0
   -1.9280    0.9786    0.0000 C   0  0  0  0  0  0  0  0  0  0  0  0
    0.6496    1.2367    0.0000 C   0  0  0  0  0  0  0  0  0  0  0  0
   -1.4408   -1.4949    0.0000 C   0  0  0  0  0  0  0  0  0  0  0  0
   -1.9905   -2.1070    0.0000 C   0  0  0  0  0  0  0  0  0  0  0  0
    2.1030   -0.3290    0.0000 C   0  0  0  0  0  0  0  0  0  0  0  0
    2.1030    1.4658    0.0000 O   0  0  0  0  0  0  0  0  0  0  0  0
   -0.8869   -0.8827    0.0000 C   0  0  0  0  0  0  0  0  0  0  0  0
   -2.6401   -0.2582    0.0000 C   0  0  0  0  0  0  0  0  0  0  0  0
   -2.6401    1.3908    0.0000 C   0  0  0  0  0  0  0  0  0  0  0  0
    2.0155   -1.1493    0.0000 C   0  0  0  0  0  0  0  0  0  0  0  0
    2.8565    0.0083    0.0000 C   0  0  0  0  0  0  0  0  0  0  0  0
   -3.3563    0.1541    0.0000 C   0  0  0  0  0  0  0  0  0  0  0  0
   -3.3563    0.9786    0.0000 C   0  0  0  0  0  0  0  0  0  0  0  0
    3.5229   -0.4789    0.0000 C   0  0  0  0  0  0  0  0  0  0  0  0
    2.6816   -1.6323    0.0000 C   0  0  0  0  0  0  0  0  0  0  0  0
    3.4354   -1.2992    0.0000 C   0  0  0  0  0  0  0  0  0  0  0  0
  2  1  2  0  0  0  0
  3  1  1  0  0  0  0
  4  1  1  0  0  0  0
  5  7  1  0  0  0  0
  5  6  1  0  0  0  0
  6 10  1  0  0  0  0
  7  4  1  0  0  0  0
  8  3  1  0  0  0  0
  8  9  2  0  0  0  0
  9  2  1  0  0  0  0
 10  4  1  0  0  0  0
 11 15  1  0  0  0  0
 12 11  3  0  0  0  0
 13  5  1  0  0  0  0
 14  6  2  0  0  0  0
 15  3  1  0  0  0  0
 16  8  1  0  0  0  0
 17  9  1  0  0  0  0
 18 13  1  0  0  0  0
 19 13  2  0  0  0  0
 20 16  2  0  0  0  0
 20 21  1  0  0  0  0
 21 17  2  0  0  0  0
 22 19  1  0  0  0  0
 23 18  2  0  0  0  0
 24 22  2  0  0  0  0
 24 23  1  0  0  0  0
M  END
> <CdId>
3156

> <Mol Weight>
315.3685

> <Formula>
C20H17N3O

> <Click_ID>
CLK041D10 __ __ 

$$$$
