CLK025_H07
 OpenBabel03191401532D

 25 27  0  0  0  0  0  0  0  0999 V2000
   -0.3359    0.4268    0.0000 C    0  0  3  0  0  0  0  0  0  0  0  0
    0.1295   -0.2029    0.0000 C    0  0  0  0  0  0  0  0  0  0  0  0
   -1.1195    0.1715    0.0000 C    0  0  0  0  0  0  0  0  0  0  0  0
   -0.3359   -0.9062    0.0000 N    0  0  0  0  0  0  0  0  0  0  0  0
    1.9732    1.6829    0.0000 C    0  0  0  0  0  0  0  0  0  0  0  0
   -1.1195   -0.6577    0.0000 C    0  0  0  0  0  0  0  0  0  0  0  0
    1.4729    1.0321    0.0000 C    0  0  0  0  0  0  0  0  0  0  0  0
    0.5108    1.2035    0.0000 C    0  0  0  0  0  0  0  0  0  0  0  0
    3.0717    2.4350    0.0000 N    0  0  0  0  0  0  0  0  0  0  0  0
    2.4281    2.9423    0.0000 N    0  0  0  0  0  0  0  0  0  0  0  0
    1.7388    2.4770    0.0000 C    0  0  0  0  0  0  0  0  0  0  0  0
    2.7989    1.6548    0.0000 C    0  0  0  0  0  0  0  0  0  0  0  0
   -0.5878   -2.3160    0.0000 C    0  0  0  0  0  0  0  0  0  0  0  0
   -1.8403   -1.0706    0.0000 C    0  0  0  0  0  0  0  0  0  0  0  0
   -1.1231   -2.9388    0.0000 C    0  0  0  0  0  0  0  0  0  0  0  0
   -1.8403    0.5913    0.0000 C    0  0  0  0  0  0  0  0  0  0  0  0
    0.9236   -0.2729    0.0000 O    0  0  0  0  0  0  0  0  0  0  0  0
    1.7493    0.4478    0.0000 O    0  0  0  0  0  0  0  0  0  0  0  0
   -0.0594   -1.6898    0.0000 C    0  0  0  0  0  0  0  0  0  0  0  0
   -0.7242    1.3084    0.0000 O    0  0  0  0  0  0  0  0  0  0  0  0
   -2.5505    0.1715    0.0000 C    0  0  0  0  0  0  0  0  0  0  0  0
   -2.5505   -0.6577    0.0000 C    0  0  0  0  0  0  0  0  0  0  0  0
   -3.2677    0.5842    0.0000 Br   0  0  0  0  0  0  0  0  0  0  0  0
    0.9691    2.7499    0.0000 C    0  0  0  0  0  0  0  0  0  0  0  0
    3.2642    0.9761    0.0000 C    0  0  0  0  0  0  0  0  0  0  0  0
  2  1  1  0  0  0  0
  3  1  1  0  0  0  0
  4  2  1  0  0  0  0
  5  7  1  0  0  0  0
  6  3  2  0  0  0  0
  6  4  1  0  0  0  0
  7  8  1  0  0  0  0
  8  1  1  0  0  0  0
  9 12  2  0  0  0  0
  9 10  1  0  0  0  0
 10 11  1  0  0  0  0
 11  5  2  0  0  0  0
 12  5  1  0  0  0  0
 13 19  1  0  0  0  0
 14  6  1  0  0  0  0
 15 13  3  0  0  0  0
 16  3  1  0  0  0  0
 17  2  2  0  0  0  0
 18  7  2  0  0  0  0
 19  4  1  0  0  0  0
 20  1  1  0  0  0  0
 21 16  2  0  0  0  0
 22 21  1  0  0  0  0
 22 14  2  0  0  0  0
 23 21  1  0  0  0  0
 24 11  1  0  0  0  0
 25 12  1  0  0  0  0
M  END
> <CdId>
1932

> <Mol Weight>
402.242

> <Formula>
C18H16BrN3O3

> <Click_ID>
CLK025_H07 __ __ 

$$$$
