CLK005_E06
 OpenBabel03191401532D

 26 29  0  0  0  0  0  0  0  0999 V2000
    0.5549   -0.1178    0.0000 C   0  0  3  0  0  0  0  0  0  0  0  0
    1.2734   -0.5246    0.0000 C   0  0  0  0  0  0  0  0  0  0  0  0
    0.5435    0.7032    0.0000 C   0  0  0  0  0  0  0  0  0  0  0  0
   -0.7260   -0.8818    0.0000 C   0  0  0  0  0  0  0  0  0  0  0  0
    1.9842   -0.0950    0.0000 C   0  0  0  0  0  0  0  0  0  0  0  0
    1.2810   -1.3341    0.0000 C   0  0  0  0  0  0  0  0  0  0  0  0
    1.2467    1.1213    0.0000 C   0  0  0  0  0  0  0  0  0  0  0  0
   -0.1748    1.1061    0.0000 C   0  0  0  0  0  0  0  0  0  0  0  0
   -1.4444   -0.4751    0.0000 C   0  0  0  0  0  0  0  0  0  0  0  0
   -0.7108   -1.7067    0.0000 C   0  0  0  0  0  0  0  0  0  0  0  0
    1.9728    0.7222    0.0000 N   0  0  0  0  0  0  0  0  0  0  0  0
    2.7064   -0.5055    0.0000 C   0  0  0  0  0  0  0  0  0  0  0  0
    2.0031   -1.7485    0.0000 C   0  0  0  0  0  0  0  0  0  0  0  0
    0.5664   -1.7713    0.0000 O   0  0  0  0  0  0  0  0  0  0  0  0
    1.2430    1.9576    0.0000 C   0  0  0  0  0  0  0  0  0  0  0  0
   -0.1863    1.9309    0.0000 C   0  0  0  0  0  0  0  0  0  0  0  0
   -0.8895    0.6880    0.0000 O   0  0  0  0  0  0  0  0  0  0  0  0
   -2.1590   -0.8932    0.0000 C   0  0  0  0  0  0  0  0  0  0  0  0
   -1.4558    0.3497    0.0000 O   0  0  0  0  0  0  0  0  0  0  0  0
   -1.4178   -2.1362    0.0000 C   0  0  0  0  0  0  0  0  0  0  0  0
    2.7140   -1.3304    0.0000 C   0  0  0  0  0  0  0  0  0  0  0  0
    0.5170    2.3490    0.0000 C   0  0  0  0  0  0  0  0  0  0  0  0
   -2.1438   -1.7295    0.0000 C   0  0  0  0  0  0  0  0  0  0  0  0
   -2.1857    0.7603    0.0000 C   0  0  0  0  0  0  0  0  0  0  0  0
   -2.2009    1.5850    0.0000 C   0  0  0  0  0  0  0  0  0  0  0  0
   -2.9154    1.9842    0.0000 C   0  0  0  0  0  0  0  0  0  0  0  0
  1  2  1  0  0  0  0
  1  3  1  0  0  0  0
  1  4  1  0  0  0  0
  2  5  2  0  0  0  0
  2  6  1  0  0  0  0
  3  7  2  0  0  0  0
  3  8  1  0  0  0  0
  4  9  1  0  0  0  0
  4 10  2  0  0  0  0
  5 11  1  0  0  0  0
  5 12  1  0  0  0  0
  6 13  1  0  0  0  0
  6 14  2  0  0  0  0
  7 15  1  0  0  0  0
  7 11  1  0  0  0  0
  8 16  1  0  0  0  0
  8 17  2  0  0  0  0
  9 18  2  0  0  0  0
  9 19  1  0  0  0  0
 10 20  1  0  0  0  0
 12 21  1  0  0  0  0
 13 21  1  0  0  0  0
 15 22  1  0  0  0  0
 16 22  1  0  0  0  0
 18 23  1  0  0  0  0
 19 24  1  0  0  0  0
 20 23  2  0  0  0  0
 24 25  1  0  0  0  0
 25 26  3  0  0  0  0
M  END
> <CdId>
365

> <Mol Weight>
347.407

> <Formula>
C22H21NO3

> <Click_ID>
CLK005_E06 __ __ 

$$$$
