CLK049D04
 OpenBabel03191401532D

 23 24  0  0  0  0  0  0  0  0999 V2000
    1.5458    0.1000    0.0000 N   0  0  0  0  0  0  0  0  0  0  0  0
    1.0583    0.7667    0.0000 C   0  0  0  0  0  0  0  0  0  0  0  0
    1.5458    1.4333    0.0000 N   0  0  0  0  0  0  0  0  0  0  0  0
    2.3292    1.1792    0.0000 N   0  0  0  0  0  0  0  0  0  0  0  0
    1.2917   -0.6833    0.0000 C   0  0  0  0  0  0  0  0  0  0  0  0
    2.3292    0.3542    0.0000 C   0  0  0  0  0  0  0  0  0  0  0  0
    0.2333    0.7667    0.0000 S   0  0  0  0  0  0  0  0  0  0  0  0
    0.4833   -0.8583    0.0000 C   0  0  0  0  0  0  0  0  0  0  0  0
   -2.6542    2.9083    0.0000 C   0  0  0  0  0  0  0  0  0  0  0  0
   -3.0667    3.6250    0.0000 C   0  0  0  0  0  0  0  0  0  0  0  0
   -0.8333   -2.5958    0.0000 C   0  0  0  0  0  0  0  0  0  0  0  0
   -0.5792   -1.8125    0.0000 N   0  0  0  0  0  0  0  0  0  0  0  0
   -1.0042    1.4833    0.0000 C   0  0  0  0  0  0  0  0  0  0  0  0
    0.2292   -1.6417    0.0000 C   0  0  0  0  0  0  0  0  0  0  0  0
   -1.6417   -2.7708    0.0000 O   0  0  0  0  0  0  0  0  0  0  0  0
   -1.4167    0.7667    0.0000 O   0  0  0  0  0  0  0  0  0  0  0  0
   -0.1792    1.4833    0.0000 C   0  0  0  0  0  0  0  0  0  0  0  0
   -1.4167    2.1958    0.0000 N   0  0  0  0  0  0  0  0  0  0  0  0
   -2.2417    2.1958    0.0000 C   0  0  0  0  0  0  0  0  0  0  0  0
    1.8417   -1.3000    0.0000 C   0  0  0  0  0  0  0  0  0  0  0  0
    1.5875   -2.0833    0.0000 C   0  0  0  0  0  0  0  0  0  0  0  0
   -0.2833   -3.2125    0.0000 C   0  0  0  0  0  0  0  0  0  0  0  0
    0.7792   -2.2542    0.0000 C   0  0  0  0  0  0  0  0  0  0  0  0
  2  1  1  0  0  0  0
  3  2  2  0  0  0  0
  3  4  1  0  0  0  0
  4  6  2  0  0  0  0
  5  1  1  0  0  0  0
  6  1  1  0  0  0  0
  7  2  1  0  0  0  0
  8  5  1  0  0  0  0
  9 19  1  0  0  0  0
 10  9  3  0  0  0  0
 11 12  1  0  0  0  0
 12 14  1  0  0  0  0
 13 17  1  0  0  0  0
 14  8  2  0  0  0  0
 15 11  2  0  0  0  0
 16 13  2  0  0  0  0
 17  7  1  0  0  0  0
 18 13  1  0  0  0  0
 19 18  1  0  0  0  0
 20  5  2  0  0  0  0
 21 20  1  0  0  0  0
 21 23  2  0  0  0  0
 22 11  1  0  0  0  0
 23 14  1  0  0  0  0
M  END
> <CdId>
3748

> <Mol Weight>
329.377

> <Formula>
C15H15N5O2S

> <Click_ID>
CLK049D04 __ __ 

$$$$
