CLK048A06
 OpenBabel03191401532D

 16 16  0  0  0  0  0  0  0  0999 V2000
    0.1750    0.0000    0.0000 C   0  0  0  0  0  0  0  0  0  0  0  0
    0.1750   -0.8250    0.0000 C   0  0  0  0  0  0  0  0  0  0  0  0
   -0.5375    0.4125    0.0000 C   0  0  0  0  0  0  0  0  0  0  0  0
   -1.2542    2.4750    0.0000 C   0  0  0  0  0  0  0  0  0  0  0  0
   -1.2542    3.3000    0.0000 C   0  0  0  0  0  0  0  0  0  0  0  0
    0.8917   -1.2375    0.0000 C   0  0  0  0  0  0  0  0  0  0  0  0
   -1.2542    0.0000    0.0000 O   0  0  0  0  0  0  0  0  0  0  0  0
   -0.5375    1.2375    0.0000 N   0  0  0  0  0  0  0  0  0  0  0  0
   -0.5375   -1.2375    0.0000 O   0  0  0  0  0  0  0  0  0  0  0  0
    0.8917    0.4125    0.0000 C   0  0  0  0  0  0  0  0  0  0  0  0
   -1.2542    1.6500    0.0000 C   0  0  0  0  0  0  0  0  0  0  0  0
    0.8917   -2.0625    0.0000 O   0  0  0  0  0  0  0  0  0  0  0  0
    1.6042    0.0000    0.0000 C   0  0  0  0  0  0  0  0  0  0  0  0
    1.6042   -0.8250    0.0000 C   0  0  0  0  0  0  0  0  0  0  0  0
   -1.2542   -0.8250    0.0000 C   0  0  0  0  0  0  0  0  0  0  0  0
    1.6042   -2.4750    0.0000 C   0  0  0  0  0  0  0  0  0  0  0  0
  2  1  1  0  0  0  0
  3  1  1  0  0  0  0
  4 11  1  0  0  0  0
  5  4  3  0  0  0  0
  6  2  2  0  0  0  0
  7  3  2  0  0  0  0
  8  3  1  0  0  0  0
  9  2  1  0  0  0  0
 10  1  2  0  0  0  0
 11  8  1  0  0  0  0
 12  6  1  0  0  0  0
 13 10  1  0  0  0  0
 13 14  2  0  0  0  0
 14  6  1  0  0  0  0
 15  9  1  0  0  0  0
 16 12  1  0  0  0  0
M  END
> <CdId>
3681

> <Mol Weight>
219.2365

> <Formula>
C12H13NO3

> <Click_ID>
CLK048A06 __ __ 

$$$$
