CLK043B02
 OpenBabel03191401532D

 28 31  0  0  0  0  0  0  0  0999 V2000
    0.7625   -0.0875    0.0000 C   0  0  0  0  0  0  0  0  0  0  0  0
    0.7625   -0.9125    0.0000 C   0  0  0  0  0  0  0  0  0  0  0  0
    0.7625    1.5625    0.0000 N   0  0  0  0  0  0  0  0  0  0  0  0
    1.4792    0.3250    0.0000 C   0  0  0  0  0  0  0  0  0  0  0  0
    0.0500   -1.3250    0.0000 N   0  0  0  0  0  0  0  0  0  0  0  0
    0.0500    1.1500    0.0000 C   0  0  0  0  0  0  0  0  0  0  0  0
    0.0500    0.3250    0.0000 C   0  0  0  0  0  0  0  0  0  0  0  0
    1.4792    1.1500    0.0000 C   0  0  0  0  0  0  0  0  0  0  0  0
   -2.8083   -2.1500    0.0000 C   0  0  0  0  0  0  0  0  0  0  0  0
   -1.3792   -2.1500    0.0000 N   0  0  0  0  0  0  0  0  0  0  0  0
   -3.5250   -1.7375    0.0000 C   0  0  0  0  0  0  0  0  0  0  0  0
    1.4792   -1.3250    0.0000 O   0  0  0  0  0  0  0  0  0  0  0  0
    2.1917   -0.0875    0.0000 C   0  0  0  0  0  0  0  0  0  0  0  0
   -0.6667   -0.9125    0.0000 C   0  0  0  0  0  0  0  0  0  0  0  0
    0.0500   -2.1500    0.0000 C   0  0  0  0  0  0  0  0  0  0  0  0
   -0.6667    1.5625    0.0000 C   0  0  0  0  0  0  0  0  0  0  0  0
    2.1917    1.5625    0.0000 C   0  0  0  0  0  0  0  0  0  0  0  0
   -1.3792   -1.3250    0.0000 C   0  0  0  0  0  0  0  0  0  0  0  0
   -0.6667   -2.5625    0.0000 C   0  0  0  0  0  0  0  0  0  0  0  0
   -2.0958   -2.5625    0.0000 C   0  0  0  0  0  0  0  0  0  0  0  0
    2.9083    0.3250    0.0000 C   0  0  0  0  0  0  0  0  0  0  0  0
    2.9083    1.1500    0.0000 C   0  0  0  0  0  0  0  0  0  0  0  0
   -0.6667    2.3875    0.0000 C   0  0  0  0  0  0  0  0  0  0  0  0
   -1.3792    1.1500    0.0000 C   0  0  0  0  0  0  0  0  0  0  0  0
    3.6208   -0.0875    0.0000 C   0  0  0  0  0  0  0  0  0  0  0  0
   -2.0958    1.5625    0.0000 C   0  0  0  0  0  0  0  0  0  0  0  0
   -1.3792    2.8000    0.0000 C   0  0  0  0  0  0  0  0  0  0  0  0
   -2.0958    2.3875    0.0000 C   0  0  0  0  0  0  0  0  0  0  0  0
  2  1  1  0  0  0  0
  3  8  1  0  0  0  0
  4  1  1  0  0  0  0
  5  2  1  0  0  0  0
  6  7  1  0  0  0  0
  6  3  2  0  0  0  0
  7  1  2  0  0  0  0
  8  4  2  0  0  0  0
  9 20  1  0  0  0  0
 10 19  1  0  0  0  0
 10 18  1  0  0  0  0
 11  9  3  0  0  0  0
 12  2  2  0  0  0  0
 13  4  1  0  0  0  0
 14  5  1  0  0  0  0
 15  5  1  0  0  0  0
 16  6  1  0  0  0  0
 17  8  1  0  0  0  0
 17 22  2  0  0  0  0
 18 14  1  0  0  0  0
 19 15  1  0  0  0  0
 20 10  1  0  0  0  0
 21 13  2  0  0  0  0
 22 21  1  0  0  0  0
 23 16  1  0  0  0  0
 24 16  2  0  0  0  0
 25 21  1  0  0  0  0
 26 24  1  0  0  0  0
 27 23  2  0  0  0  0
 28 26  2  0  0  0  0
 28 27  1  0  0  0  0
M  END
> <CdId>
3250

> <Mol Weight>
369.4589

> <Formula>
C24H23N3O

> <Click_ID>
CLK043B02 __ __ 

$$$$
