CLK014_B10
 OpenBabel03191401532D

 26 28  0  0  0  0  0  0  0  0999 V2000
    1.5730   -0.8200    0.0000 N   0  0  0  0  0  0  0  0  0  0  0  0
    1.8324   -1.6107    0.0000 C   0  0  0  0  0  0  0  0  0  0  0  0
    2.2465   -0.3305    0.0000 C   0  0  0  0  0  0  0  0  0  0  0  0
    2.9159   -0.8200    0.0000 C   0  0  0  0  0  0  0  0  0  0  0  0
    2.6607   -1.6107    0.0000 S   0  0  0  0  0  0  0  0  0  0  0  0
    3.7066   -0.5648    0.0000 C   0  0  0  0  0  0  0  0  0  0  0  0
    0.6150    0.2468    0.0000 C   0  0  0  0  0  0  0  0  0  0  0  0
    0.3933    1.0500    0.0000 C   0  0  0  0  0  0  0  0  0  0  0  0
    1.3429   -2.2759    0.0000 O   0  0  0  0  0  0  0  0  0  0  0  0
    2.2382    0.4978    0.0000 O   0  0  0  0  0  0  0  0  0  0  0  0
    0.7907   -0.5648    0.0000 C   0  0  0  0  0  0  0  0  0  0  0  0
    3.8781    0.2342    0.0000 C   0  0  0  0  0  0  0  0  0  0  0  0
    4.4303    2.6439    0.0000 O   0  0  0  0  0  0  0  0  0  0  0  0
    4.2463    1.8407    0.0000 C   0  0  0  0  0  0  0  0  0  0  0  0
    5.7732    5.2880    0.0000 C   0  0  0  0  0  0  0  0  0  0  0  0
    5.3967    3.6899    0.0000 C   0  0  0  0  0  0  0  0  0  0  0  0
    5.2085    2.8866    0.0000 C   0  0  0  0  0  0  0  0  0  0  0  0
    5.9615    6.0787    0.0000 I   0  0  0  0  0  0  0  0  0  0  0  0
    3.2674    0.7990    0.0000 C   0  0  0  0  0  0  0  0  0  0  0  0
    4.6562    0.4853    0.0000 C   0  0  0  0  0  0  0  0  0  0  0  0
    4.8320    1.2802    0.0000 C   0  0  0  0  0  0  0  0  0  0  0  0
    3.4556    1.6022    0.0000 C   0  0  0  0  0  0  0  0  0  0  0  0
    6.3631    4.7107    0.0000 C   0  0  0  0  0  0  0  0  0  0  0  0
    4.9826    5.0370    0.0000 C   0  0  0  0  0  0  0  0  0  0  0  0
    4.7943    4.2337    0.0000 C   0  0  0  0  0  0  0  0  0  0  0  0
    6.1791    3.9241    0.0000 C   0  0  0  0  0  0  0  0  0  0  0  0
  2  1  1  0  0  0  0
  3  1  1  0  0  0  0
  4  3  1  0  0  0  0
  4  5  1  0  0  0  0
  5  2  1  0  0  0  0
  6  4  2  0  0  0  0
  7 11  1  0  0  0  0
  8  7  3  0  0  0  0
  9  2  2  0  0  0  0
 10  3  2  0  0  0  0
 11  1  1  0  0  0  0
 12  6  1  0  0  0  0
 13 14  1  0  0  0  0
 14 21  1  0  0  0  0
 15 23  2  0  0  0  0
 16 17  1  0  0  0  0
 17 13  1  0  0  0  0
 18 15  1  0  0  0  0
 19 12  2  0  0  0  0
 20 12  1  0  0  0  0
 21 20  2  0  0  0  0
 22 19  1  0  0  0  0
 22 14  2  0  0  0  0
 23 26  1  0  0  0  0
 24 25  2  0  0  0  0
 24 15  1  0  0  0  0
 25 16  1  0  0  0  0
 26 16  2  0  0  0  0
M  END
> <CdId>
1015

> <Mol Weight>
475.3

> <Formula>
C20H14INO3S

> <Click_ID>
CLK014_B10 __ __ 

$$$$
