CLK020_G02
 OpenBabel03191401532D

 18 18  0  0  0  0  0  0  0  0999 V2000
    4.0998    1.6857    0.0000 N   0  3  0  0  0  0  0  0  0  0  0  0
    0.5268    1.2734    0.0000 C   0  0  0  0  0  0  0  0  0  0  0  0
    3.3852    1.2734    0.0000 C   0  0  0  0  0  0  0  0  0  0  0  0
   -1.4796    1.8552    0.0000 C   0  0  0  0  0  0  0  0  0  0  0  0
    1.2414    1.6857    0.0000 N   0  0  0  0  0  0  0  0  0  0  0  0
   -2.0705    2.4415    0.0000 C   0  0  0  0  0  0  0  0  0  0  0  0
    2.6706    1.6857    0.0000 C   0  0  0  0  0  0  0  0  0  0  0  0
    4.8144    1.2734    0.0000 O   0  5  0  0  0  0  0  0  0  0  0  0
    4.0998    2.5102    0.0000 O   0  0  0  0  0  0  0  0  0  0  0  0
   -0.1878    1.6857    0.0000 O   0  0  0  0  0  0  0  0  0  0  0  0
   -0.9024    1.2734    0.0000 C   0  0  0  0  0  0  0  0  0  0  0  0
    1.9560    1.2734    0.0000 C   0  0  0  0  0  0  0  0  0  0  0  0
    0.5268    0.4489    0.0000 O   0  0  0  0  0  0  0  0  0  0  0  0
    3.3852    0.4489    0.0000 C   0  0  0  0  0  0  0  0  0  0  0  0
    2.6706    0.0366    0.0000 C   0  0  0  0  0  0  0  0  0  0  0  0
    1.9560    0.4489    0.0000 C   0  0  0  0  0  0  0  0  0  0  0  0
   -1.5345    0.7421    0.0000 C   0  0  0  0  0  0  0  0  0  0  0  0
   -0.4260    0.6000    0.0000 C   0  0  0  0  0  0  0  0  0  0  0  0
  2  5  1  0  0  0  0
  3  1  1  0  0  0  0
  4 11  1  0  0  0  0
  5 12  1  0  0  0  0
  6  4  3  0  0  0  0
  7  3  1  0  0  0  0
  8  1  1  0  0  0  0
  9  1  2  0  0  0  0
 10  2  1  0  0  0  0
 11 10  1  0  0  0  0
 12  7  2  0  0  0  0
 12 16  1  0  0  0  0
 13  2  2  0  0  0  0
 14  3  2  0  0  0  0
 15 14  1  0  0  0  0
 16 15  2  0  0  0  0
 17 11  1  0  0  0  0
 18 11  1  0  0  0  0
M  END
> <CdId>
1537

> <Mol Weight>
248.2347

> <Formula>
C12H12N2O4

> <Click_ID>
CLK020_G02 __ __ 

$$$$
