CLK001_C03
 OpenBabel03191401532D

 33 37  0  0  0  0  0  0  0  0999 V2000
   -2.1225    1.2915    0.0000 C   0  0  0  0  0  0  0  0  0  0  0  0
   -1.7104    2.0151    0.0000 C   0  0  0  0  0  0  0  0  0  0  0  0
   -1.7104    0.5747    0.0000 C   0  0  0  0  0  0  0  0  0  0  0  0
   -2.9465    1.3019    0.0000 C   0  0  0  0  0  0  0  0  0  0  0  0
   -0.8760    2.0185    0.0000 C   0  0  0  0  0  0  0  0  0  0  0  0
   -2.1190    2.7283    0.0000 C   0  0  0  0  0  0  0  0  0  0  0  0
   -0.8726    0.5713    0.0000 C   0  0  0  0  0  0  0  0  0  0  0  0
   -2.1259   -0.1281    0.0000 C   0  0  0  0  0  0  0  0  0  0  0  0
   -3.3585    2.0185    0.0000 C   0  0  0  0  0  0  0  0  0  0  0  0
   -3.3654    0.5921    0.0000 C   0  0  0  0  0  0  0  0  0  0  0  0
   -0.4571    1.2950    0.0000 N   0  0  0  0  0  0  0  0  0  0  0  0
   -0.4674    2.7422    0.0000 O   0  0  0  0  0  0  0  0  0  0  0  0
   -2.9396    2.7283    0.0000 C   0  0  0  0  0  0  0  0  0  0  0  0
   -0.4640   -0.1420    0.0000 O   0  0  0  0  0  0  0  0  0  0  0  0
   -2.9569   -0.1246    0.0000 C   0  0  0  0  0  0  0  0  0  0  0  0
    0.3670    1.3123    0.0000 C   0  0  0  0  0  0  0  0  0  0  0  0
    0.7929    0.5990    0.0000 C   0  0  0  0  0  0  0  0  0  0  0  0
    1.6169    0.6163    0.0000 C   0  0  0  0  0  0  0  0  0  0  0  0
    2.0428   -0.1004    0.0000 C   0  0  0  0  0  0  0  0  0  0  0  0
    1.6412   -0.8171    0.0000 N   0  0  0  0  0  0  0  0  0  0  0  0
    2.8738   -0.0866    0.0000 O   0  0  0  0  0  0  0  0  0  0  0  0
    0.8379   -1.0075    0.0000 C   0  0  0  0  0  0  0  0  0  0  0  0
    2.0706   -1.5200    0.0000 C   0  0  0  0  0  0  0  0  0  0  0  0
    0.7722   -1.8282    0.0000 C   0  0  0  0  0  0  0  0  0  0  0  0
    0.1662   -0.5367    0.0000 C   0  0  0  0  0  0  0  0  0  0  0  0
    1.5303   -2.1433    0.0000 N   0  0  0  0  0  0  0  0  0  0  0  0
    2.8946   -1.6377    0.0000 S   0  0  0  0  0  0  0  0  0  0  0  0
    0.0311   -2.1744    0.0000 C   0  0  0  0  0  0  0  0  0  0  0  0
   -0.5783   -0.8864    0.0000 C   0  0  0  0  0  0  0  0  0  0  0  0
    3.2062   -2.4029    0.0000 C   0  0  0  0  0  0  0  0  0  0  0  0
   -0.6474   -1.7104    0.0000 C   0  0  0  0  0  0  0  0  0  0  0  0
    4.0267   -2.5206    0.0000 C   0  0  0  0  0  0  0  0  0  0  0  0
    4.8508   -2.6349    0.0000 C   0  0  0  0  0  0  0  0  0  0  0  0
  1  2  1  0  0  0  0
  1  3  2  0  0  0  0
  1  4  1  0  0  0  0
  2  5  1  0  0  0  0
  2  6  2  0  0  0  0
  3  7  1  0  0  0  0
  3  8  1  0  0  0  0
  4  9  1  0  0  0  0
  4 10  2  0  0  0  0
  5 11  1  0  0  0  0
  5 12  2  0  0  0  0
  6 13  1  0  0  0  0
  7 14  2  0  0  0  0
  7 11  1  0  0  0  0
  8 15  2  0  0  0  0
  9 13  2  0  0  0  0
 10 15  1  0  0  0  0
 11 16  1  0  0  0  0
 16 17  1  0  0  0  0
 17 18  1  0  0  0  0
 18 19  1  0  0  0  0
 19 20  1  0  0  0  0
 19 21  2  0  0  0  0
 20 22  1  0  0  0  0
 20 23  1  0  0  0  0
 22 24  2  0  0  0  0
 22 25  1  0  0  0  0
 23 26  2  0  0  0  0
 23 27  1  0  0  0  0
 24 28  1  0  0  0  0
 24 26  1  0  0  0  0
 25 29  2  0  0  0  0
 27 30  1  0  0  0  0
 28 31  2  0  0  0  0
 29 31  1  0  0  0  0
 30 32  1  0  0  0  0
 32 33  3  0  0  0  0
M  END
> <CdId>
22

> <Mol Weight>
453.512

> <Formula>
C26H19N3O3S

> <Click_ID>
CLK001_C03 __ __ 

$$$$
