CLK018_F09
 OpenBabel03191401532D

 28 30  0  0  0  0  0  0  0  0999 V2000
    2.0246   -1.0790    0.0000 N   0  0  0  0  0  0  0  0  0  0  0  0
    2.2746   -1.8663    0.0000 C   0  0  0  0  0  0  0  0  0  0  0  0
    3.3536   -1.0790    0.0000 C   0  0  0  0  0  0  0  0  0  0  0  0
    2.6870   -0.5916    0.0000 C   0  0  0  0  0  0  0  0  0  0  0  0
    3.0994   -1.8663    0.0000 S   0  0  0  0  0  0  0  0  0  0  0  0
    4.4284   -0.7291    0.0000 C   0  0  0  0  0  0  0  0  0  0  0  0
    4.6033    0.0750    0.0000 C   0  0  0  0  0  0  0  0  0  0  0  0
    1.2415   -0.8248    0.0000 C   0  0  0  0  0  0  0  0  0  0  0  0
    5.3782    0.3332    0.0000 C   0  0  0  0  0  0  0  0  0  0  0  0
    2.7662    1.7330    0.0000 C   0  0  0  0  0  0  0  0  0  0  0  0
    2.9411    2.5370    0.0000 C   0  0  0  0  0  0  0  0  0  0  0  0
    0.6249   -1.3789    0.0000 C   0  0  0  0  0  0  0  0  0  0  0  0
    1.7914   -2.5287    0.0000 O   0  0  0  0  0  0  0  0  0  0  0  0
    3.9909    0.6249    0.0000 C   0  0  0  0  0  0  0  0  0  0  0  0
    2.6870    0.2333    0.0000 O   0  0  0  0  0  0  0  0  0  0  0  0
    5.5532    1.1331    0.0000 C   0  0  0  0  0  0  0  0  0  0  0  0
    0.7998   -2.1871    0.0000 O   0  0  0  0  0  0  0  0  0  0  0  0
    4.1617    1.4330    0.0000 C   0  0  0  0  0  0  0  0  0  0  0  0
    4.9408    1.6872    0.0000 C   0  0  0  0  0  0  0  0  0  0  0  0
   -0.1583   -1.1248    0.0000 O   0  0  0  0  0  0  0  0  0  0  0  0
    3.2036    0.3749    0.0000 O   0  0  0  0  0  0  0  0  0  0  0  0
    2.5912    0.9331    0.0000 C   0  0  0  0  0  0  0  0  0  0  0  0
    5.9906   -0.2292    0.0000 C   0  0  0  0  0  0  0  0  0  0  0  0
    6.3280    1.3872    0.0000 C   0  0  0  0  0  0  0  0  0  0  0  0
   -0.3332   -0.3166    0.0000 C   0  0  0  0  0  0  0  0  0  0  0  0
    6.7737    0.0375    0.0000 C   0  0  0  0  0  0  0  0  0  0  0  0
   -1.1206   -0.0667    0.0000 C   0  0  0  0  0  0  0  0  0  0  0  0
    6.9404    0.8456    0.0000 C   0  0  0  0  0  0  0  0  0  0  0  0
  2  1  1  0  0  0  0
  3  4  1  0  0  0  0
  3  5  1  0  0  0  0
  4  1  1  0  0  0  0
  5  2  1  0  0  0  0
  6  3  2  0  0  0  0
  7  6  1  0  0  0  0
  8  1  1  0  0  0  0
  9  7  1  0  0  0  0
 10 22  1  0  0  0  0
 11 10  3  0  0  0  0
 12  8  1  0  0  0  0
 13  2  2  0  0  0  0
 14  7  2  0  0  0  0
 15  4  2  0  0  0  0
 16  9  1  0  0  0  0
 16 19  1  0  0  0  0
 17 12  2  0  0  0  0
 18 14  1  0  0  0  0
 19 18  2  0  0  0  0
 20 12  1  0  0  0  0
 21 14  1  0  0  0  0
 22 21  1  0  0  0  0
 23  9  2  0  0  0  0
 24 16  2  0  0  0  0
 24 28  1  0  0  0  0
 25 20  1  0  0  0  0
 26 23  1  0  0  0  0
 27 25  1  0  0  0  0
 28 26  2  0  0  0  0
M  END
> <CdId>
1374

> <Mol Weight>
395.428

> <Formula>
C21H17NO5S

> <Click_ID>
CLK018_F09 __ __ 

$$$$
