CLK023_C04
 OpenBabel03191401532D

 24 26  0  0  0  0  0  0  0  0999 V2000
   -0.7287    1.4060    0.0000 C    0  0  0  0  0  0  0  0  0  0  0  0
   -1.2100    0.7357    0.0000 C    0  0  0  0  0  0  0  0  0  0  0  0
   -1.2237    2.0831    0.0000 C    0  0  0  0  0  0  0  0  0  0  0  0
   -1.9903    1.8185    0.0000 C    0  0  0  0  0  0  0  0  0  0  0  0
   -1.9903    0.9935    0.0000 C    0  0  0  0  0  0  0  0  0  0  0  0
    0.0997    1.4060    0.0000 C    0  0  0  0  0  0  0  0  0  0  0  0
    1.3406   -0.7322    0.0000 C    0  0  0  0  0  0  0  0  0  0  0  0
    0.5156   -0.7322    0.0000 C    0  0  0  0  0  0  0  0  0  0  0  0
    1.7497   -0.0138    0.0000 C    0  0  0  0  0  0  0  0  0  0  0  0
    0.5156    0.6944    0.0000 C    0  0  0  0  0  0  0  0  0  0  0  0
    2.9941   -2.1588    0.0000 C    0  0  0  0  0  0  0  0  0  0  0  0
    3.4134   -2.8669    0.0000 C    0  0  0  0  0  0  0  0  0  0  0  0
    0.0997   -0.0206    0.0000 C    0  0  0  0  0  0  0  0  0  0  0  0
    1.3372    0.6978    0.0000 C    0  0  0  0  0  0  0  0  0  0  0  0
   -0.9522   -0.0447    0.0000 O    0  0  0  0  0  0  0  0  0  0  0  0
   -0.9728    2.8703    0.0000 O    0  0  0  0  0  0  0  0  0  0  0  0
    2.5781   -0.0068    0.0000 Br   0  0  0  0  0  0  0  0  0  0  0  0
    0.0997   -1.4541    0.0000 Cl   0  0  0  0  0  0  0  0  0  0  0  0
    1.7531   -1.4438    0.0000 O    0  0  0  0  0  0  0  0  0  0  0  0
   -2.6984    0.5843    0.0000 C    0  0  0  0  0  0  0  0  0  0  0  0
   -2.7019    2.2310    0.0000 C    0  0  0  0  0  0  0  0  0  0  0  0
    2.5781   -1.4438    0.0000 C    0  0  0  0  0  0  0  0  0  0  0  0
   -3.4169    0.9935    0.0000 C    0  0  0  0  0  0  0  0  0  0  0  0
   -3.4169    1.8185    0.0000 C    0  0  0  0  0  0  0  0  0  0  0  0
  2  1  1  0  0  0  0
  3  1  1  0  0  0  0
  4  3  1  0  0  0  0
  5  2  1  0  0  0  0
  5  4  2  0  0  0  0
  6  1  2  0  0  0  0
  7  9  1  0  0  0  0
  7  8  2  0  0  0  0
  8 13  1  0  0  0  0
  9 14  2  0  0  0  0
 10  6  1  0  0  0  0
 11 22  1  0  0  0  0
 12 11  3  0  0  0  0
 13 10  2  0  0  0  0
 14 10  1  0  0  0  0
 15  2  2  0  0  0  0
 16  3  2  0  0  0  0
 17  9  1  0  0  0  0
 18  8  1  0  0  0  0
 19  7  1  0  0  0  0
 20  5  1  0  0  0  0
 21  4  1  0  0  0  0
 22 19  1  0  0  0  0
 23 20  2  0  0  0  0
 23 24  1  0  0  0  0
 24 21  2  0  0  0  0
M  END
> <CdId>
1719

> <Mol Weight>
401.638

> <Formula>
C19H10BrClO3

> <Click_ID>
CLK023_C04 __ __ 

$$$$
