CLK027_G04
 OpenBabel03191401532D

 28 31  0  0  0  0  0  0  0  0999 V2000
   -1.4964   -0.1513    0.0000 C    0  0  3  0  0  0  0  0  0  0  0  0
   -1.9849   -0.8221    0.0000 C    0  0  0  0  0  0  0  0  0  0  0  0
   -1.9815    0.5160    0.0000 C    0  0  0  0  0  0  0  0  0  0  0  0
   -2.7727   -0.5641    0.0000 N    0  0  0  0  0  0  0  0  0  0  0  0
   -2.7693    0.2615    0.0000 C    0  0  0  0  0  0  0  0  0  0  0  0
   -0.6743   -0.1583    0.0000 C    0  0  0  0  0  0  0  0  0  0  0  0
   -0.2683   -0.8738    0.0000 C    0  0  0  0  0  0  0  0  0  0  0  0
    0.5573   -0.8738    0.0000 C    0  0  0  0  0  0  0  0  0  0  0  0
   -3.3575   -1.8611    0.0000 C    0  0  0  0  0  0  0  0  0  0  0  0
   -3.3816    0.8256    0.0000 C    0  0  0  0  0  0  0  0  0  0  0  0
   -3.2921   -2.6833    0.0000 C    0  0  0  0  0  0  0  0  0  0  0  0
   -1.8060    1.3245    0.0000 C    0  0  0  0  0  0  0  0  0  0  0  0
    0.9701   -1.5962    0.0000 C    0  0  0  0  0  0  0  0  0  0  0  0
   -1.7338   -1.6100    0.0000 O    0  0  0  0  0  0  0  0  0  0  0  0
    1.7957   -1.5962    0.0000 C    0  0  0  0  0  0  0  0  0  0  0  0
   -3.4435   -1.0458    0.0000 C    0  0  0  0  0  0  0  0  0  0  0  0
   -1.1111    0.5883    0.0000 O    0  0  0  0  0  0  0  0  0  0  0  0
   -0.6811   -1.5893    0.0000 O    0  0  0  0  0  0  0  0  0  0  0  0
    0.9701   -0.1617    0.0000 C    0  0  0  0  0  0  0  0  0  0  0  0
    2.2051   -0.8841    0.0000 C    0  0  0  0  0  0  0  0  0  0  0  0
    1.7957   -0.1617    0.0000 C    0  0  0  0  0  0  0  0  0  0  0  0
   -2.4184    1.8748    0.0000 C    0  0  0  0  0  0  0  0  0  0  0  0
   -3.2061    1.6306    0.0000 C    0  0  0  0  0  0  0  0  0  0  0  0
   -2.2360    2.6867    0.0000 Br   0  0  0  0  0  0  0  0  0  0  0  0
    2.2017   -2.3083    0.0000 C    0  0  0  0  0  0  0  0  0  0  0  0
    3.0273   -0.8875    0.0000 C    0  0  0  0  0  0  0  0  0  0  0  0
    3.0273   -2.3117    0.0000 C    0  0  0  0  0  0  0  0  0  0  0  0
    3.4401   -1.5962    0.0000 C    0  0  0  0  0  0  0  0  0  0  0  0
  2  1  1  0  0  0  0
  3  1  1  0  0  0  0
  4  2  1  0  0  0  0
  4  5  1  0  0  0  0
  5  3  1  0  0  0  0
  6  1  1  0  0  0  0
  7  6  1  0  0  0  0
  8  7  1  0  0  0  0
  9 16  1  0  0  0  0
 10  5  2  0  0  0  0
 11  9  3  0  0  0  0
 12  3  2  0  0  0  0
 13  8  2  0  0  0  0
 14  2  2  0  0  0  0
 15 13  1  0  0  0  0
 15 20  1  0  0  0  0
 16  4  1  0  0  0  0
 17  1  1  0  0  0  0
 18  7  2  0  0  0  0
 19  8  1  0  0  0  0
 20 21  1  0  0  0  0
 21 19  2  0  0  0  0
 22 12  1  0  0  0  0
 23 22  2  0  0  0  0
 23 10  1  0  0  0  0
 24 22  1  0  0  0  0
 25 15  2  0  0  0  0
 26 20  2  0  0  0  0
 27 25  1  0  0  0  0
 28 26  1  0  0  0  0
 28 27  2  0  0  0  0
M  END
> <CdId>
2072

> <Mol Weight>
434.282

> <Formula>
C23H16BrNO3

> <Click_ID>
CLK027_G04 __ __ 

$$$$
