CLK014_B03
 OpenBabel03191401532D

 24 26  0  0  0  0  0  0  0  0999 V2000
    1.5629   -0.8147    0.0000 N    0  0  0  0  0  0  0  0  0  0  0  0
    1.8205   -1.6003    0.0000 C    0  0  0  0  0  0  0  0  0  0  0  0
    2.8971   -0.8147    0.0000 C    0  0  0  0  0  0  0  0  0  0  0  0
    2.2320   -0.3284    0.0000 C    0  0  0  0  0  0  0  0  0  0  0  0
    2.6435   -1.6003    0.0000 S    0  0  0  0  0  0  0  0  0  0  0  0
    5.4990   -1.6709    0.0000 C    0  0  0  0  0  0  0  0  0  0  0  0
    3.6827   -0.5611    0.0000 C    0  0  0  0  0  0  0  0  0  0  0  0
    6.3137   -1.7624    0.0000 C    0  0  0  0  0  0  0  0  0  0  0  0
    5.1042   -0.9519    0.0000 O    0  0  0  0  0  0  0  0  0  0  0  0
    4.2936   -1.1140    0.0000 C    0  0  0  0  0  0  0  0  0  0  0  0
    6.8083   -1.1140    0.0000 C    0  0  0  0  0  0  0  0  0  0  0  0
    4.9503   -2.2819    0.0000 C    0  0  0  0  0  0  0  0  0  0  0  0
    0.6110    0.2452    0.0000 C    0  0  0  0  0  0  0  0  0  0  0  0
    4.2064   -1.9494    0.0000 C    0  0  0  0  0  0  0  0  0  0  0  0
    0.3907    1.0432    0.0000 C    0  0  0  0  0  0  0  0  0  0  0  0
    7.6354   -1.2012    0.0000 C    0  0  0  0  0  0  0  0  0  0  0  0
    6.6462   -2.5313    0.0000 C    0  0  0  0  0  0  0  0  0  0  0  0
    1.3342   -2.2611    0.0000 O    0  0  0  0  0  0  0  0  0  0  0  0
    2.2237    0.4946    0.0000 O    0  0  0  0  0  0  0  0  0  0  0  0
    0.7856   -0.5611    0.0000 C    0  0  0  0  0  0  0  0  0  0  0  0
    7.9555   -1.9619    0.0000 C    0  0  0  0  0  0  0  0  0  0  0  0
    6.4841   -0.3533    0.0000 Cl   0  0  0  0  0  0  0  0  0  0  0  0
    7.4609   -2.6228    0.0000 C    0  0  0  0  0  0  0  0  0  0  0  0
    8.7784   -2.0616    0.0000 Cl   0  0  0  0  0  0  0  0  0  0  0  0
  2  1  1  0  0  0  0
  3  4  1  0  0  0  0
  3  5  1  0  0  0  0
  4  1  1  0  0  0  0
  5  2  1  0  0  0  0
  6  9  1  0  0  0  0
  6 12  2  0  0  0  0
  7  3  2  0  0  0  0
  8  6  1  0  0  0  0
  9 10  1  0  0  0  0
 10  7  1  0  0  0  0
 11  8  1  0  0  0  0
 12 14  1  0  0  0  0
 13 20  1  0  0  0  0
 14 10  2  0  0  0  0
 15 13  3  0  0  0  0
 16 11  2  0  0  0  0
 16 21  1  0  0  0  0
 17  8  2  0  0  0  0
 18  2  2  0  0  0  0
 19  4  2  0  0  0  0
 20  1  1  0  0  0  0
 21 23  2  0  0  0  0
 22 11  1  0  0  0  0
 23 17  1  0  0  0  0
 24 21  1  0  0  0  0
M  END
> <CdId>
1008

> <Mol Weight>
378.229

> <Formula>
C17H9Cl2NO3S

> <Click_ID>
CLK014_B03 __ __ 

$$$$
