CLK041B07
 OpenBabel03191401532D

 25 26  0  0  0  0  0  0  0  0999 V2000
   -0.3506    1.2229    0.0000 N   0  0  0  0  0  0  0  0  0  0  0  0
    0.1335    1.8950    0.0000 C   0  0  0  0  0  0  0  0  0  0  0  0
    0.9183    1.6361    0.0000 N   0  0  0  0  0  0  0  0  0  0  0  0
    0.1335    0.5552    0.0000 C   0  0  0  0  0  0  0  0  0  0  0  0
    0.9183    0.8097    0.0000 N   0  0  0  0  0  0  0  0  0  0  0  0
   -0.1210    2.6796    0.0000 C   0  0  0  0  0  0  0  0  0  0  0  0
    0.2171   -3.8149    0.0000 C   0  0  0  0  0  0  0  0  0  0  0  0
   -0.1210   -0.2296    0.0000 S   0  0  0  0  0  0  0  0  0  0  0  0
   -0.0376   -4.6037    0.0000 C   0  0  0  0  0  0  0  0  0  0  0  0
    0.1753   -1.6320    0.0000 C   0  0  0  0  0  0  0  0  0  0  0  0
    0.7305   -2.2456    0.0000 N   0  0  0  0  0  0  0  0  0  0  0  0
    0.4716   -3.0302    0.0000 C   0  0  0  0  0  0  0  0  0  0  0  0
   -0.9308    2.8507    0.0000 C   0  0  0  0  0  0  0  0  0  0  0  0
   -0.6344   -1.8031    0.0000 O   0  0  0  0  0  0  0  0  0  0  0  0
    0.4299   -0.8432    0.0000 C   0  0  0  0  0  0  0  0  0  0  0  0
   -1.1770    1.2229    0.0000 C   0  0  0  0  0  0  0  0  0  0  0  0
    0.4299    3.2932    0.0000 C   0  0  0  0  0  0  0  0  0  0  0  0
    1.2605   -3.2849    0.0000 C   0  0  0  0  0  0  0  0  0  0  0  0
   -0.3130   -2.7756    0.0000 C   0  0  0  0  0  0  0  0  0  0  0  0
   -1.4818    2.2372    0.0000 C   0  0  0  0  0  0  0  0  0  0  0  0
   -1.1853    3.6355    0.0000 C   0  0  0  0  0  0  0  0  0  0  0  0
    1.4317   -4.0946    0.0000 C   0  0  0  0  0  0  0  0  0  0  0  0
   -0.4841   -1.9659    0.0000 C   0  0  0  0  0  0  0  0  0  0  0  0
    0.1753    4.0737    0.0000 C   0  0  0  0  0  0  0  0  0  0  0  0
   -0.6344    4.2448    0.0000 C   0  0  0  0  0  0  0  0  0  0  0  0
  2  1  1  0  0  0  0
  3  2  2  0  0  0  0
  3  5  1  0  0  0  0
  4  1  1  0  0  0  0
  5  4  2  0  0  0  0
  6  2  1  0  0  0  0
  7 12  1  0  0  0  0
  8  4  1  0  0  0  0
  9  7  3  0  0  0  0
 10 15  1  0  0  0  0
 11 10  1  0  0  0  0
 12 11  1  0  0  0  0
 13  6  2  0  0  0  0
 14 10  2  0  0  0  0
 15  8  1  0  0  0  0
 16  1  1  0  0  0  0
 17  6  1  0  0  0  0
 18 12  1  0  0  0  0
 19 12  1  0  0  0  0
 20 13  1  0  0  0  0
 21 13  1  0  0  0  0
 22 18  1  0  0  0  0
 23 19  1  0  0  0  0
 24 17  2  0  0  0  0
 25 21  2  0  0  0  0
 25 24  1  0  0  0  0
M  END
> <CdId>
3130

> <Mol Weight>
356.485

> <Formula>
C19H24N4OS

> <Click_ID>
CLK041B07 __ __ 

$$$$
