CLK017_H07
 OpenBabel03191401532D

 22 23  0  0  0  0  0  0  0  0999 V2000
    3.8204    0.0778    0.0000 N    0  0  0  0  0  0  0  0  0  0  0  0
    3.8204   -0.7558    0.0000 C    0  0  0  0  0  0  0  0  0  0  0  0
    3.1058    0.4901    0.0000 C    0  0  0  0  0  0  0  0  0  0  0  0
    2.3958    0.0778    0.0000 C    0  0  0  0  0  0  0  0  0  0  0  0
    2.3958   -0.7467    0.0000 S    0  0  0  0  0  0  0  0  0  0  0  0
    4.5350   -1.1590    0.0000 N    0  0  0  0  0  0  0  0  0  0  0  0
    1.6812    0.4901    0.0000 C    0  0  0  0  0  0  0  0  0  0  0  0
    5.2496   -0.7467    0.0000 C    0  0  0  0  0  0  0  0  0  0  0  0
   -1.8918   -2.3958    0.0000 C    0  0  0  0  0  0  0  0  0  0  0  0
   -1.8918   -3.2203    0.0000 C    0  0  0  0  0  0  0  0  0  0  0  0
    0.2520   -1.1590    0.0000 C    0  0  0  0  0  0  0  0  0  0  0  0
    0.9666    0.0778    0.0000 C    0  0  0  0  0  0  0  0  0  0  0  0
    3.1058    1.3146    0.0000 O    0  0  0  0  0  0  0  0  0  0  0  0
    0.9666   -0.7467    0.0000 C    0  0  0  0  0  0  0  0  0  0  0  0
   -0.4626   -0.7467    0.0000 C    0  0  0  0  0  0  0  0  0  0  0  0
    5.2405    0.0778    0.0000 O    0  0  0  0  0  0  0  0  0  0  0  0
   -0.4626    0.0778    0.0000 C    0  0  0  0  0  0  0  0  0  0  0  0
    0.2520   -1.9835    0.0000 Cl   0  0  0  0  0  0  0  0  0  0  0  0
    0.2520    0.4901    0.0000 C    0  0  0  0  0  0  0  0  0  0  0  0
   -1.1772   -1.1590    0.0000 O    0  0  0  0  0  0  0  0  0  0  0  0
   -1.1772   -1.9835    0.0000 C    0  0  0  0  0  0  0  0  0  0  0  0
    5.9642   -1.1544    0.0000 C    0  0  0  0  0  0  0  0  0  0  0  0
  2  1  2  0  0  0  0
  3  1  1  0  0  0  0
  4  3  1  0  0  0  0
  4  5  1  0  0  0  0
  5  2  1  0  0  0  0
  6  2  1  0  0  0  0
  7  4  2  0  0  0  0
  8  6  1  0  0  0  0
  9 21  1  0  0  0  0
 10  9  3  0  0  0  0
 11 14  1  0  0  0  0
 12  7  1  0  0  0  0
 13  3  2  0  0  0  0
 14 12  2  0  0  0  0
 15 17  1  0  0  0  0
 15 11  2  0  0  0  0
 16  8  2  0  0  0  0
 17 19  2  0  0  0  0
 18 11  1  0  0  0  0
 19 12  1  0  0  0  0
 20 15  1  0  0  0  0
 21 20  1  0  0  0  0
 22  8  1  0  0  0  0
M  END
> <CdId>
1312

> <Mol Weight>
334.777

> <Formula>
C15H11ClN2O3S

> <Click_ID>
CLK017_H07 __ __ 

$$$$
