CLK020_G09
 OpenBabel03191401532D

 24 25  0  0  0  0  0  0  0  0999 V2000
    1.8424   -1.8466    0.0000 C    0  0  0  0  0  0  0  0  0  0  0  0
    3.2628   -1.8466    0.0000 N    0  0  0  0  0  0  0  0  0  0  0  0
    3.2628   -2.6738    0.0000 C    0  0  0  0  0  0  0  0  0  0  0  0
    2.5484   -1.4288    0.0000 C    0  0  0  0  0  0  0  0  0  0  0  0
    2.5484   -3.0831    0.0000 N    0  0  0  0  0  0  0  0  0  0  0  0
    1.8424   -2.6738    0.0000 C    0  0  0  0  0  0  0  0  0  0  0  0
    1.1197   -1.4330    0.0000 C    0  0  0  0  0  0  0  0  0  0  0  0
    3.9855   -3.0873    0.0000 S    0  0  0  0  0  0  0  0  0  0  0  0
   -3.1541   -3.0873    0.0000 C    0  0  0  0  0  0  0  0  0  0  0  0
   -3.8685   -3.4967    0.0000 C    0  0  0  0  0  0  0  0  0  0  0  0
   -1.0110   -1.8591    0.0000 C    0  0  0  0  0  0  0  0  0  0  0  0
    2.5484   -0.6016    0.0000 O    0  0  0  0  0  0  0  0  0  0  0  0
    1.1197   -3.0873    0.0000 O    0  0  0  0  0  0  0  0  0  0  0  0
    0.4053   -1.8466    0.0000 C    0  0  0  0  0  0  0  0  0  0  0  0
   -0.2966   -1.4455    0.0000 C    0  0  0  0  0  0  0  0  0  0  0  0
   -1.0026   -2.6821    0.0000 C    0  0  0  0  0  0  0  0  0  0  0  0
    3.9855   -1.4330    0.0000 C    0  0  0  0  0  0  0  0  0  0  0  0
    3.9855   -0.6058    0.0000 C    0  0  0  0  0  0  0  0  0  0  0  0
   -0.2966   -3.0873    0.0000 C    0  0  0  0  0  0  0  0  0  0  0  0
    4.7041   -0.2005    0.0000 C    0  0  0  0  0  0  0  0  0  0  0  0
   -1.7254   -1.4538    0.0000 Br   0  0  0  0  0  0  0  0  0  0  0  0
    0.4136   -2.6695    0.0000 C    0  0  0  0  0  0  0  0  0  0  0  0
   -1.7254   -3.0873    0.0000 O    0  0  0  0  0  0  0  0  0  0  0  0
   -2.4314   -2.6738    0.0000 C    0  0  0  0  0  0  0  0  0  0  0  0
  2  4  1  0  0  0  0
  3  5  1  0  0  0  0
  3  2  1  0  0  0  0
  4  1  1  0  0  0  0
  5  6  1  0  0  0  0
  6  1  1  0  0  0  0
  7  1  2  0  0  0  0
  8  3  2  0  0  0  0
  9 24  1  0  0  0  0
 10  9  3  0  0  0  0
 11 15  2  0  0  0  0
 12  4  2  0  0  0  0
 13  6  2  0  0  0  0
 14  7  1  0  0  0  0
 15 14  1  0  0  0  0
 16 19  2  0  0  0  0
 16 11  1  0  0  0  0
 17  2  1  0  0  0  0
 18 17  1  0  0  0  0
 19 22  1  0  0  0  0
 20 18  2  0  0  0  0
 21 11  1  0  0  0  0
 22 14  2  0  0  0  0
 23 16  1  0  0  0  0
 24 23  1  0  0  0  0
M  END
> <CdId>
1544

> <Mol Weight>
405.266

> <Formula>
C17H13BrN2O3S

> <Click_ID>
CLK020_G09 __ __ 

$$$$
