CLK008_C02
 OpenBabel03191401532D

 22 24  0  0  0  0  0  0  0  0999 V2000
   -0.3785    0.4637    0.0000 C   0  0  0  0  0  0  0  0  0  0  0  0
   -0.8558   -0.2079    0.0000 N   0  0  0  0  0  0  0  0  0  0  0  0
    0.4466    0.4671    0.0000 C   0  0  3  0  0  0  0  0  0  0  0  0
   -0.8592    1.1251    0.0000 N   0  0  0  0  0  0  0  0  0  0  0  0
   -1.6434    0.0375    0.0000 C   0  0  0  0  0  0  0  0  0  0  0  0
   -0.5966   -0.9819    0.0000 C   0  0  0  0  0  0  0  0  0  0  0  0
    0.9376   -0.2011    0.0000 C   0  0  0  0  0  0  0  0  0  0  0  0
    0.9274    1.1354    0.0000 C   0  0  0  0  0  0  0  0  0  0  0  0
   -1.6468    0.8661    0.0000 C   0  0  0  0  0  0  0  0  0  0  0  0
   -2.3629   -0.3785    0.0000 C   0  0  0  0  0  0  0  0  0  0  0  0
   -1.1354   -1.5922    0.0000 C   0  0  0  0  0  0  0  0  0  0  0  0
    1.7184    0.0579    0.0000 N   0  0  0  0  0  0  0  0  0  0  0  0
    1.7116    0.8831    0.0000 C   0  0  0  0  0  0  0  0  0  0  0  0
   -2.3629    1.2786    0.0000 C   0  0  0  0  0  0  0  0  0  0  0  0
   -3.0788    0.0375    0.0000 C   0  0  0  0  0  0  0  0  0  0  0  0
   -0.9240   -2.3799    0.0000 C   0  0  0  0  0  0  0  0  0  0  0  0
    2.3799   -0.4160    0.0000 C   0  0  0  0  0  0  0  0  0  0  0  0
    2.3697    1.3638    0.0000 O   0  0  0  0  0  0  0  0  0  0  0  0
   -3.0788    0.8626    0.0000 C   0  0  0  0  0  0  0  0  0  0  0  0
    2.3015   -1.2275    0.0000 C   0  0  0  0  0  0  0  0  0  0  0  0
    3.1674   -0.2011    0.0000 C   0  0  0  0  0  0  0  0  0  0  0  0
    2.9561   -0.9921    0.0000 C   0  0  0  0  0  0  0  0  0  0  0  0
  1  2  1  0  0  0  0
  1  3  1  0  0  0  0
  1  4  2  0  0  0  0
  2  5  1  0  0  0  0
  2  6  1  0  0  0  0
  3  7  1  0  0  0  0
  3  8  1  0  0  0  0
  4  9  1  0  0  0  0
  5 10  2  0  0  0  0
  5  9  1  0  0  0  0
  6 11  1  0  0  0  0
  7 12  1  0  0  0  0
  8 13  1  0  0  0  0
  9 14  2  0  0  0  0
 10 15  1  0  0  0  0
 11 16  3  0  0  0  0
 12 17  1  0  0  0  0
 12 13  1  0  0  0  0
 13 18  2  0  0  0  0
 14 19  1  0  0  0  0
 15 19  2  0  0  0  0
 17 20  1  0  0  0  0
 17 21  1  0  0  0  0
 17 22  1  0  0  0  0
M  END
> <CdId>
571

> <Mol Weight>
295.3788

> <Formula>
C18H21N3O

> <Click_ID>
CLK008_C02 __ __ 

$$$$
