CLK046H05
 OpenBabel03191401532D

 20 20  0  0  0  0  0  0  0  0999 V2000
   -0.3958    1.5083    0.0000 S   0  0  0  0  0  0  0  0  0  0  0  0
   -0.3958   -1.7917    0.0000 C   0  0  0  0  0  0  0  0  0  0  0  0
   -0.3958    0.6833    0.0000 C   0  0  0  0  0  0  0  0  0  0  0  0
    0.3208    3.5708    0.0000 C   0  0  0  0  0  0  0  0  0  0  0  0
    0.3208    4.3917    0.0000 C   0  0  0  0  0  0  0  0  0  0  0  0
   -1.2208    1.5083    0.0000 O   0  0  0  0  0  0  0  0  0  0  0  0
    0.4292    1.5083    0.0000 O   0  0  0  0  0  0  0  0  0  0  0  0
   -0.3958   -0.9667    0.0000 C   0  0  0  0  0  0  0  0  0  0  0  0
    0.3208   -2.2042    0.0000 N   0  0  0  0  0  0  0  0  0  0  0  0
   -0.3958    2.3333    0.0000 N   0  0  0  0  0  0  0  0  0  0  0  0
   -1.1083   -2.2042    0.0000 O   0  0  0  0  0  0  0  0  0  0  0  0
    0.3208    0.2708    0.0000 C   0  0  0  0  0  0  0  0  0  0  0  0
   -1.1083    0.2708    0.0000 C   0  0  0  0  0  0  0  0  0  0  0  0
    0.3208   -0.5542    0.0000 C   0  0  0  0  0  0  0  0  0  0  0  0
   -1.1083   -0.5542    0.0000 C   0  0  0  0  0  0  0  0  0  0  0  0
    0.3208    2.7458    0.0000 C   0  0  0  0  0  0  0  0  0  0  0  0
    0.3208   -3.0292    0.0000 C   0  0  0  0  0  0  0  0  0  0  0  0
    1.0333   -1.7917    0.0000 C   0  0  0  0  0  0  0  0  0  0  0  0
    1.0333   -3.4417    0.0000 C   0  0  0  0  0  0  0  0  0  0  0  0
    1.7500   -2.2042    0.0000 C   0  0  0  0  0  0  0  0  0  0  0  0
  2  8  1  0  0  0  0
  3  1  1  0  0  0  0
  4 16  1  0  0  0  0
  5  4  3  0  0  0  0
  6  1  2  0  0  0  0
  7  1  2  0  0  0  0
  8 15  2  0  0  0  0
  9  2  1  0  0  0  0
 10  1  1  0  0  0  0
 11  2  2  0  0  0  0
 12  3  1  0  0  0  0
 13  3  2  0  0  0  0
 14 12  2  0  0  0  0
 14  8  1  0  0  0  0
 15 13  1  0  0  0  0
 16 10  1  0  0  0  0
 17  9  1  0  0  0  0
 18  9  1  0  0  0  0
 19 17  1  0  0  0  0
 20 18  1  0  0  0  0
M  END
> <CdId>
3520

> <Mol Weight>
294.369

> <Formula>
C14H18N2O3S

> <Click_ID>
CLK046H05 __ __ 

$$$$
