CLK033_D05
 OpenBabel03191401532D

 24 26  0  0  0  0  0  0  0  0999 V2000
   -4.5928    2.5553    0.0000 C    0  0  0  0  0  0  0  0  0  0  0  0
   -3.8788    2.9770    0.0000 N    0  0  0  0  0  0  0  0  0  0  0  0
   -4.6847    1.7369    0.0000 N    0  0  0  0  0  0  0  0  0  0  0  0
   -5.3318    2.9018    0.0000 S    0  0  0  0  0  0  0  0  0  0  0  0
   -5.4947    1.5741    0.0000 C    0  0  0  0  0  0  0  0  0  0  0  0
   -5.8955    2.3006    0.0000 C    0  0  0  0  0  0  0  0  0  0  0  0
   -3.8788    3.8079    0.0000 C    0  0  0  0  0  0  0  0  0  0  0  0
   -4.2546    0.3507    0.0000 C    0  0  0  0  0  0  0  0  0  0  0  0
   -3.1648    4.2212    0.0000 C    0  0  0  0  0  0  0  0  0  0  0  0
   -4.4300   -0.4551    0.0000 C    0  0  0  0  0  0  0  0  0  0  0  0
   -5.9205    0.8726    0.0000 C    0  0  0  0  0  0  0  0  0  0  0  0
   -4.6053    4.2212    0.0000 O    0  0  0  0  0  0  0  0  0  0  0  0
   -2.4509    3.8079    0.0000 C    0  0  0  0  0  0  0  0  0  0  0  0
   -4.0667    1.1607    0.0000 C    0  0  0  0  0  0  0  0  0  0  0  0
   -1.7369    4.2129    0.0000 C    0  0  0  0  0  0  0  0  0  0  0  0
   -5.5197    0.1461    0.0000 Cl   0  0  0  0  0  0  0  0  0  0  0  0
   -6.7181    2.3131    0.0000 C    0  0  0  0  0  0  0  0  0  0  0  0
   -0.9979    3.8079    0.0000 O    0  0  0  0  0  0  0  0  0  0  0  0
   -3.1648    5.0396    0.0000 C    0  0  0  0  0  0  0  0  0  0  0  0
   -7.1440    1.6033    0.0000 C    0  0  0  0  0  0  0  0  0  0  0  0
   -2.4509    5.4530    0.0000 C    0  0  0  0  0  0  0  0  0  0  0  0
   -6.7306    0.8768    0.0000 C    0  0  0  0  0  0  0  0  0  0  0  0
   -1.7286    5.0396    0.0000 C    0  0  0  0  0  0  0  0  0  0  0  0
   -0.2839    4.2129    0.0000 C    0  0  0  0  0  0  0  0  0  0  0  0
  2  1  2  0  0  0  0
  3  1  1  0  0  0  0
  4  1  1  0  0  0  0
  5  3  1  0  0  0  0
  6  4  1  0  0  0  0
  6  5  2  0  0  0  0
  7  2  1  0  0  0  0
  8 14  1  0  0  0  0
  9  7  1  0  0  0  0
 10  8  3  0  0  0  0
 11  5  1  0  0  0  0
 12  7  2  0  0  0  0
 13  9  2  0  0  0  0
 14  3  1  0  0  0  0
 15 13  1  0  0  0  0
 15 23  2  0  0  0  0
 16 11  1  0  0  0  0
 17  6  1  0  0  0  0
 18 15  1  0  0  0  0
 19  9  1  0  0  0  0
 20 17  2  0  0  0  0
 21 19  2  0  0  0  0
 22 11  2  0  0  0  0
 22 20  1  0  0  0  0
 23 21  1  0  0  0  0
 24 18  1  0  0  0  0
M  END
> <CdId>
2519

> <Mol Weight>
356.826

> <Formula>
C18H13ClN2O2S

> <Click_ID>
CLK033_D05 __ __ 

$$$$
