CLK032_G03
 OpenBabel03191401532D

 27 29  0  0  0  0  0  0  0  0999 V2000
   -1.1625    2.3833    0.0000 C   0  0  0  0  0  0  0  0  0  0  0  0
   -0.3375    2.3750    0.0000 N   0  0  0  0  0  0  0  0  0  0  0  0
   -1.6458    1.7208    0.0000 N   0  0  0  0  0  0  0  0  0  0  0  0
   -1.6458    3.0500    0.0000 S   0  0  0  0  0  0  0  0  0  0  0  0
   -2.4333    2.7958    0.0000 C   0  0  0  0  0  0  0  0  0  0  0  0
   -2.4333    1.9708    0.0000 C   0  0  0  0  0  0  0  0  0  0  0  0
    0.0750    3.0875    0.0000 C   0  0  0  0  0  0  0  0  0  0  0  0
    4.2167    3.0583    0.0000 N   0  0  0  0  0  0  0  0  0  0  0  0
   -3.1458    3.2083    0.0000 C   0  0  0  0  0  0  0  0  0  0  0  0
   -1.9458    0.3208    0.0000 C   0  0  0  0  0  0  0  0  0  0  0  0
   -2.4958   -0.2917    0.0000 C   0  0  0  0  0  0  0  0  0  0  0  0
   -3.1458    1.5583    0.0000 C   0  0  0  0  0  0  0  0  0  0  0  0
    3.3875    3.0625    0.0000 C   0  0  0  0  0  0  0  0  0  0  0  0
    0.9000    3.0875    0.0000 C   0  0  0  0  0  0  0  0  0  0  0  0
   -5.2875    2.8000    0.0000 C   0  0  0  0  0  0  0  0  0  0  0  0
   -4.5833    3.2125    0.0000 N   0  0  0  0  0  0  0  0  0  0  0  0
   -3.8583    2.7958    0.0000 C   0  0  0  0  0  0  0  0  0  0  0  0
   -0.3375    3.8000    0.0000 O   0  0  0  0  0  0  0  0  0  0  0  0
   -1.3958    0.9333    0.0000 C   0  0  0  0  0  0  0  0  0  0  0  0
   -6.0000    3.2125    0.0000 O   0  0  0  0  0  0  0  0  0  0  0  0
    1.3250    3.8000    0.0000 C   0  0  0  0  0  0  0  0  0  0  0  0
    1.3250    2.3708    0.0000 C   0  0  0  0  0  0  0  0  0  0  0  0
    2.5542    3.0708    0.0000 C   0  0  0  0  0  0  0  0  0  0  0  0
   -3.8583    1.9708    0.0000 C   0  0  0  0  0  0  0  0  0  0  0  0
    2.1292    2.3625    0.0000 C   0  0  0  0  0  0  0  0  0  0  0  0
    2.1500    3.7958    0.0000 C   0  0  0  0  0  0  0  0  0  0  0  0
   -5.2958    1.9750    0.0000 C   0  0  0  0  0  0  0  0  0  0  0  0
  2  1  2  0  0  0  0
  3  1  1  0  0  0  0
  4  1  1  0  0  0  0
  5  4  1  0  0  0  0
  5  6  2  0  0  0  0
  6  3  1  0  0  0  0
  7  2  1  0  0  0  0
  8 13  3  0  0  0  0
  9  5  1  0  0  0  0
 10 19  1  0  0  0  0
 11 10  3  0  0  0  0
 12  6  1  0  0  0  0
 13 23  1  0  0  0  0
 14  7  1  0  0  0  0
 15 16  1  0  0  0  0
 16 17  1  0  0  0  0
 17  9  2  0  0  0  0
 17 24  1  0  0  0  0
 18  7  2  0  0  0  0
 19  3  1  0  0  0  0
 20 15  2  0  0  0  0
 21 14  1  0  0  0  0
 22 14  2  0  0  0  0
 23 25  2  0  0  0  0
 23 26  1  0  0  0  0
 24 12  2  0  0  0  0
 25 22  1  0  0  0  0
 26 21  2  0  0  0  0
 27 15  1  0  0  0  0
M  END
> <CdId>
2467

> <Mol Weight>
374.416

> <Formula>
C20H14N4O2S

> <Click_ID>
CLK032_G03 __ __ 

$$$$
