CLK024_E09
 OpenBabel03191401532D

 23 24  0  0  0  0  0  0  0  0999 V2000
   -1.6455    0.2880    0.0000 N   0  0  0  0  0  0  0  0  0  0  0  0
   -1.2307   -0.4217    0.0000 C   0  0  0  0  0  0  0  0  0  0  0  0
   -0.3531    0.5862    0.0000 C   0  0  0  0  0  0  0  0  0  0  0  0
   -1.1175    0.8982    0.0000 C   0  0  0  0  0  0  0  0  0  0  0  0
   -0.4251   -0.2331    0.0000 S   0  0  0  0  0  0  0  0  0  0  0  0
    1.7963   -1.4466    0.0000 N   0  3  0  0  0  0  0  0  0  0  0  0
    0.3531    1.0113    0.0000 C   0  0  0  0  0  0  0  0  0  0  0  0
    1.0764    0.6102    0.0000 C   0  0  0  0  0  0  0  0  0  0  0  0
    1.7860   -0.6274    0.0000 C   0  0  0  0  0  0  0  0  0  0  0  0
    2.5026   -0.2091    0.0000 C   0  0  0  0  0  0  0  0  0  0  0  0
    2.4923    0.6239    0.0000 C   0  0  0  0  0  0  0  0  0  0  0  0
    1.7724    1.0319    0.0000 C   0  0  0  0  0  0  0  0  0  0  0  0
    1.0764   -0.2160    0.0000 C   0  0  0  0  0  0  0  0  0  0  0  0
   -2.8179    1.1073    0.0000 C   0  0  0  0  0  0  0  0  0  0  0  0
   -3.2019    1.8375    0.0000 C   0  0  0  0  0  0  0  0  0  0  0  0
    1.0970   -1.8615    0.0000 O   0  5  0  0  0  0  0  0  0  0  0  0
   -1.5529   -1.1759    0.0000 O   0  0  0  0  0  0  0  0  0  0  0  0
    2.5162   -1.8547    0.0000 O   0  0  0  0  0  0  0  0  0  0  0  0
   -1.3061    1.7004    0.0000 O   0  0  0  0  0  0  0  0  0  0  0  0
   -2.4648    0.3668    0.0000 C   0  0  0  0  0  0  0  0  0  0  0  0
    1.7724    1.8512    0.0000 O   0  0  0  0  0  0  0  0  0  0  0  0
    3.1985    1.0353    0.0000 O   0  0  0  0  0  0  0  0  0  0  0  0
    3.1950    1.8649    0.0000 C   0  0  0  0  0  0  0  0  0  0  0  0
  2  1  1  0  0  0  0
  3  4  1  0  0  0  0
  3  5  1  0  0  0  0
  4  1  1  0  0  0  0
  5  2  1  0  0  0  0
  6  9  1  0  0  0  0
  7  3  2  0  0  0  0
  8  7  1  0  0  0  0
  9 13  1  0  0  0  0
 10  9  2  0  0  0  0
 10 11  1  0  0  0  0
 11 12  2  0  0  0  0
 12  8  1  0  0  0  0
 13  8  2  0  0  0  0
 14 20  1  0  0  0  0
 15 14  3  0  0  0  0
 16  6  1  0  0  0  0
 17  2  2  0  0  0  0
 18  6  2  0  0  0  0
 19  4  2  0  0  0  0
 20  1  1  0  0  0  0
 21 12  1  0  0  0  0
 22 11  1  0  0  0  0
 23 22  1  0  0  0  0
M  END
> <CdId>
1824

> <Mol Weight>
334.304

> <Formula>
C14H10N2O6S

> <Click_ID>
CLK024_E09 __ __ 

$$$$
