CLK025_A10
 OpenBabel03191401532D

 29 32  0  0  0  0  0  0  0  0999 V2000
    1.1240    1.2448    0.0000 C    0  0  0  0  0  0  0  0  0  0  0  0
    1.8344    1.6585    0.0000 C    0  0  0  0  0  0  0  0  0  0  0  0
    1.8344    0.0000    0.0000 C    0  0  0  0  0  0  0  0  0  0  0  0
    1.1240    0.4138    0.0000 C    0  0  3  0  0  0  0  0  0  0  0  0
    2.5481    0.4138    0.0000 C    0  0  0  0  0  0  0  0  0  0  0  0
    2.5481    1.2448    0.0000 O    0  0  0  0  0  0  0  0  0  0  0  0
    0.4103    0.0000    0.0000 C    0  0  0  0  0  0  0  0  0  0  0  0
    1.8344   -0.8310    0.0000 C    0  0  0  0  0  0  0  0  0  0  0  0
   -1.0172   -0.8310    0.0000 C    0  0  0  0  0  0  0  0  0  0  0  0
    3.2687    0.0000    0.0000 C    0  0  0  0  0  0  0  0  0  0  0  0
    0.3966    1.6619    0.0000 C    0  0  0  0  0  0  0  0  0  0  0  0
   -1.0172    0.0000    0.0000 C    0  0  0  0  0  0  0  0  0  0  0  0
   -0.3035   -1.2413    0.0000 C    0  0  0  0  0  0  0  0  0  0  0  0
    2.5481   -1.2413    0.0000 C    0  0  0  0  0  0  0  0  0  0  0  0
    3.2687   -0.8310    0.0000 C    0  0  0  0  0  0  0  0  0  0  0  0
   -0.3035    0.4138    0.0000 C    0  0  0  0  0  0  0  0  0  0  0  0
    0.4103   -0.8310    0.0000 C    0  0  0  0  0  0  0  0  0  0  0  0
   -0.3172    2.0826    0.0000 N    0  0  0  0  0  0  0  0  0  0  0  0
   -3.1756   -1.2551    0.0000 C    0  0  0  0  0  0  0  0  0  0  0  0
   -3.8894   -1.6757    0.0000 C    0  0  0  0  0  0  0  0  0  0  0  0
    2.7240   -2.0516    0.0000 O    0  0  0  0  0  0  0  0  0  0  0  0
    3.8859   -1.3896    0.0000 O    0  0  0  0  0  0  0  0  0  0  0  0
    3.5445   -2.1309    0.0000 C    0  0  0  0  0  0  0  0  0  0  0  0
    1.8344    2.4826    0.0000 N    0  0  0  0  0  0  0  0  0  0  0  0
   -1.7378    0.4206    0.0000 Br   0  0  0  0  0  0  0  0  0  0  0  0
   -1.7378   -1.2516    0.0000 O    0  0  0  0  0  0  0  0  0  0  0  0
   -0.3035   -2.0653    0.0000 O    0  0  0  0  0  0  0  0  0  0  0  0
   -2.4654   -0.8379    0.0000 C    0  0  0  0  0  0  0  0  0  0  0  0
    0.4103   -2.4791    0.0000 C    0  0  0  0  0  0  0  0  0  0  0  0
  2  1  2  0  0  0  0
  3  4  1  0  0  0  0
  4  1  1  0  0  0  0
  5  3  2  0  0  0  0
  5  6  1  0  0  0  0
  6  2  1  0  0  0  0
  7  4  1  0  0  0  0
  8  3  1  0  0  0  0
  9 13  1  0  0  0  0
 10  5  1  0  0  0  0
 11  1  1  0  0  0  0
 12 16  1  0  0  0  0
 12  9  2  0  0  0  0
 13 17  2  0  0  0  0
 14  8  2  0  0  0  0
 15 14  1  0  0  0  0
 15 10  2  0  0  0  0
 16  7  2  0  0  0  0
 17  7  1  0  0  0  0
 18 11  3  0  0  0  0
 19 28  1  0  0  0  0
 20 19  3  0  0  0  0
 21 14  1  0  0  0  0
 22 15  1  0  0  0  0
 23 21  1  0  0  0  0
 23 22  1  0  0  0  0
 24  2  1  0  0  0  0
 25 12  1  0  0  0  0
 26  9  1  0  0  0  0
 27 13  1  0  0  0  0
 28 26  1  0  0  0  0
 29 27  1  0  0  0  0
M  END
> <CdId>
1865

> <Mol Weight>
455.258

> <Formula>
C21H15BrN2O5

> <Click_ID>
CLK025_A10 __ __ 

$$$$
