CLK006_B09
 OpenBabel03191401532D

 24 26  0  0  0  0  0  0  0  0999 V2000
    4.1682  -21.7047    0.0000 C    0  0  0  0  0  0  0  0  0  0  0  0
    4.9943  -21.6964    0.0000 C    0  0  0  0  0  0  0  0  0  0  0  0
    3.7426  -20.9955    0.0000 N    0  0  0  0  0  0  0  0  0  0  0  0
    5.3949  -20.9787    0.0000 C    0  0  0  0  0  0  0  0  0  0  0  0
    4.9818  -20.2736    0.0000 N    0  0  0  0  0  0  0  0  0  0  0  0
    4.1474  -20.2778    0.0000 C    0  0  0  0  0  0  0  0  0  0  0  0
    3.7593  -22.4265    0.0000 N    0  0  0  0  0  0  0  0  0  0  0  0
    5.4157  -22.4099    0.0000 C    0  0  3  0  0  0  0  0  0  0  0  0
    6.2293  -22.3974    0.0000 C    0  0  0  0  0  0  0  0  0  0  0  0
    4.1765  -23.1275    0.0000 C    0  0  0  0  0  0  0  0  0  0  0  0
    6.6508  -23.1067    0.0000 C    0  0  0  0  0  0  0  0  0  0  0  0
    5.0111  -23.1234    0.0000 C    0  0  0  0  0  0  0  0  0  0  0  0
    2.4701  -18.8633    0.0000 C    0  0  0  0  0  0  0  0  0  0  0  0
    2.0486  -18.1541    0.0000 C    0  0  0  0  0  0  0  0  0  0  0  0
    7.4727  -23.0941    0.0000 C    0  0  0  0  0  0  0  0  0  0  0  0
    6.6341  -21.6797    0.0000 C    0  0  0  0  0  0  0  0  0  0  0  0
    6.2210  -20.9454    0.0000 O    0  0  0  0  0  0  0  0  0  0  0  0
    3.7551  -23.8326    0.0000 O    0  0  0  0  0  0  0  0  0  0  0  0
    3.7218  -19.5643    0.0000 S    0  0  0  0  0  0  0  0  0  0  0  0
    7.8775  -22.3723    0.0000 C    0  0  0  0  0  0  0  0  0  0  0  0
    6.2544  -23.8326    0.0000 Cl   0  0  0  0  0  0  0  0  0  0  0  0
    7.4477  -21.6714    0.0000 C    0  0  0  0  0  0  0  0  0  0  0  0
    8.7119  -22.3598    0.0000 Cl   0  0  0  0  0  0  0  0  0  0  0  0
    2.8915  -19.5726    0.0000 C    0  0  0  0  0  0  0  0  0  0  0  0
  2  1  2  0  0  0  0
  3  1  1  0  0  0  0
  4  2  1  0  0  0  0
  4  5  1  0  0  0  0
  5  6  1  0  0  0  0
  6  3  2  0  0  0  0
  7  1  1  0  0  0  0
  8  2  1  0  0  0  0
  8 12  1  0  0  0  0
  9  8  1  0  0  0  0
 10  7  1  0  0  0  0
 11  9  2  0  0  0  0
 12 10  1  0  0  0  0
 13 24  1  0  0  0  0
 14 13  3  0  0  0  0
 15 11  1  0  0  0  0
 15 20  2  0  0  0  0
 16  9  1  0  0  0  0
 17  4  2  0  0  0  0
 18 10  2  0  0  0  0
 19  6  1  0  0  0  0
 20 22  1  0  0  0  0
 21 11  1  0  0  0  0
 22 16  2  0  0  0  0
 23 20  1  0  0  0  0
 24 19  1  0  0  0  0
M  END
> <CdId>
418

> <Mol Weight>
380.248

> <Formula>
C16H11Cl2N3O2S

> <Click_ID>
CLK006_B09 __ __ 

$$$$
