CLK020_E06
 OpenBabel03191401532D

 17 17  0  0  0  0  0  0  0  0999 V2000
    4.6813    2.0999    0.0000 C   0  0  0  0  0  0  0  0  0  0  0  0
    3.8973    1.8432    0.0000 C   0  0  0  0  0  0  0  0  0  0  0  0
    5.3507    1.6185    0.0000 S   0  0  0  0  0  0  0  0  0  0  0  0
    4.9381    2.8839    0.0000 C   0  0  0  0  0  0  0  0  0  0  0  0
    3.2783    2.3934    0.0000 N   0  0  0  0  0  0  0  0  0  0  0  0
    2.0495    2.8289    0.0000 C   0  0  0  0  0  0  0  0  0  0  0  0
    6.0156    2.0999    0.0000 C   0  0  0  0  0  0  0  0  0  0  0  0
    1.6002    3.5304    0.0000 C   0  0  0  0  0  0  0  0  0  0  0  0
    5.7634    2.8839    0.0000 C   0  0  0  0  0  0  0  0  0  0  0  0
    2.4943    2.1412    0.0000 C   0  0  0  0  0  0  0  0  0  0  0  0
    3.7276    1.0408    0.0000 O   0  0  0  0  0  0  0  0  0  0  0  0
    6.7996    1.8432    0.0000 C   0  0  0  0  0  0  0  0  0  0  0  0
    1.7653    1.7560    0.0000 C   0  0  0  0  0  0  0  0  0  0  0  0
    2.8244    1.3846    0.0000 C   0  0  0  0  0  0  0  0  0  0  0  0
    7.4186    2.3934    0.0000 C   0  0  0  0  0  0  0  0  0  0  0  0
    2.3246    0.7244    0.0000 C   0  0  0  0  0  0  0  0  0  0  0  0
    1.0729    2.1871    0.0000 C   0  0  0  0  0  0  0  0  0  0  0  0
  2  1  1  0  0  0  0
  3  1  1  0  0  0  0
  4  1  2  0  0  0  0
  5  2  1  0  0  0  0
  6 10  1  0  0  0  0
  7  3  1  0  0  0  0
  8  6  3  0  0  0  0
  9  4  1  0  0  0  0
  9  7  2  0  0  0  0
 10  5  1  0  0  0  0
 11  2  2  0  0  0  0
 12  7  1  0  0  0  0
 13 10  1  0  0  0  0
 14 10  1  0  0  0  0
 15 12  1  0  0  0  0
 16 14  1  0  0  0  0
 17 13  1  0  0  0  0
M  END
> <CdId>
1521

> <Mol Weight>
249.372

> <Formula>
C14H19NOS

> <Click_ID>
CLK020_E06 __ __ 

$$$$
