CLK030_H02
 OpenBabel03191401532D

 27 30  0  0  0  0  0  0  0  0999 V2000
   -1.1625    2.3833    0.0000 C    0  0  0  0  0  0  0  0  0  0  0  0
   -0.3375    2.3750    0.0000 N    0  0  0  0  0  0  0  0  0  0  0  0
   -1.6458    1.7208    0.0000 N    0  0  0  0  0  0  0  0  0  0  0  0
   -1.6458    3.0500    0.0000 S    0  0  0  0  0  0  0  0  0  0  0  0
    0.9000    3.0875    0.0000 C    0  0  0  0  0  0  0  0  0  0  0  0
    0.0750    3.0875    0.0000 C    0  0  0  0  0  0  0  0  0  0  0  0
   -2.4333    2.7958    0.0000 C    0  0  0  0  0  0  0  0  0  0  0  0
    1.3167    3.8083    0.0000 C    0  0  0  0  0  0  0  0  0  0  0  0
   -2.4333    1.9708    0.0000 C    0  0  0  0  0  0  0  0  0  0  0  0
    1.3125    2.3833    0.0000 O    0  0  0  0  0  0  0  0  0  0  0  0
    2.1417    3.8000    0.0000 C    0  0  0  0  0  0  0  0  0  0  0  0
    2.5542    3.0833    0.0000 C    0  0  0  0  0  0  0  0  0  0  0  0
    2.1292    2.3750    0.0000 C    0  0  0  0  0  0  0  0  0  0  0  0
   -3.1458    3.2083    0.0000 C    0  0  0  0  0  0  0  0  0  0  0  0
   -1.9458    0.3208    0.0000 C    0  0  0  0  0  0  0  0  0  0  0  0
   -2.4958   -0.2917    0.0000 C    0  0  0  0  0  0  0  0  0  0  0  0
   -3.1458    1.5583    0.0000 C    0  0  0  0  0  0  0  0  0  0  0  0
   -0.3375    3.8000    0.0000 O    0  0  0  0  0  0  0  0  0  0  0  0
    2.5667    4.5167    0.0000 O    0  0  0  0  0  0  0  0  0  0  0  0
   -1.3958    0.9333    0.0000 C    0  0  0  0  0  0  0  0  0  0  0  0
   -3.8583    2.7958    0.0000 C    0  0  0  0  0  0  0  0  0  0  0  0
   -3.8583    1.9708    0.0000 C    0  0  0  0  0  0  0  0  0  0  0  0
   -4.5833    3.2125    0.0000 Br   0  0  0  0  0  0  0  0  0  0  0  0
    3.3875    3.0708    0.0000 C    0  0  0  0  0  0  0  0  0  0  0  0
    2.5500    1.6500    0.0000 C    0  0  0  0  0  0  0  0  0  0  0  0
    3.7917    2.3625    0.0000 C    0  0  0  0  0  0  0  0  0  0  0  0
    3.3792    1.6458    0.0000 C    0  0  0  0  0  0  0  0  0  0  0  0
  2  1  2  0  0  0  0
  3  1  1  0  0  0  0
  4  1  1  0  0  0  0
  5  6  1  0  0  0  0
  6  2  1  0  0  0  0
  7  4  1  0  0  0  0
  7  9  2  0  0  0  0
  8  5  2  0  0  0  0
  9  3  1  0  0  0  0
 10  5  1  0  0  0  0
 11  8  1  0  0  0  0
 12 13  2  0  0  0  0
 12 11  1  0  0  0  0
 13 10  1  0  0  0  0
 14  7  1  0  0  0  0
 15 20  1  0  0  0  0
 16 15  3  0  0  0  0
 17  9  1  0  0  0  0
 18  6  2  0  0  0  0
 19 11  2  0  0  0  0
 20  3  1  0  0  0  0
 21 14  2  0  0  0  0
 21 22  1  0  0  0  0
 22 17  2  0  0  0  0
 23 21  1  0  0  0  0
 24 12  1  0  0  0  0
 24 26  2  0  0  0  0
 25 13  1  0  0  0  0
 26 27  1  0  0  0  0
 27 25  2  0  0  0  0
M  END
> <CdId>
2316

> <Mol Weight>
439.282

> <Formula>
C20H11BrN2O3S

> <Click_ID>
CLK030_H02 __ __ 

$$$$
