CLK031_E05
 OpenBabel03191401532D

 29 31  0  0  0  0  0  0  0  0999 V2000
   -1.1635    2.3854    0.0000 C   0  0  0  0  0  0  0  0  0  0  0  0
   -0.3378    2.3771    0.0000 N   0  0  0  0  0  0  0  0  0  0  0  0
   -4.5873    3.2153    0.0000 S   0  0  0  0  0  0  0  0  0  0  0  0
   -1.6472    1.7223    0.0000 N   0  0  0  0  0  0  0  0  0  0  0  0
   -1.6472    3.0526    0.0000 S   0  0  0  0  0  0  0  0  0  0  0  0
   -2.4354    2.7982    0.0000 C   0  0  0  0  0  0  0  0  0  0  0  0
   -2.4354    1.9726    0.0000 C   0  0  0  0  0  0  0  0  0  0  0  0
    0.0751    3.0902    0.0000 C   0  0  0  0  0  0  0  0  0  0  0  0
   -3.8616    2.7982    0.0000 C   0  0  0  0  0  0  0  0  0  0  0  0
   -3.1486    3.2111    0.0000 C   0  0  0  0  0  0  0  0  0  0  0  0
    3.3947    3.0735    0.0000 C   0  0  0  0  0  0  0  0  0  0  0  0
   -1.9475    0.3211    0.0000 C   0  0  0  0  0  0  0  0  0  0  0  0
   -3.1486    1.5596    0.0000 C   0  0  0  0  0  0  0  0  0  0  0  0
   -2.4980   -0.2919    0.0000 C   0  0  0  0  0  0  0  0  0  0  0  0
   -5.0252    2.5105    0.0000 O   0  0  0  0  0  0  0  0  0  0  0  0
   -4.1494    3.9117    0.0000 O   0  0  0  0  0  0  0  0  0  0  0  0
    0.9008    3.0902    0.0000 C   0  0  0  0  0  0  0  0  0  0  0  0
    2.5647    3.0902    0.0000 C   0  0  0  0  0  0  0  0  0  0  0  0
   -5.2879    3.6490    0.0000 N   0  0  0  0  0  0  0  0  0  0  0  0
   -0.3378    3.8033    0.0000 O   0  0  0  0  0  0  0  0  0  0  0  0
   -3.8616    1.9726    0.0000 C   0  0  0  0  0  0  0  0  0  0  0  0
    3.7950    2.3521    0.0000 O   0  0  0  0  0  0  0  0  0  0  0  0
   -1.3970    0.9341    0.0000 C   0  0  0  0  0  0  0  0  0  0  0  0
    1.3178    3.8116    0.0000 C   0  0  0  0  0  0  0  0  0  0  0  0
    1.3053    2.3854    0.0000 C   0  0  0  0  0  0  0  0  0  0  0  0
    2.1436    3.7991    0.0000 C   0  0  0  0  0  0  0  0  0  0  0  0
    2.1311    2.3729    0.0000 C   0  0  0  0  0  0  0  0  0  0  0  0
    3.8075    3.7991    0.0000 O   0  0  0  0  0  0  0  0  0  0  0  0
    3.4030    4.5082    0.0000 C   0  0  0  0  0  0  0  0  0  0  0  0
  2  1  2  0  0  0  0
  3  9  1  0  0  0  0
  4  1  1  0  0  0  0
  5  1  1  0  0  0  0
  6  5  1  0  0  0  0
  6  7  2  0  0  0  0
  7  4  1  0  0  0  0
  8  2  1  0  0  0  0
  9 10  2  0  0  0  0
  9 21  1  0  0  0  0
 10  6  1  0  0  0  0
 11 18  1  0  0  0  0
 12 23  1  0  0  0  0
 13  7  1  0  0  0  0
 14 12  3  0  0  0  0
 15  3  2  0  0  0  0
 16  3  2  0  0  0  0
 17  8  1  0  0  0  0
 18 27  2  0  0  0  0
 18 26  1  0  0  0  0
 19  3  1  0  0  0  0
 20  8  2  0  0  0  0
 21 13  2  0  0  0  0
 22 11  2  0  0  0  0
 23  4  1  0  0  0  0
 24 17  1  0  0  0  0
 25 17  2  0  0  0  0
 26 24  2  0  0  0  0
 27 25  1  0  0  0  0
 28 11  1  0  0  0  0
 29 28  1  0  0  0  0
M  END
> <CdId>
2369

> <Mol Weight>
429.47

> <Formula>
C19H15N3O5S2

> <Click_ID>
CLK031_E05 __ __ 

$$$$
