CLK050A02
 OpenBabel03191401532D

 20 21  0  0  0  0  0  0  0  0999 V2000
   -0.5000   -0.0208    0.0000 N    0  0  0  0  0  0  0  0  0  0  0  0
   -0.9875    0.6500    0.0000 C    0  0  0  0  0  0  0  0  0  0  0  0
    0.2833    1.0625    0.0000 C    0  0  3  0  0  0  0  0  0  0  0  0
   -0.7583   -0.8042    0.0000 C    0  0  0  0  0  0  0  0  0  0  0  0
    0.2833    0.2375    0.0000 C    0  0  0  0  0  0  0  0  0  0  0  0
    0.9500    1.5458    0.0000 C    0  0  0  0  0  0  0  0  0  0  0  0
   -0.5000    1.3167    0.0000 C    0  0  0  0  0  0  0  0  0  0  0  0
   -1.5625   -0.9750    0.0000 C    0  0  0  0  0  0  0  0  0  0  0  0
    3.1250    1.3583    0.0000 C    0  0  0  0  0  0  0  0  0  0  0  0
    3.8792    1.0250    0.0000 C    0  0  0  0  0  0  0  0  0  0  0  0
   -0.2042   -1.4167    0.0000 C    0  0  0  0  0  0  0  0  0  0  0  0
   -1.8125    0.6500    0.0000 O    0  0  0  0  0  0  0  0  0  0  0  0
   -1.8167   -1.7583    0.0000 C    0  0  0  0  0  0  0  0  0  0  0  0
    0.8625    2.3667    0.0000 O    0  0  0  0  0  0  0  0  0  0  0  0
    1.7042    1.2083    0.0000 N    0  0  0  0  0  0  0  0  0  0  0  0
   -1.2667   -2.3750    0.0000 C    0  0  0  0  0  0  0  0  0  0  0  0
   -0.4583   -2.2000    0.0000 C    0  0  0  0  0  0  0  0  0  0  0  0
   -1.5208   -3.1583    0.0000 Br   0  0  0  0  0  0  0  0  0  0  0  0
    2.3708    1.6958    0.0000 C    0  0  0  0  0  0  0  0  0  0  0  0
   -2.1167   -0.3625    0.0000 C    0  0  0  0  0  0  0  0  0  0  0  0
  2  1  1  0  0  0  0
  3  5  1  0  0  0  0
  4  1  1  0  0  0  0
  5  1  1  0  0  0  0
  6  3  1  0  0  0  0
  7  2  1  0  0  0  0
  7  3  1  0  0  0  0
  8  4  2  0  0  0  0
  9 19  1  0  0  0  0
 10  9  3  0  0  0  0
 11  4  1  0  0  0  0
 12  2  2  0  0  0  0
 13  8  1  0  0  0  0
 14  6  2  0  0  0  0
 15  6  1  0  0  0  0
 16 13  2  0  0  0  0
 17 11  2  0  0  0  0
 17 16  1  0  0  0  0
 18 16  1  0  0  0  0
 19 15  1  0  0  0  0
 20  8  1  0  0  0  0
M  END
> <CdId>
3809

> <Mol Weight>
335.196

> <Formula>
C15H15BrN2O2

> <Click_ID>
CLK050A02 __ __ 

$$$$
