CLK041H05
 OpenBabel03191401532D

 27 29  0  0  0  0  0  0  0  0999 V2000
    1.8875   -1.9833    0.0000 S   0  0  0  0  0  0  0  0  0  0  0  0
   -0.6167    0.1625    0.0000 C   0  0  0  0  0  0  0  0  0  0  0  0
    1.2625   -1.4458    0.0000 C   0  0  0  0  0  0  0  0  0  0  0  0
   -0.4625    0.9750    0.0000 N   0  0  0  0  0  0  0  0  0  0  0  0
    2.9875   -3.8708    0.0000 C   0  0  0  0  0  0  0  0  0  0  0  0
   -0.9375    2.3250    0.0000 C   0  0  0  0  0  0  0  0  0  0  0  0
    3.6167   -4.4083    0.0000 C   0  0  0  0  0  0  0  0  0  0  0  0
    2.4250   -1.3583    0.0000 O   0  0  0  0  0  0  0  0  0  0  0  0
    1.3500   -2.6125    0.0000 O   0  0  0  0  0  0  0  0  0  0  0  0
    0.0083   -0.3708    0.0000 C   0  0  0  0  0  0  0  0  0  0  0  0
    2.5167   -2.5208    0.0000 N   0  0  0  0  0  0  0  0  0  0  0  0
   -1.0917    1.5125    0.0000 C   0  0  0  0  0  0  0  0  0  0  0  0
   -1.3958   -0.1083    0.0000 O   0  0  0  0  0  0  0  0  0  0  0  0
   -1.7500    2.1708    0.0000 C   0  0  0  0  0  0  0  0  0  0  0  0
    0.4833   -1.7208    0.0000 C   0  0  0  0  0  0  0  0  0  0  0  0
    1.4167   -0.6375    0.0000 C   0  0  0  0  0  0  0  0  0  0  0  0
   -0.1417   -1.1833    0.0000 C   0  0  0  0  0  0  0  0  0  0  0  0
    0.7875   -0.1000    0.0000 C   0  0  0  0  0  0  0  0  0  0  0  0
    2.3625   -3.3333    0.0000 C   0  0  0  0  0  0  0  0  0  0  0  0
   -0.1125    2.3250    0.0000 C   0  0  0  0  0  0  0  0  0  0  0  0
   -0.9375    3.1500    0.0000 C   0  0  0  0  0  0  0  0  0  0  0  0
   -0.1125    3.1500    0.0000 C   0  0  0  0  0  0  0  0  0  0  0  0
   -2.0208    1.3917    0.0000 C   0  0  0  0  0  0  0  0  0  0  0  0
   -2.2875    2.7958    0.0000 C   0  0  0  0  0  0  0  0  0  0  0  0
   -3.0958    2.6458    0.0000 C   0  0  0  0  0  0  0  0  0  0  0  0
   -2.8333    1.2417    0.0000 C   0  0  0  0  0  0  0  0  0  0  0  0
   -3.3708    1.8667    0.0000 C   0  0  0  0  0  0  0  0  0  0  0  0
  2 10  1  0  0  0  0
  3  1  1  0  0  0  0
  4  2  1  0  0  0  0
  5 19  1  0  0  0  0
  6 12  1  0  0  0  0
  7  5  3  0  0  0  0
  8  1  2  0  0  0  0
  9  1  2  0  0  0  0
 10 18  2  0  0  0  0
 11  1  1  0  0  0  0
 12  4  1  0  0  0  0
 13  2  2  0  0  0  0
 14  6  1  0  0  0  0
 15  3  1  0  0  0  0
 16  3  2  0  0  0  0
 17 15  2  0  0  0  0
 17 10  1  0  0  0  0
 18 16  1  0  0  0  0
 19 11  1  0  0  0  0
 20  6  1  0  0  0  0
 21  6  1  0  0  0  0
 22 21  1  0  0  0  0
 22 20  1  0  0  0  0
 23 14  2  0  0  0  0
 24 14  1  0  0  0  0
 25 24  2  0  0  0  0
 26 23  1  0  0  0  0
 27 26  2  0  0  0  0
 27 25  1  0  0  0  0
M  END
> <CdId>
3120

> <Mol Weight>
382.476

> <Formula>
C21H22N2O3S

> <Click_ID>
CLK041H05 __ __ 

$$$$
