CLK009_D04
 OpenBabel03191401532D

 23 23  0  0  0  0  0  0  0  0999 V2000
   -0.8843    0.9004    0.0000 N    0  0  0  0  0  0  0  0  0  0  0  0
    1.2132    2.0868    0.0000 C    0  0  0  0  0  0  0  0  0  0  0  0
   -0.2103    1.2887    0.0000 C    0  0  0  0  0  0  0  0  0  0  0  0
    1.2132    1.2887    0.0000 C    0  0  0  0  0  0  0  0  0  0  0  0
    0.5176    2.5019    0.0000 C    0  0  0  0  0  0  0  0  0  0  0  0
    0.5176    0.8681    0.0000 C    0  0  0  0  0  0  0  0  0  0  0  0
   -0.2103    2.1137    0.0000 C    0  0  0  0  0  0  0  0  0  0  0  0
    1.9628    2.5019    0.0000 N    0  0  0  0  0  0  0  0  0  0  0  0
    4.7882   -0.0054    0.0000 C    0  0  0  0  0  0  0  0  0  0  0  0
    4.7882   -0.8412    0.0000 C    0  0  0  0  0  0  0  0  0  0  0  0
    2.6584    2.0868    0.0000 C    0  0  0  0  0  0  0  0  0  0  0  0
   -1.5529    1.2887    0.0000 O    0  0  0  0  0  0  0  0  0  0  0  0
   -0.8843    0.1240    0.0000 O    0  0  0  0  0  0  0  0  0  0  0  0
    5.5054    2.0652    0.0000 C    0  0  0  0  0  0  0  0  0  0  0  0
    2.6584    1.2563    0.0000 O    0  0  0  0  0  0  0  0  0  0  0  0
    6.2118    2.4534    0.0000 O    0  0  0  0  0  0  0  0  0  0  0  0
    1.6015    1.0622    0.0000 Cl   0  0  0  0  0  0  0  0  0  0  0  0
    0.5015    2.9549    0.0000 Cl   0  0  0  0  0  0  0  0  0  0  0  0
    5.4838    1.2294    0.0000 O    0  0  0  0  0  0  0  0  0  0  0  0
    4.7882    0.8196    0.0000 C    0  0  0  0  0  0  0  0  0  0  0  0
    3.3863    2.4750    0.0000 C    0  0  0  0  0  0  0  0  0  0  0  0
    4.7882    2.4750    0.0000 C    0  0  0  0  0  0  0  0  0  0  0  0
    4.0819    2.0652    0.0000 C    0  0  0  0  0  0  0  0  0  0  0  0
  2  5  2  0  0  0  0
  2  4  1  0  0  0  0
  3  1  1  0  0  0  0
  4  6  2  0  0  0  0
  5  7  1  0  0  0  0
  6  3  1  0  0  0  0
  7  3  2  0  0  0  0
  8  2  1  0  0  0  0
  9 20  1  0  0  0  0
 10  9  3  0  0  0  0
 11  8  1  0  0  0  0
 12  1  1  0  0  0  0
 13  1  2  0  0  0  0
 14 22  1  0  0  0  0
 15 11  2  0  0  0  0
 16 14  2  0  0  0  0
 17  4  1  0  0  0  0
 18  5  1  0  0  0  0
 19 14  1  0  0  0  0
 20 19  1  0  0  0  0
 21 11  1  0  0  0  0
 22 23  1  0  0  0  0
 23 21  1  0  0  0  0
M  END
> <CdId>
629

> <Mol Weight>
359.161

> <Formula>
C14H12Cl2N2O5

> <Click_ID>
CLK009_D04 __ __ 

$$$$
