CLK026_D03
 OpenBabel03191401532D

 33 35  0  0  0  0  0  0  0  0999 V2000
   -1.8597   -1.4231    0.0000 C   0  0  0  0  0  0  0  0  0  0  0  0
   -5.2697   -0.5913    0.0000 N   0  3  0  0  0  0  0  0  0  0  0  0
   -2.3409   -2.0831    0.0000 O   0  0  0  0  0  0  0  0  0  0  0  0
   -2.3409   -0.7528    0.0000 C   0  0  0  0  0  0  0  0  0  0  0  0
   -1.0347   -1.4266    0.0000 C   0  0  0  0  0  0  0  0  0  0  0  0
   -3.1247   -1.0038    0.0000 C   0  0  0  0  0  0  0  0  0  0  0  0
   -3.1247   -1.8253    0.0000 C   0  0  0  0  0  0  0  0  0  0  0  0
   -4.5478   -1.0038    0.0000 C   0  0  0  0  0  0  0  0  0  0  0  0
    3.0938    0.0000    0.0000 C   0  0  0  0  0  0  0  0  0  0  0  0
    2.6812    0.7184    0.0000 C   0  0  0  0  0  0  0  0  0  0  0  0
    2.6812   -0.7116    0.0000 C   0  0  0  0  0  0  0  0  0  0  0  0
   -3.8363   -0.5913    0.0000 C   0  0  0  0  0  0  0  0  0  0  0  0
    5.1563    0.7116    0.0000 C   0  0  0  0  0  0  0  0  0  0  0  0
    5.9778    0.7116    0.0000 C   0  0  0  0  0  0  0  0  0  0  0  0
    0.2028   -0.7116    0.0000 N   0  0  0  0  0  0  0  0  0  0  0  0
   -5.2697    0.2337    0.0000 O   0  5  0  0  0  0  0  0  0  0  0  0
   -5.9778   -1.0038    0.0000 O   0  0  0  0  0  0  0  0  0  0  0  0
   -0.6222   -0.7116    0.0000 N   0  0  0  0  0  0  0  0  0  0  0  0
    1.8494    0.7184    0.0000 C   0  0  0  0  0  0  0  0  0  0  0  0
    1.8494   -0.7116    0.0000 C   0  0  0  0  0  0  0  0  0  0  0  0
   -0.6222   -2.1382    0.0000 O   0  0  0  0  0  0  0  0  0  0  0  0
    1.4403    0.0000    0.0000 C   0  0  0  0  0  0  0  0  0  0  0  0
   -3.8363   -2.2378    0.0000 C   0  0  0  0  0  0  0  0  0  0  0  0
   -4.5478   -1.8253    0.0000 C   0  0  0  0  0  0  0  0  0  0  0  0
    0.6153    0.0000    0.0000 C   0  0  0  0  0  0  0  0  0  0  0  0
    2.6984   -2.1485    0.0000 C   0  0  0  0  0  0  0  0  0  0  0  0
    3.1178   -2.8600    0.0000 C   0  0  0  0  0  0  0  0  0  0  0  0
    3.0972    1.4334    0.0000 O   0  0  0  0  0  0  0  0  0  0  0  0
    3.9153    0.0000    0.0000 O   0  0  0  0  0  0  0  0  0  0  0  0
    3.1075   -1.4266    0.0000 C   0  0  0  0  0  0  0  0  0  0  0  0
    4.3278    0.7116    0.0000 C   0  0  0  0  0  0  0  0  0  0  0  0
    2.6881    2.1518    0.0000 C   0  0  0  0  0  0  0  0  0  0  0  0
    3.1075    2.8634    0.0000 C   0  0  0  0  0  0  0  0  0  0  0  0
  2  8  1  0  0  0  0
  3  1  1  0  0  0  0
  4  1  2  0  0  0  0
  5  1  1  0  0  0  0
  6  4  1  0  0  0  0
  6  7  1  0  0  0  0
  7  3  1  0  0  0  0
  8 12  1  0  0  0  0
  8 24  2  0  0  0  0
  9 11  1  0  0  0  0
 10 19  1  0  0  0  0
 10  9  2  0  0  0  0
 11 20  2  0  0  0  0
 12  6  2  0  0  0  0
 13 31  1  0  0  0  0
 14 13  3  0  0  0  0
 15 18  1  0  0  0  0
 16  2  1  0  0  0  0
 17  2  2  0  0  0  0
 18  5  1  0  0  0  0
 19 22  2  0  0  0  0
 20 22  1  0  0  0  0
 21  5  2  0  0  0  0
 22 25  1  0  0  0  0
 23  7  2  0  0  0  0
 24 23  1  0  0  0  0
 25 15  2  0  0  0  0
 26 30  1  0  0  0  0
 27 26  2  0  0  0  0
 28 10  1  0  0  0  0
 29  9  1  0  0  0  0
 30 11  1  0  0  0  0
 31 29  1  0  0  0  0
 32 28  1  0  0  0  0
 33 32  1  0  0  0  0
M  END
> <CdId>
1968

> <Mol Weight>
447.44

> <Formula>
C24H21N3O6

> <Click_ID>
CLK026_D03 __ __ 

$$$$
