CLK050H09
 OpenBabel03191401532D

 16 17  0  0  0  0  0  0  0  0999 V2000
   -0.2583   -0.1625    0.0000 C   0  0  0  0  0  0  0  0  0  0  0  0
    1.0083   -0.5750    0.0000 N   0  0  0  0  0  0  0  0  0  0  0  0
    0.2250    0.5042    0.0000 N   0  0  0  0  0  0  0  0  0  0  0  0
    1.0083    0.2500    0.0000 C   0  0  0  0  0  0  0  0  0  0  0  0
    0.2250   -0.8292    0.0000 C   0  0  0  0  0  0  0  0  0  0  0  0
   -1.0833   -0.1625    0.0000 C   0  0  0  0  0  0  0  0  0  0  0  0
    1.7250   -0.9875    0.0000 C   0  0  0  0  0  0  0  0  0  0  0  0
   -2.7333    1.2667    0.0000 C   0  0  0  0  0  0  0  0  0  0  0  0
   -3.1458    1.9792    0.0000 C   0  0  0  0  0  0  0  0  0  0  0  0
    1.7250    0.6625    0.0000 C   0  0  0  0  0  0  0  0  0  0  0  0
    2.4375    0.2500    0.0000 C   0  0  0  0  0  0  0  0  0  0  0  0
    2.4375   -0.5750    0.0000 C   0  0  0  0  0  0  0  0  0  0  0  0
   -1.4958   -0.8792    0.0000 O   0  0  0  0  0  0  0  0  0  0  0  0
   -1.4958    0.5500    0.0000 N   0  0  0  0  0  0  0  0  0  0  0  0
   -2.3208    0.5500    0.0000 C   0  0  0  0  0  0  0  0  0  0  0  0
    1.7250   -1.8125    0.0000 C   0  0  0  0  0  0  0  0  0  0  0  0
  2  5  1  0  0  0  0
  2  4  1  0  0  0  0
  3  1  1  0  0  0  0
  4  3  2  0  0  0  0
  5  1  2  0  0  0  0
  6  1  1  0  0  0  0
  7  2  1  0  0  0  0
  8 15  1  0  0  0  0
  9  8  3  0  0  0  0
 10  4  1  0  0  0  0
 11 10  2  0  0  0  0
 11 12  1  0  0  0  0
 12  7  2  0  0  0  0
 13  6  2  0  0  0  0
 14  6  1  0  0  0  0
 15 14  1  0  0  0  0
 16  7  1  0  0  0  0
M  END
> <CdId>
3872

> <Mol Weight>
213.2352

> <Formula>
C12H11N3O

> <Click_ID>
CLK050H09 __ __ 

$$$$
