CLK004_A06
 OpenBabel03191401532D

 31 34  0  0  0  0  0  0  0  0999 V2000
   -0.0114   -0.0114    0.0000 C   0  0  3  0  0  0  0  0  0  0  0  0
    0.7108   -0.4105    0.0000 C   0  0  0  0  0  0  0  0  0  0  0  0
   -0.0190    0.8173    0.0000 C   0  0  0  0  0  0  0  0  0  0  0  0
   -0.7222   -0.4333    0.0000 C   0  0  0  0  0  0  0  0  0  0  0  0
    1.4140    0.0076    0.0000 C   0  0  0  0  0  0  0  0  0  0  0  0
    0.7108   -1.2315    0.0000 C   0  0  0  0  0  0  0  0  0  0  0  0
    0.6842    1.2278    0.0000 C   0  0  0  0  0  0  0  0  0  0  0  0
   -0.7412    1.2163    0.0000 C   0  0  0  0  0  0  0  0  0  0  0  0
   -0.7070   -1.2582    0.0000 C   0  0  0  0  0  0  0  0  0  0  0  0
   -1.4444   -0.0228    0.0000 C   0  0  0  0  0  0  0  0  0  0  0  0
    1.3988    0.8286    0.0000 N   0  0  0  0  0  0  0  0  0  0  0  0
    2.1324   -0.3915    0.0000 C   0  0  0  0  0  0  0  0  0  0  0  0
    1.4406   -1.6383    0.0000 C   0  0  0  0  0  0  0  0  0  0  0  0
   -0.0037   -1.6648    0.0000 O   0  0  0  0  0  0  0  0  0  0  0  0
    0.6690    2.0602    0.0000 C   0  0  0  0  0  0  0  0  0  0  0  0
   -0.7488    2.0412    0.0000 C   0  0  0  0  0  0  0  0  0  0  0  0
   -1.4558    0.7944    0.0000 O   0  0  0  0  0  0  0  0  0  0  0  0
   -1.4254   -1.6763    0.0000 C   0  0  0  0  0  0  0  0  0  0  0  0
   -2.1552   -0.4485    0.0000 C   0  0  0  0  0  0  0  0  0  0  0  0
    2.1172    1.2582    0.0000 C   0  0  0  0  0  0  0  0  0  0  0  0
    2.1438   -1.2239    0.0000 C   0  0  0  0  0  0  0  0  0  0  0  0
   -0.0456    2.4555    0.0000 C   0  0  0  0  0  0  0  0  0  0  0  0
   -2.1438   -1.2771    0.0000 C   0  0  0  0  0  0  0  0  0  0  0  0
    2.1020    2.0830    0.0000 C   0  0  0  0  0  0  0  0  0  0  0  0
   -2.8584   -1.6991    0.0000 O   0  0  0  0  0  0  0  0  0  0  0  0
    2.7330    2.4707    0.0000 C   0  0  0  0  0  0  0  0  0  0  0  0
   -2.8432   -2.5201    0.0000 C   0  0  0  0  0  0  0  0  0  0  0  0
    2.7216    3.2956    0.0000 O   0  0  0  0  0  0  0  0  0  0  0  0
    3.4400    2.0564    0.0000 O   0  0  0  0  0  0  0  0  0  0  0  0
   -3.5502   -2.9421    0.0000 C   0  0  0  0  0  0  0  0  0  0  0  0
   -3.5464   -3.7668    0.0000 C   0  0  0  0  0  0  0  0  0  0  0  0
  1  2  1  0  0  0  0
  1  3  1  0  0  0  0
  1  4  1  0  0  0  0
  2  5  2  0  0  0  0
  2  6  1  0  0  0  0
  3  7  2  0  0  0  0
  3  8  1  0  0  0  0
  4  9  2  0  0  0  0
  4 10  1  0  0  0  0
  5 11  1  0  0  0  0
  5 12  1  0  0  0  0
  6 13  1  0  0  0  0
  6 14  2  0  0  0  0
  7 15  1  0  0  0  0
  7 11  1  0  0  0  0
  8 16  1  0  0  0  0
  8 17  2  0  0  0  0
  9 18  1  0  0  0  0
 10 19  2  0  0  0  0
 11 20  1  0  0  0  0
 12 21  1  0  0  0  0
 13 21  1  0  0  0  0
 15 22  1  0  0  0  0
 16 22  1  0  0  0  0
 18 23  2  0  0  0  0
 19 23  1  0  0  0  0
 20 24  1  0  0  0  0
 23 25  1  0  0  0  0
 24 26  1  0  0  0  0
 25 27  1  0  0  0  0
 26 28  1  0  0  0  0
 26 29  2  0  0  0  0
 27 30  1  0  0  0  0
 30 31  3  0  0  0  0
M  END
> <CdId>
245

> <Mol Weight>
419.4697

> <Formula>
C25H25NO5

> <Click_ID>
CLK004_A06 __ __ 

$$$$
