CLK012_H09
 OpenBabel03191401532D

 26 28  0  0  0  0  0  0  0  0999 V2000
    1.5685   -0.8176    0.0000 N    0  0  0  0  0  0  0  0  0  0  0  0
    1.8271   -1.6060    0.0000 C    0  0  0  0  0  0  0  0  0  0  0  0
    2.9075   -0.8176    0.0000 C    0  0  0  0  0  0  0  0  0  0  0  0
    2.2401   -0.3296    0.0000 C    0  0  0  0  0  0  0  0  0  0  0  0
    2.6530   -1.6060    0.0000 S    0  0  0  0  0  0  0  0  0  0  0  0
    7.6380   -1.2181    0.0000 C    0  0  0  0  0  0  0  0  0  0  0  0
    3.6959   -0.5631    0.0000 C    0  0  0  0  0  0  0  0  0  0  0  0
    5.4980   -1.6811    0.0000 C    0  0  0  0  0  0  0  0  0  0  0  0
    5.1059   -0.9636    0.0000 O    0  0  0  0  0  0  0  0  0  0  0  0
    4.2966   -1.1180    0.0000 C    0  0  0  0  0  0  0  0  0  0  0  0
    6.8120   -1.1305    0.0000 C    0  0  0  0  0  0  0  0  0  0  0  0
    8.1260   -0.5674    0.0000 C    0  0  0  0  0  0  0  0  0  0  0  0
    6.3114   -1.7812    0.0000 C    0  0  0  0  0  0  0  0  0  0  0  0
    4.9474   -2.2818    0.0000 C    0  0  0  0  0  0  0  0  0  0  0  0
    0.6132    0.2461    0.0000 C    0  0  0  0  0  0  0  0  0  0  0  0
    4.2090   -1.9564    0.0000 C    0  0  0  0  0  0  0  0  0  0  0  0
    0.3922    1.0470    0.0000 C    0  0  0  0  0  0  0  0  0  0  0  0
    7.9508   -1.9815    0.0000 C    0  0  0  0  0  0  0  0  0  0  0  0
    1.3390   -2.2693    0.0000 O    0  0  0  0  0  0  0  0  0  0  0  0
    2.2318    0.4964    0.0000 O    0  0  0  0  0  0  0  0  0  0  0  0
    0.7884   -0.5631    0.0000 C    0  0  0  0  0  0  0  0  0  0  0  0
    7.8090    0.1877    0.0000 O    0  0  0  0  0  0  0  0  0  0  0  0
    6.6368   -2.5446    0.0000 C    0  0  0  0  0  0  0  0  0  0  0  0
    7.4503   -2.6447    0.0000 C    0  0  0  0  0  0  0  0  0  0  0  0
    8.9395   -0.6675    0.0000 O    0  0  0  0  0  0  0  0  0  0  0  0
    8.7643   -2.0816    0.0000 Cl   0  0  0  0  0  0  0  0  0  0  0  0
  2  1  1  0  0  0  0
  3  4  1  0  0  0  0
  4  1  1  0  0  0  0
  5  2  1  0  0  0  0
  5  3  1  0  0  0  0
  6 11  2  0  0  0  0
  7  3  2  0  0  0  0
  8  9  1  0  0  0  0
  9 10  1  0  0  0  0
 10  7  1  0  0  0  0
 11 13  1  0  0  0  0
 12  6  1  0  0  0  0
 13  8  1  0  0  0  0
 14 16  1  0  0  0  0
 14  8  2  0  0  0  0
 15 21  1  0  0  0  0
 16 10  2  0  0  0  0
 17 15  3  0  0  0  0
 18 24  2  0  0  0  0
 18  6  1  0  0  0  0
 19  2  2  0  0  0  0
 20  4  2  0  0  0  0
 21  1  1  0  0  0  0
 22 12  2  0  0  0  0
 23 13  2  0  0  0  0
 24 23  1  0  0  0  0
 25 12  1  0  0  0  0
 26 18  1  0  0  0  0
M  END
> <CdId>
914

> <Mol Weight>
387.794

> <Formula>
C18H10ClNO5S

> <Click_ID>
CLK012_H09 __ __ 

$$$$
