CLK012_G08
 OpenBabel03191401532D

 27 29  0  0  0  0  0  0  0  0999 V2000
    5.1262   -1.3875    0.0000 N   0  0  0  0  0  0  0  0  0  0  0  0
    4.9891   -2.2058    0.0000 C   0  0  0  0  0  0  0  0  0  0  0  0
    4.3909   -1.0136    0.0000 C   0  0  0  0  0  0  0  0  0  0  0  0
    3.8052   -1.5952    0.0000 C   0  0  0  0  0  0  0  0  0  0  0  0
    4.1791   -2.3346    0.0000 S   0  0  0  0  0  0  0  0  0  0  0  0
    2.9910   -1.4623    0.0000 C   0  0  0  0  0  0  0  0  0  0  0  0
    5.8573   -1.0136    0.0000 C   0  0  0  0  0  0  0  0  0  0  0  0
    5.5748   -2.7916    0.0000 S   0  0  0  0  0  0  0  0  0  0  0  0
    0.6647   -5.4502    0.0000 C   0  0  0  0  0  0  0  0  0  0  0  0
    0.1495   -6.0858    0.0000 C   0  0  0  0  0  0  0  0  0  0  0  0
    4.2621   -0.1994    0.0000 O   0  0  0  0  0  0  0  0  0  0  0  0
    2.4675   -2.1103    0.0000 C   0  0  0  0  0  0  0  0  0  0  0  0
    6.5469   -1.4706    0.0000 C   0  0  0  0  0  0  0  0  0  0  0  0
    7.9178   -2.3720    0.0000 C   0  0  0  0  0  0  0  0  0  0  0  0
    1.4124   -3.3939    0.0000 C   0  0  0  0  0  0  0  0  0  0  0  0
    2.7584   -2.8788    0.0000 C   0  0  0  0  0  0  0  0  0  0  0  0
    1.6450   -1.9732    0.0000 C   0  0  0  0  0  0  0  0  0  0  0  0
    7.2780   -1.0967    0.0000 C   0  0  0  0  0  0  0  0  0  0  0  0
    6.4971   -2.2848    0.0000 C   0  0  0  0  0  0  0  0  0  0  0  0
    7.9676   -1.5495    0.0000 C   0  0  0  0  0  0  0  0  0  0  0  0
    7.1825   -2.7334    0.0000 C   0  0  0  0  0  0  0  0  0  0  0  0
    2.2349   -3.5186    0.0000 C   0  0  0  0  0  0  0  0  0  0  0  0
    1.1216   -2.6088    0.0000 C   0  0  0  0  0  0  0  0  0  0  0  0
    1.1839   -4.8022    0.0000 C   0  0  0  0  0  0  0  0  0  0  0  0
    0.8890   -4.0378    0.0000 O   0  0  0  0  0  0  0  0  0  0  0  0
    8.5990   -2.8207    0.0000 O   0  0  0  0  0  0  0  0  0  0  0  0
    9.3343   -2.4551    0.0000 C   0  0  0  0  0  0  0  0  0  0  0  0
  2  1  1  0  0  0  0
  3  1  1  0  0  0  0
  4  3  1  0  0  0  0
  5  2  1  0  0  0  0
  5  4  1  0  0  0  0
  6  4  2  0  0  0  0
  7  1  1  0  0  0  0
  8  2  2  0  0  0  0
  9 24  1  0  0  0  0
 10  9  3  0  0  0  0
 11  3  2  0  0  0  0
 12  6  1  0  0  0  0
 13  7  1  0  0  0  0
 14 21  2  0  0  0  0
 14 20  1  0  0  0  0
 15 23  2  0  0  0  0
 15 22  1  0  0  0  0
 16 12  1  0  0  0  0
 17 12  2  0  0  0  0
 18 13  1  0  0  0  0
 19 13  2  0  0  0  0
 20 18  2  0  0  0  0
 21 19  1  0  0  0  0
 22 16  2  0  0  0  0
 23 17  1  0  0  0  0
 24 25  1  0  0  0  0
 25 15  1  0  0  0  0
 26 14  1  0  0  0  0
 27 26  1  0  0  0  0
M  END
> <CdId>
903

> <Mol Weight>
395.495

> <Formula>
C21H17NO3S2

> <Click_ID>
CLK012_G08 __ __ 

$$$$
