CLK018_F07
 OpenBabel03191401532D

 23 24  0  0  0  0  0  0  0  0999 V2000
    1.5650   -0.8158    0.0000 N   0  0  0  0  0  0  0  0  0  0  0  0
    1.8230   -1.6024    0.0000 C   0  0  0  0  0  0  0  0  0  0  0  0
    2.9010   -0.8158    0.0000 C   0  0  0  0  0  0  0  0  0  0  0  0
    2.2350   -0.3288    0.0000 C   0  0  0  0  0  0  0  0  0  0  0  0
    2.6470   -1.6024    0.0000 S   0  0  0  0  0  0  0  0  0  0  0  0
    3.9706   -0.4662    0.0000 C   0  0  0  0  0  0  0  0  0  0  0  0
    4.1371    0.3371    0.0000 C   0  0  0  0  0  0  0  0  0  0  0  0
    4.9237    0.5951    0.0000 C   0  0  0  0  0  0  0  0  0  0  0  0
    3.5253    0.8865    0.0000 C   0  0  0  0  0  0  0  0  0  0  0  0
    0.6118    0.2455    0.0000 C   0  0  0  0  0  0  0  0  0  0  0  0
    5.0860    1.3942    0.0000 C   0  0  0  0  0  0  0  0  0  0  0  0
    3.6959    1.6856    0.0000 C   0  0  0  0  0  0  0  0  0  0  0  0
    0.3913    1.0446    0.0000 C   0  0  0  0  0  0  0  0  0  0  0  0
    1.3360   -2.2642    0.0000 O   0  0  0  0  0  0  0  0  0  0  0  0
    2.2267    0.4952    0.0000 O   0  0  0  0  0  0  0  0  0  0  0  0
    4.4700    1.9436    0.0000 C   0  0  0  0  0  0  0  0  0  0  0  0
    0.7866   -0.5619    0.0000 C   0  0  0  0  0  0  0  0  0  0  0  0
    5.5355    0.0375    0.0000 O   0  0  0  0  0  0  0  0  0  0  0  0
    2.7386    0.6326    0.0000 O   0  0  0  0  0  0  0  0  0  0  0  0
    4.6448    2.7469    0.0000 O   0  0  0  0  0  0  0  0  0  0  0  0
    6.3179    0.2955    0.0000 C   0  0  0  0  0  0  0  0  0  0  0  0
    2.1268    1.1820    0.0000 C   0  0  0  0  0  0  0  0  0  0  0  0
    4.0247    3.2921    0.0000 C   0  0  0  0  0  0  0  0  0  0  0  0
  2  1  1  0  0  0  0
  3  4  1  0  0  0  0
  3  5  1  0  0  0  0
  4  1  1  0  0  0  0
  5  2  1  0  0  0  0
  6  3  2  0  0  0  0
  7  6  1  0  0  0  0
  8  7  2  0  0  0  0
  9  7  1  0  0  0  0
 10 17  1  0  0  0  0
 11  8  1  0  0  0  0
 12  9  2  0  0  0  0
 13 10  3  0  0  0  0
 14  2  2  0  0  0  0
 15  4  2  0  0  0  0
 16 12  1  0  0  0  0
 16 11  2  0  0  0  0
 17  1  1  0  0  0  0
 18  8  1  0  0  0  0
 19  9  1  0  0  0  0
 20 16  1  0  0  0  0
 21 18  1  0  0  0  0
 22 19  1  0  0  0  0
 23 20  1  0  0  0  0
M  END
> <CdId>
1372

> <Mol Weight>
333.359

> <Formula>
C16H15NO5S

> <Click_ID>
CLK018_F07 __ __ 

$$$$
