CLK005_A11
 OpenBabel03191401532D

 23 25  0  0  0  0  0  0  0  0999 V2000
    4.2328   -3.9953    0.0000 N   0  0  0  0  0  0  0  0  0  0  0  0
    4.4078   -3.1871    0.0000 C   0  0  0  0  0  0  0  0  0  0  0  0
    5.1202   -2.7747    0.0000 N   0  0  0  0  0  0  0  0  0  0  0  0
    3.6913   -2.7747    0.0000 N   0  0  0  0  0  0  0  0  0  0  0  0
    3.4163   -4.0787    0.0000 C   0  0  0  0  0  0  0  0  0  0  0  0
    5.1202   -1.9456    0.0000 C   0  0  0  0  0  0  0  0  0  0  0  0
    3.0746   -3.3329    0.0000 N   0  0  0  0  0  0  0  0  0  0  0  0
    7.9908   -0.2833    0.0000 C   0  0  0  0  0  0  0  0  0  0  0  0
    8.7115    0.1375    0.0000 C   0  0  0  0  0  0  0  0  0  0  0  0
    5.8410   -1.5290    0.0000 C   0  0  0  0  0  0  0  0  0  0  0  0
    4.4037   -1.5331    0.0000 O   0  0  0  0  0  0  0  0  0  0  0  0
    3.0039   -4.8077    0.0000 C   0  0  0  0  0  0  0  0  0  0  0  0
    6.5534   -1.9415    0.0000 C   0  0  0  0  0  0  0  0  0  0  0  0
    5.8410   -0.7041    0.0000 C   0  0  0  0  0  0  0  0  0  0  0  0
    7.2700   -0.7041    0.0000 C   0  0  0  0  0  0  0  0  0  0  0  0
    6.5534   -0.2917    0.0000 C   0  0  0  0  0  0  0  0  0  0  0  0
    7.2700   -1.5290    0.0000 C   0  0  0  0  0  0  0  0  0  0  0  0
    2.1789   -4.8202    0.0000 C   0  0  0  0  0  0  0  0  0  0  0  0
    1.7581   -4.1078    0.0000 C   0  0  0  0  0  0  0  0  0  0  0  0
    1.7665   -5.5369    0.0000 C   0  0  0  0  0  0  0  0  0  0  0  0
    0.9332   -4.1120    0.0000 C   0  0  0  0  0  0  0  0  0  0  0  0
    0.9416   -5.5411    0.0000 C   0  0  0  0  0  0  0  0  0  0  0  0
    0.5291   -4.8286    0.0000 C   0  0  0  0  0  0  0  0  0  0  0  0
  2  1  1  0  0  0  0
  3  2  1  0  0  0  0
  4  2  2  0  0  0  0
  5  1  2  0  0  0  0
  6  3  1  0  0  0  0
  7  5  1  0  0  0  0
  7  4  1  0  0  0  0
  8 15  1  0  0  0  0
  9  8  3  0  0  0  0
 10  6  1  0  0  0  0
 11  6  2  0  0  0  0
 12  5  1  0  0  0  0
 13 10  1  0  0  0  0
 14 10  2  0  0  0  0
 15 16  2  0  0  0  0
 15 17  1  0  0  0  0
 16 14  1  0  0  0  0
 17 13  2  0  0  0  0
 18 12  1  0  0  0  0
 19 18  1  0  0  0  0
 20 18  2  0  0  0  0
 21 19  2  0  0  0  0
 22 20  1  0  0  0  0
 23 22  2  0  0  0  0
 23 21  1  0  0  0  0
M  END
> <CdId>
330

> <Mol Weight>
302.33

> <Formula>
C18H14N4O

> <Click_ID>
CLK005_A11 __ __ 

$$$$
