CLK023_B10
 OpenBabel03191401532D

 32 34  0  0  0  0  0  0  0  0999 V2000
    0.9345    0.8384    0.0000 N    0  0  0  0  0  0  0  0  0  0  0  0
    0.7353    0.0447    0.0000 C    0  0  0  0  0  0  0  0  0  0  0  0
    0.2715    1.3296    0.0000 C    0  0  0  0  0  0  0  0  0  0  0  0
   -0.3401    0.8520    0.0000 C    0  0  0  0  0  0  0  0  0  0  0  0
   -0.1408    0.0550    0.0000 S    0  0  0  0  0  0  0  0  0  0  0  0
   -1.1338    1.0788    0.0000 C    0  0  0  0  0  0  0  0  0  0  0  0
   -2.9135   -0.6425    0.0000 C    0  0  0  0  0  0  0  0  0  0  0  0
    1.7316    1.0651    0.0000 C    0  0  0  0  0  0  0  0  0  0  0  0
   -3.1128    0.1546    0.0000 C    0  0  0  0  0  0  0  0  0  0  0  0
   -2.1198   -0.8658    0.0000 C    0  0  0  0  0  0  0  0  0  0  0  0
    2.3157    0.4844    0.0000 C    0  0  0  0  0  0  0  0  0  0  0  0
   -1.7282    0.5085    0.0000 C    0  0  0  0  0  0  0  0  0  0  0  0
   -4.8788   -1.5702    0.0000 C    0  0  0  0  0  0  0  0  0  0  0  0
   -5.4628   -2.1542    0.0000 C    0  0  0  0  0  0  0  0  0  0  0  0
    1.3193   -0.5360    0.0000 O    0  0  0  0  0  0  0  0  0  0  0  0
    3.1128    0.7044    0.0000 N    0  0  0  0  0  0  0  0  0  0  0  0
    0.2611    2.1577    0.0000 O    0  0  0  0  0  0  0  0  0  0  0  0
   -2.5253    0.7318    0.0000 C    0  0  0  0  0  0  0  0  0  0  0  0
   -1.5289   -0.2921    0.0000 C    0  0  0  0  0  0  0  0  0  0  0  0
    2.1130   -0.3127    0.0000 O    0  0  0  0  0  0  0  0  0  0  0  0
   -3.8996    0.3848    0.0000 Cl   0  0  0  0  0  0  0  0  0  0  0  0
    3.6968    0.1237    0.0000 C    0  0  0  0  0  0  0  0  0  0  0  0
   -3.4976   -1.2128    0.0000 O    0  0  0  0  0  0  0  0  0  0  0  0
   -1.9034   -1.6629    0.0000 O    0  0  0  0  0  0  0  0  0  0  0  0
    4.8788   -1.0273    0.0000 C    0  0  0  0  0  0  0  0  0  0  0  0
    3.4839   -0.6734    0.0000 C    0  0  0  0  0  0  0  0  0  0  0  0
    4.4940    0.3401    0.0000 C    0  0  0  0  0  0  0  0  0  0  0  0
    5.0780   -0.2302    0.0000 C    0  0  0  0  0  0  0  0  0  0  0  0
    4.0817   -1.2506    0.0000 C    0  0  0  0  0  0  0  0  0  0  0  0
   -4.2947   -0.9860    0.0000 C    0  0  0  0  0  0  0  0  0  0  0  0
    5.4628   -1.6114    0.0000 C    0  0  0  0  0  0  0  0  0  0  0  0
   -1.1063   -1.8725    0.0000 C    0  0  0  0  0  0  0  0  0  0  0  0
  2  1  1  0  0  0  0
  3  1  1  0  0  0  0
  4  3  1  0  0  0  0
  4  5  1  0  0  0  0
  5  2  1  0  0  0  0
  6  4  2  0  0  0  0
  7 10  2  0  0  0  0
  8  1  1  0  0  0  0
  9 18  2  0  0  0  0
  9  7  1  0  0  0  0
 10 19  1  0  0  0  0
 11  8  1  0  0  0  0
 12  6  1  0  0  0  0
 13 30  1  0  0  0  0
 14 13  3  0  0  0  0
 15  2  2  0  0  0  0
 16 11  1  0  0  0  0
 17  3  2  0  0  0  0
 18 12  1  0  0  0  0
 19 12  2  0  0  0  0
 20 11  2  0  0  0  0
 21  9  1  0  0  0  0
 22 16  1  0  0  0  0
 23  7  1  0  0  0  0
 24 10  1  0  0  0  0
 25 28  1  0  0  0  0
 25 29  2  0  0  0  0
 26 22  2  0  0  0  0
 27 22  1  0  0  0  0
 28 27  2  0  0  0  0
 29 26  1  0  0  0  0
 30 23  1  0  0  0  0
 31 25  1  0  0  0  0
 32 24  1  0  0  0  0
M  END
> <CdId>
1715

> <Mol Weight>
470.925

> <Formula>
C23H19ClN2O5S

> <Click_ID>
CLK023_B10 __ __ 

$$$$
