CLK007_D05
 OpenBabel03191401532D

 34 37  0  0  0  0  0  0  0  0999 V2000
   -0.6731   -0.6766    0.0000 C   0  0  3  0  0  0  0  0  0  0  0  0
   -1.3877   -1.0874    0.0000 C   0  0  0  0  0  0  0  0  0  0  0  0
    0.0414   -1.0978    0.0000 C   0  0  0  0  0  0  0  0  0  0  0  0
   -0.6697    0.1485    0.0000 C   0  0  0  0  0  0  0  0  0  0  0  0
   -1.3946   -1.9159    0.0000 C   0  0  0  0  0  0  0  0  0  0  0  0
   -2.0989   -0.6766    0.0000 C   0  0  0  0  0  0  0  0  0  0  0  0
    0.0414   -1.9228    0.0000 C   0  0  0  0  0  0  0  0  0  0  0  0
    0.7560   -0.6869    0.0000 C   0  0  0  0  0  0  0  0  0  0  0  0
    0.0448    0.5558    0.0000 C   0  0  0  0  0  0  0  0  0  0  0  0
   -1.3808    0.5558    0.0000 C   0  0  0  0  0  0  0  0  0  0  0  0
   -0.6800   -2.3266    0.0000 N   0  0  0  0  0  0  0  0  0  0  0  0
   -2.0989   -2.3266    0.0000 C   0  0  0  0  0  0  0  0  0  0  0  0
   -2.8100   -1.0874    0.0000 C   0  0  0  0  0  0  0  0  0  0  0  0
   -2.0989    0.1485    0.0000 O   0  0  0  0  0  0  0  0  0  0  0  0
    0.7456   -2.3405    0.0000 C   0  0  0  0  0  0  0  0  0  0  0  0
    1.4706   -1.1012    0.0000 N   0  0  0  0  0  0  0  0  0  0  0  0
    0.7560    0.1381    0.0000 O   0  0  0  0  0  0  0  0  0  0  0  0
    0.0518    1.3877    0.0000 C   0  0  0  0  0  0  0  0  0  0  0  0
   -1.3808    1.3808    0.0000 C   0  0  0  0  0  0  0  0  0  0  0  0
   -2.8100   -1.9159    0.0000 C   0  0  3  0  0  0  0  0  0  0  0  0
    2.1852   -0.6869    0.0000 C   0  0  0  0  0  0  0  0  0  0  0  0
   -0.6697    1.8020    0.0000 C   0  0  0  0  0  0  0  0  0  0  0  0
    0.7698    1.7917    0.0000 O   0  0  0  0  0  0  0  0  0  0  0  0
   -3.5279   -2.3266    0.0000 C   0  0  0  0  0  0  0  0  0  0  0  0
    2.1714    0.1381    0.0000 C   0  0  0  0  0  0  0  0  0  0  0  0
    2.8963   -1.0874    0.0000 N   0  0  0  0  0  0  0  0  0  0  0  0
   -0.6697    2.6270    0.0000 O   0  0  0  0  0  0  0  0  0  0  0  0
    1.4844    1.3808    0.0000 C   0  0  0  0  0  0  0  0  0  0  0  0
    2.8790    0.5558    0.0000 C   0  0  0  0  0  0  0  0  0  0  0  0
    3.6073   -0.6766    0.0000 C   0  0  0  0  0  0  0  0  0  0  0  0
    0.0518    3.0412    0.0000 C   0  0  0  0  0  0  0  0  0  0  0  0
    3.5970    0.1485    0.0000 C   0  0  0  0  0  0  0  0  0  0  0  0
    0.0448    3.8663    0.0000 C   0  0  0  0  0  0  0  0  0  0  0  0
    0.7560    4.2840    0.0000 C   0  0  0  0  0  0  0  0  0  0  0  0
  1  2  1  0  0  0  0
  1  3  1  0  0  0  0
  1  4  1  0  0  0  0
  2  5  2  0  0  0  0
  2  6  1  0  0  0  0
  3  7  2  0  0  0  0
  3  8  1  0  0  0  0
  4  9  2  0  0  0  0
  4 10  1  0  0  0  0
  5 11  1  0  0  0  0
  5 12  1  0  0  0  0
  6 13  1  0  0  0  0
  6 14  2  0  0  0  0
  7 15  1  0  0  0  0
  7 11  1  0  0  0  0
  8 16  1  0  0  0  0
  8 17  2  0  0  0  0
  9 18  1  0  0  0  0
 10 19  2  0  0  0  0
 12 20  1  0  0  0  0
 13 20  1  0  0  0  0
 16 21  1  0  0  0  0
 18 22  2  0  0  0  0
 18 23  1  0  0  0  0
 19 22  1  0  0  0  0
 20 24  1  0  0  0  0
 21 25  1  0  0  0  0
 21 26  2  0  0  0  0
 22 27  1  0  0  0  0
 23 28  1  0  0  0  0
 25 29  2  0  0  0  0
 26 30  1  0  0  0  0
 27 31  1  0  0  0  0
 29 32  1  0  0  0  0
 30 32  2  0  0  0  0
 31 33  1  0  0  0  0
 33 34  3  0  0  0  0
M  END
> <CdId>
514

> <Mol Weight>
457.521

> <Formula>
C27H27N3O4

> <Click_ID>
CLK007_D05 __ __ 

$$$$
