CLK023_F07
 OpenBabel03191401532D

 23 24  0  0  0  0  0  0  0  0999 V2000
    1.5839    0.1237    0.0000 N   0  0  0  0  0  0  0  0  0  0  0  0
    1.1716   -0.5807    0.0000 C   0  0  0  0  0  0  0  0  0  0  0  0
    0.2748    0.4158    0.0000 C   0  0  0  0  0  0  0  0  0  0  0  0
    1.0342    0.7421    0.0000 C   0  0  0  0  0  0  0  0  0  0  0  0
    0.3608   -0.4055    0.0000 S   0  0  0  0  0  0  0  0  0  0  0  0
   -0.4364    0.8281    0.0000 C   0  0  0  0  0  0  0  0  0  0  0  0
   -1.1510    0.4158    0.0000 C   0  0  0  0  0  0  0  0  0  0  0  0
   -2.5837    0.4158    0.0000 C   0  0  0  0  0  0  0  0  0  0  0  0
   -1.8794    0.8281    0.0000 C   0  0  0  0  0  0  0  0  0  0  0  0
   -2.5837   -0.4123    0.0000 C   0  0  0  0  0  0  0  0  0  0  0  0
    2.8895   -0.4535    0.0000 C   0  0  0  0  0  0  0  0  0  0  0  0
   -1.1579   -0.4123    0.0000 C   0  0  0  0  0  0  0  0  0  0  0  0
   -1.8691   -0.8246    0.0000 C   0  0  0  0  0  0  0  0  0  0  0  0
    3.2984   -1.1750    0.0000 C   0  0  0  0  0  0  0  0  0  0  0  0
    1.5049   -1.3400    0.0000 O   0  0  0  0  0  0  0  0  0  0  0  0
    1.2094    1.5496    0.0000 O   0  0  0  0  0  0  0  0  0  0  0  0
    2.4051    0.2096    0.0000 C   0  0  0  0  0  0  0  0  0  0  0  0
   -1.8794    1.6492    0.0000 O   0  0  0  0  0  0  0  0  0  0  0  0
   -3.3018   -0.8281    0.0000 O   0  0  0  0  0  0  0  0  0  0  0  0
   -1.8691   -1.6457    0.0000 O   0  0  0  0  0  0  0  0  0  0  0  0
   -3.2915   -1.6492    0.0000 C   0  0  0  0  0  0  0  0  0  0  0  0
   -2.5906    2.0512    0.0000 C   0  0  0  0  0  0  0  0  0  0  0  0
   -1.1510   -2.0512    0.0000 C   0  0  0  0  0  0  0  0  0  0  0  0
  2  1  1  0  0  0  0
  3  4  1  0  0  0  0
  4  1  1  0  0  0  0
  5  2  1  0  0  0  0
  5  3  1  0  0  0  0
  6  3  2  0  0  0  0
  7  6  1  0  0  0  0
  8  9  1  0  0  0  0
  8 10  2  0  0  0  0
  9  7  2  0  0  0  0
 10 13  1  0  0  0  0
 11 17  1  0  0  0  0
 12  7  1  0  0  0  0
 13 12  2  0  0  0  0
 14 11  3  0  0  0  0
 15  2  2  0  0  0  0
 16  4  2  0  0  0  0
 17  1  1  0  0  0  0
 18  9  1  0  0  0  0
 19 10  1  0  0  0  0
 20 13  1  0  0  0  0
 21 19  1  0  0  0  0
 22 18  1  0  0  0  0
 23 20  1  0  0  0  0
M  END
> <CdId>
1752

> <Mol Weight>
333.359

> <Formula>
C16H15NO5S

> <Click_ID>
CLK023_F07 __ __ 

$$$$
