CLK032_B08
 OpenBabel03191401532D

 27 30  0  0  0  0  0  0  0  0999 V2000
   -0.0960    0.2714    0.0000 C   0  0  0  0  0  0  0  0  0  0  0  0
    0.6889    0.4843    0.0000 N   0  0  0  0  0  0  0  0  0  0  0  0
   -0.3089   -0.5303    0.0000 N   0  0  0  0  0  0  0  0  0  0  0  0
   -0.7974    0.7140    0.0000 S   0  0  0  0  0  0  0  0  0  0  0  0
   -1.1356   -0.5804    0.0000 C   0  0  0  0  0  0  0  0  0  0  0  0
    1.2693   -0.0919    0.0000 C   0  0  0  0  0  0  0  0  0  0  0  0
   -1.4363    0.1879    0.0000 C   0  0  0  0  0  0  0  0  0  0  0  0
   -1.6492   -1.2192    0.0000 C   0  0  0  0  0  0  0  0  0  0  0  0
    2.0710    0.1210    0.0000 C   0  0  0  0  0  0  0  0  0  0  0  0
   -2.2504    0.3131    0.0000 C   0  0  0  0  0  0  0  0  0  0  0  0
    2.2839    0.9144    0.0000 C   0  0  0  0  0  0  0  0  0  0  0  0
   -2.4676   -1.0939    0.0000 C   0  0  0  0  0  0  0  0  0  0  0  0
   -0.0960   -1.9457    0.0000 C   0  0  0  0  0  0  0  0  0  0  0  0
   -0.3966   -2.7223    0.0000 C   0  0  0  0  0  0  0  0  0  0  0  0
   -2.7640   -0.3299    0.0000 C   0  0  0  0  0  0  0  0  0  0  0  0
    1.0647   -0.8893    0.0000 O   0  0  0  0  0  0  0  0  0  0  0  0
    0.2046   -1.1816    0.0000 C   0  0  0  0  0  0  0  0  0  0  0  0
   -1.3486   -2.0041    0.0000 F   0  0  0  0  0  0  0  0  0  0  0  0
    3.0855    1.1273    0.0000 C   0  0  0  0  0  0  0  0  0  0  0  0
   -3.5907   -0.2129    0.0000 F   0  0  0  0  0  0  0  0  0  0  0  0
    2.6471   -0.4677    0.0000 C   0  0  0  0  0  0  0  0  0  0  0  0
    1.7035    1.5031    0.0000 C   0  0  0  0  0  0  0  0  0  0  0  0
    3.4571   -0.2422    0.0000 C   0  0  0  0  0  0  0  0  0  0  0  0
    3.6700    0.5386    0.0000 C   0  0  0  0  0  0  0  0  0  0  0  0
    3.2985    1.9248    0.0000 C   0  0  0  0  0  0  0  0  0  0  0  0
    1.9164    2.2880    0.0000 C   0  0  0  0  0  0  0  0  0  0  0  0
    2.7223    2.5135    0.0000 C   0  0  0  0  0  0  0  0  0  0  0  0
  2  1  2  0  0  0  0
  3  1  1  0  0  0  0
  4  1  1  0  0  0  0
  5  3  1  0  0  0  0
  5  7  2  0  0  0  0
  6  2  1  0  0  0  0
  7  4  1  0  0  0  0
  8  5  1  0  0  0  0
  9  6  1  0  0  0  0
 10  7  1  0  0  0  0
 11  9  1  0  0  0  0
 12  8  2  0  0  0  0
 12 15  1  0  0  0  0
 13 17  1  0  0  0  0
 14 13  3  0  0  0  0
 15 10  2  0  0  0  0
 16  6  2  0  0  0  0
 17  3  1  0  0  0  0
 18  8  1  0  0  0  0
 19 11  1  0  0  0  0
 20 15  1  0  0  0  0
 21  9  2  0  0  0  0
 22 11  2  0  0  0  0
 23 21  1  0  0  0  0
 24 23  2  0  0  0  0
 24 19  1  0  0  0  0
 25 19  2  0  0  0  0
 25 27  1  0  0  0  0
 26 22  1  0  0  0  0
 27 26  2  0  0  0  0
M  END
> <CdId>
2422

> <Mol Weight>
378.395

> <Formula>
C21H12F2N2OS

> <Click_ID>
CLK032_B08 __ __ 

$$$$
