CLK018_E06
 OpenBabel03191401532D

 18 19  0  0  0  0  0  0  0  0999 V2000
    5.3659   -2.1131    0.0000 O   0  0  0  0  0  0  0  0  0  0  0  0
    4.8210   -2.7246    0.0000 C   0  0  0  0  0  0  0  0  0  0  0  0
    5.2328   -3.4484    0.0000 N   0  0  0  0  0  0  0  0  0  0  0  0
    1.5224   -2.7204    0.0000 N   0  3  0  0  0  0  0  0  0  0  0  0
    6.0315   -3.2737    0.0000 N   0  0  0  0  0  0  0  0  0  0  0  0
    6.1188   -2.4583    0.0000 C   0  0  0  0  0  0  0  0  0  0  0  0
    2.3460   -2.7204    0.0000 C   0  0  0  0  0  0  0  0  0  0  0  0
    8.2735   -2.0590    0.0000 C   0  0  0  0  0  0  0  0  0  0  0  0
    8.9848   -1.6389    0.0000 C   0  0  0  0  0  0  0  0  0  0  0  0
    3.9974   -2.7246    0.0000 C   0  0  0  0  0  0  0  0  0  0  0  0
    1.1106   -2.0008    0.0000 O   0  5  0  0  0  0  0  0  0  0  0  0
    1.1023   -3.4317    0.0000 O   0  0  0  0  0  0  0  0  0  0  0  0
    6.8426   -2.0507    0.0000 S   0  0  0  0  0  0  0  0  0  0  0  0
    2.7620   -2.0008    0.0000 C   0  0  0  0  0  0  0  0  0  0  0  0
    2.7620   -3.4359    0.0000 C   0  0  0  0  0  0  0  0  0  0  0  0
    3.5856   -2.0091    0.0000 C   0  0  0  0  0  0  0  0  0  0  0  0
    3.5856   -3.4359    0.0000 C   0  0  0  0  0  0  0  0  0  0  0  0
    7.5539   -2.4625    0.0000 C   0  0  0  0  0  0  0  0  0  0  0  0
  2  1  1  0  0  0  0
  3  2  2  0  0  0  0
  4  7  1  0  0  0  0
  5  6  2  0  0  0  0
  5  3  1  0  0  0  0
  6  1  1  0  0  0  0
  7 15  1  0  0  0  0
  7 14  2  0  0  0  0
  8 18  1  0  0  0  0
  9  8  3  0  0  0  0
 10  2  1  0  0  0  0
 11  4  1  0  0  0  0
 12  4  2  0  0  0  0
 13  6  1  0  0  0  0
 14 16  1  0  0  0  0
 15 17  2  0  0  0  0
 16 10  2  0  0  0  0
 17 10  1  0  0  0  0
 18 13  1  0  0  0  0
M  END
> <CdId>
1361

> <Mol Weight>
261.257

> <Formula>
C11H7N3O3S

> <Click_ID>
CLK018_E06 __ __ 

$$$$
