CLK047C06
 OpenBabel03191401532D

 20 22  0  0  0  0  0  0  0  0999 V2000
   -3.5958    0.5375    0.0000 N   0  0  0  0  0  0  0  0  0  0  0  0
   -3.1083   -0.1292    0.0000 N   0  0  0  0  0  0  0  0  0  0  0  0
   -2.3250    0.1250    0.0000 C   0  0  0  0  0  0  0  0  0  0  0  0
   -0.1833   -0.2875    0.0000 C   0  0  0  0  0  0  0  0  0  0  0  0
   -3.1083    1.2042    0.0000 N   0  0  0  0  0  0  0  0  0  0  0  0
   -2.3250    0.9500    0.0000 C   0  0  0  0  0  0  0  0  0  0  0  0
   -0.8958    0.1250    0.0000 C   0  0  0  0  0  0  0  0  0  0  0  0
    0.5333    0.1250    0.0000 N   0  0  0  0  0  0  0  0  0  0  0  0
    3.3917    0.1250    0.0000 C   0  0  0  0  0  0  0  0  0  0  0  0
   -1.6125   -0.2875    0.0000 C   0  0  0  0  0  0  0  0  0  0  0  0
    4.1042    0.5375    0.0000 C   0  0  0  0  0  0  0  0  0  0  0  0
   -0.1833   -1.1125    0.0000 O   0  0  0  0  0  0  0  0  0  0  0  0
    1.2458   -0.2875    0.0000 C   0  0  0  0  0  0  0  0  0  0  0  0
   -1.6125    1.3625    0.0000 C   0  0  0  0  0  0  0  0  0  0  0  0
   -0.8958    0.9500    0.0000 C   0  0  0  0  0  0  0  0  0  0  0  0
    2.6750   -0.2875    0.0000 C   0  0  0  0  0  0  0  0  0  0  0  0
    1.9625    0.1250    0.0000 C   0  0  0  0  0  0  0  0  0  0  0  0
    1.9625   -1.5250    0.0000 C   0  0  0  0  0  0  0  0  0  0  0  0
    1.2458   -1.1125    0.0000 C   0  0  0  0  0  0  0  0  0  0  0  0
    2.6750   -1.1125    0.0000 C   0  0  0  0  0  0  0  0  0  0  0  0
  2  1  2  0  0  0  0
  3  2  1  0  0  0  0
  3  6  2  0  0  0  0
  4  7  1  0  0  0  0
  5  1  1  0  0  0  0
  6  5  1  0  0  0  0
  7 10  2  0  0  0  0
  8  4  1  0  0  0  0
  9 16  1  0  0  0  0
 10  3  1  0  0  0  0
 11  9  3  0  0  0  0
 12  4  2  0  0  0  0
 13  8  1  0  0  0  0
 14  6  1  0  0  0  0
 15 14  2  0  0  0  0
 15  7  1  0  0  0  0
 16 17  1  0  0  0  0
 17 13  2  0  0  0  0
 18 19  2  0  0  0  0
 19 13  1  0  0  0  0
 20 16  2  0  0  0  0
 20 18  1  0  0  0  0
M  END
> <CdId>
3603

> <Mol Weight>
262.2661

> <Formula>
C15H10N4O

> <Click_ID>
CLK047C06 __ __ 

$$$$
