CLK003_F03
 OpenBabel03191401532D

 30 32  0  0  0  0  0  0  0  0999 V2000
    0.5014    1.0953    0.0000 N   0  0  0  0  0  0  0  0  0  0  0  0
    0.8356    1.8527    0.0000 C   0  0  0  0  0  0  0  0  0  0  0  0
   -0.2988    0.9281    0.0000 C   0  0  0  0  0  0  0  0  0  0  0  0
    0.9281    0.3805    0.0000 N   0  0  0  0  0  0  0  0  0  0  0  0
    1.6606    1.9416    0.0000 C   0  0  0  0  0  0  0  0  0  0  0  0
    0.3485    2.5177    0.0000 C   0  0  0  0  0  0  0  0  0  0  0  0
   -0.3734    0.1031    0.0000 C   0  0  0  0  0  0  0  0  0  0  0  0
   -0.9104    1.4651    0.0000 O   0  0  0  0  0  0  0  0  0  0  0  0
    0.3769   -0.2347    0.0000 C   0  0  0  0  0  0  0  0  0  0  0  0
    1.9842    2.6955    0.0000 C   0  0  0  0  0  0  0  0  0  0  0  0
    0.6757    3.2680    0.0000 C   0  0  0  0  0  0  0  0  0  0  0  0
   -1.0917   -0.3094    0.0000 C   0  0  0  0  0  0  0  0  0  0  0  0
    0.5512   -1.0348    0.0000 C   0  0  0  0  0  0  0  0  0  0  0  0
    1.5007    3.3675    0.0000 C   0  0  0  0  0  0  0  0  0  0  0  0
   -1.0882   -1.1379    0.0000 C   0  0  0  0  0  0  0  0  0  0  0  0
    1.8278    4.1179    0.0000 S   0  0  0  0  0  0  0  0  0  0  0  0
   -1.7993   -1.5504    0.0000 C   0  0  0  0  0  0  0  0  0  0  0  0
   -0.3734   -1.5504    0.0000 C   0  0  0  0  0  0  0  0  0  0  0  0
    2.3470    4.7580    0.0000 N   0  0  0  0  0  0  0  0  0  0  0  0
    2.4750    3.6059    0.0000 O   0  0  0  0  0  0  0  0  0  0  0  0
    1.1771    4.6335    0.0000 O   0  0  0  0  0  0  0  0  0  0  0  0
   -1.7993   -2.3754    0.0000 C   0  0  0  0  0  0  0  0  0  0  0  0
   -0.3734   -2.3754    0.0000 C   0  0  0  0  0  0  0  0  0  0  0  0
   -1.0882   -2.7879    0.0000 C   0  0  0  0  0  0  0  0  0  0  0  0
   -2.5177   -2.7879    0.0000 O   0  0  0  0  0  0  0  0  0  0  0  0
   -1.0917   -3.6200    0.0000 O   0  0  0  0  0  0  0  0  0  0  0  0
   -3.2288   -2.3754    0.0000 C   0  0  0  0  0  0  0  0  0  0  0  0
   -0.3769   -4.0396    0.0000 C   0  0  0  0  0  0  0  0  0  0  0  0
   -0.3876   -4.8646    0.0000 C   0  0  0  0  0  0  0  0  0  0  0  0
   -0.3876   -5.6861    0.0000 C   0  0  0  0  0  0  0  0  0  0  0  0
  1  2  1  0  0  0  0
  1  3  1  0  0  0  0
  1  4  1  0  0  0  0
  2  5  2  0  0  0  0
  2  6  1  0  0  0  0
  3  7  1  0  0  0  0
  3  8  2  0  0  0  0
  4  9  2  0  0  0  0
  5 10  1  0  0  0  0
  6 11  2  0  0  0  0
  7 12  2  0  0  0  0
  7  9  1  0  0  0  0
  9 13  1  0  0  0  0
 10 14  2  0  0  0  0
 11 14  1  0  0  0  0
 12 15  1  0  0  0  0
 14 16  1  0  0  0  0
 15 17  1  0  0  0  0
 15 18  2  0  0  0  0
 16 19  1  0  0  0  0
 16 20  2  0  0  0  0
 16 21  2  0  0  0  0
 17 22  2  0  0  0  0
 18 23  1  0  0  0  0
 22 24  1  0  0  0  0
 22 25  1  0  0  0  0
 23 24  2  0  0  0  0
 24 26  1  0  0  0  0
 25 27  1  0  0  0  0
 26 28  1  0  0  0  0
 28 29  1  0  0  0  0
 29 30  3  0  0  0  0
M  END
> <CdId>
212

> <Mol Weight>
425.458

> <Formula>
C21H19N3O5S

> <Click_ID>
CLK003_F03 __ __ 

$$$$
