CLK020_F02
 OpenBabel03191401532D

 24 25  0  0  0  0  0  0  0  0999 V2000
    4.1090    3.2523    0.0000 C   0  0  0  0  0  0  0  0  0  0  0  0
    4.8236    3.6646    0.0000 C   0  0  0  0  0  0  0  0  0  0  0  0
    4.1090    2.4278    0.0000 C   0  0  0  0  0  0  0  0  0  0  0  0
    4.8236    4.4800    0.0000 C   0  0  0  0  0  0  0  0  0  0  0  0
    4.8236    5.3046    0.0000 N   0  0  0  0  0  0  0  0  0  0  0  0
    8.3875    1.6032    0.0000 N   0  0  0  0  0  0  0  0  0  0  0  0
    1.2552    2.4278    0.0000 C   0  0  0  0  0  0  0  0  0  0  0  0
    0.5406    2.8401    0.0000 C   0  0  0  0  0  0  0  0  0  0  0  0
    7.6820    2.0155    0.0000 C   0  0  0  0  0  0  0  0  0  0  0  0
    5.5382    3.2523    0.0000 C   0  0  0  0  0  0  0  0  0  0  0  0
    3.3944    2.0155    0.0000 C   0  0  0  0  0  0  0  0  0  0  0  0
    4.8236    2.0155    0.0000 C   0  0  0  0  0  0  0  0  0  0  0  0
    5.5382    2.4278    0.0000 C   0  0  0  0  0  0  0  0  0  0  0  0
    6.2528    3.6646    0.0000 C   0  0  0  0  0  0  0  0  0  0  0  0
    3.3944    1.1910    0.0000 C   0  0  0  0  0  0  0  0  0  0  0  0
    6.9674    2.4278    0.0000 C   0  0  0  0  0  0  0  0  0  0  0  0
    4.8236    1.1910    0.0000 C   0  0  0  0  0  0  0  0  0  0  0  0
    6.2528    2.0155    0.0000 C   0  0  0  0  0  0  0  0  0  0  0  0
    6.9674    3.2523    0.0000 C   0  0  0  0  0  0  0  0  0  0  0  0
    4.1090    0.7787    0.0000 C   0  0  0  0  0  0  0  0  0  0  0  0
    2.6798    2.4278    0.0000 O   0  0  0  0  0  0  0  0  0  0  0  0
    1.9652    2.0155    0.0000 C   0  0  0  0  0  0  0  0  0  0  0  0
    5.5382    0.7787    0.0000 O   0  0  0  0  0  0  0  0  0  0  0  0
    5.5382   -0.0458    0.0000 C   0  0  0  0  0  0  0  0  0  0  0  0
  2  1  2  0  0  0  0
  3  1  1  0  0  0  0
  4  2  1  0  0  0  0
  5  4  3  0  0  0  0
  6  9  3  0  0  0  0
  7 22  1  0  0  0  0
  8  7  3  0  0  0  0
  9 16  1  0  0  0  0
 10  2  1  0  0  0  0
 11  3  2  0  0  0  0
 12  3  1  0  0  0  0
 13 10  2  0  0  0  0
 14 10  1  0  0  0  0
 15 11  1  0  0  0  0
 15 20  2  0  0  0  0
 16 19  1  0  0  0  0
 16 18  2  0  0  0  0
 17 12  2  0  0  0  0
 18 13  1  0  0  0  0
 19 14  2  0  0  0  0
 20 17  1  0  0  0  0
 21 11  1  0  0  0  0
 22 21  1  0  0  0  0
 23 17  1  0  0  0  0
 24 23  1  0  0  0  0
M  END
> <CdId>
1527

> <Mol Weight>
314.3374

> <Formula>
C20H14N2O2

> <Click_ID>
CLK020_F02 __ __ 

$$$$
