CLK034_G08
 OpenBabel03191401532D

 29 32  0  0  0  0  0  0  0  0999 V2000
   -4.5918    2.5561    0.0000 C   0  0  0  0  0  0  0  0  0  0  0  0
   -3.8592    2.9807    0.0000 N   0  0  0  0  0  0  0  0  0  0  0  0
   -1.0075    3.7926    0.0000 N   0  0  0  0  0  0  0  0  0  0  0  0
   -4.6834    1.7318    0.0000 N   0  0  0  0  0  0  0  0  0  0  0  0
   -5.3162    2.8975    0.0000 S   0  0  0  0  0  0  0  0  0  0  0  0
   -3.8675    3.7968    0.0000 C   0  0  0  0  0  0  0  0  0  0  0  0
   -5.4911    1.5819    0.0000 C   0  0  0  0  0  0  0  0  0  0  0  0
   -5.8907    2.3064    0.0000 C   0  0  0  0  0  0  0  0  0  0  0  0
   -1.7193    4.2089    0.0000 C   0  0  0  0  0  0  0  0  0  0  0  0
   -0.9617    2.9682    0.0000 C   0  0  0  0  0  0  0  0  0  0  0  0
   -0.2373    4.0882    0.0000 C   0  0  0  0  0  0  0  0  0  0  0  0
   -2.4354    3.8051    0.0000 C   0  0  0  0  0  0  0  0  0  0  0  0
   -3.1556    4.2089    0.0000 C   0  0  0  0  0  0  0  0  0  0  0  0
   -4.2671    0.3580    0.0000 C   0  0  0  0  0  0  0  0  0  0  0  0
   -4.4544   -0.4538    0.0000 C   0  0  0  0  0  0  0  0  0  0  0  0
   -4.5793    4.2089    0.0000 O   0  0  0  0  0  0  0  0  0  0  0  0
    0.2914    3.4678    0.0000 C   0  0  0  0  0  0  0  0  0  0  0  0
   -0.1457    2.7684    0.0000 C   0  0  0  0  0  0  0  0  0  0  0  0
   -0.0208    4.8833    0.0000 O   0  0  0  0  0  0  0  0  0  0  0  0
   -1.5944    2.4562    0.0000 O   0  0  0  0  0  0  0  0  0  0  0  0
   -5.9199    0.8826    0.0000 C   0  0  0  0  0  0  0  0  0  0  0  0
   -4.0798    1.1615    0.0000 C   0  0  0  0  0  0  0  0  0  0  0  0
   -6.7068    2.3313    0.0000 C   0  0  0  0  0  0  0  0  0  0  0  0
   -1.7110    5.0248    0.0000 C   0  0  0  0  0  0  0  0  0  0  0  0
   -3.1473    5.0373    0.0000 C   0  0  0  0  0  0  0  0  0  0  0  0
   -2.4312    5.4495    0.0000 C   0  0  0  0  0  0  0  0  0  0  0  0
   -7.1356    1.6236    0.0000 C   0  0  0  0  0  0  0  0  0  0  0  0
   -6.7234    0.8951    0.0000 C   0  0  0  0  0  0  0  0  0  0  0  0
   -5.5285    0.1499    0.0000 C   0  0  0  0  0  0  0  0  0  0  0  0
  2  1  2  0  0  0  0
  3  9  1  0  0  0  0
  4  1  1  0  0  0  0
  5  1  1  0  0  0  0
  6  2  1  0  0  0  0
  7  4  1  0  0  0  0
  8  5  1  0  0  0  0
  8  7  2  0  0  0  0
  9 12  1  0  0  0  0
  9 24  2  0  0  0  0
 10  3  1  0  0  0  0
 11  3  1  0  0  0  0
 12 13  2  0  0  0  0
 13  6  1  0  0  0  0
 14 22  1  0  0  0  0
 15 14  3  0  0  0  0
 16  6  2  0  0  0  0
 17 11  1  0  0  0  0
 18 10  1  0  0  0  0
 18 17  1  0  0  0  0
 19 11  2  0  0  0  0
 20 10  2  0  0  0  0
 21  7  1  0  0  0  0
 22  4  1  0  0  0  0
 23  8  1  0  0  0  0
 24 26  1  0  0  0  0
 25 13  1  0  0  0  0
 26 25  2  0  0  0  0
 27 23  2  0  0  0  0
 28 21  2  0  0  0  0
 28 27  1  0  0  0  0
 29 21  1  0  0  0  0
M  END
> <CdId>
2632

> <Mol Weight>
403.454

> <Formula>
C22H17N3O3S

> <Click_ID>
CLK034_G08 __ __ 

$$$$
