CLK037A11
 OpenBabel03191401532D

 22 23  0  0  0  0  0  0  0  0999 V2000
    0.3542    0.9958    0.0000 N   0  0  0  0  0  0  0  0  0  0  0  0
   -0.3583    0.5833    0.0000 C   0  0  0  0  0  0  0  0  0  0  0  0
    0.3542    1.8208    0.0000 N   0  0  0  0  0  0  0  0  0  0  0  0
   -0.3583    2.2333    0.0000 C   0  0  0  0  0  0  0  0  0  0  0  0
   -0.3583   -0.2417    0.0000 C   0  0  0  0  0  0  0  0  0  0  0  0
   -1.0750    0.9958    0.0000 C   0  0  0  0  0  0  0  0  0  0  0  0
   -1.0750    1.8208    0.0000 C   0  0  0  0  0  0  0  0  0  0  0  0
    0.3542   -0.6542    0.0000 C   0  0  0  0  0  0  0  0  0  0  0  0
    1.7833   -2.3042    0.0000 C   0  0  0  0  0  0  0  0  0  0  0  0
    2.5000   -2.7167    0.0000 C   0  0  0  0  0  0  0  0  0  0  0  0
    0.3542   -1.4792    0.0000 N   0  0  0  0  0  0  0  0  0  0  0  0
    1.0708   -1.8917    0.0000 C   0  0  0  0  0  0  0  0  0  0  0  0
   -0.3583    3.0583    0.0000 O   0  0  0  0  0  0  0  0  0  0  0  0
    1.0708   -0.2417    0.0000 O   0  0  0  0  0  0  0  0  0  0  0  0
   -1.7875    0.5833    0.0000 C   0  0  0  0  0  0  0  0  0  0  0  0
   -1.7875    2.2333    0.0000 C   0  0  0  0  0  0  0  0  0  0  0  0
    0.6583   -2.6042    0.0000 C   0  0  0  0  0  0  0  0  0  0  0  0
    1.4833   -1.1792    0.0000 C   0  0  0  0  0  0  0  0  0  0  0  0
   -0.1667   -2.6042    0.0000 C   0  0  0  0  0  0  0  0  0  0  0  0
    2.3083   -1.1792    0.0000 C   0  0  0  0  0  0  0  0  0  0  0  0
   -2.5042    1.8208    0.0000 C   0  0  0  0  0  0  0  0  0  0  0  0
   -2.5042    0.9958    0.0000 C   0  0  0  0  0  0  0  0  0  0  0  0
  2  1  2  0  0  0  0
  3  1  1  0  0  0  0
  4  3  1  0  0  0  0
  5  2  1  0  0  0  0
  6  2  1  0  0  0  0
  6  7  2  0  0  0  0
  7  4  1  0  0  0  0
  8  5  1  0  0  0  0
  9 12  1  0  0  0  0
 10  9  3  0  0  0  0
 11  8  1  0  0  0  0
 12 11  1  0  0  0  0
 13  4  2  0  0  0  0
 14  8  2  0  0  0  0
 15  6  1  0  0  0  0
 16  7  1  0  0  0  0
 17 12  1  0  0  0  0
 18 12  1  0  0  0  0
 19 17  1  0  0  0  0
 20 18  1  0  0  0  0
 21 16  2  0  0  0  0
 22 15  2  0  0  0  0
 22 21  1  0  0  0  0
M  END
> <CdId>
2841

> <Mol Weight>
297.3517

> <Formula>
C17H19N3O2

> <Click_ID>
CLK037A11 __ __ 

$$$$
