CLK025_B11
 OpenBabel03191401532D

 25 28  0  0  0  0  0  0  0  0999 V2000
   -2.4643   -0.0172    0.0000 N   0  0  0  0  0  0  0  0  0  0  0  0
   -1.9728    0.6496    0.0000 C   0  0  0  0  0  0  0  0  0  0  0  0
   -1.9762   -0.6908    0.0000 C   0  0  0  0  0  0  0  0  0  0  0  0
   -1.1960   -0.4399    0.0000 C   0  0  0  0  0  0  0  0  0  0  0  0
   -2.4540    1.3129    0.0000 N   0  0  0  0  0  0  0  0  0  0  0  0
   -1.1857    0.3850    0.0000 S   0  0  0  0  0  0  0  0  0  0  0  0
   -3.2410    0.2337    0.0000 C   0  0  0  0  0  0  0  0  0  0  0  0
   -3.2410    1.0552    0.0000 C   0  0  0  0  0  0  0  0  0  0  0  0
   -0.5293   -0.9314    0.0000 C   0  0  0  0  0  0  0  0  0  0  0  0
    3.9181    0.2371    0.0000 C   0  0  0  0  0  0  0  0  0  0  0  0
    4.6708    0.5602    0.0000 C   0  0  0  0  0  0  0  0  0  0  0  0
    1.6429   -0.7424    0.0000 C   0  0  0  0  0  0  0  0  0  0  0  0
   -2.2374   -1.4744    0.0000 O   0  0  0  0  0  0  0  0  0  0  0  0
    0.2337   -0.5912    0.0000 C   0  0  0  0  0  0  0  0  0  0  0  0
    0.8867   -1.0723    0.0000 C   0  0  0  0  0  0  0  0  0  0  0  0
    1.7322    0.0756    0.0000 C   0  0  0  0  0  0  0  0  0  0  0  0
    1.0792    0.5602    0.0000 C   0  0  0  0  0  0  0  0  0  0  0  0
    2.3096   -1.2304    0.0000 I   0  0  0  0  0  0  0  0  0  0  0  0
    0.3196    0.2200    0.0000 C   0  0  0  0  0  0  0  0  0  0  0  0
    2.4987    0.4021    0.0000 O   0  0  0  0  0  0  0  0  0  0  0  0
    3.1516   -0.0893    0.0000 C   0  0  0  0  0  0  0  0  0  0  0  0
   -3.9559   -0.1787    0.0000 C   0  0  0  0  0  0  0  0  0  0  0  0
   -3.9559    1.4779    0.0000 C   0  0  0  0  0  0  0  0  0  0  0  0
   -4.6742    0.2268    0.0000 C   0  0  0  0  0  0  0  0  0  0  0  0
   -4.6742    1.0552    0.0000 C   0  0  0  0  0  0  0  0  0  0  0  0
  2  1  1  0  0  0  0
  3  1  1  0  0  0  0
  4  3  1  0  0  0  0
  4  6  1  0  0  0  0
  5  2  2  0  0  0  0
  5  8  1  0  0  0  0
  6  2  1  0  0  0  0
  7  1  1  0  0  0  0
  8  7  1  0  0  0  0
  9  4  2  0  0  0  0
 10 21  1  0  0  0  0
 11 10  3  0  0  0  0
 12 15  2  0  0  0  0
 12 16  1  0  0  0  0
 13  3  2  0  0  0  0
 14  9  1  0  0  0  0
 15 14  1  0  0  0  0
 16 17  2  0  0  0  0
 17 19  1  0  0  0  0
 18 12  1  0  0  0  0
 19 14  2  0  0  0  0
 20 16  1  0  0  0  0
 21 20  1  0  0  0  0
 22  7  2  0  0  0  0
 23  8  2  0  0  0  0
 23 25  1  0  0  0  0
 24 22  1  0  0  0  0
 25 24  2  0  0  0  0
M  END
> <CdId>
1876

> <Mol Weight>
458.272

> <Formula>
C19H11IN2O2S

> <Click_ID>
CLK025_B11 __ __ 

$$$$
