CLK002_G10
 OpenBabel03191401532D

 35 38  0  0  0  0  0  0  0  0999 V2000
    2.2878    0.8165    0.0000 N   0  0  0  0  0  0  0  0  0  0  0  0
    2.2774    1.6434    0.0000 C   0  0  0  0  0  0  0  0  0  0  0  0
    1.6262    0.3342    0.0000 C   0  0  0  0  0  0  0  0  0  0  0  0
    2.9630    0.3445    0.0000 N   0  0  0  0  0  0  0  0  0  0  0  0
    3.0009    2.0535    0.0000 C   0  0  0  0  0  0  0  0  0  0  0  0
    1.5642    2.0466    0.0000 C   0  0  0  0  0  0  0  0  0  0  0  0
    1.8881   -0.4444    0.0000 C   0  0  0  0  0  0  0  0  0  0  0  0
    0.8476    0.5823    0.0000 O   0  0  0  0  0  0  0  0  0  0  0  0
    2.7149   -0.4444    0.0000 C   0  0  0  0  0  0  0  0  0  0  0  0
    2.9872    2.8804    0.0000 C   0  0  0  0  0  0  0  0  0  0  0  0
    1.5608    2.8666    0.0000 C   0  0  0  0  0  0  0  0  0  0  0  0
    1.4022   -1.1163    0.0000 C   0  0  0  0  0  0  0  0  0  0  0  0
    3.2007   -1.1129    0.0000 C   0  0  0  0  0  0  0  0  0  0  0  0
    2.2774    3.2903    0.0000 C   0  0  0  0  0  0  0  0  0  0  0  0
    0.5857   -1.0301    0.0000 C   0  0  0  0  0  0  0  0  0  0  0  0
    2.2636    4.1137    0.0000 S   0  0  0  0  0  0  0  0  0  0  0  0
    0.0379   -1.6434    0.0000 O   0  0  0  0  0  0  0  0  0  0  0  0
    0.1723   -0.3169    0.0000 C   0  0  0  0  0  0  0  0  0  0  0  0
    2.4772    4.9062    0.0000 N   0  0  0  0  0  0  0  0  0  0  0  0
    3.0629    3.9036    0.0000 O   0  0  0  0  0  0  0  0  0  0  0  0
    1.4643    4.3274    0.0000 O   0  0  0  0  0  0  0  0  0  0  0  0
   -0.7201   -1.3127    0.0000 C   0  0  0  0  0  0  0  0  0  0  0  0
   -0.6340   -0.4927    0.0000 C   0  0  0  0  0  0  0  0  0  0  0  0
   -1.4333   -1.7295    0.0000 C   0  0  0  0  0  0  0  0  0  0  0  0
   -1.4333   -2.5633    0.0000 C   0  0  0  0  0  0  0  0  0  0  0  0
   -2.1465   -1.3161    0.0000 C   0  0  0  0  0  0  0  0  0  0  0  0
   -2.1465   -2.9734    0.0000 C   0  0  0  0  0  0  0  0  0  0  0  0
   -2.8562   -1.7364    0.0000 C   0  0  0  0  0  0  0  0  0  0  0  0
   -2.8562   -2.5633    0.0000 C   0  0  0  0  0  0  0  0  0  0  0  0
   -3.5729   -2.9734    0.0000 C   0  0  0  0  0  0  0  0  0  0  0  0
   -4.2861   -2.5633    0.0000 O   0  0  0  0  0  0  0  0  0  0  0  0
   -3.5729   -3.8002    0.0000 O   0  0  0  0  0  0  0  0  0  0  0  0
   -4.2861   -1.7364    0.0000 C   0  0  0  0  0  0  0  0  0  0  0  0
   -5.0061   -1.3265    0.0000 C   0  0  0  0  0  0  0  0  0  0  0  0
   -5.7159   -0.9130    0.0000 C   0  0  0  0  0  0  0  0  0  0  0  0
  1  2  1  0  0  0  0
  1  3  1  0  0  0  0
  1  4  1  0  0  0  0
  2  5  2  0  0  0  0
  2  6  1  0  0  0  0
  3  7  1  0  0  0  0
  3  8  2  0  0  0  0
  4  9  2  0  0  0  0
  5 10  1  0  0  0  0
  6 11  2  0  0  0  0
  7 12  2  0  0  0  0
  7  9  1  0  0  0  0
  9 13  1  0  0  0  0
 10 14  2  0  0  0  0
 11 14  1  0  0  0  0
 12 15  1  0  0  0  0
 14 16  1  0  0  0  0
 15 17  1  0  0  0  0
 15 18  2  0  0  0  0
 16 19  1  0  0  0  0
 16 20  2  0  0  0  0
 16 21  2  0  0  0  0
 17 22  1  0  0  0  0
 18 23  1  0  0  0  0
 22 24  1  0  0  0  0
 22 23  2  0  0  0  0
 24 25  1  0  0  0  0
 24 26  2  0  0  0  0
 25 27  2  0  0  0  0
 26 28  1  0  0  0  0
 27 29  1  0  0  0  0
 28 29  2  0  0  0  0
 29 30  1  0  0  0  0
 30 31  1  0  0  0  0
 30 32  2  0  0  0  0
 31 33  1  0  0  0  0
 33 34  1  0  0  0  0
 34 35  3  0  0  0  0
M  END
> <CdId>
149

> <Mol Weight>
489.5

> <Formula>
C25H19N3O6S

> <Click_ID>
CLK002_G10 __ __ 

$$$$
