CLK050G02
 OpenBabel03191401532D

 16 16  0  0  0  0  0  0  0  0999 V2000
   -1.1625   -0.2542    0.0000 C   0  0  0  0  0  0  0  0  0  0  0  0
    0.9792    0.1583    0.0000 C   0  0  0  0  0  0  0  0  0  0  0  0
    1.6958   -0.2542    0.0000 C   0  0  0  0  0  0  0  0  0  0  0  0
   -3.3083    0.1583    0.0000 C   0  0  0  0  0  0  0  0  0  0  0  0
   -4.0208    0.5708    0.0000 C   0  0  0  0  0  0  0  0  0  0  0  0
   -0.4500    0.1583    0.0000 N   0  0  0  0  0  0  0  0  0  0  0  0
    2.4083    0.1583    0.0000 N   0  0  0  0  0  0  0  0  0  0  0  0
    0.2667   -0.2542    0.0000 C   0  0  0  0  0  0  0  0  0  0  0  0
   -1.1625   -1.0792    0.0000 O   0  0  0  0  0  0  0  0  0  0  0  0
   -1.8792    0.1583    0.0000 N   0  0  0  0  0  0  0  0  0  0  0  0
    1.6958   -1.0792    0.0000 O   0  0  0  0  0  0  0  0  0  0  0  0
   -2.5917   -0.2542    0.0000 C   0  0  0  0  0  0  0  0  0  0  0  0
    0.9792    0.9833    0.0000 C   0  0  0  0  0  0  0  0  0  0  0  0
    2.4083    0.9833    0.0000 C   0  0  0  0  0  0  0  0  0  0  0  0
    2.4083   -1.4917    0.0000 C   0  0  0  0  0  0  0  0  0  0  0  0
    1.6958    1.3958    0.0000 C   0  0  0  0  0  0  0  0  0  0  0  0
  2  8  1  0  0  0  0
  3  2  2  0  0  0  0
  4 12  1  0  0  0  0
  5  4  3  0  0  0  0
  6  1  1  0  0  0  0
  7  3  1  0  0  0  0
  8  6  1  0  0  0  0
  9  1  2  0  0  0  0
 10  1  1  0  0  0  0
 11  3  1  0  0  0  0
 12 10  1  0  0  0  0
 13  2  1  0  0  0  0
 14  7  2  0  0  0  0
 15 11  1  0  0  0  0
 16 13  2  0  0  0  0
 16 14  1  0  0  0  0
M  END
> <CdId>
3815

> <Mol Weight>
219.2398

> <Formula>
C11H13N3O2

> <Click_ID>
CLK050G02 __ __ 

$$$$
