CLK046H02
 OpenBabel03191401532D

 19 20  0  0  0  0  0  0  0  0999 V2000
   -0.4167   -0.4542    0.0000 N   0  0  0  0  0  0  0  0  0  0  0  0
    0.3000   -0.0417    0.0000 C   0  0  0  0  0  0  0  0  0  0  0  0
    1.0125   -0.4542    0.0000 C   0  0  0  0  0  0  0  0  0  0  0  0
    0.3000   -1.6917    0.0000 N   0  0  0  0  0  0  0  0  0  0  0  0
    1.0125   -1.2792    0.0000 C   0  0  0  0  0  0  0  0  0  0  0  0
   -0.4167   -1.2792    0.0000 C   0  0  0  0  0  0  0  0  0  0  0  0
   -1.1292   -0.0417    0.0000 C   0  0  0  0  0  0  0  0  0  0  0  0
   -2.5583    2.4333    0.0000 C   0  0  0  0  0  0  0  0  0  0  0  0
   -3.2750    2.8458    0.0000 C   0  0  0  0  0  0  0  0  0  0  0  0
   -1.1292    0.7833    0.0000 C   0  0  0  0  0  0  0  0  0  0  0  0
    0.3000    0.7833    0.0000 O   0  0  0  0  0  0  0  0  0  0  0  0
    1.7292   -1.6917    0.0000 C   0  0  0  0  0  0  0  0  0  0  0  0
   -0.4167    1.1958    0.0000 O   0  0  0  0  0  0  0  0  0  0  0  0
   -1.8458    1.1958    0.0000 N   0  0  0  0  0  0  0  0  0  0  0  0
    1.7292   -0.0417    0.0000 C   0  0  0  0  0  0  0  0  0  0  0  0
   -1.8458    2.0208    0.0000 C   0  0  0  0  0  0  0  0  0  0  0  0
    2.4417   -0.4542    0.0000 C   0  0  0  0  0  0  0  0  0  0  0  0
    2.4417   -1.2792    0.0000 C   0  0  0  0  0  0  0  0  0  0  0  0
    1.7292   -2.5167    0.0000 C   0  0  0  0  0  0  0  0  0  0  0  0
  2  1  1  0  0  0  0
  3  2  1  0  0  0  0
  4  6  2  0  0  0  0
  5  4  1  0  0  0  0
  5  3  1  0  0  0  0
  6  1  1  0  0  0  0
  7  1  1  0  0  0  0
  8 16  1  0  0  0  0
  9  8  3  0  0  0  0
 10  7  1  0  0  0  0
 11  2  2  0  0  0  0
 12  5  2  0  0  0  0
 13 10  2  0  0  0  0
 14 10  1  0  0  0  0
 15  3  2  0  0  0  0
 16 14  1  0  0  0  0
 17 15  1  0  0  0  0
 17 18  2  0  0  0  0
 18 12  1  0  0  0  0
 19 12  1  0  0  0  0
M  END
> <CdId>
3496

> <Mol Weight>
255.2719

> <Formula>
C14H13N3O2

> <Click_ID>
CLK046H02 __ __ 

$$$$
