CLK009_D09
 OpenBabel03191401532D

 50 56  0  0  0  0  0  0  0  0999 V2000
    1.2418   -0.1031    0.0000 N   0  0  0  0  0  0  0  0  0  0  0  0
   -1.5853    0.0834    0.0000 N   0  0  0  0  0  0  0  0  0  0  0  0
    1.9780    0.2306    0.0000 C   0  0  0  0  0  0  0  0  0  0  0  0
   -2.3215    0.4123    0.0000 C   0  0  0  0  0  0  0  0  0  0  0  0
    1.3154   -0.9031    0.0000 C   0  0  0  0  0  0  0  0  0  0  0  0
   -1.6736   -0.7412    0.0000 C   0  0  0  0  0  0  0  0  0  0  0  0
    2.5375   -0.3878    0.0000 C   0  0  0  0  0  0  0  0  0  0  0  0
   -2.8515   -0.1964    0.0000 C   0  0  0  0  0  0  0  0  0  0  0  0
    0.5645    0.3681    0.0000 C   0  0  0  0  0  0  0  0  0  0  0  0
   -0.8491    0.4662    0.0000 C   0  0  0  0  0  0  0  0  0  0  0  0
   -0.1717   -0.0049    0.0000 N   0  0  0  0  0  0  0  0  0  0  0  0
    2.1203   -1.0945    0.0000 C   0  0  0  0  0  0  0  0  0  0  0  0
   -2.4737   -0.9031    0.0000 C   0  0  0  0  0  0  0  0  0  0  0  0
    4.5940   -1.1190    0.0000 C   0  0  0  0  0  0  0  0  0  0  0  0
   -4.9277   -0.9031    0.0000 C   0  0  0  0  0  0  0  0  0  0  0  0
    3.3621   -0.4123    0.0000 C   0  0  0  0  0  0  0  0  0  0  0  0
   -3.6761   -0.1964    0.0000 C   0  0  0  0  0  0  0  0  0  0  0  0
    3.7694   -1.1190    0.0000 C   0  0  0  0  0  0  0  0  0  0  0  0
   -4.1031   -0.9031    0.0000 C   0  0  0  0  0  0  0  0  0  0  0  0
   -5.3252   -1.6099    0.0000 N   0  0  0  0  0  0  0  0  0  0  0  0
    5.0112   -0.4123    0.0000 N   0  0  0  0  0  0  0  0  0  0  0  0
   -5.3988   -4.4614    0.0000 C   0  0  0  0  0  0  0  0  0  0  0  0
    5.0651    2.4687    0.0000 C   0  0  0  0  0  0  0  0  0  0  0  0
    2.5081   -1.8258    0.0000 C   0  0  0  0  0  0  0  0  0  0  0  0
   -2.9007   -1.6099    0.0000 C   0  0  0  0  0  0  0  0  0  0  0  0
   -5.8553   -5.1584    0.0000 C   0  0  0  0  0  0  0  0  0  0  0  0
    5.5118    3.1755    0.0000 C   0  0  0  0  0  0  0  0  0  0  0  0
    2.1400    1.0552    0.0000 O   0  0  0  0  0  0  0  0  0  0  0  0
   -2.4982    1.2368    0.0000 O   0  0  0  0  0  0  0  0  0  0  0  0
    0.6823   -1.4185    0.0000 O   0  0  0  0  0  0  0  0  0  0  0  0
   -1.0601   -1.2810    0.0000 O   0  0  0  0  0  0  0  0  0  0  0  0
    4.9915   -1.8258    0.0000 O   0  0  0  0  0  0  0  0  0  0  0  0
   -5.3252   -0.1767    0.0000 O   0  0  0  0  0  0  0  0  0  0  0  0
    3.3424   -1.8258    0.0000 C   0  0  0  0  0  0  0  0  0  0  0  0
   -3.7252   -1.6099    0.0000 C   0  0  0  0  0  0  0  0  0  0  0  0
   -4.9277   -2.3166    0.0000 C   0  0  0  0  0  0  0  0  0  0  0  0
    4.6136    0.3190    0.0000 C   0  0  0  0  0  0  0  0  0  0  0  0
   -4.9571   -3.7547    0.0000 C   0  0  0  0  0  0  0  0  0  0  0  0
    4.6136    1.7620    0.0000 C   0  0  0  0  0  0  0  0  0  0  0  0
   -5.3547   -3.0234    0.0000 C   0  0  0  0  0  0  0  0  0  0  0  0
    5.0112    1.0257    0.0000 C   0  0  0  0  0  0  0  0  0  0  0  0
    0.6331    1.1927    0.0000 C   0  0  0  0  0  0  0  0  0  0  0  0
   -0.8049    1.2908    0.0000 C   0  0  0  0  0  0  0  0  0  0  0  0
   -0.0539    1.6442    0.0000 C   0  0  0  0  0  0  0  0  0  0  0  0
   -3.7056   -3.0479    0.0000 C   0  0  0  0  0  0  0  0  0  0  0  0
    3.3915    1.0552    0.0000 C   0  0  0  0  0  0  0  0  0  0  0  0
   -4.1228   -2.3411    0.0000 C   0  0  0  0  0  0  0  0  0  0  0  0
    3.7891    0.3484    0.0000 C   0  0  0  0  0  0  0  0  0  0  0  0
    3.7891    1.7620    0.0000 C   0  0  0  0  0  0  0  0  0  0  0  0
   -4.1031   -3.7547    0.0000 C   0  0  0  0  0  0  0  0  0  0  0  0
  2 10  1  0  0  0  0
  3  1  1  0  0  0  0
  4  2  1  0  0  0  0
  5  1  1  0  0  0  0
  6  2  1  0  0  0  0
  7  3  1  0  0  0  0
  8  4  1  0  0  0  0
  8 13  1  0  0  0  0
  9  1  1  0  0  0  0
 10 11  2  0  0  0  0
 11  9  1  0  0  0  0
 12  5  1  0  0  0  0
 12  7  1  0  0  0  0
 13  6  1  0  0  0  0
 14 18  1  0  0  0  0
 15 19  1  0  0  0  0
 16  7  2  0  0  0  0
 17  8  2  0  0  0  0
 18 16  1  0  0  0  0
 19 17  1  0  0  0  0
 19 35  2  0  0  0  0
 20 15  1  0  0  0  0
 21 14  1  0  0  0  0
 22 38  1  0  0  0  0
 23 39  1  0  0  0  0
 24 12  2  0  0  0  0
 25 13  2  0  0  0  0
 26 22  3  0  0  0  0
 27 23  3  0  0  0  0
 28  3  2  0  0  0  0
 29  4  2  0  0  0  0
 30  5  2  0  0  0  0
 31  6  2  0  0  0  0
 32 14  2  0  0  0  0
 33 15  2  0  0  0  0
 34 24  1  0  0  0  0
 34 18  2  0  0  0  0
 35 25  1  0  0  0  0
 36 20  1  0  0  0  0
 37 21  1  0  0  0  0
 38 40  2  0  0  0  0
 39 41  2  0  0  0  0
 40 36  1  0  0  0  0
 41 37  1  0  0  0  0
 42  9  2  0  0  0  0
 43 44  2  0  0  0  0
 43 10  1  0  0  0  0
 44 42  1  0  0  0  0
 45 47  1  0  0  0  0
 46 48  1  0  0  0  0
 47 36  2  0  0  0  0
 48 37  2  0  0  0  0
 49 46  2  0  0  0  0
 49 39  1  0  0  0  0
 50 45  2  0  0  0  0
 50 38  1  0  0  0  0
M  END
> <CdId>
634

> <Mol Weight>
655.6139

> <Formula>
C39H21N5O6

> <Click_ID>
CLK009_D09 __ __ 

$$$$
