CLK042F02
 OpenBabel03191401532D

 21 23  0  0  0  0  0  0  0  0999 V2000
   -1.0500    0.2667    0.0000 C   0  0  0  0  0  0  0  0  0  0  0  0
   -1.5375   -0.4000    0.0000 C   0  0  0  0  0  0  0  0  0  0  0  0
   -1.2000   -1.1542    0.0000 C   0  0  0  0  0  0  0  0  0  0  0  0
   -0.2292    0.1792    0.0000 N   0  0  0  0  0  0  0  0  0  0  0  0
   -1.5375    0.9333    0.0000 S   0  0  0  0  0  0  0  0  0  0  0  0
   -2.3208   -0.1458    0.0000 C   0  0  0  0  0  0  0  0  0  0  0  0
   -0.3792   -1.2417    0.0000 N   0  0  0  0  0  0  0  0  0  0  0  0
   -2.3208    0.6792    0.0000 C   0  0  0  0  0  0  0  0  0  0  0  0
    0.1042   -0.5750    0.0000 C   0  0  0  0  0  0  0  0  0  0  0  0
    4.0208    1.1708    0.0000 C   0  0  0  0  0  0  0  0  0  0  0  0
    4.5042    1.8375    0.0000 C   0  0  0  0  0  0  0  0  0  0  0  0
   -1.6833   -1.8208    0.0000 O   0  0  0  0  0  0  0  0  0  0  0  0
    2.2292   -0.0792    0.0000 C   0  0  0  0  0  0  0  0  0  0  0  0
    2.5667   -0.8333    0.0000 O   0  0  0  0  0  0  0  0  0  0  0  0
    0.9250   -0.6583    0.0000 C   0  0  0  0  0  0  0  0  0  0  0  0
    2.7167    0.5875    0.0000 N   0  0  0  0  0  0  0  0  0  0  0  0
    1.4125    0.0083    0.0000 C   0  0  0  0  0  0  0  0  0  0  0  0
   -3.1042   -0.4000    0.0000 C   0  0  0  0  0  0  0  0  0  0  0  0
   -3.1042    0.9333    0.0000 C   0  0  0  0  0  0  0  0  0  0  0  0
    3.5375    0.5000    0.0000 C   0  0  0  0  0  0  0  0  0  0  0  0
   -3.5917    0.2667    0.0000 C   0  0  0  0  0  0  0  0  0  0  0  0
  2  1  2  0  0  0  0
  3  2  1  0  0  0  0
  4  1  1  0  0  0  0
  5  1  1  0  0  0  0
  6  2  1  0  0  0  0
  6  8  2  0  0  0  0
  7  3  1  0  0  0  0
  7  9  1  0  0  0  0
  8  5  1  0  0  0  0
  9  4  2  0  0  0  0
 10 20  1  0  0  0  0
 11 10  3  0  0  0  0
 12  3  2  0  0  0  0
 13 17  1  0  0  0  0
 14 13  2  0  0  0  0
 15  9  1  0  0  0  0
 16 13  1  0  0  0  0
 17 15  1  0  0  0  0
 18  6  1  0  0  0  0
 19  8  1  0  0  0  0
 20 16  1  0  0  0  0
 21 18  1  0  0  0  0
 21 19  1  0  0  0  0
M  END
> <CdId>
3174

> <Mol Weight>
301.364

> <Formula>
C15H15N3O2S

> <Click_ID>
CLK042F02 __ __ 

$$$$
