CLK041B04
 OpenBabel03191401532D

 18 18  0  0  0  0  0  0  0  0999 V2000
   -0.0417    0.8500    0.0000 S    0  0  0  0  0  0  0  0  0  0  0  0
   -0.0417    0.0250    0.0000 C    0  0  0  0  0  0  0  0  0  0  0  0
   -0.7583   -0.3875    0.0000 C    0  0  0  0  0  0  0  0  0  0  0  0
    0.6708   -0.3875    0.0000 C    0  0  0  0  0  0  0  0  0  0  0  0
    0.6708   -1.2125    0.0000 C    0  0  0  0  0  0  0  0  0  0  0  0
   -0.7583   -1.2125    0.0000 C    0  0  0  0  0  0  0  0  0  0  0  0
   -0.0417   -1.6250    0.0000 C    0  0  0  0  0  0  0  0  0  0  0  0
    0.6708    2.9125    0.0000 C    0  0  0  0  0  0  0  0  0  0  0  0
    0.6708    3.7375    0.0000 C    0  0  0  0  0  0  0  0  0  0  0  0
   -0.8667    0.8500    0.0000 O    0  0  0  0  0  0  0  0  0  0  0  0
    0.7833    0.8500    0.0000 O    0  0  0  0  0  0  0  0  0  0  0  0
   -0.0417    1.6750    0.0000 N    0  0  0  0  0  0  0  0  0  0  0  0
    1.3875    0.0250    0.0000 Br   0  0  0  0  0  0  0  0  0  0  0  0
   -1.4708   -1.6250    0.0000 O    0  0  0  0  0  0  0  0  0  0  0  0
   -0.0417   -2.4500    0.0000 O    0  0  0  0  0  0  0  0  0  0  0  0
    0.6708    2.0875    0.0000 C    0  0  0  0  0  0  0  0  0  0  0  0
   -2.1833   -1.2125    0.0000 C    0  0  0  0  0  0  0  0  0  0  0  0
    0.6708   -2.8625    0.0000 C    0  0  0  0  0  0  0  0  0  0  0  0
  2  1  1  0  0  0  0
  3  2  2  0  0  0  0
  4  2  1  0  0  0  0
  5  4  2  0  0  0  0
  5  7  1  0  0  0  0
  6  3  1  0  0  0  0
  7  6  2  0  0  0  0
  8 16  1  0  0  0  0
  9  8  3  0  0  0  0
 10  1  2  0  0  0  0
 11  1  2  0  0  0  0
 12  1  1  0  0  0  0
 13  4  1  0  0  0  0
 14  6  1  0  0  0  0
 15  7  1  0  0  0  0
 16 12  1  0  0  0  0
 17 14  1  0  0  0  0
 18 15  1  0  0  0  0
M  END
> <CdId>
3106

> <Mol Weight>
334.186

> <Formula>
C11H12BrNO4S

> <Click_ID>
CLK041B04 __ __ 

$$$$
