CLK048C02
 OpenBabel03191401532D

 16 17  0  0  0  0  0  0  0  0999 V2000
   -0.3222    1.4829    0.0000 C   0  0  0  0  0  0  0  0  0  0  0  0
   -0.5701   -0.0991    0.0000 C   0  0  3  0  0  0  0  0  0  0  0  0
   -0.4627   -0.9501    0.0000 C   0  0  0  0  0  0  0  0  0  0  0  0
   -0.8881    1.3590    0.0000 C   0  0  3  0  0  0  0  0  0  0  0  0
    0.3966    0.8964    0.0000 C   0  0  3  0  0  0  0  0  0  0  0  0
   -1.1649    0.5123    0.0000 C   0  0  0  0  0  0  0  0  0  0  0  0
    0.1941    0.1198    0.0000 C   0  0  0  0  0  0  0  0  0  0  0  0
    1.0616   -2.7759    0.0000 C   0  0  0  0  0  0  0  0  0  0  0  0
    1.7763   -3.1766    0.0000 C   0  0  0  0  0  0  0  0  0  0  0  0
   -0.7146    2.2141    0.0000 O   0  0  0  0  0  0  0  0  0  0  0  0
   -1.0905   -1.4913    0.0000 O   0  0  0  0  0  0  0  0  0  0  0  0
    0.1735   -1.4953    0.0000 N   0  0  0  0  0  0  0  0  0  0  0  0
    0.3966   -2.2926    0.0000 C   0  0  0  0  0  0  0  0  0  0  0  0
    0.9418    1.4581    0.0000 C   0  0  0  0  0  0  0  0  0  0  0  0
   -0.3140    2.0943    0.0000 C   0  0  0  0  0  0  0  0  0  0  0  0
    0.5618    2.1769    0.0000 C   0  0  0  0  0  0  0  0  0  0  0  0
  2  7  1  0  0  0  0
  3  2  1  0  0  0  0
  4  1  1  0  0  0  0
  5  1  1  0  0  0  0
  6  4  1  0  0  0  0
  6  2  1  0  0  0  0
  7  5  1  0  0  0  0
  8 13  1  0  0  0  0
  9  8  3  0  0  0  0
 10  1  2  0  0  0  0
 11  3  2  0  0  0  0
 12  3  1  0  0  0  0
 13 12  1  0  0  0  0
 14  5  1  0  0  0  0
 15  4  1  0  0  0  0
 15 16  1  0  0  0  0
 16 14  1  0  0  0  0
M  END
> <CdId>
3651

> <Mol Weight>
219.2796

> <Formula>
C13H17NO2

> <Click_ID>
CLK048C02 __ __ 

$$$$
