CLK019_H09
 OpenBabel03191401532D

 22 22  0  0  0  0  0  0  0  0999 V2000
   -0.7010   -1.0724    0.0000 C   0  0  0  0  0  0  0  0  0  0  0  0
   -2.3744    0.3849    0.0000 C   0  0  0  0  0  0  0  0  0  0  0  0
    3.0093   -0.3616    0.0000 C   0  0  0  0  0  0  0  0  0  0  0  0
   -1.5225   -1.0724    0.0000 N   0  0  0  0  0  0  0  0  0  0  0  0
   -2.8057    1.0992    0.0000 C   0  0  0  0  0  0  0  0  0  0  0  0
   -0.2911   -0.3616    0.0000 N   0  0  0  0  0  0  0  0  0  0  0  0
   -0.2750   -1.7707    0.0000 S   0  0  0  0  0  0  0  0  0  0  0  0
   -1.9431   -0.3483    0.0000 C   0  0  0  0  0  0  0  0  0  0  0  0
    2.1842   -0.3616    0.0000 C   0  0  0  0  0  0  0  0  0  0  0  0
    3.4111   -1.0724    0.0000 O   0  0  0  0  0  0  0  0  0  0  0  0
    1.7770    0.3554    0.0000 C   0  0  0  0  0  0  0  0  0  0  0  0
    1.7654   -1.0724    0.0000 C   0  0  0  0  0  0  0  0  0  0  0  0
    0.5331   -0.3616    0.0000 C   0  0  0  0  0  0  0  0  0  0  0  0
    3.4111    0.3554    0.0000 O   0  0  0  0  0  0  0  0  0  0  0  0
    0.9519   -1.0724    0.0000 C   0  0  0  0  0  0  0  0  0  0  0  0
    0.9483    0.3616    0.0000 C   0  0  0  0  0  0  0  0  0  0  0  0
   -2.6851   -0.7876    0.0000 C   0  0  0  0  0  0  0  0  0  0  0  0
   -1.3564    0.0286    0.0000 C   0  0  0  0  0  0  0  0  0  0  0  0
    3.0093    1.0724    0.0000 C   0  0  0  0  0  0  0  0  0  0  0  0
   -1.3564    0.8349    0.0000 C   0  0  0  0  0  0  0  0  0  0  0  0
   -3.4289   -0.3840    0.0000 C   0  0  0  0  0  0  0  0  0  0  0  0
    3.4289    1.7689    0.0000 C   0  0  0  0  0  0  0  0  0  0  0  0
  2  8  1  0  0  0  0
  3  9  1  0  0  0  0
  4  1  1  0  0  0  0
  5  2  3  0  0  0  0
  6  1  1  0  0  0  0
  7  1  2  0  0  0  0
  8  4  1  0  0  0  0
  9 11  2  0  0  0  0
 10  3  2  0  0  0  0
 11 16  1  0  0  0  0
 12 15  2  0  0  0  0
 12  9  1  0  0  0  0
 13  6  1  0  0  0  0
 14  3  1  0  0  0  0
 15 13  1  0  0  0  0
 16 13  2  0  0  0  0
 17  8  1  0  0  0  0
 18  8  1  0  0  0  0
 19 14  1  0  0  0  0
 20 18  1  0  0  0  0
 21 17  1  0  0  0  0
 22 19  1  0  0  0  0
M  END
> <CdId>
1474

> <Mol Weight>
318.434

> <Formula>
C17H22N2O2S

> <Click_ID>
CLK019_H09 __ __ 

$$$$
