CLK045G10
 OpenBabel03191401532D

 31 34  0  0  0  0  0  0  0  0999 V2000
   -1.6000   -0.2583    0.0000 C   0  0  0  0  0  0  0  0  0  0  0  0
   -1.6000    0.5667    0.0000 C   0  0  0  0  0  0  0  0  0  0  0  0
   -0.1750   -0.2583    0.0000 N   0  0  0  0  0  0  0  0  0  0  0  0
   -0.8875    0.9792    0.0000 N   0  0  0  0  0  0  0  0  0  0  0  0
   -0.8875   -0.6708    0.0000 C   0  0  0  0  0  0  0  0  0  0  0  0
   -0.1750    0.5667    0.0000 C   0  0  0  0  0  0  0  0  0  0  0  0
   -2.3875    0.8208    0.0000 S   0  0  0  0  0  0  0  0  0  0  0  0
   -2.3875   -0.5125    0.0000 C   0  0  0  0  0  0  0  0  0  0  0  0
   -2.8708    0.1542    0.0000 C   0  0  0  0  0  0  0  0  0  0  0  0
    0.5417   -0.6708    0.0000 C   0  0  0  0  0  0  0  0  0  0  0  0
    0.5417    0.9792    0.0000 S   0  0  0  0  0  0  0  0  0  0  0  0
    1.9708    4.2750    0.0000 C   0  0  0  0  0  0  0  0  0  0  0  0
    1.9708    5.1000    0.0000 C   0  0  0  0  0  0  0  0  0  0  0  0
   -0.8875   -1.4958    0.0000 O   0  0  0  0  0  0  0  0  0  0  0  0
    1.2542    2.2167    0.0000 C   0  0  0  0  0  0  0  0  0  0  0  0
    1.9708    1.8042    0.0000 O   0  0  0  0  0  0  0  0  0  0  0  0
    0.5417    1.8042    0.0000 C   0  0  0  0  0  0  0  0  0  0  0  0
    1.2542    3.0417    0.0000 N   0  0  0  0  0  0  0  0  0  0  0  0
    0.5417   -1.4958    0.0000 C   0  0  0  0  0  0  0  0  0  0  0  0
    2.6833   -2.7333    0.0000 C   0  0  0  0  0  0  0  0  0  0  0  0
    1.2542   -1.9083    0.0000 C   0  0  0  0  0  0  0  0  0  0  0  0
   -2.7208   -1.2667    0.0000 C   0  0  0  0  0  0  0  0  0  0  0  0
   -3.6917    0.0667    0.0000 C   0  0  0  0  0  0  0  0  0  0  0  0
    3.4000   -3.1458    0.0000 F   0  0  0  0  0  0  0  0  0  0  0  0
    1.9708    3.4542    0.0000 C   0  0  0  0  0  0  0  0  0  0  0  0
    2.6833   -1.9083    0.0000 C   0  0  0  0  0  0  0  0  0  0  0  0
    1.9708   -3.1458    0.0000 C   0  0  0  0  0  0  0  0  0  0  0  0
    1.2542   -2.7333    0.0000 C   0  0  0  0  0  0  0  0  0  0  0  0
    1.9708   -1.4958    0.0000 C   0  0  0  0  0  0  0  0  0  0  0  0
   -3.5417   -1.3542    0.0000 C   0  0  0  0  0  0  0  0  0  0  0  0
   -4.0292   -0.6875    0.0000 C   0  0  0  0  0  0  0  0  0  0  0  0
  2  1  2  0  0  0  0
  3  5  1  0  0  0  0
  4  2  1  0  0  0  0
  4  6  2  0  0  0  0
  5  1  1  0  0  0  0
  6  3  1  0  0  0  0
  7  2  1  0  0  0  0
  8  1  1  0  0  0  0
  9  8  2  0  0  0  0
  9  7  1  0  0  0  0
 10  3  1  0  0  0  0
 11  6  1  0  0  0  0
 12 25  1  0  0  0  0
 13 12  3  0  0  0  0
 14  5  2  0  0  0  0
 15 17  1  0  0  0  0
 16 15  2  0  0  0  0
 17 11  1  0  0  0  0
 18 15  1  0  0  0  0
 19 10  1  0  0  0  0
 20 27  2  0  0  0  0
 21 19  1  0  0  0  0
 22  8  1  0  0  0  0
 23  9  1  0  0  0  0
 24 20  1  0  0  0  0
 25 18  1  0  0  0  0
 26 29  2  0  0  0  0
 26 20  1  0  0  0  0
 27 28  1  0  0  0  0
 28 21  2  0  0  0  0
 29 21  1  0  0  0  0
 30 22  1  0  0  0  0
 30 31  1  0  0  0  0
 31 23  1  0  0  0  0
M  END
> <CdId>
3479

> <Mol Weight>
455.568

> <Formula>
C23H22FN3O2S2

> <Click_ID>
CLK045G10 __ __ 

$$$$
