CLK026_F10
 OpenBabel03191401532D

 29 32  0  0  0  0  0  0  0  0999 V2000
   -1.8390    1.8252    0.0000 N   0  0  0  0  0  0  0  0  0  0  0  0
   -2.6502    1.6499    0.0000 C   0  0  0  0  0  0  0  0  0  0  0  0
   -1.9799    0.4881    0.0000 C   0  0  0  0  0  0  0  0  0  0  0  0
    0.2990   -0.5946    0.0000 N   0  0  0  0  0  0  0  0  0  0  0  0
   -1.4265    1.0999    0.0000 C   0  0  0  0  0  0  0  0  0  0  0  0
   -1.0380   -0.5843    0.0000 C   0  0  0  0  0  0  0  0  0  0  0  0
   -2.7362    0.8250    0.0000 S   0  0  0  0  0  0  0  0  0  0  0  0
   -0.3644   -0.0997    0.0000 C   0  0  0  0  0  0  0  0  0  0  0  0
   -1.8115   -0.3300    0.0000 C   0  0  0  0  0  0  0  0  0  0  0  0
    0.0344   -1.3715    0.0000 C   0  0  0  0  0  0  0  0  0  0  0  0
   -0.7940   -1.3715    0.0000 C   0  0  0  0  0  0  0  0  0  0  0  0
    1.0862   -0.3368    0.0000 C   0  0  0  0  0  0  0  0  0  0  0  0
    3.2586   -0.3850    0.0000 N   0  0  0  0  0  0  0  0  0  0  0  0
   -0.6668    2.6605    0.0000 C   0  0  0  0  0  0  0  0  0  0  0  0
    2.6570    0.1547    0.0000 C   0  0  0  0  0  0  0  0  0  0  0  0
    0.1478    2.7877    0.0000 C   0  0  0  0  0  0  0  0  0  0  0  0
    1.2615    0.4640    0.0000 C   0  0  0  0  0  0  0  0  0  0  0  0
   -3.2621    2.2033    0.0000 O   0  0  0  0  0  0  0  0  0  0  0  0
   -0.6016    1.0140    0.0000 O   0  0  0  0  0  0  0  0  0  0  0  0
   -1.4987    2.5745    0.0000 C   0  0  0  0  0  0  0  0  0  0  0  0
    2.0452    0.7150    0.0000 C   0  0  0  0  0  0  0  0  0  0  0  0
    0.4366   -2.0830    0.0000 C   0  0  0  0  0  0  0  0  0  0  0  0
   -1.2134   -2.0727    0.0000 C   0  0  0  0  0  0  0  0  0  0  0  0
    0.6497    1.0174    0.0000 C   0  0  0  0  0  0  0  0  0  0  0  0
    2.2342    1.5124    0.0000 C   0  0  0  0  0  0  0  0  0  0  0  0
   -0.7940   -2.7842    0.0000 C   0  0  0  0  0  0  0  0  0  0  0  0
    0.0241   -2.7842    0.0000 C   0  0  0  0  0  0  0  0  0  0  0  0
    0.8353    1.8252    0.0000 C   0  0  0  0  0  0  0  0  0  0  0  0
    1.6293    2.0762    0.0000 C   0  0  0  0  0  0  0  0  0  0  0  0
  2  1  1  0  0  0  0
  3  5  1  0  0  0  0
  4  8  1  0  0  0  0
  5  1  1  0  0  0  0
  6  9  1  0  0  0  0
  7  2  1  0  0  0  0
  7  3  1  0  0  0  0
  8  6  2  0  0  0  0
  9  3  2  0  0  0  0
 10 11  1  0  0  0  0
 10  4  1  0  0  0  0
 11  6  1  0  0  0  0
 12  4  1  0  0  0  0
 13 15  3  0  0  0  0
 14 20  1  0  0  0  0
 15 21  1  0  0  0  0
 16 14  3  0  0  0  0
 17 12  1  0  0  0  0
 18  2  2  0  0  0  0
 19  5  2  0  0  0  0
 20  1  1  0  0  0  0
 21 17  2  0  0  0  0
 22 10  2  0  0  0  0
 23 11  2  0  0  0  0
 24 17  1  0  0  0  0
 25 21  1  0  0  0  0
 26 23  1  0  0  0  0
 27 26  2  0  0  0  0
 27 22  1  0  0  0  0
 28 24  2  0  0  0  0
 29 28  1  0  0  0  0
 29 25  2  0  0  0  0
M  END
> <CdId>
1995

> <Mol Weight>
397.449

> <Formula>
C23H15N3O2S

> <Click_ID>
CLK026_F10 __ __ 

$$$$
