CLK010_E07
 OpenBabel03191401532D

 27 29  0  0  0  0  0  0  0  0999 V2000
    2.4969   -0.6764    0.0000 N    0  0  0  0  0  0  0  0  0  0  0  0
    3.1983   -1.9165    0.0000 C    0  0  0  0  0  0  0  0  0  0  0  0
    2.4927   -1.5031    0.0000 C    0  0  0  0  0  0  0  0  0  0  0  0
    3.2108   -0.2630    0.0000 C    0  0  0  0  0  0  0  0  0  0  0  0
    3.9248   -0.6806    0.0000 N    0  0  0  0  0  0  0  0  0  0  0  0
    3.9206   -1.5073    0.0000 C    0  0  0  0  0  0  0  0  0  0  0  0
    3.1983   -2.7432    0.0000 C    0  0  0  0  0  0  0  0  0  0  0  0
    1.7787   -0.2630    0.0000 C    0  0  0  0  0  0  0  0  0  0  0  0
    6.7181   -5.6742    0.0000 C    0  0  0  0  0  0  0  0  0  0  0  0
    3.2108    0.5637    0.0000 O    0  0  0  0  0  0  0  0  0  0  0  0
    7.4279   -6.0918    0.0000 C    0  0  0  0  0  0  0  0  0  0  0  0
    1.7704   -1.9081    0.0000 O    0  0  0  0  0  0  0  0  0  0  0  0
    4.6346   -1.9207    0.0000 O    0  0  0  0  0  0  0  0  0  0  0  0
    3.9081   -3.1607    0.0000 C    0  0  0  0  0  0  0  0  0  0  0  0
    1.7787    0.5720    0.0000 C    0  0  0  0  0  0  0  0  0  0  0  0
    1.0564   -0.6764    0.0000 C    0  0  0  0  0  0  0  0  0  0  0  0
    0.3424    0.5720    0.0000 C    0  0  0  0  0  0  0  0  0  0  0  0
    5.3235   -3.9958    0.0000 C    0  0  0  0  0  0  0  0  0  0  0  0
    0.3424   -0.2630    0.0000 C    0  0  0  0  0  0  0  0  0  0  0  0
    1.0564    0.9853    0.0000 C    0  0  0  0  0  0  0  0  0  0  0  0
   -0.3841    0.9853    0.0000 Cl   0  0  0  0  0  0  0  0  0  0  0  0
    3.8998   -3.9749    0.0000 C    0  0  0  0  0  0  0  0  0  0  0  0
    4.6263   -2.7557    0.0000 C    0  0  0  0  0  0  0  0  0  0  0  0
    5.3360   -3.1733    0.0000 C    0  0  0  0  0  0  0  0  0  0  0  0
    4.6137   -4.4008    0.0000 C    0  0  0  0  0  0  0  0  0  0  0  0
    6.0166   -5.2484    0.0000 C    0  0  0  0  0  0  0  0  0  0  0  0
    6.0292   -4.4259    0.0000 O    0  0  0  0  0  0  0  0  0  0  0  0
  2  3  1  0  0  0  0
  2  6  1  0  0  0  0
  3  1  1  0  0  0  0
  4  1  1  0  0  0  0
  5  4  1  0  0  0  0
  6  5  1  0  0  0  0
  7  2  2  0  0  0  0
  8  1  1  0  0  0  0
  9 26  1  0  0  0  0
 10  4  2  0  0  0  0
 11  9  3  0  0  0  0
 12  3  2  0  0  0  0
 13  6  2  0  0  0  0
 14  7  1  0  0  0  0
 15  8  2  0  0  0  0
 16  8  1  0  0  0  0
 17 19  1  0  0  0  0
 18 24  2  0  0  0  0
 19 16  2  0  0  0  0
 20 15  1  0  0  0  0
 20 17  2  0  0  0  0
 21 17  1  0  0  0  0
 22 14  1  0  0  0  0
 23 14  2  0  0  0  0
 24 23  1  0  0  0  0
 25 22  2  0  0  0  0
 25 18  1  0  0  0  0
 26 27  1  0  0  0  0
 27 18  1  0  0  0  0
M  END
> <CdId>
722

> <Mol Weight>
380.781

> <Formula>
C20H13ClN2O4

> <Click_ID>
CLK010_E07 __ __ 

$$$$
