CLK033_E03
 OpenBabel03191401532D

 27 29  0  0  0  0  0  0  0  0999 V2000
   -4.5756    2.5457    0.0000 C   0  0  0  0  0  0  0  0  0  0  0  0
   -3.8643    2.9658    0.0000 N   0  0  0  0  0  0  0  0  0  0  0  0
   -4.6754    1.7304    0.0000 N   0  0  0  0  0  0  0  0  0  0  0  0
   -5.3118    2.8909    0.0000 S   0  0  0  0  0  0  0  0  0  0  0  0
   -5.4782    1.5723    0.0000 C   0  0  0  0  0  0  0  0  0  0  0  0
   -0.9858    3.8019    0.0000 N   0  3  0  0  0  0  0  0  0  0  0  0
   -5.8858    2.2919    0.0000 C   0  0  0  0  0  0  0  0  0  0  0  0
   -3.8643    3.7936    0.0000 C   0  0  0  0  0  0  0  0  0  0  0  0
   -1.7179    4.2054    0.0000 C   0  0  0  0  0  0  0  0  0  0  0  0
   -3.1530    4.2054    0.0000 C   0  0  0  0  0  0  0  0  0  0  0  0
   -4.2428    0.3494    0.0000 C   0  0  0  0  0  0  0  0  0  0  0  0
   -2.4334    3.8019    0.0000 C   0  0  0  0  0  0  0  0  0  0  0  0
   -4.4258   -0.4617    0.0000 C   0  0  0  0  0  0  0  0  0  0  0  0
   -0.9941    2.9783    0.0000 O   0  5  0  0  0  0  0  0  0  0  0  0
   -0.2828    4.2096    0.0000 O   0  0  0  0  0  0  0  0  0  0  0  0
   -5.9025    0.8693    0.0000 C   0  0  0  0  0  0  0  0  0  0  0  0
   -4.5880    4.1971    0.0000 O   0  0  0  0  0  0  0  0  0  0  0  0
   -4.0556    1.1563    0.0000 C   0  0  0  0  0  0  0  0  0  0  0  0
   -6.6929    2.3086    0.0000 C   0  0  0  0  0  0  0  0  0  0  0  0
   -5.5115    0.1373    0.0000 O   0  0  0  0  0  0  0  0  0  0  0  0
   -1.7179    5.0207    0.0000 C   0  0  0  0  0  0  0  0  0  0  0  0
   -3.1447    5.0207    0.0000 C   0  0  0  0  0  0  0  0  0  0  0  0
   -7.1296    1.6056    0.0000 C   0  0  0  0  0  0  0  0  0  0  0  0
   -2.4292    5.4408    0.0000 C   0  0  0  0  0  0  0  0  0  0  0  0
   -6.7178    0.8818    0.0000 C   0  0  0  0  0  0  0  0  0  0  0  0
   -5.9358   -0.5657    0.0000 C   0  0  0  0  0  0  0  0  0  0  0  0
   -5.5531   -1.2770    0.0000 C   0  0  0  0  0  0  0  0  0  0  0  0
  2  1  2  0  0  0  0
  3  1  1  0  0  0  0
  4  1  1  0  0  0  0
  5  3  1  0  0  0  0
  6  9  1  0  0  0  0
  7  4  1  0  0  0  0
  7  5  2  0  0  0  0
  8  2  1  0  0  0  0
  9 12  1  0  0  0  0
 10  8  1  0  0  0  0
 11 18  1  0  0  0  0
 12 10  2  0  0  0  0
 13 11  3  0  0  0  0
 14  6  1  0  0  0  0
 15  6  2  0  0  0  0
 16  5  1  0  0  0  0
 17  8  2  0  0  0  0
 18  3  1  0  0  0  0
 19  7  1  0  0  0  0
 20 16  1  0  0  0  0
 21 24  1  0  0  0  0
 21  9  2  0  0  0  0
 22 10  1  0  0  0  0
 23 19  2  0  0  0  0
 24 22  2  0  0  0  0
 25 16  2  0  0  0  0
 25 23  1  0  0  0  0
 26 20  1  0  0  0  0
 27 26  1  0  0  0  0
M  END
> <CdId>
2527

> <Mol Weight>
381.405

> <Formula>
C19H15N3O4S

> <Click_ID>
CLK033_E03 __ __ 

$$$$
