CLK015_F08
 OpenBabel03191401532D

 30 32  0  0  0  0  0  0  0  0999 V2000
    1.5629   -0.8147    0.0000 N   0  0  0  0  0  0  0  0  0  0  0  0
    1.8205   -1.6003    0.0000 C   0  0  0  0  0  0  0  0  0  0  0  0
    2.2320   -0.3284    0.0000 C   0  0  0  0  0  0  0  0  0  0  0  0
    2.8971   -0.8147    0.0000 C   0  0  0  0  0  0  0  0  0  0  0  0
    2.6435   -1.6003    0.0000 S   0  0  0  0  0  0  0  0  0  0  0  0
    3.6827   -0.5611    0.0000 C   0  0  0  0  0  0  0  0  0  0  0  0
    7.0577    5.0501    0.0000 C   0  0  0  0  0  0  0  0  0  0  0  0
    0.6110    0.2452    0.0000 C   0  0  0  0  0  0  0  0  0  0  0  0
    0.3907    1.0432    0.0000 C   0  0  0  0  0  0  0  0  0  0  0  0
    6.2638    4.7924    0.0000 C   0  0  0  0  0  0  0  0  0  0  0  0
    1.3342   -2.2611    0.0000 O   0  0  0  0  0  0  0  0  0  0  0  0
    3.4166    1.6085    0.0000 C   0  0  0  0  0  0  0  0  0  0  0  0
    2.2237    0.4946    0.0000 O   0  0  0  0  0  0  0  0  0  0  0  0
    4.1939    1.8662    0.0000 C   0  0  0  0  0  0  0  0  0  0  0  0
    3.8448    0.2452    0.0000 C   0  0  0  0  0  0  0  0  0  0  0  0
    0.7856   -0.5611    0.0000 C   0  0  0  0  0  0  0  0  0  0  0  0
    3.2338    0.7938    0.0000 C   0  0  0  0  0  0  0  0  0  0  0  0
    4.3643    2.6767    0.0000 O   0  0  0  0  0  0  0  0  0  0  0  0
    6.1100    3.9860    0.0000 C   0  0  0  0  0  0  0  0  0  0  0  0
    7.2239    5.8606    0.0000 O   0  0  0  0  0  0  0  0  0  0  0  0
    4.8132    1.3093    0.0000 C   0  0  0  0  0  0  0  0  0  0  0  0
    7.6728    4.4932    0.0000 O   0  0  0  0  0  0  0  0  0  0  0  0
    5.3161    3.7366    0.0000 C   0  0  0  0  0  0  0  0  0  0  0  0
    4.6428    0.5071    0.0000 C   0  0  0  0  0  0  0  0  0  0  0  0
    5.1416    2.9261    0.0000 C   0  0  0  0  0  0  0  0  0  0  0  0
    2.8056    2.1655    0.0000 O   0  0  0  0  0  0  0  0  0  0  0  0
    5.6528    5.3411    0.0000 C   0  0  0  0  0  0  0  0  0  0  0  0
    4.8797    5.0792    0.0000 C   0  0  0  0  0  0  0  0  0  0  0  0
    4.7051    4.2687    0.0000 C   0  0  0  0  0  0  0  0  0  0  0  0
    2.0200    1.9078    0.0000 C   0  0  0  0  0  0  0  0  0  0  0  0
  2  1  1  0  0  0  0
  3  1  1  0  0  0  0
  4  3  1  0  0  0  0
  4  5  1  0  0  0  0
  5  2  1  0  0  0  0
  6  4  2  0  0  0  0
  7 10  1  0  0  0  0
  8 16  1  0  0  0  0
  9  8  3  0  0  0  0
 10 19  1  0  0  0  0
 10 27  2  0  0  0  0
 11  2  2  0  0  0  0
 12 17  1  0  0  0  0
 13  3  2  0  0  0  0
 14 21  1  0  0  0  0
 14 12  2  0  0  0  0
 15  6  1  0  0  0  0
 16  1  1  0  0  0  0
 17 15  2  0  0  0  0
 18 14  1  0  0  0  0
 19 23  2  0  0  0  0
 20  7  2  0  0  0  0
 21 24  2  0  0  0  0
 22  7  1  0  0  0  0
 23 25  1  0  0  0  0
 24 15  1  0  0  0  0
 25 18  1  0  0  0  0
 26 12  1  0  0  0  0
 27 28  1  0  0  0  0
 28 29  2  0  0  0  0
 29 23  1  0  0  0  0
 30 26  1  0  0  0  0
M  END
> <CdId>
1133

> <Mol Weight>
423.438

> <Formula>
C22H17NO6S

> <Click_ID>
CLK015_F08 __ __ 

$$$$
