CLK016_B08
 OpenBabel03191401532D

 25 27  0  0  0  0  0  0  0  0999 V2000
    1.5714   -0.8191    0.0000 N   0  0  0  0  0  0  0  0  0  0  0  0
    1.8305   -1.6090    0.0000 C   0  0  0  0  0  0  0  0  0  0  0  0
    2.9129   -0.8191    0.0000 C   0  0  0  0  0  0  0  0  0  0  0  0
    2.2442   -0.3302    0.0000 C   0  0  0  0  0  0  0  0  0  0  0  0
    2.6579   -1.6090    0.0000 S   0  0  0  0  0  0  0  0  0  0  0  0
    3.7028   -0.5642    0.0000 C   0  0  0  0  0  0  0  0  0  0  0  0
    4.5260    1.3749    0.0000 C   0  0  0  0  0  0  0  0  0  0  0  0
    4.6180    0.5600    0.0000 O   0  0  0  0  0  0  0  0  0  0  0  0
    3.8658    0.2465    0.0000 C   0  0  0  0  0  0  0  0  0  0  0  0
    3.7236    1.5379    0.0000 C   0  0  0  0  0  0  0  0  0  0  0  0
    6.9625    3.5606    0.0000 C   0  0  0  0  0  0  0  0  0  0  0  0
    0.6143    0.2465    0.0000 C   0  0  0  0  0  0  0  0  0  0  0  0
    3.3224    0.8358    0.0000 C   0  0  0  0  0  0  0  0  0  0  0  0
    0.3929    1.0489    0.0000 C   0  0  0  0  0  0  0  0  0  0  0  0
    1.3415   -2.2735    0.0000 O   0  0  0  0  0  0  0  0  0  0  0  0
    5.1320    1.9266    0.0000 C   0  0  0  0  0  0  0  0  0  0  0  0
    2.2359    0.4973    0.0000 O   0  0  0  0  0  0  0  0  0  0  0  0
    6.3482    3.0090    0.0000 C   0  0  0  0  0  0  0  0  0  0  0  0
    0.7899   -0.5642    0.0000 C   0  0  0  0  0  0  0  0  0  0  0  0
    6.7995    4.3673    0.0000 O   0  0  0  0  0  0  0  0  0  0  0  0
    4.9565    2.7164    0.0000 C   0  0  0  0  0  0  0  0  0  0  0  0
    5.9219    1.6758    0.0000 C   0  0  0  0  0  0  0  0  0  0  0  0
    5.5709    3.2681    0.0000 C   0  0  0  0  0  0  0  0  0  0  0  0
    6.5320    2.2149    0.0000 C   0  0  0  0  0  0  0  0  0  0  0  0
    7.7398    3.3057    0.0000 O   0  0  0  0  0  0  0  0  0  0  0  0
  2  1  1  0  0  0  0
  3  4  1  0  0  0  0
  3  5  1  0  0  0  0
  4  1  1  0  0  0  0
  5  2  1  0  0  0  0
  6  3  2  0  0  0  0
  7  8  1  0  0  0  0
  7 10  2  0  0  0  0
  8  9  1  0  0  0  0
  9  6  1  0  0  0  0
 10 13  1  0  0  0  0
 11 18  1  0  0  0  0
 12 19  1  0  0  0  0
 13  9  2  0  0  0  0
 14 12  3  0  0  0  0
 15  2  2  0  0  0  0
 16  7  1  0  0  0  0
 17  4  2  0  0  0  0
 18 24  2  0  0  0  0
 18 23  1  0  0  0  0
 19  1  1  0  0  0  0
 20 11  2  0  0  0  0
 21 16  1  0  0  0  0
 22 16  2  0  0  0  0
 23 21  2  0  0  0  0
 24 22  1  0  0  0  0
 25 11  1  0  0  0  0
M  END
> <CdId>
1173

> <Mol Weight>
353.349

> <Formula>
C18H11NO5S

> <Click_ID>
CLK016_B08 __ __ 

$$$$
