CLK021_C03
 OpenBabel03191401532D

 23 24  0  0  0  0  0  0  0  0999 V2000
    1.2139    1.6857    0.0000 C   0  0  0  0  0  0  0  0  0  0  0  0
    0.4993    1.2734    0.0000 C   0  0  0  0  0  0  0  0  0  0  0  0
    1.9239    1.2734    0.0000 C   0  0  0  0  0  0  0  0  0  0  0  0
    2.6385    0.8612    0.0000 N   0  0  0  0  0  0  0  0  0  0  0  0
   -3.7883    2.9225    0.0000 C   0  0  0  0  0  0  0  0  0  0  0  0
    1.2139    2.5102    0.0000 C   0  0  0  0  0  0  0  0  0  0  0  0
   -4.5029    3.3348    0.0000 C   0  0  0  0  0  0  0  0  0  0  0  0
   -0.9299    2.9225    0.0000 C   0  0  0  0  0  0  0  0  0  0  0  0
   -0.2153    1.6857    0.0000 C   0  0  0  0  0  0  0  0  0  0  0  0
   -0.2153    2.5102    0.0000 C   0  0  0  0  0  0  0  0  0  0  0  0
   -1.6445    2.5102    0.0000 C   0  0  0  0  0  0  0  0  0  0  0  0
    1.9239    2.9225    0.0000 C   0  0  0  0  0  0  0  0  0  0  0  0
   -1.6445    1.6857    0.0000 C   0  0  0  0  0  0  0  0  0  0  0  0
    1.9239    3.7470    0.0000 C   0  0  0  0  0  0  0  0  0  0  0  0
   -0.9299    1.2734    0.0000 C   0  0  0  0  0  0  0  0  0  0  0  0
   -0.9299    3.7470    0.0000 O   0  0  0  0  0  0  0  0  0  0  0  0
    2.6385    4.1593    0.0000 F   0  0  0  0  0  0  0  0  0  0  0  0
   -2.3591    2.9225    0.0000 O   0  0  0  0  0  0  0  0  0  0  0  0
   -3.0737    2.5102    0.0000 C   0  0  0  0  0  0  0  0  0  0  0  0
    0.4993    2.9225    0.0000 C   0  0  0  0  0  0  0  0  0  0  0  0
    0.4993    3.7470    0.0000 C   0  0  0  0  0  0  0  0  0  0  0  0
    1.2139    4.1593    0.0000 C   0  0  0  0  0  0  0  0  0  0  0  0
   -0.2153    4.1593    0.0000 C   0  0  0  0  0  0  0  0  0  0  0  0
  2  1  2  0  0  0  0
  3  1  1  0  0  0  0
  4  3  3  0  0  0  0
  5 19  1  0  0  0  0
  6  1  1  0  0  0  0
  7  5  3  0  0  0  0
  8 10  1  0  0  0  0
  9  2  1  0  0  0  0
 10  9  2  0  0  0  0
 11 13  1  0  0  0  0
 11  8  2  0  0  0  0
 12  6  1  0  0  0  0
 13 15  2  0  0  0  0
 14 12  2  0  0  0  0
 15  9  1  0  0  0  0
 16  8  1  0  0  0  0
 17 14  1  0  0  0  0
 18 11  1  0  0  0  0
 19 18  1  0  0  0  0
 20  6  2  0  0  0  0
 21 20  1  0  0  0  0
 22 21  2  0  0  0  0
 22 14  1  0  0  0  0
 23 16  1  0  0  0  0
M  END
> <CdId>
1578

> <Mol Weight>
307.3184

> <Formula>
C19H14FNO2

> <Click_ID>
CLK021_C03 __ __ 

$$$$
