CLK036_E05
 OpenBabel03191401532D

 27 29  0  0  0  0  0  0  0  0999 V2000
   -0.5313    4.8144    0.0000 C   0  0  0  0  0  0  0  0  0  0  0  0
   -0.1053    4.1044    0.0000 N   0  0  0  0  0  0  0  0  0  0  0  0
   -1.3559    4.8969    0.0000 N   0  0  0  0  0  0  0  0  0  0  0  0
   -0.2015    5.5703    0.0000 S   0  0  0  0  0  0  0  0  0  0  0  0
   -1.5254    5.7077    0.0000 C   0  0  0  0  0  0  0  0  0  0  0  0
   -0.8199    6.1200    0.0000 C   0  0  0  0  0  0  0  0  0  0  0  0
    2.3683    1.2459    0.0000 S   0  0  0  0  0  0  0  0  0  0  0  0
    0.7192    4.1090    0.0000 C   0  0  0  0  0  0  0  0  0  0  0  0
   -0.8199    6.9445    0.0000 C   0  0  0  0  0  0  0  0  0  0  0  0
    1.9560    1.9743    0.0000 C   0  0  0  0  0  0  0  0  0  0  0  0
   -2.6935    4.4434    0.0000 C   0  0  0  0  0  0  0  0  0  0  0  0
   -3.4997    4.6037    0.0000 C   0  0  0  0  0  0  0  0  0  0  0  0
   -2.2400    6.1200    0.0000 C   0  0  0  0  0  0  0  0  0  0  0  0
    1.1315    3.4035    0.0000 C   0  0  0  0  0  0  0  0  0  0  0  0
    1.6491    0.8337    0.0000 O   0  0  0  0  0  0  0  0  0  0  0  0
    3.0967    1.6582    0.0000 O   0  0  0  0  0  0  0  0  0  0  0  0
   -1.5254    7.3568    0.0000 C   0  0  0  0  0  0  0  0  0  0  0  0
    1.1315    4.8236    0.0000 O   0  0  0  0  0  0  0  0  0  0  0  0
   -2.2400    6.9445    0.0000 C   0  0  0  0  0  0  0  0  0  0  0  0
   -1.8918    4.2830    0.0000 C   0  0  0  0  0  0  0  0  0  0  0  0
    1.1315    1.9743    0.0000 C   0  0  0  0  0  0  0  0  0  0  0  0
    2.3683    2.6889    0.0000 C   0  0  0  0  0  0  0  0  0  0  0  0
    0.7192    2.6889    0.0000 C   0  0  0  0  0  0  0  0  0  0  0  0
    1.9560    3.4035    0.0000 C   0  0  0  0  0  0  0  0  0  0  0  0
    2.7806    0.5222    0.0000 C   0  0  0  0  0  0  0  0  0  0  0  0
   -0.0962    7.3659    0.0000 C   0  0  0  0  0  0  0  0  0  0  0  0
   -2.9637    7.3659    0.0000 C   0  0  0  0  0  0  0  0  0  0  0  0
  2  1  2  0  0  0  0
  3  1  1  0  0  0  0
  4  1  1  0  0  0  0
  5  3  1  0  0  0  0
  6  4  1  0  0  0  0
  6  5  2  0  0  0  0
  7 10  1  0  0  0  0
  8  2  1  0  0  0  0
  9  6  1  0  0  0  0
 10 22  1  0  0  0  0
 10 21  2  0  0  0  0
 11 20  1  0  0  0  0
 12 11  3  0  0  0  0
 13  5  1  0  0  0  0
 14  8  1  0  0  0  0
 15  7  2  0  0  0  0
 16  7  2  0  0  0  0
 17  9  2  0  0  0  0
 18  8  2  0  0  0  0
 19 13  2  0  0  0  0
 19 17  1  0  0  0  0
 20  3  1  0  0  0  0
 21 23  1  0  0  0  0
 22 24  2  0  0  0  0
 23 14  2  0  0  0  0
 24 14  1  0  0  0  0
 25  7  1  0  0  0  0
 26  9  1  0  0  0  0
 27 19  1  0  0  0  0
M  END
> <CdId>
2752

> <Mol Weight>
398.499

> <Formula>
C20H18N2O3S2

> <Click_ID>
CLK036_E05 __ __ 

$$$$
