CLK019_B04
 OpenBabel03191401532D

 21 22  0  0  0  0  0  0  0  0999 V2000
    2.8081   -0.9207    0.0000 C    0  0  0  0  0  0  0  0  0  0  0  0
    7.9340    1.9743    0.0000 C    0  0  0  0  0  0  0  0  0  0  0  0
    7.9340    2.7988    0.0000 C    0  0  0  0  0  0  0  0  0  0  0  0
    3.5914   -0.4672    0.0000 N    0  0  0  0  0  0  0  0  0  0  0  0
    5.7993    0.7375    0.0000 C    0  0  0  0  0  0  0  0  0  0  0  0
    2.8081   -1.8415    0.0000 C    0  0  0  0  0  0  0  0  0  0  0  0
    6.5048    0.3252    0.0000 C    0  0  0  0  0  0  0  0  0  0  0  0
    2.0110   -0.4672    0.0000 C    0  0  0  0  0  0  0  0  0  0  0  0
    5.0847    0.3252    0.0000 C    0  0  0  0  0  0  0  0  0  0  0  0
    6.5185   -0.4993    0.0000 C    0  0  0  0  0  0  0  0  0  0  0  0
    1.2277   -0.9345    0.0000 C    0  0  0  0  0  0  0  0  0  0  0  0
    2.0110   -2.2950    0.0000 C    0  0  0  0  0  0  0  0  0  0  0  0
    5.0893   -0.4993    0.0000 C    0  0  0  0  0  0  0  0  0  0  0  0
    4.3747   -0.9207    0.0000 C    0  0  0  0  0  0  0  0  0  0  0  0
    5.7902    1.5620    0.0000 Br   0  0  0  0  0  0  0  0  0  0  0  0
    1.2277   -1.8415    0.0000 C    0  0  0  0  0  0  0  0  0  0  0  0
    5.8039   -0.9116    0.0000 C    0  0  0  0  0  0  0  0  0  0  0  0
    2.0110   -3.1195    0.0000 Cl   0  0  0  0  0  0  0  0  0  0  0  0
    7.2194    0.7375    0.0000 O    0  0  0  0  0  0  0  0  0  0  0  0
    7.2194    1.5620    0.0000 C    0  0  0  0  0  0  0  0  0  0  0  0
    2.0110    0.3573    0.0000 C    0  0  0  0  0  0  0  0  0  0  0  0
  2 20  1  0  0  0  0
  3  2  3  0  0  0  0
  4  1  1  0  0  0  0
  5  9  1  0  0  0  0
  6  1  1  0  0  0  0
  7 10  1  0  0  0  0
  7  5  2  0  0  0  0
  8  1  2  0  0  0  0
  9 13  2  0  0  0  0
 10 17  2  0  0  0  0
 11  8  1  0  0  0  0
 12  6  2  0  0  0  0
 12 16  1  0  0  0  0
 13 14  1  0  0  0  0
 14  4  1  0  0  0  0
 15  5  1  0  0  0  0
 16 11  2  0  0  0  0
 17 13  1  0  0  0  0
 18 12  1  0  0  0  0
 19  7  1  0  0  0  0
 20 19  1  0  0  0  0
 21  8  1  0  0  0  0
M  END
> <CdId>
1409

> <Mol Weight>
364.664

> <Formula>
C17H15BrClNO

> <Click_ID>
CLK019_B04 __ __ 

$$$$
