CLK051E03
 OpenBabel03191401532D

 33 37  0  0  0  0  0  0  0  0999 V2000
    0.5833   -0.9542    0.0000 N   0  0  0  0  0  0  0  0  0  0  0  0
    1.2958    2.7583    0.0000 S   0  0  0  0  0  0  0  0  0  0  0  0
    1.2958   -0.5417    0.0000 C   0  0  0  0  0  0  0  0  0  0  0  0
   -0.8458   -1.7792    0.0000 C   0  0  0  0  0  0  0  0  0  0  0  0
   -0.8458   -0.9542    0.0000 C   0  0  0  0  0  0  0  0  0  0  0  0
   -0.1333   -2.1917    0.0000 C   0  0  0  0  0  0  0  0  0  0  0  0
    0.5833   -1.7792    0.0000 C   0  0  0  0  0  0  0  0  0  0  0  0
   -0.1333   -0.5417    0.0000 C   0  0  0  0  0  0  0  0  0  0  0  0
   -1.5625   -2.1917    0.0000 C   0  0  0  0  0  0  0  0  0  0  0  0
   -2.2750   -1.7792    0.0000 C   0  0  0  0  0  0  0  0  0  0  0  0
   -2.2750   -0.9542    0.0000 C   0  0  0  0  0  0  0  0  0  0  0  0
    1.2958    1.9333    0.0000 C   0  0  0  0  0  0  0  0  0  0  0  0
   -1.5625   -0.5417    0.0000 C   0  0  0  0  0  0  0  0  0  0  0  0
    2.0125    4.8167    0.0000 C   0  0  0  0  0  0  0  0  0  0  0  0
    2.0125    5.6417    0.0000 C   0  0  0  0  0  0  0  0  0  0  0  0
    0.4708    2.7583    0.0000 O   0  0  0  0  0  0  0  0  0  0  0  0
    2.1208    2.7583    0.0000 O   0  0  0  0  0  0  0  0  0  0  0  0
    1.2958    0.2833    0.0000 C   0  0  0  0  0  0  0  0  0  0  0  0
    1.2958    3.5833    0.0000 N   0  0  0  0  0  0  0  0  0  0  0  0
    2.0125   -0.9542    0.0000 O   0  0  0  0  0  0  0  0  0  0  0  0
   -2.9917   -2.1917    0.0000 O   0  0  0  0  0  0  0  0  0  0  0  0
   -2.9917   -0.5417    0.0000 O   0  0  0  0  0  0  0  0  0  0  0  0
    2.0125    1.5208    0.0000 C   0  0  0  0  0  0  0  0  0  0  0  0
    0.5833    1.5208    0.0000 C   0  0  0  0  0  0  0  0  0  0  0  0
    2.0125    0.6958    0.0000 C   0  0  0  0  0  0  0  0  0  0  0  0
    0.5833    0.6958    0.0000 C   0  0  0  0  0  0  0  0  0  0  0  0
    2.0125    3.9958    0.0000 C   0  0  0  0  0  0  0  0  0  0  0  0
   -0.8000   -2.6750    0.0000 C   0  0  0  0  0  0  0  0  0  0  0  0
    0.5375   -2.6750    0.0000 C   0  0  0  0  0  0  0  0  0  0  0  0
   -3.7042   -1.7792    0.0000 C   0  0  0  0  0  0  0  0  0  0  0  0
   -3.7042   -0.9542    0.0000 C   0  0  0  0  0  0  0  0  0  0  0  0
    0.2792   -3.4625    0.0000 C   0  0  0  0  0  0  0  0  0  0  0  0
   -0.5458   -3.4625    0.0000 C   0  0  0  0  0  0  0  0  0  0  0  0
  2 12  1  0  0  0  0
  3  1  1  0  0  0  0
  4  6  1  0  0  0  0
  4  5  2  0  0  0  0
  5  8  1  0  0  0  0
  6  7  1  0  0  0  0
  7  1  1  0  0  0  0
  8  1  1  0  0  0  0
  9  4  1  0  0  0  0
 10  9  2  0  0  0  0
 10 11  1  0  0  0  0
 11 13  2  0  0  0  0
 12 24  2  0  0  0  0
 12 23  1  0  0  0  0
 13  5  1  0  0  0  0
 14 27  1  0  0  0  0
 15 14  3  0  0  0  0
 16  2  2  0  0  0  0
 17  2  2  0  0  0  0
 18  3  1  0  0  0  0
 19  2  1  0  0  0  0
 20  3  2  0  0  0  0
 21 10  1  0  0  0  0
 22 11  1  0  0  0  0
 23 25  2  0  0  0  0
 24 26  1  0  0  0  0
 25 18  1  0  0  0  0
 26 18  2  0  0  0  0
 27 19  1  0  0  0  0
 28  6  1  0  0  0  0
 29  6  1  0  0  0  0
 30 21  1  0  0  0  0
 30 31  1  0  0  0  0
 31 22  1  0  0  0  0
 32 29  1  0  0  0  0
 32 33  1  0  0  0  0
 33 28  1  0  0  0  0
M  END
> <CdId>
3901

> <Mol Weight>
466.549

> <Formula>
C25H26N2O5S

> <Click_ID>
CLK051E03 __ __ 

$$$$
