CLK011_F06
 OpenBabel03191401532D

 19 19  0  0  0  0  0  0  0  0999 V2000
    0.3129    1.9101    0.0000 C   0  0  0  0  0  0  0  0  0  0  0  0
   -0.4085    1.5016    0.0000 N   0  0  0  0  0  0  0  0  0  0  0  0
   -1.1225    1.9175    0.0000 C   0  0  0  0  0  0  0  0  0  0  0  0
    1.0305    1.4979    0.0000 C   0  0  0  0  0  0  0  0  0  0  0  0
    0.3129    2.7345    0.0000 C   0  0  0  0  0  0  0  0  0  0  0  0
    2.4328    0.6367    0.0000 C   0  0  0  0  0  0  0  0  0  0  0  0
    3.1504    1.0268    0.0000 C   0  0  0  0  0  0  0  0  0  0  0  0
   -1.1225    2.7493    0.0000 O   0  0  0  0  0  0  0  0  0  0  0  0
   -1.8402    1.5016    0.0000 C   0  0  0  0  0  0  0  0  0  0  0  0
    1.7555    1.8991    0.0000 O   0  0  0  0  0  0  0  0  0  0  0  0
    1.0195    0.6735    0.0000 O   0  0  0  0  0  0  0  0  0  0  0  0
    1.7224    0.2502    0.0000 C   0  0  0  0  0  0  0  0  0  0  0  0
   -0.3975    3.1541    0.0000 C   0  0  0  0  0  0  0  0  0  0  0  0
    1.0158    3.1357    0.0000 C   0  0  0  0  0  0  0  0  0  0  0  0
   -1.8402    0.6735    0.0000 C   0  0  0  0  0  0  0  0  0  0  0  0
   -2.5578    1.9175    0.0000 C   0  0  0  0  0  0  0  0  0  0  0  0
   -3.2682    1.5016    0.0000 C   0  0  0  0  0  0  0  0  0  0  0  0
   -2.5578    0.2613    0.0000 C   0  0  0  0  0  0  0  0  0  0  0  0
   -3.2682    0.6735    0.0000 C   0  0  0  0  0  0  0  0  0  0  0  0
  2  1  1  0  0  0  0
  3  2  1  0  0  0  0
  4  1  1  0  0  0  0
  5  1  2  0  0  0  0
  6 12  1  0  0  0  0
  7  6  3  0  0  0  0
  8  3  2  0  0  0  0
  9  3  1  0  0  0  0
 10  4  2  0  0  0  0
 11  4  1  0  0  0  0
 12 11  1  0  0  0  0
 13  5  1  0  0  0  0
 14  5  1  0  0  0  0
 15  9  2  0  0  0  0
 16  9  1  0  0  0  0
 17 16  2  0  0  0  0
 18 15  1  0  0  0  0
 18 19  2  0  0  0  0
 19 17  1  0  0  0  0
M  END
> <CdId>
811

> <Mol Weight>
257.2845

> <Formula>
C15H15NO3

> <Click_ID>
CLK011_F06 __ __ 

$$$$
