CLK043C03
 OpenBabel03191401532D

 27 29  0  0  0  0  0  0  0  0999 V2000
    1.1333    1.8792    0.0000 S   0  0  0  0  0  0  0  0  0  0  0  0
   -0.9292   -1.6917    0.0000 C   0  0  0  0  0  0  0  0  0  0  0  0
   -1.4167   -2.3583    0.0000 O   0  0  0  0  0  0  0  0  0  0  0  0
   -1.4167   -1.0250    0.0000 C   0  0  0  0  0  0  0  0  0  0  0  0
    1.1333   -0.9750    0.0000 C   0  0  0  0  0  0  0  0  0  0  0  0
    0.3083   -0.9750    0.0000 N   0  0  0  0  0  0  0  0  0  0  0  0
    1.5458    1.1667    0.0000 C   0  0  0  0  0  0  0  0  0  0  0  0
   -2.2000   -2.1042    0.0000 C   0  0  0  0  0  0  0  0  0  0  0  0
   -2.2000   -1.2792    0.0000 C   0  0  0  0  0  0  0  0  0  0  0  0
    1.5458   -0.2625    0.0000 C   0  0  0  0  0  0  0  0  0  0  0  0
   -0.1042   -1.6917    0.0000 C   0  0  3  0  0  0  0  0  0  0  0  0
    0.7208    4.0208    0.0000 C   0  0  0  0  0  0  0  0  0  0  0  0
    1.1333    0.4500    0.0000 C   0  0  0  0  0  0  0  0  0  0  0  0
    0.3083    4.7333    0.0000 C   0  0  0  0  0  0  0  0  0  0  0  0
    1.8458    2.2917    0.0000 O   0  0  0  0  0  0  0  0  0  0  0  0
    0.4167    1.4667    0.0000 O   0  0  0  0  0  0  0  0  0  0  0  0
    0.7208    2.5958    0.0000 N   0  0  0  0  0  0  0  0  0  0  0  0
    1.5458   -1.6917    0.0000 O   0  0  0  0  0  0  0  0  0  0  0  0
    1.1333    3.3083    0.0000 C   0  0  0  0  0  0  0  0  0  0  0  0
    2.3708    1.1667    0.0000 C   0  0  0  0  0  0  0  0  0  0  0  0
    2.3708   -0.2625    0.0000 C   0  0  0  0  0  0  0  0  0  0  0  0
    2.7833    0.4500    0.0000 C   0  0  0  0  0  0  0  0  0  0  0  0
   -2.9167   -2.5167    0.0000 C   0  0  0  0  0  0  0  0  0  0  0  0
   -2.9167   -0.8667    0.0000 C   0  0  0  0  0  0  0  0  0  0  0  0
    0.3083   -2.4042    0.0000 C   0  0  0  0  0  0  0  0  0  0  0  0
   -3.6292   -2.1042    0.0000 C   0  0  0  0  0  0  0  0  0  0  0  0
   -3.6292   -1.2792    0.0000 C   0  0  0  0  0  0  0  0  0  0  0  0
  2 11  1  0  0  0  0
  3  2  1  0  0  0  0
  4  2  2  0  0  0  0
  5 10  1  0  0  0  0
  6  5  1  0  0  0  0
  7  1  1  0  0  0  0
  8  3  1  0  0  0  0
  8  9  2  0  0  0  0
  9  4  1  0  0  0  0
 10 13  2  0  0  0  0
 11  6  1  0  0  0  0
 12 19  1  0  0  0  0
 13  7  1  0  0  0  0
 14 12  3  0  0  0  0
 15  1  2  0  0  0  0
 16  1  2  0  0  0  0
 17  1  1  0  0  0  0
 18  5  2  0  0  0  0
 19 17  1  0  0  0  0
 20  7  2  0  0  0  0
 21 10  1  0  0  0  0
 22 20  1  0  0  0  0
 22 21  2  0  0  0  0
 23  8  1  0  0  0  0
 24  9  1  0  0  0  0
 25 11  1  0  0  0  0
 26 23  2  0  0  0  0
 26 27  1  0  0  0  0
 27 24  2  0  0  0  0
M  END
> <CdId>
3259

> <Mol Weight>
382.433

> <Formula>
C20H18N2O4S

> <Click_ID>
CLK043C03 __ __ 

$$$$
