CLK002_C07
 OpenBabel03191401532D

 29 33  0  0  0  0  0  0  0  0999 V2000
   -1.2147   -0.7340    0.0000 C   0  0  0  0  0  0  0  0  0  0  0  0
   -0.5273   -0.3437    0.0000 C   0  0  0  0  0  0  0  0  0  0  0  0
   -1.9417   -0.3437    0.0000 C   0  0  0  0  0  0  0  0  0  0  0  0
   -1.9092   -1.1613    0.0000 C   0  0  0  0  0  0  0  0  0  0  0  0
   -0.5273   -1.1613    0.0000 C   0  0  0  0  0  0  0  0  0  0  0  0
   -0.5273    0.5203    0.0000 C   0  0  0  0  0  0  0  0  0  0  0  0
    0.1905   -0.7340    0.0000 C   0  0  0  0  0  0  0  0  0  0  0  0
   -1.9417    0.5203    0.0000 C   0  0  0  0  0  0  0  0  0  0  0  0
   -1.9092   -2.0021    0.0000 C   0  0  0  0  0  0  0  0  0  0  0  0
   -0.5273   -2.0021    0.0000 C   0  0  0  0  0  0  0  0  0  0  0  0
   -1.2240    0.9011    0.0000 C   0  0  0  0  0  0  0  0  0  0  0  0
    0.1905    0.9011    0.0000 N   0  0  0  0  0  0  0  0  0  0  0  0
    0.9244   -0.3437    0.0000 N   0  0  0  0  0  0  0  0  0  0  0  0
    0.1905   -1.5771    0.0000 O   0  0  0  0  0  0  0  0  0  0  0  0
   -2.6384    0.9011    0.0000 C   0  0  0  0  0  0  0  0  0  0  0  0
   -1.2240    1.7326    0.0000 C   0  0  0  0  0  0  0  0  0  0  0  0
    0.9244    0.5203    0.0000 C   0  0  0  0  0  0  0  0  0  0  0  0
    1.5863   -0.7571    0.0000 C   0  0  0  0  0  0  0  0  0  0  0  0
   -2.6384    1.7326    0.0000 C   0  0  0  0  0  0  0  0  0  0  0  0
   -1.9417    2.1391    0.0000 C   0  0  0  0  0  0  0  0  0  0  0  0
    1.6281    0.9685    0.0000 S   0  0  0  0  0  0  0  0  0  0  0  0
    1.5863   -1.5678    0.0000 C   0  0  0  0  0  0  0  0  0  0  0  0
    2.3202   -0.3647    0.0000 C   0  0  0  0  0  0  0  0  0  0  0  0
    1.6281    1.8163    0.0000 C   0  0  0  0  0  0  0  0  0  0  0  0
    2.2785   -2.0137    0.0000 C   0  0  0  0  0  0  0  0  0  0  0  0
    3.0449   -0.7757    0.0000 C   0  0  0  0  0  0  0  0  0  0  0  0
    0.9197    2.2204    0.0000 C   0  0  0  0  0  0  0  0  0  0  0  0
    3.0542   -1.6096    0.0000 C   0  0  0  0  0  0  0  0  0  0  0  0
    0.2160    2.6199    0.0000 C   0  0  0  0  0  0  0  0  0  0  0  0
  1  2  1  0  0  0  0
  1  3  1  0  0  0  0
  1  4  1  0  0  0  0
  1  5  1  0  0  0  0
  2  6  2  0  0  0  0
  2  7  1  0  0  0  0
  3  8  1  0  0  0  0
  4  9  1  0  0  0  0
  5 10  1  0  0  0  0
  6 11  1  0  0  0  0
  6 12  1  0  0  0  0
  7 13  1  0  0  0  0
  7 14  2  0  0  0  0
  8 15  2  0  0  0  0
  8 11  1  0  0  0  0
  9 10  1  0  0  0  0
 11 16  2  0  0  0  0
 12 17  2  0  0  0  0
 13 18  1  0  0  0  0
 13 17  1  0  0  0  0
 15 19  1  0  0  0  0
 16 20  1  0  0  0  0
 17 21  1  0  0  0  0
 18 22  1  0  0  0  0
 18 23  2  0  0  0  0
 19 20  2  0  0  0  0
 21 24  1  0  0  0  0
 22 25  2  0  0  0  0
 23 26  1  0  0  0  0
 24 27  1  0  0  0  0
 25 28  1  0  0  0  0
 26 28  2  0  0  0  0
 27 29  3  0  0  0  0
M  END
> <CdId>
106

> <Mol Weight>
398.52

> <Formula>
C25H22N2OS

> <Click_ID>
CLK002_C07 __ __ 

$$$$
