CLK033_A05
 OpenBabel03191401532D

 25 27  0  0  0  0  0  0  0  0999 V2000
   -4.6010    2.5612    0.0000 C   0  0  0  0  0  0  0  0  0  0  0  0
   -3.8669    2.9867    0.0000 N   0  0  0  0  0  0  0  0  0  0  0  0
   -4.6886    1.7353    0.0000 N   0  0  0  0  0  0  0  0  0  0  0  0
   -5.3268    2.8991    0.0000 S   0  0  0  0  0  0  0  0  0  0  0  0
   -5.4937    1.5851    0.0000 C   0  0  0  0  0  0  0  0  0  0  0  0
   -5.9025    2.3026    0.0000 C   0  0  0  0  0  0  0  0  0  0  0  0
   -3.8752    3.8043    0.0000 C   0  0  0  0  0  0  0  0  0  0  0  0
   -4.2631    0.3587    0.0000 C   0  0  0  0  0  0  0  0  0  0  0  0
   -3.1619    4.2173    0.0000 C   0  0  0  0  0  0  0  0  0  0  0  0
   -4.4508   -0.4547    0.0000 C   0  0  0  0  0  0  0  0  0  0  0  0
   -5.9275    0.8843    0.0000 C   0  0  0  0  0  0  0  0  0  0  0  0
   -4.5885    4.2215    0.0000 O   0  0  0  0  0  0  0  0  0  0  0  0
   -2.4486    3.8043    0.0000 C   0  0  0  0  0  0  0  0  0  0  0  0
   -4.0754    1.1638    0.0000 C   0  0  0  0  0  0  0  0  0  0  0  0
   -1.7353    4.2090    0.0000 C   0  0  0  0  0  0  0  0  0  0  0  0
   -6.7118    2.3234    0.0000 C   0  0  0  0  0  0  0  0  0  0  0  0
   -5.5270    0.1460    0.0000 O   0  0  0  0  0  0  0  0  0  0  0  0
   -0.9969    3.8043    0.0000 O   0  0  0  0  0  0  0  0  0  0  0  0
   -3.1619    5.0349    0.0000 C   0  0  0  0  0  0  0  0  0  0  0  0
   -7.1498    1.6226    0.0000 C   0  0  0  0  0  0  0  0  0  0  0  0
   -2.4486    5.4478    0.0000 C   0  0  0  0  0  0  0  0  0  0  0  0
   -6.7368    0.8885    0.0000 C   0  0  0  0  0  0  0  0  0  0  0  0
   -1.7269    5.0349    0.0000 C   0  0  0  0  0  0  0  0  0  0  0  0
   -5.9650   -0.5548    0.0000 C   0  0  0  0  0  0  0  0  0  0  0  0
   -0.2836    4.2090    0.0000 C   0  0  0  0  0  0  0  0  0  0  0  0
  2  1  2  0  0  0  0
  3  1  1  0  0  0  0
  4  1  1  0  0  0  0
  5  3  1  0  0  0  0
  6  4  1  0  0  0  0
  6  5  2  0  0  0  0
  7  2  1  0  0  0  0
  8 14  1  0  0  0  0
  9  7  1  0  0  0  0
 10  8  3  0  0  0  0
 11  5  1  0  0  0  0
 12  7  2  0  0  0  0
 13  9  2  0  0  0  0
 14  3  1  0  0  0  0
 15 13  1  0  0  0  0
 15 23  2  0  0  0  0
 16  6  1  0  0  0  0
 17 11  1  0  0  0  0
 18 15  1  0  0  0  0
 19  9  1  0  0  0  0
 20 16  2  0  0  0  0
 21 19  2  0  0  0  0
 22 11  2  0  0  0  0
 22 20  1  0  0  0  0
 23 21  1  0  0  0  0
 24 17  1  0  0  0  0
 25 18  1  0  0  0  0
M  END
> <CdId>
2489

> <Mol Weight>
352.407

> <Formula>
C19H16N2O3S

> <Click_ID>
CLK033_A05 __ __ 

$$$$
