CLK026_A08
 OpenBabel03191401532D

 23 24  0  0  0  0  0  0  0  0999 V2000
    2.2033   -0.4544    0.0000 N   0  0  0  0  0  0  0  0  0  0  0  0
    1.8797    0.2857    0.0000 C   0  0  0  0  0  0  0  0  0  0  0  0
    1.6009   -1.0156    0.0000 C   0  0  0  0  0  0  0  0  0  0  0  0
    0.8917   -0.6162    0.0000 C   0  0  0  0  0  0  0  0  0  0  0  0
    1.0569    0.1928    0.0000 S   0  0  0  0  0  0  0  0  0  0  0  0
    0.1721   -1.0363    0.0000 C   0  0  0  0  0  0  0  0  0  0  0  0
    3.5597    0.0069    0.0000 C   0  0  0  0  0  0  0  0  0  0  0  0
    4.1071    0.6335    0.0000 C   0  0  0  0  0  0  0  0  0  0  0  0
    2.2997    1.0018    0.0000 O   0  0  0  0  0  0  0  0  0  0  0  0
   -1.9727   -0.6300    0.0000 C   0  0  0  0  0  0  0  0  0  0  0  0
    1.6800   -1.8453    0.0000 O   0  0  0  0  0  0  0  0  0  0  0  0
   -0.5509   -0.6162    0.0000 C   0  0  0  0  0  0  0  0  0  0  0  0
    3.0193   -0.6162    0.0000 C   0  0  0  0  0  0  0  0  0  0  0  0
   -1.2600   -1.0397    0.0000 C   0  0  0  0  0  0  0  0  0  0  0  0
   -1.9830    0.1928    0.0000 C   0  0  0  0  0  0  0  0  0  0  0  0
   -1.2635    0.6162    0.0000 C   0  0  0  0  0  0  0  0  0  0  0  0
   -0.5612    0.2169    0.0000 C   0  0  0  0  0  0  0  0  0  0  0  0
   -2.6853   -1.0397    0.0000 O   0  0  0  0  0  0  0  0  0  0  0  0
   -2.7060    0.6025    0.0000 O   0  0  0  0  0  0  0  0  0  0  0  0
   -3.3945   -0.6300    0.0000 C   0  0  0  0  0  0  0  0  0  0  0  0
   -2.7094    1.4391    0.0000 C   0  0  0  0  0  0  0  0  0  0  0  0
   -3.4255    1.8487    0.0000 C   0  0  0  0  0  0  0  0  0  0  0  0
   -4.1106   -1.0397    0.0000 C   0  0  0  0  0  0  0  0  0  0  0  0
  2  1  1  0  0  0  0
  3  1  1  0  0  0  0
  4  3  1  0  0  0  0
  5  2  1  0  0  0  0
  5  4  1  0  0  0  0
  6  4  2  0  0  0  0
  7 13  1  0  0  0  0
  8  7  3  0  0  0  0
  9  2  2  0  0  0  0
 10 14  1  0  0  0  0
 11  3  2  0  0  0  0
 12  6  1  0  0  0  0
 13  1  1  0  0  0  0
 14 12  2  0  0  0  0
 15 16  1  0  0  0  0
 15 10  2  0  0  0  0
 16 17  2  0  0  0  0
 17 12  1  0  0  0  0
 18 10  1  0  0  0  0
 19 15  1  0  0  0  0
 20 18  1  0  0  0  0
 21 19  1  0  0  0  0
 22 21  1  0  0  0  0
 23 20  1  0  0  0  0
M  END
> <CdId>
1943

> <Mol Weight>
331.386

> <Formula>
C17H17NO4S

> <Click_ID>
CLK026_A08 __ __ 

$$$$
