CLK012_B07
 OpenBabel03191401532D

 28 30  0  0  0  0  0  0  0  0999 V2000
    5.6078   -2.2056    0.0000 N   0  0  0  0  0  0  0  0  0  0  0  0
    5.2701   -2.9644    0.0000 C   0  0  0  0  0  0  0  0  0  0  0  0
    4.9949   -1.6553    0.0000 C   0  0  0  0  0  0  0  0  0  0  0  0
    4.2819   -2.0638    0.0000 C   0  0  0  0  0  0  0  0  0  0  0  0
    4.4445   -2.8685    0.0000 N   0  0  0  0  0  0  0  0  0  0  0  0
    3.5273   -1.7261    0.0000 C   0  0  0  0  0  0  0  0  0  0  0  0
    6.4166   -2.0430    0.0000 C   0  0  0  0  0  0  0  0  0  0  0  0
    5.6786   -3.6816    0.0000 S   0  0  0  0  0  0  0  0  0  0  0  0
    0.2544   -4.9699    0.0000 C   0  0  0  0  0  0  0  0  0  0  0  0
   -0.4128   -5.4535    0.0000 C   0  0  0  0  0  0  0  0  0  0  0  0
    1.4259   -2.3515    0.0000 C   0  0  0  0  0  0  0  0  0  0  0  0
    5.0824   -0.8297    0.0000 O   0  0  0  0  0  0  0  0  0  0  0  0
    2.8560   -2.2056    0.0000 C   0  0  0  0  0  0  0  0  0  0  0  0
    2.0930   -1.8679    0.0000 C   0  0  0  0  0  0  0  0  0  0  0  0
    1.5052   -3.1770    0.0000 C   0  0  0  0  0  0  0  0  0  0  0  0
    6.6710   -1.2550    0.0000 C   0  0  0  0  0  0  0  0  0  0  0  0
    6.9586   -2.6559    0.0000 C   0  0  0  0  0  0  0  0  0  0  0  0
    2.2556   -3.5147    0.0000 C   0  0  0  0  0  0  0  0  0  0  0  0
    2.9311   -3.0311    0.0000 C   0  0  0  0  0  0  0  0  0  0  0  0
    8.0301   -1.7053    0.0000 C   0  0  0  0  0  0  0  0  0  0  0  0
    0.6671   -2.0138    0.0000 O   0  0  0  0  0  0  0  0  0  0  0  0
    7.7675   -2.4933    0.0000 C   0  0  0  0  0  0  0  0  0  0  0  0
    7.4798   -1.0924    0.0000 C   0  0  0  0  0  0  0  0  0  0  0  0
    0.8380   -3.6648    0.0000 O   0  0  0  0  0  0  0  0  0  0  0  0
    0.9173   -4.4821    0.0000 C   0  0  0  0  0  0  0  0  0  0  0  0
    8.8348   -1.5510    0.0000 O   0  0  0  0  0  0  0  0  0  0  0  0
    0.0000   -2.4933    0.0000 C   0  0  0  0  0  0  0  0  0  0  0  0
    9.0975   -0.7672    0.0000 C   0  0  0  0  0  0  0  0  0  0  0  0
  2  1  1  0  0  0  0
  3  1  1  0  0  0  0
  4  3  1  0  0  0  0
  5  2  1  0  0  0  0
  5  4  1  0  0  0  0
  6  4  2  0  0  0  0
  7  1  1  0  0  0  0
  8  2  2  0  0  0  0
  9 25  1  0  0  0  0
 10  9  3  0  0  0  0
 11 14  1  0  0  0  0
 11 15  2  0  0  0  0
 12  3  2  0  0  0  0
 13  6  1  0  0  0  0
 14 13  2  0  0  0  0
 15 18  1  0  0  0  0
 16  7  1  0  0  0  0
 17  7  2  0  0  0  0
 18 19  2  0  0  0  0
 19 13  1  0  0  0  0
 20 22  2  0  0  0  0
 20 23  1  0  0  0  0
 21 11  1  0  0  0  0
 22 17  1  0  0  0  0
 23 16  2  0  0  0  0
 24 15  1  0  0  0  0
 25 24  1  0  0  0  0
 26 20  1  0  0  0  0
 27 21  1  0  0  0  0
 28 26  1  0  0  0  0
M  END
> <CdId>
852

> <Mol Weight>
394.444

> <Formula>
C21H18N2O4S

> <Click_ID>
CLK012_B07 __ __ 

$$$$
