CLK038A06
 OpenBabel03191401532D

 17 17  0  0  0  0  0  0  0  0999 V2000
    0.3373   -0.5455    0.0000 S    0  0  0  0  0  0  0  0  0  0  0  0
    1.0785   -0.1832    0.0000 C    0  0  0  0  0  0  0  0  0  0  0  0
    1.2242    0.6288    0.0000 S    0  0  0  0  0  0  0  0  0  0  0  0
   -0.4039   -0.9036    0.0000 N    0  0  0  0  0  0  0  0  0  0  0  0
    2.0404    0.7412    0.0000 C    0  0  0  0  0  0  0  0  0  0  0  0
   -1.0868   -0.4414    0.0000 C    0  0  3  0  0  0  0  0  0  0  0  0
    1.8072   -0.5746    0.0000 C    0  0  0  0  0  0  0  0  0  0  0  0
   -1.0286    0.3790    0.0000 C    0  0  0  0  0  0  0  0  0  0  0  0
    2.4027    0.0000    0.0000 C    0  0  0  0  0  0  0  0  0  0  0  0
   -2.5109   -0.3415    0.0000 C    0  0  0  0  0  0  0  0  0  0  0  0
   -0.0208    0.1957    0.0000 O    0  0  0  0  0  0  0  0  0  0  0  0
    0.6996   -1.2867    0.0000 O    0  0  0  0  0  0  0  0  0  0  0  0
   -3.1938    0.1207    0.0000 C    0  0  0  0  0  0  0  0  0  0  0  0
   -1.7072    0.8412    0.0000 O    0  0  0  0  0  0  0  0  0  0  0  0
    2.4318    1.4658    0.0000 Cl   0  0  0  0  0  0  0  0  0  0  0  0
   -1.8281   -0.8037    0.0000 C    0  0  0  0  0  0  0  0  0  0  0  0
   -0.2831    0.7412    0.0000 O    0  0  0  0  0  0  0  0  0  0  0  0
  2  1  1  0  0  0  0
  3  2  1  0  0  0  0
  4  1  1  0  0  0  0
  5  3  1  0  0  0  0
  5  9  2  0  0  0  0
  6  4  1  0  0  0  0
  7  2  2  0  0  0  0
  8  6  1  0  0  0  0
  9  7  1  0  0  0  0
 10 16  1  0  0  0  0
 11  1  2  0  0  0  0
 12  1  2  0  0  0  0
 13 10  3  0  0  0  0
 14  8  2  0  0  0  0
 15  5  1  0  0  0  0
 16  6  1  0  0  0  0
 17  8  1  0  0  0  0
M  END
> <CdId>
2881

> <Mol Weight>
293.747

> <Formula>
C9H8ClNO4S2

> <Click_ID>
CLK038A06 __ __ 

$$$$
