CLK041F05
 OpenBabel03191401532D

 31 33  0  0  0  0  0  0  0  0999 V2000
    2.2000   -1.1292    0.0000 S   0  0  0  0  0  0  0  0  0  0  0  0
    3.0250   -1.1292    0.0000 C   0  0  0  0  0  0  0  0  0  0  0  0
   -2.7500    1.7292    0.0000 S   0  0  0  0  0  0  0  0  0  0  0  0
    1.3750   -1.1292    0.0000 N   0  0  0  0  0  0  0  0  0  0  0  0
    4.2917   -1.5417    0.0000 N   0  0  0  0  0  0  0  0  0  0  0  0
    3.5083   -0.4583    0.0000 C   0  0  0  0  0  0  0  0  0  0  0  0
    3.5083   -1.7958    0.0000 C   0  0  0  0  0  0  0  0  0  0  0  0
   -1.1000   -1.1292    0.0000 C   0  0  0  0  0  0  0  0  0  0  0  0
   -0.2750   -1.1292    0.0000 N   0  0  0  0  0  0  0  0  0  0  0  0
    4.2917   -0.7167    0.0000 O   0  0  0  0  0  0  0  0  0  0  0  0
   -2.3375    1.0167    0.0000 C   0  0  0  0  0  0  0  0  0  0  0  0
    2.2000   -0.3042    0.0000 O   0  0  0  0  0  0  0  0  0  0  0  0
    2.2000   -1.9542    0.0000 O   0  0  0  0  0  0  0  0  0  0  0  0
    0.9625   -1.8417    0.0000 C   0  0  0  0  0  0  0  0  0  0  0  0
    0.9625   -0.4125    0.0000 C   0  0  0  0  0  0  0  0  0  0  0  0
   -3.1625    3.8750    0.0000 C   0  0  0  0  0  0  0  0  0  0  0  0
   -3.5750    4.5833    0.0000 C   0  0  0  0  0  0  0  0  0  0  0  0
   -3.4667    1.3167    0.0000 O   0  0  0  0  0  0  0  0  0  0  0  0
   -2.0375    2.1417    0.0000 O   0  0  0  0  0  0  0  0  0  0  0  0
   -1.5125   -0.4125    0.0000 C   0  0  0  0  0  0  0  0  0  0  0  0
   -3.1625    2.4458    0.0000 N   0  0  0  0  0  0  0  0  0  0  0  0
    0.1375   -0.4125    0.0000 C   0  0  0  0  0  0  0  0  0  0  0  0
    0.1375   -1.8417    0.0000 C   0  0  0  0  0  0  0  0  0  0  0  0
   -1.5125   -1.8417    0.0000 O   0  0  0  0  0  0  0  0  0  0  0  0
   -1.5125    1.0167    0.0000 C   0  0  0  0  0  0  0  0  0  0  0  0
   -2.7500    0.3000    0.0000 C   0  0  0  0  0  0  0  0  0  0  0  0
   -1.1000    0.3000    0.0000 C   0  0  0  0  0  0  0  0  0  0  0  0
   -2.3375   -0.4125    0.0000 C   0  0  0  0  0  0  0  0  0  0  0  0
   -2.7500    3.1583    0.0000 C   0  0  0  0  0  0  0  0  0  0  0  0
    3.2542    0.3250    0.0000 C   0  0  0  0  0  0  0  0  0  0  0  0
    3.2542   -2.5792    0.0000 C   0  0  0  0  0  0  0  0  0  0  0  0
  2  1  1  0  0  0  0
  3 11  1  0  0  0  0
  4  1  1  0  0  0  0
  5  7  2  0  0  0  0
  6  2  2  0  0  0  0
  7  2  1  0  0  0  0
  8  9  1  0  0  0  0
  9 23  1  0  0  0  0
  9 22  1  0  0  0  0
 10  6  1  0  0  0  0
 10  5  1  0  0  0  0
 11 26  2  0  0  0  0
 11 25  1  0  0  0  0
 12  1  2  0  0  0  0
 13  1  2  0  0  0  0
 14  4  1  0  0  0  0
 15  4  1  0  0  0  0
 16 29  1  0  0  0  0
 17 16  3  0  0  0  0
 18  3  2  0  0  0  0
 19  3  2  0  0  0  0
 20  8  1  0  0  0  0
 21  3  1  0  0  0  0
 22 15  1  0  0  0  0
 23 14  1  0  0  0  0
 24  8  2  0  0  0  0
 25 27  2  0  0  0  0
 26 28  1  0  0  0  0
 27 20  1  0  0  0  0
 28 20  2  0  0  0  0
 29 21  1  0  0  0  0
 30  6  1  0  0  0  0
 31  7  1  0  0  0  0
M  END
> <CdId>
3118

> <Mol Weight>
466.531

> <Formula>
C19H22N4O6S2

> <Click_ID>
CLK041F05 __ __ 

$$$$
