CLK017_B06
 OpenBabel03191401532D

 23 24  0  0  0  0  0  0  0  0999 V2000
    6.1107   -1.2097    0.0000 N   0  0  0  0  0  0  0  0  0  0  0  0
    5.7740   -1.9579    0.0000 C   0  0  0  0  0  0  0  0  0  0  0  0
    5.5038   -0.6527    0.0000 C   0  0  0  0  0  0  0  0  0  0  0  0
    4.7888   -1.0642    0.0000 C   0  0  0  0  0  0  0  0  0  0  0  0
    4.9551   -1.8706    0.0000 S   0  0  0  0  0  0  0  0  0  0  0  0
    4.0323   -0.7233    0.0000 C   0  0  0  0  0  0  0  0  0  0  0  0
    6.1772   -2.6729    0.0000 S   0  0  0  0  0  0  0  0  0  0  0  0
    0.7524   -3.9657    0.0000 C   0  0  0  0  0  0  0  0  0  0  0  0
    0.0790   -4.4438    0.0000 C   0  0  0  0  0  0  0  0  0  0  0  0
    2.7685   -2.5108    0.0000 C   0  0  0  0  0  0  0  0  0  0  0  0
    5.5911    0.1621    0.0000 O   0  0  0  0  0  0  0  0  0  0  0  0
    3.3588   -1.2097    0.0000 C   0  0  0  0  0  0  0  0  0  0  0  0
    3.4337   -2.0245    0.0000 C   0  0  0  0  0  0  0  0  0  0  0  0
    1.9995   -2.1741    0.0000 C   0  0  0  0  0  0  0  0  0  0  0  0
    6.9130   -1.0393    0.0000 C   0  0  0  0  0  0  0  0  0  0  0  0
    1.9330   -1.3386    0.0000 C   0  0  0  0  0  0  0  0  0  0  0  0
    2.5981   -0.8605    0.0000 C   0  0  0  0  0  0  0  0  0  0  0  0
    2.8475   -3.3297    0.0000 O   0  0  0  0  0  0  0  0  0  0  0  0
    1.3386   -2.6605    0.0000 O   0  0  0  0  0  0  0  0  0  0  0  0
    1.4134   -3.4794    0.0000 C   0  0  0  0  0  0  0  0  0  0  0  0
    3.6041   -3.6706    0.0000 C   0  0  0  0  0  0  0  0  0  0  0  0
    7.1749   -0.2619    0.0000 C   0  0  0  0  0  0  0  0  0  0  0  0
    3.6831   -4.4937    0.0000 C   0  0  0  0  0  0  0  0  0  0  0  0
  2  1  1  0  0  0  0
  3  1  1  0  0  0  0
  4  3  1  0  0  0  0
  5  2  1  0  0  0  0
  5  4  1  0  0  0  0
  6  4  2  0  0  0  0
  7  2  2  0  0  0  0
  8 20  1  0  0  0  0
  9  8  3  0  0  0  0
 10 13  2  0  0  0  0
 11  3  2  0  0  0  0
 12  6  1  0  0  0  0
 13 12  1  0  0  0  0
 14 16  2  0  0  0  0
 14 10  1  0  0  0  0
 15  1  1  0  0  0  0
 16 17  1  0  0  0  0
 17 12  2  0  0  0  0
 18 10  1  0  0  0  0
 19 14  1  0  0  0  0
 20 19  1  0  0  0  0
 21 18  1  0  0  0  0
 22 15  1  0  0  0  0
 23 21  1  0  0  0  0
M  END
> <CdId>
1251

> <Mol Weight>
347.452

> <Formula>
C17H17NO3S2

> <Click_ID>
CLK017_B06 __ __ 

$$$$
