CLK009_G04
 OpenBabel03191401532D

 20 20  0  0  0  0  0  0  0  0999 V2000
    5.5946   -0.0069    0.0000 C   0  0  0  0  0  0  0  0  0  0  0  0
    5.5946   -0.8327    0.0000 C   0  0  0  0  0  0  0  0  0  0  0  0
    3.4752    2.0988    0.0000 C   0  0  0  0  0  0  0  0  0  0  0  0
    2.7870    2.5323    0.0000 N   0  0  0  0  0  0  0  0  0  0  0  0
    6.3241    2.0369    0.0000 C   0  0  0  0  0  0  0  0  0  0  0  0
    3.4752    1.2730    0.0000 O   0  0  0  0  0  0  0  0  0  0  0  0
    7.0467    2.4291    0.0000 O   0  0  0  0  0  0  0  0  0  0  0  0
    2.0301    2.0988    0.0000 C   0  0  0  0  0  0  0  0  0  0  0  0
    0.6400    1.2730    0.0000 C   0  0  0  0  0  0  0  0  0  0  0  0
    6.3241    1.2111    0.0000 O   0  0  0  0  0  0  0  0  0  0  0  0
    2.0301    1.3143    0.0000 C   0  0  0  0  0  0  0  0  0  0  0  0
    1.3282    2.5323    0.0000 C   0  0  0  0  0  0  0  0  0  0  0  0
    0.6400    2.0988    0.0000 C   0  0  0  0  0  0  0  0  0  0  0  0
    1.3282    0.8808    0.0000 C   0  0  0  0  0  0  0  0  0  0  0  0
    5.5946    0.8188    0.0000 C   0  0  0  0  0  0  0  0  0  0  0  0
   -0.0826    0.8188    0.0000 O   0  0  0  0  0  0  0  0  0  0  0  0
    4.2115    2.4980    0.0000 C   0  0  0  0  0  0  0  0  0  0  0  0
    5.6222    2.4704    0.0000 C   0  0  0  0  0  0  0  0  0  0  0  0
    4.8997    2.0644    0.0000 C   0  0  0  0  0  0  0  0  0  0  0  0
   -0.0206   -0.0482    0.0000 C   0  0  0  0  0  0  0  0  0  0  0  0
  2  1  3  0  0  0  0
  3 17  1  0  0  0  0
  4  3  1  0  0  0  0
  5 10  1  0  0  0  0
  6  3  2  0  0  0  0
  7  5  2  0  0  0  0
  8  4  1  0  0  0  0
  9 13  2  0  0  0  0
  9 14  1  0  0  0  0
 10 15  1  0  0  0  0
 11  8  1  0  0  0  0
 12  8  2  0  0  0  0
 13 12  1  0  0  0  0
 14 11  2  0  0  0  0
 15  1  1  0  0  0  0
 16  9  1  0  0  0  0
 17 19  1  0  0  0  0
 18  5  1  0  0  0  0
 19 18  1  0  0  0  0
 20 16  1  0  0  0  0
M  END
> <CdId>
659

> <Mol Weight>
275.2998

> <Formula>
C15H17NO4

> <Click_ID>
CLK009_G04 __ __ 

$$$$
