CLK020_F10
 OpenBabel03191401532D

 27 29  0  0  0  0  0  0  0  0999 V2000
    2.4256   -0.7263    0.0000 C    0  0  3  0  0  0  0  0  0  0  0  0
    2.8824   -1.3567    0.0000 C    0  0  0  0  0  0  0  0  0  0  0  0
    1.6354   -0.9776    0.0000 C    0  0  0  0  0  0  0  0  0  0  0  0
    2.4256   -2.0602    0.0000 N    0  0  0  0  0  0  0  0  0  0  0  0
    1.6354   -1.8089    0.0000 C    0  0  0  0  0  0  0  0  0  0  0  0
    6.2261    2.4758    0.0000 N    0  0  0  0  0  0  0  0  0  0  0  0
    3.2661    0.0502    0.0000 C    0  0  0  0  0  0  0  0  0  0  0  0
    4.2254   -0.1279    0.0000 C    0  0  0  0  0  0  0  0  0  0  0  0
    2.1698   -3.4580    0.0000 C    0  0  0  0  0  0  0  0  0  0  0  0
    5.7328    1.8317    0.0000 C    0  0  0  0  0  0  0  0  0  0  0  0
    0.9228   -2.2200    0.0000 C    0  0  0  0  0  0  0  0  0  0  0  0
    1.6354   -4.0883    0.0000 C    0  0  0  0  0  0  0  0  0  0  0  0
    0.9228   -0.5665    0.0000 C    0  0  0  0  0  0  0  0  0  0  0  0
    7.0484    2.3662    0.0000 O    0  0  0  0  0  0  0  0  0  0  0  0
    3.6772   -1.4252    0.0000 O    0  0  0  0  0  0  0  0  0  0  0  0
    5.9200    3.2432    0.0000 O    0  0  0  0  0  0  0  0  0  0  0  0
    4.7278    0.5298    0.0000 C    0  0  0  0  0  0  0  0  0  0  0  0
    2.6997   -2.8367    0.0000 C    0  0  0  0  0  0  0  0  0  0  0  0
    2.0328    0.1461    0.0000 O    0  0  0  0  0  0  0  0  0  0  0  0
    4.4995   -0.7035    0.0000 O    0  0  0  0  0  0  0  0  0  0  0  0
    4.9106    1.9413    0.0000 C    0  0  0  0  0  0  0  0  0  0  0  0
    6.0434    1.0643    0.0000 C    0  0  0  0  0  0  0  0  0  0  0  0
    4.4126    1.2836    0.0000 C    0  0  0  0  0  0  0  0  0  0  0  0
    5.5409    0.4202    0.0000 C    0  0  0  0  0  0  0  0  0  0  0  0
    0.2102   -0.9776    0.0000 C    0  0  0  0  0  0  0  0  0  0  0  0
    0.2102   -1.8089    0.0000 C    0  0  0  0  0  0  0  0  0  0  0  0
   -0.5024   -0.5665    0.0000 Br   0  0  0  0  0  0  0  0  0  0  0  0
  2  1  1  0  0  0  0
  3  1  1  0  0  0  0
  4  2  1  0  0  0  0
  5  3  2  0  0  0  0
  5  4  1  0  0  0  0
  6 10  1  0  0  0  0
  7  1  1  0  0  0  0
  8  7  1  0  0  0  0
  9 18  1  0  0  0  0
 10 22  1  0  0  0  0
 10 21  2  0  0  0  0
 11  5  1  0  0  0  0
 11 26  2  0  0  0  0
 12  9  3  0  0  0  0
 13  3  1  0  0  0  0
 14  6  1  0  0  0  0
 15  2  2  0  0  0  0
 16  6  2  0  0  0  0
 17  8  1  0  0  0  0
 18  4  1  0  0  0  0
 19  1  1  0  0  0  0
 20  8  2  0  0  0  0
 21 23  1  0  0  0  0
 22 24  2  0  0  0  0
 23 17  2  0  0  0  0
 24 17  1  0  0  0  0
 25 13  2  0  0  0  0
 26 25  1  0  0  0  0
 27 25  1  0  0  0  0
M  END
> <CdId>
1535

> <Mol Weight>
429.221

> <Formula>
C19H13BrN2O5

> <Click_ID>
CLK020_F10 __ __ 

$$$$
