CLK043B10
 OpenBabel03191401532D

 26 28  0  0  0  0  0  0  0  0999 V2000
    0.3250    1.2542    0.0000 S   0  0  0  0  0  0  0  0  0  0  0  0
   -3.0875    2.0792    0.0000 C   0  0  0  0  0  0  0  0  0  0  0  0
   -2.6042    1.4125    0.0000 N   0  0  0  0  0  0  0  0  0  0  0  0
   -2.6042    2.7458    0.0000 N   0  0  0  0  0  0  0  0  0  0  0  0
   -1.8167    1.6667    0.0000 C   0  0  0  0  0  0  0  0  0  0  0  0
   -0.3875    1.6667    0.0000 C   0  0  0  0  0  0  0  0  0  0  0  0
    1.0375    0.8417    0.0000 N   0  0  0  0  0  0  0  0  0  0  0  0
   -1.8167    2.4917    0.0000 C   0  0  0  0  0  0  0  0  0  0  0  0
   -1.1042    1.2542    0.0000 C   0  0  0  0  0  0  0  0  0  0  0  0
    1.0375   -2.4583    0.0000 C   0  0  0  0  0  0  0  0  0  0  0  0
    2.4667   -4.1083    0.0000 C   0  0  0  0  0  0  0  0  0  0  0  0
   -0.0875    0.5417    0.0000 O   0  0  0  0  0  0  0  0  0  0  0  0
    0.7375    1.9708    0.0000 O   0  0  0  0  0  0  0  0  0  0  0  0
    3.1833   -4.5208    0.0000 C   0  0  0  0  0  0  0  0  0  0  0  0
    1.0375   -1.6333    0.0000 C   0  0  0  0  0  0  0  0  0  0  0  0
   -3.9125    2.0792    0.0000 O   0  0  0  0  0  0  0  0  0  0  0  0
    0.3250   -2.8708    0.0000 O   0  0  0  0  0  0  0  0  0  0  0  0
   -0.3875    2.4917    0.0000 C   0  0  0  0  0  0  0  0  0  0  0  0
   -1.1042    2.9042    0.0000 C   0  0  0  0  0  0  0  0  0  0  0  0
    1.0375    0.0167    0.0000 C   0  0  0  0  0  0  0  0  0  0  0  0
    1.7542   -2.8708    0.0000 N   0  0  0  0  0  0  0  0  0  0  0  0
    1.7542   -1.2208    0.0000 C   0  0  0  0  0  0  0  0  0  0  0  0
    0.3250   -1.2208    0.0000 C   0  0  0  0  0  0  0  0  0  0  0  0
    0.3250   -0.3958    0.0000 C   0  0  0  0  0  0  0  0  0  0  0  0
    1.7542   -0.3958    0.0000 C   0  0  0  0  0  0  0  0  0  0  0  0
    1.7542   -3.6958    0.0000 C   0  0  0  0  0  0  0  0  0  0  0  0
  2  3  1  0  0  0  0
  2  4  1  0  0  0  0
  3  5  1  0  0  0  0
  4  8  1  0  0  0  0
  5  9  1  0  0  0  0
  6  1  1  0  0  0  0
  7  1  1  0  0  0  0
  8  5  2  0  0  0  0
  8 19  1  0  0  0  0
  9  6  2  0  0  0  0
 10 15  1  0  0  0  0
 11 26  1  0  0  0  0
 12  1  2  0  0  0  0
 13  1  2  0  0  0  0
 14 11  3  0  0  0  0
 15 23  2  0  0  0  0
 16  2  2  0  0  0  0
 17 10  2  0  0  0  0
 18  6  1  0  0  0  0
 19 18  2  0  0  0  0
 20  7  1  0  0  0  0
 21 10  1  0  0  0  0
 22 25  2  0  0  0  0
 22 15  1  0  0  0  0
 23 24  1  0  0  0  0
 24 20  2  0  0  0  0
 25 20  1  0  0  0  0
 26 21  1  0  0  0  0
M  END
> <CdId>
3314

> <Mol Weight>
370.382

> <Formula>
C17H14N4O4S

> <Click_ID>
CLK043B10 __ __ 

$$$$
