CLK049A09
 OpenBabel03191401532D

 17 18  0  0  0  0  0  0  0  0999 V2000
   -1.7667   -0.5333    0.0000 N   0  0  0  0  0  0  0  0  0  0  0  0
   -1.0542   -0.1208    0.0000 C   0  0  0  0  0  0  0  0  0  0  0  0
   -1.7667    1.1167    0.0000 S   0  0  0  0  0  0  0  0  0  0  0  0
   -2.4833   -0.1208    0.0000 C   0  0  0  0  0  0  0  0  0  0  0  0
    1.0917   -0.5333    0.0000 C   0  0  0  0  0  0  0  0  0  0  0  0
    0.3750   -0.1208    0.0000 C   0  0  0  0  0  0  0  0  0  0  0  0
   -1.0542    0.7042    0.0000 C   0  0  0  0  0  0  0  0  0  0  0  0
   -0.3375   -0.5333    0.0000 C   0  0  0  0  0  0  0  0  0  0  0  0
    3.2333   -0.1208    0.0000 C   0  0  0  0  0  0  0  0  0  0  0  0
    3.9500    0.2917    0.0000 C   0  0  0  0  0  0  0  0  0  0  0  0
    1.0917   -1.3583    0.0000 O   0  0  0  0  0  0  0  0  0  0  0  0
   -2.4833    0.7042    0.0000 C   0  0  0  0  0  0  0  0  0  0  0  0
   -3.1958   -0.5333    0.0000 O   0  0  0  0  0  0  0  0  0  0  0  0
    0.3750    0.7042    0.0000 C   0  0  0  0  0  0  0  0  0  0  0  0
   -0.3375    1.1167    0.0000 C   0  0  0  0  0  0  0  0  0  0  0  0
    1.8042   -0.1208    0.0000 N   0  0  0  0  0  0  0  0  0  0  0  0
    2.5208   -0.5333    0.0000 C   0  0  0  0  0  0  0  0  0  0  0  0
  2  1  1  0  0  0  0
  3  7  1  0  0  0  0
  4  1  1  0  0  0  0
  5  6  1  0  0  0  0
  6  8  2  0  0  0  0
  7  2  2  0  0  0  0
  8  2  1  0  0  0  0
  9 17  1  0  0  0  0
 10  9  3  0  0  0  0
 11  5  2  0  0  0  0
 12  4  1  0  0  0  0
 12  3  1  0  0  0  0
 13  4  2  0  0  0  0
 14  6  1  0  0  0  0
 15  7  1  0  0  0  0
 15 14  2  0  0  0  0
 16  5  1  0  0  0  0
 17 16  1  0  0  0  0
M  END
> <CdId>
3785

> <Mol Weight>
246.285

> <Formula>
C12H10N2O2S

> <Click_ID>
CLK049A09 __ __ 

$$$$
