CLK039H10
 OpenBabel03191401532D

 20 21  0  0  0  0  0  0  0  0999 V2000
   -0.2875   -0.4917    0.0000 S   0  0  0  0  0  0  0  0  0  0  0  0
   -0.2875    0.3333    0.0000 N   0  0  0  0  0  0  0  0  0  0  0  0
   -0.2875   -1.3167    0.0000 C   0  0  0  0  0  0  0  0  0  0  0  0
    1.8542   -0.9042    0.0000 N   0  0  0  0  0  0  0  0  0  0  0  0
    0.4250   -1.7292    0.0000 C   0  0  0  0  0  0  0  0  0  0  0  0
    0.5375   -0.4917    0.0000 O   0  0  0  0  0  0  0  0  0  0  0  0
   -1.1125   -0.4917    0.0000 O   0  0  0  0  0  0  0  0  0  0  0  0
    1.1417   -1.3167    0.0000 C   0  0  0  0  0  0  0  0  0  0  0  0
    0.4250    3.2208    0.0000 C   0  0  0  0  0  0  0  0  0  0  0  0
   -0.2875    1.9833    0.0000 N   0  0  0  0  0  0  0  0  0  0  0  0
    0.4250    0.7458    0.0000 C   0  0  0  0  0  0  0  0  0  0  0  0
   -1.0042    0.7458    0.0000 C   0  0  0  0  0  0  0  0  0  0  0  0
    1.1417    3.6333    0.0000 C   0  0  0  0  0  0  0  0  0  0  0  0
   -1.0042    1.5708    0.0000 C   0  0  0  0  0  0  0  0  0  0  0  0
    0.4250    1.5708    0.0000 C   0  0  0  0  0  0  0  0  0  0  0  0
   -0.2875    2.8083    0.0000 C   0  0  0  0  0  0  0  0  0  0  0  0
   -1.0042   -1.7292    0.0000 C   0  0  0  0  0  0  0  0  0  0  0  0
    0.4250   -2.5542    0.0000 C   0  0  0  0  0  0  0  0  0  0  0  0
   -1.0042   -2.5542    0.0000 C   0  0  0  0  0  0  0  0  0  0  0  0
   -0.2875   -2.9667    0.0000 C   0  0  0  0  0  0  0  0  0  0  0  0
  2  1  1  0  0  0  0
  3  1  1  0  0  0  0
  4  8  3  0  0  0  0
  5  3  2  0  0  0  0
  6  1  2  0  0  0  0
  7  1  2  0  0  0  0
  8  5  1  0  0  0  0
  9 16  1  0  0  0  0
 10 14  1  0  0  0  0
 10 15  1  0  0  0  0
 11  2  1  0  0  0  0
 12  2  1  0  0  0  0
 13  9  3  0  0  0  0
 14 12  1  0  0  0  0
 15 11  1  0  0  0  0
 16 10  1  0  0  0  0
 17  3  1  0  0  0  0
 18  5  1  0  0  0  0
 19 17  2  0  0  0  0
 20 18  2  0  0  0  0
 20 19  1  0  0  0  0
M  END
> <CdId>
3000

> <Mol Weight>
289.353

> <Formula>
C14H15N3O2S

> <Click_ID>
CLK039H10 __ __ 

$$$$
