CLK034_G06
 OpenBabel03191401532D

 28 31  0  0  0  0  0  0  0  0999 V2000
   -4.5932    2.5568    0.0000 C   0  0  0  0  0  0  0  0  0  0  0  0
   -3.8603    2.9816    0.0000 N   0  0  0  0  0  0  0  0  0  0  0  0
   -4.6806    1.7323    0.0000 N   0  0  0  0  0  0  0  0  0  0  0  0
   -5.3177    2.8941    0.0000 S   0  0  0  0  0  0  0  0  0  0  0  0
   -3.1565    4.2101    0.0000 C   0  0  0  0  0  0  0  0  0  0  0  0
   -5.4844    1.5824    0.0000 C   0  0  0  0  0  0  0  0  0  0  0  0
   -3.8686    3.7978    0.0000 C   0  0  0  0  0  0  0  0  0  0  0  0
   -3.1440    5.0388    0.0000 C   0  0  0  0  0  0  0  0  0  0  0  0
   -5.8924    2.2987    0.0000 C   0  0  0  0  0  0  0  0  0  0  0  0
   -2.4444    3.8061    0.0000 O   0  0  0  0  0  0  0  0  0  0  0  0
   -2.4319    5.4469    0.0000 C   0  0  0  0  0  0  0  0  0  0  0  0
   -1.7115    5.0263    0.0000 C   0  0  0  0  0  0  0  0  0  0  0  0
   -1.7240    4.2101    0.0000 C   0  0  0  0  0  0  0  0  0  0  0  0
   -4.2559    0.3581    0.0000 C   0  0  0  0  0  0  0  0  0  0  0  0
   -4.4433   -0.4539    0.0000 C   0  0  0  0  0  0  0  0  0  0  0  0
   -5.9174    0.8828    0.0000 C   0  0  0  0  0  0  0  0  0  0  0  0
   -4.5807    4.2143    0.0000 O   0  0  0  0  0  0  0  0  0  0  0  0
   -2.4319    6.2756    0.0000 O   0  0  0  0  0  0  0  0  0  0  0  0
   -4.0685    1.1618    0.0000 C   0  0  0  0  0  0  0  0  0  0  0  0
   -6.7004    2.3195    0.0000 C   0  0  0  0  0  0  0  0  0  0  0  0
   -5.5176    0.1457    0.0000 O   0  0  0  0  0  0  0  0  0  0  0  0
   -0.9952    5.4386    0.0000 C   0  0  0  0  0  0  0  0  0  0  0  0
   -1.0077    3.7978    0.0000 C   0  0  0  0  0  0  0  0  0  0  0  0
   -7.1376    1.6199    0.0000 C   0  0  0  0  0  0  0  0  0  0  0  0
   -6.7253    0.8870    0.0000 C   0  0  0  0  0  0  0  0  0  0  0  0
   -5.9549   -0.5539    0.0000 C   0  0  0  0  0  0  0  0  0  0  0  0
   -0.2831    5.0263    0.0000 C   0  0  0  0  0  0  0  0  0  0  0  0
   -0.2873    4.2018    0.0000 C   0  0  0  0  0  0  0  0  0  0  0  0
  2  1  2  0  0  0  0
  3  1  1  0  0  0  0
  4  1  1  0  0  0  0
  5  7  1  0  0  0  0
  6  3  1  0  0  0  0
  7  2  1  0  0  0  0
  8  5  2  0  0  0  0
  9  4  1  0  0  0  0
  9  6  2  0  0  0  0
 10  5  1  0  0  0  0
 11  8  1  0  0  0  0
 12 13  2  0  0  0  0
 12 11  1  0  0  0  0
 13 10  1  0  0  0  0
 14 19  1  0  0  0  0
 15 14  3  0  0  0  0
 16  6  1  0  0  0  0
 17  7  2  0  0  0  0
 18 11  2  0  0  0  0
 19  3  1  0  0  0  0
 20  9  1  0  0  0  0
 21 16  1  0  0  0  0
 22 12  1  0  0  0  0
 22 27  2  0  0  0  0
 23 13  1  0  0  0  0
 24 20  2  0  0  0  0
 25 16  2  0  0  0  0
 25 24  1  0  0  0  0
 26 21  1  0  0  0  0
 27 28  1  0  0  0  0
 28 23  2  0  0  0  0
M  END
> <CdId>
2630

> <Mol Weight>
390.412

> <Formula>
C21H14N2O4S

> <Click_ID>
CLK034_G06 __ __ 

$$$$
