CLK024_C05
 OpenBabel03191401532D

 32 35  0  0  0  0  0  0  0  0999 V2000
   -2.4301    0.0172    0.0000 N   0  0  0  0  0  0  0  0  0  0  0  0
   -2.4301   -0.7975    0.0000 C   0  0  0  0  0  0  0  0  0  0  0  0
   -1.1687   -0.3815    0.0000 C   0  0  0  0  0  0  0  0  0  0  0  0
   -1.6533    0.2853    0.0000 C   0  0  0  0  0  0  0  0  0  0  0  0
   -1.6464   -1.0483    0.0000 S   0  0  0  0  0  0  0  0  0  0  0  0
   -0.3438   -0.3747    0.0000 C   0  0  0  0  0  0  0  0  0  0  0  0
    3.7466    2.5332    0.0000 N   0  3  0  0  0  0  0  0  0  0  0  0
    0.0756   -1.0862    0.0000 C   0  0  0  0  0  0  0  0  0  0  0  0
   -0.3368   -1.8045    0.0000 C   0  0  0  0  0  0  0  0  0  0  0  0
   -3.8394    0.1615    0.0000 C   0  0  0  0  0  0  0  0  0  0  0  0
    3.3478    1.8080    0.0000 C   0  0  0  0  0  0  0  0  0  0  0  0
   -4.5749   -0.2200    0.0000 C   0  0  0  0  0  0  0  0  0  0  0  0
    0.8971   -1.0827    0.0000 C   0  0  0  0  0  0  0  0  0  0  0  0
    4.5715    2.5367    0.0000 O   0  5  0  0  0  0  0  0  0  0  0  0
   -3.0900   -1.2821    0.0000 O   0  0  0  0  0  0  0  0  0  0  0  0
    3.3341    3.2447    0.0000 O   0  0  0  0  0  0  0  0  0  0  0  0
   -1.4059    1.0656    0.0000 O   0  0  0  0  0  0  0  0  0  0  0  0
   -3.0935    0.4984    0.0000 C   0  0  0  0  0  0  0  0  0  0  0  0
    1.3027   -0.3609    0.0000 O   0  0  0  0  0  0  0  0  0  0  0  0
    0.0790   -2.5195    0.0000 C   0  0  0  0  0  0  0  0  0  0  0  0
    1.3164   -1.7942    0.0000 C   0  0  0  0  0  0  0  0  0  0  0  0
    0.9040   -2.5195    0.0000 C   0  0  0  0  0  0  0  0  0  0  0  0
    2.5126    1.7977    0.0000 C   0  0  0  0  0  0  0  0  0  0  0  0
    3.7741    1.0896    0.0000 C   0  0  0  0  0  0  0  0  0  0  0  0
    2.1345   -0.3506    0.0000 C   0  0  0  0  0  0  0  0  0  0  0  0
    2.5367    0.3644    0.0000 C   0  0  0  0  0  0  0  0  0  0  0  0
    2.1139    1.0724    0.0000 C   0  0  0  0  0  0  0  0  0  0  0  0
    3.3616    0.3747    0.0000 C   0  0  0  0  0  0  0  0  0  0  0  0
   -1.1687   -1.8114    0.0000 C   0  0  0  0  0  0  0  0  0  0  0  0
   -0.3334   -3.2310    0.0000 C   0  0  0  0  0  0  0  0  0  0  0  0
   -1.5708   -2.5195    0.0000 C   0  0  0  0  0  0  0  0  0  0  0  0
   -1.1549   -3.2413    0.0000 C   0  0  0  0  0  0  0  0  0  0  0  0
  2  1  1  0  0  0  0
  3  4  1  0  0  0  0
  4  1  1  0  0  0  0
  5  2  1  0  0  0  0
  5  3  1  0  0  0  0
  6  3  2  0  0  0  0
  7 11  1  0  0  0  0
  8  6  1  0  0  0  0
  9  8  2  0  0  0  0
 10 18  1  0  0  0  0
 11 24  2  0  0  0  0
 12 10  3  0  0  0  0
 13  8  1  0  0  0  0
 14  7  1  0  0  0  0
 15  2  2  0  0  0  0
 16  7  2  0  0  0  0
 17  4  2  0  0  0  0
 18  1  1  0  0  0  0
 19 13  1  0  0  0  0
 20  9  1  0  0  0  0
 20 22  2  0  0  0  0
 21 13  2  0  0  0  0
 22 21  1  0  0  0  0
 23 27  2  0  0  0  0
 23 11  1  0  0  0  0
 24 28  1  0  0  0  0
 25 19  1  0  0  0  0
 26 25  1  0  0  0  0
 27 26  1  0  0  0  0
 28 26  2  0  0  0  0
 29  9  1  0  0  0  0
 30 20  1  0  0  0  0
 31 29  2  0  0  0  0
 32 31  1  0  0  0  0
 32 30  2  0  0  0  0
M  END
> <CdId>
1800

> <Mol Weight>
444.459

> <Formula>
C24H16N2O5S

> <Click_ID>
CLK024_C05 __ __ 

$$$$
