CLK044D03
 OpenBabel03191401532D

 22 24  0  0  0  0  0  0  0  0999 V2000
    1.6000    0.0875    0.0000 C   0  0  0  0  0  0  0  0  0  0  0  0
    1.1167    0.7542    0.0000 N   0  0  0  0  0  0  0  0  0  0  0  0
    1.1167   -0.5792    0.0000 N   0  0  0  0  0  0  0  0  0  0  0  0
    0.3292    0.5000    0.0000 C   0  0  0  0  0  0  0  0  0  0  0  0
    0.3292   -0.3250    0.0000 C   0  0  0  0  0  0  0  0  0  0  0  0
   -1.8125    0.9125    0.0000 C   0  0  0  0  0  0  0  0  0  0  0  0
   -0.3833    0.9125    0.0000 C   0  0  0  0  0  0  0  0  0  0  0  0
   -1.1000    0.5000    0.0000 C   0  0  0  0  0  0  0  0  0  0  0  0
   -2.5292    2.9750    0.0000 C   0  0  0  0  0  0  0  0  0  0  0  0
   -0.3833   -0.7375    0.0000 C   0  0  0  0  0  0  0  0  0  0  0  0
   -2.5292    3.8000    0.0000 C   0  0  0  0  0  0  0  0  0  0  0  0
    1.3708   -1.3667    0.0000 C   0  0  0  0  0  0  0  0  0  0  0  0
   -1.1000   -0.3250    0.0000 C   0  0  0  0  0  0  0  0  0  0  0  0
   -2.5292    0.5000    0.0000 O   0  0  0  0  0  0  0  0  0  0  0  0
   -1.8125    1.7375    0.0000 N   0  0  0  0  0  0  0  0  0  0  0  0
    2.4250    0.0875    0.0000 C   0  0  0  0  0  0  0  0  0  0  0  0
   -2.5292    2.1500    0.0000 C   0  0  0  0  0  0  0  0  0  0  0  0
    0.8167   -1.9792    0.0000 C   0  0  0  0  0  0  0  0  0  0  0  0
    2.1750   -1.5375    0.0000 C   0  0  0  0  0  0  0  0  0  0  0  0
    2.4333   -2.3208    0.0000 C   0  0  0  0  0  0  0  0  0  0  0  0
    1.0708   -2.7625    0.0000 C   0  0  0  0  0  0  0  0  0  0  0  0
    1.8792   -2.9333    0.0000 C   0  0  0  0  0  0  0  0  0  0  0  0
  2  1  2  0  0  0  0
  3  1  1  0  0  0  0
  4  2  1  0  0  0  0
  5  3  1  0  0  0  0
  5  4  2  0  0  0  0
  6  8  1  0  0  0  0
  7  4  1  0  0  0  0
  8  7  2  0  0  0  0
  9 17  1  0  0  0  0
 10  5  1  0  0  0  0
 11  9  3  0  0  0  0
 12  3  1  0  0  0  0
 13 10  2  0  0  0  0
 13  8  1  0  0  0  0
 14  6  2  0  0  0  0
 15  6  1  0  0  0  0
 16  1  1  0  0  0  0
 17 15  1  0  0  0  0
 18 12  1  0  0  0  0
 19 12  2  0  0  0  0
 20 19  1  0  0  0  0
 21 18  2  0  0  0  0
 22 20  2  0  0  0  0
 22 21  1  0  0  0  0
M  END
> <CdId>
3340

> <Mol Weight>
289.3312

> <Formula>
C18H15N3O

> <Click_ID>
CLK044D03 __ __ 

$$$$
