CLK049D07
 OpenBabel03191401532D

 21 22  0  0  0  0  0  0  0  0999 V2000
    0.2708   -0.3875    0.0000 C   0  0  0  0  0  0  0  0  0  0  0  0
    0.0167    0.3958    0.0000 C   0  0  0  0  0  0  0  0  0  0  0  0
   -0.2125   -1.0542    0.0000 O   0  0  0  0  0  0  0  0  0  0  0  0
    1.0583   -0.6417    0.0000 C   0  0  0  0  0  0  0  0  0  0  0  0
    0.5708    1.0083    0.0000 N   0  0  0  0  0  0  0  0  0  0  0  0
    0.2708   -1.7250    0.0000 C   0  0  0  0  0  0  0  0  0  0  0  0
   -1.5542    2.9208    0.0000 C   0  0  0  0  0  0  0  0  0  0  0  0
   -2.3625    3.0917    0.0000 C   0  0  0  0  0  0  0  0  0  0  0  0
    1.0583   -1.4667    0.0000 C   0  0  0  0  0  0  0  0  0  0  0  0
    0.3125   -3.9042    0.0000 C   0  0  0  0  0  0  0  0  0  0  0  0
   -0.7917    0.5667    0.0000 O   0  0  0  0  0  0  0  0  0  0  0  0
    0.5708   -3.1208    0.0000 S   0  0  0  0  0  0  0  0  0  0  0  0
    0.3125    1.7917    0.0000 C   0  0  0  0  0  0  0  0  0  0  0  0
   -0.7458    2.7500    0.0000 C   0  0  0  0  0  0  0  0  0  0  0  0
    0.0167   -2.5083    0.0000 C   0  0  0  0  0  0  0  0  0  0  0  0
   -0.4917    1.9667    0.0000 C   0  0  0  0  0  0  0  0  0  0  0  0
    0.8667   -4.5208    0.0000 F   0  0  0  0  0  0  0  0  0  0  0  0
   -0.4917   -4.0792    0.0000 F   0  0  0  0  0  0  0  0  0  0  0  0
    0.6125    3.1917    0.0000 C   0  0  0  0  0  0  0  0  0  0  0  0
    0.8667    2.4083    0.0000 C   0  0  0  0  0  0  0  0  0  0  0  0
   -0.1958    3.3625    0.0000 C   0  0  0  0  0  0  0  0  0  0  0  0
  2  1  1  0  0  0  0
  3  1  1  0  0  0  0
  4  1  2  0  0  0  0
  5  2  1  0  0  0  0
  6  3  1  0  0  0  0
  7 14  1  0  0  0  0
  8  7  3  0  0  0  0
  9  4  1  0  0  0  0
  9  6  2  0  0  0  0
 10 12  1  0  0  0  0
 11  2  2  0  0  0  0
 12 15  1  0  0  0  0
 13  5  1  0  0  0  0
 14 16  1  0  0  0  0
 15  6  1  0  0  0  0
 16 13  2  0  0  0  0
 17 10  1  0  0  0  0
 18 10  1  0  0  0  0
 19 20  2  0  0  0  0
 20 13  1  0  0  0  0
 21 14  2  0  0  0  0
 21 19  1  0  0  0  0
M  END
> <CdId>
3772

> <Mol Weight>
307.315

> <Formula>
C15H11F2NO2S

> <Click_ID>
CLK049D07 __ __ 

$$$$
