CLK004_G03
 OpenBabel03191401532D

 15 16  0  0  0  0  0  0  0  0999 V2000
   -0.7898    0.2980    0.0000 C   0  0  0  0  0  0  0  0  0  0  0  0
   -0.7898   -0.5405    0.0000 C   0  0  0  0  0  0  0  0  0  0  0  0
   -0.1039    0.6998    0.0000 C   0  0  0  0  0  0  0  0  0  0  0  0
   -1.5103    0.6998    0.0000 C   0  0  0  0  0  0  0  0  0  0  0  0
   -0.1039   -0.9423    0.0000 N   0  0  0  0  0  0  0  0  0  0  0  0
   -1.5103   -0.9423    0.0000 C   0  0  0  0  0  0  0  0  0  0  0  0
    0.5959    0.2632    0.0000 N   0  0  0  0  0  0  0  0  0  0  0  0
   -0.1039    1.5035    0.0000 C   0  0  0  0  0  0  0  0  0  0  0  0
   -2.2447    0.2632    0.0000 C   0  0  0  0  0  0  0  0  0  0  0  0
    0.5959   -0.5405    0.0000 C   0  0  0  0  0  0  0  0  0  0  0  0
   -2.2447   -0.5405    0.0000 C   0  0  0  0  0  0  0  0  0  0  0  0
    1.3719   -0.9076    0.0000 S   0  0  0  0  0  0  0  0  0  0  0  0
    2.0438   -0.4641    0.0000 C   0  0  0  0  0  0  0  0  0  0  0  0
    2.0438    0.3603    0.0000 C   0  0  0  0  0  0  0  0  0  0  0  0
    2.7575    0.8176    0.0000 C   0  0  0  0  0  0  0  0  0  0  0  0
  1  2  2  0  0  0  0
  1  3  1  0  0  0  0
  1  4  1  0  0  0  0
  2  5  1  0  0  0  0
  2  6  1  0  0  0  0
  3  7  2  0  0  0  0
  3  8  1  0  0  0  0
  4  9  1  0  0  0  0
  5 10  2  0  0  0  0
  6 11  1  0  0  0  0
  7 10  1  0  0  0  0
  9 11  1  0  0  0  0
 10 12  1  0  0  0  0
 12 13  1  0  0  0  0
 13 14  1  0  0  0  0
 14 15  3  0  0  0  0
M  END
> <CdId>
302

> <Mol Weight>
218.318

> <Formula>
C12H14N2S

> <Click_ID>
CLK004_G03 __ __ 

$$$$
