CLK011_B02
 OpenBabel03191401532D

 32 34  0  0  0  0  0  0  0  0999 V2000
    6.5250   -4.4542    0.0000 N    0  0  0  0  0  0  0  0  0  0  0  0
    5.8625   -4.9417    0.0000 C    0  0  0  0  0  0  0  0  0  0  0  0
    7.1917   -4.9417    0.0000 C    0  0  0  0  0  0  0  0  0  0  0  0
    6.9375   -5.7292    0.0000 C    0  0  0  0  0  0  0  0  0  0  0  0
    6.1125   -5.7292    0.0000 S    0  0  0  0  0  0  0  0  0  0  0  0
    5.3500   -2.5250    0.0000 C    0  0  0  0  0  0  0  0  0  0  0  0
    6.4042   -8.6542    0.0000 C    0  0  0  0  0  0  0  0  0  0  0  0
    7.4250   -6.3917    0.0000 C    0  0  0  0  0  0  0  0  0  0  0  0
    5.9625   -1.9667    0.0000 C    0  0  0  0  0  0  0  0  0  0  0  0
    5.9250   -7.9875    0.0000 C    0  0  0  0  0  0  0  0  0  0  0  0
    7.2292   -8.5750    0.0000 C    0  0  0  0  0  0  0  0  0  0  0  0
    7.0875   -7.1500    0.0000 C    0  0  0  0  0  0  0  0  0  0  0  0
    5.0792   -4.6875    0.0000 N    0  0  0  0  0  0  0  0  0  0  0  0
    4.9042  -10.2417    0.0000 C    0  0  0  0  0  0  0  0  0  0  0  0
    4.5625  -11.0000    0.0000 C    0  0  0  0  0  0  0  0  0  0  0  0
    4.5625   -2.2667    0.0000 C    0  0  0  0  0  0  0  0  0  0  0  0
    5.5167   -3.3292    0.0000 C    0  0  0  0  0  0  0  0  0  0  0  0
    6.2667   -7.2292    0.0000 C    0  0  0  0  0  0  0  0  0  0  0  0
    7.5667   -7.8167    0.0000 C    0  0  0  0  0  0  0  0  0  0  0  0
    7.9792   -4.6875    0.0000 O    0  0  0  0  0  0  0  0  0  0  0  0
    4.9042   -3.8792    0.0000 C    0  0  0  0  0  0  0  0  0  0  0  0
    5.7917   -1.1625    0.0000 O    0  0  0  0  0  0  0  0  0  0  0  0
    3.9500   -2.8250    0.0000 C    0  0  0  0  0  0  0  0  0  0  0  0
    5.1000   -8.0667    0.0000 Cl   0  0  0  0  0  0  0  0  0  0  0  0
    6.0667   -9.4125    0.0000 O    0  0  0  0  0  0  0  0  0  0  0  0
    6.7500   -2.2250    0.0000 O    0  0  0  0  0  0  0  0  0  0  0  0
    4.1250   -3.6292    0.0000 C    0  0  0  0  0  0  0  0  0  0  0  0
    4.3917   -1.4625    0.0000 Cl   0  0  0  0  0  0  0  0  0  0  0  0
    7.7125   -9.2417    0.0000 O    0  0  0  0  0  0  0  0  0  0  0  0
    5.2417   -9.4917    0.0000 C    0  0  0  0  0  0  0  0  0  0  0  0
    7.3750  -10.0000    0.0000 C    0  0  0  0  0  0  0  0  0  0  0  0
    7.8542  -10.6667    0.0000 C    0  0  0  0  0  0  0  0  0  0  0  0
  2  1  2  0  0  0  0
  3  1  1  0  0  0  0
  4  3  1  0  0  0  0
  5  2  1  0  0  0  0
  5  4  1  0  0  0  0
  6 17  1  0  0  0  0
  6 16  2  0  0  0  0
  7 11  2  0  0  0  0
  7 10  1  0  0  0  0
  8  4  2  0  0  0  0
  9  6  1  0  0  0  0
 10 18  2  0  0  0  0
 11 19  1  0  0  0  0
 12  8  1  0  0  0  0
 13  2  1  0  0  0  0
 14 30  1  0  0  0  0
 15 14  3  0  0  0  0
 16 23  1  0  0  0  0
 17 21  2  0  0  0  0
 18 12  1  0  0  0  0
 19 12  2  0  0  0  0
 20  3  2  0  0  0  0
 21 13  1  0  0  0  0
 22  9  2  0  0  0  0
 23 27  2  0  0  0  0
 24 10  1  0  0  0  0
 25  7  1  0  0  0  0
 26  9  1  0  0  0  0
 27 21  1  0  0  0  0
 28 16  1  0  0  0  0
 29 11  1  0  0  0  0
 30 25  1  0  0  0  0
 31 29  1  0  0  0  0
 32 31  1  0  0  0  0
M  END
> <CdId>
767

> <Mol Weight>
491.344

> <Formula>
C22H16Cl2N2O5S

> <Click_ID>
CLK011_B02 __ __ 

$$$$
