CLK003_E10
 OpenBabel03191401532D

 24 27  0  0  0  0  0  0  0  0999 V2000
    0.7463   -0.5439    0.0000 N   0  0  0  0  0  0  0  0  0  0  0  0
    1.2712   -1.1700    0.0000 C   0  0  0  0  0  0  0  0  0  0  0  0
    1.1795    0.1486    0.0000 C   0  0  0  0  0  0  0  0  0  0  0  0
   -0.0601   -0.7115    0.0000 C   0  0  0  0  0  0  0  0  0  0  0  0
    2.0301   -0.8601    0.0000 C   0  0  0  0  0  0  0  0  0  0  0  0
    1.1795   -1.9763    0.0000 C   0  0  0  0  0  0  0  0  0  0  0  0
    1.9921   -0.0506    0.0000 N   0  0  0  0  0  0  0  0  0  0  0  0
    0.8727    0.9233    0.0000 S   0  0  0  0  0  0  0  0  0  0  0  0
   -0.6103   -0.0696    0.0000 C   0  0  0  0  0  0  0  0  0  0  0  0
   -0.3352   -1.4830    0.0000 O   0  0  0  0  0  0  0  0  0  0  0  0
    2.6910   -1.3534    0.0000 C   0  0  0  0  0  0  0  0  0  0  0  0
    1.8467   -2.4696    0.0000 C   0  0  0  0  0  0  0  0  0  0  0  0
    0.0474    1.0498    0.0000 C   0  0  0  0  0  0  0  0  0  0  0  0
   -1.4008   -0.2530    0.0000 C   0  0  0  0  0  0  0  0  0  0  0  0
   -0.3541    0.7178    0.0000 C   0  0  0  0  0  0  0  0  0  0  0  0
    2.5803   -2.1787    0.0000 C   0  0  0  0  0  0  0  0  0  0  0  0
   -0.2624    1.7993    0.0000 C   0  0  0  0  0  0  0  0  0  0  0  0
   -1.9700    0.3510    0.0000 C   0  0  0  0  0  0  0  0  0  0  0  0
   -0.9297    1.3249    0.0000 C   0  0  0  0  0  0  0  0  0  0  0  0
   -0.5850    2.5739    0.0000 C   0  0  0  0  0  0  0  0  0  0  0  0
   -1.7107    1.1415    0.0000 C   0  0  0  0  0  0  0  0  0  0  0  0
   -2.7763    0.3510    0.0000 O   0  0  0  0  0  0  0  0  0  0  0  0
   -2.3969    1.6000    0.0000 O   0  0  0  0  0  0  0  0  0  0  0  0
   -3.0388    1.1225    0.0000 C   0  0  0  0  0  0  0  0  0  0  0  0
  1  2  1  0  0  0  0
  1  3  1  0  0  0  0
  1  4  1  0  0  0  0
  2  5  2  0  0  0  0
  2  6  1  0  0  0  0
  3  7  2  0  0  0  0
  3  8  1  0  0  0  0
  4  9  1  0  0  0  0
  4 10  2  0  0  0  0
  5 11  1  0  0  0  0
  5  7  1  0  0  0  0
  6 12  2  0  0  0  0
  8 13  1  0  0  0  0
  9 14  2  0  0  0  0
  9 15  1  0  0  0  0
 11 16  2  0  0  0  0
 12 16  1  0  0  0  0
 13 17  1  0  0  0  0
 14 18  1  0  0  0  0
 15 19  2  0  0  0  0
 17 20  3  0  0  0  0
 18 21  2  0  0  0  0
 18 22  1  0  0  0  0
 19 21  1  0  0  0  0
 21 23  1  0  0  0  0
 22 24  1  0  0  0  0
 23 24  1  0  0  0  0
M  END
> <CdId>
209

> <Mol Weight>
336.364

> <Formula>
C18H12N2O3S

> <Click_ID>
CLK003_E10 __ __ 

$$$$
