CLK017_E11
 OpenBabel03191401532D

 27 29  0  0  0  0  0  0  0  0999 V2000
    5.6142   -3.6489    0.0000 N    0  0  0  0  0  0  0  0  0  0  0  0
    4.9052   -4.0593    0.0000 C    0  0  0  0  0  0  0  0  0  0  0  0
    5.4525   -2.8403    0.0000 C    0  0  0  0  0  0  0  0  0  0  0  0
    4.6316   -2.7491    0.0000 C    0  0  0  0  0  0  0  0  0  0  0  0
    4.2957   -3.4996    0.0000 S    0  0  0  0  0  0  0  0  0  0  0  0
    4.2211   -2.0318    0.0000 C    0  0  0  0  0  0  0  0  0  0  0  0
    6.4559   -4.8057    0.0000 C    0  0  0  0  0  0  0  0  0  0  0  0
    6.4477   -5.6267    0.0000 C    0  0  0  0  0  0  0  0  0  0  0  0
    2.1562   -2.7491    0.0000 C    0  0  0  0  0  0  0  0  0  0  0  0
    4.8140   -4.8803    0.0000 O    0  0  0  0  0  0  0  0  0  0  0  0
    6.0081   -2.2308    0.0000 O    0  0  0  0  0  0  0  0  0  0  0  0
    1.7415   -2.0318    0.0000 C    0  0  0  0  0  0  0  0  0  0  0  0
    3.3959   -2.0318    0.0000 C    0  0  0  0  0  0  0  0  0  0  0  0
    6.3730   -3.9847    0.0000 C    0  0  0  0  0  0  0  0  0  0  0  0
    2.9771   -2.7491    0.0000 C    0  0  0  0  0  0  0  0  0  0  0  0
    0.9205   -2.0318    0.0000 O    0  0  0  0  0  0  0  0  0  0  0  0
    2.1562   -1.3186    0.0000 C    0  0  0  0  0  0  0  0  0  0  0  0
    1.7415   -3.4581    0.0000 Cl   0  0  0  0  0  0  0  0  0  0  0  0
    2.9771   -1.3186    0.0000 C    0  0  0  0  0  0  0  0  0  0  0  0
    0.5100   -2.7491    0.0000 C    0  0  0  0  0  0  0  0  0  0  0  0
   -1.9488   -2.7408    0.0000 C    0  0  0  0  0  0  0  0  0  0  0  0
   -0.3110   -2.7491    0.0000 C    0  0  0  0  0  0  0  0  0  0  0  0
   -2.7698   -2.7408    0.0000 Cl   0  0  0  0  0  0  0  0  0  0  0  0
   -1.5383   -2.0318    0.0000 C    0  0  0  0  0  0  0  0  0  0  0  0
   -1.5383   -3.4581    0.0000 C    0  0  0  0  0  0  0  0  0  0  0  0
   -0.7173   -3.4623    0.0000 C    0  0  0  0  0  0  0  0  0  0  0  0
   -0.7215   -2.0318    0.0000 C    0  0  0  0  0  0  0  0  0  0  0  0
  2  1  1  0  0  0  0
  3  1  1  0  0  0  0
  4  3  1  0  0  0  0
  5  2  1  0  0  0  0
  5  4  1  0  0  0  0
  6  4  2  0  0  0  0
  7 14  1  0  0  0  0
  8  7  3  0  0  0  0
  9 15  2  0  0  0  0
  9 12  1  0  0  0  0
 10  2  2  0  0  0  0
 11  3  2  0  0  0  0
 12 17  2  0  0  0  0
 13  6  1  0  0  0  0
 14  1  1  0  0  0  0
 15 13  1  0  0  0  0
 16 12  1  0  0  0  0
 17 19  1  0  0  0  0
 18  9  1  0  0  0  0
 19 13  2  0  0  0  0
 20 16  1  0  0  0  0
 21 24  2  0  0  0  0
 22 20  1  0  0  0  0
 23 21  1  0  0  0  0
 24 27  1  0  0  0  0
 25 26  2  0  0  0  0
 25 21  1  0  0  0  0
 26 22  1  0  0  0  0
 27 22  2  0  0  0  0
M  END
> <CdId>
1286

> <Mol Weight>
418.293

> <Formula>
C20H13Cl2NO3S

> <Click_ID>
CLK017_E11 __ __ 

$$$$
