CLK001_F11
 OpenBabel03191401532D

 33 36  0  0  0  0  0  0  0  0999 V2000
    0.3230    0.1672    0.0000 C   0  0  3  0  0  0  0  0  0  0  0  0
    1.0487   -0.2356    0.0000 C   0  0  0  0  0  0  0  0  0  0  0  0
    0.3192    0.9917    0.0000 C   0  0  0  0  0  0  0  0  0  0  0  0
   -0.3838   -0.2508    0.0000 C   0  0  0  0  0  0  0  0  0  0  0  0
    1.7555    0.1900    0.0000 C   0  0  0  0  0  0  0  0  0  0  0  0
    1.0526   -1.0487    0.0000 C   0  0  0  0  0  0  0  0  0  0  0  0
    1.0259    1.4097    0.0000 C   0  0  0  0  0  0  0  0  0  0  0  0
   -0.4066    1.3945    0.0000 C   0  0  0  0  0  0  0  0  0  0  0  0
   -1.1095    0.1520    0.0000 C   0  0  0  0  0  0  0  0  0  0  0  0
   -0.3723   -1.0754    0.0000 C   0  0  0  0  0  0  0  0  0  0  0  0
    1.7403    1.0069    0.0000 N   0  0  0  0  0  0  0  0  0  0  0  0
    2.4698   -0.2090    0.0000 C   0  0  0  0  0  0  0  0  0  0  0  0
    1.7783   -1.4629    0.0000 C   0  0  0  0  0  0  0  0  0  0  0  0
    0.3382   -1.4857    0.0000 O   0  0  0  0  0  0  0  0  0  0  0  0
    1.0107    2.2456    0.0000 C   0  0  0  0  0  0  0  0  0  0  0  0
   -0.4104    2.2152    0.0000 C   0  0  0  0  0  0  0  0  0  0  0  0
   -1.1247    0.9765    0.0000 O   0  0  0  0  0  0  0  0  0  0  0  0
   -1.8163   -0.2774    0.0000 C   0  0  0  0  0  0  0  0  0  0  0  0
   -1.0830   -1.5009    0.0000 C   0  0  0  0  0  0  0  0  0  0  0  0
    2.4546    1.4362    0.0000 C   0  0  0  0  0  0  0  0  0  0  0  0
    2.4850   -1.0449    0.0000 C   0  0  0  0  0  0  0  0  0  0  0  0
    0.2888    2.6370    0.0000 C   0  0  0  0  0  0  0  0  0  0  0  0
   -1.8048   -1.1019    0.0000 C   0  0  0  0  0  0  0  0  0  0  0  0
   -2.5420    0.1254    0.0000 O   0  0  0  0  0  0  0  0  0  0  0  0
    3.1728    1.0335    0.0000 C   0  0  0  0  0  0  0  0  0  0  0  0
   -2.5155   -1.5275    0.0000 O   0  0  0  0  0  0  0  0  0  0  0  0
   -2.5572    0.9537    0.0000 C   0  0  0  0  0  0  0  0  0  0  0  0
    3.8757    1.4590    0.0000 O   0  0  0  0  0  0  0  0  0  0  0  0
    3.1880    0.2052    0.0000 O   0  0  0  0  0  0  0  0  0  0  0  0
   -2.5002   -2.3558    0.0000 C   0  0  0  0  0  0  0  0  0  0  0  0
   -3.2753    1.3641    0.0000 C   0  0  0  0  0  0  0  0  0  0  0  0
   -3.2184   -2.7776    0.0000 C   0  0  0  0  0  0  0  0  0  0  0  0
   -3.2032   -3.6098    0.0000 C   0  0  0  0  0  0  0  0  0  0  0  0
  1  2  1  0  0  0  0
  1  3  1  0  0  0  0
  1  4  1  0  0  0  0
  2  5  2  0  0  0  0
  2  6  1  0  0  0  0
  3  7  2  0  0  0  0
  3  8  1  0  0  0  0
  4  9  1  0  0  0  0
  4 10  2  0  0  0  0
  5 11  1  0  0  0  0
  5 12  1  0  0  0  0
  6 13  1  0  0  0  0
  6 14  2  0  0  0  0
  7 15  1  0  0  0  0
  7 11  1  0  0  0  0
  8 16  1  0  0  0  0
  8 17  2  0  0  0  0
  9 18  2  0  0  0  0
 10 19  1  0  0  0  0
 11 20  1  0  0  0  0
 12 21  1  0  0  0  0
 13 21  1  0  0  0  0
 15 22  1  0  0  0  0
 16 22  1  0  0  0  0
 18 23  1  0  0  0  0
 18 24  1  0  0  0  0
 19 23  2  0  0  0  0
 20 25  1  0  0  0  0
 23 26  1  0  0  0  0
 24 27  1  0  0  0  0
 25 28  1  0  0  0  0
 25 29  2  0  0  0  0
 26 30  1  0  0  0  0
 27 31  1  0  0  0  0
 30 32  1  0  0  0  0
 32 33  3  0  0  0  0
M  END
> <CdId>
60

> <Mol Weight>
449.4957

> <Formula>
C26H27NO6

> <Click_ID>
CLK001_F11 __ __ 

$$$$
