CLK012_B09
 OpenBabel03191401532D

 20 21  0  0  0  0  0  0  0  0999 V2000
    1.5595   -0.8129    0.0000 N   0  0  0  0  0  0  0  0  0  0  0  0
    1.8166   -1.5968    0.0000 C   0  0  0  0  0  0  0  0  0  0  0  0
    2.2272   -0.3277    0.0000 C   0  0  0  0  0  0  0  0  0  0  0  0
    2.8908   -0.8129    0.0000 C   0  0  0  0  0  0  0  0  0  0  0  0
    2.6378   -1.5968    0.0000 S   0  0  0  0  0  0  0  0  0  0  0  0
    3.6747   -0.5599    0.0000 C   0  0  0  0  0  0  0  0  0  0  0  0
    0.6097    0.2447    0.0000 C   0  0  0  0  0  0  0  0  0  0  0  0
    0.3899    1.0410    0.0000 C   0  0  0  0  0  0  0  0  0  0  0  0
    1.3313   -2.2562    0.0000 O   0  0  0  0  0  0  0  0  0  0  0  0
    3.4134    1.6009    0.0000 C   0  0  0  0  0  0  0  0  0  0  0  0
    2.2189    0.4935    0.0000 O   0  0  0  0  0  0  0  0  0  0  0  0
    3.8571    0.2447    0.0000 C   0  0  0  0  0  0  0  0  0  0  0  0
    0.7839   -0.5599    0.0000 C   0  0  0  0  0  0  0  0  0  0  0  0
    4.2055    1.8539    0.0000 C   0  0  0  0  0  0  0  0  0  0  0  0
    3.2392    0.7921    0.0000 C   0  0  0  0  0  0  0  0  0  0  0  0
    4.8194    1.2940    0.0000 C   0  0  0  0  0  0  0  0  0  0  0  0
    4.6410    0.4853    0.0000 C   0  0  0  0  0  0  0  0  0  0  0  0
    2.8120    2.1483    0.0000 O   0  0  0  0  0  0  0  0  0  0  0  0
    4.3797    2.6585    0.0000 O   0  0  0  0  0  0  0  0  0  0  0  0
    2.9903    2.9571    0.0000 C   0  0  0  0  0  0  0  0  0  0  0  0
  2  1  1  0  0  0  0
  3  1  1  0  0  0  0
  4  3  1  0  0  0  0
  4  5  1  0  0  0  0
  5  2  1  0  0  0  0
  6  4  2  0  0  0  0
  7 13  1  0  0  0  0
  8  7  3  0  0  0  0
  9  2  2  0  0  0  0
 10 15  1  0  0  0  0
 10 14  2  0  0  0  0
 11  3  2  0  0  0  0
 12  6  1  0  0  0  0
 13  1  1  0  0  0  0
 14 16  1  0  0  0  0
 15 12  2  0  0  0  0
 16 17  2  0  0  0  0
 17 12  1  0  0  0  0
 18 10  1  0  0  0  0
 19 14  1  0  0  0  0
 20 18  1  0  0  0  0
M  END
> <CdId>
854

> <Mol Weight>
289.306

> <Formula>
C14H11NO4S

> <Click_ID>
CLK012_B09 __ __ 

$$$$
