CLK025_B06
 OpenBabel03191401532D

 28 30  0  0  0  0  0  0  0  0999 V2000
    1.9817   -0.5755    0.0000 C   0  0  0  0  0  0  0  0  0  0  0  0
    2.7124   -0.9512    0.0000 C   0  0  0  0  0  0  0  0  0  0  0  0
    3.2914   -0.3757    0.0000 N   0  0  0  0  0  0  0  0  0  0  0  0
    2.1127    0.2378    0.0000 C   0  0  0  0  0  0  0  0  0  0  0  0
    2.9260    0.3619    0.0000 C   0  0  0  0  0  0  0  0  0  0  0  0
    1.2372   -0.9512    0.0000 N   0  0  0  0  0  0  0  0  0  0  0  0
   -0.1964   -0.8857    0.0000 C   0  0  0  0  0  0  0  0  0  0  0  0
    0.5342   -0.4998    0.0000 N   0  0  0  0  0  0  0  0  0  0  0  0
    4.6424    0.1172    0.0000 C   0  0  0  0  0  0  0  0  0  0  0  0
    5.1765    0.7513    0.0000 C   0  0  0  0  0  0  0  0  0  0  0  0
    2.8330   -1.7749    0.0000 O   0  0  0  0  0  0  0  0  0  0  0  0
    4.1116   -0.5135    0.0000 C   0  0  0  0  0  0  0  0  0  0  0  0
   -3.7532    0.4894    0.0000 C   0  0  0  0  0  0  0  0  0  0  0  0
   -0.2275   -1.7129    0.0000 O   0  0  0  0  0  0  0  0  0  0  0  0
   -3.0122    0.8754    0.0000 C   0  0  0  0  0  0  0  0  0  0  0  0
   -3.7635   -0.3377    0.0000 C   0  0  0  0  0  0  0  0  0  0  0  0
   -0.8960   -0.4377    0.0000 C   0  0  0  0  0  0  0  0  0  0  0  0
   -1.6301   -0.8271    0.0000 O   0  0  0  0  0  0  0  0  0  0  0  0
   -2.3332   -0.3826    0.0000 C   0  0  0  0  0  0  0  0  0  0  0  0
   -4.4666    0.9030    0.0000 C   0  0  0  0  0  0  0  0  0  0  0  0
    1.5991    0.8892    0.0000 C   0  0  0  0  0  0  0  0  0  0  0  0
   -3.0604   -0.7754    0.0000 C   0  0  0  0  0  0  0  0  0  0  0  0
   -2.3091    0.4515    0.0000 C   0  0  0  0  0  0  0  0  0  0  0  0
    3.2259    1.1305    0.0000 C   0  0  0  0  0  0  0  0  0  0  0  0
   -4.4666    1.7267    0.0000 C   0  0  0  0  0  0  0  0  0  0  0  0
   -5.1765    0.4894    0.0000 C   0  0  0  0  0  0  0  0  0  0  0  0
    1.8990    1.6543    0.0000 C   0  0  0  0  0  0  0  0  0  0  0  0
    2.7124    1.7784    0.0000 C   0  0  0  0  0  0  0  0  0  0  0  0
  2  1  1  0  0  0  0
  3  2  1  0  0  0  0
  3  5  1  0  0  0  0
  4  1  1  0  0  0  0
  5  4  2  0  0  0  0
  6  1  2  0  0  0  0
  7  8  1  0  0  0  0
  8  6  1  0  0  0  0
  9 12  1  0  0  0  0
 10  9  3  0  0  0  0
 11  2  2  0  0  0  0
 12  3  1  0  0  0  0
 13 15  1  0  0  0  0
 14  7  2  0  0  0  0
 15 23  2  0  0  0  0
 16 22  1  0  0  0  0
 16 13  2  0  0  0  0
 17  7  1  0  0  0  0
 18 17  1  0  0  0  0
 19 18  1  0  0  0  0
 20 13  1  0  0  0  0
 21  4  1  0  0  0  0
 22 19  2  0  0  0  0
 23 19  1  0  0  0  0
 24  5  1  0  0  0  0
 24 28  2  0  0  0  0
 25 20  1  0  0  0  0
 26 20  1  0  0  0  0
 27 21  2  0  0  0  0
 28 27  1  0  0  0  0
M  END
> <CdId>
1871

> <Mol Weight>
375.4204

> <Formula>
C22H21N3O3

> <Click_ID>
CLK025_B06 __ __ 

$$$$
