CLK022_D03
 OpenBabel03191401532D

 21 21  0  0  0  0  0  0  0  0999 V2000
    7.3247    0.9161    0.0000 C   0  0  0  0  0  0  0  0  0  0  0  0
    9.3357    1.4933    0.0000 C   0  0  0  0  0  0  0  0  0  0  0  0
    8.0393    1.3284    0.0000 N   0  0  0  0  0  0  0  0  0  0  0  0
    6.6101    1.3284    0.0000 N   0  0  0  0  0  0  0  0  0  0  0  0
    9.9129    2.0842    0.0000 C   0  0  0  0  0  0  0  0  0  0  0  0
    5.1809    1.3284    0.0000 C   0  0  0  0  0  0  0  0  0  0  0  0
    4.4709    0.9161    0.0000 C   0  0  0  0  0  0  0  0  0  0  0  0
    8.7539    0.9161    0.0000 C   0  0  0  0  0  0  0  0  0  0  0  0
    5.8955    0.9161    0.0000 C   0  0  0  0  0  0  0  0  0  0  0  0
    7.3247    0.0916    0.0000 O   0  0  0  0  0  0  0  0  0  0  0  0
    4.4709    0.0916    0.0000 C   0  0  0  0  0  0  0  0  0  0  0  0
    5.1809   -0.3207    0.0000 C   0  0  0  0  0  0  0  0  0  0  0  0
    5.8955    0.0916    0.0000 C   0  0  0  0  0  0  0  0  0  0  0  0
    3.7563    1.3284    0.0000 O   0  0  0  0  0  0  0  0  0  0  0  0
    3.7563   -0.3207    0.0000 O   0  0  0  0  0  0  0  0  0  0  0  0
    8.2775    0.2336    0.0000 C   0  0  0  0  0  0  0  0  0  0  0  0
    9.3860    0.3802    0.0000 C   0  0  0  0  0  0  0  0  0  0  0  0
    3.7563    2.1529    0.0000 C   0  0  0  0  0  0  0  0  0  0  0  0
    3.7563   -1.1452    0.0000 C   0  0  0  0  0  0  0  0  0  0  0  0
    9.2395   -0.4306    0.0000 C   0  0  0  0  0  0  0  0  0  0  0  0
    8.6302   -0.5131    0.0000 C   0  0  0  0  0  0  0  0  0  0  0  0
  2  8  1  0  0  0  0
  3  1  1  0  0  0  0
  4  1  1  0  0  0  0
  5  2  3  0  0  0  0
  6  9  2  0  0  0  0
  7  6  1  0  0  0  0
  8  3  1  0  0  0  0
  9  4  1  0  0  0  0
 10  1  2  0  0  0  0
 11 12  1  0  0  0  0
 11  7  2  0  0  0  0
 12 13  2  0  0  0  0
 13  9  1  0  0  0  0
 14  7  1  0  0  0  0
 15 11  1  0  0  0  0
 16  8  1  0  0  0  0
 17  8  1  0  0  0  0
 18 14  1  0  0  0  0
 19 15  1  0  0  0  0
 20 17  1  0  0  0  0
 21 16  1  0  0  0  0
M  END
> <CdId>
1662

> <Mol Weight>
290.3575

> <Formula>
C16H22N2O3

> <Click_ID>
CLK022_D03 __ __ 

$$$$
