CLK038A03
 OpenBabel03191401532D

 26 28  0  0  0  0  0  0  0  0999 V2000
   -1.3583   -0.6583    0.0000 C   0  0  0  0  0  0  0  0  0  0  0  0
   -1.3583   -1.4833    0.0000 C   0  0  0  0  0  0  0  0  0  0  0  0
   -0.6458   -1.8958    0.0000 C   0  0  0  0  0  0  0  0  0  0  0  0
   -0.6458   -0.2458    0.0000 N   0  0  0  0  0  0  0  0  0  0  0  0
   -2.1458   -0.4042    0.0000 S   0  0  0  0  0  0  0  0  0  0  0  0
   -2.1458   -1.7375    0.0000 C   0  0  0  0  0  0  0  0  0  0  0  0
    0.0667   -1.4833    0.0000 N   0  0  0  0  0  0  0  0  0  0  0  0
   -2.6292   -1.0708    0.0000 C   0  0  0  0  0  0  0  0  0  0  0  0
    0.0667   -0.6583    0.0000 C   0  0  0  0  0  0  0  0  0  0  0  0
    2.9250    2.6417    0.0000 C   0  0  0  0  0  0  0  0  0  0  0  0
    3.6417    3.0542    0.0000 C   0  0  0  0  0  0  0  0  0  0  0  0
    1.4958    0.9917    0.0000 C   0  0  0  0  0  0  0  0  0  0  0  0
   -0.6458   -2.7208    0.0000 O   0  0  0  0  0  0  0  0  0  0  0  0
    1.4958    1.8167    0.0000 N   0  0  0  0  0  0  0  0  0  0  0  0
    2.2125    2.2292    0.0000 C   0  0  0  0  0  0  0  0  0  0  0  0
    2.2125    0.5792    0.0000 O   0  0  0  0  0  0  0  0  0  0  0  0
    0.7833   -0.2458    0.0000 C   0  0  0  0  0  0  0  0  0  0  0  0
    0.7833    0.5792    0.0000 C   0  0  0  0  0  0  0  0  0  0  0  0
   -2.4792   -2.4917    0.0000 C   0  0  0  0  0  0  0  0  0  0  0  0
   -3.4500   -1.1583    0.0000 C   0  0  0  0  0  0  0  0  0  0  0  0
    2.6250    1.5125    0.0000 C   0  0  0  0  0  0  0  0  0  0  0  0
    1.8000    2.9417    0.0000 C   0  0  0  0  0  0  0  0  0  0  0  0
   -3.3000   -2.5792    0.0000 C   0  0  0  0  0  0  0  0  0  0  0  0
   -3.7875   -1.9125    0.0000 C   0  0  0  0  0  0  0  0  0  0  0  0
    2.2125    0.8000    0.0000 C   0  0  0  0  0  0  0  0  0  0  0  0
    2.2125    3.6583    0.0000 C   0  0  0  0  0  0  0  0  0  0  0  0
  2  1  2  0  0  0  0
  3  2  1  0  0  0  0
  4  1  1  0  0  0  0
  5  1  1  0  0  0  0
  6  2  1  0  0  0  0
  6  8  2  0  0  0  0
  7  3  1  0  0  0  0
  7  9  1  0  0  0  0
  8  5  1  0  0  0  0
  9  4  2  0  0  0  0
 10 15  1  0  0  0  0
 11 10  3  0  0  0  0
 12 18  1  0  0  0  0
 13  3  2  0  0  0  0
 14 12  1  0  0  0  0
 15 14  1  0  0  0  0
 16 12  2  0  0  0  0
 17  9  1  0  0  0  0
 18 17  1  0  0  0  0
 19  6  1  0  0  0  0
 20  8  1  0  0  0  0
 21 15  1  0  0  0  0
 22 15  1  0  0  0  0
 23 19  1  0  0  0  0
 23 24  1  0  0  0  0
 24 20  1  0  0  0  0
 25 21  1  0  0  0  0
 26 22  1  0  0  0  0
M  END
> <CdId>
2857

> <Mol Weight>
371.496

> <Formula>
C20H25N3O2S

> <Click_ID>
CLK038A03 __ __ 

$$$$
