CLK004_E02
 OpenBabel03191401532D

 22 23  0  0  0  0  0  0  0  0999 V2000
    1.1431    0.0021    0.0000 C   0  0  0  0  0  0  0  0  0  0  0  0
    0.3302   -0.1397    0.0000 N   0  0  0  0  0  0  0  0  0  0  0  0
    1.6744   -0.6244    0.0000 N   0  0  0  0  0  0  0  0  0  0  0  0
    1.4267    0.7811    0.0000 N   0  0  0  0  0  0  0  0  0  0  0  0
    0.0487   -0.9145    0.0000 C   0  0  0  0  0  0  0  0  0  0  0  0
   -0.2011    0.4911    0.0000 C   0  0  0  0  0  0  0  0  0  0  0  0
    2.4851   -0.4826    0.0000 C   0  0  0  0  0  0  0  0  0  0  0  0
    2.2374    0.9187    0.0000 C   0  0  0  0  0  0  0  0  0  0  0  0
   -0.7641   -1.0541    0.0000 C   0  0  0  0  0  0  0  0  0  0  0  0
   -1.0161    0.3471    0.0000 C   0  0  0  0  0  0  0  0  0  0  0  0
    2.7687    0.2921    0.0000 N   0  0  0  0  0  0  0  0  0  0  0  0
    3.0207   -1.1134    0.0000 O   0  0  0  0  0  0  0  0  0  0  0  0
    2.5211    1.6998    0.0000 O   0  0  0  0  0  0  0  0  0  0  0  0
   -1.2997   -0.4212    0.0000 C   0  0  0  0  0  0  0  0  0  0  0  0
    2.7391   -1.8924    0.0000 C   0  0  0  0  0  0  0  0  0  0  0  0
    1.9876    2.3285    0.0000 C   0  0  0  0  0  0  0  0  0  0  0  0
   -2.1104   -0.5694    0.0000 C   0  0  0  0  0  0  0  0  0  0  0  0
   -2.6417    0.0572    0.0000 N   0  0  0  0  0  0  0  0  0  0  0  0
   -2.3941   -1.3484    0.0000 O   0  0  0  0  0  0  0  0  0  0  0  0
   -3.4524   -0.0868    0.0000 C   0  0  0  0  0  0  0  0  0  0  0  0
   -3.9859    0.5462    0.0000 C   0  0  0  0  0  0  0  0  0  0  0  0
   -4.5151    1.1791    0.0000 C   0  0  0  0  0  0  0  0  0  0  0  0
  1  2  1  0  0  0  0
  1  3  2  0  0  0  0
  1  4  1  0  0  0  0
  2  5  1  0  0  0  0
  2  6  1  0  0  0  0
  3  7  1  0  0  0  0
  4  8  2  0  0  0  0
  5  9  1  0  0  0  0
  6 10  1  0  0  0  0
  7 11  2  0  0  0  0
  7 12  1  0  0  0  0
  8 13  1  0  0  0  0
  8 11  1  0  0  0  0
  9 14  1  0  0  0  0
 10 14  1  0  0  0  0
 12 15  1  0  0  0  0
 13 16  1  0  0  0  0
 14 17  1  0  0  0  0
 17 18  1  0  0  0  0
 17 19  2  0  0  0  0
 18 20  1  0  0  0  0
 20 21  1  0  0  0  0
 21 22  3  0  0  0  0
M  END
> <CdId>
281

> <Mol Weight>
305.3324

> <Formula>
C14H19N5O3

> <Click_ID>
CLK004_E02 __ __ 

$$$$
