CLK027_F04
 OpenBabel03191401532D

 23 25  0  0  0  0  0  0  0  0999 V2000
   -0.2719   -0.1996    0.0000 C    0  0  3  0  0  0  0  0  0  0  0  0
   -0.7572   -0.8638    0.0000 C    0  0  0  0  0  0  0  0  0  0  0  0
   -1.5384   -0.6126    0.0000 N    0  0  0  0  0  0  0  0  0  0  0  0
   -0.7502    0.4681    0.0000 C    0  0  0  0  0  0  0  0  0  0  0  0
   -1.5384    0.2134    0.0000 C    0  0  0  0  0  0  0  0  0  0  0  0
    0.5541   -0.1996    0.0000 C    0  0  0  0  0  0  0  0  0  0  0  0
    1.7930   -0.9224    0.0000 C    0  0  0  0  0  0  0  0  0  0  0  0
    2.2783   -1.5865    0.0000 S    0  0  0  0  0  0  0  0  0  0  0  0
    0.9671   -0.9120    0.0000 C    0  0  0  0  0  0  0  0  0  0  0  0
    3.0630   -1.3319    0.0000 C    0  0  0  0  0  0  0  0  0  0  0  0
    2.2783   -0.2513    0.0000 C    0  0  0  0  0  0  0  0  0  0  0  0
    3.0665   -0.5094    0.0000 C    0  0  0  0  0  0  0  0  0  0  0  0
   -2.9632   -0.7502    0.0000 C    0  0  0  0  0  0  0  0  0  0  0  0
   -3.7341   -0.4198    0.0000 C    0  0  0  0  0  0  0  0  0  0  0  0
   -0.5094   -1.6520    0.0000 O    0  0  0  0  0  0  0  0  0  0  0  0
   -2.2130   -1.0876    0.0000 C    0  0  0  0  0  0  0  0  0  0  0  0
    0.1170    0.5404    0.0000 O    0  0  0  0  0  0  0  0  0  0  0  0
    0.5541   -1.6245    0.0000 O    0  0  0  0  0  0  0  0  0  0  0  0
    3.7307   -1.8206    0.0000 Br   0  0  0  0  0  0  0  0  0  0  0  0
   -0.5817    1.2734    0.0000 C    0  0  0  0  0  0  0  0  0  0  0  0
   -2.1579    0.7744    0.0000 C    0  0  0  0  0  0  0  0  0  0  0  0
   -1.1839    1.8240    0.0000 C    0  0  0  0  0  0  0  0  0  0  0  0
   -1.9686    1.5865    0.0000 C    0  0  0  0  0  0  0  0  0  0  0  0
  2  1  1  0  0  0  0
  3  2  1  0  0  0  0
  3  5  1  0  0  0  0
  4  1  1  0  0  0  0
  5  4  1  0  0  0  0
  6  1  1  0  0  0  0
  7  9  1  0  0  0  0
  8  7  1  0  0  0  0
  9  6  1  0  0  0  0
 10  8  1  0  0  0  0
 11  7  2  0  0  0  0
 12 11  1  0  0  0  0
 12 10  2  0  0  0  0
 13 16  1  0  0  0  0
 14 13  3  0  0  0  0
 15  2  2  0  0  0  0
 16  3  1  0  0  0  0
 17  1  1  0  0  0  0
 18  9  2  0  0  0  0
 19 10  1  0  0  0  0
 20  4  2  0  0  0  0
 21  5  2  0  0  0  0
 22 20  1  0  0  0  0
 23 22  2  0  0  0  0
 23 21  1  0  0  0  0
M  END
> <CdId>
2064

> <Mol Weight>
390.251

> <Formula>
C17H12BrNO3S

> <Click_ID>
CLK027_F04 __ __ 

$$$$
