CLK031_A04
 OpenBabel03191401532D

 29 32  0  0  0  0  0  0  0  0999 V2000
    0.9000    3.0875    0.0000 C    0  0  0  0  0  0  0  0  0  0  0  0
   -1.1625    2.3833    0.0000 C    0  0  0  0  0  0  0  0  0  0  0  0
   -0.3375    2.3750    0.0000 N    0  0  0  0  0  0  0  0  0  0  0  0
   -4.5833    3.2125    0.0000 S    0  0  0  0  0  0  0  0  0  0  0  0
    1.3792    2.4250    0.0000 S    0  0  0  0  0  0  0  0  0  0  0  0
    1.3875    3.7583    0.0000 C    0  0  0  0  0  0  0  0  0  0  0  0
   -1.6458    1.7208    0.0000 N    0  0  0  0  0  0  0  0  0  0  0  0
    0.0750    3.0875    0.0000 C    0  0  0  0  0  0  0  0  0  0  0  0
   -1.6458    3.0500    0.0000 S    0  0  0  0  0  0  0  0  0  0  0  0
   -2.4333    2.7958    0.0000 C    0  0  0  0  0  0  0  0  0  0  0  0
   -2.4333    1.9708    0.0000 C    0  0  0  0  0  0  0  0  0  0  0  0
    2.1792    3.4958    0.0000 C    0  0  0  0  0  0  0  0  0  0  0  0
    2.1625    2.6708    0.0000 C    0  0  0  0  0  0  0  0  0  0  0  0
   -3.8583    2.7958    0.0000 C    0  0  0  0  0  0  0  0  0  0  0  0
   -3.1458    3.2083    0.0000 C    0  0  0  0  0  0  0  0  0  0  0  0
   -1.9458    0.3208    0.0000 C    0  0  0  0  0  0  0  0  0  0  0  0
   -3.1458    1.5583    0.0000 C    0  0  0  0  0  0  0  0  0  0  0  0
   -2.4958   -0.2917    0.0000 C    0  0  0  0  0  0  0  0  0  0  0  0
   -5.0208    2.5083    0.0000 O    0  0  0  0  0  0  0  0  0  0  0  0
   -4.1458    3.9083    0.0000 O    0  0  0  0  0  0  0  0  0  0  0  0
   -0.3375    3.8000    0.0000 O    0  0  0  0  0  0  0  0  0  0  0  0
   -5.2833    3.6458    0.0000 N    0  0  0  0  0  0  0  0  0  0  0  0
   -3.8583    1.9708    0.0000 C    0  0  0  0  0  0  0  0  0  0  0  0
    1.1417    4.5417    0.0000 Cl   0  0  0  0  0  0  0  0  0  0  0  0
   -1.3958    0.9333    0.0000 C    0  0  0  0  0  0  0  0  0  0  0  0
    2.9042    3.8958    0.0000 C    0  0  0  0  0  0  0  0  0  0  0  0
    2.8750    2.2458    0.0000 C    0  0  0  0  0  0  0  0  0  0  0  0
    3.6042    3.4833    0.0000 C    0  0  0  0  0  0  0  0  0  0  0  0
    3.6042    2.6458    0.0000 C    0  0  0  0  0  0  0  0  0  0  0  0
  2  3  2  0  0  0  0
  3  8  1  0  0  0  0
  4 14  1  0  0  0  0
  5  1  1  0  0  0  0
  6  1  2  0  0  0  0
  7  2  1  0  0  0  0
  8  1  1  0  0  0  0
  9  2  1  0  0  0  0
 10  9  1  0  0  0  0
 10 11  2  0  0  0  0
 11  7  1  0  0  0  0
 12  6  1  0  0  0  0
 12 13  2  0  0  0  0
 13  5  1  0  0  0  0
 14 15  2  0  0  0  0
 14 23  1  0  0  0  0
 15 10  1  0  0  0  0
 16 25  1  0  0  0  0
 17 11  1  0  0  0  0
 18 16  3  0  0  0  0
 19  4  2  0  0  0  0
 20  4  2  0  0  0  0
 21  8  2  0  0  0  0
 22  4  1  0  0  0  0
 23 17  2  0  0  0  0
 24  6  1  0  0  0  0
 25  7  1  0  0  0  0
 26 12  1  0  0  0  0
 27 13  1  0  0  0  0
 28 26  2  0  0  0  0
 28 29  1  0  0  0  0
 29 27  2  0  0  0  0
M  END
> <CdId>
2328

> <Mol Weight>
461.965

> <Formula>
C19H12ClN3O3S3

> <Click_ID>
CLK031_A04 __ __ 

$$$$
