CLK028_E07
 OpenBabel03191401532D

 26 29  0  0  0  0  0  0  0  0999 V2000
   -2.0800    0.2986    0.0000 C   0  0  0  0  0  0  0  0  0  0  0  0
    2.5881    0.8821    0.0000 N   0  0  0  0  0  0  0  0  0  0  0  0
    1.5137    0.0961    0.0000 C   0  0  0  0  0  0  0  0  0  0  0  0
    1.7643    0.8821    0.0000 C   0  0  0  0  0  0  0  0  0  0  0  0
   -2.7837    0.7105    0.0000 O   0  0  0  0  0  0  0  0  0  0  0  0
   -1.3215    0.6247    0.0000 C   0  0  0  0  0  0  0  0  0  0  0  0
    2.8386    0.0961    0.0000 C   0  0  0  0  0  0  0  0  0  0  0  0
   -2.2448   -0.5114    0.0000 C   0  0  0  0  0  0  0  0  0  0  0  0
    2.1727   -0.3845    0.0000 C   0  0  0  0  0  0  0  0  0  0  0  0
   -3.4015    0.1648    0.0000 C   0  0  0  0  0  0  0  0  0  0  0  0
   -3.0651   -0.5904    0.0000 C   0  0  0  0  0  0  0  0  0  0  0  0
    3.8855    1.4690    0.0000 C   0  0  0  0  0  0  0  0  0  0  0  0
    4.7093    1.4690    0.0000 C   0  0  0  0  0  0  0  0  0  0  0  0
    0.1167    0.3981    0.0000 N   0  0  0  0  0  0  0  0  0  0  0  0
    0.7276   -0.1510    0.0000 C   0  0  0  0  0  0  0  0  0  0  0  0
   -0.6693    0.1476    0.0000 N   0  0  0  0  0  0  0  0  0  0  0  0
   -1.2357    1.4451    0.0000 O   0  0  0  0  0  0  0  0  0  0  0  0
    3.0720    1.5480    0.0000 C   0  0  0  0  0  0  0  0  0  0  0  0
    3.5937   -0.2403    0.0000 C   0  0  0  0  0  0  0  0  0  0  0  0
    2.2516   -1.2013    0.0000 C   0  0  0  0  0  0  0  0  0  0  0  0
   -4.2253    0.2506    0.0000 C   0  0  0  0  0  0  0  0  0  0  0  0
   -3.5525   -1.2631    0.0000 C   0  0  0  0  0  0  0  0  0  0  0  0
    3.6726   -1.0641    0.0000 C   0  0  0  0  0  0  0  0  0  0  0  0
    2.9999   -1.5446    0.0000 C   0  0  0  0  0  0  0  0  0  0  0  0
   -4.3763   -1.1704    0.0000 C   0  0  0  0  0  0  0  0  0  0  0  0
   -4.7127   -0.4153    0.0000 C   0  0  0  0  0  0  0  0  0  0  0  0
  2  4  1  0  0  0  0
  2  7  1  0  0  0  0
  3 15  1  0  0  0  0
  4  3  2  0  0  0  0
  5  1  1  0  0  0  0
  6  1  1  0  0  0  0
  7  9  2  0  0  0  0
  8  1  2  0  0  0  0
  9  3  1  0  0  0  0
 10  5  1  0  0  0  0
 10 11  2  0  0  0  0
 11  8  1  0  0  0  0
 12 18  1  0  0  0  0
 13 12  3  0  0  0  0
 14 16  1  0  0  0  0
 15 14  2  0  0  0  0
 16  6  1  0  0  0  0
 17  6  2  0  0  0  0
 18  2  1  0  0  0  0
 19  7  1  0  0  0  0
 19 23  2  0  0  0  0
 20  9  1  0  0  0  0
 21 10  1  0  0  0  0
 22 11  1  0  0  0  0
 23 24  1  0  0  0  0
 24 20  2  0  0  0  0
 25 22  2  0  0  0  0
 25 26  1  0  0  0  0
 26 21  2  0  0  0  0
M  END
> <CdId>
2131

> <Mol Weight>
341.3627

> <Formula>
C21H15N3O2

> <Click_ID>
CLK028_E07 __ __ 

$$$$
