CLK006_A02
 OpenBabel03191401532D

 22 23  0  0  0  0  0  0  0  0999 V2000
    3.6655    0.6519    0.0000 N   0  3  0  0  0  0  0  0  0  0  0  0
   -3.7516    0.6519    0.0000 C   0  0  0  0  0  0  0  0  0  0  0  0
   -4.5665    0.6519    0.0000 C   0  0  0  0  0  0  0  0  0  0  0  0
   -1.2731   -0.7780    0.0000 C   0  0  0  0  0  0  0  0  0  0  0  0
    0.7841   -0.0646    0.0000 C   0  0  0  0  0  0  0  0  0  0  0  0
    1.1932    0.6519    0.0000 C   0  0  0  0  0  0  0  0  0  0  0  0
   -1.6851   -0.0646    0.0000 C   0  0  0  0  0  0  0  0  0  0  0  0
   -0.4520   -0.7780    0.0000 C   0  0  0  0  0  0  0  0  0  0  0  0
    3.2565    1.3622    0.0000 C   0  0  0  0  0  0  0  0  0  0  0  0
    3.2565   -0.0646    0.0000 C   0  0  0  0  0  0  0  0  0  0  0  0
   -0.0430   -0.0646    0.0000 C   0  0  0  0  0  0  0  0  0  0  0  0
   -1.2731    0.6519    0.0000 C   0  0  0  0  0  0  0  0  0  0  0  0
    2.0203    0.6519    0.0000 C   0  0  0  0  0  0  0  0  0  0  0  0
   -0.4520    0.6519    0.0000 C   0  0  0  0  0  0  0  0  0  0  0  0
   -1.6851   -1.4791    0.0000 O   0  0  0  0  0  0  0  0  0  0  0  0
    4.4866    0.6519    0.0000 C   0  0  0  0  0  0  0  0  0  0  0  0
    2.4294   -0.0646    0.0000 C   0  0  0  0  0  0  0  0  0  0  0  0
    2.4294    1.3622    0.0000 C   0  0  0  0  0  0  0  0  0  0  0  0
   -2.5093   -0.0646    0.0000 O   0  0  0  0  0  0  0  0  0  0  0  0
   -2.9213    0.6519    0.0000 C   0  0  0  0  0  0  0  0  0  0  0  0
   -1.2731   -2.1987    0.0000 C   0  0  0  0  0  0  0  0  0  0  0  0
   -1.6851   -2.9152    0.0000 C   0  0  0  0  0  0  0  0  0  0  0  0
  2 20  1  0  0  0  0
  3  2  3  0  0  0  0
  4  8  1  0  0  0  0
  5  6  2  0  0  0  0
  6 13  1  0  0  0  0
  7 12  1  0  0  0  0
  7  4  2  0  0  0  0
  8 11  2  0  0  0  0
  9  1  1  0  0  0  0
 10  1  2  0  0  0  0
 11  5  1  0  0  0  0
 12 14  2  0  0  0  0
 13 17  2  0  0  0  0
 13 18  1  0  0  0  0
 14 11  1  0  0  0  0
 15  4  1  0  0  0  0
 16  1  1  0  0  0  0
 17 10  1  0  0  0  0
 18  9  2  0  0  0  0
 19  7  1  0  0  0  0
 20 19  1  0  0  0  0
 21 15  1  0  0  0  0
 22 21  1  0  0  0  0
M  END
> <CdId>
401

> <Mol Weight>
294.3676

> <Formula>
C19H20NO2

> <Click_ID>
CLK006_A02 __ __ 

$$$$
