CLK047H05
 OpenBabel03191401532D

 17 18  0  0  0  0  0  0  0  0999 V2000
    0.2083   -0.0708    0.0000 C   0  0  0  0  0  0  0  0  0  0  0  0
   -0.5083   -0.4833    0.0000 C   0  0  0  0  0  0  0  0  0  0  0  0
   -1.2208   -0.0708    0.0000 N   0  0  0  0  0  0  0  0  0  0  0  0
   -0.5083    1.1667    0.0000 N   0  0  0  0  0  0  0  0  0  0  0  0
   -1.2208    0.7542    0.0000 C   0  0  0  0  0  0  0  0  0  0  0  0
    0.2083    0.7542    0.0000 C   0  0  0  0  0  0  0  0  0  0  0  0
    0.9208   -0.4833    0.0000 C   0  0  0  0  0  0  0  0  0  0  0  0
    3.0667   -0.0708    0.0000 C   0  0  0  0  0  0  0  0  0  0  0  0
   -1.9333   -0.4833    0.0000 C   0  0  0  0  0  0  0  0  0  0  0  0
    3.7792    0.3417    0.0000 C   0  0  0  0  0  0  0  0  0  0  0  0
   -0.5083   -1.3083    0.0000 O   0  0  0  0  0  0  0  0  0  0  0  0
   -1.9333    1.1667    0.0000 C   0  0  0  0  0  0  0  0  0  0  0  0
    0.9208   -1.3083    0.0000 O   0  0  0  0  0  0  0  0  0  0  0  0
   -2.6500   -0.0708    0.0000 C   0  0  0  0  0  0  0  0  0  0  0  0
   -2.6500    0.7542    0.0000 C   0  0  0  0  0  0  0  0  0  0  0  0
    1.6375   -0.0708    0.0000 N   0  0  0  0  0  0  0  0  0  0  0  0
    2.3500   -0.4833    0.0000 C   0  0  0  0  0  0  0  0  0  0  0  0
  2  1  1  0  0  0  0
  3  2  1  0  0  0  0
  4  6  1  0  0  0  0
  5  3  1  0  0  0  0
  5  4  2  0  0  0  0
  6  1  2  0  0  0  0
  7  1  1  0  0  0  0
  8 17  1  0  0  0  0
  9  3  1  0  0  0  0
 10  8  3  0  0  0  0
 11  2  2  0  0  0  0
 12  5  1  0  0  0  0
 13  7  2  0  0  0  0
 14  9  2  0  0  0  0
 14 15  1  0  0  0  0
 15 12  2  0  0  0  0
 16  7  1  0  0  0  0
 17 16  1  0  0  0  0
M  END
> <CdId>
3600

> <Mol Weight>
227.2188

> <Formula>
C12H9N3O2

> <Click_ID>
CLK047H05 __ __ 

$$$$
