CLK049G06
 OpenBabel03191401532D

 19 19  0  0  0  0  0  0  0  0999 V2000
   -1.3917   -0.6708    0.0000 C    0  0  0  0  0  0  0  0  0  0  0  0
   -1.3917   -1.4958    0.0000 C    0  0  0  0  0  0  0  0  0  0  0  0
    3.6083    0.5667    0.0000 C    0  0  0  0  0  0  0  0  0  0  0  0
    4.3208    0.1542    0.0000 C    0  0  0  0  0  0  0  0  0  0  0  0
   -2.1083   -0.2583    0.0000 C    0  0  0  0  0  0  0  0  0  0  0  0
    1.4625    0.9792    0.0000 C    0  0  0  0  0  0  0  0  0  0  0  0
    0.7500    0.5667    0.0000 C    0  0  0  0  0  0  0  0  0  0  0  0
   -0.6792   -0.2583    0.0000 C    0  0  0  0  0  0  0  0  0  0  0  0
    0.0375    0.9792    0.0000 C    0  0  0  0  0  0  0  0  0  0  0  0
    1.4625    1.8042    0.0000 O    0  0  0  0  0  0  0  0  0  0  0  0
   -0.5667   -1.4958    0.0000 F    0  0  0  0  0  0  0  0  0  0  0  0
   -2.2167   -1.4958    0.0000 F    0  0  0  0  0  0  0  0  0  0  0  0
   -1.3917   -2.3208    0.0000 F    0  0  0  0  0  0  0  0  0  0  0  0
   -0.6792    0.5667    0.0000 C    0  0  0  0  0  0  0  0  0  0  0  0
   -2.1083    0.5667    0.0000 C    0  0  0  0  0  0  0  0  0  0  0  0
    2.1792    0.5667    0.0000 N    0  0  0  0  0  0  0  0  0  0  0  0
   -2.8208   -0.6708    0.0000 Cl   0  0  0  0  0  0  0  0  0  0  0  0
   -1.3917    0.9792    0.0000 C    0  0  0  0  0  0  0  0  0  0  0  0
    2.8917    0.9792    0.0000 C    0  0  0  0  0  0  0  0  0  0  0  0
  2  1  1  0  0  0  0
  3 19  1  0  0  0  0
  4  3  3  0  0  0  0
  5  1  2  0  0  0  0
  6  7  1  0  0  0  0
  7  9  2  0  0  0  0
  8  1  1  0  0  0  0
  9 14  1  0  0  0  0
 10  6  2  0  0  0  0
 11  2  1  0  0  0  0
 12  2  1  0  0  0  0
 13  2  1  0  0  0  0
 14  8  2  0  0  0  0
 15  5  1  0  0  0  0
 16  6  1  0  0  0  0
 17  5  1  0  0  0  0
 18 15  2  0  0  0  0
 18 14  1  0  0  0  0
 19 16  1  0  0  0  0
M  END
> <CdId>
3767

> <Mol Weight>
287.665

> <Formula>
C13H9ClF3NO

> <Click_ID>
CLK049G06 __ __ 

$$$$
