CLK002_E03
 OpenBabel03191401532D

 24 25  0  0  0  0  0  0  0  0999 V2000
   -0.1581   -1.0416    0.0000 C    0  0  0  0  0  0  0  0  0  0  0  0
   -0.9730   -1.0416    0.0000 C    0  0  0  0  0  0  0  0  0  0  0  0
    0.2544   -0.3231    0.0000 C    0  0  0  0  0  0  0  0  0  0  0  0
    0.2475   -1.7533    0.0000 C    0  0  0  0  0  0  0  0  0  0  0  0
   -1.3924   -1.7430    0.0000 C    0  0  0  0  0  0  0  0  0  0  0  0
   -1.3855   -0.3231    0.0000 C    0  0  0  0  0  0  0  0  0  0  0  0
    1.0760   -0.3300    0.0000 O    0  0  0  0  0  0  0  0  0  0  0  0
   -0.1581    0.3885    0.0000 O    0  0  0  0  0  0  0  0  0  0  0  0
   -0.1616   -2.4649    0.0000 C    0  0  0  0  0  0  0  0  0  0  0  0
   -0.9867   -2.4615    0.0000 C    0  0  0  0  0  0  0  0  0  0  0  0
   -2.2071   -0.3197    0.0000 O    0  0  0  0  0  0  0  0  0  0  0  0
   -0.9695    0.3885    0.0000 O    0  0  0  0  0  0  0  0  0  0  0  0
    1.4852    0.3782    0.0000 C    0  0  0  0  0  0  0  0  0  0  0  0
   -2.6128    0.3988    0.0000 C    0  0  0  0  0  0  0  0  0  0  0  0
    2.3102    0.3782    0.0000 C    0  0  0  0  0  0  0  0  0  0  0  0
    1.0829    1.0898    0.0000 C    0  0  0  0  0  0  0  0  0  0  0  0
   -3.4344    0.3988    0.0000 C    0  0  0  0  0  0  0  0  0  0  0  0
    2.7296    1.0898    0.0000 C    0  0  0  0  0  0  0  0  0  0  0  0
    2.7194   -0.3300    0.0000 Br   0  0  0  0  0  0  0  0  0  0  0  0
    1.4852    1.8014    0.0000 C    0  0  0  0  0  0  0  0  0  0  0  0
    0.2613    1.0898    0.0000 Br   0  0  0  0  0  0  0  0  0  0  0  0
   -4.2595    0.4057    0.0000 C    0  0  0  0  0  0  0  0  0  0  0  0
    2.3171    1.8083    0.0000 C    0  0  0  0  0  0  0  0  0  0  0  0
    2.7296    2.5200    0.0000 Br   0  0  0  0  0  0  0  0  0  0  0  0
  1  2  1  0  0  0  0
  1  3  1  0  0  0  0
  1  4  2  0  0  0  0
  2  5  2  0  0  0  0
  2  6  1  0  0  0  0
  3  7  1  0  0  0  0
  3  8  2  0  0  0  0
  4  9  1  0  0  0  0
  5 10  1  0  0  0  0
  6 11  1  0  0  0  0
  6 12  2  0  0  0  0
  7 13  1  0  0  0  0
  9 10  2  0  0  0  0
 11 14  1  0  0  0  0
 13 15  2  0  0  0  0
 13 16  1  0  0  0  0
 14 17  1  0  0  0  0
 15 18  1  0  0  0  0
 15 19  1  0  0  0  0
 16 20  2  0  0  0  0
 16 21  1  0  0  0  0
 17 22  3  0  0  0  0
 18 23  2  0  0  0  0
 20 23  1  0  0  0  0
 23 24  1  0  0  0  0
M  END
> <CdId>
122

> <Mol Weight>
516.963

> <Formula>
C17H9Br3O4

> <Click_ID>
CLK002_E03 __ __ 

$$$$
