CLK017_D11
 OpenBabel03191401532D

 21 23  0  0  0  0  0  0  0  0999 V2000
    5.1546   -0.9769    0.0000 N   0  0  0  0  0  0  0  0  0  0  0  0
    5.5620   -1.6877    0.0000 C   0  0  0  0  0  0  0  0  0  0  0  0
    4.2443   -1.9621    0.0000 C   0  0  0  0  0  0  0  0  0  0  0  0
    4.3440   -1.1390    0.0000 C   0  0  0  0  0  0  0  0  0  0  0  0
    5.0050   -2.2988    0.0000 S   0  0  0  0  0  0  0  0  0  0  0  0
    3.5334   -2.3736    0.0000 C   0  0  0  0  0  0  0  0  0  0  0  0
    3.5334   -3.2050    0.0000 C   0  0  0  0  0  0  0  0  0  0  0  0
    6.3102   -0.1372    0.0000 C   0  0  0  0  0  0  0  0  0  0  0  0
    7.1333   -0.1414    0.0000 C   0  0  0  0  0  0  0  0  0  0  0  0
    6.3851   -1.7833    0.0000 O   0  0  0  0  0  0  0  0  0  0  0  0
    2.8101   -3.6207    0.0000 C   0  0  0  0  0  0  0  0  0  0  0  0
    3.7288   -0.5861    0.0000 O   0  0  0  0  0  0  0  0  0  0  0  0
    5.4913   -0.2162    0.0000 C   0  0  0  0  0  0  0  0  0  0  0  0
    2.8101   -4.4438    0.0000 C   0  0  0  0  0  0  0  0  0  0  0  0
    4.2443   -3.6207    0.0000 C   0  0  0  0  0  0  0  0  0  0  0  0
    4.2443   -4.4438    0.0000 C   0  0  0  0  0  0  0  0  0  0  0  0
    2.0993   -3.2092    0.0000 C   0  0  0  0  0  0  0  0  0  0  0  0
    3.5334   -4.8636    0.0000 C   0  0  0  0  0  0  0  0  0  0  0  0
    2.0993   -4.8636    0.0000 C   0  0  0  0  0  0  0  0  0  0  0  0
    1.3843   -3.6207    0.0000 C   0  0  0  0  0  0  0  0  0  0  0  0
    1.3843   -4.4438    0.0000 C   0  0  0  0  0  0  0  0  0  0  0  0
  2  1  1  0  0  0  0
  3  4  1  0  0  0  0
  4  1  1  0  0  0  0
  5  2  1  0  0  0  0
  5  3  1  0  0  0  0
  6  3  2  0  0  0  0
  7  6  1  0  0  0  0
  8 13  1  0  0  0  0
  9  8  3  0  0  0  0
 10  2  2  0  0  0  0
 11  7  2  0  0  0  0
 12  4  2  0  0  0  0
 13  1  1  0  0  0  0
 14 11  1  0  0  0  0
 14 18  2  0  0  0  0
 15  7  1  0  0  0  0
 16 15  2  0  0  0  0
 17 11  1  0  0  0  0
 18 16  1  0  0  0  0
 19 14  1  0  0  0  0
 20 17  2  0  0  0  0
 21 20  1  0  0  0  0
 21 19  2  0  0  0  0
M  END
> <CdId>
1276

> <Mol Weight>
293.34

> <Formula>
C17H11NO2S

> <Click_ID>
CLK017_D11 __ __ 

$$$$
