CLK049D06
 OpenBabel03191401532D

 28 30  0  0  0  0  0  0  0  0999 V2000
   -2.5958    0.7917    0.0000 S   0  0  0  0  0  0  0  0  0  0  0  0
    3.1875   -1.5292    0.0000 N   0  0  0  0  0  0  0  0  0  0  0  0
    2.4042   -1.2708    0.0000 C   0  0  0  0  0  0  0  0  0  0  0  0
    3.6750   -0.8583    0.0000 N   0  0  0  0  0  0  0  0  0  0  0  0
    2.4042   -0.4458    0.0000 C   0  0  0  0  0  0  0  0  0  0  0  0
    1.6917   -1.6833    0.0000 N   0  0  0  0  0  0  0  0  0  0  0  0
    0.2625    0.7917    0.0000 C   0  0  0  0  0  0  0  0  0  0  0  0
    3.1875   -0.1917    0.0000 C   0  0  0  0  0  0  0  0  0  0  0  0
   -1.8833    1.2042    0.0000 C   0  0  0  0  0  0  0  0  0  0  0  0
    0.2625   -0.0333    0.0000 N   0  0  0  0  0  0  0  0  0  0  0  0
   -0.4542    1.2042    0.0000 C   0  0  0  0  0  0  0  0  0  0  0  0
   -4.7417    0.3792    0.0000 C   0  0  0  0  0  0  0  0  0  0  0  0
   -1.1667    0.7917    0.0000 C   0  0  0  0  0  0  0  0  0  0  0  0
   -5.4542   -0.0333    0.0000 C   0  0  0  0  0  0  0  0  0  0  0  0
   -2.1833    0.0750    0.0000 O   0  0  0  0  0  0  0  0  0  0  0  0
   -3.0083    1.5042    0.0000 O   0  0  0  0  0  0  0  0  0  0  0  0
    1.6917   -0.0333    0.0000 C   0  0  0  0  0  0  0  0  0  0  0  0
   -3.3125    0.3792    0.0000 N   0  0  0  0  0  0  0  0  0  0  0  0
    0.9750   -0.4458    0.0000 C   0  0  0  0  0  0  0  0  0  0  0  0
    0.9750    1.2042    0.0000 O   0  0  0  0  0  0  0  0  0  0  0  0
    3.4458   -2.3125    0.0000 C   0  0  0  0  0  0  0  0  0  0  0  0
    0.9750   -1.2708    0.0000 C   0  0  0  0  0  0  0  0  0  0  0  0
   -4.0250    0.7917    0.0000 C   0  0  0  0  0  0  0  0  0  0  0  0
   -1.8833    2.0292    0.0000 C   0  0  0  0  0  0  0  0  0  0  0  0
   -0.4542    2.0292    0.0000 C   0  0  0  0  0  0  0  0  0  0  0  0
   -1.1667    2.4417    0.0000 C   0  0  0  0  0  0  0  0  0  0  0  0
    4.2500   -2.4833    0.0000 C   0  0  0  0  0  0  0  0  0  0  0  0
    2.8917   -2.9250    0.0000 C   0  0  0  0  0  0  0  0  0  0  0  0
  2  3  1  0  0  0  0
  3  6  1  0  0  0  0
  3  5  2  0  0  0  0
  4  8  2  0  0  0  0
  4  2  1  0  0  0  0
  5 17  1  0  0  0  0
  6 22  2  0  0  0  0
  7 11  1  0  0  0  0
  8  5  1  0  0  0  0
  9  1  1  0  0  0  0
 10  7  1  0  0  0  0
 11 13  2  0  0  0  0
 12 23  1  0  0  0  0
 13  9  1  0  0  0  0
 14 12  3  0  0  0  0
 15  1  2  0  0  0  0
 16  1  2  0  0  0  0
 17 19  2  0  0  0  0
 18  1  1  0  0  0  0
 19 10  1  0  0  0  0
 20  7  2  0  0  0  0
 21  2  1  0  0  0  0
 22 19  1  0  0  0  0
 23 18  1  0  0  0  0
 24  9  2  0  0  0  0
 25 11  1  0  0  0  0
 26 24  1  0  0  0  0
 26 25  2  0  0  0  0
 27 21  1  0  0  0  0
 28 21  1  0  0  0  0
M  END
> <CdId>
3764

> <Mol Weight>
397.451

> <Formula>
C19H19N5O3S

> <Click_ID>
CLK049D06 __ __ 

$$$$
