CLK025_E07
 OpenBabel03191401532D

 27 29  0  0  0  0  0  0  0  0999 V2000
   -0.4455    0.0800    0.0000 C    0  0  3  0  0  0  0  0  0  0  0  0
    0.0209   -0.5500    0.0000 C    0  0  0  0  0  0  0  0  0  0  0  0
   -1.2253   -0.1706    0.0000 C    0  0  0  0  0  0  0  0  0  0  0  0
   -0.4455   -1.2531    0.0000 N    0  0  0  0  0  0  0  0  0  0  0  0
   -1.2253   -0.9990    0.0000 C    0  0  0  0  0  0  0  0  0  0  0  0
    0.4003    0.8563    0.0000 C    0  0  0  0  0  0  0  0  0  0  0  0
    1.3575    0.6788    0.0000 C    0  0  0  0  0  0  0  0  0  0  0  0
    1.8553    1.3367    0.0000 C    0  0  0  0  0  0  0  0  0  0  0  0
    2.6733    1.2287    0.0000 C    0  0  0  0  0  0  0  0  0  0  0  0
    1.5420    2.0885    0.0000 C    0  0  0  0  0  0  0  0  0  0  0  0
   -0.6962   -2.6489    0.0000 C    0  0  0  0  0  0  0  0  0  0  0  0
   -1.9423   -1.4098    0.0000 C    0  0  0  0  0  0  0  0  0  0  0  0
   -1.2287   -3.2790    0.0000 C    0  0  0  0  0  0  0  0  0  0  0  0
   -1.9423    0.2402    0.0000 C    0  0  0  0  0  0  0  0  0  0  0  0
    0.8110   -0.6161    0.0000 O    0  0  0  0  0  0  0  0  0  0  0  0
    2.0468    2.7464    0.0000 C    0  0  0  0  0  0  0  0  0  0  0  0
    3.1711    1.8692    0.0000 C    0  0  0  0  0  0  0  0  0  0  0  0
    1.6326    0.1044    0.0000 O    0  0  0  0  0  0  0  0  0  0  0  0
   -0.1706   -2.0259    0.0000 C    0  0  0  0  0  0  0  0  0  0  0  0
   -0.8319    0.9538    0.0000 O    0  0  0  0  0  0  0  0  0  0  0  0
    2.8648    2.6385    0.0000 C    0  0  0  0  0  0  0  0  0  0  0  0
   -2.6489   -0.1706    0.0000 C    0  0  0  0  0  0  0  0  0  0  0  0
   -2.6489   -0.9990    0.0000 C    0  0  0  0  0  0  0  0  0  0  0  0
   -3.3661    0.2402    0.0000 Br   0  0  0  0  0  0  0  0  0  0  0  0
    0.7345    2.1999    0.0000 C    0  0  0  0  0  0  0  0  0  0  0  0
    2.9866    0.4595    0.0000 C    0  0  0  0  0  0  0  0  0  0  0  0
    3.3625    3.2825    0.0000 C    0  0  0  0  0  0  0  0  0  0  0  0
  2  1  1  0  0  0  0
  3  1  1  0  0  0  0
  4  2  1  0  0  0  0
  5  3  2  0  0  0  0
  5  4  1  0  0  0  0
  6  1  1  0  0  0  0
  7  6  1  0  0  0  0
  8  7  1  0  0  0  0
  9  8  1  0  0  0  0
 10  8  2  0  0  0  0
 11 19  1  0  0  0  0
 12  5  1  0  0  0  0
 13 11  3  0  0  0  0
 14  3  1  0  0  0  0
 15  2  2  0  0  0  0
 16 10  1  0  0  0  0
 17  9  2  0  0  0  0
 17 21  1  0  0  0  0
 18  7  2  0  0  0  0
 19  4  1  0  0  0  0
 20  1  1  0  0  0  0
 21 16  2  0  0  0  0
 22 14  2  0  0  0  0
 23 22  1  0  0  0  0
 23 12  2  0  0  0  0
 24 22  1  0  0  0  0
 25 10  1  0  0  0  0
 26  9  1  0  0  0  0
 27 21  1  0  0  0  0
M  END
> <CdId>
1902

> <Mol Weight>
426.303

> <Formula>
C22H20BrNO3

> <Click_ID>
CLK025_E07 __ __ 

$$$$
