CLK003_D06
 OpenBabel03191401532D

 19 19  0  0  0  0  0  0  0  0999 V2000
    0.1549    0.7030    0.0000 C   0  0  0  0  0  0  0  0  0  0  0  0
    0.1549    1.5217    0.0000 N   0  0  0  0  0  0  0  0  0  0  0  0
    0.8672    0.2868    0.0000 N   0  0  0  0  0  0  0  0  0  0  0  0
   -0.5689    0.2868    0.0000 N   0  0  0  0  0  0  0  0  0  0  0  0
   -0.5689    1.9379    0.0000 C   0  0  0  0  0  0  0  0  0  0  0  0
    0.8672    1.9379    0.0000 C   0  0  0  0  0  0  0  0  0  0  0  0
    0.8672   -0.5434    0.0000 C   0  0  0  0  0  0  0  0  0  0  0  0
   -0.5689   -0.5434    0.0000 C   0  0  0  0  0  0  0  0  0  0  0  0
   -1.2788    1.5217    0.0000 C   0  0  0  0  0  0  0  0  0  0  0  0
    1.5771    2.3519    0.0000 N   0  0  0  0  0  0  0  0  0  0  0  0
    0.1549   -0.9458    0.0000 N   0  0  0  0  0  0  0  0  0  0  0  0
    1.5910   -0.9597    0.0000 N   0  0  0  0  0  0  0  0  0  0  0  0
   -1.2927   -0.9597    0.0000 N   0  0  0  0  0  0  0  0  0  0  0  0
   -1.9911    1.1054    0.0000 C   0  0  0  0  0  0  0  0  0  0  0  0
    1.5910   -1.7922    0.0000 C   0  0  0  0  0  0  0  0  0  0  0  0
   -2.0165   -0.5434    0.0000 C   0  0  0  0  0  0  0  0  0  0  0  0
    2.3010   -2.2085    0.0000 C   0  0  0  0  0  0  0  0  0  0  0  0
    0.8787   -2.2085    0.0000 C   0  0  0  0  0  0  0  0  0  0  0  0
   -2.7288   -0.9597    0.0000 C   0  0  0  0  0  0  0  0  0  0  0  0
  1  2  1  0  0  0  0
  1  3  1  0  0  0  0
  1  4  2  0  0  0  0
  2  5  1  0  0  0  0
  2  6  1  0  0  0  0
  3  7  2  0  0  0  0
  4  8  1  0  0  0  0
  5  9  1  0  0  0  0
  6 10  3  0  0  0  0
  7 11  1  0  0  0  0
  7 12  1  0  0  0  0
  8 13  1  0  0  0  0
  8 11  2  0  0  0  0
  9 14  3  0  0  0  0
 12 15  1  0  0  0  0
 13 16  1  0  0  0  0
 15 17  1  0  0  0  0
 15 18  1  0  0  0  0
 16 19  1  0  0  0  0
M  END
> <CdId>
195

> <Mol Weight>
259.3103

> <Formula>
C12H17N7

> <Click_ID>
CLK003_D06 __ __ 

$$$$
