CLK043E10
 OpenBabel03191401532D

 32 35  0  0  0  0  0  0  0  0999 V2000
    0.6458   -3.5667    0.0000 S   0  0  0  0  0  0  0  0  0  0  0  0
   -0.0708    2.6208    0.0000 C   0  0  0  0  0  0  0  0  0  0  0  0
   -0.7833    1.3833    0.0000 C   0  0  0  0  0  0  0  0  0  0  0  0
    0.6458   -0.2667    0.0000 C   0  0  0  0  0  0  0  0  0  0  0  0
   -0.7833    2.2083    0.0000 C   0  0  0  0  0  0  0  0  0  0  0  0
   -0.0708    0.1458    0.0000 N   0  0  0  0  0  0  0  0  0  0  0  0
   -0.0708    0.9708    0.0000 C   0  0  0  0  0  0  0  0  0  0  0  0
   -0.0708    3.4458    0.0000 N   0  0  0  0  0  0  0  0  0  0  0  0
    0.6458   -2.7417    0.0000 C   0  0  0  0  0  0  0  0  0  0  0  0
   -0.0708   -5.6292    0.0000 C   0  0  0  0  0  0  0  0  0  0  0  0
    0.6458    2.2083    0.0000 C   0  0  0  0  0  0  0  0  0  0  0  0
   -0.0708   -6.4542    0.0000 C   0  0  0  0  0  0  0  0  0  0  0  0
    1.4708   -3.5667    0.0000 O   0  0  0  0  0  0  0  0  0  0  0  0
   -0.1792   -3.5667    0.0000 O   0  0  0  0  0  0  0  0  0  0  0  0
    0.6458   -1.0917    0.0000 C   0  0  0  0  0  0  0  0  0  0  0  0
    0.6458   -4.3917    0.0000 N   0  0  0  0  0  0  0  0  0  0  0  0
    0.6458    1.3833    0.0000 C   0  0  0  0  0  0  0  0  0  0  0  0
    1.3583    0.1458    0.0000 O   0  0  0  0  0  0  0  0  0  0  0  0
   -2.2125    1.3833    0.0000 N   0  0  0  0  0  0  0  0  0  0  0  0
   -0.0708   -2.3292    0.0000 C   0  0  0  0  0  0  0  0  0  0  0  0
    1.3583   -2.3292    0.0000 C   0  0  0  0  0  0  0  0  0  0  0  0
   -0.0708   -1.5042    0.0000 C   0  0  0  0  0  0  0  0  0  0  0  0
    1.3583   -1.5042    0.0000 C   0  0  0  0  0  0  0  0  0  0  0  0
   -1.5000    0.9708    0.0000 C   0  0  0  0  0  0  0  0  0  0  0  0
   -0.0708   -4.8042    0.0000 C   0  0  0  0  0  0  0  0  0  0  0  0
   -0.7833    3.8583    0.0000 C   0  0  0  0  0  0  0  0  0  0  0  0
    0.6458    3.8583    0.0000 C   0  0  0  0  0  0  0  0  0  0  0  0
   -1.5000    2.6208    0.0000 C   0  0  0  0  0  0  0  0  0  0  0  0
   -2.2125    2.2083    0.0000 C   0  0  0  0  0  0  0  0  0  0  0  0
    0.6458    4.6792    0.0000 C   0  0  0  0  0  0  0  0  0  0  0  0
   -0.7833    4.6792    0.0000 C   0  0  0  0  0  0  0  0  0  0  0  0
   -0.0708    5.0917    0.0000 C   0  0  0  0  0  0  0  0  0  0  0  0
  2  5  2  0  0  0  0
  2 11  1  0  0  0  0
  3  7  2  0  0  0  0
  4 15  1  0  0  0  0
  5  3  1  0  0  0  0
  6  4  1  0  0  0  0
  7  6  1  0  0  0  0
  8  2  1  0  0  0  0
  9  1  1  0  0  0  0
 10 25  1  0  0  0  0
 11 17  2  0  0  0  0
 12 10  3  0  0  0  0
 13  1  2  0  0  0  0
 14  1  2  0  0  0  0
 15 23  2  0  0  0  0
 16  1  1  0  0  0  0
 17  7  1  0  0  0  0
 18  4  2  0  0  0  0
 19 24  2  0  0  0  0
 19 29  1  0  0  0  0
 20  9  1  0  0  0  0
 21  9  2  0  0  0  0
 22 20  2  0  0  0  0
 22 15  1  0  0  0  0
 23 21  1  0  0  0  0
 24  3  1  0  0  0  0
 25 16  1  0  0  0  0
 26  8  1  0  0  0  0
 27  8  1  0  0  0  0
 28  5  1  0  0  0  0
 29 28  2  0  0  0  0
 30 27  1  0  0  0  0
 31 26  1  0  0  0  0
 32 31  1  0  0  0  0
 32 30  1  0  0  0  0
M  END
> <CdId>
3317

> <Mol Weight>
448.537

> <Formula>
C24H24N4O3S

> <Click_ID>
CLK043E10 __ __ 

$$$$
