CLK018_C04
 OpenBabel03191401532D

 28 31  0  0  0  0  0  0  0  0999 V2000
    4.2793   -2.1717    0.0000 C    0  0  3  0  0  0  0  0  0  0  0  0
    4.9964   -2.5827    0.0000 C    0  0  0  0  0  0  0  0  0  0  0  0
    3.5709   -2.5827    0.0000 C    0  0  0  0  0  0  0  0  0  0  0  0
    5.7106   -2.1717    0.0000 C    0  0  0  0  0  0  0  0  0  0  0  0
    5.7106   -1.3409    0.0000 N    0  0  0  0  0  0  0  0  0  0  0  0
    4.9964   -0.9299    0.0000 C    0  0  0  0  0  0  0  0  0  0  0  0
    2.8538   -2.1630    0.0000 C    0  0  0  0  0  0  0  0  0  0  0  0
    3.5680   -3.4019    0.0000 C    0  0  0  0  0  0  0  0  0  0  0  0
    2.1426   -2.5740    0.0000 C    0  0  0  0  0  0  0  0  0  0  0  0
    4.9935   -3.4048    0.0000 C    0  0  0  0  0  0  0  0  0  0  0  0
    2.8538   -3.8129    0.0000 C    0  0  0  0  0  0  0  0  0  0  0  0
    2.1367   -3.4048    0.0000 C    0  0  0  0  0  0  0  0  0  0  0  0
    4.2851   -1.3467    0.0000 C    0  0  0  0  0  0  0  0  0  0  0  0
    0.7025   -5.0664    0.0000 C    0  0  0  0  0  0  0  0  0  0  0  0
   -0.0175   -5.4774    0.0000 C    0  0  0  0  0  0  0  0  0  0  0  0
    6.4219   -2.5886    0.0000 C    0  0  0  0  0  0  0  0  0  0  0  0
    4.9847   -0.0991    0.0000 O    0  0  0  0  0  0  0  0  0  0  0  0
    5.7048   -3.8158    0.0000 C    0  0  0  0  0  0  0  0  0  0  0  0
    6.4219   -3.4048    0.0000 C    0  0  0  0  0  0  0  0  0  0  0  0
    2.8538   -1.3380    0.0000 Br   0  0  0  0  0  0  0  0  0  0  0  0
    1.4167   -3.8158    0.0000 O    0  0  0  0  0  0  0  0  0  0  0  0
    2.8597   -4.6379    0.0000 O    0  0  0  0  0  0  0  0  0  0  0  0
    1.4167   -4.6466    0.0000 C    0  0  0  0  0  0  0  0  0  0  0  0
    4.2793   -3.8158    0.0000 C    0  0  0  0  0  0  0  0  0  0  0  0
    5.7106   -4.6437    0.0000 C    0  0  0  0  0  0  0  0  0  0  0  0
    2.1426   -5.0576    0.0000 C    0  0  0  0  0  0  0  0  0  0  0  0
    4.2793   -4.6466    0.0000 C    0  0  0  0  0  0  0  0  0  0  0  0
    4.9964   -5.0576    0.0000 C    0  0  0  0  0  0  0  0  0  0  0  0
  2  1  1  0  0  0  0
  3  1  1  0  0  0  0
  4  2  2  0  0  0  0
  5  6  1  0  0  0  0
  5  4  1  0  0  0  0
  6 13  1  0  0  0  0
  7  3  2  0  0  0  0
  8  3  1  0  0  0  0
  9  7  1  0  0  0  0
 10  2  1  0  0  0  0
 11  8  2  0  0  0  0
 12 11  1  0  0  0  0
 12  9  2  0  0  0  0
 13  1  1  0  0  0  0
 14 23  1  0  0  0  0
 15 14  3  0  0  0  0
 16  4  1  0  0  0  0
 17  6  2  0  0  0  0
 18 10  1  0  0  0  0
 19 18  1  0  0  0  0
 19 16  2  0  0  0  0
 20  7  1  0  0  0  0
 21 12  1  0  0  0  0
 22 11  1  0  0  0  0
 23 21  1  0  0  0  0
 24 10  2  0  0  0  0
 25 18  2  0  0  0  0
 25 28  1  0  0  0  0
 26 22  1  0  0  0  0
 27 24  1  0  0  0  0
 28 27  2  0  0  0  0
M  END
> <CdId>
1339

> <Mol Weight>
436.298

> <Formula>
C23H18BrNO3

> <Click_ID>
CLK018_C04 __ __ 

$$$$
