CLK006_A11
 OpenBabel03191401532D

 28 30  0  0  0  0  0  0  0  0999 V2000
    0.5394   -1.1515    0.0000 C    0  0  0  0  0  0  0  0  0  0  0  0
   -0.1314   -0.6709    0.0000 C    0  0  0  0  0  0  0  0  0  0  0  0
    1.3313   -0.8991    0.0000 C    0  0  0  0  0  0  0  0  0  0  0  0
    0.2801   -1.9399    0.0000 S    0  0  0  0  0  0  0  0  0  0  0  0
   -0.7953   -1.1515    0.0000 N    0  0  0  0  0  0  0  0  0  0  0  0
   -0.1314    0.1556    0.0000 O    0  0  0  0  0  0  0  0  0  0  0  0
    1.4973   -0.0934    0.0000 C    0  0  0  0  0  0  0  0  0  0  0  0
   -0.5463   -1.9399    0.0000 C    0  0  0  0  0  0  0  0  0  0  0  0
   -1.5872   -0.8991    0.0000 C    0  0  0  0  0  0  0  0  0  0  0  0
    0.8783    0.4565    0.0000 C    0  0  0  0  0  0  0  0  0  0  0  0
    2.2718    0.1556    0.0000 C    0  0  0  0  0  0  0  0  0  0  0  0
   -1.0339   -2.6039    0.0000 O    0  0  0  0  0  0  0  0  0  0  0  0
   -2.1992   -1.4523    0.0000 C    0  0  0  0  0  0  0  0  0  0  0  0
    1.0546    1.2690    0.0000 C    0  0  0  0  0  0  0  0  0  0  0  0
    2.4378    0.9682    0.0000 C    0  0  0  0  0  0  0  0  0  0  0  0
   -2.9911   -1.1999    0.0000 N    0  0  0  0  0  0  0  0  0  0  0  0
   -2.0263   -2.2615    0.0000 O    0  0  0  0  0  0  0  0  0  0  0  0
    1.8223    1.5111    0.0000 C    0  0  0  0  0  0  0  0  0  0  0  0
    0.4460    1.8154    0.0000 Cl   0  0  0  0  0  0  0  0  0  0  0  0
    3.2228    1.2172    0.0000 Cl   0  0  0  0  0  0  0  0  0  0  0  0
   -3.6550   -1.6771    0.0000 C    0  0  0  0  0  0  0  0  0  0  0  0
   -3.2400   -0.4114    0.0000 C    0  0  0  0  0  0  0  0  0  0  0  0
    2.0125    2.3168    0.0000 O    0  0  0  0  0  0  0  0  0  0  0  0
   -4.3189   -1.1964    0.0000 C    0  0  0  0  0  0  0  0  0  0  0  0
   -4.0665   -0.4114    0.0000 C    0  0  0  0  0  0  0  0  0  0  0  0
    2.7975    2.5623    0.0000 C    0  0  0  0  0  0  0  0  0  0  0  0
    2.9773    3.3680    0.0000 C    0  0  0  0  0  0  0  0  0  0  0  0
    3.1536    4.1702    0.0000 C    0  0  0  0  0  0  0  0  0  0  0  0
  1  2  1  0  0  0  0
  1  3  2  0  0  0  0
  1  4  1  0  0  0  0
  2  5  1  0  0  0  0
  2  6  2  0  0  0  0
  3  7  1  0  0  0  0
  4  8  1  0  0  0  0
  5  9  1  0  0  0  0
  5  8  1  0  0  0  0
  7 10  2  0  0  0  0
  7 11  1  0  0  0  0
  8 12  2  0  0  0  0
  9 13  1  0  0  0  0
 10 14  1  0  0  0  0
 11 15  2  0  0  0  0
 13 16  1  0  0  0  0
 13 17  2  0  0  0  0
 14 18  2  0  0  0  0
 14 19  1  0  0  0  0
 15 20  1  0  0  0  0
 15 18  1  0  0  0  0
 16 21  1  0  0  0  0
 16 22  1  0  0  0  0
 18 23  1  0  0  0  0
 21 24  1  0  0  0  0
 22 25  1  0  0  0  0
 23 26  1  0  0  0  0
 24 25  1  0  0  0  0
 26 27  1  0  0  0  0
 27 28  3  0  0  0  0
M  END
> <CdId>
410

> <Mol Weight>
439.312

> <Formula>
C19H16Cl2N2O4S

> <Click_ID>
CLK006_A11 __ __ 

$$$$
