CLK022_C04
 OpenBabel03191401532D

 24 25  0  0  0  0  0  0  0  0999 V2000
    6.1566    1.9789    0.0000 C    0  0  0  0  0  0  0  0  0  0  0  0
    7.3934    2.7026    0.0000 C    0  0  0  0  0  0  0  0  0  0  0  0
    6.5689    2.7026    0.0000 N    0  0  0  0  0  0  0  0  0  0  0  0
    7.8057    1.9789    0.0000 C    0  0  0  0  0  0  0  0  0  0  0  0
    8.6302    3.4172    0.0000 C    0  0  0  0  0  0  0  0  0  0  0  0
    7.8057    3.4172    0.0000 C    0  0  0  0  0  0  0  0  0  0  0  0
    9.0425    2.7026    0.0000 C    0  0  0  0  0  0  0  0  0  0  0  0
    8.6302    1.9789    0.0000 C    0  0  0  0  0  0  0  0  0  0  0  0
    1.6216    2.7026    0.0000 C    0  0  0  0  0  0  0  0  0  0  0  0
    0.7971    2.7026    0.0000 C    0  0  0  0  0  0  0  0  0  0  0  0
    5.3320    1.9789    0.0000 C    0  0  0  0  0  0  0  0  0  0  0  0
    6.5689    1.2643    0.0000 O    0  0  0  0  0  0  0  0  0  0  0  0
    4.9198    2.7026    0.0000 C    0  0  0  0  0  0  0  0  0  0  0  0
    4.9198    1.2643    0.0000 C    0  0  0  0  0  0  0  0  0  0  0  0
    9.8670    2.7026    0.0000 Cl   0  0  0  0  0  0  0  0  0  0  0  0
    3.6830    1.9789    0.0000 C    0  0  0  0  0  0  0  0  0  0  0  0
    7.3934    4.1227    0.0000 O    0  0  0  0  0  0  0  0  0  0  0  0
    9.0425    1.2643    0.0000 O    0  0  0  0  0  0  0  0  0  0  0  0
    4.0952    1.2643    0.0000 C    0  0  0  0  0  0  0  0  0  0  0  0
    4.0952    2.7026    0.0000 C    0  0  0  0  0  0  0  0  0  0  0  0
    2.4461    2.7026    0.0000 C    0  0  0  0  0  0  0  0  0  0  0  0
    2.8584    1.9789    0.0000 O    0  0  0  0  0  0  0  0  0  0  0  0
    7.8057    4.8282    0.0000 C    0  0  0  0  0  0  0  0  0  0  0  0
    8.6302    0.5497    0.0000 C    0  0  0  0  0  0  0  0  0  0  0  0
  2  3  1  0  0  0  0
  3  1  1  0  0  0  0
  4  2  1  0  0  0  0
  5  6  1  0  0  0  0
  6  2  2  0  0  0  0
  7  5  2  0  0  0  0
  8  4  2  0  0  0  0
  8  7  1  0  0  0  0
  9 21  1  0  0  0  0
 10  9  3  0  0  0  0
 11  1  1  0  0  0  0
 12  1  2  0  0  0  0
 13 11  2  0  0  0  0
 14 11  1  0  0  0  0
 15  7  1  0  0  0  0
 16 19  1  0  0  0  0
 16 20  2  0  0  0  0
 17  6  1  0  0  0  0
 18  8  1  0  0  0  0
 19 14  2  0  0  0  0
 20 13  1  0  0  0  0
 21 22  1  0  0  0  0
 22 16  1  0  0  0  0
 23 17  1  0  0  0  0
 24 18  1  0  0  0  0
M  END
> <CdId>
1655

> <Mol Weight>
345.777

> <Formula>
C18H16ClNO4

> <Click_ID>
CLK022_C04 __ __ 

$$$$
