CLK036_B02
 OpenBabel03191401532D

 27 29  0  0  0  0  0  0  0  0999 V2000
   -0.5499    2.2035    0.0000 C   0  0  0  0  0  0  0  0  0  0  0  0
    0.2435    2.4638    0.0000 N   0  0  0  0  0  0  0  0  0  0  0  0
   -0.8058    1.4103    0.0000 N   0  0  0  0  0  0  0  0  0  0  0  0
    2.5478    3.5258    0.0000 C   0  0  0  0  0  0  0  0  0  0  0  0
   -1.2214    2.6904    0.0000 S   0  0  0  0  0  0  0  0  0  0  0  0
    3.3537    3.2823    0.0000 N   0  3  0  0  0  0  0  0  0  0  0  0
   -1.6370    1.4103    0.0000 C   0  0  0  0  0  0  0  0  0  0  0  0
   -1.8888    2.1994    0.0000 C   0  0  0  0  0  0  0  0  0  0  0  0
    0.4198    3.2697    0.0000 C   0  0  0  0  0  0  0  0  0  0  0  0
    1.8805    3.0430    0.0000 O   0  0  0  0  0  0  0  0  0  0  0  0
    1.2005    3.5258    0.0000 C   0  0  0  0  0  0  0  0  0  0  0  0
   -2.1868    0.8016    0.0000 C   0  0  0  0  0  0  0  0  0  0  0  0
    2.2707    4.2981    0.0000 C   0  0  0  0  0  0  0  0  0  0  0  0
   -2.7030    2.3756    0.0000 C   0  0  0  0  0  0  0  0  0  0  0  0
    1.4523    4.2855    0.0000 C   0  0  0  0  0  0  0  0  0  0  0  0
   -2.9927    0.9695    0.0000 C   0  0  0  0  0  0  0  0  0  0  0  0
   -3.2571    1.7587    0.0000 C   0  0  0  0  0  0  0  0  0  0  0  0
    0.4954    0.8268    0.0000 C   0  0  0  0  0  0  0  0  0  0  0  0
    0.8436    1.5824    0.0000 C   0  0  0  0  0  0  0  0  0  0  0  0
    3.5300    2.4638    0.0000 O   0  5  0  0  0  0  0  0  0  0  0  0
    3.9581    3.8405    0.0000 O   0  0  0  0  0  0  0  0  0  0  0  0
   -0.1973    3.8279    0.0000 O   0  0  0  0  0  0  0  0  0  0  0  0
   -0.3232    0.7429    0.0000 C   0  0  0  0  0  0  0  0  0  0  0  0
   -3.5468    0.3484    0.0000 O   0  0  0  0  0  0  0  0  0  0  0  0
   -4.0630    1.9350    0.0000 O   0  0  0  0  0  0  0  0  0  0  0  0
   -3.2949   -0.4407    0.0000 C   0  0  0  0  0  0  0  0  0  0  0  0
   -4.6170    1.3179    0.0000 C   0  0  0  0  0  0  0  0  0  0  0  0
  2  1  2  0  0  0  0
  3  1  1  0  0  0  0
  4 10  1  0  0  0  0
  4 13  2  0  0  0  0
  5  1  1  0  0  0  0
  6  4  1  0  0  0  0
  7  3  1  0  0  0  0
  8  5  1  0  0  0  0
  8  7  2  0  0  0  0
  9  2  1  0  0  0  0
 10 11  1  0  0  0  0
 11  9  1  0  0  0  0
 12  7  1  0  0  0  0
 13 15  1  0  0  0  0
 14  8  1  0  0  0  0
 15 11  2  0  0  0  0
 16 12  2  0  0  0  0
 16 17  1  0  0  0  0
 17 14  2  0  0  0  0
 18 23  1  0  0  0  0
 19 18  3  0  0  0  0
 20  6  1  0  0  0  0
 21  6  2  0  0  0  0
 22  9  2  0  0  0  0
 23  3  1  0  0  0  0
 24 16  1  0  0  0  0
 25 17  1  0  0  0  0
 26 24  1  0  0  0  0
 27 25  1  0  0  0  0
M  END
> <CdId>
2732

> <Mol Weight>
387.367

> <Formula>
C17H13N3O6S

> <Click_ID>
CLK036_B02 __ __ 

$$$$
