CLK028_B06
 OpenBabel03191401532D

 31 33  0  0  0  0  0  0  0  0999 V2000
   -2.1391    0.2198    0.0000 C   0  0  0  0  0  0  0  0  0  0  0  0
   -2.8568   -0.1957    0.0000 C   0  0  0  0  0  0  0  0  0  0  0  0
    4.2748    1.4456    0.0000 C   0  0  0  0  0  0  0  0  0  0  0  0
    4.9959    1.8473    0.0000 C   0  0  0  0  0  0  0  0  0  0  0  0
   -0.7108    0.2198    0.0000 N   0  0  0  0  0  0  0  0  0  0  0  0
    1.4318    1.4524    0.0000 C   0  0  0  0  0  0  0  0  0  0  0  0
   -1.4250   -0.1957    0.0000 N   0  0  0  0  0  0  0  0  0  0  0  0
   -2.1391    1.0472    0.0000 O   0  0  0  0  0  0  0  0  0  0  0  0
    2.1323    1.0472    0.0000 C   0  0  0  0  0  0  0  0  0  0  0  0
    0.7176    1.0472    0.0000 C   0  0  0  0  0  0  0  0  0  0  0  0
   -2.8568   -1.0198    0.0000 C   0  0  0  0  0  0  0  0  0  0  0  0
   -3.5709    0.2198    0.0000 C   0  0  0  0  0  0  0  0  0  0  0  0
    2.1323    0.2232    0.0000 C   0  0  0  0  0  0  0  0  0  0  0  0
    0.0035   -0.1957    0.0000 C   0  0  0  0  0  0  0  0  0  0  0  0
    0.7176    0.2198    0.0000 C   0  0  0  0  0  0  0  0  0  0  0  0
   -3.0696    0.6077    0.0000 O   0  0  0  0  0  0  0  0  0  0  0  0
    1.4180   -0.1820    0.0000 C   0  0  0  0  0  0  0  0  0  0  0  0
    1.4318    2.2730    0.0000 O   0  0  0  0  0  0  0  0  0  0  0  0
    2.8533    1.4456    0.0000 O   0  0  0  0  0  0  0  0  0  0  0  0
    3.5606    1.0369    0.0000 C   0  0  0  0  0  0  0  0  0  0  0  0
   -3.5675    1.0472    0.0000 C   0  0  0  0  0  0  0  0  0  0  0  0
   -4.2851   -0.1957    0.0000 C   0  0  0  0  0  0  0  0  0  0  0  0
   -3.5812   -1.4318    0.0000 C   0  0  0  0  0  0  0  0  0  0  0  0
   -2.1426   -1.4318    0.0000 C   0  0  0  0  0  0  0  0  0  0  0  0
    0.7245    2.6782    0.0000 C   0  0  0  0  0  0  0  0  0  0  0  0
   -2.1529   -2.2627    0.0000 C   0  0  0  0  0  0  0  0  0  0  0  0
   -3.5812   -2.2559    0.0000 C   0  0  0  0  0  0  0  0  0  0  0  0
   -4.9959    0.2232    0.0000 C   0  0  0  0  0  0  0  0  0  0  0  0
   -4.2817    1.4593    0.0000 C   0  0  0  0  0  0  0  0  0  0  0  0
   -4.9959    1.0507    0.0000 C   0  0  0  0  0  0  0  0  0  0  0  0
   -2.8671   -2.6747    0.0000 C   0  0  0  0  0  0  0  0  0  0  0  0
  2  1  1  0  0  0  0
  3 20  1  0  0  0  0
  4  3  3  0  0  0  0
  5  7  1  0  0  0  0
  6 10  1  0  0  0  0
  7  1  1  0  0  0  0
  8  1  2  0  0  0  0
  9 13  1  0  0  0  0
  9  6  2  0  0  0  0
 10 15  2  0  0  0  0
 11  2  1  0  0  0  0
 12  2  1  0  0  0  0
 13 17  2  0  0  0  0
 14  5  2  0  0  0  0
 15 14  1  0  0  0  0
 16  2  1  0  0  0  0
 17 15  1  0  0  0  0
 18  6  1  0  0  0  0
 19  9  1  0  0  0  0
 20 19  1  0  0  0  0
 21 12  2  0  0  0  0
 22 12  1  0  0  0  0
 23 11  2  0  0  0  0
 24 11  1  0  0  0  0
 25 18  1  0  0  0  0
 26 24  2  0  0  0  0
 27 23  1  0  0  0  0
 28 22  2  0  0  0  0
 29 21  1  0  0  0  0
 30 28  1  0  0  0  0
 30 29  2  0  0  0  0
 31 26  1  0  0  0  0
 31 27  2  0  0  0  0
M  END
> <CdId>
2100

> <Mol Weight>
414.4532

> <Formula>
C25H22N2O4

> <Click_ID>
CLK028_B06 __ __ 

$$$$
