CLK006_D06
 OpenBabel03191401532D

 21 23  0  0  0  0  0  0  0  0999 V2000
    5.1518   -7.2384    0.0000 C   0  0  0  0  0  0  0  0  0  0  0  0
    4.3730   -6.9843    0.0000 N   0  0  0  0  0  0  0  0  0  0  0  0
    5.1518   -8.0630    0.0000 N   0  0  0  0  0  0  0  0  0  0  0  0
    5.7973   -6.7177    0.0000 C   0  0  3  0  0  0  0  0  0  0  0  0
    7.0676   -6.2971    0.0000 N   0  0  0  0  0  0  0  0  0  0  0  0
    6.5928   -5.6474    0.0000 C   0  0  0  0  0  0  0  0  0  0  0  0
    4.3688   -8.3170    0.0000 C   0  0  0  0  0  0  0  0  0  0  0  0
    3.8857   -7.6507    0.0000 C   0  0  0  0  0  0  0  0  0  0  0  0
    6.5845   -6.9718    0.0000 C   0  0  0  0  0  0  0  0  0  0  0  0
    5.8015   -5.8973    0.0000 C   0  0  0  0  0  0  0  0  0  0  0  0
    5.7266   -9.3707    0.0000 C   0  0  0  0  0  0  0  0  0  0  0  0
    5.6349  -10.1870    0.0000 C   0  0  0  0  0  0  0  0  0  0  0  0
    6.8635   -4.8561    0.0000 O   0  0  0  0  0  0  0  0  0  0  0  0
    5.8223   -8.5544    0.0000 C   0  0  0  0  0  0  0  0  0  0  0  0
    8.3337   -6.9760    0.0000 C   0  0  0  0  0  0  0  0  0  0  0  0
    9.1583   -6.9510    0.0000 C   0  0  0  0  0  0  0  0  0  0  0  0
    7.8964   -6.2721    0.0000 C   0  0  0  0  0  0  0  0  0  0  0  0
    4.0356   -9.0666    0.0000 C   0  0  0  0  0  0  0  0  0  0  0  0
    3.0694   -7.7339    0.0000 C   0  0  0  0  0  0  0  0  0  0  0  0
    3.2110   -9.1541    0.0000 C   0  0  0  0  0  0  0  0  0  0  0  0
    2.7279   -8.4878    0.0000 C   0  0  0  0  0  0  0  0  0  0  0  0
  2  1  2  0  0  0  0
  3  1  1  0  0  0  0
  4  1  1  0  0  0  0
  5  9  1  0  0  0  0
  6 10  1  0  0  0  0
  6  5  1  0  0  0  0
  7  3  1  0  0  0  0
  8  2  1  0  0  0  0
  8  7  1  0  0  0  0
  9  4  1  0  0  0  0
 10  4  1  0  0  0  0
 11 14  1  0  0  0  0
 12 11  3  0  0  0  0
 13  6  2  0  0  0  0
 14  3  1  0  0  0  0
 15 17  1  0  0  0  0
 16 15  2  0  0  0  0
 17  5  1  0  0  0  0
 18  7  2  0  0  0  0
 19  8  2  0  0  0  0
 20 18  1  0  0  0  0
 21 19  1  0  0  0  0
 21 20  2  0  0  0  0
M  END
> <CdId>
435

> <Mol Weight>
279.3364

> <Formula>
C17H17N3O

> <Click_ID>
CLK006_D06 __ __ 

$$$$
