CLK028_F09
 OpenBabel03191401532D

 17 17  0  0  0  0  0  0  0  0999 V2000
    0.3710   -0.2267    0.0000 C   0  0  0  0  0  0  0  0  0  0  0  0
    1.0856    0.2061    0.0000 C   0  0  0  0  0  0  0  0  0  0  0  0
    1.7933   -0.2096    0.0000 C   0  0  0  0  0  0  0  0  0  0  0  0
    1.7933   -1.0375    0.0000 C   0  0  0  0  0  0  0  0  0  0  0  0
   -1.7933   -0.6425    0.0000 C   0  0  0  0  0  0  0  0  0  0  0  0
   -0.3436    0.1855    0.0000 O   0  0  0  0  0  0  0  0  0  0  0  0
   -2.5079   -1.0547    0.0000 C   0  0  0  0  0  0  0  0  0  0  0  0
   -1.0616   -0.2267    0.0000 C   0  0  0  0  0  0  0  0  0  0  0  0
    0.3710   -1.0375    0.0000 O   0  0  0  0  0  0  0  0  0  0  0  0
    2.5045   -1.4326    0.0000 O   0  0  0  0  0  0  0  0  0  0  0  0
    1.0753   -1.4326    0.0000 O   0  0  0  0  0  0  0  0  0  0  0  0
    1.0856    1.0135    0.0000 C   0  0  0  0  0  0  0  0  0  0  0  0
    2.5045    0.2061    0.0000 C   0  0  0  0  0  0  0  0  0  0  0  0
   -1.4773    0.5085    0.0000 C   0  0  0  0  0  0  0  0  0  0  0  0
   -0.6493   -0.9447    0.0000 C   0  0  0  0  0  0  0  0  0  0  0  0
    2.5045    1.0341    0.0000 C   0  0  0  0  0  0  0  0  0  0  0  0
    1.7933    1.4361    0.0000 C   0  0  0  0  0  0  0  0  0  0  0  0
  2  1  1  0  0  0  0
  3  2  2  0  0  0  0
  4  3  1  0  0  0  0
  5  8  1  0  0  0  0
  6  1  1  0  0  0  0
  7  5  3  0  0  0  0
  8  6  1  0  0  0  0
  9  1  2  0  0  0  0
 10  4  2  0  0  0  0
 11  4  1  0  0  0  0
 12  2  1  0  0  0  0
 13  3  1  0  0  0  0
 14  8  1  0  0  0  0
 15  8  1  0  0  0  0
 16 17  1  0  0  0  0
 16 13  2  0  0  0  0
 17 12  2  0  0  0  0
M  END
> <CdId>
2143

> <Mol Weight>
232.232

> <Formula>
C13H12O4

> <Click_ID>
CLK028_F09 __ __ 

$$$$
