CLK019_D07
 OpenBabel03191401532D

 25 26  0  0  0  0  0  0  0  0999 V2000
    3.4196    0.3841    0.0000 C    0  0  0  0  0  0  0  0  0  0  0  0
    1.2693    2.4258    0.0000 C    0  0  0  0  0  0  0  0  0  0  0  0
    3.4113    1.2108    0.0000 C    0  0  0  0  0  0  0  0  0  0  0  0
    1.9791    2.8392    0.0000 C    0  0  0  0  0  0  0  0  0  0  0  0
    1.2693    1.6033    0.0000 C    0  0  0  0  0  0  0  0  0  0  0  0
    2.6973    1.6116    0.0000 C    0  0  0  0  0  0  0  0  0  0  0  0
    4.1378   -0.0293    0.0000 C    0  0  0  0  0  0  0  0  0  0  0  0
    4.8517   -0.4426    0.0000 N    0  0  0  0  0  0  0  0  0  0  0  0
   -0.1503    4.0626    0.0000 C    0  0  0  0  0  0  0  0  0  0  0  0
   -0.8643    4.4760    0.0000 C    0  0  0  0  0  0  0  0  0  0  0  0
    2.7056   -0.0293    0.0000 C    0  0  0  0  0  0  0  0  0  0  0  0
    2.6931    2.4258    0.0000 C    0  0  0  0  0  0  0  0  0  0  0  0
    1.9833    1.1983    0.0000 C    0  0  0  0  0  0  0  0  0  0  0  0
    2.7056   -0.8685    0.0000 C    0  0  0  0  0  0  0  0  0  0  0  0
    1.9833    0.3758    0.0000 C    0  0  0  0  0  0  0  0  0  0  0  0
    1.9791    3.6534    0.0000 Br   0  0  0  0  0  0  0  0  0  0  0  0
    0.5553    2.8392    0.0000 O    0  0  0  0  0  0  0  0  0  0  0  0
    1.2693   -0.8685    0.0000 C    0  0  0  0  0  0  0  0  0  0  0  0
    0.5637    1.1983    0.0000 O    0  0  0  0  0  0  0  0  0  0  0  0
    1.2693   -0.0293    0.0000 C    0  0  0  0  0  0  0  0  0  0  0  0
    1.9833   -1.2819    0.0000 C    0  0  0  0  0  0  0  0  0  0  0  0
    0.5553   -1.2819    0.0000 Cl   0  0  0  0  0  0  0  0  0  0  0  0
    0.5553    3.6576    0.0000 C    0  0  0  0  0  0  0  0  0  0  0  0
    0.5679    0.3841    0.0000 C    0  0  0  0  0  0  0  0  0  0  0  0
   -0.1336   -0.0293    0.0000 C    0  0  0  0  0  0  0  0  0  0  0  0
  2  5  2  0  0  0  0
  3  1  2  0  0  0  0
  4 12  2  0  0  0  0
  4  2  1  0  0  0  0
  5 13  1  0  0  0  0
  6  3  1  0  0  0  0
  7  1  1  0  0  0  0
  8  7  3  0  0  0  0
  9 23  1  0  0  0  0
 10  9  3  0  0  0  0
 11  1  1  0  0  0  0
 12  6  1  0  0  0  0
 13  6  2  0  0  0  0
 14 11  1  0  0  0  0
 15 11  2  0  0  0  0
 16  4  1  0  0  0  0
 17  2  1  0  0  0  0
 18 20  2  0  0  0  0
 19  5  1  0  0  0  0
 20 15  1  0  0  0  0
 21 14  2  0  0  0  0
 21 18  1  0  0  0  0
 22 18  1  0  0  0  0
 23 17  1  0  0  0  0
 24 19  1  0  0  0  0
 25 24  1  0  0  0  0
M  END
> <CdId>
1432

> <Mol Weight>
416.696

> <Formula>
C20H15BrClNO2

> <Click_ID>
CLK019_D07 __ __ 

$$$$
