CLK003_B02
 OpenBabel03191401532D

 22 23  0  0  0  0  0  0  0  0999 V2000
   -0.4760    0.0111    0.0000 C    0  0  0  0  0  0  0  0  0  0  0  0
    0.2656   -0.4095    0.0000 C    0  0  0  0  0  0  0  0  0  0  0  0
   -1.1787   -0.4095    0.0000 C    0  0  0  0  0  0  0  0  0  0  0  0
   -0.4760    0.8134    0.0000 C    0  0  0  0  0  0  0  0  0  0  0  0
    0.2656   -1.2451    0.0000 C    0  0  0  0  0  0  0  0  0  0  0  0
    1.0347    0.0111    0.0000 C    0  0  0  0  0  0  0  0  0  0  0  0
   -1.1787   -1.2119    0.0000 C    0  0  0  0  0  0  0  0  0  0  0  0
   -1.8870    0.0387    0.0000 C    0  0  0  0  0  0  0  0  0  0  0  0
    0.2324    1.2284    0.0000 C    0  0  0  0  0  0  0  0  0  0  0  0
   -1.1787    1.2616    0.0000 C    0  0  0  0  0  0  0  0  0  0  0  0
   -0.4760   -1.6601    0.0000 N    0  0  0  0  0  0  0  0  0  0  0  0
    1.0015   -1.6601    0.0000 S    0  0  0  0  0  0  0  0  0  0  0  0
    1.7707    0.3928    0.0000 N    0  0  0  0  0  0  0  0  0  0  0  0
   -1.9202   -1.6269    0.0000 N    0  0  0  0  0  0  0  0  0  0  0  0
   -2.6229    0.4593    0.0000 N    0  0  0  0  0  0  0  0  0  0  0  0
    0.2324    2.0640    0.0000 C    0  0  0  0  0  0  0  0  0  0  0  0
   -1.1787    2.0640    0.0000 C    0  0  0  0  0  0  0  0  0  0  0  0
    1.7098   -1.2727    0.0000 C    0  0  0  0  0  0  0  0  0  0  0  0
   -0.4760    2.4790    0.0000 C    0  0  0  0  0  0  0  0  0  0  0  0
    0.9407    2.4790    0.0000 Cl   0  0  0  0  0  0  0  0  0  0  0  0
    2.4458   -1.6933    0.0000 C    0  0  0  0  0  0  0  0  0  0  0  0
    3.1541   -2.1083    0.0000 C    0  0  0  0  0  0  0  0  0  0  0  0
  1  2  1  0  0  0  0
  1  3  2  0  0  0  0
  1  4  1  0  0  0  0
  2  5  2  0  0  0  0
  2  6  1  0  0  0  0
  3  7  1  0  0  0  0
  3  8  1  0  0  0  0
  4  9  2  0  0  0  0
  4 10  1  0  0  0  0
  5 11  1  0  0  0  0
  5 12  1  0  0  0  0
  6 13  3  0  0  0  0
  7 14  1  0  0  0  0
  7 11  2  0  0  0  0
  8 15  3  0  0  0  0
  9 16  1  0  0  0  0
 10 17  2  0  0  0  0
 12 18  1  0  0  0  0
 16 19  2  0  0  0  0
 16 20  1  0  0  0  0
 17 19  1  0  0  0  0
 18 21  1  0  0  0  0
 21 22  3  0  0  0  0
M  END
> <CdId>
171

> <Mol Weight>
324.787

> <Formula>
C16H9ClN4S

> <Click_ID>
CLK003_B02 __ __ 

$$$$
