CLK042H09
 OpenBabel03191401532D

 19 21  0  0  0  0  0  0  0  0999 V2000
    0.5792    0.1333    0.0000 C   0  0  0  0  0  0  0  0  0  0  0  0
    0.5792    0.9583    0.0000 C   0  0  0  0  0  0  0  0  0  0  0  0
   -0.2042   -0.1208    0.0000 C   0  0  0  0  0  0  0  0  0  0  0  0
   -0.2042    1.2125    0.0000 S   0  0  0  0  0  0  0  0  0  0  0  0
   -0.6875    0.5458    0.0000 C   0  0  0  0  0  0  0  0  0  0  0  0
    1.2958   -0.2792    0.0000 C   0  0  0  0  0  0  0  0  0  0  0  0
    1.2958    1.3708    0.0000 N   0  0  0  0  0  0  0  0  0  0  0  0
    2.0083    0.1333    0.0000 N   0  0  0  0  0  0  0  0  0  0  0  0
    2.0083   -2.3417    0.0000 C   0  0  0  0  0  0  0  0  0  0  0  0
    2.0083   -3.1667    0.0000 C   0  0  0  0  0  0  0  0  0  0  0  0
    2.0083    0.9583    0.0000 C   0  0  0  0  0  0  0  0  0  0  0  0
   -1.5125    0.5458    0.0000 C   0  0  0  0  0  0  0  0  0  0  0  0
    1.2958   -1.1042    0.0000 N   0  0  0  0  0  0  0  0  0  0  0  0
    2.0083   -1.5167    0.0000 C   0  0  0  0  0  0  0  0  0  0  0  0
   -1.9250    1.2583    0.0000 C   0  0  0  0  0  0  0  0  0  0  0  0
   -1.9250   -0.1708    0.0000 C   0  0  0  0  0  0  0  0  0  0  0  0
   -2.7500   -0.1708    0.0000 C   0  0  0  0  0  0  0  0  0  0  0  0
   -2.7500    1.2583    0.0000 C   0  0  0  0  0  0  0  0  0  0  0  0
   -3.1625    0.5458    0.0000 C   0  0  0  0  0  0  0  0  0  0  0  0
  2  1  1  0  0  0  0
  3  1  1  0  0  0  0
  4  2  1  0  0  0  0
  5  3  2  0  0  0  0
  5  4  1  0  0  0  0
  6  1  2  0  0  0  0
  7  2  2  0  0  0  0
  8  6  1  0  0  0  0
  9 14  1  0  0  0  0
 10  9  3  0  0  0  0
 11  7  1  0  0  0  0
 11  8  2  0  0  0  0
 12  5  1  0  0  0  0
 13  6  1  0  0  0  0
 14 13  1  0  0  0  0
 15 12  1  0  0  0  0
 16 12  2  0  0  0  0
 17 16  1  0  0  0  0
 18 15  2  0  0  0  0
 19 17  2  0  0  0  0
 19 18  1  0  0  0  0
M  END
> <CdId>
3232

> <Mol Weight>
265.333

> <Formula>
C15H11N3S

> <Click_ID>
CLK042H09 __ __ 

$$$$
