CLK046B11
 OpenBabel03191401532D

 27 29  0  0  0  0  0  0  0  0999 V2000
    0.8125   -1.4750    0.0000 S   0  0  0  0  0  0  0  0  0  0  0  0
   -0.6167    1.0000    0.0000 C   0  0  0  0  0  0  0  0  0  0  0  0
    1.5250   -1.8875    0.0000 N   0  0  0  0  0  0  0  0  0  0  0  0
    0.0958   -1.0625    0.0000 C   0  0  0  0  0  0  0  0  0  0  0  0
   -1.3333    1.4125    0.0000 N   0  0  0  0  0  0  0  0  0  0  0  0
   -2.7625    3.8875    0.0000 C   0  0  0  0  0  0  0  0  0  0  0  0
   -0.6167    0.1750    0.0000 C   0  0  0  0  0  0  0  0  0  0  0  0
    2.2417   -3.1250    0.0000 C   0  0  0  0  0  0  0  0  0  0  0  0
    0.0958   -0.2375    0.0000 C   0  0  0  0  0  0  0  0  0  0  0  0
   -3.4750    4.2958    0.0000 C   0  0  0  0  0  0  0  0  0  0  0  0
    2.9958   -2.7917    0.0000 S   0  0  0  0  0  0  0  0  0  0  0  0
    0.4000   -2.1917    0.0000 O   0  0  0  0  0  0  0  0  0  0  0  0
    1.2250   -0.7625    0.0000 O   0  0  0  0  0  0  0  0  0  0  0  0
    1.5250   -2.7125    0.0000 C   0  0  0  0  0  0  0  0  0  0  0  0
    0.0958    1.4125    0.0000 O   0  0  0  0  0  0  0  0  0  0  0  0
    3.5458   -3.4042    0.0000 C   0  0  0  0  0  0  0  0  0  0  0  0
   -1.3333    2.2375    0.0000 C   0  0  0  0  0  0  0  0  0  0  0  0
    2.3250   -3.9458    0.0000 C   0  0  0  0  0  0  0  0  0  0  0  0
    3.1333   -4.1167    0.0000 C   0  0  0  0  0  0  0  0  0  0  0  0
   -2.0458    3.4750    0.0000 C   0  0  0  0  0  0  0  0  0  0  0  0
   -2.0458    2.6500    0.0000 C   0  0  0  0  0  0  0  0  0  0  0  0
   -0.6167   -1.4750    0.0000 C   0  0  0  0  0  0  0  0  0  0  0  0
   -1.3333   -0.2375    0.0000 C   0  0  0  0  0  0  0  0  0  0  0  0
   -1.3333   -1.0625    0.0000 C   0  0  0  0  0  0  0  0  0  0  0  0
   -0.6167    3.4750    0.0000 C   0  0  0  0  0  0  0  0  0  0  0  0
   -0.6167    2.6500    0.0000 C   0  0  0  0  0  0  0  0  0  0  0  0
   -1.3333    3.8875    0.0000 C   0  0  0  0  0  0  0  0  0  0  0  0
  2  7  1  0  0  0  0
  3  1  1  0  0  0  0
  4  1  1  0  0  0  0
  5  2  1  0  0  0  0
  6 20  1  0  0  0  0
  7  9  2  0  0  0  0
  8 14  1  0  0  0  0
  9  4  1  0  0  0  0
 10  6  3  0  0  0  0
 11  8  1  0  0  0  0
 12  1  2  0  0  0  0
 13  1  2  0  0  0  0
 14  3  1  0  0  0  0
 15  2  2  0  0  0  0
 16 11  1  0  0  0  0
 16 19  2  0  0  0  0
 17  5  1  0  0  0  0
 18  8  2  0  0  0  0
 19 18  1  0  0  0  0
 20 21  1  0  0  0  0
 21 17  2  0  0  0  0
 22  4  2  0  0  0  0
 23  7  1  0  0  0  0
 24 22  1  0  0  0  0
 24 23  2  0  0  0  0
 25 26  2  0  0  0  0
 26 17  1  0  0  0  0
 27 20  2  0  0  0  0
 27 25  1  0  0  0  0
M  END
> <CdId>
3562

> <Mol Weight>
396.483

> <Formula>
C20H16N2O3S2

> <Click_ID>
CLK046B11 __ __ 

$$$$
