CLK002_C10
 OpenBabel03191401532D

 32 36  0  0  0  0  0  0  0  0999 V2000
   -1.3552   -0.4991    0.0000 C   0  0  0  0  0  0  0  0  0  0  0  0
   -0.6491   -0.1164    0.0000 C   0  0  0  0  0  0  0  0  0  0  0  0
   -2.0741   -0.1164    0.0000 C   0  0  0  0  0  0  0  0  0  0  0  0
   -2.0431   -0.8896    0.0000 C   0  0  0  0  0  0  0  0  0  0  0  0
   -0.6491   -0.8948    0.0000 C   0  0  0  0  0  0  0  0  0  0  0  0
   -0.6491    0.7086    0.0000 C   0  0  0  0  0  0  0  0  0  0  0  0
    0.0802   -0.4991    0.0000 C   0  0  0  0  0  0  0  0  0  0  0  0
   -2.0741    0.7086    0.0000 C   0  0  0  0  0  0  0  0  0  0  0  0
   -2.0431   -1.7353    0.0000 C   0  0  0  0  0  0  0  0  0  0  0  0
   -0.6491   -1.7353    0.0000 C   0  0  0  0  0  0  0  0  0  0  0  0
   -1.3552    1.1586    0.0000 C   0  0  0  0  0  0  0  0  0  0  0  0
    0.0802    1.1586    0.0000 N   0  0  0  0  0  0  0  0  0  0  0  0
    0.8198   -0.1164    0.0000 N   0  0  0  0  0  0  0  0  0  0  0  0
    0.0802   -1.3448    0.0000 O   0  0  0  0  0  0  0  0  0  0  0  0
   -2.7853    1.1586    0.0000 C   0  0  0  0  0  0  0  0  0  0  0  0
   -1.3552   -2.1259    0.0000 C   0  0  0  0  0  0  0  0  0  0  0  0
   -1.3552    1.9836    0.0000 C   0  0  0  0  0  0  0  0  0  0  0  0
    0.8198    0.7086    0.0000 C   0  0  0  0  0  0  0  0  0  0  0  0
    1.5207   -0.5302    0.0000 C   0  0  3  0  0  0  0  0  0  0  0  0
   -2.7853    1.9836    0.0000 C   0  0  0  0  0  0  0  0  0  0  0  0
   -2.0741    2.3897    0.0000 C   0  0  0  0  0  0  0  0  0  0  0  0
    1.5698    1.0914    0.0000 S   0  0  0  0  0  0  0  0  0  0  0  0
    1.5207   -1.3448    0.0000 C   0  0  0  0  0  0  0  0  0  0  0  0
    2.2319   -0.1164    0.0000 C   0  0  0  0  0  0  0  0  0  0  0  0
    1.5698    1.9241    0.0000 C   0  0  0  0  0  0  0  0  0  0  0  0
    2.2396   -1.7664    0.0000 C   0  0  0  0  0  0  0  0  0  0  0  0
    2.9457   -0.5302    0.0000 C   0  0  0  0  0  0  0  0  0  0  0  0
    0.8509    2.3353    0.0000 C   0  0  0  0  0  0  0  0  0  0  0  0
    2.9457   -1.3448    0.0000 O   0  0  0  0  0  0  0  0  0  0  0  0
    1.5259   -2.1491    0.0000 C   0  0  0  0  0  0  0  0  0  0  0  0
    2.9353   -2.1802    0.0000 C   0  0  0  0  0  0  0  0  0  0  0  0
    0.1448    2.7414    0.0000 C   0  0  0  0  0  0  0  0  0  0  0  0
  1  2  1  0  0  0  0
  1  3  1  0  0  0  0
  1  4  1  0  0  0  0
  1  5  1  0  0  0  0
  2  6  2  0  0  0  0
  2  7  1  0  0  0  0
  3  8  1  0  0  0  0
  4  9  1  0  0  0  0
  5 10  1  0  0  0  0
  6 11  1  0  0  0  0
  6 12  1  0  0  0  0
  7 13  1  0  0  0  0
  7 14  2  0  0  0  0
  8 15  2  0  0  0  0
  8 11  1  0  0  0  0
  9 16  1  0  0  0  0
 10 16  1  0  0  0  0
 11 17  2  0  0  0  0
 12 18  2  0  0  0  0
 13 19  1  0  0  0  0
 13 18  1  0  0  0  0
 15 20  1  0  0  0  0
 17 21  1  0  0  0  0
 18 22  1  0  0  0  0
 19 23  1  0  0  0  0
 19 24  1  0  0  0  0
 20 21  2  0  0  0  0
 22 25  1  0  0  0  0
 23 26  1  0  0  0  0
 24 27  1  0  0  0  0
 25 28  1  0  0  0  0
 26 29  1  0  0  0  0
 26 30  1  0  0  0  0
 26 31  1  0  0  0  0
 27 29  1  0  0  0  0
 28 32  3  0  0  0  0
M  END
> <CdId>
109

> <Mol Weight>
448.62

> <Formula>
C27H32N2O2S

> <Click_ID>
CLK002_C10 __ __ 

$$$$
