CLK011_D05
 OpenBabel03191401532D

 31 33  0  0  0  0  0  0  0  0999 V2000
   -1.5208   -2.2034    0.0000 N    0  0  0  0  0  0  0  0  0  0  0  0
   -0.8062   -2.6157    0.0000 C    0  0  0  0  0  0  0  0  0  0  0  0
   -2.2354   -2.6157    0.0000 C    0  0  0  0  0  0  0  0  0  0  0  0
   -0.8062   -3.4402    0.0000 C    0  0  0  0  0  0  0  0  0  0  0  0
   -2.2354   -3.4402    0.0000 N    0  0  0  0  0  0  0  0  0  0  0  0
   -1.5208   -3.8525    0.0000 C    0  0  0  0  0  0  0  0  0  0  0  0
   -1.5208   -1.3789    0.0000 C    0  0  0  0  0  0  0  0  0  0  0  0
   -0.0916    0.2702    0.0000 C    0  0  0  0  0  0  0  0  0  0  0  0
   -0.0916   -3.8525    0.0000 C    0  0  0  0  0  0  0  0  0  0  0  0
   -0.8062   -0.9666    0.0000 C    0  0  0  0  0  0  0  0  0  0  0  0
   -0.8062   -0.1420    0.0000 C    0  0  0  0  0  0  0  0  0  0  0  0
    3.4814   -0.9666    0.0000 C    0  0  0  0  0  0  0  0  0  0  0  0
   -2.9500   -2.2034    0.0000 O    0  0  0  0  0  0  0  0  0  0  0  0
   -2.2263   -0.9666    0.0000 C    0  0  0  0  0  0  0  0  0  0  0  0
   -0.0916   -2.2034    0.0000 O    0  0  0  0  0  0  0  0  0  0  0  0
    3.4814   -0.1420    0.0000 C    0  0  0  0  0  0  0  0  0  0  0  0
   -1.5208   -4.6770    0.0000 O    0  0  0  0  0  0  0  0  0  0  0  0
   -1.5208    0.2702    0.0000 C    0  0  0  0  0  0  0  0  0  0  0  0
   -2.2263   -0.1420    0.0000 C    0  0  0  0  0  0  0  0  0  0  0  0
    0.6230   -0.1420    0.0000 F    0  0  0  0  0  0  0  0  0  0  0  0
   -0.0916    1.0948    0.0000 F    0  0  0  0  0  0  0  0  0  0  0  0
    0.7330    0.2702    0.0000 F    0  0  0  0  0  0  0  0  0  0  0  0
    0.6230   -3.4402    0.0000 C    0  0  0  0  0  0  0  0  0  0  0  0
   -2.9409   -1.3789    0.0000 Cl   0  0  0  0  0  0  0  0  0  0  0  0
    2.0522   -2.6157    0.0000 C    0  0  0  0  0  0  0  0  0  0  0  0
    1.3376   -3.8525    0.0000 C    0  0  0  0  0  0  0  0  0  0  0  0
    0.6230   -2.6157    0.0000 C    0  0  0  0  0  0  0  0  0  0  0  0
    2.0522   -3.4402    0.0000 C    0  0  0  0  0  0  0  0  0  0  0  0
    1.3376   -2.2034    0.0000 C    0  0  0  0  0  0  0  0  0  0  0  0
    2.7668   -1.3789    0.0000 C    0  0  0  0  0  0  0  0  0  0  0  0
    2.7668   -2.2034    0.0000 O    0  0  0  0  0  0  0  0  0  0  0  0
  2  1  1  0  0  0  0
  3  1  1  0  0  0  0
  4  2  1  0  0  0  0
  4  6  1  0  0  0  0
  5  3  1  0  0  0  0
  6  5  1  0  0  0  0
  7  1  1  0  0  0  0
  8 11  1  0  0  0  0
  9  4  2  0  0  0  0
 10  7  1  0  0  0  0
 11 10  2  0  0  0  0
 12 30  1  0  0  0  0
 13  3  2  0  0  0  0
 14  7  2  0  0  0  0
 15  2  2  0  0  0  0
 16 12  3  0  0  0  0
 17  6  2  0  0  0  0
 18 19  2  0  0  0  0
 18 11  1  0  0  0  0
 19 14  1  0  0  0  0
 20  8  1  0  0  0  0
 21  8  1  0  0  0  0
 22  8  1  0  0  0  0
 23  9  1  0  0  0  0
 24 14  1  0  0  0  0
 25 29  2  0  0  0  0
 25 28  1  0  0  0  0
 26 23  1  0  0  0  0
 27 23  2  0  0  0  0
 28 26  2  0  0  0  0
 29 27  1  0  0  0  0
 30 31  1  0  0  0  0
 31 25  1  0  0  0  0
M  END
> <CdId>
790

> <Mol Weight>
448.779

> <Formula>
C21H12ClF3N2O4

> <Click_ID>
CLK011_D05 __ __ 

$$$$
