CLK030_B06
 OpenBabel03191401532D

 24 26  0  0  0  0  0  0  0  0999 V2000
   -1.1649    2.3882    0.0000 C    0  0  0  0  0  0  0  0  0  0  0  0
   -0.3382    2.3799    0.0000 N    0  0  0  0  0  0  0  0  0  0  0  0
   -1.6492    1.7244    0.0000 N    0  0  0  0  0  0  0  0  0  0  0  0
   -1.6492    3.0563    0.0000 S    0  0  0  0  0  0  0  0  0  0  0  0
   -4.5928    3.2192    0.0000 N    0  0  0  0  0  0  0  0  0  0  0  0
   -2.4383    2.8016    0.0000 C    0  0  0  0  0  0  0  0  0  0  0  0
    0.0752    3.0939    0.0000 C    0  0  0  0  0  0  0  0  0  0  0  0
   -2.4383    1.9749    0.0000 C    0  0  0  0  0  0  0  0  0  0  0  0
    0.9019    3.0939    0.0000 C    0  0  0  0  0  0  0  0  0  0  0  0
    1.4029    2.4175    0.0000 S    0  0  0  0  0  0  0  0  0  0  0  0
    2.1837    2.6763    0.0000 C    0  0  0  0  0  0  0  0  0  0  0  0
   -3.1523    3.2149    0.0000 C    0  0  0  0  0  0  0  0  0  0  0  0
   -3.8663    2.8016    0.0000 C    0  0  0  0  0  0  0  0  0  0  0  0
    1.3946    3.7536    0.0000 C    0  0  0  0  0  0  0  0  0  0  0  0
    2.1795    3.5030    0.0000 C    0  0  0  0  0  0  0  0  0  0  0  0
   -1.9498    0.3215    0.0000 C    0  0  0  0  0  0  0  0  0  0  0  0
   -3.1523    1.5615    0.0000 C    0  0  0  0  0  0  0  0  0  0  0  0
   -2.5010   -0.2923    0.0000 C    0  0  0  0  0  0  0  0  0  0  0  0
   -4.5928    4.0376    0.0000 O    0  0  0  0  0  0  0  0  0  0  0  0
   -5.3068    2.8058    0.0000 O    0  0  0  0  0  0  0  0  0  0  0  0
   -0.3382    3.8079    0.0000 O    0  0  0  0  0  0  0  0  0  0  0  0
   -3.8663    1.9749    0.0000 C    0  0  0  0  0  0  0  0  0  0  0  0
   -1.3987    0.9352    0.0000 C    0  0  0  0  0  0  0  0  0  0  0  0
    2.8726    2.2004    0.0000 Br   0  0  0  0  0  0  0  0  0  0  0  0
  2  1  2  0  0  0  0
  3  1  1  0  0  0  0
  4  1  1  0  0  0  0
  5 13  1  0  0  0  0
  6  4  1  0  0  0  0
  6  8  2  0  0  0  0
  7  2  1  0  0  0  0
  8  3  1  0  0  0  0
  9  7  1  0  0  0  0
 10  9  1  0  0  0  0
 11 10  1  0  0  0  0
 11 15  2  0  0  0  0
 12  6  1  0  0  0  0
 13 12  2  0  0  0  0
 13 22  1  0  0  0  0
 14  9  2  0  0  0  0
 15 14  1  0  0  0  0
 16 23  1  0  0  0  0
 17  8  1  0  0  0  0
 18 16  3  0  0  0  0
 19  5  1  0  0  0  0
 20  5  2  0  0  0  0
 21  7  2  0  0  0  0
 22 17  2  0  0  0  0
 23  3  1  0  0  0  0
 24 11  1  0  0  0  0
M  END
> <CdId>
2260

> <Mol Weight>
422.276

> <Formula>
C15H8BrN3O3S2

> <Click_ID>
CLK030_B06 __ __ 

$$$$
