CLK019_G02
 OpenBabel03191401532D

 16 16  0  0  0  0  0  0  0  0999 V2000
    3.9278   -0.5772    0.0000 C    0  0  0  0  0  0  0  0  0  0  0  0
    2.9645   -1.6359    0.0000 C    0  0  0  0  0  0  0  0  0  0  0  0
    3.7492   -1.3826    0.0000 C    0  0  0  0  0  0  0  0  0  0  0  0
    3.3132   -0.0166    0.0000 C    0  0  0  0  0  0  0  0  0  0  0  0
    2.3542   -1.0878    0.0000 C    0  0  0  0  0  0  0  0  0  0  0  0
    4.4509    1.8393    0.0000 C    0  0  0  0  0  0  0  0  0  0  0  0
    2.5203   -0.2782    0.0000 C    0  0  0  0  0  0  0  0  0  0  0  0
    4.6253    2.6531    0.0000 C    0  0  0  0  0  0  0  0  0  0  0  0
    4.3637   -1.9307    0.0000 Br   0  0  0  0  0  0  0  0  0  0  0  0
    3.4918    0.7847    0.0000 O    0  0  0  0  0  0  0  0  0  0  0  0
    1.9224    0.2698    0.0000 O    0  0  0  0  0  0  0  0  0  0  0  0
    2.8026   -2.4538    0.0000 C    0  0  0  0  0  0  0  0  0  0  0  0
    4.2641    1.0421    0.0000 C    0  0  0  0  0  0  0  0  0  0  0  0
    2.0096   -2.7071    0.0000 O    0  0  0  0  0  0  0  0  0  0  0  0
    1.1335    0.0207    0.0000 C    0  0  0  0  0  0  0  0  0  0  0  0
    0.5273    0.5688    0.0000 C    0  0  0  0  0  0  0  0  0  0  0  0
  2  3  1  0  0  0  0
  3  1  2  0  0  0  0
  4  1  1  0  0  0  0
  5  7  1  0  0  0  0
  5  2  2  0  0  0  0
  6 13  1  0  0  0  0
  7  4  2  0  0  0  0
  8  6  3  0  0  0  0
  9  3  1  0  0  0  0
 10  4  1  0  0  0  0
 11  7  1  0  0  0  0
 12  2  1  0  0  0  0
 13 10  1  0  0  0  0
 14 12  1  0  0  0  0
 15 11  1  0  0  0  0
 16 15  1  0  0  0  0
M  END
> <CdId>
1457

> <Mol Weight>
285.134

> <Formula>
C12H13BrO3

> <Click_ID>
CLK019_G02 __ __ 

$$$$
