CLK044F04
 OpenBabel03191401532D

 26 27  0  0  0  0  0  0  0  0999 V2000
   -0.6929    0.9433    0.0000 N   0  0  0  0  0  0  0  0  0  0  0  0
   -0.2087    1.6110    0.0000 C   0  0  0  0  0  0  0  0  0  0  0  0
   -0.2087    0.2713    0.0000 C   0  0  0  0  0  0  0  0  0  0  0  0
    0.5760    1.3565    0.0000 N   0  0  0  0  0  0  0  0  0  0  0  0
    0.5760    0.5301    0.0000 N   0  0  0  0  0  0  0  0  0  0  0  0
   -0.4633    2.3958    0.0000 C   0  0  0  0  0  0  0  0  0  0  0  0
   -0.4633   -0.5134    0.0000 S   0  0  0  0  0  0  0  0  0  0  0  0
   -0.1252   -4.0987    0.0000 C   0  0  0  0  0  0  0  0  0  0  0  0
   -0.3798   -4.8833    0.0000 C   0  0  0  0  0  0  0  0  0  0  0  0
   -0.1670   -1.9116    0.0000 C   0  0  0  0  0  0  0  0  0  0  0  0
    0.0876    3.0093    0.0000 C   0  0  0  0  0  0  0  0  0  0  0  0
    0.3882   -2.5251    0.0000 N   0  0  0  0  0  0  0  0  0  0  0  0
    0.1294   -3.3139    0.0000 C   0  0  0  0  0  0  0  0  0  0  0  0
   -1.5193    0.9433    0.0000 N   0  0  0  0  0  0  0  0  0  0  0  0
   -0.1670    3.7982    0.0000 C   0  0  0  0  0  0  0  0  0  0  0  0
   -0.9767   -2.0827    0.0000 O   0  0  0  0  0  0  0  0  0  0  0  0
    0.0876   -1.1269    0.0000 C   0  0  0  0  0  0  0  0  0  0  0  0
   -0.9767    3.9693    0.0000 F   0  0  0  0  0  0  0  0  0  0  0  0
    0.8973    2.8381    0.0000 C   0  0  0  0  0  0  0  0  0  0  0  0
    0.9183   -3.5686    0.0000 C   0  0  0  0  0  0  0  0  0  0  0  0
   -0.6553   -3.0594    0.0000 C   0  0  0  0  0  0  0  0  0  0  0  0
    0.3882    4.4075    0.0000 C   0  0  0  0  0  0  0  0  0  0  0  0
   -0.8264   -2.2496    0.0000 C   0  0  0  0  0  0  0  0  0  0  0  0
    1.0894   -4.3783    0.0000 C   0  0  0  0  0  0  0  0  0  0  0  0
    1.4483    3.4517    0.0000 C   0  0  0  0  0  0  0  0  0  0  0  0
    1.1937    4.2364    0.0000 C   0  0  0  0  0  0  0  0  0  0  0  0
  2  1  1  0  0  0  0
  3  1  1  0  0  0  0
  4  2  2  0  0  0  0
  4  5  1  0  0  0  0
  5  3  2  0  0  0  0
  6  2  1  0  0  0  0
  7  3  1  0  0  0  0
  8 13  1  0  0  0  0
  9  8  3  0  0  0  0
 10 17  1  0  0  0  0
 11  6  1  0  0  0  0
 12 10  1  0  0  0  0
 13 12  1  0  0  0  0
 14  1  1  0  0  0  0
 15 11  2  0  0  0  0
 16 10  2  0  0  0  0
 17  7  1  0  0  0  0
 18 15  1  0  0  0  0
 19 11  1  0  0  0  0
 20 13  1  0  0  0  0
 21 13  1  0  0  0  0
 22 15  1  0  0  0  0
 23 21  1  0  0  0  0
 24 20  1  0  0  0  0
 25 19  2  0  0  0  0
 26 22  2  0  0  0  0
 26 25  1  0  0  0  0
M  END
> <CdId>
3350

> <Mol Weight>
375.464

> <Formula>
C18H22FN5OS

> <Click_ID>
CLK044F04 __ __ 

$$$$
