CLK040E05
 OpenBabel03191401532D

 23 24  0  0  0  0  0  0  0  0999 V2000
   -0.2208   -0.8042    0.0000 S   0  0  0  0  0  0  0  0  0  0  0  0
   -0.2208    0.0208    0.0000 N   0  0  0  0  0  0  0  0  0  0  0  0
   -0.2208    2.4958    0.0000 C   0  0  0  0  0  0  0  0  0  0  0  0
   -0.2208    1.6708    0.0000 N   0  0  0  0  0  0  0  0  0  0  0  0
   -0.2208   -1.6292    0.0000 C   0  0  0  0  0  0  0  0  0  0  0  0
    0.6042   -0.8042    0.0000 O   0  0  0  0  0  0  0  0  0  0  0  0
   -1.0458   -0.8042    0.0000 O   0  0  0  0  0  0  0  0  0  0  0  0
   -0.9333    0.4333    0.0000 C   0  0  0  0  0  0  0  0  0  0  0  0
    0.4958    0.4333    0.0000 C   0  0  0  0  0  0  0  0  0  0  0  0
    1.2083    4.1417    0.0000 C   0  0  0  0  0  0  0  0  0  0  0  0
    1.9250    4.5542    0.0000 C   0  0  0  0  0  0  0  0  0  0  0  0
    0.4958    1.2583    0.0000 C   0  0  0  0  0  0  0  0  0  0  0  0
   -0.9333    1.2583    0.0000 C   0  0  0  0  0  0  0  0  0  0  0  0
   -0.9333    2.9083    0.0000 O   0  0  0  0  0  0  0  0  0  0  0  0
    0.4958    2.9083    0.0000 N   0  0  0  0  0  0  0  0  0  0  0  0
    0.4958   -2.0417    0.0000 C   0  0  0  0  0  0  0  0  0  0  0  0
   -0.9333   -2.0417    0.0000 C   0  0  0  0  0  0  0  0  0  0  0  0
   -0.2208   -3.2792    0.0000 C   0  0  0  0  0  0  0  0  0  0  0  0
    0.4958   -2.8667    0.0000 C   0  0  0  0  0  0  0  0  0  0  0  0
   -0.9333   -2.8667    0.0000 C   0  0  0  0  0  0  0  0  0  0  0  0
    0.4958    3.7333    0.0000 C   0  0  0  0  0  0  0  0  0  0  0  0
   -0.2208   -4.1042    0.0000 O   0  0  0  0  0  0  0  0  0  0  0  0
    0.4958   -4.5167    0.0000 C   0  0  0  0  0  0  0  0  0  0  0  0
  2  1  1  0  0  0  0
  3  4  1  0  0  0  0
  4 13  1  0  0  0  0
  4 12  1  0  0  0  0
  5  1  1  0  0  0  0
  6  1  2  0  0  0  0
  7  1  2  0  0  0  0
  8  2  1  0  0  0  0
  9  2  1  0  0  0  0
 10 21  1  0  0  0  0
 11 10  3  0  0  0  0
 12  9  1  0  0  0  0
 13  8  1  0  0  0  0
 14  3  2  0  0  0  0
 15  3  1  0  0  0  0
 16  5  1  0  0  0  0
 17  5  2  0  0  0  0
 18 20  2  0  0  0  0
 19 16  2  0  0  0  0
 19 18  1  0  0  0  0
 20 17  1  0  0  0  0
 21 15  1  0  0  0  0
 22 18  1  0  0  0  0
 23 22  1  0  0  0  0
M  END
> <CdId>
3037

> <Mol Weight>
337.394

> <Formula>
C15H19N3O4S

> <Click_ID>
CLK040E05 __ __ 

$$$$
