CLK002_B10
 OpenBabel03191401532D

 29 31  0  0  0  0  0  0  0  0999 V2000
    1.8878    0.1816    0.0000 C   0  0  0  0  0  0  0  0  0  0  0  0
    2.4363   -0.4351    0.0000 C   0  0  0  0  0  0  0  0  0  0  0  0
    1.1387   -0.1589    0.0000 C   0  0  0  0  0  0  0  0  0  0  0  0
    2.1375    0.9609    0.0000 C   0  0  0  0  0  0  0  0  0  0  0  0
    2.0239   -1.1501    0.0000 N   0  0  0  0  0  0  0  0  0  0  0  0
    3.2459   -0.2686    0.0000 C   0  0  0  0  0  0  0  0  0  0  0  0
    1.2181   -0.9722    0.0000 C   0  0  0  0  0  0  0  0  0  0  0  0
    0.4237    0.2534    0.0000 N   0  0  0  0  0  0  0  0  0  0  0  0
    2.9470    1.1274    0.0000 C   0  0  0  0  0  0  0  0  0  0  0  0
    2.3569   -1.8991    0.0000 C   0  0  0  0  0  0  0  0  0  0  0  0
    3.4956    0.5221    0.0000 C   0  0  0  0  0  0  0  0  0  0  0  0
    0.6015   -1.5208    0.0000 O   0  0  0  0  0  0  0  0  0  0  0  0
    0.4237    1.0782    0.0000 N   0  0  0  0  0  0  0  0  0  0  0  0
    1.8726   -2.5612    0.0000 C   0  0  0  0  0  0  0  0  0  0  0  0
   -0.2875    1.4868    0.0000 C   0  0  0  0  0  0  0  0  0  0  0  0
    1.3846   -3.2307    0.0000 C   0  0  0  0  0  0  0  0  0  0  0  0
   -1.0025    1.0782    0.0000 C   0  0  0  0  0  0  0  0  0  0  0  0
   -0.2875    2.3115    0.0000 O   0  0  0  0  0  0  0  0  0  0  0  0
   -1.0025    0.2497    0.0000 C   0  0  0  0  0  0  0  0  0  0  0  0
   -1.7213    1.4981    0.0000 C   0  0  0  0  0  0  0  0  0  0  0  0
   -1.7213   -0.1627    0.0000 C   0  0  0  0  0  0  0  0  0  0  0  0
   -2.4287    1.0782    0.0000 C   0  0  0  0  0  0  0  0  0  0  0  0
   -2.4287    0.2497    0.0000 C   0  0  0  0  0  0  0  0  0  0  0  0
   -1.7213   -0.9798    0.0000 O   0  0  0  0  0  0  0  0  0  0  0  0
   -3.1476    1.4868    0.0000 O   0  0  0  0  0  0  0  0  0  0  0  0
   -3.1400   -0.1627    0.0000 O   0  0  0  0  0  0  0  0  0  0  0  0
   -2.4325   -1.3922    0.0000 C   0  0  0  0  0  0  0  0  0  0  0  0
   -3.1476    2.3115    0.0000 C   0  0  0  0  0  0  0  0  0  0  0  0
   -3.1400   -0.9837    0.0000 C   0  0  0  0  0  0  0  0  0  0  0  0
  1  2  2  0  0  0  0
  1  3  1  0  0  0  0
  1  4  1  0  0  0  0
  2  5  1  0  0  0  0
  2  6  1  0  0  0  0
  3  7  1  0  0  0  0
  3  8  2  0  0  0  0
  4  9  2  0  0  0  0
  5 10  1  0  0  0  0
  5  7  1  0  0  0  0
  6 11  2  0  0  0  0
  7 12  2  0  0  0  0
  8 13  1  0  0  0  0
  9 11  1  0  0  0  0
 10 14  1  0  0  0  0
 13 15  1  0  0  0  0
 14 16  3  0  0  0  0
 15 17  1  0  0  0  0
 15 18  2  0  0  0  0
 17 19  2  0  0  0  0
 17 20  1  0  0  0  0
 19 21  1  0  0  0  0
 20 22  2  0  0  0  0
 21 23  2  0  0  0  0
 21 24  1  0  0  0  0
 22 25  1  0  0  0  0
 22 23  1  0  0  0  0
 23 26  1  0  0  0  0
 24 27  1  0  0  0  0
 25 28  1  0  0  0  0
 26 29  1  0  0  0  0
M  END
> <CdId>
99

> <Mol Weight>
393.3927

> <Formula>
C21H19N3O5

> <Click_ID>
CLK002_B10 __ __ 

$$$$
