CLK024_D11
 OpenBabel03191401532D

 28 31  0  0  0  0  0  0  0  0999 V2000
   -2.2039   -0.7450    0.0000 N   0  0  0  0  0  0  0  0  0  0  0  0
    1.4383    0.7518    0.0000 N   0  0  0  0  0  0  0  0  0  0  0  0
    0.1133    0.7415    0.0000 C   0  0  0  0  0  0  0  0  0  0  0  0
   -1.5345   -1.2324    0.0000 C   0  0  0  0  0  0  0  0  0  0  0  0
   -1.1226    0.0274    0.0000 C   0  0  0  0  0  0  0  0  0  0  0  0
   -1.9464    0.0377    0.0000 C   0  0  0  0  0  0  0  0  0  0  0  0
    0.7759    1.2358    0.0000 C   0  0  0  0  0  0  0  0  0  0  0  0
   -0.7106    0.7483    0.0000 C   0  0  0  0  0  0  0  0  0  0  0  0
   -0.8719   -0.7483    0.0000 S   0  0  0  0  0  0  0  0  0  0  0  0
    1.1981   -0.0241    0.0000 C   0  0  0  0  0  0  0  0  0  0  0  0
    0.3742   -0.0377    0.0000 C   0  0  0  0  0  0  0  0  0  0  0  0
    2.2210    1.0093    0.0000 C   0  0  0  0  0  0  0  0  0  0  0  0
   -3.6148   -0.4634    0.0000 C   0  0  0  0  0  0  0  0  0  0  0  0
   -4.2396    0.0858    0.0000 C   0  0  0  0  0  0  0  0  0  0  0  0
   -1.5448   -2.0460    0.0000 O   0  0  0  0  0  0  0  0  0  0  0  0
   -2.4408    0.7038    0.0000 O   0  0  0  0  0  0  0  0  0  0  0  0
   -2.9969   -1.0127    0.0000 C   0  0  0  0  0  0  0  0  0  0  0  0
    0.7656    2.0494    0.0000 C   0  0  0  0  0  0  0  0  0  0  0  0
    2.8390    0.4669    0.0000 C   0  0  0  0  0  0  0  0  0  0  0  0
    1.6134   -0.7380    0.0000 C   0  0  0  0  0  0  0  0  0  0  0  0
   -0.0344   -0.7586    0.0000 C   0  0  0  0  0  0  0  0  0  0  0  0
    2.6708   -0.3364    0.0000 C   0  0  0  0  0  0  0  0  0  0  0  0
    3.6114    0.7277    0.0000 C   0  0  0  0  0  0  0  0  0  0  0  0
    1.2015   -1.4624    0.0000 C   0  0  0  0  0  0  0  0  0  0  0  0
    0.3879   -1.4692    0.0000 C   0  0  0  0  0  0  0  0  0  0  0  0
    4.2362    0.1854    0.0000 C   0  0  0  0  0  0  0  0  0  0  0  0
    3.2887   -0.8857    0.0000 C   0  0  0  0  0  0  0  0  0  0  0  0
    4.0680   -0.6248    0.0000 C   0  0  0  0  0  0  0  0  0  0  0  0
  2  7  1  0  0  0  0
  2 10  1  0  0  0  0
  3  8  1  0  0  0  0
  4  1  1  0  0  0  0
  5  6  1  0  0  0  0
  6  1  1  0  0  0  0
  7  3  2  0  0  0  0
  8  5  2  0  0  0  0
  9  4  1  0  0  0  0
  9  5  1  0  0  0  0
 10 11  1  0  0  0  0
 11  3  1  0  0  0  0
 12  2  1  0  0  0  0
 13 17  1  0  0  0  0
 14 13  3  0  0  0  0
 15  4  2  0  0  0  0
 16  6  2  0  0  0  0
 17  1  1  0  0  0  0
 18  7  1  0  0  0  0
 19 12  1  0  0  0  0
 20 10  2  0  0  0  0
 20 24  1  0  0  0  0
 21 11  2  0  0  0  0
 22 19  2  0  0  0  0
 23 19  1  0  0  0  0
 24 25  2  0  0  0  0
 25 21  1  0  0  0  0
 26 23  2  0  0  0  0
 27 22  1  0  0  0  0
 27 28  2  0  0  0  0
 28 26  1  0  0  0  0
M  END
> <CdId>
1816

> <Mol Weight>
386.466

> <Formula>
C23H18N2O2S

> <Click_ID>
CLK024_D11 __ __ 

$$$$
