CLK037H07
 OpenBabel03191401532D

 29 29  0  0  0  0  0  0  0  0999 V2000
    4.7500    0.3583    0.0000 C    0  0  0  0  0  0  0  0  0  0  0  0
    4.3375   -0.3542    0.0000 C    0  0  0  0  0  0  0  0  0  0  0  0
   -0.2833    1.6000    0.0000 C    0  0  0  0  0  0  0  0  0  0  0  0
   -3.1375    1.6000    0.0000 C    0  0  0  0  0  0  0  0  0  0  0  0
   -3.8542    1.1875    0.0000 C    0  0  0  0  0  0  0  0  0  0  0  0
   -0.9958    2.0125    0.0000 C    0  0  0  0  0  0  0  0  0  0  0  0
    0.4333    2.0125    0.0000 C    0  0  0  0  0  0  0  0  0  0  0  0
    5.5750    0.3583    0.0000 O    0  0  0  0  0  0  0  0  0  0  0  0
    4.7500   -1.0708    0.0000 O    0  0  0  0  0  0  0  0  0  0  0  0
   -0.9958    2.8375    0.0000 C    0  0  0  0  0  0  0  0  0  0  0  0
    0.4333    2.8375    0.0000 C    0  0  0  0  0  0  0  0  0  0  0  0
    4.3375    1.0750    0.0000 O    0  0  0  0  0  0  0  0  0  0  0  0
    3.5125   -0.3542    0.0000 O    0  0  0  0  0  0  0  0  0  0  0  0
    1.1458   -3.3500    0.0000 C    0  0  0  0  0  0  0  0  0  0  0  0
   -0.2833    3.2500    0.0000 C    0  0  0  0  0  0  0  0  0  0  0  0
    0.4333    0.3625    0.0000 N    0  0  0  0  0  0  0  0  0  0  0  0
    1.1458    3.2500    0.0000 Br   0  0  0  0  0  0  0  0  0  0  0  0
    1.1458   -1.7000    0.0000 C    0  0  0  0  0  0  0  0  0  0  0  0
   -0.2833    0.7750    0.0000 C    0  0  0  0  0  0  0  0  0  0  0  0
   -1.7125    1.6000    0.0000 O    0  0  0  0  0  0  0  0  0  0  0  0
    1.8625   -2.9375    0.0000 C    0  0  0  0  0  0  0  0  0  0  0  0
    0.4333   -2.9375    0.0000 C    0  0  0  0  0  0  0  0  0  0  0  0
    0.4333   -2.1125    0.0000 C    0  0  0  0  0  0  0  0  0  0  0  0
    1.8625   -2.1125    0.0000 C    0  0  0  0  0  0  0  0  0  0  0  0
   -2.4250    2.0125    0.0000 C    0  0  0  0  0  0  0  0  0  0  0  0
    1.1458   -4.1750    0.0000 O    0  0  0  0  0  0  0  0  0  0  0  0
    0.4333   -0.4625    0.0000 C    0  0  0  0  0  0  0  0  0  0  0  0
    1.1458   -0.8750    0.0000 C    0  0  0  0  0  0  0  0  0  0  0  0
    1.8625   -4.5875    0.0000 C    0  0  0  0  0  0  0  0  0  0  0  0
  2  1  1  0  0  0  0
  4 25  1  0  0  0  0
  5  4  3  0  0  0  0
  6  3  2  0  0  0  0
  7  3  1  0  0  0  0
  8  1  2  0  0  0  0
  9  2  2  0  0  0  0
 10  6  1  0  0  0  0
 11  7  2  0  0  0  0
 12  1  1  0  0  0  0
 13  2  1  0  0  0  0
 14 22  2  0  0  0  0
 15 10  2  0  0  0  0
 15 11  1  0  0  0  0
 16 19  1  0  0  0  0
 17 11  1  0  0  0  0
 18 28  1  0  0  0  0
 19  3  1  0  0  0  0
 20  6  1  0  0  0  0
 21 24  2  0  0  0  0
 21 14  1  0  0  0  0
 22 23  1  0  0  0  0
 23 18  2  0  0  0  0
 24 18  1  0  0  0  0
 25 20  1  0  0  0  0
 26 14  1  0  0  0  0
 27 16  1  0  0  0  0
 28 27  1  0  0  0  0
 29 26  1  0  0  0  0
M  END
> <CdId>
2816

> <Mol Weight>
464.306

> <Formula>
C21H22BrNO6

> <Click_ID>
CLK037H07 __ __ 

$$$$
