CLK041A11
 OpenBabel03191401532D

 24 25  0  0  0  0  0  0  0  0999 V2000
   -0.7458   -0.0833    0.0000 S   0  0  0  0  0  0  0  0  0  0  0  0
   -0.0333    0.3292    0.0000 N   0  0  0  0  0  0  0  0  0  0  0  0
    1.3958    0.3292    0.0000 C   0  0  0  0  0  0  0  0  0  0  0  0
   -1.4625   -0.4958    0.0000 C   0  0  0  0  0  0  0  0  0  0  0  0
    0.6833   -0.0833    0.0000 C   0  0  0  0  0  0  0  0  0  0  0  0
    1.3958    1.1542    0.0000 C   0  0  0  0  0  0  0  0  0  0  0  0
    2.8250    2.8042    0.0000 C   0  0  0  0  0  0  0  0  0  0  0  0
   -0.3333   -0.8000    0.0000 O   0  0  0  0  0  0  0  0  0  0  0  0
   -1.1583    0.6292    0.0000 O   0  0  0  0  0  0  0  0  0  0  0  0
   -1.4625   -1.3208    0.0000 C   0  0  0  0  0  0  0  0  0  0  0  0
    3.5417    3.2167    0.0000 C   0  0  0  0  0  0  0  0  0  0  0  0
   -2.1750   -1.7333    0.0000 C   0  0  0  0  0  0  0  0  0  0  0  0
   -2.8917   -1.3208    0.0000 C   0  0  0  0  0  0  0  0  0  0  0  0
    0.6833    1.5667    0.0000 O   0  0  0  0  0  0  0  0  0  0  0  0
   -2.1750   -0.0833    0.0000 C   0  0  0  0  0  0  0  0  0  0  0  0
   -2.8917   -0.4958    0.0000 C   0  0  0  0  0  0  0  0  0  0  0  0
    2.1125    1.5667    0.0000 N   0  0  0  0  0  0  0  0  0  0  0  0
   -3.6042   -1.7333    0.0000 F   0  0  0  0  0  0  0  0  0  0  0  0
    2.1125    2.3917    0.0000 C   0  0  0  0  0  0  0  0  0  0  0  0
    2.1125   -0.0833    0.0000 C   0  0  0  0  0  0  0  0  0  0  0  0
    0.6833   -0.9083    0.0000 C   0  0  0  0  0  0  0  0  0  0  0  0
   -2.1750   -2.5583    0.0000 C   0  0  0  0  0  0  0  0  0  0  0  0
    2.1125   -0.9083    0.0000 C   0  0  0  0  0  0  0  0  0  0  0  0
    1.3958   -1.3208    0.0000 C   0  0  0  0  0  0  0  0  0  0  0  0
  2  1  1  0  0  0  0
  3  5  2  0  0  0  0
  4  1  1  0  0  0  0
  5  2  1  0  0  0  0
  6  3  1  0  0  0  0
  7 19  1  0  0  0  0
  8  1  2  0  0  0  0
  9  1  2  0  0  0  0
 10  4  2  0  0  0  0
 11  7  3  0  0  0  0
 12 10  1  0  0  0  0
 13 16  1  0  0  0  0
 13 12  2  0  0  0  0
 14  6  2  0  0  0  0
 15  4  1  0  0  0  0
 16 15  2  0  0  0  0
 17  6  1  0  0  0  0
 18 13  1  0  0  0  0
 19 17  1  0  0  0  0
 20  3  1  0  0  0  0
 21  5  1  0  0  0  0
 22 12  1  0  0  0  0
 23 20  2  0  0  0  0
 23 24  1  0  0  0  0
 24 21  2  0  0  0  0
M  END
> <CdId>
3161

> <Mol Weight>
346.376

> <Formula>
C17H15FN2O3S

> <Click_ID>
CLK041A11 __ __ 

$$$$
