CLK016_E07
 OpenBabel03191401532D

 26 28  0  0  0  0  0  0  0  0999 V2000
    1.5641   -0.8154    0.0000 N   0  0  0  0  0  0  0  0  0  0  0  0
    1.8220   -1.6016    0.0000 C   0  0  0  0  0  0  0  0  0  0  0  0
    2.8995   -0.8154    0.0000 C   0  0  0  0  0  0  0  0  0  0  0  0
    2.2338   -0.3287    0.0000 C   0  0  0  0  0  0  0  0  0  0  0  0
    2.6457   -1.6016    0.0000 S   0  0  0  0  0  0  0  0  0  0  0  0
    8.7898   -2.0716    0.0000 N   0  3  0  0  0  0  0  0  0  0  0  0
    5.5035   -1.6723    0.0000 C   0  0  0  0  0  0  0  0  0  0  0  0
    3.6857   -0.5616    0.0000 C   0  0  0  0  0  0  0  0  0  0  0  0
    5.1083   -0.9609    0.0000 O   0  0  0  0  0  0  0  0  0  0  0  0
    4.2972   -1.1149    0.0000 C   0  0  0  0  0  0  0  0  0  0  0  0
    6.3189   -1.7721    0.0000 C   0  0  0  0  0  0  0  0  0  0  0  0
    7.9537   -1.9635    0.0000 C   0  0  0  0  0  0  0  0  0  0  0  0
    4.9544   -2.2880    0.0000 C   0  0  0  0  0  0  0  0  0  0  0  0
    6.6516   -2.5375    0.0000 C   0  0  0  0  0  0  0  0  0  0  0  0
    0.6115    0.2454    0.0000 C   0  0  0  0  0  0  0  0  0  0  0  0
    4.2098   -1.9593    0.0000 C   0  0  0  0  0  0  0  0  0  0  0  0
    7.4670   -2.6332    0.0000 C   0  0  0  0  0  0  0  0  0  0  0  0
    0.3911    1.0441    0.0000 C   0  0  0  0  0  0  0  0  0  0  0  0
    6.8180   -1.1149    0.0000 C   0  0  0  0  0  0  0  0  0  0  0  0
    9.1101   -2.8246    0.0000 O   0  5  0  0  0  0  0  0  0  0  0  0
    1.3353   -2.2630    0.0000 O   0  0  0  0  0  0  0  0  0  0  0  0
    9.2765   -1.4019    0.0000 O   0  0  0  0  0  0  0  0  0  0  0  0
    2.2256    0.4950    0.0000 O   0  0  0  0  0  0  0  0  0  0  0  0
    0.7862   -0.5616    0.0000 C   0  0  0  0  0  0  0  0  0  0  0  0
    7.6375   -1.2105    0.0000 C   0  0  0  0  0  0  0  0  0  0  0  0
    6.1566   -3.1865    0.0000 C   0  0  0  0  0  0  0  0  0  0  0  0
  2  1  1  0  0  0  0
  3  4  1  0  0  0  0
  3  5  1  0  0  0  0
  4  1  1  0  0  0  0
  5  2  1  0  0  0  0
  6 12  1  0  0  0  0
  7  9  1  0  0  0  0
  7 13  2  0  0  0  0
  8  3  2  0  0  0  0
  9 10  1  0  0  0  0
 10  8  1  0  0  0  0
 11  7  1  0  0  0  0
 12 25  1  0  0  0  0
 12 17  2  0  0  0  0
 13 16  1  0  0  0  0
 14 11  2  0  0  0  0
 15 24  1  0  0  0  0
 16 10  2  0  0  0  0
 17 14  1  0  0  0  0
 18 15  3  0  0  0  0
 19 11  1  0  0  0  0
 20  6  1  0  0  0  0
 21  2  2  0  0  0  0
 22  6  2  0  0  0  0
 23  4  2  0  0  0  0
 24  1  1  0  0  0  0
 25 19  2  0  0  0  0
 26 14  1  0  0  0  0
M  END
> <CdId>
1202

> <Mol Weight>
368.363

> <Formula>
C18H12N2O5S

> <Click_ID>
CLK016_E07 __ __ 

$$$$
