CLK044A03
 OpenBabel03191401532D

 22 24  0  0  0  0  0  0  0  0999 V2000
   -0.3292   -0.0333    0.0000 C   0  0  0  0  0  0  0  0  0  0  0  0
   -0.8167    0.6375    0.0000 N   0  0  0  0  0  0  0  0  0  0  0  0
   -0.8167   -0.7000    0.0000 N   0  0  0  0  0  0  0  0  0  0  0  0
    0.4958   -0.0333    0.0000 C   0  0  3  0  0  0  0  0  0  0  0  0
    1.7625    0.3792    0.0000 N   0  0  0  0  0  0  0  0  0  0  0  0
    1.7625   -0.4458    0.0000 C   0  0  0  0  0  0  0  0  0  0  0  0
   -1.6000   -0.4458    0.0000 C   0  0  0  0  0  0  0  0  0  0  0  0
   -1.6000    0.3792    0.0000 C   0  0  0  0  0  0  0  0  0  0  0  0
    0.9792    0.6375    0.0000 C   0  0  0  0  0  0  0  0  0  0  0  0
    0.9792   -0.7000    0.0000 C   0  0  0  0  0  0  0  0  0  0  0  0
   -1.1125   -2.0958    0.0000 C   0  0  0  0  0  0  0  0  0  0  0  0
   -1.6625   -2.7083    0.0000 C   0  0  0  0  0  0  0  0  0  0  0  0
    2.4333   -0.9292    0.0000 O   0  0  0  0  0  0  0  0  0  0  0  0
   -0.5583   -1.4833    0.0000 C   0  0  0  0  0  0  0  0  0  0  0  0
    2.4333    0.8667    0.0000 C   0  0  0  0  0  0  0  0  0  0  0  0
   -2.3125   -0.8583    0.0000 C   0  0  0  0  0  0  0  0  0  0  0  0
   -2.3125    0.7917    0.0000 C   0  0  0  0  0  0  0  0  0  0  0  0
    2.3458    1.6875    0.0000 C   0  0  0  0  0  0  0  0  0  0  0  0
    3.0125    2.1708    0.0000 C   0  0  0  0  0  0  0  0  0  0  0  0
   -3.0292   -0.4458    0.0000 C   0  0  0  0  0  0  0  0  0  0  0  0
   -3.0292    0.3792    0.0000 C   0  0  0  0  0  0  0  0  0  0  0  0
    2.9250    2.9917    0.0000 C   0  0  0  0  0  0  0  0  0  0  0  0
  2  1  2  0  0  0  0
  3  1  1  0  0  0  0
  4  1  1  0  0  0  0
  5  9  1  0  0  0  0
  6 10  1  0  0  0  0
  6  5  1  0  0  0  0
  7  3  1  0  0  0  0
  7  8  2  0  0  0  0
  8  2  1  0  0  0  0
  9  4  1  0  0  0  0
 10  4  1  0  0  0  0
 11 14  1  0  0  0  0
 12 11  3  0  0  0  0
 13  6  2  0  0  0  0
 14  3  1  0  0  0  0
 15  5  1  0  0  0  0
 16  7  1  0  0  0  0
 17  8  1  0  0  0  0
 18 15  1  0  0  0  0
 19 18  1  0  0  0  0
 20 16  2  0  0  0  0
 20 21  1  0  0  0  0
 21 17  2  0  0  0  0
 22 19  1  0  0  0  0
M  END
> <CdId>
3337

> <Mol Weight>
295.3788

> <Formula>
C18H21N3O

> <Click_ID>
CLK044A03 __ __ 

$$$$
