CLK051A10
 OpenBabel03191401532D

 17 17  0  0  0  0  0  0  0  0999 V2000
    0.8792    1.7750    0.0000 N   0  3  0  0  0  0  0  0  0  0  0  0
    0.1667   -0.2875    0.0000 C   0  0  0  0  0  0  0  0  0  0  0  0
    0.1667    0.5375    0.0000 C   0  0  0  0  0  0  0  0  0  0  0  0
   -0.5500   -0.7000    0.0000 C   0  0  0  0  0  0  0  0  0  0  0  0
    0.8792    0.9500    0.0000 C   0  0  0  0  0  0  0  0  0  0  0  0
   -2.6917   -0.2875    0.0000 C   0  0  0  0  0  0  0  0  0  0  0  0
    0.8792   -0.7000    0.0000 C   0  0  0  0  0  0  0  0  0  0  0  0
   -3.4083    0.1250    0.0000 C   0  0  0  0  0  0  0  0  0  0  0  0
    1.5958    2.1875    0.0000 O   0  5  0  0  0  0  0  0  0  0  0  0
    0.1667    2.1875    0.0000 O   0  0  0  0  0  0  0  0  0  0  0  0
   -0.5500   -1.5250    0.0000 O   0  0  0  0  0  0  0  0  0  0  0  0
    1.5958    0.5375    0.0000 C   0  0  0  0  0  0  0  0  0  0  0  0
    1.5958   -0.2875    0.0000 C   0  0  0  0  0  0  0  0  0  0  0  0
   -1.2625   -0.2875    0.0000 N   0  0  0  0  0  0  0  0  0  0  0  0
    0.8792   -1.5250    0.0000 N   0  0  0  0  0  0  0  0  0  0  0  0
   -1.9792   -0.7000    0.0000 C   0  0  0  0  0  0  0  0  0  0  0  0
    1.5958   -1.9375    0.0000 C   0  0  0  0  0  0  0  0  0  0  0  0
  2  3  1  0  0  0  0
  3  5  2  0  0  0  0
  4  2  1  0  0  0  0
  5  1  1  0  0  0  0
  6 16  1  0  0  0  0
  7  2  2  0  0  0  0
  8  6  3  0  0  0  0
  9  1  1  0  0  0  0
 10  1  2  0  0  0  0
 11  4  2  0  0  0  0
 12  5  1  0  0  0  0
 13 12  2  0  0  0  0
 13  7  1  0  0  0  0
 14  4  1  0  0  0  0
 15  7  1  0  0  0  0
 16 14  1  0  0  0  0
 17 15  1  0  0  0  0
M  END
> <CdId>
3953

> <Mol Weight>
233.2233

> <Formula>
C11H11N3O3

> <Click_ID>
CLK051A10 __ __ 

$$$$
