CLK046B08
 OpenBabel03191401532D

 21 22  0  0  0  0  0  0  0  0999 V2000
   -0.1375   -0.2750    0.0000 S   0  0  0  0  0  0  0  0  0  0  0  0
   -0.8542    0.1375    0.0000 N   0  0  0  0  0  0  0  0  0  0  0  0
    0.5750   -0.6875    0.0000 C   0  0  0  0  0  0  0  0  0  0  0  0
    1.2917   -2.7500    0.0000 C   0  0  0  0  0  0  0  0  0  0  0  0
   -2.2833    2.6125    0.0000 C   0  0  0  0  0  0  0  0  0  0  0  0
   -0.5500   -0.9875    0.0000 O   0  0  0  0  0  0  0  0  0  0  0  0
    0.2750    0.4417    0.0000 O   0  0  0  0  0  0  0  0  0  0  0  0
    1.2917   -1.9250    0.0000 C   0  0  0  0  0  0  0  0  0  0  0  0
    0.5750   -1.5125    0.0000 C   0  0  0  0  0  0  0  0  0  0  0  0
   -2.9958    3.0250    0.0000 C   0  0  0  0  0  0  0  0  0  0  0  0
   -0.8542    0.9625    0.0000 C   0  0  0  0  0  0  0  0  0  0  0  0
    2.0042   -3.1625    0.0000 O   0  0  0  0  0  0  0  0  0  0  0  0
   -1.5667    2.2042    0.0000 C   0  0  0  0  0  0  0  0  0  0  0  0
   -1.5667    1.3750    0.0000 C   0  0  0  0  0  0  0  0  0  0  0  0
    0.5750   -3.1625    0.0000 O   0  0  0  0  0  0  0  0  0  0  0  0
    1.2917   -0.2750    0.0000 C   0  0  0  0  0  0  0  0  0  0  0  0
    2.0042   -1.5125    0.0000 C   0  0  0  0  0  0  0  0  0  0  0  0
    2.0042   -0.6875    0.0000 C   0  0  0  0  0  0  0  0  0  0  0  0
   -0.1375    2.2042    0.0000 C   0  0  0  0  0  0  0  0  0  0  0  0
   -0.1375    1.3750    0.0000 C   0  0  0  0  0  0  0  0  0  0  0  0
   -0.8542    2.6125    0.0000 C   0  0  0  0  0  0  0  0  0  0  0  0
  2  1  1  0  0  0  0
  3  1  1  0  0  0  0
  4  8  1  0  0  0  0
  5 13  1  0  0  0  0
  6  1  2  0  0  0  0
  7  1  2  0  0  0  0
  8  9  2  0  0  0  0
  9  3  1  0  0  0  0
 10  5  3  0  0  0  0
 11  2  1  0  0  0  0
 12  4  2  0  0  0  0
 13 14  1  0  0  0  0
 14 11  2  0  0  0  0
 15  4  1  0  0  0  0
 16  3  2  0  0  0  0
 17  8  1  0  0  0  0
 18 16  1  0  0  0  0
 18 17  2  0  0  0  0
 19 20  2  0  0  0  0
 20 11  1  0  0  0  0
 21 13  2  0  0  0  0
 21 19  1  0  0  0  0
M  END
> <CdId>
3538

> <Mol Weight>
301.317

> <Formula>
C15H11NO4S

> <Click_ID>
CLK046B08 __ __ 

$$$$
