CLK028_E06
 OpenBabel03191401532D

 27 28  0  0  0  0  0  0  0  0999 V2000
   -2.4976   -0.6115    0.0000 C    0  0  0  0  0  0  0  0  0  0  0  0
    2.4907    0.6252    0.0000 C    0  0  0  0  0  0  0  0  0  0  0  0
   -1.7830   -0.1993    0.0000 C    0  0  0  0  0  0  0  0  0  0  0  0
   -3.2191   -0.1993    0.0000 C    0  0  0  0  0  0  0  0  0  0  0  0
    2.4907   -0.1924    0.0000 C    0  0  0  0  0  0  0  0  0  0  0  0
    1.7899    1.0375    0.0000 C    0  0  0  0  0  0  0  0  0  0  0  0
   -5.3628   -2.2606    0.0000 N    0  0  0  0  0  0  0  0  0  0  0  0
    4.6482    1.0135    0.0000 C    0  0  0  0  0  0  0  0  0  0  0  0
   -2.4976   -1.4429    0.0000 C    0  0  0  0  0  0  0  0  0  0  0  0
    5.3628    1.4258    0.0000 C    0  0  0  0  0  0  0  0  0  0  0  0
   -4.6448   -1.8552    0.0000 C    0  0  0  0  0  0  0  0  0  0  0  0
   -0.3573   -0.1993    0.0000 N    0  0  0  0  0  0  0  0  0  0  0  0
    1.7796   -0.6115    0.0000 C    0  0  0  0  0  0  0  0  0  0  0  0
    1.0650    0.6287    0.0000 C    0  0  0  0  0  0  0  0  0  0  0  0
   -1.0684   -0.6115    0.0000 N    0  0  0  0  0  0  0  0  0  0  0  0
   -3.9302   -0.6115    0.0000 C    0  0  0  0  0  0  0  0  0  0  0  0
    1.0753   -0.1993    0.0000 C    0  0  0  0  0  0  0  0  0  0  0  0
   -1.7830    0.6252    0.0000 O    0  0  0  0  0  0  0  0  0  0  0  0
   -3.9302   -1.4429    0.0000 C    0  0  0  0  0  0  0  0  0  0  0  0
    0.3539   -0.6115    0.0000 C    0  0  0  0  0  0  0  0  0  0  0  0
   -3.2191    0.6287    0.0000 F    0  0  0  0  0  0  0  0  0  0  0  0
    3.2019   -0.6115    0.0000 Br   0  0  0  0  0  0  0  0  0  0  0  0
    3.2156    1.0306    0.0000 O    0  0  0  0  0  0  0  0  0  0  0  0
   -3.2191   -1.8552    0.0000 C    0  0  0  0  0  0  0  0  0  0  0  0
    1.7899    1.8552    0.0000 O    0  0  0  0  0  0  0  0  0  0  0  0
    3.9268    0.6149    0.0000 C    0  0  0  0  0  0  0  0  0  0  0  0
    1.0925    2.2640    0.0000 C    0  0  0  0  0  0  0  0  0  0  0  0
  2  6  2  0  0  0  0
  3  1  1  0  0  0  0
  4  1  1  0  0  0  0
  5 13  2  0  0  0  0
  5  2  1  0  0  0  0
  6 14  1  0  0  0  0
  7 11  3  0  0  0  0
  8 26  1  0  0  0  0
  9  1  2  0  0  0  0
 10  8  3  0  0  0  0
 11 19  1  0  0  0  0
 12 15  1  0  0  0  0
 13 17  1  0  0  0  0
 14 17  2  0  0  0  0
 15  3  1  0  0  0  0
 16  4  2  0  0  0  0
 16 19  1  0  0  0  0
 17 20  1  0  0  0  0
 18  3  2  0  0  0  0
 19 24  2  0  0  0  0
 20 12  2  0  0  0  0
 21  4  1  0  0  0  0
 22  5  1  0  0  0  0
 23  2  1  0  0  0  0
 24  9  1  0  0  0  0
 25  6  1  0  0  0  0
 26 23  1  0  0  0  0
 27 25  1  0  0  0  0
M  END
> <CdId>
2130

> <Mol Weight>
430.227

> <Formula>
C19H13BrFN3O3

> <Click_ID>
CLK028_E06 __ __ 

$$$$
