CLK035_A09
 OpenBabel03191401532D

 20 22  0  0  0  0  0  0  0  0999 V2000
   -3.3000    1.7333    0.0000 C    0  0  0  0  0  0  0  0  0  0  0  0
   -3.3000    2.5708    0.0000 C    0  0  0  0  0  0  0  0  0  0  0  0
   -4.0958    1.4833    0.0000 N    0  0  0  0  0  0  0  0  0  0  0  0
   -4.5833    2.1500    0.0000 N    0  0  0  0  0  0  0  0  0  0  0  0
   -4.0958    2.8208    0.0000 N    0  0  0  0  0  0  0  0  0  0  0  0
   -2.5958    1.3250    0.0000 N    0  0  0  0  0  0  0  0  0  0  0  0
   -2.5958    2.9833    0.0000 C    0  0  0  0  0  0  0  0  0  0  0  0
   -1.8833    2.5583    0.0000 N    0  0  0  0  0  0  0  0  0  0  0  0
   -1.8833    1.7333    0.0000 C    0  0  0  0  0  0  0  0  0  0  0  0
   -4.3458    0.6958    0.0000 C    0  0  0  0  0  0  0  0  0  0  0  0
   -1.1583    3.7958    0.0000 C    0  0  0  0  0  0  0  0  0  0  0  0
   -1.1625    4.6167    0.0000 C    0  0  0  0  0  0  0  0  0  0  0  0
   -2.5875    3.8000    0.0000 O    0  0  0  0  0  0  0  0  0  0  0  0
   -1.1625    2.9708    0.0000 C    0  0  0  0  0  0  0  0  0  0  0  0
   -5.1583    0.5208    0.0000 C    0  0  0  0  0  0  0  0  0  0  0  0
   -3.7958    0.0833    0.0000 C    0  0  0  0  0  0  0  0  0  0  0  0
   -4.8500   -0.8750    0.0000 C    0  0  0  0  0  0  0  0  0  0  0  0
   -5.4083   -0.2625    0.0000 C    0  0  0  0  0  0  0  0  0  0  0  0
   -4.0500   -0.7042    0.0000 C    0  0  0  0  0  0  0  0  0  0  0  0
   -5.1083   -1.6625    0.0000 Cl   0  0  0  0  0  0  0  0  0  0  0  0
  2  1  2  0  0  0  0
  3  1  1  0  0  0  0
  4  3  1  0  0  0  0
  5  2  1  0  0  0  0
  5  4  2  0  0  0  0
  6  1  1  0  0  0  0
  7  2  1  0  0  0  0
  8  9  1  0  0  0  0
  8  7  1  0  0  0  0
  9  6  2  0  0  0  0
 10  3  1  0  0  0  0
 11 14  1  0  0  0  0
 12 11  3  0  0  0  0
 13  7  2  0  0  0  0
 14  8  1  0  0  0  0
 15 10  2  0  0  0  0
 16 10  1  0  0  0  0
 17 19  1  0  0  0  0
 18 15  1  0  0  0  0
 18 17  2  0  0  0  0
 19 16  2  0  0  0  0
 20 17  1  0  0  0  0
M  END
> <CdId>
2653

> <Mol Weight>
285.689

> <Formula>
C13H8ClN5O

> <Click_ID>
CLK035_A09 __ __ 

$$$$
