CLK027_G03
 OpenBabel03191401532D

 25 27  0  0  0  0  0  0  0  0999 V2000
   -1.1348    0.1234    0.0000 C   0  0  3  0  0  0  0  0  0  0  0  0
   -1.6833   -0.4902    0.0000 C   0  0  0  0  0  0  0  0  0  0  0  0
   -2.4376   -0.1680    0.0000 N   0  0  0  0  0  0  0  0  0  0  0  0
   -1.5463    0.8399    0.0000 C   0  0  0  0  0  0  0  0  0  0  0  0
   -2.3553    0.6514    0.0000 C   0  0  0  0  0  0  0  0  0  0  0  0
   -0.4114    0.5280    0.0000 C   0  0  0  0  0  0  0  0  0  0  0  0
    0.2983    0.1234    0.0000 C   0  0  0  0  0  0  0  0  0  0  0  0
   -3.1405   -1.3988    0.0000 C   0  0  0  0  0  0  0  0  0  0  0  0
   -3.1473   -2.2182    0.0000 C   0  0  0  0  0  0  0  0  0  0  0  0
    1.0183    0.5280    0.0000 C   0  0  0  0  0  0  0  0  0  0  0  0
   -1.5188   -1.2994    0.0000 O   0  0  0  0  0  0  0  0  0  0  0  0
   -3.1473   -0.5794    0.0000 C   0  0  0  0  0  0  0  0  0  0  0  0
   -0.7268   -0.5897    0.0000 O   0  0  0  0  0  0  0  0  0  0  0  0
    1.7211    0.0960    0.0000 C   0  0  0  0  0  0  0  0  0  0  0  0
    0.2983   -0.6891    0.0000 O   0  0  0  0  0  0  0  0  0  0  0  0
    2.4445    0.4937    0.0000 C   0  0  0  0  0  0  0  0  0  0  0  0
   -1.2857    1.6113    0.0000 C   0  0  0  0  0  0  0  0  0  0  0  0
   -2.8970    1.2616    0.0000 C   0  0  0  0  0  0  0  0  0  0  0  0
    3.1439    0.0720    0.0000 O   0  0  0  0  0  0  0  0  0  0  0  0
    1.0251    1.3474    0.0000 C   0  0  0  0  0  0  0  0  0  0  0  0
    1.7382    1.7451    0.0000 C   0  0  0  0  0  0  0  0  0  0  0  0
    2.4547    1.3234    0.0000 C   0  0  0  0  0  0  0  0  0  0  0  0
    3.1302   -0.7474    0.0000 C   0  0  0  0  0  0  0  0  0  0  0  0
   -1.8445    2.2216    0.0000 C   0  0  0  0  0  0  0  0  0  0  0  0
   -2.6536    2.0502    0.0000 C   0  0  0  0  0  0  0  0  0  0  0  0
  2  1  1  0  0  0  0
  3  2  1  0  0  0  0
  3  5  1  0  0  0  0
  4  1  1  0  0  0  0
  5  4  2  0  0  0  0
  6  1  1  0  0  0  0
  7  6  1  0  0  0  0
  8 12  1  0  0  0  0
  9  8  3  0  0  0  0
 10  7  1  0  0  0  0
 11  2  2  0  0  0  0
 12  3  1  0  0  0  0
 13  1  1  0  0  0  0
 14 10  2  0  0  0  0
 15  7  2  0  0  0  0
 16 14  1  0  0  0  0
 17  4  1  0  0  0  0
 18  5  1  0  0  0  0
 19 16  1  0  0  0  0
 20 10  1  0  0  0  0
 21 20  2  0  0  0  0
 22 21  1  0  0  0  0
 22 16  2  0  0  0  0
 23 19  1  0  0  0  0
 24 17  2  0  0  0  0
 25 24  1  0  0  0  0
 25 18  2  0  0  0  0
M  END
> <CdId>
2071

> <Mol Weight>
335.3533

> <Formula>
C20H17NO4

> <Click_ID>
CLK027_G03 __ __ 

$$$$
