CLK020_D10
 OpenBabel03191401532D

 25 27  0  0  0  0  0  0  0  0999 V2000
    2.7814   -2.7539    0.0000 N   0  0  0  0  0  0  0  0  0  0  0  0
    2.5294   -3.5375    0.0000 C   0  0  0  0  0  0  0  0  0  0  0  0
    3.5925   -2.7539    0.0000 C   0  0  0  0  0  0  0  0  0  0  0  0
    3.1938   -4.0186    0.0000 O   0  0  0  0  0  0  0  0  0  0  0  0
    3.8536   -3.5328    0.0000 C   0  0  0  0  0  0  0  0  0  0  0  0
    4.0827   -2.0895    0.0000 C   0  0  0  0  0  0  0  0  0  0  0  0
    8.5228   -3.2625    0.0000 C   0  0  0  0  0  0  0  0  0  0  0  0
    9.3385   -3.3450    0.0000 C   0  0  0  0  0  0  0  0  0  0  0  0
    6.2043   -1.5855    0.0000 C   0  0  0  0  0  0  0  0  0  0  0  0
    4.8984   -2.1719    0.0000 C   0  0  0  0  0  0  0  0  0  0  0  0
    1.7367   -3.7940    0.0000 C   0  0  0  0  0  0  0  0  0  0  0  0
    4.6372   -3.7803    0.0000 O   0  0  0  0  0  0  0  0  0  0  0  0
    5.3795   -1.5030    0.0000 C   0  0  0  0  0  0  0  0  0  0  0  0
    6.5433   -2.3415    0.0000 C   0  0  0  0  0  0  0  0  0  0  0  0
    6.0622   -3.0105    0.0000 C   0  0  0  0  0  0  0  0  0  0  0  0
    5.2374   -2.9189    0.0000 C   0  0  0  0  0  0  0  0  0  0  0  0
    6.6854   -0.9210    0.0000 O   0  0  0  0  0  0  0  0  0  0  0  0
    7.3590   -2.4240    0.0000 O   0  0  0  0  0  0  0  0  0  0  0  0
    7.7026   -3.1801    0.0000 C   0  0  0  0  0  0  0  0  0  0  0  0
    1.5717   -4.6051    0.0000 C   0  0  0  0  0  0  0  0  0  0  0  0
    1.1318   -3.2488    0.0000 C   0  0  0  0  0  0  0  0  0  0  0  0
    7.5102   -1.0035    0.0000 C   0  0  0  0  0  0  0  0  0  0  0  0
    0.7835   -4.8571    0.0000 C   0  0  0  0  0  0  0  0  0  0  0  0
    0.3437   -3.4962    0.0000 C   0  0  0  0  0  0  0  0  0  0  0  0
    0.1696   -4.3026    0.0000 C   0  0  0  0  0  0  0  0  0  0  0  0
  2  1  2  0  0  0  0
  3  1  1  0  0  0  0
  4  2  1  0  0  0  0
  5  3  1  0  0  0  0
  5  4  1  0  0  0  0
  6  3  2  0  0  0  0
  7 19  1  0  0  0  0
  8  7  3  0  0  0  0
  9 13  1  0  0  0  0
  9 14  2  0  0  0  0
 10  6  1  0  0  0  0
 11  2  1  0  0  0  0
 12  5  2  0  0  0  0
 13 10  2  0  0  0  0
 14 15  1  0  0  0  0
 15 16  2  0  0  0  0
 16 10  1  0  0  0  0
 17  9  1  0  0  0  0
 18 14  1  0  0  0  0
 19 18  1  0  0  0  0
 20 11  2  0  0  0  0
 21 11  1  0  0  0  0
 22 17  1  0  0  0  0
 23 20  1  0  0  0  0
 23 25  2  0  0  0  0
 24 21  2  0  0  0  0
 25 24  1  0  0  0  0
M  END
> <CdId>
1515

> <Mol Weight>
333.3374

> <Formula>
C20H15NO4

> <Click_ID>
CLK020_D10 __ __ 

$$$$
