CLK017_B08
 OpenBabel03191401532D

 26 27  0  0  0  0  0  0  0  0999 V2000
    3.7095   -0.6495    0.0000 N    0  0  0  0  0  0  0  0  0  0  0  0
    3.9593   -1.4363    0.0000 C    0  0  0  0  0  0  0  0  0  0  0  0
    4.3715   -0.1666    0.0000 C    0  0  0  0  0  0  0  0  0  0  0  0
    5.0376   -0.6495    0.0000 C    0  0  0  0  0  0  0  0  0  0  0  0
    4.7836   -1.4363    0.0000 S    0  0  0  0  0  0  0  0  0  0  0  0
    5.8245   -0.3914    0.0000 C    0  0  0  0  0  0  0  0  0  0  0  0
    5.9993    0.4205    0.0000 C    0  0  0  0  0  0  0  0  0  0  0  0
    2.9268   -0.3914    0.0000 C    0  0  0  0  0  0  0  0  0  0  0  0
    6.9569    1.4738    0.0000 C    0  0  0  0  0  0  0  0  0  0  0  0
    6.7862    0.6620    0.0000 C    0  0  0  0  0  0  0  0  0  0  0  0
    6.3491    2.0317    0.0000 C    0  0  0  0  0  0  0  0  0  0  0  0
    5.3873    0.9700    0.0000 C    0  0  0  0  0  0  0  0  0  0  0  0
    7.5106    3.8926    0.0000 C    0  0  0  0  0  0  0  0  0  0  0  0
    5.5622    1.7819    0.0000 C    0  0  0  0  0  0  0  0  0  0  0  0
    7.6855    4.6879    0.0000 C    0  0  0  0  0  0  0  0  0  0  0  0
    2.3106   -0.9492    0.0000 C    0  0  0  0  0  0  0  0  0  0  0  0
    3.4764   -2.1025    0.0000 O    0  0  0  0  0  0  0  0  0  0  0  0
    4.3715    0.6578    0.0000 O    0  0  0  0  0  0  0  0  0  0  0  0
    2.4855   -1.7528    0.0000 O    0  0  0  0  0  0  0  0  0  0  0  0
    7.3940    0.1082    0.0000 Br   0  0  0  0  0  0  0  0  0  0  0  0
    6.5364    2.8352    0.0000 O    0  0  0  0  0  0  0  0  0  0  0  0
    4.9627    2.3356    0.0000 O    0  0  0  0  0  0  0  0  0  0  0  0
    1.5280   -0.6911    0.0000 O    0  0  0  0  0  0  0  0  0  0  0  0
    7.3233    3.0808    0.0000 C    0  0  0  0  0  0  0  0  0  0  0  0
    4.1841    2.0858    0.0000 C    0  0  0  0  0  0  0  0  0  0  0  0
    1.3531    0.1082    0.0000 C    0  0  0  0  0  0  0  0  0  0  0  0
  2  1  1  0  0  0  0
  3  1  1  0  0  0  0
  4  3  1  0  0  0  0
  5  2  1  0  0  0  0
  5  4  1  0  0  0  0
  6  4  2  0  0  0  0
  7  6  1  0  0  0  0
  8  1  1  0  0  0  0
  9 10  2  0  0  0  0
  9 11  1  0  0  0  0
 10  7  1  0  0  0  0
 11 14  2  0  0  0  0
 12  7  2  0  0  0  0
 13 24  1  0  0  0  0
 14 12  1  0  0  0  0
 15 13  3  0  0  0  0
 16  8  1  0  0  0  0
 17  2  2  0  0  0  0
 18  3  2  0  0  0  0
 19 16  2  0  0  0  0
 20 10  1  0  0  0  0
 21 11  1  0  0  0  0
 22 14  1  0  0  0  0
 23 16  1  0  0  0  0
 24 21  1  0  0  0  0
 25 22  1  0  0  0  0
 26 23  1  0  0  0  0
M  END
> <CdId>
1253

> <Mol Weight>
440.265

> <Formula>
C17H14BrNO6S

> <Click_ID>
CLK017_B08 __ __ 

$$$$
