CLK025_A02
 OpenBabel03191401532D

 27 29  0  0  0  0  0  0  0  0999 V2000
    2.2613   -0.1510    0.0000 C   0  0  0  0  0  0  0  0  0  0  0  0
    2.8515   -0.7377    0.0000 C   0  0  0  0  0  0  0  0  0  0  0  0
   -0.4564    0.6829    0.0000 C   0  0  0  0  0  0  0  0  0  0  0  0
    0.5113    1.5579    0.0000 C   0  0  0  0  0  0  0  0  0  0  0  0
   -0.0755    2.1241    0.0000 C   0  0  0  0  0  0  0  0  0  0  0  0
    0.8991    0.2574    0.0000 N   0  0  0  0  0  0  0  0  0  0  0  0
    2.4741    0.6348    0.0000 C   0  0  0  0  0  0  0  0  0  0  0  0
    1.4618   -0.3432    0.0000 C   0  0  0  0  0  0  0  0  0  0  0  0
    0.0995    0.0755    0.0000 N   0  0  0  0  0  0  0  0  0  0  0  0
   -0.2127    1.4618    0.0000 O   0  0  0  0  0  0  0  0  0  0  0  0
   -1.8186    1.0980    0.0000 N   0  0  0  0  0  0  0  0  0  0  0  0
    3.6476   -0.5250    0.0000 C   0  0  0  0  0  0  0  0  0  0  0  0
    3.2839    0.8579    0.0000 C   0  0  0  0  0  0  0  0  0  0  0  0
    3.8638    0.2711    0.0000 C   0  0  0  0  0  0  0  0  0  0  0  0
   -1.2662    0.4941    0.0000 C   0  0  0  0  0  0  0  0  0  0  0  0
   -2.6216    0.9127    0.0000 C   0  0  0  0  0  0  0  0  0  0  0  0
    1.8873    1.2010    0.0000 O   0  0  0  0  0  0  0  0  0  0  0  0
    1.0980    0.9745    0.0000 C   0  0  0  0  0  0  0  0  0  0  0  0
    2.6353   -1.5304    0.0000 C   0  0  0  0  0  0  0  0  0  0  0  0
    4.2275   -1.1152    0.0000 C   0  0  0  0  0  0  0  0  0  0  0  0
   -3.1844    1.5201    0.0000 C   0  0  0  0  0  0  0  0  0  0  0  0
   -2.8653    0.1235    0.0000 C   0  0  0  0  0  0  0  0  0  0  0  0
    3.2153   -2.1206    0.0000 C   0  0  0  0  0  0  0  0  0  0  0  0
    4.0147   -1.8941    0.0000 C   0  0  0  0  0  0  0  0  0  0  0  0
   -3.6682   -0.0618    0.0000 C   0  0  0  0  0  0  0  0  0  0  0  0
   -3.9804    1.3348    0.0000 C   0  0  0  0  0  0  0  0  0  0  0  0
   -4.2309    0.5456    0.0000 C   0  0  0  0  0  0  0  0  0  0  0  0
  2  1  1  0  0  0  0
  3  9  1  0  0  0  0
  4 18  1  0  0  0  0
  5  4  3  0  0  0  0
  6  8  2  0  0  0  0
  7  1  2  0  0  0  0
  8  1  1  0  0  0  0
  9  6  1  0  0  0  0
 10  3  2  0  0  0  0
 11 15  1  0  0  0  0
 12  2  1  0  0  0  0
 13  7  1  0  0  0  0
 14 13  2  0  0  0  0
 14 12  1  0  0  0  0
 15  3  1  0  0  0  0
 16 11  1  0  0  0  0
 17  7  1  0  0  0  0
 18 17  1  0  0  0  0
 19  2  2  0  0  0  0
 20 12  2  0  0  0  0
 21 16  1  0  0  0  0
 22 16  2  0  0  0  0
 23 19  1  0  0  0  0
 24 23  2  0  0  0  0
 24 20  1  0  0  0  0
 25 22  1  0  0  0  0
 26 21  2  0  0  0  0
 27 25  2  0  0  0  0
 27 26  1  0  0  0  0
M  END
> <CdId>
1857

> <Mol Weight>
357.4052

> <Formula>
C22H19N3O2

> <Click_ID>
CLK025_A02 __ __ 

$$$$
