CLK034_E09
 OpenBabel03191401532D

 33 35  0  0  0  0  0  0  0  0999 V2000
   -4.5967    2.5588    0.0000 C   0  0  0  0  0  0  0  0  0  0  0  0
   -0.9960    5.4427    0.0000 S   0  0  0  0  0  0  0  0  0  0  0  0
   -3.8632    2.9839    0.0000 N   0  0  0  0  0  0  0  0  0  0  0  0
   -4.6842    1.7336    0.0000 N   0  0  0  0  0  0  0  0  0  0  0  0
   -5.3218    2.8963    0.0000 S   0  0  0  0  0  0  0  0  0  0  0  0
   -5.4885    1.5836    0.0000 C   0  0  0  0  0  0  0  0  0  0  0  0
   -5.8969    2.3004    0.0000 C   0  0  0  0  0  0  0  0  0  0  0  0
   -3.8715    3.8007    0.0000 C   0  0  0  0  0  0  0  0  0  0  0  0
   -1.7128    5.0302    0.0000 C   0  0  0  0  0  0  0  0  0  0  0  0
   -0.2751    5.8428    0.0000 N   0  0  0  0  0  0  0  0  0  0  0  0
   -4.2591    0.3584    0.0000 C   0  0  0  0  0  0  0  0  0  0  0  0
   -1.4086    6.1762    0.0000 O   0  0  0  0  0  0  0  0  0  0  0  0
   -0.5834    4.7176    0.0000 O   0  0  0  0  0  0  0  0  0  0  0  0
   -4.4466   -0.4543    0.0000 C   0  0  0  0  0  0  0  0  0  0  0  0
   -3.1589    4.2133    0.0000 C   0  0  0  0  0  0  0  0  0  0  0  0
   -5.9219    0.8835    0.0000 C   0  0  0  0  0  0  0  0  0  0  0  0
   -4.5842    4.2175    0.0000 O   0  0  0  0  0  0  0  0  0  0  0  0
   -4.0716    1.1627    0.0000 C   0  0  0  0  0  0  0  0  0  0  0  0
   -2.4338    5.4510    0.0000 C   0  0  0  0  0  0  0  0  0  0  0  0
   -1.7336    4.2133    0.0000 C   0  0  0  0  0  0  0  0  0  0  0  0
   -3.1464    5.0427    0.0000 C   0  0  0  0  0  0  0  0  0  0  0  0
   -2.4463    3.8132    0.0000 C   0  0  0  0  0  0  0  0  0  0  0  0
   -0.9877    7.1055    0.0000 C   0  0  0  0  0  0  0  0  0  0  0  0
    1.1502    5.8428    0.0000 C   0  0  0  0  0  0  0  0  0  0  0  0
   -0.9835    7.9307    0.0000 C   0  0  0  0  0  0  0  0  0  0  0  0
    1.8629    5.4385    0.0000 C   0  0  0  0  0  0  0  0  0  0  0  0
   -6.7055    2.3212    0.0000 C   0  0  0  0  0  0  0  0  0  0  0  0
   -5.5218    0.1458    0.0000 O   0  0  0  0  0  0  0  0  0  0  0  0
    0.4293    5.4427    0.0000 C   0  0  0  0  0  0  0  0  0  0  0  0
   -0.2709    6.6805    0.0000 C   0  0  0  0  0  0  0  0  0  0  0  0
   -7.1430    1.6211    0.0000 C   0  0  0  0  0  0  0  0  0  0  0  0
   -6.7305    0.8877    0.0000 C   0  0  0  0  0  0  0  0  0  0  0  0
   -5.9594   -0.5543    0.0000 C   0  0  0  0  0  0  0  0  0  0  0  0
  2  9  1  0  0  0  0
  3  1  2  0  0  0  0
  4  1  1  0  0  0  0
  5  1  1  0  0  0  0
  6  4  1  0  0  0  0
  7  5  1  0  0  0  0
  7  6  2  0  0  0  0
  8  3  1  0  0  0  0
  9 20  2  0  0  0  0
  9 19  1  0  0  0  0
 10  2  1  0  0  0  0
 11 18  1  0  0  0  0
 12  2  2  0  0  0  0
 13  2  2  0  0  0  0
 14 11  3  0  0  0  0
 15  8  1  0  0  0  0
 16  6  1  0  0  0  0
 17  8  2  0  0  0  0
 18  4  1  0  0  0  0
 19 21  2  0  0  0  0
 20 22  1  0  0  0  0
 21 15  1  0  0  0  0
 22 15  2  0  0  0  0
 23 30  1  0  0  0  0
 24 29  1  0  0  0  0
 25 23  2  0  0  0  0
 26 24  2  0  0  0  0
 27  7  1  0  0  0  0
 28 16  1  0  0  0  0
 29 10  1  0  0  0  0
 30 10  1  0  0  0  0
 31 27  2  0  0  0  0
 32 16  2  0  0  0  0
 32 31  1  0  0  0  0
 33 28  1  0  0  0  0
M  END
> <CdId>
2613

> <Mol Weight>
481.587

> <Formula>
C24H23N3O4S2

> <Click_ID>
CLK034_E09 __ __ 

$$$$
