CLK051E10
 OpenBabel03191401532D

 22 22  0  0  0  0  0  0  0  0999 V2000
   -0.9125    2.1750    0.0000 C    0  0  0  0  0  0  0  0  0  0  0  0
   -0.9125    1.3500    0.0000 C    0  0  0  0  0  0  0  0  0  0  0  0
    1.2333   -3.1875    0.0000 C    0  0  0  0  0  0  0  0  0  0  0  0
    0.5167   -1.1250    0.0000 C    0  0  0  0  0  0  0  0  0  0  0  0
    1.2333   -4.0083    0.0000 C    0  0  0  0  0  0  0  0  0  0  0  0
    1.2333   -1.5375    0.0000 N    0  0  0  0  0  0  0  0  0  0  0  0
    1.2333   -2.3625    0.0000 C    0  0  0  0  0  0  0  0  0  0  0  0
   -1.6250    2.5875    0.0000 C    0  0  0  0  0  0  0  0  0  0  0  0
    0.5167   -0.3000    0.0000 C    0  0  0  0  0  0  0  0  0  0  0  0
   -1.6250    0.9375    0.0000 O    0  0  0  0  0  0  0  0  0  0  0  0
   -0.1958   -1.5375    0.0000 O    0  0  0  0  0  0  0  0  0  0  0  0
   -0.1958    0.9375    0.0000 N    0  0  0  0  0  0  0  0  0  0  0  0
   -0.1958    0.1125    0.0000 C    0  0  0  0  0  0  0  0  0  0  0  0
   -2.3417    2.1750    0.0000 Cl   0  0  0  0  0  0  0  0  0  0  0  0
   -0.1958    2.5875    0.0000 C    0  0  0  0  0  0  0  0  0  0  0  0
    2.0583   -2.3625    0.0000 C    0  0  0  0  0  0  0  0  0  0  0  0
    0.4083   -2.3625    0.0000 C    0  0  0  0  0  0  0  0  0  0  0  0
   -1.6250    3.4167    0.0000 C    0  0  0  0  0  0  0  0  0  0  0  0
   -0.1958    3.4167    0.0000 C    0  0  0  0  0  0  0  0  0  0  0  0
    2.4708   -3.0750    0.0000 C    0  0  0  0  0  0  0  0  0  0  0  0
   -0.0042   -1.6458    0.0000 C    0  0  0  0  0  0  0  0  0  0  0  0
   -0.9125    3.8292    0.0000 C    0  0  0  0  0  0  0  0  0  0  0  0
  2  1  1  0  0  0  0
  3  7  1  0  0  0  0
  4  9  1  0  0  0  0
  5  3  3  0  0  0  0
  6  4  1  0  0  0  0
  7  6  1  0  0  0  0
  8  1  2  0  0  0  0
  9 13  1  0  0  0  0
 10  2  2  0  0  0  0
 11  4  2  0  0  0  0
 12  2  1  0  0  0  0
 13 12  1  0  0  0  0
 14  8  1  0  0  0  0
 15  1  1  0  0  0  0
 16  7  1  0  0  0  0
 17  7  1  0  0  0  0
 18  8  1  0  0  0  0
 19 15  2  0  0  0  0
 20 16  1  0  0  0  0
 21 17  1  0  0  0  0
 22 18  2  0  0  0  0
 22 19  1  0  0  0  0
M  END
> <CdId>
3957

> <Mol Weight>
320.814

> <Formula>
C17H21ClN2O2

> <Click_ID>
CLK051E10 __ __ 

$$$$
