CLK034_A06
 OpenBabel03191401532D

 33 36  0  0  0  0  0  0  0  0999 V2000
   -4.5918    2.5561    0.0000 C   0  0  0  0  0  0  0  0  0  0  0  0
   -0.9992    5.4495    0.0000 S   0  0  0  0  0  0  0  0  0  0  0  0
   -0.2872    5.8616    0.0000 N   0  0  0  0  0  0  0  0  0  0  0  0
   -3.8592    2.9807    0.0000 N   0  0  0  0  0  0  0  0  0  0  0  0
   -4.6834    1.7318    0.0000 N   0  0  0  0  0  0  0  0  0  0  0  0
   -5.3162    2.8975    0.0000 S   0  0  0  0  0  0  0  0  0  0  0  0
   -5.4911    1.5819    0.0000 C   0  0  0  0  0  0  0  0  0  0  0  0
   -5.8907    2.3064    0.0000 C   0  0  0  0  0  0  0  0  0  0  0  0
   -3.8675    3.7968    0.0000 C   0  0  0  0  0  0  0  0  0  0  0  0
   -0.2872    6.6860    0.0000 C   0  0  0  0  0  0  0  0  0  0  0  0
    0.4288    5.4453    0.0000 C   0  0  0  0  0  0  0  0  0  0  0  0
   -1.7193    5.0248    0.0000 C   0  0  0  0  0  0  0  0  0  0  0  0
   -1.4113    6.1614    0.0000 O   0  0  0  0  0  0  0  0  0  0  0  0
   -0.5870    4.7251    0.0000 O   0  0  0  0  0  0  0  0  0  0  0  0
   -4.2671    0.3580    0.0000 C   0  0  0  0  0  0  0  0  0  0  0  0
    1.1490    6.6860    0.0000 O   0  0  0  0  0  0  0  0  0  0  0  0
   -4.4544   -0.4538    0.0000 C   0  0  0  0  0  0  0  0  0  0  0  0
   -3.1556    4.2089    0.0000 C   0  0  0  0  0  0  0  0  0  0  0  0
    0.4288    7.0981    0.0000 C   0  0  3  0  0  0  0  0  0  0  0  0
    1.1407    5.8616    0.0000 C   0  0  3  0  0  0  0  0  0  0  0  0
   -4.5793    4.2089    0.0000 O   0  0  0  0  0  0  0  0  0  0  0  0
   -5.9199    0.8826    0.0000 C   0  0  0  0  0  0  0  0  0  0  0  0
   -4.0798    1.1615    0.0000 C   0  0  0  0  0  0  0  0  0  0  0  0
   -2.4354    5.4453    0.0000 C   0  0  0  0  0  0  0  0  0  0  0  0
   -1.7193    4.2006    0.0000 C   0  0  0  0  0  0  0  0  0  0  0  0
   -2.4312    3.8051    0.0000 C   0  0  0  0  0  0  0  0  0  0  0  0
   -3.1473    5.0248    0.0000 C   0  0  0  0  0  0  0  0  0  0  0  0
   -6.7068    2.3313    0.0000 C   0  0  0  0  0  0  0  0  0  0  0  0
   -7.1356    1.6236    0.0000 C   0  0  0  0  0  0  0  0  0  0  0  0
   -6.7234    0.8951    0.0000 C   0  0  0  0  0  0  0  0  0  0  0  0
   -5.5285    0.1499    0.0000 C   0  0  0  0  0  0  0  0  0  0  0  0
    0.4288    7.9223    0.0000 C   0  0  0  0  0  0  0  0  0  0  0  0
    1.8651    5.4370    0.0000 C   0  0  0  0  0  0  0  0  0  0  0  0
  2 12  1  0  0  0  0
  3  2  1  0  0  0  0
  4  1  2  0  0  0  0
  5  1  1  0  0  0  0
  6  1  1  0  0  0  0
  7  5  1  0  0  0  0
  8  6  1  0  0  0  0
  8  7  2  0  0  0  0
  9  4  1  0  0  0  0
 10  3  1  0  0  0  0
 11  3  1  0  0  0  0
 12 24  1  0  0  0  0
 12 25  2  0  0  0  0
 13  2  2  0  0  0  0
 14  2  2  0  0  0  0
 15 23  1  0  0  0  0
 16 20  1  0  0  0  0
 16 19  1  0  0  0  0
 17 15  3  0  0  0  0
 18  9  1  0  0  0  0
 19 10  1  0  0  0  0
 20 11  1  0  0  0  0
 21  9  2  0  0  0  0
 22  7  1  0  0  0  0
 23  5  1  0  0  0  0
 24 27  2  0  0  0  0
 25 26  1  0  0  0  0
 26 18  2  0  0  0  0
 27 18  1  0  0  0  0
 28  8  1  0  0  0  0
 29 28  2  0  0  0  0
 30 22  2  0  0  0  0
 30 29  1  0  0  0  0
 31 22  1  0  0  0  0
 32 19  1  0  0  0  0
 33 20  1  0  0  0  0
M  END
> <CdId>
2570

> <Mol Weight>
483.603

> <Formula>
C24H25N3O4S2

> <Click_ID>
CLK034_A06 __ __ 

$$$$
