CLK004_G05
 OpenBabel03191401532D

 27 29  0  0  0  0  0  0  0  0999 V2000
    0.9304    0.2871    0.0000 C    0  0  3  0  0  0  0  0  0  0  0  0
    1.3420   -0.4289    0.0000 C    0  0  0  0  0  0  0  0  0  0  0  0
    0.1003    0.2871    0.0000 C    0  0  0  0  0  0  0  0  0  0  0  0
    1.3455    0.9927    0.0000 C    0  0  0  0  0  0  0  0  0  0  0  0
    2.1687   -0.4358    0.0000 C    0  0  0  0  0  0  0  0  0  0  0  0
    0.9304   -1.1449    0.0000 C    0  0  0  0  0  0  0  0  0  0  0  0
   -0.3078   -0.4151    0.0000 C    0  0  0  0  0  0  0  0  0  0  0  0
   -0.3078    1.0134    0.0000 C    0  0  0  0  0  0  0  0  0  0  0  0
    2.1687    0.9892    0.0000 C    0  0  0  0  0  0  0  0  0  0  0  0
    0.9339    1.7155    0.0000 C    0  0  0  0  0  0  0  0  0  0  0  0
    2.5769    0.2732    0.0000 O    0  0  0  0  0  0  0  0  0  0  0  0
    2.5769   -1.1449    0.0000 C    0  0  0  0  0  0  0  0  0  0  0  0
    1.3351   -1.8574    0.0000 C    0  0  0  0  0  0  0  0  0  0  0  0
    0.1003   -1.1449    0.0000 O    0  0  0  0  0  0  0  0  0  0  0  0
   -1.1275   -0.4151    0.0000 C    0  0  0  0  0  0  0  0  0  0  0  0
   -1.1241    1.0134    0.0000 C    0  0  0  0  0  0  0  0  0  0  0  0
    2.5872    1.7018    0.0000 N    0  0  0  0  0  0  0  0  0  0  0  0
    0.5326    2.4281    0.0000 N    0  0  0  0  0  0  0  0  0  0  0  0
    2.1687   -1.8574    0.0000 C    0  0  0  0  0  0  0  0  0  0  0  0
   -1.5495    0.2975    0.0000 C    0  0  0  0  0  0  0  0  0  0  0  0
   -1.5495   -1.1172    0.0000 O    0  0  0  0  0  0  0  0  0  0  0  0
   -1.5288    1.7260    0.0000 Cl   0  0  0  0  0  0  0  0  0  0  0  0
   -2.3693    0.2975    0.0000 O    0  0  0  0  0  0  0  0  0  0  0  0
   -1.1345   -1.8332    0.0000 C    0  0  0  0  0  0  0  0  0  0  0  0
   -2.7775   -0.4046    0.0000 C    0  0  0  0  0  0  0  0  0  0  0  0
   -3.6041   -0.4116    0.0000 C    0  0  0  0  0  0  0  0  0  0  0  0
   -4.4204   -0.4046    0.0000 C    0  0  0  0  0  0  0  0  0  0  0  0
  1  2  1  0  0  0  0
  1  3  1  0  0  0  0
  1  4  1  0  0  0  0
  2  5  2  0  0  0  0
  2  6  1  0  0  0  0
  3  7  1  0  0  0  0
  3  8  2  0  0  0  0
  4  9  2  0  0  0  0
  4 10  1  0  0  0  0
  5 11  1  0  0  0  0
  5 12  1  0  0  0  0
  6 13  1  0  0  0  0
  6 14  2  0  0  0  0
  7 15  2  0  0  0  0
  8 16  1  0  0  0  0
  9 17  1  0  0  0  0
  9 11  1  0  0  0  0
 10 18  3  0  0  0  0
 12 19  1  0  0  0  0
 13 19  1  0  0  0  0
 15 20  1  0  0  0  0
 15 21  1  0  0  0  0
 16 22  1  0  0  0  0
 16 20  2  0  0  0  0
 20 23  1  0  0  0  0
 21 24  1  0  0  0  0
 23 25  1  0  0  0  0
 25 26  1  0  0  0  0
 26 27  3  0  0  0  0
M  END
> <CdId>
304

> <Mol Weight>
384.813

> <Formula>
C20H17ClN2O4

> <Click_ID>
CLK004_G05 __ __ 

$$$$
