CLK004_A07
 OpenBabel03191401532D

 22 23  0  0  0  0  0  0  0  0999 V2000
    0.9275    0.5000    0.0000 N   0  0  0  0  0  0  0  0  0  0  0  0
    0.2172    0.0862    0.0000 C   0  0  0  0  0  0  0  0  0  0  0  0
    1.6861    0.1759    0.0000 C   0  0  0  0  0  0  0  0  0  0  0  0
    1.0171    1.3240    0.0000 N   0  0  0  0  0  0  0  0  0  0  0  0
    0.2172   -0.7378    0.0000 C   0  0  0  0  0  0  0  0  0  0  0  0
   -0.5000    0.5000    0.0000 C   0  0  0  0  0  0  0  0  0  0  0  0
    2.2412    0.7999    0.0000 C   0  0  0  0  0  0  0  0  0  0  0  0
    1.8653   -0.6344    0.0000 C   0  0  0  0  0  0  0  0  0  0  0  0
    1.8239    1.4999    0.0000 C   0  0  0  0  0  0  0  0  0  0  0  0
   -0.5000   -1.1516    0.0000 C   0  0  0  0  0  0  0  0  0  0  0  0
   -1.2137    0.0862    0.0000 C   0  0  0  0  0  0  0  0  0  0  0  0
    3.0652    0.7240    0.0000 N   0  3  0  0  0  0  0  0  0  0  0  0
    2.1515    2.2619    0.0000 C   0  0  0  0  0  0  0  0  0  0  0  0
   -1.2137   -0.7378    0.0000 C   0  0  0  0  0  0  0  0  0  0  0  0
    3.5411    1.3999    0.0000 O   0  0  0  0  0  0  0  0  0  0  0  0
    3.4100   -0.0241    0.0000 O   0  5  0  0  0  0  0  0  0  0  0  0
   -1.9343   -1.1516    0.0000 C   0  0  0  0  0  0  0  0  0  0  0  0
   -2.6481   -0.7378    0.0000 O   0  0  0  0  0  0  0  0  0  0  0  0
   -1.9343   -1.9757    0.0000 O   0  0  0  0  0  0  0  0  0  0  0  0
   -3.3583   -1.1516    0.0000 C   0  0  0  0  0  0  0  0  0  0  0  0
   -4.0721   -0.7378    0.0000 C   0  0  0  0  0  0  0  0  0  0  0  0
   -4.7824   -0.3241    0.0000 C   0  0  0  0  0  0  0  0  0  0  0  0
  1  2  1  0  0  0  0
  1  3  1  0  0  0  0
  1  4  1  0  0  0  0
  2  5  1  0  0  0  0
  2  6  2  0  0  0  0
  3  7  2  0  0  0  0
  3  8  1  0  0  0  0
  4  9  2  0  0  0  0
  5 10  2  0  0  0  0
  6 11  1  0  0  0  0
  7 12  1  0  0  0  0
  7  9  1  0  0  0  0
  9 13  1  0  0  0  0
 10 14  1  0  0  0  0
 11 14  2  0  0  0  0
 12 15  2  0  0  0  0
 12 16  1  0  0  0  0
 14 17  1  0  0  0  0
 17 18  1  0  0  0  0
 17 19  2  0  0  0  0
 18 20  1  0  0  0  0
 20 21  1  0  0  0  0
 21 22  3  0  0  0  0
M  END
> <CdId>
246

> <Mol Weight>
299.2814

> <Formula>
C15H13N3O4

> <Click_ID>
CLK004_A07 __ __ 

$$$$
