CLK035_D08
 OpenBabel03191401532D

 24 26  0  0  0  0  0  0  0  0999 V2000
   -4.5928    2.5553    0.0000 C    0  0  0  0  0  0  0  0  0  0  0  0
   -4.6847    1.7369    0.0000 N    0  0  0  0  0  0  0  0  0  0  0  0
   -3.8788    2.9770    0.0000 N    0  0  0  0  0  0  0  0  0  0  0  0
   -5.3318    2.9018    0.0000 S    0  0  0  0  0  0  0  0  0  0  0  0
   -5.4947    1.5741    0.0000 C    0  0  0  0  0  0  0  0  0  0  0  0
   -5.8955    2.3006    0.0000 C    0  0  0  0  0  0  0  0  0  0  0  0
   -3.8788    3.8079    0.0000 C    0  0  0  0  0  0  0  0  0  0  0  0
   -4.2546    0.3507    0.0000 C    0  0  0  0  0  0  0  0  0  0  0  0
   -4.4300   -0.4551    0.0000 C    0  0  0  0  0  0  0  0  0  0  0  0
   -5.9205    0.8726    0.0000 C    0  0  0  0  0  0  0  0  0  0  0  0
   -4.0667    1.1607    0.0000 C    0  0  0  0  0  0  0  0  0  0  0  0
   -4.6053    4.2212    0.0000 O    0  0  0  0  0  0  0  0  0  0  0  0
   -3.1648    5.0271    0.0000 O    0  0  0  0  0  0  0  0  0  0  0  0
   -3.1648    4.2212    0.0000 C    0  0  0  0  0  0  0  0  0  0  0  0
   -5.5197    0.1461    0.0000 Cl   0  0  0  0  0  0  0  0  0  0  0  0
   -6.7181    2.3131    0.0000 C    0  0  0  0  0  0  0  0  0  0  0  0
   -2.4383    5.4530    0.0000 C    0  0  0  0  0  0  0  0  0  0  0  0
   -7.1440    1.6033    0.0000 C    0  0  0  0  0  0  0  0  0  0  0  0
   -6.7306    0.8768    0.0000 C    0  0  0  0  0  0  0  0  0  0  0  0
   -1.7244    5.0396    0.0000 C    0  0  0  0  0  0  0  0  0  0  0  0
   -2.4509    6.2755    0.0000 C    0  0  0  0  0  0  0  0  0  0  0  0
   -1.7286    6.6930    0.0000 C    0  0  0  0  0  0  0  0  0  0  0  0
   -1.0104    5.4530    0.0000 C    0  0  0  0  0  0  0  0  0  0  0  0
   -1.0104    6.2755    0.0000 C    0  0  0  0  0  0  0  0  0  0  0  0
  2  1  1  0  0  0  0
  3  1  2  0  0  0  0
  4  1  1  0  0  0  0
  5  2  1  0  0  0  0
  6  4  1  0  0  0  0
  6  5  2  0  0  0  0
  7  3  1  0  0  0  0
  8 11  1  0  0  0  0
  9  8  3  0  0  0  0
 10  5  1  0  0  0  0
 11  2  1  0  0  0  0
 12  7  2  0  0  0  0
 13 14  1  0  0  0  0
 14  7  1  0  0  0  0
 15 10  1  0  0  0  0
 16  6  1  0  0  0  0
 17 13  1  0  0  0  0
 18 16  2  0  0  0  0
 19 10  2  0  0  0  0
 19 18  1  0  0  0  0
 20 17  2  0  0  0  0
 21 17  1  0  0  0  0
 22 21  2  0  0  0  0
 23 20  1  0  0  0  0
 23 24  2  0  0  0  0
 24 22  1  0  0  0  0
M  END
> <CdId>
2682

> <Mol Weight>
356.826

> <Formula>
C18H13ClN2O2S

> <Click_ID>
CLK035_D08 __ __ 

$$$$
