CLK044G06
 OpenBabel03191401532D

 21 22  0  0  0  0  0  0  0  0999 V2000
    0.9167   -0.3333    0.0000 C   0  0  0  0  0  0  0  0  0  0  0  0
    0.2000    0.0792    0.0000 C   0  0  0  0  0  0  0  0  0  0  0  0
    0.9167   -1.1583    0.0000 C   0  0  0  0  0  0  0  0  0  0  0  0
    0.2000    0.9042    0.0000 N   0  0  0  0  0  0  0  0  0  0  0  0
   -2.6542    0.9042    0.0000 C   0  0  0  0  0  0  0  0  0  0  0  0
   -3.3708    0.4917    0.0000 C   0  0  0  0  0  0  0  0  0  0  0  0
   -0.5125   -0.3333    0.0000 O   0  0  0  0  0  0  0  0  0  0  0  0
    1.6292   -1.5708    0.0000 C   0  0  0  0  0  0  0  0  0  0  0  0
   -0.5125    1.3167    0.0000 C   0  0  0  0  0  0  0  0  0  0  0  0
   -1.9417    1.3167    0.0000 C   0  0  0  0  0  0  0  0  0  0  0  0
   -1.2250    0.9042    0.0000 C   0  0  0  0  0  0  0  0  0  0  0  0
    0.2000   -1.5708    0.0000 O   0  0  0  0  0  0  0  0  0  0  0  0
    1.6292    0.0792    0.0000 C   0  0  0  0  0  0  0  0  0  0  0  0
    1.6292   -2.3958    0.0000 O   0  0  0  0  0  0  0  0  0  0  0  0
    2.3458   -0.3333    0.0000 C   0  0  0  0  0  0  0  0  0  0  0  0
   -1.2250    2.5542    0.0000 C   0  0  0  0  0  0  0  0  0  0  0  0
    2.3458   -1.1583    0.0000 C   0  0  0  0  0  0  0  0  0  0  0  0
   -0.5125    2.1417    0.0000 C   0  0  0  0  0  0  0  0  0  0  0  0
   -1.9417    2.1417    0.0000 C   0  0  0  0  0  0  0  0  0  0  0  0
   -0.5125   -1.1583    0.0000 C   0  0  0  0  0  0  0  0  0  0  0  0
    2.3458   -2.8083    0.0000 C   0  0  0  0  0  0  0  0  0  0  0  0
  2  1  1  0  0  0  0
  3  1  1  0  0  0  0
  4  2  1  0  0  0  0
  5 10  1  0  0  0  0
  6  5  3  0  0  0  0
  7  2  2  0  0  0  0
  8  3  2  0  0  0  0
  9  4  1  0  0  0  0
 10 11  1  0  0  0  0
 11  9  2  0  0  0  0
 12  3  1  0  0  0  0
 13  1  2  0  0  0  0
 14  8  1  0  0  0  0
 15 13  1  0  0  0  0
 15 17  2  0  0  0  0
 16 18  2  0  0  0  0
 17  8  1  0  0  0  0
 18  9  1  0  0  0  0
 19 10  2  0  0  0  0
 19 16  1  0  0  0  0
 20 12  1  0  0  0  0
 21 14  1  0  0  0  0
M  END
> <CdId>
3367

> <Mol Weight>
281.3059

> <Formula>
C17H15NO3

> <Click_ID>
CLK044G06 __ __ 

$$$$
