CLK019_H06
 OpenBabel03191401532D

 25 26  0  0  0  0  0  0  0  0999 V2000
    5.7250   -4.7875    0.0000 C   0  0  0  0  0  0  0  0  0  0  0  0
    6.4375   -4.3667    0.0000 C   0  0  3  0  0  0  0  0  0  0  0  0
    5.7250   -5.6125    0.0000 C   0  0  0  0  0  0  0  0  0  0  0  0
    7.1542   -5.6125    0.0000 C   0  0  0  0  0  0  0  0  0  0  0  0
    6.4375   -6.0250    0.0000 N   0  0  0  0  0  0  0  0  0  0  0  0
    7.1542   -4.7792    0.0000 N   0  0  0  0  0  0  0  0  0  0  0  0
    5.0042   -4.3750    0.0000 C   0  0  0  0  0  0  0  0  0  0  0  0
    6.4292   -3.5500    0.0000 C   0  0  0  0  0  0  0  0  0  0  0  0
    7.1417   -3.1375    0.0000 C   0  0  0  0  0  0  0  0  0  0  0  0
    4.9917   -1.0792    0.0000 C   0  0  0  0  0  0  0  0  0  0  0  0
    4.2792   -0.6667    0.0000 C   0  0  0  0  0  0  0  0  0  0  0  0
    7.1417   -2.3167    0.0000 C   0  0  0  0  0  0  0  0  0  0  0  0
    7.8667   -6.0250    0.0000 O   0  0  0  0  0  0  0  0  0  0  0  0
    6.4292   -1.9000    0.0000 C   0  0  0  0  0  0  0  0  0  0  0  0
    5.7167   -3.1417    0.0000 C   0  0  0  0  0  0  0  0  0  0  0  0
    5.0042   -3.5500    0.0000 O   0  0  0  0  0  0  0  0  0  0  0  0
    5.7125   -2.3167    0.0000 C   0  0  0  0  0  0  0  0  0  0  0  0
    4.2917   -4.7875    0.0000 O   0  0  0  0  0  0  0  0  0  0  0  0
    5.0042   -6.0250    0.0000 C   0  0  0  0  0  0  0  0  0  0  0  0
    7.8542   -1.9042    0.0000 O   0  0  0  0  0  0  0  0  0  0  0  0
    6.4250   -1.0792    0.0000 O   0  0  0  0  0  0  0  0  0  0  0  0
    5.7125   -0.6667    0.0000 C   0  0  0  0  0  0  0  0  0  0  0  0
    3.5792   -4.3750    0.0000 C   0  0  0  0  0  0  0  0  0  0  0  0
    7.8542   -1.0792    0.0000 C   0  0  0  0  0  0  0  0  0  0  0  0
    2.8667   -4.7875    0.0000 C   0  0  0  0  0  0  0  0  0  0  0  0
  2  1  1  0  0  0  0
  3  1  2  0  0  0  0
  4  5  1  0  0  0  0
  4  6  1  0  0  0  0
  5  3  1  0  0  0  0
  6  2  1  0  0  0  0
  7  1  1  0  0  0  0
  8  2  1  0  0  0  0
  9  8  2  0  0  0  0
 10 22  1  0  0  0  0
 11 10  3  0  0  0  0
 12  9  1  0  0  0  0
 13  4  2  0  0  0  0
 14 17  1  0  0  0  0
 14 12  2  0  0  0  0
 15  8  1  0  0  0  0
 16  7  2  0  0  0  0
 17 15  2  0  0  0  0
 18  7  1  0  0  0  0
 19  3  1  0  0  0  0
 20 12  1  0  0  0  0
 21 14  1  0  0  0  0
 22 21  1  0  0  0  0
 23 18  1  0  0  0  0
 24 20  1  0  0  0  0
 25 23  1  0  0  0  0
M  END
> <CdId>
1471

> <Mol Weight>
344.3618

> <Formula>
C18H20N2O5

> <Click_ID>
CLK019_H06 __ __ 

$$$$
