CLK023_E10
 OpenBabel03191401532D

 19 20  0  0  0  0  0  0  0  0999 V2000
    1.2367    0.1168    0.0000 N    0  0  0  0  0  0  0  0  0  0  0  0
    0.8245   -0.5909    0.0000 C    0  0  0  0  0  0  0  0  0  0  0  0
   -0.0687    0.4122    0.0000 C    0  0  0  0  0  0  0  0  0  0  0  0
    0.6905    0.7352    0.0000 C    0  0  0  0  0  0  0  0  0  0  0  0
    0.0206   -0.4088    0.0000 S    0  0  0  0  0  0  0  0  0  0  0  0
   -0.7798    0.8210    0.0000 C    0  0  0  0  0  0  0  0  0  0  0  0
   -1.4978    0.4019    0.0000 C    0  0  0  0  0  0  0  0  0  0  0  0
    2.5352   -0.4569    0.0000 C    0  0  0  0  0  0  0  0  0  0  0  0
    2.9372   -1.1714    0.0000 C    0  0  0  0  0  0  0  0  0  0  0  0
    1.1474   -1.3466    0.0000 O    0  0  0  0  0  0  0  0  0  0  0  0
    0.8622    1.5390    0.0000 O    0  0  0  0  0  0  0  0  0  0  0  0
   -2.2157    0.8245    0.0000 C    0  0  0  0  0  0  0  0  0  0  0  0
    2.0543    0.2061    0.0000 C    0  0  0  0  0  0  0  0  0  0  0  0
   -1.5081   -0.4157    0.0000 C    0  0  0  0  0  0  0  0  0  0  0  0
   -2.9337    0.4157    0.0000 C    0  0  0  0  0  0  0  0  0  0  0  0
   -2.2157   -0.8245    0.0000 C    0  0  0  0  0  0  0  0  0  0  0  0
   -2.9372   -0.4191    0.0000 C    0  0  0  0  0  0  0  0  0  0  0  0
   -2.2261   -1.6489    0.0000 Cl   0  0  0  0  0  0  0  0  0  0  0  0
   -2.2157    1.6524    0.0000 O    0  0  0  0  0  0  0  0  0  0  0  0
  2  1  1  0  0  0  0
  3  4  1  0  0  0  0
  4  1  1  0  0  0  0
  5  2  1  0  0  0  0
  5  3  1  0  0  0  0
  6  3  2  0  0  0  0
  7  6  1  0  0  0  0
  8 13  1  0  0  0  0
  9  8  3  0  0  0  0
 10  2  2  0  0  0  0
 11  4  2  0  0  0  0
 12  7  2  0  0  0  0
 13  1  1  0  0  0  0
 14  7  1  0  0  0  0
 15 12  1  0  0  0  0
 15 17  2  0  0  0  0
 16 14  2  0  0  0  0
 17 16  1  0  0  0  0
 18 16  1  0  0  0  0
 19 12  1  0  0  0  0
M  END
> <CdId>
1745

> <Mol Weight>
293.726

> <Formula>
C13H8ClNO3S

> <Click_ID>
CLK023_E10 __ __ 

$$$$
