CLK026_C07
 OpenBabel03191401532D

 22 23  0  0  0  0  0  0  0  0999 V2000
   -2.6776   -0.4193    0.0000 N   0  0  0  0  0  0  0  0  0  0  0  0
   -3.0935   -1.1411    0.0000 C   0  0  0  0  0  0  0  0  0  0  0  0
   -1.7908   -1.4195    0.0000 C   0  0  0  0  0  0  0  0  0  0  0  0
   -1.8699   -0.6049    0.0000 C   0  0  0  0  0  0  0  0  0  0  0  0
   -2.5435   -1.7565    0.0000 N   0  0  0  0  0  0  0  0  0  0  0  0
    1.0690   -0.6084    0.0000 C   0  0  0  0  0  0  0  0  0  0  0  0
   -1.0724   -1.8458    0.0000 C   0  0  0  0  0  0  0  0  0  0  0  0
    1.0553   -1.4333    0.0000 C   0  0  0  0  0  0  0  0  0  0  0  0
    0.3644   -0.1925    0.0000 C   0  0  0  0  0  0  0  0  0  0  0  0
   -0.3678   -1.4333    0.0000 C   0  0  0  0  0  0  0  0  0  0  0  0
    3.2035   -0.2337    0.0000 C   0  0  0  0  0  0  0  0  0  0  0  0
    3.9288    0.1788    0.0000 C   0  0  0  0  0  0  0  0  0  0  0  0
    0.3438   -1.8458    0.0000 C   0  0  0  0  0  0  0  0  0  0  0  0
   -0.3541   -0.6049    0.0000 C   0  0  0  0  0  0  0  0  0  0  0  0
   -3.9322   -1.2168    0.0000 O   0  0  0  0  0  0  0  0  0  0  0  0
   -1.2580   -0.0447    0.0000 O   0  0  0  0  0  0  0  0  0  0  0  0
    1.7668   -1.8526    0.0000 I   0  0  0  0  0  0  0  0  0  0  0  0
    1.7805   -0.2028    0.0000 O   0  0  0  0  0  0  0  0  0  0  0  0
    0.3678    0.6187    0.0000 O   0  0  0  0  0  0  0  0  0  0  0  0
    2.4920   -0.6290    0.0000 C   0  0  0  0  0  0  0  0  0  0  0  0
   -0.3438    1.0312    0.0000 C   0  0  0  0  0  0  0  0  0  0  0  0
   -0.3334    1.8561    0.0000 C   0  0  0  0  0  0  0  0  0  0  0  0
  2  1  1  0  0  0  0
  3  4  1  0  0  0  0
  4  1  1  0  0  0  0
  5  2  1  0  0  0  0
  5  3  1  0  0  0  0
  6  9  2  0  0  0  0
  7  3  2  0  0  0  0
  8 13  2  0  0  0  0
  8  6  1  0  0  0  0
  9 14  1  0  0  0  0
 10  7  1  0  0  0  0
 11 20  1  0  0  0  0
 12 11  3  0  0  0  0
 13 10  1  0  0  0  0
 14 10  2  0  0  0  0
 15  2  2  0  0  0  0
 16  4  2  0  0  0  0
 17  8  1  0  0  0  0
 18  6  1  0  0  0  0
 19  9  1  0  0  0  0
 20 18  1  0  0  0  0
 21 19  1  0  0  0  0
 22 21  1  0  0  0  0
M  END
> <CdId>
1962

> <Mol Weight>
412.1792

> <Formula>
C15H13IN2O4

> <Click_ID>
CLK026_C07 __ __ 

$$$$
