CLK032_G10
 OpenBabel03191401532D

 23 25  0  0  0  0  0  0  0  0999 V2000
   -1.8962    2.1587    0.0000 C   0  0  0  0  0  0  0  0  0  0  0  0
   -1.0710    2.1587    0.0000 N   0  0  0  0  0  0  0  0  0  0  0  0
   -2.3754    2.8213    0.0000 N   0  0  0  0  0  0  0  0  0  0  0  0
   -2.3754    1.4836    0.0000 S   0  0  0  0  0  0  0  0  0  0  0  0
   -0.6584    1.4461    0.0000 C   0  0  0  0  0  0  0  0  0  0  0  0
   -3.1631    2.5588    0.0000 C   0  0  0  0  0  0  0  0  0  0  0  0
   -3.1589    1.7336    0.0000 C   0  0  0  0  0  0  0  0  0  0  0  0
    0.1667    1.4461    0.0000 C   0  0  0  0  0  0  0  0  0  0  0  0
   -1.3210    3.7715    0.0000 C   0  0  0  0  0  0  0  0  0  0  0  0
   -0.5209    3.9465    0.0000 C   0  0  0  0  0  0  0  0  0  0  0  0
   -3.8757    2.9839    0.0000 C   0  0  0  0  0  0  0  0  0  0  0  0
    0.5751    2.1462    0.0000 C   0  0  0  0  0  0  0  0  0  0  0  0
   -1.0627    0.7251    0.0000 O   0  0  0  0  0  0  0  0  0  0  0  0
   -2.1254    3.6090    0.0000 C   0  0  0  0  0  0  0  0  0  0  0  0
    0.1542    2.8713    0.0000 F   0  0  0  0  0  0  0  0  0  0  0  0
   -3.8757    3.8007    0.0000 F   0  0  0  0  0  0  0  0  0  0  0  0
   -3.8757    1.3253    0.0000 C   0  0  0  0  0  0  0  0  0  0  0  0
    0.5876    0.7334    0.0000 C   0  0  0  0  0  0  0  0  0  0  0  0
   -4.5842    1.7336    0.0000 C   0  0  0  0  0  0  0  0  0  0  0  0
   -4.5842    2.5588    0.0000 C   0  0  0  0  0  0  0  0  0  0  0  0
    1.4003    2.1587    0.0000 C   0  0  0  0  0  0  0  0  0  0  0  0
    1.4045    0.7334    0.0000 C   0  0  0  0  0  0  0  0  0  0  0  0
    1.8128    1.4503    0.0000 C   0  0  0  0  0  0  0  0  0  0  0  0
  2  1  2  0  0  0  0
  3  1  1  0  0  0  0
  4  1  1  0  0  0  0
  5  2  1  0  0  0  0
  6  3  1  0  0  0  0
  7  4  1  0  0  0  0
  7  6  2  0  0  0  0
  8  5  1  0  0  0  0
  9 14  1  0  0  0  0
 10  9  3  0  0  0  0
 11  6  1  0  0  0  0
 12  8  1  0  0  0  0
 13  5  2  0  0  0  0
 14  3  1  0  0  0  0
 15 12  1  0  0  0  0
 16 11  1  0  0  0  0
 17  7  1  0  0  0  0
 18  8  2  0  0  0  0
 19 17  2  0  0  0  0
 19 20  1  0  0  0  0
 20 11  2  0  0  0  0
 21 12  2  0  0  0  0
 22 18  1  0  0  0  0
 23 22  2  0  0  0  0
 23 21  1  0  0  0  0
M  END
> <CdId>
2474

> <Mol Weight>
328.336

> <Formula>
C17H10F2N2OS

> <Click_ID>
CLK032_G10 __ __ 

$$$$
