CLK018_G10
 OpenBabel03191401532D

 26 28  0  0  0  0  0  0  0  0999 V2000
    1.5646   -0.8156    0.0000 N    0  0  0  0  0  0  0  0  0  0  0  0
    1.8225   -1.6020    0.0000 C    0  0  0  0  0  0  0  0  0  0  0  0
    4.5230    1.4064    0.0000 N    0  0  0  0  0  0  0  0  0  0  0  0
    2.9002   -0.8156    0.0000 C    0  0  0  0  0  0  0  0  0  0  0  0
    2.2345   -0.3288    0.0000 C    0  0  0  0  0  0  0  0  0  0  0  0
    3.8490    0.2455    0.0000 C    0  0  0  0  0  0  0  0  0  0  0  0
    2.6464   -1.6020    0.0000 S    0  0  0  0  0  0  0  0  0  0  0  0
    3.7116    1.5729    0.0000 C    0  0  0  0  0  0  0  0  0  0  0  0
    4.6104    0.5825    0.0000 C    0  0  0  0  0  0  0  0  0  0  0  0
    3.6867   -0.5617    0.0000 C    0  0  0  0  0  0  0  0  0  0  0  0
    3.2997    0.8571    0.0000 C    0  0  0  0  0  0  0  0  0  0  0  0
    5.1430    1.9556    0.0000 C    0  0  0  0  0  0  0  0  0  0  0  0
    4.9682    2.7463    0.0000 C    0  0  0  0  0  0  0  0  0  0  0  0
    5.5841    3.2955    0.0000 C    0  0  0  0  0  0  0  0  0  0  0  0
    0.6117    0.2455    0.0000 C    0  0  0  0  0  0  0  0  0  0  0  0
    0.3912    1.0444    0.0000 C    0  0  0  0  0  0  0  0  0  0  0  0
    1.3357   -2.2636    0.0000 O    0  0  0  0  0  0  0  0  0  0  0  0
    2.2262    0.4951    0.0000 O    0  0  0  0  0  0  0  0  0  0  0  0
    0.7864   -0.5617    0.0000 C    0  0  0  0  0  0  0  0  0  0  0  0
    6.3705    3.0417    0.0000 C    0  0  0  0  0  0  0  0  0  0  0  0
    5.9211    1.6935    0.0000 C    0  0  0  0  0  0  0  0  0  0  0  0
    6.5328    2.2345    0.0000 C    0  0  0  0  0  0  0  0  0  0  0  0
    5.4176    4.0986    0.0000 Cl   0  0  0  0  0  0  0  0  0  0  0  0
    3.3829    2.3301    0.0000 C    0  0  0  0  0  0  0  0  0  0  0  0
    6.9822    3.5909    0.0000 F    0  0  0  0  0  0  0  0  0  0  0  0
    5.3219    0.1706    0.0000 C    0  0  0  0  0  0  0  0  0  0  0  0
  2  1  1  0  0  0  0
  3  9  1  0  0  0  0
  3  8  1  0  0  0  0
  4  5  1  0  0  0  0
  4  7  1  0  0  0  0
  5  1  1  0  0  0  0
  6 10  1  0  0  0  0
  7  2  1  0  0  0  0
  8 11  2  0  0  0  0
  9  6  2  0  0  0  0
 10  4  2  0  0  0  0
 11  6  1  0  0  0  0
 12  3  1  0  0  0  0
 13 12  1  0  0  0  0
 14 13  2  0  0  0  0
 15 19  1  0  0  0  0
 16 15  3  0  0  0  0
 17  2  2  0  0  0  0
 18  5  2  0  0  0  0
 19  1  1  0  0  0  0
 20 22  2  0  0  0  0
 20 14  1  0  0  0  0
 21 12  2  0  0  0  0
 22 21  1  0  0  0  0
 23 14  1  0  0  0  0
 24  8  1  0  0  0  0
 25 20  1  0  0  0  0
 26  9  1  0  0  0  0
M  END
> <CdId>
1385

> <Mol Weight>
388.843

> <Formula>
C19H14ClFN2O2S

> <Click_ID>
CLK018_G10 __ __ 

$$$$
