CLK041F09
 OpenBabel03191401532D

 25 28  0  0  0  0  0  0  0  0999 V2000
   -0.8292   -0.0750    0.0000 C   0  0  0  0  0  0  0  0  0  0  0  0
   -1.3125    0.5917    0.0000 N   0  0  0  0  0  0  0  0  0  0  0  0
   -1.3125   -0.7417    0.0000 N   0  0  0  0  0  0  0  0  0  0  0  0
   -0.0042   -0.0750    0.0000 C   0  0  3  0  0  0  0  0  0  0  0  0
    1.2667    0.3375    0.0000 N   0  0  0  0  0  0  0  0  0  0  0  0
    1.2667   -0.4875    0.0000 C   0  0  0  0  0  0  0  0  0  0  0  0
    0.4792    0.5917    0.0000 C   0  0  0  0  0  0  0  0  0  0  0  0
   -2.1000   -0.4875    0.0000 C   0  0  0  0  0  0  0  0  0  0  0  0
   -2.1000    0.3375    0.0000 C   0  0  0  0  0  0  0  0  0  0  0  0
    0.4792   -0.7417    0.0000 C   0  0  0  0  0  0  0  0  0  0  0  0
    1.9333    0.8250    0.0000 C   0  0  0  0  0  0  0  0  0  0  0  0
   -1.6125   -2.1417    0.0000 C   0  0  0  0  0  0  0  0  0  0  0  0
   -2.1625   -2.7542    0.0000 C   0  0  0  0  0  0  0  0  0  0  0  0
    1.9333   -0.9708    0.0000 O   0  0  0  0  0  0  0  0  0  0  0  0
    2.6875    0.4875    0.0000 C   0  0  0  0  0  0  0  0  0  0  0  0
   -1.0583   -1.5250    0.0000 C   0  0  0  0  0  0  0  0  0  0  0  0
    3.3542    0.9708    0.0000 C   0  0  0  0  0  0  0  0  0  0  0  0
    1.8458    1.6417    0.0000 C   0  0  0  0  0  0  0  0  0  0  0  0
   -2.8125   -0.9000    0.0000 C   0  0  0  0  0  0  0  0  0  0  0  0
   -2.8125    0.7500    0.0000 C   0  0  0  0  0  0  0  0  0  0  0  0
    2.5125    2.1292    0.0000 C   0  0  0  0  0  0  0  0  0  0  0  0
    3.2667    1.7917    0.0000 C   0  0  0  0  0  0  0  0  0  0  0  0
    4.1083    0.6375    0.0000 C   0  0  0  0  0  0  0  0  0  0  0  0
   -3.5292   -0.4875    0.0000 C   0  0  0  0  0  0  0  0  0  0  0  0
   -3.5292    0.3375    0.0000 C   0  0  0  0  0  0  0  0  0  0  0  0
  2  1  2  0  0  0  0
  3  1  1  0  0  0  0
  4  1  1  0  0  0  0
  5  7  1  0  0  0  0
  6 10  1  0  0  0  0
  6  5  1  0  0  0  0
  7  4  1  0  0  0  0
  8  3  1  0  0  0  0
  8  9  2  0  0  0  0
  9  2  1  0  0  0  0
 10  4  1  0  0  0  0
 11  5  1  0  0  0  0
 12 16  1  0  0  0  0
 13 12  3  0  0  0  0
 14  6  2  0  0  0  0
 15 11  1  0  0  0  0
 16  3  1  0  0  0  0
 17 15  2  0  0  0  0
 18 11  2  0  0  0  0
 19  8  1  0  0  0  0
 20  9  1  0  0  0  0
 21 18  1  0  0  0  0
 21 22  2  0  0  0  0
 22 17  1  0  0  0  0
 23 17  1  0  0  0  0
 24 19  2  0  0  0  0
 24 25  1  0  0  0  0
 25 20  2  0  0  0  0
M  END
> <CdId>
3150

> <Mol Weight>
329.3951

> <Formula>
C21H19N3O

> <Click_ID>
CLK041F09 __ __ 

$$$$
