CLK037D09
 OpenBabel03191401532D

 25 26  0  0  0  0  0  0  0  0999 V2000
    0.6833   -0.1958    0.0000 S    0  0  0  0  0  0  0  0  0  0  0  0
   -0.0292    0.2167    0.0000 C    0  0  0  0  0  0  0  0  0  0  0  0
    1.4000   -0.6083    0.0000 C    0  0  0  0  0  0  0  0  0  0  0  0
   -0.0292    1.0417    0.0000 C    0  0  0  0  0  0  0  0  0  0  0  0
   -0.7458   -0.1958    0.0000 C    0  0  0  0  0  0  0  0  0  0  0  0
    1.4000   -1.4333    0.0000 C    0  0  0  0  0  0  0  0  0  0  0  0
   -1.4583   -0.6083    0.0000 N    0  0  0  0  0  0  0  0  0  0  0  0
    0.2708   -0.9125    0.0000 O    0  0  0  0  0  0  0  0  0  0  0  0
    1.0958    0.5167    0.0000 O    0  0  0  0  0  0  0  0  0  0  0  0
    2.1125   -0.1958    0.0000 C    0  0  0  0  0  0  0  0  0  0  0  0
   -0.7458    1.4542    0.0000 C    0  0  0  0  0  0  0  0  0  0  0  0
   -2.1750   -1.0208    0.0000 C    0  0  0  0  0  0  0  0  0  0  0  0
   -2.1750   -1.8458    0.0000 C    0  0  0  0  0  0  0  0  0  0  0  0
   -1.4583    1.0417    0.0000 C    0  0  0  0  0  0  0  0  0  0  0  0
    2.8292   -0.6083    0.0000 C    0  0  0  0  0  0  0  0  0  0  0  0
    2.1125   -1.8458    0.0000 C    0  0  0  0  0  0  0  0  0  0  0  0
    2.1125    0.6292    0.0000 Cl   0  0  0  0  0  0  0  0  0  0  0  0
    2.8292   -1.4333    0.0000 C    0  0  0  0  0  0  0  0  0  0  0  0
    2.1125   -2.6708    0.0000 Cl   0  0  0  0  0  0  0  0  0  0  0  0
   -1.4583    0.2167    0.0000 O    0  0  0  0  0  0  0  0  0  0  0  0
   -2.1750   -0.1958    0.0000 C    0  0  0  0  0  0  0  0  0  0  0  0
   -0.7458    2.2792    0.0000 C    0  0  0  0  0  0  0  0  0  0  0  0
   -2.1750    1.4542    0.0000 C    0  0  0  0  0  0  0  0  0  0  0  0
   -1.4583    2.6917    0.0000 C    0  0  0  0  0  0  0  0  0  0  0  0
   -2.1750    2.2792    0.0000 C    0  0  0  0  0  0  0  0  0  0  0  0
  2  1  1  0  0  0  0
  3  1  1  0  0  0  0
  4  2  2  0  0  0  0
  5  2  1  0  0  0  0
  6  3  1  0  0  0  0
  7  5  3  0  0  0  0
  8  1  2  0  0  0  0
  9  1  2  0  0  0  0
 10  3  2  0  0  0  0
 11  4  1  0  0  0  0
 12 21  1  0  0  0  0
 13 12  3  0  0  0  0
 14 11  2  0  0  0  0
 15 10  1  0  0  0  0
 15 18  2  0  0  0  0
 16  6  2  0  0  0  0
 17 10  1  0  0  0  0
 18 16  1  0  0  0  0
 19 16  1  0  0  0  0
 20 14  1  0  0  0  0
 21 20  1  0  0  0  0
 22 11  1  0  0  0  0
 23 14  1  0  0  0  0
 24 22  2  0  0  0  0
 25 23  2  0  0  0  0
 25 24  1  0  0  0  0
M  END
> <CdId>
2828

> <Mol Weight>
392.256

> <Formula>
C18H11Cl2NO3S

> <Click_ID>
CLK037D09 __ __ 

$$$$
