CLK031_F05
 OpenBabel03191401532D

 38 42  0  0  0  0  0  0  0  0999 V2000
   -1.1625    2.3833    0.0000 C   0  0  0  0  0  0  0  0  0  0  0  0
    3.3792    3.0833    0.0000 S   0  0  0  0  0  0  0  0  0  0  0  0
   -0.3375    2.3750    0.0000 N   0  0  0  0  0  0  0  0  0  0  0  0
   -4.5833    3.2125    0.0000 S   0  0  0  0  0  0  0  0  0  0  0  0
   -1.6458    1.7208    0.0000 N   0  0  0  0  0  0  0  0  0  0  0  0
    4.2125    3.0833    0.0000 N   0  0  0  0  0  0  0  0  0  0  0  0
   -1.6458    3.0500    0.0000 S   0  0  0  0  0  0  0  0  0  0  0  0
   -2.4333    2.7958    0.0000 C   0  0  0  0  0  0  0  0  0  0  0  0
   -2.4333    1.9708    0.0000 C   0  0  0  0  0  0  0  0  0  0  0  0
    0.0750    3.0875    0.0000 C   0  0  0  0  0  0  0  0  0  0  0  0
   -3.8583    2.7958    0.0000 C   0  0  0  0  0  0  0  0  0  0  0  0
   -3.1458    3.2083    0.0000 C   0  0  0  0  0  0  0  0  0  0  0  0
    4.6250    2.3625    0.0000 C   0  0  0  0  0  0  0  0  0  0  0  0
    2.5542    3.0833    0.0000 C   0  0  0  0  0  0  0  0  0  0  0  0
    3.3875    3.9083    0.0000 O   0  0  0  0  0  0  0  0  0  0  0  0
    3.3792    2.2458    0.0000 O   0  0  0  0  0  0  0  0  0  0  0  0
   -1.9458    0.3208    0.0000 C   0  0  0  0  0  0  0  0  0  0  0  0
   -3.1458    1.5583    0.0000 C   0  0  0  0  0  0  0  0  0  0  0  0
   -2.4958   -0.2917    0.0000 C   0  0  0  0  0  0  0  0  0  0  0  0
   -4.1458    3.9083    0.0000 O   0  0  0  0  0  0  0  0  0  0  0  0
   -5.0208    2.5083    0.0000 O   0  0  0  0  0  0  0  0  0  0  0  0
    5.4542    2.3583    0.0000 C   0  0  0  0  0  0  0  0  0  0  0  0
    0.9000    3.0875    0.0000 C   0  0  0  0  0  0  0  0  0  0  0  0
    4.6292    3.7958    0.0000 C   0  0  0  0  0  0  0  0  0  0  0  0
   -5.2833    3.6458    0.0000 N   0  0  0  0  0  0  0  0  0  0  0  0
   -0.3375    3.8000    0.0000 O   0  0  0  0  0  0  0  0  0  0  0  0
   -3.8583    1.9708    0.0000 C   0  0  0  0  0  0  0  0  0  0  0  0
    5.8667    3.0708    0.0000 C   0  0  0  0  0  0  0  0  0  0  0  0
   -1.3958    0.9333    0.0000 C   0  0  0  0  0  0  0  0  0  0  0  0
    2.1292    2.3708    0.0000 C   0  0  0  0  0  0  0  0  0  0  0  0
    2.1417    3.8000    0.0000 C   0  0  0  0  0  0  0  0  0  0  0  0
    5.4542    3.7958    0.0000 C   0  0  0  0  0  0  0  0  0  0  0  0
    1.3167    2.3708    0.0000 C   0  0  0  0  0  0  0  0  0  0  0  0
    1.3167    3.8083    0.0000 C   0  0  0  0  0  0  0  0  0  0  0  0
    5.8667    1.6375    0.0000 C   0  0  0  0  0  0  0  0  0  0  0  0
    6.6917    3.0625    0.0000 C   0  0  0  0  0  0  0  0  0  0  0  0
    6.6917    1.6333    0.0000 C   0  0  0  0  0  0  0  0  0  0  0  0
    7.1042    2.3583    0.0000 C   0  0  0  0  0  0  0  0  0  0  0  0
  2 14  1  0  0  0  0
  3  1  2  0  0  0  0
  4 11  1  0  0  0  0
  5  1  1  0  0  0  0
  6  2  1  0  0  0  0
  7  1  1  0  0  0  0
  8  7  1  0  0  0  0
  8  9  2  0  0  0  0
  9  5  1  0  0  0  0
 10  3  1  0  0  0  0
 11 12  2  0  0  0  0
 11 27  1  0  0  0  0
 12  8  1  0  0  0  0
 13  6  1  0  0  0  0
 14 31  1  0  0  0  0
 15  2  2  0  0  0  0
 16  2  2  0  0  0  0
 17 29  1  0  0  0  0
 18  9  1  0  0  0  0
 19 17  3  0  0  0  0
 20  4  2  0  0  0  0
 21  4  2  0  0  0  0
 22 13  1  0  0  0  0
 23 10  1  0  0  0  0
 24  6  1  0  0  0  0
 25  4  1  0  0  0  0
 26 10  2  0  0  0  0
 27 18  2  0  0  0  0
 28 32  1  0  0  0  0
 28 22  2  0  0  0  0
 29  5  1  0  0  0  0
 30 33  1  0  0  0  0
 30 14  2  0  0  0  0
 31 34  2  0  0  0  0
 32 24  1  0  0  0  0
 33 23  2  0  0  0  0
 34 23  1  0  0  0  0
 35 22  1  0  0  0  0
 36 28  1  0  0  0  0
 37 35  2  0  0  0  0
 38 36  2  0  0  0  0
 38 37  1  0  0  0  0
M  END
> <CdId>
2379

> <Mol Weight>
566.672

> <Formula>
C26H22N4O5S3

> <Click_ID>
CLK031_F05 __ __ 

$$$$
