CLK040C06
 OpenBabel03191401532D

 23 25  0  0  0  0  0  0  0  0999 V2000
   -0.3792    1.3375    0.0000 C   0  0  0  0  0  0  0  0  0  0  0  0
   -1.1625    1.0833    0.0000 C   0  0  0  0  0  0  0  0  0  0  0  0
   -1.6500    1.7500    0.0000 C   0  0  0  0  0  0  0  0  0  0  0  0
   -0.3792    2.1625    0.0000 C   0  0  0  0  0  0  0  0  0  0  0  0
   -1.1625    2.4208    0.0000 S   0  0  0  0  0  0  0  0  0  0  0  0
    0.3333    0.9250    0.0000 C   0  0  0  0  0  0  0  0  0  0  0  0
    0.3333    2.5750    0.0000 N   0  0  0  0  0  0  0  0  0  0  0  0
    1.0500    1.3375    0.0000 N   0  0  0  0  0  0  0  0  0  0  0  0
    2.4792   -2.7875    0.0000 C   0  0  0  0  0  0  0  0  0  0  0  0
    3.1917   -3.2000    0.0000 C   0  0  0  0  0  0  0  0  0  0  0  0
    0.3333    0.1000    0.0000 S   0  0  0  0  0  0  0  0  0  0  0  0
    1.0500    2.1625    0.0000 C   0  0  0  0  0  0  0  0  0  0  0  0
    1.0500   -1.1375    0.0000 C   0  0  0  0  0  0  0  0  0  0  0  0
   -1.4208    0.3000    0.0000 C   0  0  0  0  0  0  0  0  0  0  0  0
    0.3333   -1.5500    0.0000 O   0  0  0  0  0  0  0  0  0  0  0  0
    1.0500   -0.3125    0.0000 C   0  0  0  0  0  0  0  0  0  0  0  0
    1.7625   -1.5500    0.0000 N   0  0  0  0  0  0  0  0  0  0  0  0
    1.7625   -2.3750    0.0000 C   0  0  0  0  0  0  0  0  0  0  0  0
   -0.8667   -0.3125    0.0000 C   0  0  0  0  0  0  0  0  0  0  0  0
   -2.2250    0.1292    0.0000 C   0  0  0  0  0  0  0  0  0  0  0  0
   -2.4792   -0.6583    0.0000 C   0  0  0  0  0  0  0  0  0  0  0  0
   -1.1208   -1.1000    0.0000 C   0  0  0  0  0  0  0  0  0  0  0  0
   -1.9292   -1.2708    0.0000 C   0  0  0  0  0  0  0  0  0  0  0  0
  2  1  1  0  0  0  0
  3  2  2  0  0  0  0
  3  5  1  0  0  0  0
  4  1  1  0  0  0  0
  5  4  1  0  0  0  0
  6  1  2  0  0  0  0
  7  4  2  0  0  0  0
  8  6  1  0  0  0  0
  9 18  1  0  0  0  0
 10  9  3  0  0  0  0
 11  6  1  0  0  0  0
 12  7  1  0  0  0  0
 12  8  2  0  0  0  0
 13 16  1  0  0  0  0
 14  2  1  0  0  0  0
 15 13  2  0  0  0  0
 16 11  1  0  0  0  0
 17 13  1  0  0  0  0
 18 17  1  0  0  0  0
 19 14  2  0  0  0  0
 20 14  1  0  0  0  0
 21 20  2  0  0  0  0
 22 19  1  0  0  0  0
 23 22  2  0  0  0  0
 23 21  1  0  0  0  0
M  END
> <CdId>
3043

> <Mol Weight>
339.435

> <Formula>
C17H13N3OS2

> <Click_ID>
CLK040C06 __ __ 

$$$$
