CLK035_C11
 OpenBabel03191401532D

 24 26  0  0  0  0  0  0  0  0999 V2000
   -0.5476    2.1947    0.0000 C   0  0  0  0  0  0  0  0  0  0  0  0
    0.2425    2.4538    0.0000 N   0  0  0  0  0  0  0  0  0  0  0  0
   -0.8026    1.4046    0.0000 N   0  0  0  0  0  0  0  0  0  0  0  0
   -1.2165    2.6796    0.0000 S   0  0  0  0  0  0  0  0  0  0  0  0
   -1.6304    1.4046    0.0000 C   0  0  0  0  0  0  0  0  0  0  0  0
   -1.8812    2.1905    0.0000 C   0  0  0  0  0  0  0  0  0  0  0  0
    0.4181    3.2565    0.0000 C   0  0  0  0  0  0  0  0  0  0  0  0
   -2.1779    0.7984    0.0000 C   0  0  0  0  0  0  0  0  0  0  0  0
    1.1956    3.5116    0.0000 C   0  0  0  0  0  0  0  0  0  0  0  0
   -2.6921    2.3661    0.0000 C   0  0  0  0  0  0  0  0  0  0  0  0
   -2.9806    0.9656    0.0000 C   0  0  0  0  0  0  0  0  0  0  0  0
   -3.2440    1.7516    0.0000 C   0  0  0  0  0  0  0  0  0  0  0  0
    0.4934    0.8235    0.0000 C   0  0  0  0  0  0  0  0  0  0  0  0
    1.8729    3.0308    0.0000 S   0  0  0  0  0  0  0  0  0  0  0  0
    0.8402    1.5760    0.0000 C   0  0  0  0  0  0  0  0  0  0  0  0
   -0.1965    3.8125    0.0000 O   0  0  0  0  0  0  0  0  0  0  0  0
    1.4590    4.2891    0.0000 C   0  0  0  0  0  0  0  0  0  0  0  0
    2.5459    3.5116    0.0000 C   0  0  0  0  0  0  0  0  0  0  0  0
   -0.3219    0.7399    0.0000 C   0  0  0  0  0  0  0  0  0  0  0  0
    2.2867    4.2808    0.0000 C   0  0  0  0  0  0  0  0  0  0  0  0
   -3.5324    0.3470    0.0000 O   0  0  0  0  0  0  0  0  0  0  0  0
   -4.0466    1.9272    0.0000 O   0  0  0  0  0  0  0  0  0  0  0  0
   -4.5985    1.3126    0.0000 C   0  0  0  0  0  0  0  0  0  0  0  0
   -3.2816   -0.4390    0.0000 C   0  0  0  0  0  0  0  0  0  0  0  0
  2  1  2  0  0  0  0
  3  1  1  0  0  0  0
  4  1  1  0  0  0  0
  5  3  1  0  0  0  0
  6  4  1  0  0  0  0
  6  5  2  0  0  0  0
  7  2  1  0  0  0  0
  8  5  1  0  0  0  0
  9  7  1  0  0  0  0
 10  6  1  0  0  0  0
 11  8  2  0  0  0  0
 11 12  1  0  0  0  0
 12 10  2  0  0  0  0
 13 19  1  0  0  0  0
 14  9  1  0  0  0  0
 15 13  3  0  0  0  0
 16  7  2  0  0  0  0
 17  9  2  0  0  0  0
 18 14  1  0  0  0  0
 18 20  2  0  0  0  0
 19  3  1  0  0  0  0
 20 17  1  0  0  0  0
 21 11  1  0  0  0  0
 22 12  1  0  0  0  0
 23 22  1  0  0  0  0
 24 21  1  0  0  0  0
M  END
> <CdId>
2675

> <Mol Weight>
358.435

> <Formula>
C17H14N2O3S2

> <Click_ID>
CLK035_C11 __ __ 

$$$$
