CLK014_H02
 OpenBabel03191401532D

 32 35  0  0  0  0  0  0  0  0999 V2000
    1.5748   -0.8209    0.0000 N    0  0  0  0  0  0  0  0  0  0  0  0
    1.8345   -1.6125    0.0000 C    0  0  0  0  0  0  0  0  0  0  0  0
    2.2491   -0.3309    0.0000 C    0  0  0  0  0  0  0  0  0  0  0  0
    2.9193   -0.8209    0.0000 C    0  0  0  0  0  0  0  0  0  0  0  0
    2.6638   -1.6125    0.0000 S    0  0  0  0  0  0  0  0  0  0  0  0
    4.2093    1.8554    0.0000 C    0  0  0  0  0  0  0  0  0  0  0  0
    3.7109   -0.5654    0.0000 C    0  0  0  0  0  0  0  0  0  0  0  0
    4.8166    1.3068    0.0000 C    0  0  0  0  0  0  0  0  0  0  0  0
    3.4345    1.5958    0.0000 C    0  0  0  0  0  0  0  0  0  0  0  0
    3.8742    0.2471    0.0000 C    0  0  0  0  0  0  0  0  0  0  0  0
    4.3894    2.6638    0.0000 O    0  0  0  0  0  0  0  0  0  0  0  0
    0.6157    0.2471    0.0000 C    0  0  0  0  0  0  0  0  0  0  0  0
    0.3937    1.0512    0.0000 C    0  0  0  0  0  0  0  0  0  0  0  0
    1.3445   -2.2785    0.0000 O    0  0  0  0  0  0  0  0  0  0  0  0
    4.6533    0.4984    0.0000 C    0  0  0  0  0  0  0  0  0  0  0  0
    2.2408    0.4984    0.0000 O    0  0  0  0  0  0  0  0  0  0  0  0
    3.2543    0.7999    0.0000 C    0  0  0  0  0  0  0  0  0  0  0  0
    0.7916   -0.5654    0.0000 C    0  0  0  0  0  0  0  0  0  0  0  0
    4.9297    5.0554    0.0000 C    0  0  0  0  0  0  0  0  0  0  0  0
    4.7496    4.2638    0.0000 C    0  0  0  0  0  0  0  0  0  0  0  0
    5.7087    5.3067    0.0000 C    0  0  0  0  0  0  0  0  0  0  0  0
    6.3119    4.7538    0.0000 C    0  0  0  0  0  0  0  0  0  0  0  0
    5.6082    1.5538    0.0000 Cl   0  0  0  0  0  0  0  0  0  0  0  0
    5.1768    2.9109    0.0000 C    0  0  0  0  0  0  0  0  0  0  0  0
    5.3569    3.7150    0.0000 C    0  0  0  0  0  0  0  0  0  0  0  0
    2.8271    2.1570    0.0000 O    0  0  0  0  0  0  0  0  0  0  0  0
    6.1317    3.9663    0.0000 C    0  0  0  0  0  0  0  0  0  0  0  0
    4.3140    5.6208    0.0000 C    0  0  0  0  0  0  0  0  0  0  0  0
    5.8930    6.1108    0.0000 C    0  0  0  0  0  0  0  0  0  0  0  0
    2.0481    1.9057    0.0000 C    0  0  0  0  0  0  0  0  0  0  0  0
    4.5025    6.4249    0.0000 C    0  0  0  0  0  0  0  0  0  0  0  0
    5.2899    6.6762    0.0000 C    0  0  0  0  0  0  0  0  0  0  0  0
  2  1  1  0  0  0  0
  3  1  1  0  0  0  0
  4  3  1  0  0  0  0
  4  5  1  0  0  0  0
  5  2  1  0  0  0  0
  6  9  2  0  0  0  0
  6  8  1  0  0  0  0
  7  4  2  0  0  0  0
  8 15  2  0  0  0  0
  9 17  1  0  0  0  0
 10  7  1  0  0  0  0
 11  6  1  0  0  0  0
 12 18  1  0  0  0  0
 13 12  3  0  0  0  0
 14  2  2  0  0  0  0
 15 10  1  0  0  0  0
 16  3  2  0  0  0  0
 17 10  2  0  0  0  0
 18  1  1  0  0  0  0
 19 20  2  0  0  0  0
 19 21  1  0  0  0  0
 20 25  1  0  0  0  0
 21 22  2  0  0  0  0
 22 27  1  0  0  0  0
 23  8  1  0  0  0  0
 24 11  1  0  0  0  0
 25 24  1  0  0  0  0
 26  9  1  0  0  0  0
 27 25  2  0  0  0  0
 28 19  1  0  0  0  0
 29 21  1  0  0  0  0
 30 26  1  0  0  0  0
 31 28  2  0  0  0  0
 31 32  1  0  0  0  0
 32 29  2  0  0  0  0
M  END
> <CdId>
1067

> <Mol Weight>
463.933

> <Formula>
C25H18ClNO4S

> <Click_ID>
CLK014_H02 __ __ 

$$$$
