CLK051E06
 OpenBabel03191401532D

 20 21  0  0  0  0  0  0  0  0999 V2000
   -0.6542    1.8958    0.0000 C   0  0  0  0  0  0  0  0  0  0  0  0
    0.0583    2.3083    0.0000 C   0  0  0  0  0  0  0  0  0  0  0  0
   -0.6542    1.0708    0.0000 N   0  0  0  0  0  0  0  0  0  0  0  0
   -0.6542   -0.5792    0.0000 N   0  0  0  0  0  0  0  0  0  0  0  0
    0.7750   -3.8792    0.0000 C   0  0  0  0  0  0  0  0  0  0  0  0
    0.7750   -4.7042    0.0000 C   0  0  0  0  0  0  0  0  0  0  0  0
    0.1458    3.1292    0.0000 C   0  0  0  0  0  0  0  0  0  0  0  0
    0.0583   -1.8167    0.0000 C   0  0  0  0  0  0  0  0  0  0  0  0
    0.8125    1.9708    0.0000 C   0  0  0  0  0  0  0  0  0  0  0  0
    0.9542    3.3000    0.0000 O   0  0  0  0  0  0  0  0  0  0  0  0
   -1.3667    2.3083    0.0000 O   0  0  0  0  0  0  0  0  0  0  0  0
    0.0583    0.6583    0.0000 C   0  0  0  0  0  0  0  0  0  0  0  0
   -1.3667    0.6583    0.0000 C   0  0  0  0  0  0  0  0  0  0  0  0
    1.3667    2.5833    0.0000 C   0  0  0  0  0  0  0  0  0  0  0  0
   -0.6542   -1.4042    0.0000 C   0  0  0  0  0  0  0  0  0  0  0  0
    0.7750   -1.4042    0.0000 O   0  0  0  0  0  0  0  0  0  0  0  0
   -1.3667   -0.1667    0.0000 C   0  0  0  0  0  0  0  0  0  0  0  0
    0.0583   -0.1667    0.0000 C   0  0  0  0  0  0  0  0  0  0  0  0
    0.0583   -2.6417    0.0000 N   0  0  0  0  0  0  0  0  0  0  0  0
    0.7750   -3.0542    0.0000 C   0  0  0  0  0  0  0  0  0  0  0  0
  2  1  1  0  0  0  0
  3  1  1  0  0  0  0
  4 17  1  0  0  0  0
  5 20  1  0  0  0  0
  6  5  3  0  0  0  0
  7  2  2  0  0  0  0
  8 15  1  0  0  0  0
  9  2  1  0  0  0  0
 10  7  1  0  0  0  0
 10 14  1  0  0  0  0
 11  1  2  0  0  0  0
 12  3  1  0  0  0  0
 13  3  1  0  0  0  0
 14  9  2  0  0  0  0
 15  4  1  0  0  0  0
 16  8  2  0  0  0  0
 17 13  1  0  0  0  0
 18 12  1  0  0  0  0
 18  4  1  0  0  0  0
 19  8  1  0  0  0  0
 20 19  1  0  0  0  0
M  END
> <CdId>
3925

> <Mol Weight>
275.3031

> <Formula>
C14H17N3O3

> <Click_ID>
CLK051E06 __ __ 

$$$$
