CLK034_B05
 OpenBabel03191401532D

 35 37  0  0  0  0  0  0  0  0999 V2000
   -4.5946    2.5576    0.0000 C   0  0  0  0  0  0  0  0  0  0  0  0
   -1.0080    5.4652    0.0000 S   0  0  0  0  0  0  0  0  0  0  0  0
   -3.8615    2.9825    0.0000 N   0  0  0  0  0  0  0  0  0  0  0  0
   -4.6820    1.7328    0.0000 N   0  0  0  0  0  0  0  0  0  0  0  0
   -5.3194    2.8950    0.0000 S   0  0  0  0  0  0  0  0  0  0  0  0
   -5.4860    1.5829    0.0000 C   0  0  0  0  0  0  0  0  0  0  0  0
   -5.8942    2.2994    0.0000 C   0  0  0  0  0  0  0  0  0  0  0  0
   -3.8697    3.7990    0.0000 C   0  0  0  0  0  0  0  0  0  0  0  0
   -1.7245    5.0403    0.0000 C   0  0  0  0  0  0  0  0  0  0  0  0
   -0.2957    5.8776    0.0000 N   0  0  0  0  0  0  0  0  0  0  0  0
   -1.0247    8.7643    0.0000 N   0  0  0  0  0  0  0  0  0  0  0  0
    2.5785    5.0736    0.0000 N   0  0  0  0  0  0  0  0  0  0  0  0
   -4.2571    0.3582    0.0000 C   0  0  0  0  0  0  0  0  0  0  0  0
   -0.5873    4.7404    0.0000 O   0  0  0  0  0  0  0  0  0  0  0  0
   -1.4329    6.1775    0.0000 O   0  0  0  0  0  0  0  0  0  0  0  0
   -4.4446   -0.4541    0.0000 C   0  0  0  0  0  0  0  0  0  0  0  0
   -1.0330    7.9395    0.0000 C   0  0  0  0  0  0  0  0  0  0  0  0
    1.8537    5.4777    0.0000 C   0  0  0  0  0  0  0  0  0  0  0  0
   -3.1574    4.2114    0.0000 C   0  0  0  0  0  0  0  0  0  0  0  0
   -5.9192    0.8831    0.0000 C   0  0  0  0  0  0  0  0  0  0  0  0
   -4.5821    4.2156    0.0000 O   0  0  0  0  0  0  0  0  0  0  0  0
   -4.0697    1.1622    0.0000 C   0  0  0  0  0  0  0  0  0  0  0  0
   -1.7203    4.2114    0.0000 C   0  0  0  0  0  0  0  0  0  0  0  0
   -2.4451    5.4402    0.0000 C   0  0  0  0  0  0  0  0  0  0  0  0
   -3.1491    5.0278    0.0000 C   0  0  0  0  0  0  0  0  0  0  0  0
   -2.4243    3.7990    0.0000 C   0  0  0  0  0  0  0  0  0  0  0  0
    1.1289    5.8901    0.0000 C   0  0  0  0  0  0  0  0  0  0  0  0
   -1.0205    7.1023    0.0000 C   0  0  0  0  0  0  0  0  0  0  0  0
   -6.7024    2.3202    0.0000 C   0  0  0  0  0  0  0  0  0  0  0  0
   -5.5193    0.1458    0.0000 O   0  0  0  0  0  0  0  0  0  0  0  0
    0.4166    5.4652    0.0000 C   0  0  0  0  0  0  0  0  0  0  0  0
   -0.2999    6.7024    0.0000 C   0  0  0  0  0  0  0  0  0  0  0  0
   -7.1398    1.6204    0.0000 C   0  0  0  0  0  0  0  0  0  0  0  0
   -6.7274    0.8873    0.0000 C   0  0  0  0  0  0  0  0  0  0  0  0
   -5.9567   -0.5540    0.0000 C   0  0  0  0  0  0  0  0  0  0  0  0
  2  9  1  0  0  0  0
  3  1  2  0  0  0  0
  4  1  1  0  0  0  0
  5  1  1  0  0  0  0
  6  4  1  0  0  0  0
  7  5  1  0  0  0  0
  7  6  2  0  0  0  0
  8  3  1  0  0  0  0
  9 23  2  0  0  0  0
  9 24  1  0  0  0  0
 10  2  1  0  0  0  0
 11 17  3  0  0  0  0
 12 18  3  0  0  0  0
 13 22  1  0  0  0  0
 14  2  2  0  0  0  0
 15  2  2  0  0  0  0
 16 13  3  0  0  0  0
 17 28  1  0  0  0  0
 18 27  1  0  0  0  0
 19  8  1  0  0  0  0
 20  6  1  0  0  0  0
 21  8  2  0  0  0  0
 22  4  1  0  0  0  0
 23 26  1  0  0  0  0
 24 25  2  0  0  0  0
 25 19  1  0  0  0  0
 26 19  2  0  0  0  0
 27 31  1  0  0  0  0
 28 32  1  0  0  0  0
 29  7  1  0  0  0  0
 30 20  1  0  0  0  0
 31 10  1  0  0  0  0
 32 10  1  0  0  0  0
 33 29  2  0  0  0  0
 34 20  2  0  0  0  0
 34 33  1  0  0  0  0
 35 30  1  0  0  0  0
M  END
> <CdId>
2579

> <Mol Weight>
507.585

> <Formula>
C24H21N5O4S2

> <Click_ID>
CLK034_B05 __ __ 

$$$$
