CLK050A09
 OpenBabel03191401532D

 18 19  0  0  0  0  0  0  0  0999 V2000
   -0.2417    0.8708    0.0000 N   0  0  0  0  0  0  0  0  0  0  0  0
    0.4750   -0.3667    0.0000 C   0  0  3  0  0  0  0  0  0  0  0  0
    0.4750   -1.1917    0.0000 C   0  0  0  0  0  0  0  0  0  0  0  0
   -0.2417    0.0458    0.0000 C   0  0  0  0  0  0  0  0  0  0  0  0
   -0.9542    1.2833    0.0000 C   0  0  0  0  0  0  0  0  0  0  0  0
    1.9042   -2.8417    0.0000 C   0  0  0  0  0  0  0  0  0  0  0  0
    2.6167   -3.2542    0.0000 C   0  0  0  0  0  0  0  0  0  0  0  0
   -1.6708    0.8708    0.0000 N   0  0  0  0  0  0  0  0  0  0  0  0
   -0.2417   -1.6042    0.0000 O   0  0  0  0  0  0  0  0  0  0  0  0
   -1.6708    2.5208    0.0000 N   0  0  0  0  0  0  0  0  0  0  0  0
    1.1875   -1.6042    0.0000 N   0  0  0  0  0  0  0  0  0  0  0  0
    0.4750    1.2833    0.0000 C   0  0  0  0  0  0  0  0  0  0  0  0
   -0.9542    2.1083    0.0000 C   0  0  0  0  0  0  0  0  0  0  0  0
    1.1875   -2.4292    0.0000 C   0  0  0  0  0  0  0  0  0  0  0  0
    1.1875    0.0458    0.0000 C   0  0  0  0  0  0  0  0  0  0  0  0
    1.1875    0.8708    0.0000 C   0  0  0  0  0  0  0  0  0  0  0  0
   -2.3833    1.2833    0.0000 C   0  0  0  0  0  0  0  0  0  0  0  0
   -2.3833    2.1083    0.0000 C   0  0  0  0  0  0  0  0  0  0  0  0
  2  4  1  0  0  0  0
  3  2  1  0  0  0  0
  4  1  1  0  0  0  0
  5  1  1  0  0  0  0
  6 14  1  0  0  0  0
  7  6  3  0  0  0  0
  8  5  2  0  0  0  0
  9  3  2  0  0  0  0
 10 13  2  0  0  0  0
 11  3  1  0  0  0  0
 12  1  1  0  0  0  0
 13  5  1  0  0  0  0
 14 11  1  0  0  0  0
 15  2  1  0  0  0  0
 16 12  1  0  0  0  0
 16 15  1  0  0  0  0
 17  8  1  0  0  0  0
 18 17  2  0  0  0  0
 18 10  1  0  0  0  0
M  END
> <CdId>
3865

> <Mol Weight>
244.2923

> <Formula>
C13H16N4O

> <Click_ID>
CLK050A09 __ __ 

$$$$
