CLK011_F09
 OpenBabel03191401532D

 21 22  0  0  0  0  0  0  0  0999 V2000
    1.5721    0.6691    0.0000 C    0  0  0  0  0  0  0  0  0  0  0  0
    2.2871    1.9066    0.0000 N    0  0  0  0  0  0  0  0  0  0  0  0
    3.0021    0.6691    0.0000 N    0  0  0  0  0  0  0  0  0  0  0  0
    1.5721    1.4941    0.0000 C    0  0  0  0  0  0  0  0  0  0  0  0
    2.2871    0.2566    0.0000 C    0  0  0  0  0  0  0  0  0  0  0  0
    3.0021    1.4941    0.0000 C    0  0  0  0  0  0  0  0  0  0  0  0
    0.8662    0.2566    0.0000 C    0  0  0  0  0  0  0  0  0  0  0  0
    0.8662   -0.5684    0.0000 C    0  0  0  0  0  0  0  0  0  0  0  0
   -1.9938   -0.5684    0.0000 C    0  0  0  0  0  0  0  0  0  0  0  0
   -2.7087   -0.9809    0.0000 C    0  0  0  0  0  0  0  0  0  0  0  0
    3.7171    1.9066    0.0000 S    0  0  0  0  0  0  0  0  0  0  0  0
    2.2871   -0.5684    0.0000 O    0  0  0  0  0  0  0  0  0  0  0  0
    0.8662    1.9066    0.0000 O    0  0  0  0  0  0  0  0  0  0  0  0
    0.1513   -0.9809    0.0000 C    0  0  0  0  0  0  0  0  0  0  0  0
    1.5721   -0.9809    0.0000 C    0  0  0  0  0  0  0  0  0  0  0  0
    0.1513   -1.8059    0.0000 C    0  0  0  0  0  0  0  0  0  0  0  0
    1.5721   -1.8059    0.0000 C    0  0  0  0  0  0  0  0  0  0  0  0
    0.8662   -2.2184    0.0000 C    0  0  0  0  0  0  0  0  0  0  0  0
    2.2871   -2.2184    0.0000 Cl   0  0  0  0  0  0  0  0  0  0  0  0
   -0.5637   -0.5684    0.0000 O    0  0  0  0  0  0  0  0  0  0  0  0
   -1.2788   -0.9809    0.0000 C    0  0  0  0  0  0  0  0  0  0  0  0
  2  4  1  0  0  0  0
  2  6  1  0  0  0  0
  3  5  1  0  0  0  0
  4  1  1  0  0  0  0
  5  1  1  0  0  0  0
  6  3  1  0  0  0  0
  7  1  2  0  0  0  0
  8  7  1  0  0  0  0
  9 21  1  0  0  0  0
 10  9  3  0  0  0  0
 11  6  2  0  0  0  0
 12  5  2  0  0  0  0
 13  4  2  0  0  0  0
 14  8  1  0  0  0  0
 15  8  2  0  0  0  0
 16 14  2  0  0  0  0
 16 18  1  0  0  0  0
 17 15  1  0  0  0  0
 18 17  2  0  0  0  0
 19 17  1  0  0  0  0
 20 14  1  0  0  0  0
 21 20  1  0  0  0  0
M  END
> <CdId>
814

> <Mol Weight>
320.751

> <Formula>
C14H9ClN2O3S

> <Click_ID>
CLK011_F09 __ __ 

$$$$
