CLK032_G04
 OpenBabel03191401532D

 26 28  0  0  0  0  0  0  0  0999 V2000
   -1.1649    2.3882    0.0000 C   0  0  0  0  0  0  0  0  0  0  0  0
   -1.6492    1.7244    0.0000 N   0  0  0  0  0  0  0  0  0  0  0  0
   -0.3382    2.3799    0.0000 N   0  0  0  0  0  0  0  0  0  0  0  0
   -1.6492    3.0563    0.0000 S   0  0  0  0  0  0  0  0  0  0  0  0
   -2.4383    2.8016    0.0000 C   0  0  0  0  0  0  0  0  0  0  0  0
   -2.4383    1.9749    0.0000 C   0  0  0  0  0  0  0  0  0  0  0  0
    0.0752    3.0939    0.0000 C   0  0  0  0  0  0  0  0  0  0  0  0
   -3.1523    3.2149    0.0000 C   0  0  0  0  0  0  0  0  0  0  0  0
    2.1461    3.8037    0.0000 C   0  0  0  0  0  0  0  0  0  0  0  0
   -1.9498    0.3215    0.0000 C   0  0  0  0  0  0  0  0  0  0  0  0
   -2.5010   -0.2923    0.0000 C   0  0  0  0  0  0  0  0  0  0  0  0
    2.6346    3.1273    0.0000 S   0  0  0  0  0  0  0  0  0  0  0  0
    0.9019    3.0939    0.0000 C   0  0  0  0  0  0  0  0  0  0  0  0
   -3.1523    1.5615    0.0000 C   0  0  0  0  0  0  0  0  0  0  0  0
    1.3194    3.8162    0.0000 C   0  0  0  0  0  0  0  0  0  0  0  0
   -5.2985    2.8058    0.0000 C   0  0  0  0  0  0  0  0  0  0  0  0
   -4.5928    3.2192    0.0000 N   0  0  0  0  0  0  0  0  0  0  0  0
   -3.8663    2.8016    0.0000 C   0  0  0  0  0  0  0  0  0  0  0  0
    3.4238    3.3820    0.0000 C   0  0  0  0  0  0  0  0  0  0  0  0
    2.6472    4.4509    0.0000 C   0  0  0  0  0  0  0  0  0  0  0  0
   -1.3987    0.9352    0.0000 C   0  0  0  0  0  0  0  0  0  0  0  0
   -0.3382    3.8079    0.0000 O   0  0  0  0  0  0  0  0  0  0  0  0
    3.4363    4.1879    0.0000 C   0  0  0  0  0  0  0  0  0  0  0  0
   -6.0124    3.2192    0.0000 O   0  0  0  0  0  0  0  0  0  0  0  0
   -3.8663    1.9749    0.0000 C   0  0  0  0  0  0  0  0  0  0  0  0
   -5.3068    1.9791    0.0000 C   0  0  0  0  0  0  0  0  0  0  0  0
  2  1  1  0  0  0  0
  3  1  2  0  0  0  0
  4  1  1  0  0  0  0
  5  4  1  0  0  0  0
  5  6  2  0  0  0  0
  6  2  1  0  0  0  0
  7  3  1  0  0  0  0
  8  5  1  0  0  0  0
  9 15  1  0  0  0  0
 10 21  1  0  0  0  0
 11 10  3  0  0  0  0
 12  9  1  0  0  0  0
 13  7  1  0  0  0  0
 14  6  1  0  0  0  0
 15 13  2  0  0  0  0
 16 17  1  0  0  0  0
 17 18  1  0  0  0  0
 18  8  2  0  0  0  0
 18 25  1  0  0  0  0
 19 12  1  0  0  0  0
 19 23  2  0  0  0  0
 20  9  2  0  0  0  0
 21  2  1  0  0  0  0
 22  7  2  0  0  0  0
 23 20  1  0  0  0  0
 24 16  2  0  0  0  0
 25 14  2  0  0  0  0
 26 16  1  0  0  0  0
M  END
> <CdId>
2468

> <Mol Weight>
381.471

> <Formula>
C19H15N3O2S2

> <Click_ID>
CLK032_G04 __ __ 

$$$$
