CLK018_D09
 OpenBabel03191401532D

 23 24  0  0  0  0  0  0  0  0999 V2000
    1.5661   -0.8164    0.0000 N   0  0  0  0  0  0  0  0  0  0  0  0
    1.8243   -1.6036    0.0000 C   0  0  0  0  0  0  0  0  0  0  0  0
    2.2366   -0.3291    0.0000 C   0  0  0  0  0  0  0  0  0  0  0  0
    2.9031   -0.8164    0.0000 C   0  0  0  0  0  0  0  0  0  0  0  0
    2.6490   -1.6036    0.0000 S   0  0  0  0  0  0  0  0  0  0  0  0
    3.6903   -0.5623    0.0000 C   0  0  0  0  0  0  0  0  0  0  0  0
    4.2276    1.8451    0.0000 C   0  0  0  0  0  0  0  0  0  0  0  0
    4.8273    1.2828    0.0000 C   0  0  0  0  0  0  0  0  0  0  0  0
    3.4529    1.6077    0.0000 C   0  0  0  0  0  0  0  0  0  0  0  0
    3.8652    0.2332    0.0000 C   0  0  0  0  0  0  0  0  0  0  0  0
    0.6123    0.2457    0.0000 C   0  0  0  0  0  0  0  0  0  0  0  0
    0.3915    1.0454    0.0000 C   0  0  0  0  0  0  0  0  0  0  0  0
    1.3370   -2.2658    0.0000 O   0  0  0  0  0  0  0  0  0  0  0  0
    4.6524    0.4831    0.0000 C   0  0  0  0  0  0  0  0  0  0  0  0
    2.2283    0.4956    0.0000 O   0  0  0  0  0  0  0  0  0  0  0  0
    3.2654    0.7997    0.0000 C   0  0  0  0  0  0  0  0  0  0  0  0
    0.7872   -0.5623    0.0000 C   0  0  0  0  0  0  0  0  0  0  0  0
    4.4150    2.6448    0.0000 O   0  0  0  0  0  0  0  0  0  0  0  0
    5.6228    1.5327    0.0000 O   0  0  0  0  0  0  0  0  0  0  0  0
    2.8489    2.1575    0.0000 O   0  0  0  0  0  0  0  0  0  0  0  0
    3.8152    3.2071    0.0000 C   0  0  0  0  0  0  0  0  0  0  0  0
    5.7978    2.3366    0.0000 C   0  0  0  0  0  0  0  0  0  0  0  0
    2.0659    1.9201    0.0000 C   0  0  0  0  0  0  0  0  0  0  0  0
  2  1  1  0  0  0  0
  3  1  1  0  0  0  0
  4  3  1  0  0  0  0
  4  5  1  0  0  0  0
  5  2  1  0  0  0  0
  6  4  2  0  0  0  0
  7  9  2  0  0  0  0
  7  8  1  0  0  0  0
  8 14  2  0  0  0  0
  9 16  1  0  0  0  0
 10  6  1  0  0  0  0
 11 17  1  0  0  0  0
 12 11  3  0  0  0  0
 13  2  2  0  0  0  0
 14 10  1  0  0  0  0
 15  3  2  0  0  0  0
 16 10  2  0  0  0  0
 17  1  1  0  0  0  0
 18  7  1  0  0  0  0
 19  8  1  0  0  0  0
 20  9  1  0  0  0  0
 21 18  1  0  0  0  0
 22 19  1  0  0  0  0
 23 20  1  0  0  0  0
M  END
> <CdId>
1354

> <Mol Weight>
333.359

> <Formula>
C16H15NO5S

> <Click_ID>
CLK018_D09 __ __ 

$$$$
