CLK047D11
 OpenBabel03191401532D

 14 14  0  0  0  0  0  0  0  0999 V2000
    0.4168   -0.0292    0.0000 C   0  0  0  0  0  0  0  0  0  0  0  0
    0.4919    0.7920    0.0000 C   0  0  0  0  0  0  0  0  0  0  0  0
    1.1754   -0.3543    0.0000 C   0  0  0  0  0  0  0  0  0  0  0  0
    1.2962    0.9753    0.0000 O   0  0  0  0  0  0  0  0  0  0  0  0
    1.7214    0.2668    0.0000 C   0  0  0  0  0  0  0  0  0  0  0  0
   -0.2918   -0.4543    0.0000 C   0  0  0  0  0  0  0  0  0  0  0  0
   -2.4425   -0.0708    0.0000 C   0  0  0  0  0  0  0  0  0  0  0  0
   -3.1635    0.3293    0.0000 C   0  0  0  0  0  0  0  0  0  0  0  0
   -0.2793   -1.2796    0.0000 O   0  0  0  0  0  0  0  0  0  0  0  0
   -1.0128   -0.0500    0.0000 N   0  0  0  0  0  0  0  0  0  0  0  0
   -0.1292    1.3337    0.0000 C   0  0  0  0  0  0  0  0  0  0  0  0
    1.3587   -1.1587    0.0000 C   0  0  0  0  0  0  0  0  0  0  0  0
    2.5425    0.1918    0.0000 C   0  0  0  0  0  0  0  0  0  0  0  0
   -1.7214   -0.4752    0.0000 C   0  0  0  0  0  0  0  0  0  0  0  0
  2  1  2  0  0  0  0
  3  1  1  0  0  0  0
  4  2  1  0  0  0  0
  4  5  1  0  0  0  0
  5  3  2  0  0  0  0
  6  1  1  0  0  0  0
  7 14  1  0  0  0  0
  8  7  3  0  0  0  0
  9  6  2  0  0  0  0
 10  6  1  0  0  0  0
 11  2  1  0  0  0  0
 12  3  1  0  0  0  0
 13  5  1  0  0  0  0
 14 10  1  0  0  0  0
M  END
> <CdId>
3644

> <Mol Weight>
191.2264

> <Formula>
C11H13NO2

> <Click_ID>
CLK047D11 __ __ 

$$$$
