CLK013_A05
 OpenBabel03191401532D

 28 29  0  0  0  0  0  0  0  0999 V2000
    1.5601   -0.8132    0.0000 N    0  0  0  0  0  0  0  0  0  0  0  0
    1.8173   -1.5974    0.0000 C    0  0  0  0  0  0  0  0  0  0  0  0
    2.2280   -0.3278    0.0000 C    0  0  0  0  0  0  0  0  0  0  0  0
    2.8919   -0.8132    0.0000 C    0  0  0  0  0  0  0  0  0  0  0  0
    2.6388   -1.5974    0.0000 S    0  0  0  0  0  0  0  0  0  0  0  0
    4.1988    1.8629    0.0000 C    0  0  0  0  0  0  0  0  0  0  0  0
    3.6760   -0.5601    0.0000 C    0  0  0  0  0  0  0  0  0  0  0  0
    4.8045    1.3028    0.0000 C    0  0  0  0  0  0  0  0  0  0  0  0
    3.4105    1.6139    0.0000 C    0  0  0  0  0  0  0  0  0  0  0  0
    3.8461    0.2489    0.0000 C    0  0  0  0  0  0  0  0  0  0  0  0
    4.3813    2.6595    0.0000 O    0  0  0  0  0  0  0  0  0  0  0  0
    0.6099    0.2448    0.0000 C    0  0  0  0  0  0  0  0  0  0  0  0
    0.3900    1.0414    0.0000 C    0  0  0  0  0  0  0  0  0  0  0  0
    1.3318   -2.2571    0.0000 O    0  0  0  0  0  0  0  0  0  0  0  0
    4.6303    0.4979    0.0000 C    0  0  0  0  0  0  0  0  0  0  0  0
    2.2197    0.4937    0.0000 O    0  0  0  0  0  0  0  0  0  0  0  0
    3.2362    0.8049    0.0000 C    0  0  0  0  0  0  0  0  0  0  0  0
    5.3522    3.7175    0.0000 C    0  0  0  0  0  0  0  0  0  0  0  0
    0.7842   -0.5601    0.0000 C    0  0  0  0  0  0  0  0  0  0  0  0
    4.7340    4.2611    0.0000 O    0  0  0  0  0  0  0  0  0  0  0  0
    5.1697    2.9084    0.0000 C    0  0  0  0  0  0  0  0  0  0  0  0
    5.5929    1.5517    0.0000 Br   0  0  0  0  0  0  0  0  0  0  0  0
    2.8130    2.1616    0.0000 O    0  0  0  0  0  0  0  0  0  0  0  0
    6.1281    3.9664    0.0000 O    0  0  0  0  0  0  0  0  0  0  0  0
    2.0289    1.9127    0.0000 C    0  0  0  0  0  0  0  0  0  0  0  0
    6.3106    4.7589    0.0000 C    0  0  0  0  0  0  0  0  0  0  0  0
    1.4231    2.4645    0.0000 C    0  0  0  0  0  0  0  0  0  0  0  0
    7.0990    5.0037    0.0000 C    0  0  0  0  0  0  0  0  0  0  0  0
  2  1  1  0  0  0  0
  3  1  1  0  0  0  0
  4  3  1  0  0  0  0
  4  5  1  0  0  0  0
  5  2  1  0  0  0  0
  6  9  2  0  0  0  0
  6  8  1  0  0  0  0
  7  4  2  0  0  0  0
  8 15  2  0  0  0  0
  9 17  1  0  0  0  0
 10  7  1  0  0  0  0
 11  6  1  0  0  0  0
 12 19  1  0  0  0  0
 13 12  3  0  0  0  0
 14  2  2  0  0  0  0
 15 10  1  0  0  0  0
 16  3  2  0  0  0  0
 17 10  2  0  0  0  0
 18 21  1  0  0  0  0
 19  1  1  0  0  0  0
 20 18  2  0  0  0  0
 21 11  1  0  0  0  0
 22  8  1  0  0  0  0
 23  9  1  0  0  0  0
 24 18  1  0  0  0  0
 25 23  1  0  0  0  0
 26 24  1  0  0  0  0
 27 25  1  0  0  0  0
 28 26  1  0  0  0  0
M  END
> <CdId>
920

> <Mol Weight>
468.318

> <Formula>
C19H18BrNO6S

> <Click_ID>
CLK013_A05 __ __ 

$$$$
