CLK029_C07
 OpenBabel03191401532D

 16 17  0  0  0  0  0  0  0  0999 V2000
    1.7636   -2.0382    0.0000 C   0  0  0  0  0  0  0  0  0  0  0  0
    1.0481   -0.7903    0.0000 C   0  0  0  0  0  0  0  0  0  0  0  0
    1.0481   -2.4499    0.0000 O   0  0  0  0  0  0  0  0  0  0  0  0
    0.3369   -2.0382    0.0000 C   0  0  0  0  0  0  0  0  0  0  0  0
    1.7636   -1.2104    0.0000 C   0  0  0  0  0  0  0  0  0  0  0  0
    0.3369   -1.2104    0.0000 C   0  0  0  0  0  0  0  0  0  0  0  0
    2.4748   -2.4499    0.0000 C   0  0  0  0  0  0  0  0  0  0  0  0
    5.3323   -2.4499    0.0000 C   0  0  0  0  0  0  0  0  0  0  0  0
    6.0436   -2.8617    0.0000 C   0  0  0  0  0  0  0  0  0  0  0  0
    2.4748   -0.7985    0.0000 C   0  0  0  0  0  0  0  0  0  0  0  0
   -0.3744   -2.4499    0.0000 O   0  0  0  0  0  0  0  0  0  0  0  0
    3.1944   -2.0382    0.0000 C   0  0  0  0  0  0  0  0  0  0  0  0
    3.1944   -1.2021    0.0000 C   0  0  0  0  0  0  0  0  0  0  0  0
    1.0481    0.0332    0.0000 C   0  0  0  0  0  0  0  0  0  0  0  0
    4.6211   -2.0382    0.0000 C   0  0  0  0  0  0  0  0  0  0  0  0
    3.9056   -2.4499    0.0000 O   0  0  0  0  0  0  0  0  0  0  0  0
  2  5  1  0  0  0  0
  3  1  1  0  0  0  0
  4  3  1  0  0  0  0
  5  1  2  0  0  0  0
  6  2  2  0  0  0  0
  6  4  1  0  0  0  0
  7  1  1  0  0  0  0
  8 15  1  0  0  0  0
  9  8  3  0  0  0  0
 10  5  1  0  0  0  0
 11  4  2  0  0  0  0
 12  7  2  0  0  0  0
 13 12  1  0  0  0  0
 13 10  2  0  0  0  0
 14  2  1  0  0  0  0
 15 16  1  0  0  0  0
 16 12  1  0  0  0  0
M  END
> <CdId>
2191

> <Mol Weight>
214.2167

> <Formula>
C13H10O3

> <Click_ID>
CLK029_C07 __ __ 

$$$$
