CLK042G02
 OpenBabel03191401532D

 24 25  0  0  0  0  0  0  0  0999 V2000
   -1.0458    0.2250    0.0000 S   0  0  0  0  0  0  0  0  0  0  0  0
   -1.7583   -0.1875    0.0000 N   0  0  0  0  0  0  0  0  0  0  0  0
   -0.3292    0.6375    0.0000 C   0  0  0  0  0  0  0  0  0  0  0  0
    1.8125    1.8750    0.0000 C   0  0  0  0  0  0  0  0  0  0  0  0
    3.9583    1.4625    0.0000 C   0  0  0  0  0  0  0  0  0  0  0  0
   -0.6333   -0.4875    0.0000 O   0  0  0  0  0  0  0  0  0  0  0  0
   -1.4583    0.9417    0.0000 O   0  0  0  0  0  0  0  0  0  0  0  0
    4.6708    1.0500    0.0000 C   0  0  0  0  0  0  0  0  0  0  0  0
   -2.4750   -2.2500    0.0000 C   0  0  0  0  0  0  0  0  0  0  0  0
    1.1000    1.4625    0.0000 C   0  0  0  0  0  0  0  0  0  0  0  0
   -1.7583   -1.0125    0.0000 C   0  0  0  0  0  0  0  0  0  0  0  0
   -2.4750   -1.4250    0.0000 C   0  0  0  0  0  0  0  0  0  0  0  0
   -1.7583   -2.6625    0.0000 C   0  0  0  0  0  0  0  0  0  0  0  0
    1.8125    2.7000    0.0000 O   0  0  0  0  0  0  0  0  0  0  0  0
    0.3833    0.2250    0.0000 C   0  0  0  0  0  0  0  0  0  0  0  0
   -0.3292    1.4625    0.0000 C   0  0  0  0  0  0  0  0  0  0  0  0
    0.3833    1.8750    0.0000 C   0  0  0  0  0  0  0  0  0  0  0  0
    1.1000    0.6375    0.0000 C   0  0  0  0  0  0  0  0  0  0  0  0
    2.5292    1.4625    0.0000 N   0  0  0  0  0  0  0  0  0  0  0  0
   -1.0458   -2.2500    0.0000 C   0  0  0  0  0  0  0  0  0  0  0  0
   -1.0458   -1.4250    0.0000 C   0  0  0  0  0  0  0  0  0  0  0  0
    3.2417    1.8750    0.0000 C   0  0  0  0  0  0  0  0  0  0  0  0
   -3.1875   -2.6625    0.0000 C   0  0  0  0  0  0  0  0  0  0  0  0
   -1.7583   -3.4875    0.0000 C   0  0  0  0  0  0  0  0  0  0  0  0
  2  1  1  0  0  0  0
  3  1  1  0  0  0  0
  4 10  1  0  0  0  0
  5 22  1  0  0  0  0
  6  1  2  0  0  0  0
  7  1  2  0  0  0  0
  8  5  3  0  0  0  0
  9 12  1  0  0  0  0
 10 17  2  0  0  0  0
 10 18  1  0  0  0  0
 11  2  1  0  0  0  0
 12 11  2  0  0  0  0
 13  9  2  0  0  0  0
 14  4  2  0  0  0  0
 15  3  1  0  0  0  0
 16  3  2  0  0  0  0
 17 16  1  0  0  0  0
 18 15  2  0  0  0  0
 19  4  1  0  0  0  0
 20 21  2  0  0  0  0
 20 13  1  0  0  0  0
 21 11  1  0  0  0  0
 22 19  1  0  0  0  0
 23  9  1  0  0  0  0
 24 13  1  0  0  0  0
M  END
> <CdId>
3175

> <Mol Weight>
342.412

> <Formula>
C18H18N2O3S

> <Click_ID>
CLK042G02 __ __ 

$$$$
