CLK045D02
 OpenBabel03191401532D

 27 29  0  0  0  0  0  0  0  0999 V2000
   -4.4500   -0.0917    0.0000 C    0  0  0  0  0  0  0  0  0  0  0  0
   -3.9667   -0.7583    0.0000 N    0  0  0  0  0  0  0  0  0  0  0  0
   -3.9667    0.5792    0.0000 N    0  0  0  0  0  0  0  0  0  0  0  0
   -3.1792   -0.5042    0.0000 C    0  0  0  0  0  0  0  0  0  0  0  0
    2.5375    0.3208    0.0000 C    0  0  0  0  0  0  0  0  0  0  0  0
   -3.1792    0.3208    0.0000 C    0  0  0  0  0  0  0  0  0  0  0  0
    2.5375   -0.5042    0.0000 C    0  0  0  0  0  0  0  0  0  0  0  0
    1.8208    0.7333    0.0000 C    0  0  0  0  0  0  0  0  0  0  0  0
   -0.3208   -0.5042    0.0000 C    0  0  0  0  0  0  0  0  0  0  0  0
   -1.7500   -0.5042    0.0000 C    0  0  0  0  0  0  0  0  0  0  0  0
   -2.4667   -0.9167    0.0000 C    0  0  0  0  0  0  0  0  0  0  0  0
   -1.0375   -0.9167    0.0000 C    0  0  0  0  0  0  0  0  0  0  0  0
    4.6792    0.7333    0.0000 C    0  0  0  0  0  0  0  0  0  0  0  0
    5.3917    1.1458    0.0000 C    0  0  0  0  0  0  0  0  0  0  0  0
    0.3917   -0.9167    0.0000 C    0  0  0  0  0  0  0  0  0  0  0  0
    1.1083   -0.5042    0.0000 C    0  0  0  0  0  0  0  0  0  0  0  0
   -5.2750   -0.0917    0.0000 O    0  0  0  0  0  0  0  0  0  0  0  0
    1.8208   -0.9167    0.0000 C    0  0  0  0  0  0  0  0  0  0  0  0
    1.1083    0.3208    0.0000 C    0  0  0  0  0  0  0  0  0  0  0  0
   -2.4667    0.7333    0.0000 C    0  0  0  0  0  0  0  0  0  0  0  0
   -1.7500    0.3208    0.0000 C    0  0  0  0  0  0  0  0  0  0  0  0
   -1.0375   -1.7417    0.0000 O    0  0  0  0  0  0  0  0  0  0  0  0
    3.2500   -0.9167    0.0000 Cl   0  0  0  0  0  0  0  0  0  0  0  0
    3.2500    0.7333    0.0000 O    0  0  0  0  0  0  0  0  0  0  0  0
    1.8208    1.5583    0.0000 O    0  0  0  0  0  0  0  0  0  0  0  0
    3.9667    0.3208    0.0000 C    0  0  0  0  0  0  0  0  0  0  0  0
    1.1083    1.9708    0.0000 C    0  0  0  0  0  0  0  0  0  0  0  0
  2  1  1  0  0  0  0
  3  1  1  0  0  0  0
  4  2  1  0  0  0  0
  4  6  2  0  0  0  0
  5  7  1  0  0  0  0
  5  8  2  0  0  0  0
  6  3  1  0  0  0  0
  7 18  2  0  0  0  0
  8 19  1  0  0  0  0
  9 12  1  0  0  0  0
 10 11  2  0  0  0  0
 11  4  1  0  0  0  0
 12 10  1  0  0  0  0
 13 26  1  0  0  0  0
 14 13  3  0  0  0  0
 15  9  2  0  0  0  0
 16 15  1  0  0  0  0
 17  1  2  0  0  0  0
 18 16  1  0  0  0  0
 19 16  2  0  0  0  0
 20  6  1  0  0  0  0
 21 20  2  0  0  0  0
 21 10  1  0  0  0  0
 22 12  2  0  0  0  0
 23  7  1  0  0  0  0
 24  5  1  0  0  0  0
 25  8  1  0  0  0  0
 26 24  1  0  0  0  0
 27 25  1  0  0  0  0
M  END
> <CdId>
3412

> <Mol Weight>
382.797

> <Formula>
C20H15ClN2O4

> <Click_ID>
CLK045D02 __ __ 

$$$$
