CLK021_H02
 OpenBabel03191401532D

 24 25  0  0  0  0  0  0  0  0999 V2000
    5.6802    2.1254    0.0000 N    0  0  0  0  0  0  0  0  0  0  0  0
    3.2066    3.5547    0.0000 C    0  0  0  0  0  0  0  0  0  0  0  0
    3.6189    4.2693    0.0000 C    0  0  0  0  0  0  0  0  0  0  0  0
    3.6189    2.8401    0.0000 C    0  0  0  0  0  0  0  0  0  0  0  0
    4.8557    2.1254    0.0000 C    0  0  0  0  0  0  0  0  0  0  0  0
    3.2066    4.9794    0.0000 C    0  0  0  0  0  0  0  0  0  0  0  0
    2.7943    5.6940    0.0000 N    0  0  0  0  0  0  0  0  0  0  0  0
    4.4434    2.8401    0.0000 C    0  0  0  0  0  0  0  0  0  0  0  0
    1.3468    1.2597    0.0000 C    0  0  0  0  0  0  0  0  0  0  0  0
    0.5222    1.1910    0.0000 C    0  0  0  0  0  0  0  0  0  0  0  0
    6.0925    1.4108    0.0000 O    0  0  0  0  0  0  0  0  0  0  0  0
    4.4434    4.2693    0.0000 C    0  0  0  0  0  0  0  0  0  0  0  0
    6.0925    2.8401    0.0000 O    0  0  0  0  0  0  0  0  0  0  0  0
    3.2066    2.1254    0.0000 C    0  0  0  0  0  0  0  0  0  0  0  0
    4.4434    1.4108    0.0000 C    0  0  0  0  0  0  0  0  0  0  0  0
    3.6189    1.4108    0.0000 C    0  0  0  0  0  0  0  0  0  0  0  0
    4.8557    4.9794    0.0000 C    0  0  0  0  0  0  0  0  0  0  0  0
    4.8557    3.5547    0.0000 C    0  0  0  0  0  0  0  0  0  0  0  0
    6.0925    4.2693    0.0000 C    0  0  0  0  0  0  0  0  0  0  0  0
    5.6802    4.9794    0.0000 C    0  0  0  0  0  0  0  0  0  0  0  0
    5.6802    3.5547    0.0000 C    0  0  0  0  0  0  0  0  0  0  0  0
    6.9170    4.2693    0.0000 Br   0  0  0  0  0  0  0  0  0  0  0  0
    2.3820    2.1254    0.0000 O    0  0  0  0  0  0  0  0  0  0  0  0
    2.1622    1.3284    0.0000 C    0  0  0  0  0  0  0  0  0  0  0  0
  2  4  1  0  0  0  0
  3  2  2  0  0  0  0
  4  8  1  0  0  0  0
  5  1  1  0  0  0  0
  6  3  1  0  0  0  0
  7  6  3  0  0  0  0
  8  5  2  0  0  0  0
  9 24  1  0  0  0  0
 10  9  3  0  0  0  0
 11  1  1  0  0  0  0
 12  3  1  0  0  0  0
 13  1  2  0  0  0  0
 14 16  1  0  0  0  0
 14  4  2  0  0  0  0
 15  5  1  0  0  0  0
 16 15  2  0  0  0  0
 17 12  2  0  0  0  0
 18 12  1  0  0  0  0
 19 21  1  0  0  0  0
 19 20  2  0  0  0  0
 20 17  1  0  0  0  0
 21 18  2  0  0  0  0
 22 19  1  0  0  0  0
 23 14  1  0  0  0  0
 24 23  1  0  0  0  0
M  END
> <CdId>
1627

> <Mol Weight>
383.196

> <Formula>
C18H11BrN2O3

> <Click_ID>
CLK021_H02 __ __ 

$$$$
