CLK001_A02
 OpenBabel03191401532D

 28 31  0  0  0  0  0  0  0  0999 V2000
   -1.7360   -0.2985    0.0000 C    0  0  0  0  0  0  0  0  0  0  0  0
   -1.9831    0.4838    0.0000 C    0  0  0  0  0  0  0  0  0  0  0  0
   -2.3948   -0.7789    0.0000 S    0  0  0  0  0  0  0  0  0  0  0  0
   -0.9263   -0.4735    0.0000 N    0  0  0  0  0  0  0  0  0  0  0  0
   -2.8065    0.4975    0.0000 C    0  0  0  0  0  0  0  0  0  0  0  0
   -1.4375    1.1047    0.0000 C    0  0  0  0  0  0  0  0  0  0  0  0
   -3.0673   -0.2985    0.0000 C    0  0  0  0  0  0  0  0  0  0  0  0
   -0.3705    0.1372    0.0000 C    0  0  0  0  0  0  0  0  0  0  0  0
   -3.3554    1.1047    0.0000 C    0  0  0  0  0  0  0  0  0  0  0  0
   -0.6278    0.9229    0.0000 N    0  0  0  0  0  0  0  0  0  0  0  0
   -1.6846    1.8802    0.0000 O    0  0  0  0  0  0  0  0  0  0  0  0
   -3.8735   -0.4735    0.0000 C    0  0  0  0  0  0  0  0  0  0  0  0
    0.4288   -0.0377    0.0000 C    0  0  0  0  0  0  0  0  0  0  0  0
   -4.1720    0.9367    0.0000 C    0  0  0  0  0  0  0  0  0  0  0  0
   -4.4259    0.1476    0.0000 C    0  0  0  0  0  0  0  0  0  0  0  0
    0.9847    0.5730    0.0000 C    0  0  0  0  0  0  0  0  0  0  0  0
    0.6759   -0.8166    0.0000 C    0  0  0  0  0  0  0  0  0  0  0  0
    1.7909    0.3980    0.0000 C    0  0  0  0  0  0  0  0  0  0  0  0
    1.4856   -0.9950    0.0000 C    0  0  0  0  0  0  0  0  0  0  0  0
    2.0414   -0.3877    0.0000 C    0  0  0  0  0  0  0  0  0  0  0  0
    2.3433    1.0052    0.0000 O    0  0  0  0  0  0  0  0  0  0  0  0
    1.7360   -1.7807    0.0000 Cl   0  0  0  0  0  0  0  0  0  0  0  0
    2.8408   -0.5593    0.0000 O    0  0  0  0  0  0  0  0  0  0  0  0
    3.1496    0.8337    0.0000 C    0  0  0  0  0  0  0  0  0  0  0  0
    3.0913   -1.3449    0.0000 C    0  0  0  0  0  0  0  0  0  0  0  0
    3.6985    1.4410    0.0000 C    0  0  0  0  0  0  0  0  0  0  0  0
    3.8975   -1.5268    0.0000 C    0  0  0  0  0  0  0  0  0  0  0  0
    4.7038   -1.7052    0.0000 C    0  0  0  0  0  0  0  0  0  0  0  0
  1  2  2  0  0  0  0
  1  3  1  0  0  0  0
  1  4  1  0  0  0  0
  2  5  1  0  0  0  0
  2  6  1  0  0  0  0
  3  7  1  0  0  0  0
  4  8  2  0  0  0  0
  5  9  1  0  0  0  0
  5  7  2  0  0  0  0
  6 10  1  0  0  0  0
  6 11  2  0  0  0  0
  7 12  1  0  0  0  0
  8 13  1  0  0  0  0
  8 10  1  0  0  0  0
  9 14  1  0  0  0  0
 12 15  1  0  0  0  0
 13 16  2  0  0  0  0
 13 17  1  0  0  0  0
 14 15  1  0  0  0  0
 16 18  1  0  0  0  0
 17 19  2  0  0  0  0
 18 20  2  0  0  0  0
 18 21  1  0  0  0  0
 19 22  1  0  0  0  0
 19 20  1  0  0  0  0
 20 23  1  0  0  0  0
 21 24  1  0  0  0  0
 23 25  1  0  0  0  0
 24 26  1  0  0  0  0
 25 27  1  0  0  0  0
 27 28  3  0  0  0  0
M  END
> <CdId>
1

> <Mol Weight>
414.905

> <Formula>
C21H19ClN2O3S

> <Click_ID>
CLK001_A02 __ __ 

$$$$
