CLK033_C04
 OpenBabel03191401532D

 24 26  0  0  0  0  0  0  0  0999 V2000
   -4.5932    2.5568    0.0000 C   0  0  0  0  0  0  0  0  0  0  0  0
   -3.8603    2.9816    0.0000 N   0  0  0  0  0  0  0  0  0  0  0  0
   -4.6806    1.7323    0.0000 N   0  0  0  0  0  0  0  0  0  0  0  0
   -5.3177    2.8941    0.0000 S   0  0  0  0  0  0  0  0  0  0  0  0
   -5.4844    1.5824    0.0000 C   0  0  0  0  0  0  0  0  0  0  0  0
   -5.8924    2.2987    0.0000 C   0  0  0  0  0  0  0  0  0  0  0  0
   -3.8686    3.7978    0.0000 C   0  0  0  0  0  0  0  0  0  0  0  0
   -4.2559    0.3581    0.0000 C   0  0  0  0  0  0  0  0  0  0  0  0
   -4.4433   -0.4539    0.0000 C   0  0  0  0  0  0  0  0  0  0  0  0
   -3.1565    4.2101    0.0000 C   0  0  0  0  0  0  0  0  0  0  0  0
   -5.9174    0.8828    0.0000 C   0  0  0  0  0  0  0  0  0  0  0  0
   -4.5807    4.2143    0.0000 O   0  0  0  0  0  0  0  0  0  0  0  0
   -4.0685    1.1618    0.0000 C   0  0  0  0  0  0  0  0  0  0  0  0
   -3.1482    5.0388    0.0000 C   0  0  0  0  0  0  0  0  0  0  0  0
   -2.4444    3.8061    0.0000 C   0  0  0  0  0  0  0  0  0  0  0  0
   -1.7115    5.0263    0.0000 C   0  0  0  0  0  0  0  0  0  0  0  0
   -2.4319    5.4511    0.0000 C   0  0  0  0  0  0  0  0  0  0  0  0
   -1.7240    4.2101    0.0000 C   0  0  0  0  0  0  0  0  0  0  0  0
   -6.7004    2.3195    0.0000 C   0  0  0  0  0  0  0  0  0  0  0  0
   -0.9952    5.4386    0.0000 F   0  0  0  0  0  0  0  0  0  0  0  0
   -5.5176    0.1457    0.0000 O   0  0  0  0  0  0  0  0  0  0  0  0
   -7.1376    1.6199    0.0000 C   0  0  0  0  0  0  0  0  0  0  0  0
   -6.7253    0.8870    0.0000 C   0  0  0  0  0  0  0  0  0  0  0  0
   -5.9549   -0.5539    0.0000 C   0  0  0  0  0  0  0  0  0  0  0  0
  2  1  2  0  0  0  0
  3  1  1  0  0  0  0
  4  1  1  0  0  0  0
  5  3  1  0  0  0  0
  6  4  1  0  0  0  0
  6  5  2  0  0  0  0
  7  2  1  0  0  0  0
  8 13  1  0  0  0  0
  9  8  3  0  0  0  0
 10  7  1  0  0  0  0
 11  5  1  0  0  0  0
 12  7  2  0  0  0  0
 13  3  1  0  0  0  0
 14 10  1  0  0  0  0
 15 10  2  0  0  0  0
 16 18  2  0  0  0  0
 16 17  1  0  0  0  0
 17 14  2  0  0  0  0
 18 15  1  0  0  0  0
 19  6  1  0  0  0  0
 20 16  1  0  0  0  0
 21 11  1  0  0  0  0
 22 19  2  0  0  0  0
 23 11  2  0  0  0  0
 23 22  1  0  0  0  0
 24 21  1  0  0  0  0
M  END
> <CdId>
2508

> <Mol Weight>
340.371

> <Formula>
C18H13FN2O2S

> <Click_ID>
CLK033_C04 __ __ 

$$$$
