CLK033_A02
 OpenBabel03191401532D

 22 24  0  0  0  0  0  0  0  0999 V2000
   -4.5928    2.5553    0.0000 C    0  0  0  0  0  0  0  0  0  0  0  0
   -3.8788    2.9770    0.0000 N    0  0  0  0  0  0  0  0  0  0  0  0
   -4.6847    1.7369    0.0000 N    0  0  0  0  0  0  0  0  0  0  0  0
   -5.3318    2.9018    0.0000 S    0  0  0  0  0  0  0  0  0  0  0  0
   -5.4947    1.5741    0.0000 C    0  0  0  0  0  0  0  0  0  0  0  0
   -5.8955    2.3006    0.0000 C    0  0  0  0  0  0  0  0  0  0  0  0
   -3.8788    3.8079    0.0000 C    0  0  0  0  0  0  0  0  0  0  0  0
   -4.2546    0.3507    0.0000 C    0  0  0  0  0  0  0  0  0  0  0  0
   -4.4300   -0.4551    0.0000 C    0  0  0  0  0  0  0  0  0  0  0  0
   -5.9205    0.8726    0.0000 C    0  0  0  0  0  0  0  0  0  0  0  0
   -4.6053    4.2212    0.0000 O    0  0  0  0  0  0  0  0  0  0  0  0
   -3.1648    4.2212    0.0000 C    0  0  0  0  0  0  0  0  0  0  0  0
   -4.0667    1.1607    0.0000 C    0  0  0  0  0  0  0  0  0  0  0  0
   -5.5197    0.1461    0.0000 Cl   0  0  0  0  0  0  0  0  0  0  0  0
   -6.7181    2.3131    0.0000 C    0  0  0  0  0  0  0  0  0  0  0  0
   -7.1440    1.6033    0.0000 C    0  0  0  0  0  0  0  0  0  0  0  0
   -6.7306    0.8768    0.0000 C    0  0  0  0  0  0  0  0  0  0  0  0
   -3.1648    5.0396    0.0000 C    0  0  0  0  0  0  0  0  0  0  0  0
   -2.4426    3.8079    0.0000 C    0  0  0  0  0  0  0  0  0  0  0  0
   -2.4426    5.4530    0.0000 C    0  0  0  0  0  0  0  0  0  0  0  0
   -1.7244    4.2129    0.0000 C    0  0  0  0  0  0  0  0  0  0  0  0
   -1.7286    5.0396    0.0000 C    0  0  0  0  0  0  0  0  0  0  0  0
  2  1  2  0  0  0  0
  3  1  1  0  0  0  0
  4  1  1  0  0  0  0
  5  3  1  0  0  0  0
  6  4  1  0  0  0  0
  6  5  2  0  0  0  0
  7  2  1  0  0  0  0
  8 13  1  0  0  0  0
  9  8  3  0  0  0  0
 10  5  1  0  0  0  0
 11  7  2  0  0  0  0
 12  7  1  0  0  0  0
 13  3  1  0  0  0  0
 14 10  1  0  0  0  0
 15  6  1  0  0  0  0
 16 15  2  0  0  0  0
 17 10  2  0  0  0  0
 17 16  1  0  0  0  0
 18 12  1  0  0  0  0
 19 12  2  0  0  0  0
 20 18  2  0  0  0  0
 21 19  1  0  0  0  0
 22 21  2  0  0  0  0
 22 20  1  0  0  0  0
M  END
> <CdId>
2486

> <Mol Weight>
326.8

> <Formula>
C17H11ClN2OS

> <Click_ID>
CLK033_A02 __ __ 

$$$$
