CLK026_G06
 OpenBabel03191401532D

 28 30  0  0  0  0  0  0  0  0999 V2000
   -3.3446   -0.2036    0.0000 N   0  0  0  0  0  0  0  0  0  0  0  0
   -3.6725   -0.9699    0.0000 C   0  0  0  0  0  0  0  0  0  0  0  0
   -2.3367   -1.0941    0.0000 C   0  0  0  0  0  0  0  0  0  0  0  0
   -2.5197   -0.2831    0.0000 C   0  0  0  0  0  0  0  0  0  0  0  0
    0.3555   -0.5177    0.0000 N   0  0  0  0  0  0  0  0  0  0  0  0
   -0.9181   -0.9319    0.0000 C   0  0  0  0  0  0  0  0  0  0  0  0
   -3.0581   -1.5187    0.0000 S   0  0  0  0  0  0  0  0  0  0  0  0
   -0.1450    0.1484    0.0000 C   0  0  0  0  0  0  0  0  0  0  0  0
   -0.1243   -1.1908    0.0000 C   0  0  0  0  0  0  0  0  0  0  0  0
   -1.5739   -1.4324    0.0000 C   0  0  0  0  0  0  0  0  0  0  0  0
   -0.9251   -0.1070    0.0000 C   0  0  0  0  0  0  0  0  0  0  0  0
    1.1804   -0.5074    0.0000 C   0  0  0  0  0  0  0  0  0  0  0  0
   -3.3550    1.2287    0.0000 C   0  0  0  0  0  0  0  0  0  0  0  0
   -2.9822    1.9812    0.0000 C   0  0  0  0  0  0  0  0  0  0  0  0
   -4.4801   -1.1425    0.0000 O   0  0  0  0  0  0  0  0  0  0  0  0
   -1.9709    0.3417    0.0000 O   0  0  0  0  0  0  0  0  0  0  0  0
    3.6518   -0.5005    0.0000 C   0  0  0  0  0  0  0  0  0  0  0  0
    2.8269   -0.4902    0.0000 C   0  0  0  0  0  0  0  0  0  0  0  0
   -3.7588    0.5039    0.0000 C   0  0  0  0  0  0  0  0  0  0  0  0
    1.5774    0.2106    0.0000 C   0  0  0  0  0  0  0  0  0  0  0  0
    1.5912   -1.2184    0.0000 C   0  0  0  0  0  0  0  0  0  0  0  0
    2.4161    0.2175    0.0000 C   0  0  0  0  0  0  0  0  0  0  0  0
    2.4161   -1.2184    0.0000 C   0  0  0  0  0  0  0  0  0  0  0  0
    0.1139    0.9458    0.0000 C   0  0  0  0  0  0  0  0  0  0  0  0
    0.1277   -1.9778    0.0000 C   0  0  0  0  0  0  0  0  0  0  0  0
    4.4768   -0.5005    0.0000 C   0  0  0  0  0  0  0  0  0  0  0  0
    3.6518   -1.3254    0.0000 C   0  0  0  0  0  0  0  0  0  0  0  0
    3.6621    0.3210    0.0000 C   0  0  0  0  0  0  0  0  0  0  0  0
  2  1  1  0  0  0  0
  3  4  1  0  0  0  0
  4  1  1  0  0  0  0
  5  9  1  0  0  0  0
  6 10  1  0  0  0  0
  7  2  1  0  0  0  0
  7  3  1  0  0  0  0
  8 11  2  0  0  0  0
  8  5  1  0  0  0  0
  9  6  2  0  0  0  0
 10  3  2  0  0  0  0
 11  6  1  0  0  0  0
 12  5  1  0  0  0  0
 13 19  1  0  0  0  0
 14 13  3  0  0  0  0
 15  2  2  0  0  0  0
 16  4  2  0  0  0  0
 17 18  1  0  0  0  0
 18 23  2  0  0  0  0
 18 22  1  0  0  0  0
 19  1  1  0  0  0  0
 20 12  1  0  0  0  0
 21 12  2  0  0  0  0
 22 20  2  0  0  0  0
 23 21  1  0  0  0  0
 24  8  1  0  0  0  0
 25  9  1  0  0  0  0
 26 17  1  0  0  0  0
 27 17  1  0  0  0  0
 28 17  1  0  0  0  0
M  END
> <CdId>
2001

> <Mol Weight>
392.514

> <Formula>
C23H24N2O2S

> <Click_ID>
CLK026_G06 __ __ 

$$$$
