CLK022_E06
 OpenBabel03191401532D

 24 26  0  0  0  0  0  0  0  0999 V2000
    2.5195    2.5102    0.0000 C   0  0  0  0  0  0  0  0  0  0  0  0
    3.2341    2.0980    0.0000 N   0  0  0  0  0  0  0  0  0  0  0  0
    4.6633    1.2734    0.0000 N   0  0  0  0  0  0  0  0  0  0  0  0
    5.3779    0.8612    0.0000 C   0  0  0  0  0  0  0  0  0  0  0  0
   -1.0535   -0.3757    0.0000 C   0  0  0  0  0  0  0  0  0  0  0  0
   -1.7681   -0.7879    0.0000 C   0  0  0  0  0  0  0  0  0  0  0  0
    1.8049    2.0980    0.0000 C   0  0  0  0  0  0  0  0  0  0  0  0
    5.3779    0.0366    0.0000 N   0  0  0  0  0  0  0  0  0  0  0  0
    3.9487    2.5102    0.0000 C   0  0  0  0  0  0  0  0  0  0  0  0
    3.2341    1.2734    0.0000 C   0  0  0  0  0  0  0  0  0  0  0  0
    3.9487    0.8612    0.0000 C   0  0  0  0  0  0  0  0  0  0  0  0
    4.6633    2.0980    0.0000 C   0  0  0  0  0  0  0  0  0  0  0  0
    2.5195    3.3348    0.0000 O   0  0  0  0  0  0  0  0  0  0  0  0
    1.0903    2.5102    0.0000 C   0  0  0  0  0  0  0  0  0  0  0  0
    1.8049    1.2734    0.0000 C   0  0  0  0  0  0  0  0  0  0  0  0
    0.3757    1.2734    0.0000 C   0  0  0  0  0  0  0  0  0  0  0  0
    0.3757    2.0980    0.0000 C   0  0  0  0  0  0  0  0  0  0  0  0
    1.0903    0.8612    0.0000 C   0  0  0  0  0  0  0  0  0  0  0  0
   -0.3389    0.0366    0.0000 C   0  0  0  0  0  0  0  0  0  0  0  0
   -0.3389    0.8612    0.0000 O   0  0  0  0  0  0  0  0  0  0  0  0
    6.0879    1.2734    0.0000 C   0  0  0  0  0  0  0  0  0  0  0  0
    6.0879   -0.3757    0.0000 C   0  0  0  0  0  0  0  0  0  0  0  0
    6.8025    0.8612    0.0000 C   0  0  0  0  0  0  0  0  0  0  0  0
    6.8025    0.0366    0.0000 C   0  0  0  0  0  0  0  0  0  0  0  0
  2  1  1  0  0  0  0
  3 11  1  0  0  0  0
  4  3  1  0  0  0  0
  5 19  1  0  0  0  0
  6  5  3  0  0  0  0
  7  1  1  0  0  0  0
  8  4  1  0  0  0  0
  9  2  1  0  0  0  0
 10  2  1  0  0  0  0
 11 10  1  0  0  0  0
 12  9  1  0  0  0  0
 12  3  1  0  0  0  0
 13  1  2  0  0  0  0
 14  7  1  0  0  0  0
 15  7  2  0  0  0  0
 16 18  2  0  0  0  0
 17 14  2  0  0  0  0
 17 16  1  0  0  0  0
 18 15  1  0  0  0  0
 19 20  1  0  0  0  0
 20 16  1  0  0  0  0
 21  4  2  0  0  0  0
 22  8  2  0  0  0  0
 23 21  1  0  0  0  0
 24 23  2  0  0  0  0
 24 22  1  0  0  0  0
M  END
> <CdId>
1673

> <Mol Weight>
321.3731

> <Formula>
C19H19N3O2

> <Click_ID>
CLK022_E06 __ __ 

$$$$
