CLK025_E10
 OpenBabel03191401532D

 23 25  0  0  0  0  0  0  0  0999 V2000
    1.3162    0.8042    0.0000 C   0  0  0  0  0  0  0  0  0  0  0  0
    1.4022   -0.0138    0.0000 C   0  0  0  0  0  0  0  0  0  0  0  0
    2.2029   -0.1821    0.0000 N   0  0  0  0  0  0  0  0  0  0  0  0
    2.0655    1.1409    0.0000 C   0  0  0  0  0  0  0  0  0  0  0  0
    2.6153    0.5293    0.0000 C   0  0  0  0  0  0  0  0  0  0  0  0
    0.6014    1.2166    0.0000 C   0  0  0  0  0  0  0  0  0  0  0  0
   -2.9693   -1.6874    0.0000 C   0  0  0  0  0  0  0  0  0  0  0  0
   -3.6807   -2.0929    0.0000 C   0  0  0  0  0  0  0  0  0  0  0  0
   -1.5465    0.8042    0.0000 C   0  0  0  0  0  0  0  0  0  0  0  0
   -0.1169    0.8042    0.0000 C   0  0  0  0  0  0  0  0  0  0  0  0
    0.7904   -0.5636    0.0000 O   0  0  0  0  0  0  0  0  0  0  0  0
   -0.8316    1.2166    0.0000 C   0  0  0  0  0  0  0  0  0  0  0  0
   -1.5465   -0.0275    0.0000 C   0  0  0  0  0  0  0  0  0  0  0  0
   -0.8316   -0.4399    0.0000 C   0  0  0  0  0  0  0  0  0  0  0  0
   -0.1169   -0.0206    0.0000 C   0  0  0  0  0  0  0  0  0  0  0  0
   -2.2647    1.2166    0.0000 O   0  0  0  0  0  0  0  0  0  0  0  0
   -2.2647   -0.4433    0.0000 O   0  0  0  0  0  0  0  0  0  0  0  0
   -2.2579   -1.2681    0.0000 C   0  0  0  0  0  0  0  0  0  0  0  0
    2.3163    1.9211    0.0000 C   0  0  0  0  0  0  0  0  0  0  0  0
    3.4229    0.6976    0.0000 C   0  0  0  0  0  0  0  0  0  0  0  0
   -2.9761    0.7973    0.0000 C   0  0  0  0  0  0  0  0  0  0  0  0
    3.1171    2.0964    0.0000 C   0  0  0  0  0  0  0  0  0  0  0  0
    3.6772    1.4778    0.0000 C   0  0  0  0  0  0  0  0  0  0  0  0
  2  1  1  0  0  0  0
  3  2  1  0  0  0  0
  3  5  1  0  0  0  0
  4  1  1  0  0  0  0
  5  4  2  0  0  0  0
  6  1  2  0  0  0  0
  7 18  1  0  0  0  0
  8  7  3  0  0  0  0
  9 12  1  0  0  0  0
 10  6  1  0  0  0  0
 11  2  2  0  0  0  0
 12 10  2  0  0  0  0
 13 14  1  0  0  0  0
 13  9  2  0  0  0  0
 14 15  2  0  0  0  0
 15 10  1  0  0  0  0
 16  9  1  0  0  0  0
 17 13  1  0  0  0  0
 18 17  1  0  0  0  0
 19  4  1  0  0  0  0
 20  5  1  0  0  0  0
 20 23  2  0  0  0  0
 21 16  1  0  0  0  0
 22 19  2  0  0  0  0
 23 22  1  0  0  0  0
M  END
> <CdId>
1905

> <Mol Weight>
305.3273

> <Formula>
C19H15NO3

> <Click_ID>
CLK025_E10 __ __ 

$$$$
