CLK011_F07
 OpenBabel03191401532D

 31 33  0  0  0  0  0  0  0  0999 V2000
    1.2093   -1.9835    0.0000 N   0  0  0  0  0  0  0  0  0  0  0  0
    0.4947   -1.5712    0.0000 C   0  0  0  0  0  0  0  0  0  0  0  0
    1.9239   -1.5712    0.0000 C   0  0  0  0  0  0  0  0  0  0  0  0
    0.4947   -0.7467    0.0000 C   0  0  0  0  0  0  0  0  0  0  0  0
    1.9239   -0.7467    0.0000 N   0  0  0  0  0  0  0  0  0  0  0  0
    1.2093   -0.3344    0.0000 C   0  0  0  0  0  0  0  0  0  0  0  0
    1.2093   -2.8081    0.0000 C   0  0  0  0  0  0  0  0  0  0  0  0
   -0.2153   -0.3344    0.0000 C   0  0  0  0  0  0  0  0  0  0  0  0
   -3.7883   -3.2203    0.0000 C   0  0  0  0  0  0  0  0  0  0  0  0
    2.6385   -1.9835    0.0000 O   0  0  0  0  0  0  0  0  0  0  0  0
   -0.2153   -1.9835    0.0000 O   0  0  0  0  0  0  0  0  0  0  0  0
   -3.7883   -4.0449    0.0000 C   0  0  0  0  0  0  0  0  0  0  0  0
   -2.3591   -0.7467    0.0000 C   0  0  0  0  0  0  0  0  0  0  0  0
    1.2093    0.4901    0.0000 O   0  0  0  0  0  0  0  0  0  0  0  0
   -0.9299   -0.7467    0.0000 C   0  0  0  0  0  0  0  0  0  0  0  0
   -1.6445   -0.3344    0.0000 C   0  0  0  0  0  0  0  0  0  0  0  0
   -2.3591   -1.5712    0.0000 C   0  0  0  0  0  0  0  0  0  0  0  0
    1.9239   -3.2203    0.0000 C   0  0  0  0  0  0  0  0  0  0  0  0
   -1.6445   -1.9835    0.0000 C   0  0  0  0  0  0  0  0  0  0  0  0
   -0.9299   -1.5712    0.0000 C   0  0  0  0  0  0  0  0  0  0  0  0
   -3.0737   -0.3344    0.0000 O   0  0  0  0  0  0  0  0  0  0  0  0
   -3.0737   -1.9835    0.0000 O   0  0  0  0  0  0  0  0  0  0  0  0
   -3.0737   -2.8081    0.0000 C   0  0  0  0  0  0  0  0  0  0  0  0
    0.4947   -3.2203    0.0000 C   0  0  0  0  0  0  0  0  0  0  0  0
    2.6385   -2.8081    0.0000 C   0  0  0  0  0  0  0  0  0  0  0  0
    1.9239   -4.0449    0.0000 C   0  0  0  0  0  0  0  0  0  0  0  0
   -3.0737    0.4901    0.0000 C   0  0  0  0  0  0  0  0  0  0  0  0
    3.3440   -3.2203    0.0000 C   0  0  0  0  0  0  0  0  0  0  0  0
    0.4947   -4.0449    0.0000 C   0  0  0  0  0  0  0  0  0  0  0  0
   -3.7883    0.9024    0.0000 C   0  0  0  0  0  0  0  0  0  0  0  0
    1.2093   -4.4571    0.0000 C   0  0  0  0  0  0  0  0  0  0  0  0
  2  1  1  0  0  0  0
  3  1  1  0  0  0  0
  4  2  1  0  0  0  0
  5  3  1  0  0  0  0
  6  5  1  0  0  0  0
  6  4  1  0  0  0  0
  7  1  1  0  0  0  0
  8  4  2  0  0  0  0
  9 23  1  0  0  0  0
 10  3  2  0  0  0  0
 11  2  2  0  0  0  0
 12  9  3  0  0  0  0
 13 16  2  0  0  0  0
 13 17  1  0  0  0  0
 14  6  2  0  0  0  0
 15  8  1  0  0  0  0
 16 15  1  0  0  0  0
 17 19  2  0  0  0  0
 18  7  2  0  0  0  0
 19 20  1  0  0  0  0
 20 15  2  0  0  0  0
 21 13  1  0  0  0  0
 22 17  1  0  0  0  0
 23 22  1  0  0  0  0
 24  7  1  0  0  0  0
 25 18  1  0  0  0  0
 26 18  1  0  0  0  0
 26 31  2  0  0  0  0
 27 21  1  0  0  0  0
 28 25  1  0  0  0  0
 29 24  2  0  0  0  0
 30 27  1  0  0  0  0
 31 29  1  0  0  0  0
M  END
> <CdId>
812

> <Mol Weight>
418.4419

> <Formula>
C24H22N2O5

> <Click_ID>
CLK011_F07 __ __ 

$$$$
