CLK049H10
 OpenBabel03191401532D

 17 18  0  0  0  0  0  0  0  0999 V2000
    0.4583   -0.1667    0.0000 C   0  0  0  0  0  0  0  0  0  0  0  0
    0.4583   -0.9917    0.0000 N   0  0  0  0  0  0  0  0  0  0  0  0
   -0.2542    0.2458    0.0000 N   0  0  0  0  0  0  0  0  0  0  0  0
   -0.2542   -1.4042    0.0000 C   0  0  0  0  0  0  0  0  0  0  0  0
   -0.9667   -0.9917    0.0000 C   0  0  0  0  0  0  0  0  0  0  0  0
   -0.9667   -0.1667    0.0000 C   0  0  0  0  0  0  0  0  0  0  0  0
    1.1750    0.2458    0.0000 C   0  0  0  0  0  0  0  0  0  0  0  0
    1.8875    2.3083    0.0000 C   0  0  0  0  0  0  0  0  0  0  0  0
    1.8875    3.1333    0.0000 C   0  0  0  0  0  0  0  0  0  0  0  0
   -0.2542   -2.2292    0.0000 O   0  0  0  0  0  0  0  0  0  0  0  0
    1.8875   -0.1667    0.0000 O   0  0  0  0  0  0  0  0  0  0  0  0
    1.1750    1.0708    0.0000 N   0  0  0  0  0  0  0  0  0  0  0  0
   -1.6833   -1.4042    0.0000 C   0  0  0  0  0  0  0  0  0  0  0  0
    1.8875    1.4833    0.0000 C   0  0  0  0  0  0  0  0  0  0  0  0
   -1.6833    0.2458    0.0000 C   0  0  0  0  0  0  0  0  0  0  0  0
   -2.3958   -0.9917    0.0000 C   0  0  0  0  0  0  0  0  0  0  0  0
   -2.3958   -0.1667    0.0000 C   0  0  0  0  0  0  0  0  0  0  0  0
  2  1  1  0  0  0  0
  3  1  2  0  0  0  0
  4  2  1  0  0  0  0
  5  4  1  0  0  0  0
  5  6  2  0  0  0  0
  6  3  1  0  0  0  0
  7  1  1  0  0  0  0
  8 14  1  0  0  0  0
  9  8  3  0  0  0  0
 10  4  2  0  0  0  0
 11  7  2  0  0  0  0
 12  7  1  0  0  0  0
 13  5  1  0  0  0  0
 14 12  1  0  0  0  0
 15  6  1  0  0  0  0
 16 13  2  0  0  0  0
 16 17  1  0  0  0  0
 17 15  2  0  0  0  0
M  END
> <CdId>
3800

> <Mol Weight>
227.2188

> <Formula>
C12H9N3O2

> <Click_ID>
CLK049H10 __ __ 

$$$$
