CLK015_C03
 OpenBabel03191401532D

 21 22  0  0  0  0  0  0  0  0999 V2000
    4.6167   -0.3000    0.0000 N    0  0  0  0  0  0  0  0  0  0  0  0
    4.6167   -1.1250    0.0000 C    0  0  0  0  0  0  0  0  0  0  0  0
    3.3500   -0.7042    0.0000 C    0  0  0  0  0  0  0  0  0  0  0  0
    3.8292   -0.0417    0.0000 C    0  0  0  0  0  0  0  0  0  0  0  0
    3.8292   -1.3792    0.0000 N    0  0  0  0  0  0  0  0  0  0  0  0
    2.5250   -0.7042    0.0000 C    0  0  0  0  0  0  0  0  0  0  0  0
    2.1042   -1.4292    0.0000 C    0  0  0  0  0  0  0  0  0  0  0  0
    5.2792   -1.6042    0.0000 S    0  0  0  0  0  0  0  0  0  0  0  0
   -0.3708   -0.0042    0.0000 C    0  0  0  0  0  0  0  0  0  0  0  0
   -0.7833    0.7083    0.0000 C    0  0  0  0  0  0  0  0  0  0  0  0
    3.5750    0.7458    0.0000 O    0  0  0  0  0  0  0  0  0  0  0  0
    1.2792   -1.4292    0.0000 C    0  0  0  0  0  0  0  0  0  0  0  0
    2.5250   -2.1417    0.0000 C    0  0  0  0  0  0  0  0  0  0  0  0
    5.2792    0.1875    0.0000 C    0  0  0  0  0  0  0  0  0  0  0  0
    0.8667   -2.1417    0.0000 C    0  0  0  0  0  0  0  0  0  0  0  0
    3.5750   -2.1625    0.0000 C    0  0  0  0  0  0  0  0  0  0  0  0
    2.1125   -2.8667    0.0000 C    0  0  0  0  0  0  0  0  0  0  0  0
    1.2792   -2.8667    0.0000 C    0  0  0  0  0  0  0  0  0  0  0  0
    2.5250   -3.5792    0.0000 Br   0  0  0  0  0  0  0  0  0  0  0  0
    0.8667   -0.7167    0.0000 O    0  0  0  0  0  0  0  0  0  0  0  0
    0.0417   -0.7167    0.0000 C    0  0  0  0  0  0  0  0  0  0  0  0
  2  1  1  0  0  0  0
  3  4  1  0  0  0  0
  4  1  1  0  0  0  0
  5  2  1  0  0  0  0
  5  3  1  0  0  0  0
  6  3  2  0  0  0  0
  7  6  1  0  0  0  0
  8  2  2  0  0  0  0
  9 21  1  0  0  0  0
 10  9  3  0  0  0  0
 11  4  2  0  0  0  0
 12  7  2  0  0  0  0
 13  7  1  0  0  0  0
 14  1  1  0  0  0  0
 15 12  1  0  0  0  0
 16  5  1  0  0  0  0
 17 13  2  0  0  0  0
 18 17  1  0  0  0  0
 18 15  2  0  0  0  0
 19 17  1  0  0  0  0
 20 12  1  0  0  0  0
 21 20  1  0  0  0  0
M  END
> <CdId>
1098

> <Mol Weight>
365.245

> <Formula>
C15H13BrN2O2S

> <Click_ID>
CLK015_C03 __ __ 

$$$$
