CLK001_H07
 OpenBabel03191401532D

 26 28  0  0  0  0  0  0  0  0999 V2000
   -1.4668    0.8969    0.0000 N   0  0  0  0  0  0  0  0  0  0  0  0
   -2.1281    0.4104    0.0000 C   0  0  0  0  0  0  0  0  0  0  0  0
   -0.6726    0.6575    0.0000 C   0  0  0  0  0  0  0  0  0  0  0  0
   -1.4707    1.7215    0.0000 N   0  0  0  0  0  0  0  0  0  0  0  0
   -2.8843    0.7297    0.0000 C   0  0  0  0  0  0  0  0  0  0  0  0
   -2.0331   -0.4180    0.0000 C   0  0  0  0  0  0  0  0  0  0  0  0
   -0.2052    1.3338    0.0000 C   0  0  0  0  0  0  0  0  0  0  0  0
   -0.4067   -0.1292    0.0000 O   0  0  0  0  0  0  0  0  0  0  0  0
   -0.6993    1.9837    0.0000 C   0  0  0  0  0  0  0  0  0  0  0  0
   -3.5531    0.2356    0.0000 C   0  0  0  0  0  0  0  0  0  0  0  0
   -2.6982   -0.9121    0.0000 C   0  0  0  0  0  0  0  0  0  0  0  0
    0.6232    1.3453    0.0000 C   0  0  0  0  0  0  0  0  0  0  0  0
   -0.4598    2.7703    0.0000 O   0  0  0  0  0  0  0  0  0  0  0  0
   -3.4544   -0.5814    0.0000 C   0  0  0  0  0  0  0  0  0  0  0  0
    1.0412    0.6423    0.0000 C   0  0  0  0  0  0  0  0  0  0  0  0
    1.8659    0.6575    0.0000 C   0  0  0  0  0  0  0  0  0  0  0  0
    0.6423   -0.0874    0.0000 C   0  0  0  0  0  0  0  0  0  0  0  0
    2.2954   -0.0532    0.0000 C   0  0  0  0  0  0  0  0  0  0  0  0
    1.0679   -0.7904    0.0000 C   0  0  0  0  0  0  0  0  0  0  0  0
    1.8963   -0.7752    0.0000 C   0  0  0  0  0  0  0  0  0  0  0  0
    3.1199   -0.0418    0.0000 O   0  0  0  0  0  0  0  0  0  0  0  0
    2.3219   -1.4859    0.0000 O   0  0  0  0  0  0  0  0  0  0  0  0
    3.5494   -0.7486    0.0000 C   0  0  0  0  0  0  0  0  0  0  0  0
    1.9229   -2.2079    0.0000 C   0  0  0  0  0  0  0  0  0  0  0  0
    1.0945   -2.2231    0.0000 C   0  0  0  0  0  0  0  0  0  0  0  0
    0.6954   -2.9451    0.0000 C   0  0  0  0  0  0  0  0  0  0  0  0
  1  2  1  0  0  0  0
  1  3  1  0  0  0  0
  1  4  1  0  0  0  0
  2  5  1  0  0  0  0
  2  6  2  0  0  0  0
  3  7  1  0  0  0  0
  3  8  2  0  0  0  0
  4  9  1  0  0  0  0
  5 10  2  0  0  0  0
  6 11  1  0  0  0  0
  7 12  2  0  0  0  0
  7  9  1  0  0  0  0
  9 13  2  0  0  0  0
 10 14  1  0  0  0  0
 11 14  2  0  0  0  0
 12 15  1  0  0  0  0
 15 16  2  0  0  0  0
 15 17  1  0  0  0  0
 16 18  1  0  0  0  0
 17 19  2  0  0  0  0
 18 20  2  0  0  0  0
 18 21  1  0  0  0  0
 19 20  1  0  0  0  0
 20 22  1  0  0  0  0
 21 23  1  0  0  0  0
 22 24  1  0  0  0  0
 24 25  1  0  0  0  0
 25 26  3  0  0  0  0
M  END
> <CdId>
76

> <Mol Weight>
348.352

> <Formula>
C20H16N2O4

> <Click_ID>
CLK001_H07 __ __ 

$$$$
