CLK046D04
 OpenBabel03191401532D

 19 20  0  0  0  0  0  0  0  0999 V2000
   -0.0334    1.4106    0.0000 N   0  0  0  0  0  0  0  0  0  0  0  0
    0.7513    1.1520    0.0000 N   0  0  0  0  0  0  0  0  0  0  0  0
   -0.0334    0.0709    0.0000 C   0  0  0  0  0  0  0  0  0  0  0  0
   -0.5216    0.7387    0.0000 C   0  0  0  0  0  0  0  0  0  0  0  0
    0.0083   -2.1119    0.0000 C   0  0  0  0  0  0  0  0  0  0  0  0
    0.7513    0.3256    0.0000 C   0  0  0  0  0  0  0  0  0  0  0  0
    0.8597   -4.1277    0.0000 C   0  0  0  0  0  0  0  0  0  0  0  0
    1.4106   -4.7412    0.0000 C   0  0  0  0  0  0  0  0  0  0  0  0
    0.2630   -1.3272    0.0000 N   0  0  0  0  0  0  0  0  0  0  0  0
   -0.2880    2.1954    0.0000 C   0  0  0  0  0  0  0  0  0  0  0  0
   -0.8013   -2.2871    0.0000 O   0  0  0  0  0  0  0  0  0  0  0  0
   -0.2880   -0.7137    0.0000 C   0  0  0  0  0  0  0  0  0  0  0  0
    0.5592   -2.7296    0.0000 N   0  0  0  0  0  0  0  0  0  0  0  0
    0.3047   -3.5142    0.0000 C   0  0  0  0  0  0  0  0  0  0  0  0
    0.2630    2.8090    0.0000 C   0  0  0  0  0  0  0  0  0  0  0  0
   -1.0977    2.3665    0.0000 C   0  0  0  0  0  0  0  0  0  0  0  0
   -1.3522    3.1511    0.0000 C   0  0  0  0  0  0  0  0  0  0  0  0
    0.0083    3.5936    0.0000 C   0  0  0  0  0  0  0  0  0  0  0  0
   -0.8013    3.7689    0.0000 C   0  0  0  0  0  0  0  0  0  0  0  0
  2  1  1  0  0  0  0
  3  4  2  0  0  0  0
  4  1  1  0  0  0  0
  5  9  1  0  0  0  0
  6  2  2  0  0  0  0
  6  3  1  0  0  0  0
  7 14  1  0  0  0  0
  8  7  3  0  0  0  0
  9 12  1  0  0  0  0
 10  1  1  0  0  0  0
 11  5  2  0  0  0  0
 12  3  1  0  0  0  0
 13  5  1  0  0  0  0
 14 13  1  0  0  0  0
 15 10  1  0  0  0  0
 16 10  2  0  0  0  0
 17 16  1  0  0  0  0
 18 15  2  0  0  0  0
 19 17  2  0  0  0  0
 19 18  1  0  0  0  0
M  END
> <CdId>
3508

> <Mol Weight>
254.2872

> <Formula>
C14H14N4O

> <Click_ID>
CLK046D04 __ __ 

$$$$
