CLK040H06
 OpenBabel03191401532D

 24 25  0  0  0  0  0  0  0  0999 V2000
   -0.9625    1.4583    0.0000 C   0  0  0  0  0  0  0  0  0  0  0  0
   -0.9625    0.6333    0.0000 C   0  0  0  0  0  0  0  0  0  0  0  0
   -1.6750    1.8708    0.0000 N   0  0  0  0  0  0  0  0  0  0  0  0
   -2.3875    0.6333    0.0000 N   0  0  0  0  0  0  0  0  0  0  0  0
   -2.3875    1.4583    0.0000 C   0  0  0  0  0  0  0  0  0  0  0  0
   -1.6750    0.2208    0.0000 C   0  0  0  0  0  0  0  0  0  0  0  0
   -0.1750    1.7125    0.0000 N   0  0  0  0  0  0  0  0  0  0  0  0
   -0.1750    0.3792    0.0000 N   0  0  0  0  0  0  0  0  0  0  0  0
    0.3083    1.0458    0.0000 C   0  0  0  0  0  0  0  0  0  0  0  0
    0.8875   -0.5750    0.0000 C   0  0  0  0  0  0  0  0  0  0  0  0
    0.0792   -0.4042    0.0000 C   0  0  0  0  0  0  0  0  0  0  0  0
    2.7542   -1.7042    0.0000 C   0  0  0  0  0  0  0  0  0  0  0  0
   -3.1042    1.8708    0.0000 O   0  0  0  0  0  0  0  0  0  0  0  0
    3.5625   -1.8750    0.0000 C   0  0  0  0  0  0  0  0  0  0  0  0
   -1.6750   -0.6042    0.0000 O   0  0  0  0  0  0  0  0  0  0  0  0
    1.1417   -1.3625    0.0000 N   0  0  0  0  0  0  0  0  0  0  0  0
    1.9500   -1.5333    0.0000 C   0  0  0  0  0  0  0  0  0  0  0  0
    1.4375    0.0375    0.0000 O   0  0  0  0  0  0  0  0  0  0  0  0
   -1.6750    2.6958    0.0000 C   0  0  0  0  0  0  0  0  0  0  0  0
   -3.1042    0.2208    0.0000 C   0  0  0  0  0  0  0  0  0  0  0  0
    1.7750   -2.3417    0.0000 C   0  0  0  0  0  0  0  0  0  0  0  0
    2.1208   -0.7250    0.0000 C   0  0  0  0  0  0  0  0  0  0  0  0
    0.9917   -2.5958    0.0000 C   0  0  0  0  0  0  0  0  0  0  0  0
    2.9042   -0.4708    0.0000 C   0  0  0  0  0  0  0  0  0  0  0  0
  2  1  2  0  0  0  0
  3  1  1  0  0  0  0
  4  6  1  0  0  0  0
  4  5  1  0  0  0  0
  5  3  1  0  0  0  0
  6  2  1  0  0  0  0
  7  1  1  0  0  0  0
  8  2  1  0  0  0  0
  9  7  2  0  0  0  0
  9  8  1  0  0  0  0
 10 11  1  0  0  0  0
 11  8  1  0  0  0  0
 12 17  1  0  0  0  0
 13  5  2  0  0  0  0
 14 12  3  0  0  0  0
 15  6  2  0  0  0  0
 16 10  1  0  0  0  0
 17 16  1  0  0  0  0
 18 10  2  0  0  0  0
 19  3  1  0  0  0  0
 20  4  1  0  0  0  0
 21 17  1  0  0  0  0
 22 17  1  0  0  0  0
 23 21  1  0  0  0  0
 24 22  1  0  0  0  0
M  END
> <CdId>
3048

> <Mol Weight>
331.3696

> <Formula>
C16H21N5O3

> <Click_ID>
CLK040H06 __ __ 

$$$$
