CLK027_H08
 OpenBabel03191401532D

 21 22  0  0  0  0  0  0  0  0999 V2000
   -1.3720   -2.7337    0.0000 N    0  0  0  0  0  0  0  0  0  0  0  0
   -1.6333   -1.9359    0.0000 C    0  0  0  0  0  0  0  0  0  0  0  0
   -0.2854   -1.9359    0.0000 C    0  0  0  0  0  0  0  0  0  0  0  0
   -0.5433   -2.7337    0.0000 C    0  0  0  0  0  0  0  0  0  0  0  0
   -0.9559   -1.4580    0.0000 S    0  0  0  0  0  0  0  0  0  0  0  0
    1.0075    0.7324    0.0000 C    0  0  0  0  0  0  0  0  0  0  0  0
    0.4952   -1.6883    0.0000 C    0  0  0  0  0  0  0  0  0  0  0  0
    1.6196    0.1822    0.0000 C    0  0  0  0  0  0  0  0  0  0  0  0
    0.2304    0.4883    0.0000 C    0  0  0  0  0  0  0  0  0  0  0  0
    0.6705   -0.8734    0.0000 C    0  0  0  0  0  0  0  0  0  0  0  0
    2.1594    2.5961    0.0000 C    0  0  0  0  0  0  0  0  0  0  0  0
    2.3417    3.4007    0.0000 C    0  0  0  0  0  0  0  0  0  0  0  0
    1.4442   -0.6224    0.0000 C    0  0  0  0  0  0  0  0  0  0  0  0
    0.0516   -0.3233    0.0000 C    0  0  0  0  0  0  0  0  0  0  0  0
   -2.4104   -1.6883    0.0000 O    0  0  0  0  0  0  0  0  0  0  0  0
   -0.0550   -3.4007    0.0000 O    0  0  0  0  0  0  0  0  0  0  0  0
    2.4070    0.4401    0.0000 Br   0  0  0  0  0  0  0  0  0  0  0  0
    1.1966    1.5405    0.0000 O    0  0  0  0  0  0  0  0  0  0  0  0
   -0.3714    1.0384    0.0000 O    0  0  0  0  0  0  0  0  0  0  0  0
    1.9772    1.7915    0.0000 C    0  0  0  0  0  0  0  0  0  0  0  0
   -1.1485    0.7908    0.0000 C    0  0  0  0  0  0  0  0  0  0  0  0
  2  1  1  0  0  0  0
  3  4  1  0  0  0  0
  3  5  1  0  0  0  0
  4  1  1  0  0  0  0
  5  2  1  0  0  0  0
  6  9  2  0  0  0  0
  7  3  2  0  0  0  0
  8 13  2  0  0  0  0
  8  6  1  0  0  0  0
  9 14  1  0  0  0  0
 10  7  1  0  0  0  0
 11 20  1  0  0  0  0
 12 11  3  0  0  0  0
 13 10  1  0  0  0  0
 14 10  2  0  0  0  0
 15  2  2  0  0  0  0
 16  4  2  0  0  0  0
 17  8  1  0  0  0  0
 18  6  1  0  0  0  0
 19  9  1  0  0  0  0
 20 18  1  0  0  0  0
 21 19  1  0  0  0  0
M  END
> <CdId>
2084

> <Mol Weight>
368.203

> <Formula>
C14H10BrNO4S

> <Click_ID>
CLK027_H08 __ __ 

$$$$
