CLK044B11
 OpenBabel03191401532D

 29 31  0  0  0  0  0  0  0  0999 V2000
   -1.5292   -1.3333    0.0000 C   0  0  0  0  0  0  0  0  0  0  0  0
   -0.8167   -1.7458    0.0000 C   0  0  0  0  0  0  0  0  0  0  0  0
    2.0417    0.7292    0.0000 C   0  0  0  0  0  0  0  0  0  0  0  0
    2.7583    2.7917    0.0000 C   0  0  0  0  0  0  0  0  0  0  0  0
   -2.9583   -1.3333    0.0000 C   0  0  0  0  0  0  0  0  0  0  0  0
    1.3292   -0.5083    0.0000 N   0  0  0  0  0  0  0  0  0  0  0  0
   -2.2458   -1.7458    0.0000 C   0  0  0  0  0  0  0  0  0  0  0  0
    2.7583    3.6167    0.0000 C   0  0  0  0  0  0  0  0  0  0  0  0
    2.7583    1.1417    0.0000 N   0  0  0  0  0  0  0  0  0  0  0  0
   -2.9583   -0.5083    0.0000 C   0  0  0  0  0  0  0  0  0  0  0  0
    2.7583    1.9667    0.0000 C   0  0  0  0  0  0  0  0  0  0  0  0
   -0.1000   -1.3333    0.0000 C   0  0  0  0  0  0  0  0  0  0  0  0
   -3.6750   -1.7458    0.0000 O   0  0  0  0  0  0  0  0  0  0  0  0
    2.0417   -0.0958    0.0000 C   0  0  0  0  0  0  0  0  0  0  0  0
   -1.5292   -0.5083    0.0000 C   0  0  0  0  0  0  0  0  0  0  0  0
   -3.6750   -0.0958    0.0000 O   0  0  0  0  0  0  0  0  0  0  0  0
   -0.8167   -2.5708    0.0000 O   0  0  0  0  0  0  0  0  0  0  0  0
    1.3292    1.1417    0.0000 O   0  0  0  0  0  0  0  0  0  0  0  0
   -2.2458   -0.0958    0.0000 C   0  0  0  0  0  0  0  0  0  0  0  0
   -0.1000   -0.5083    0.0000 C   0  0  0  0  0  0  0  0  0  0  0  0
    0.6125   -1.7458    0.0000 C   0  0  0  0  0  0  0  0  0  0  0  0
    0.6125   -0.0958    0.0000 C   0  0  0  0  0  0  0  0  0  0  0  0
    1.3292   -1.3333    0.0000 C   0  0  0  0  0  0  0  0  0  0  0  0
   -4.3875   -1.3333    0.0000 C   0  0  0  0  0  0  0  0  0  0  0  0
   -4.3875   -0.5083    0.0000 C   0  0  0  0  0  0  0  0  0  0  0  0
    1.9333    1.9667    0.0000 C   0  0  0  0  0  0  0  0  0  0  0  0
    3.5833    1.9667    0.0000 C   0  0  0  0  0  0  0  0  0  0  0  0
    1.5208    2.6792    0.0000 C   0  0  0  0  0  0  0  0  0  0  0  0
    3.9958    1.2500    0.0000 C   0  0  0  0  0  0  0  0  0  0  0  0
  2  1  1  0  0  0  0
  3 14  1  0  0  0  0
  4 11  1  0  0  0  0
  5  7  1  0  0  0  0
  6 23  1  0  0  0  0
  7  1  2  0  0  0  0
  8  4  3  0  0  0  0
  9  3  1  0  0  0  0
 10  5  2  0  0  0  0
 10 19  1  0  0  0  0
 11  9  1  0  0  0  0
 12  2  1  0  0  0  0
 13  5  1  0  0  0  0
 14  6  1  0  0  0  0
 15  1  1  0  0  0  0
 16 10  1  0  0  0  0
 17  2  2  0  0  0  0
 18  3  2  0  0  0  0
 19 15  2  0  0  0  0
 20 12  1  0  0  0  0
 21 12  1  0  0  0  0
 22 20  1  0  0  0  0
 22  6  1  0  0  0  0
 23 21  1  0  0  0  0
 24 13  1  0  0  0  0
 24 25  1  0  0  0  0
 25 16  1  0  0  0  0
 26 11  1  0  0  0  0
 27 11  1  0  0  0  0
 28 26  1  0  0  0  0
 29 27  1  0  0  0  0
M  END
> <CdId>
3402

> <Mol Weight>
398.4953

> <Formula>
C23H30N2O4

> <Click_ID>
CLK044B11 __ __ 

$$$$
