CLK028_F08
 OpenBabel03191401532D

 11 11  0  0  0  0  0  0  0  0999 V2000
    1.7796   -0.8245    0.0000 C   0  0  0  0  0  0  0  0  0  0  0  0
    1.7796   -1.6490    0.0000 C   0  0  0  0  0  0  0  0  0  0  0  0
   -1.0787    0.8280    0.0000 C   0  0  0  0  0  0  0  0  0  0  0  0
   -0.3642    0.4157    0.0000 C   0  0  0  0  0  0  0  0  0  0  0  0
   -1.0787    1.6525    0.0000 O   0  0  0  0  0  0  0  0  0  0  0  0
    1.0650   -0.4123    0.0000 C   0  0  0  0  0  0  0  0  0  0  0  0
   -0.3642   -0.4123    0.0000 C   0  0  0  0  0  0  0  0  0  0  0  0
    0.3504    0.8280    0.0000 C   0  0  0  0  0  0  0  0  0  0  0  0
    1.0650    0.4157    0.0000 C   0  0  0  0  0  0  0  0  0  0  0  0
    0.3504   -0.8245    0.0000 C   0  0  0  0  0  0  0  0  0  0  0  0
   -1.7830    0.4157    0.0000 C   0  0  0  0  0  0  0  0  0  0  0  0
  2  1  3  0  0  0  0
  3  4  1  0  0  0  0
  4  7  1  0  0  0  0
  5  3  2  0  0  0  0
  6  1  1  0  0  0  0
  7 10  2  0  0  0  0
  8  9  1  0  0  0  0
  8  4  2  0  0  0  0
  9  6  2  0  0  0  0
 10  6  1  0  0  0  0
 11  3  1  0  0  0  0
M  END
> <CdId>
2142

> <Mol Weight>
144.1699

> <Formula>
C10H8O

> <Click_ID>
CLK028_F08 __ __ 

$$$$
