CLK015_F02
 OpenBabel03191401532D

 23 24  0  0  0  0  0  0  0  0999 V2000
    4.1917   -3.5750    0.0000 N    0  0  0  0  0  0  0  0  0  0  0  0
    3.4792   -3.9875    0.0000 C    0  0  0  0  0  0  0  0  0  0  0  0
    4.0167   -2.7667    0.0000 C    0  0  0  0  0  0  0  0  0  0  0  0
    3.2000   -2.6792    0.0000 C    0  0  0  0  0  0  0  0  0  0  0  0
    2.8625   -3.4292    0.0000 S    0  0  0  0  0  0  0  0  0  0  0  0
    2.7792   -1.9667    0.0000 C    0  0  0  0  0  0  0  0  0  0  0  0
   -1.7583   -2.6917    0.0000 C    0  0  0  0  0  0  0  0  0  0  0  0
   -2.5750   -2.6917    0.0000 C    0  0  0  0  0  0  0  0  0  0  0  0
    0.7250   -2.6792    0.0000 C    0  0  0  0  0  0  0  0  0  0  0  0
    3.3917   -4.8042    0.0000 O    0  0  0  0  0  0  0  0  0  0  0  0
    4.5667   -2.1542    0.0000 O    0  0  0  0  0  0  0  0  0  0  0  0
    1.9625   -1.9667    0.0000 C    0  0  0  0  0  0  0  0  0  0  0  0
    1.5500   -2.6792    0.0000 C    0  0  0  0  0  0  0  0  0  0  0  0
    0.3042   -1.9667    0.0000 C    0  0  0  0  0  0  0  0  0  0  0  0
    4.9417   -3.9042    0.0000 C    0  0  0  0  0  0  0  0  0  0  0  0
    0.7167   -1.2500    0.0000 C    0  0  0  0  0  0  0  0  0  0  0  0
    0.3042   -3.3917    0.0000 Cl   0  0  0  0  0  0  0  0  0  0  0  0
    1.5500   -1.2500    0.0000 C    0  0  0  0  0  0  0  0  0  0  0  0
   -0.5208   -1.9667    0.0000 O    0  0  0  0  0  0  0  0  0  0  0  0
   -0.9333   -2.6875    0.0000 C    0  0  0  0  0  0  0  0  0  0  0  0
    5.0292   -4.7292    0.0000 C    0  0  0  0  0  0  0  0  0  0  0  0
    5.7875   -5.0625    0.0000 C    0  0  0  0  0  0  0  0  0  0  0  0
    5.8667   -5.8792    0.0000 C    0  0  0  0  0  0  0  0  0  0  0  0
  2  1  1  0  0  0  0
  3  1  1  0  0  0  0
  4  3  1  0  0  0  0
  4  5  1  0  0  0  0
  5  2  1  0  0  0  0
  6  4  2  0  0  0  0
  7 20  1  0  0  0  0
  8  7  3  0  0  0  0
  9 13  2  0  0  0  0
  9 14  1  0  0  0  0
 10  2  2  0  0  0  0
 11  3  2  0  0  0  0
 12  6  1  0  0  0  0
 13 12  1  0  0  0  0
 14 16  2  0  0  0  0
 15  1  1  0  0  0  0
 16 18  1  0  0  0  0
 17  9  1  0  0  0  0
 18 12  2  0  0  0  0
 19 14  1  0  0  0  0
 20 19  1  0  0  0  0
 21 15  1  0  0  0  0
 22 21  1  0  0  0  0
 23 22  1  0  0  0  0
M  END
> <CdId>
1127

> <Mol Weight>
349.832

> <Formula>
C17H16ClNO3S

> <Click_ID>
CLK015_F02 __ __ 

$$$$
