CLK019_C11
 OpenBabel03191401532D

 27 29  0  0  0  0  0  0  0  0999 V2000
    1.7646    2.4429    0.0000 C    0  0  0  0  0  0  0  0  0  0  0  0
    1.4346    1.6912    0.0000 N    0  0  0  0  0  0  0  0  0  0  0  0
    1.3521    3.1579    0.0000 C    0  0  0  0  0  0  0  0  0  0  0  0
    2.5896    2.3604    0.0000 N    0  0  0  0  0  0  0  0  0  0  0  0
    1.7646    3.8729    0.0000 C    0  0  0  0  0  0  0  0  0  0  0  0
    4.2396    3.8729    0.0000 C    0  0  0  0  0  0  0  0  0  0  0  0
    2.0396    1.1366    0.0000 C    0  0  0  0  0  0  0  0  0  0  0  0
    0.5271    3.1579    0.0000 C    0  0  0  0  0  0  0  0  0  0  0  0
    3.8271    4.5834    0.0000 C    0  0  0  0  0  0  0  0  0  0  0  0
    3.8271    3.1579    0.0000 C    0  0  0  0  0  0  0  0  0  0  0  0
    2.7546    1.5491    0.0000 C    0  0  0  0  0  0  0  0  0  0  0  0
    2.5896    3.8729    0.0000 C    0  0  0  0  0  0  0  0  0  0  0  0
   -0.2979    3.1579    0.0000 N    0  0  0  0  0  0  0  0  0  0  0  0
    6.3021    3.1579    0.0000 C    0  0  0  0  0  0  0  0  0  0  0  0
    7.1271    3.1579    0.0000 C    0  0  0  0  0  0  0  0  0  0  0  0
    3.0021    4.5834    0.0000 C    0  0  0  0  0  0  0  0  0  0  0  0
    3.0021    3.1579    0.0000 C    0  0  0  0  0  0  0  0  0  0  0  0
    4.2396    5.2937    0.0000 Br   0  0  0  0  0  0  0  0  0  0  0  0
    5.0646    3.8729    0.0000 O    0  0  0  0  0  0  0  0  0  0  0  0
    4.2396    2.4429    0.0000 O    0  0  0  0  0  0  0  0  0  0  0  0
    5.4771    3.1579    0.0000 C    0  0  0  0  0  0  0  0  0  0  0  0
    2.0396    0.3116    0.0000 C    0  0  0  0  0  0  0  0  0  0  0  0
    3.4696    1.1366    0.0000 C    0  0  0  0  0  0  0  0  0  0  0  0
    3.8271    1.7279    0.0000 C    0  0  0  0  0  0  0  0  0  0  0  0
    4.2396    1.0129    0.0000 C    0  0  0  0  0  0  0  0  0  0  0  0
    2.7546   -0.1009    0.0000 C    0  0  0  0  0  0  0  0  0  0  0  0
    3.4696    0.3116    0.0000 C    0  0  0  0  0  0  0  0  0  0  0  0
  2  1  2  0  0  0  0
  3  1  1  0  0  0  0
  4  1  1  0  0  0  0
  5  3  2  0  0  0  0
  6 10  1  0  0  0  0
  7  2  1  0  0  0  0
  8  3  1  0  0  0  0
  9 16  1  0  0  0  0
  9  6  2  0  0  0  0
 10 17  2  0  0  0  0
 11  4  1  0  0  0  0
 11  7  1  0  0  0  0
 12  5  1  0  0  0  0
 13  8  3  0  0  0  0
 14 21  1  0  0  0  0
 15 14  3  0  0  0  0
 16 12  2  0  0  0  0
 17 12  1  0  0  0  0
 18  9  1  0  0  0  0
 19  6  1  0  0  0  0
 20 10  1  0  0  0  0
 21 19  1  0  0  0  0
 22  7  2  0  0  0  0
 23 11  2  0  0  0  0
 24 20  1  0  0  0  0
 25 24  1  0  0  0  0
 26 22  1  0  0  0  0
 27 23  1  0  0  0  0
 27 26  2  0  0  0  0
M  END
> <CdId>
1426

> <Mol Weight>
422.275

> <Formula>
C21H16BrN3O2

> <Click_ID>
CLK019_C11 __ __ 

$$$$
