CLK039D02
 OpenBabel03191401532D

 16 16  0  0  0  0  0  0  0  0999 V2000
    0.0875   -0.9792    0.0000 S   0  0  0  0  0  0  0  0  0  0  0  0
   -0.6292    3.5583    0.0000 N   0  0  0  0  0  0  0  0  0  0  0  0
    1.5167   -2.6292    0.0000 C   0  0  0  0  0  0  0  0  0  0  0  0
    2.2292   -3.0417    0.0000 C   0  0  0  0  0  0  0  0  0  0  0  0
   -0.6292    2.7333    0.0000 C   0  0  0  0  0  0  0  0  0  0  0  0
    0.5000   -0.2625    0.0000 O   0  0  0  0  0  0  0  0  0  0  0  0
   -0.3250   -1.6917    0.0000 O   0  0  0  0  0  0  0  0  0  0  0  0
    0.8000   -1.3917    0.0000 N   0  0  0  0  0  0  0  0  0  0  0  0
   -0.6292   -0.5667    0.0000 C   0  0  0  0  0  0  0  0  0  0  0  0
   -0.6292    1.9083    0.0000 C   0  0  0  0  0  0  0  0  0  0  0  0
   -0.6292    0.2583    0.0000 C   0  0  0  0  0  0  0  0  0  0  0  0
    0.8000   -2.2167    0.0000 C   0  0  0  0  0  0  0  0  0  0  0  0
    0.0875    1.4958    0.0000 C   0  0  0  0  0  0  0  0  0  0  0  0
   -1.3417    1.4958    0.0000 C   0  0  0  0  0  0  0  0  0  0  0  0
    0.0875    0.6708    0.0000 C   0  0  0  0  0  0  0  0  0  0  0  0
   -1.3417    0.6708    0.0000 C   0  0  0  0  0  0  0  0  0  0  0  0
  2  5  3  0  0  0  0
  3 12  1  0  0  0  0
  4  3  3  0  0  0  0
  5 10  1  0  0  0  0
  6  1  2  0  0  0  0
  7  1  2  0  0  0  0
  8  1  1  0  0  0  0
  9  1  1  0  0  0  0
 10 14  2  0  0  0  0
 10 13  1  0  0  0  0
 11  9  1  0  0  0  0
 12  8  1  0  0  0  0
 13 15  2  0  0  0  0
 14 16  1  0  0  0  0
 15 11  1  0  0  0  0
 16 11  2  0  0  0  0
M  END
> <CdId>
2932

> <Mol Weight>
234.274

> <Formula>
C11H10N2O2S

> <Click_ID>
CLK039D02 __ __ 

$$$$
