CLK010_G02
 OpenBabel03191401532D

 27 29  0  0  0  0  0  0  0  0999 V2000
    5.2679   -1.9652    0.0000 C   0  0  0  0  0  0  0  0  0  0  0  0
    5.3595   -2.7806    0.0000 C   0  0  0  0  0  0  0  0  0  0  0  0
    6.1612   -2.9592    0.0000 N   0  0  0  0  0  0  0  0  0  0  0  0
    6.0238   -1.6262    0.0000 C   0  0  0  0  0  0  0  0  0  0  0  0
    6.5735   -2.2446    0.0000 C   0  0  0  0  0  0  0  0  0  0  0  0
    4.5625   -1.5529    0.0000 N   0  0  0  0  0  0  0  0  0  0  0  0
    3.8479   -0.3161    0.0000 C   0  0  0  0  0  0  0  0  0  0  0  0
    4.5625   -0.7283    0.0000 N   0  0  0  0  0  0  0  0  0  0  0  0
    6.0100   -4.3747    0.0000 C   0  0  0  0  0  0  0  0  0  0  0  0
    1.7041   -0.7283    0.0000 C   0  0  0  0  0  0  0  0  0  0  0  0
    5.5290   -5.0434    0.0000 C   0  0  0  0  0  0  0  0  0  0  0  0
    4.7457   -3.3394    0.0000 O   0  0  0  0  0  0  0  0  0  0  0  0
    2.4095   -0.3161    0.0000 O   0  0  0  0  0  0  0  0  0  0  0  0
    1.7041   -1.5575    0.0000 C   0  0  0  0  0  0  0  0  0  0  0  0
    6.5001   -3.7104    0.0000 C   0  0  0  0  0  0  0  0  0  0  0  0
    0.9803   -0.3069    0.0000 C   0  0  0  0  0  0  0  0  0  0  0  0
    3.8479    0.5085    0.0000 O   0  0  0  0  0  0  0  0  0  0  0  0
    3.1333   -0.7283    0.0000 C   0  0  0  0  0  0  0  0  0  0  0  0
    0.9803   -1.9698    0.0000 C   0  0  0  0  0  0  0  0  0  0  0  0
    0.2748   -0.7283    0.0000 C   0  0  0  0  0  0  0  0  0  0  0  0
    6.2849   -0.8429    0.0000 C   0  0  0  0  0  0  0  0  0  0  0  0
    0.2748   -1.5575    0.0000 C   0  0  0  0  0  0  0  0  0  0  0  0
    7.3843   -2.0751    0.0000 C   0  0  0  0  0  0  0  0  0  0  0  0
    2.4095   -1.9698    0.0000 C   0  0  0  0  0  0  0  0  0  0  0  0
   -0.4489   -0.3161    0.0000 C   0  0  0  0  0  0  0  0  0  0  0  0
    7.0911   -0.6780    0.0000 C   0  0  0  0  0  0  0  0  0  0  0  0
    7.6408   -1.2918    0.0000 C   0  0  0  0  0  0  0  0  0  0  0  0
  2  1  1  0  0  0  0
  3  2  1  0  0  0  0
  4  1  1  0  0  0  0
  5  4  2  0  0  0  0
  5  3  1  0  0  0  0
  6  1  2  0  0  0  0
  7  8  1  0  0  0  0
  8  6  1  0  0  0  0
  9 15  1  0  0  0  0
 10 13  1  0  0  0  0
 11  9  3  0  0  0  0
 12  2  2  0  0  0  0
 13 18  1  0  0  0  0
 14 10  2  0  0  0  0
 15  3  1  0  0  0  0
 16 10  1  0  0  0  0
 17  7  2  0  0  0  0
 18  7  1  0  0  0  0
 19 14  1  0  0  0  0
 19 22  2  0  0  0  0
 20 16  2  0  0  0  0
 21  4  1  0  0  0  0
 22 20  1  0  0  0  0
 23  5  1  0  0  0  0
 24 14  1  0  0  0  0
 25 20  1  0  0  0  0
 26 21  2  0  0  0  0
 27 26  1  0  0  0  0
 27 23  2  0  0  0  0
M  END
> <CdId>
737

> <Mol Weight>
361.3939

> <Formula>
C21H19N3O3

> <Click_ID>
CLK010_G02 __ __ 

$$$$
