CLK029_H03
 OpenBabel03191401532D

 30 33  0  0  0  0  0  0  0  0999 V2000
   -1.1710    0.9627    0.0000 C   0  0  0  0  0  0  0  0  0  0  0  0
   -1.6586    0.2959    0.0000 N   0  0  0  0  0  0  0  0  0  0  0  0
   -0.3459    0.9627    0.0000 N   0  0  0  0  0  0  0  0  0  0  0  0
    2.0671    1.6503    0.0000 N   0  0  0  0  0  0  0  0  0  0  0  0
   -1.6586    1.6336    0.0000 S   0  0  0  0  0  0  0  0  0  0  0  0
   -2.4463    0.5501    0.0000 C   0  0  0  0  0  0  0  0  0  0  0  0
   -2.4463    1.3753    0.0000 C   0  0  0  0  0  0  0  0  0  0  0  0
    2.6672    1.0835    0.0000 C   0  0  0  0  0  0  0  0  0  0  0  0
    2.2504    2.4255    0.0000 C   0  0  0  0  0  0  0  0  0  0  0  0
   -0.1333    1.7629    0.0000 C   0  0  0  0  0  0  0  0  0  0  0  0
    1.3295    1.2585    0.0000 C   0  0  0  0  0  0  0  0  0  0  0  0
   -0.6002   -0.6543    0.0000 C   0  0  0  0  0  0  0  0  0  0  0  0
   -0.0500   -0.0417    0.0000 C   0  0  0  0  0  0  0  0  0  0  0  0
    2.3171    0.3334    0.0000 C   0  0  0  0  0  0  0  0  0  0  0  0
    3.0048    2.6088    0.0000 O   0  0  0  0  0  0  0  0  0  0  0  0
    1.4920    0.4251    0.0000 C   0  0  0  0  0  0  0  0  0  0  0  0
   -1.4003   -0.4793    0.0000 C   0  0  0  0  0  0  0  0  0  0  0  0
   -0.7209    2.3462    0.0000 O   0  0  0  0  0  0  0  0  0  0  0  0
    0.8668    2.7839    0.0000 S   0  0  0  0  0  0  0  0  0  0  0  0
    1.6629    3.0006    0.0000 C   0  0  0  0  0  0  0  0  0  0  0  0
    0.6543    1.9836    0.0000 C   0  0  0  0  0  0  0  0  0  0  0  0
   -3.1589    0.1458    0.0000 C   0  0  0  0  0  0  0  0  0  0  0  0
    3.4923    1.1460    0.0000 C   0  0  0  0  0  0  0  0  0  0  0  0
   -3.1589    1.7962    0.0000 C   0  0  0  0  0  0  0  0  0  0  0  0
    2.7881   -0.3418    0.0000 C   0  0  0  0  0  0  0  0  0  0  0  0
   -3.8632    0.5501    0.0000 C   0  0  0  0  0  0  0  0  0  0  0  0
    3.9633    0.4709    0.0000 C   0  0  0  0  0  0  0  0  0  0  0  0
   -3.8632    1.3753    0.0000 C   0  0  0  0  0  0  0  0  0  0  0  0
    3.6049   -0.2793    0.0000 C   0  0  0  0  0  0  0  0  0  0  0  0
   -4.5841    1.7837    0.0000 H   0  0  0  0  0  0  0  0  0  0  0  0
  2  1  1  0  0  0  0
  3  1  2  0  0  0  0
  4  9  1  0  0  0  0
  5  1  1  0  0  0  0
  6  2  1  0  0  0  0
  7  5  1  0  0  0  0
  7  6  2  0  0  0  0
  8  4  1  0  0  0  0
  9 20  1  0  0  0  0
 10  3  1  0  0  0  0
 11  4  1  0  0  0  0
 12 17  1  0  0  0  0
 13 12  3  0  0  0  0
 14  8  1  0  0  0  0
 14 16  1  0  0  0  0
 15  9  2  0  0  0  0
 16 11  1  0  0  0  0
 17  2  1  0  0  0  0
 18 10  2  0  0  0  0
 19 21  1  0  0  0  0
 20 19  1  0  0  0  0
 21 10  1  0  0  0  0
 22  6  1  0  0  0  0
 23  8  2  0  0  0  0
 24  7  1  0  0  0  0
 25 14  2  0  0  0  0
 26 22  2  0  0  0  0
 27 23  1  0  0  0  0
 28 24  2  0  0  0  0
 28 26  1  0  0  0  0
 29 27  2  0  0  0  0
 29 25  1  0  0  0  0
 30 28  1  0  0  0  0
M  END
> <CdId>
2237

> <Mol Weight>
421.535

> <Formula>
C22H19N3O2S2

> <Click_ID>
CLK029_H03 __ __ 

$$$$
