CLK028_B10
 OpenBabel03191401532D

 16 16  0  0  0  0  0  0  0  0999 V2000
   -0.0172    0.8320    0.0000 C   0  0  0  0  0  0  0  0  0  0  0  0
    2.1506    1.2392    0.0000 C   0  0  0  0  0  0  0  0  0  0  0  0
    0.7007    0.4211    0.0000 O   0  0  0  0  0  0  0  0  0  0  0  0
    2.8686    1.6708    0.0000 C   0  0  0  0  0  0  0  0  0  0  0  0
   -0.7353    0.4039    0.0000 C   0  0  0  0  0  0  0  0  0  0  0  0
    1.4188    0.8320    0.0000 C   0  0  0  0  0  0  0  0  0  0  0  0
   -0.0172    1.6501    0.0000 O   0  0  0  0  0  0  0  0  0  0  0  0
   -1.4360    0.8078    0.0000 C   0  0  0  0  0  0  0  0  0  0  0  0
   -0.7353   -0.4211    0.0000 C   0  0  0  0  0  0  0  0  0  0  0  0
   -2.1540   -0.4211    0.0000 C   0  0  0  0  0  0  0  0  0  0  0  0
   -1.4360   -0.8250    0.0000 C   0  0  0  0  0  0  0  0  0  0  0  0
   -2.1540    0.4039    0.0000 C   0  0  0  0  0  0  0  0  0  0  0  0
   -2.8721   -0.8250    0.0000 O   0  0  0  0  0  0  0  0  0  0  0  0
    1.0045    1.5672    0.0000 C   0  0  0  0  0  0  0  0  0  0  0  0
    1.8330    0.0967    0.0000 C   0  0  0  0  0  0  0  0  0  0  0  0
   -2.8721   -1.6673    0.0000 C   0  0  0  0  0  0  0  0  0  0  0  0
  2  6  1  0  0  0  0
  3  1  1  0  0  0  0
  4  2  3  0  0  0  0
  5  1  1  0  0  0  0
  6  3  1  0  0  0  0
  7  1  2  0  0  0  0
  8  5  2  0  0  0  0
  9  5  1  0  0  0  0
 10 11  1  0  0  0  0
 10 12  2  0  0  0  0
 11  9  2  0  0  0  0
 12  8  1  0  0  0  0
 13 10  1  0  0  0  0
 14  6  1  0  0  0  0
 15  6  1  0  0  0  0
 16 13  1  0  0  0  0
M  END
> <CdId>
2104

> <Mol Weight>
218.2485

> <Formula>
C13H14O3

> <Click_ID>
CLK028_B10 __ __ 

$$$$
