CLK020_A06
 OpenBabel03191401532D

 24 26  0  0  0  0  0  0  0  0999 V2000
    0.8292    4.1227    0.0000 C   0  0  0  0  0  0  0  0  0  0  0  0
    0.1558    3.6371    0.0000 N   0  0  0  0  0  0  0  0  0  0  0  0
    1.4979    3.6371    0.0000 S   0  0  0  0  0  0  0  0  0  0  0  0
    0.4169    2.8538    0.0000 C   0  0  0  0  0  0  0  0  0  0  0  0
    1.5438    5.3504    0.0000 C   0  0  0  0  0  0  0  0  0  0  0  0
    0.8292    4.9381    0.0000 S   0  0  0  0  0  0  0  0  0  0  0  0
    1.2414    2.8538    0.0000 C   0  0  0  0  0  0  0  0  0  0  0  0
    1.5438    6.9995    0.0000 N   0  0  0  0  0  0  0  0  0  0  0  0
    1.5438    6.1749    0.0000 C   0  0  0  0  0  0  0  0  0  0  0  0
    6.5414    4.9381    0.0000 C   0  0  0  0  0  0  0  0  0  0  0  0
    7.2560    4.5259    0.0000 C   0  0  0  0  0  0  0  0  0  0  0  0
    2.2584    4.9381    0.0000 C   0  0  0  0  0  0  0  0  0  0  0  0
    2.9730    5.3504    0.0000 C   0  0  0  0  0  0  0  0  0  0  0  0
    3.6876    4.9381    0.0000 C   0  0  0  0  0  0  0  0  0  0  0  0
    4.3976    5.3504    0.0000 C   0  0  0  0  0  0  0  0  0  0  0  0
    5.8268    5.3504    0.0000 C   0  0  0  0  0  0  0  0  0  0  0  0
    5.1122    4.9381    0.0000 O   0  0  0  0  0  0  0  0  0  0  0  0
    0.0046    2.1392    0.0000 C   0  0  0  0  0  0  0  0  0  0  0  0
    3.6876    6.5872    0.0000 C   0  0  0  0  0  0  0  0  0  0  0  0
    1.6537    2.1392    0.0000 C   0  0  0  0  0  0  0  0  0  0  0  0
    2.9730    6.1749    0.0000 C   0  0  0  0  0  0  0  0  0  0  0  0
    4.3976    6.1749    0.0000 C   0  0  0  0  0  0  0  0  0  0  0  0
    0.4169    1.4246    0.0000 C   0  0  0  0  0  0  0  0  0  0  0  0
    1.2414    1.4246    0.0000 C   0  0  0  0  0  0  0  0  0  0  0  0
  2  1  2  0  0  0  0
  3  1  1  0  0  0  0
  4  2  1  0  0  0  0
  4  7  2  0  0  0  0
  5  6  1  0  0  0  0
  6  1  1  0  0  0  0
  7  3  1  0  0  0  0
  8  9  3  0  0  0  0
  9  5  1  0  0  0  0
 10 16  1  0  0  0  0
 11 10  3  0  0  0  0
 12  5  2  0  0  0  0
 13 12  1  0  0  0  0
 14 13  1  0  0  0  0
 15 14  2  0  0  0  0
 16 17  1  0  0  0  0
 17 15  1  0  0  0  0
 18  4  1  0  0  0  0
 19 21  1  0  0  0  0
 20  7  1  0  0  0  0
 21 13  2  0  0  0  0
 22 19  2  0  0  0  0
 22 15  1  0  0  0  0
 23 18  2  0  0  0  0
 24 20  2  0  0  0  0
 24 23  1  0  0  0  0
M  END
> <CdId>
1481

> <Mol Weight>
348.441

> <Formula>
C19H12N2OS2

> <Click_ID>
CLK020_A06 __ __ 

$$$$
