CLK039C09
 OpenBabel03191401532D

 28 30  0  0  0  0  0  0  0  0999 V2000
    0.6625   -1.4875    0.0000 S   0  0  0  0  0  0  0  0  0  0  0  0
    1.2167   -0.8750    0.0000 N   0  0  0  0  0  0  0  0  0  0  0  0
    0.9583   -0.0917    0.0000 C   0  0  2  0  0  0  0  0  0  0  0  0
   -0.1000    0.8667    0.0000 C   0  0  0  0  0  0  0  0  0  0  0  0
   -0.1000    2.2000    0.0000 N   0  0  0  0  0  0  0  0  0  0  0  0
    0.3833    1.5333    0.0000 C   0  0  0  0  0  0  0  0  0  0  0  0
    1.5125    0.5208    0.0000 C   0  0  0  0  0  0  0  0  0  0  0  0
    0.1125   -2.1042    0.0000 C   0  0  0  0  0  0  0  0  0  0  0  0
    0.1542    0.0792    0.0000 C   0  0  0  0  0  0  0  0  0  0  0  0
   -0.8875    1.1208    0.0000 C   0  0  0  0  0  0  0  0  0  0  0  0
    1.5542    2.7042    0.0000 C   0  0  0  0  0  0  0  0  0  0  0  0
    0.0500   -0.9375    0.0000 O   0  0  0  0  0  0  0  0  0  0  0  0
    1.2750   -2.0417    0.0000 O   0  0  0  0  0  0  0  0  0  0  0  0
    1.3000    3.4875    0.0000 C   0  0  0  0  0  0  0  0  0  0  0  0
   -0.8875    1.9458    0.0000 C   0  0  0  0  0  0  0  0  0  0  0  0
   -0.6958   -1.9292    0.0000 C   0  0  0  0  0  0  0  0  0  0  0  0
    2.3208    0.3500    0.0000 O   0  0  0  0  0  0  0  0  0  0  0  0
    1.2583    1.3042    0.0000 N   0  0  0  0  0  0  0  0  0  0  0  0
   -1.2500   -2.5458    0.0000 C   0  0  0  0  0  0  0  0  0  0  0  0
    1.8083    1.9208    0.0000 C   0  0  0  0  0  0  0  0  0  0  0  0
    0.3667   -2.8875    0.0000 C   0  0  0  0  0  0  0  0  0  0  0  0
   -1.6000    0.7083    0.0000 C   0  0  0  0  0  0  0  0  0  0  0  0
   -0.1875   -3.5000    0.0000 C   0  0  0  0  0  0  0  0  0  0  0  0
   -1.6000    2.3583    0.0000 C   0  0  0  0  0  0  0  0  0  0  0  0
   -0.9917   -3.3292    0.0000 C   0  0  0  0  0  0  0  0  0  0  0  0
   -2.0542   -2.3708    0.0000 C   0  0  0  0  0  0  0  0  0  0  0  0
   -2.3167    1.1208    0.0000 C   0  0  0  0  0  0  0  0  0  0  0  0
   -2.3167    1.9458    0.0000 C   0  0  0  0  0  0  0  0  0  0  0  0
  2  1  1  0  0  0  0
  3  2  1  1  0  0  0
  4  9  1  0  0  0  0
  5  6  1  0  0  0  0
  6  4  2  0  0  0  0
  7  3  1  0  0  0  0
  8  1  1  0  0  0  0
  9  3  1  0  0  0  0
 10  4  1  0  0  0  0
 11 20  1  0  0  0  0
 12  1  2  0  0  0  0
 13  1  2  0  0  0  0
 14 11  3  0  0  0  0
 15 10  2  0  0  0  0
 15  5  1  0  0  0  0
 16  8  1  0  0  0  0
 17  7  2  0  0  0  0
 18  7  1  0  0  0  0
 19 16  2  0  0  0  0
 20 18  1  0  0  0  0
 21  8  2  0  0  0  0
 22 10  1  0  0  0  0
 23 21  1  0  0  0  0
 23 25  2  0  0  0  0
 24 15  1  0  0  0  0
 25 19  1  0  0  0  0
 26 19  1  0  0  0  0
 27 22  2  0  0  0  0
 27 28  1  0  0  0  0
 28 24  2  0  0  0  0
M  END
> <CdId>
2987

> <Mol Weight>
395.475

> <Formula>
C21H21N3O3S

> <Click_ID>
CLK039C09 __ __ 

$$$$
