CLK045A07
 OpenBabel03191401532D

 23 24  0  0  0  0  0  0  0  0999 V2000
   -0.4042    0.0208    0.0000 S   0  0  0  0  0  0  0  0  0  0  0  0
   -1.1208    0.4333    0.0000 N   0  0  0  0  0  0  0  0  0  0  0  0
    1.7375   -2.8667    0.0000 C   0  0  0  0  0  0  0  0  0  0  0  0
    0.3083   -0.3917    0.0000 C   0  0  0  0  0  0  0  0  0  0  0  0
   -2.5500    2.9083    0.0000 C   0  0  0  0  0  0  0  0  0  0  0  0
   -0.8167   -0.6958    0.0000 O   0  0  0  0  0  0  0  0  0  0  0  0
    0.0083    0.7333    0.0000 O   0  0  0  0  0  0  0  0  0  0  0  0
    0.3083   -1.2167    0.0000 C   0  0  0  0  0  0  0  0  0  0  0  0
   -3.2625    3.3208    0.0000 C   0  0  0  0  0  0  0  0  0  0  0  0
    1.0250   -2.4542    0.0000 O   0  0  0  0  0  0  0  0  0  0  0  0
    1.0250   -1.6292    0.0000 C   0  0  0  0  0  0  0  0  0  0  0  0
   -1.1208    1.2583    0.0000 C   0  0  0  0  0  0  0  0  0  0  0  0
    2.4500   -3.2792    0.0000 F   0  0  0  0  0  0  0  0  0  0  0  0
    2.1500   -2.1542    0.0000 F   0  0  0  0  0  0  0  0  0  0  0  0
    1.3250   -3.5833    0.0000 F   0  0  0  0  0  0  0  0  0  0  0  0
   -1.8333    2.4958    0.0000 C   0  0  0  0  0  0  0  0  0  0  0  0
   -1.8333    1.6708    0.0000 C   0  0  0  0  0  0  0  0  0  0  0  0
    1.0250    0.0208    0.0000 C   0  0  0  0  0  0  0  0  0  0  0  0
    1.7375   -0.3917    0.0000 C   0  0  0  0  0  0  0  0  0  0  0  0
   -0.4042    2.4958    0.0000 C   0  0  0  0  0  0  0  0  0  0  0  0
    1.7375   -1.2167    0.0000 C   0  0  0  0  0  0  0  0  0  0  0  0
   -0.4042    1.6708    0.0000 C   0  0  0  0  0  0  0  0  0  0  0  0
   -1.1208    2.9083    0.0000 C   0  0  0  0  0  0  0  0  0  0  0  0
  2  1  1  0  0  0  0
  3 10  1  0  0  0  0
  4  1  1  0  0  0  0
  5 16  1  0  0  0  0
  6  1  2  0  0  0  0
  7  1  2  0  0  0  0
  8  4  1  0  0  0  0
  9  5  3  0  0  0  0
 10 11  1  0  0  0  0
 11  8  2  0  0  0  0
 12  2  1  0  0  0  0
 13  3  1  0  0  0  0
 14  3  1  0  0  0  0
 15  3  1  0  0  0  0
 16 17  1  0  0  0  0
 17 12  2  0  0  0  0
 18  4  2  0  0  0  0
 19 18  1  0  0  0  0
 19 21  2  0  0  0  0
 20 22  2  0  0  0  0
 21 11  1  0  0  0  0
 22 12  1  0  0  0  0
 23 16  2  0  0  0  0
 23 20  1  0  0  0  0
M  END
> <CdId>
3449

> <Mol Weight>
341.305

> <Formula>
C15H10F3NO3S

> <Click_ID>
CLK045A07 __ __ 

$$$$
