CLK015_G10
 OpenBabel03191401532D

 26 27  0  0  0  0  0  0  0  0999 V2000
    1.5671   -0.8169    0.0000 N   0  0  0  0  0  0  0  0  0  0  0  0
    1.8255   -1.6046    0.0000 C   0  0  0  0  0  0  0  0  0  0  0  0
    2.2381   -0.3293    0.0000 C   0  0  0  0  0  0  0  0  0  0  0  0
    2.9049   -0.8169    0.0000 C   0  0  0  0  0  0  0  0  0  0  0  0
    2.6507   -1.6046    0.0000 S   0  0  0  0  0  0  0  0  0  0  0  0
    4.2053    1.8505    0.0000 C   0  0  0  0  0  0  0  0  0  0  0  0
    3.6926   -0.5626    0.0000 C   0  0  0  0  0  0  0  0  0  0  0  0
    4.8179    1.3086    0.0000 C   0  0  0  0  0  0  0  0  0  0  0  0
    3.4176    1.6004    0.0000 C   0  0  0  0  0  0  0  0  0  0  0  0
    3.8552    0.2376    0.0000 C   0  0  0  0  0  0  0  0  0  0  0  0
    4.3928    2.6507    0.0000 O   0  0  0  0  0  0  0  0  0  0  0  0
    0.6127    0.2459    0.0000 C   0  0  0  0  0  0  0  0  0  0  0  0
    0.3918    1.0461    0.0000 C   0  0  0  0  0  0  0  0  0  0  0  0
    1.3378   -2.2673    0.0000 O   0  0  0  0  0  0  0  0  0  0  0  0
    4.6387    0.4959    0.0000 C   0  0  0  0  0  0  0  0  0  0  0  0
    2.2298    0.4959    0.0000 O   0  0  0  0  0  0  0  0  0  0  0  0
    3.2508    0.7960    0.0000 C   0  0  0  0  0  0  0  0  0  0  0  0
    5.3556    3.7092    0.0000 C   0  0  0  0  0  0  0  0  0  0  0  0
    0.7877   -0.5626    0.0000 C   0  0  0  0  0  0  0  0  0  0  0  0
    4.7429    4.2636    0.0000 O   0  0  0  0  0  0  0  0  0  0  0  0
    5.1680    2.9090    0.0000 C   0  0  0  0  0  0  0  0  0  0  0  0
    5.6014    1.5587    0.0000 I   0  0  0  0  0  0  0  0  0  0  0  0
    2.8257    2.1589    0.0000 O   0  0  0  0  0  0  0  0  0  0  0  0
    6.1391    3.9593    0.0000 O   0  0  0  0  0  0  0  0  0  0  0  0
    2.0422    1.9005    0.0000 C   0  0  0  0  0  0  0  0  0  0  0  0
    6.7434    3.4009    0.0000 C   0  0  0  0  0  0  0  0  0  0  0  0
  2  1  1  0  0  0  0
  3  1  1  0  0  0  0
  4  3  1  0  0  0  0
  4  5  1  0  0  0  0
  5  2  1  0  0  0  0
  6  9  2  0  0  0  0
  6  8  1  0  0  0  0
  7  4  2  0  0  0  0
  8 15  2  0  0  0  0
  9 17  1  0  0  0  0
 10  7  1  0  0  0  0
 11  6  1  0  0  0  0
 12 19  1  0  0  0  0
 13 12  3  0  0  0  0
 14  2  2  0  0  0  0
 15 10  1  0  0  0  0
 16  3  2  0  0  0  0
 17 10  2  0  0  0  0
 18 21  1  0  0  0  0
 19  1  1  0  0  0  0
 20 18  2  0  0  0  0
 21 11  1  0  0  0  0
 22  8  1  0  0  0  0
 23  9  1  0  0  0  0
 24 18  1  0  0  0  0
 25 23  1  0  0  0  0
 26 24  1  0  0  0  0
M  END
> <CdId>
1145

> <Mol Weight>
487.266

> <Formula>
C17H14INO6S

> <Click_ID>
CLK015_G10 __ __ 

$$$$
