CLK016_B11
 OpenBabel03191401532D

 27 29  0  0  0  0  0  0  0  0999 V2000
    1.5619   -0.8142    0.0000 N    0  0  0  0  0  0  0  0  0  0  0  0
    1.8195   -1.5993    0.0000 C    0  0  0  0  0  0  0  0  0  0  0  0
    2.8954   -0.8142    0.0000 C    0  0  0  0  0  0  0  0  0  0  0  0
    2.2307   -0.3282    0.0000 C    0  0  0  0  0  0  0  0  0  0  0  0
    2.6420   -1.5993    0.0000 S    0  0  0  0  0  0  0  0  0  0  0  0
    3.6805   -0.5608    0.0000 C    0  0  0  0  0  0  0  0  0  0  0  0
    3.8550    0.2492    0.0000 C    0  0  0  0  0  0  0  0  0  0  0  0
    0.6106    0.2451    0.0000 C    0  0  0  0  0  0  0  0  0  0  0  0
    0.3905    1.0426    0.0000 C    0  0  0  0  0  0  0  0  0  0  0  0
    1.3334   -2.2598    0.0000 O    0  0  0  0  0  0  0  0  0  0  0  0
    4.6401    0.4985    0.0000 C    0  0  0  0  0  0  0  0  0  0  0  0
    2.2224    0.4943    0.0000 O    0  0  0  0  0  0  0  0  0  0  0  0
    0.7851   -0.5608    0.0000 C    0  0  0  0  0  0  0  0  0  0  0  0
    3.2443    0.8058    0.0000 C    0  0  0  0  0  0  0  0  0  0  0  0
    5.2507   -0.0540    0.0000 O    0  0  0  0  0  0  0  0  0  0  0  0
    4.8145    1.3043    0.0000 C    0  0  0  0  0  0  0  0  0  0  0  0
    3.4188    1.6159    0.0000 C    0  0  0  0  0  0  0  0  0  0  0  0
    6.0441    0.1869    0.0000 C    0  0  0  0  0  0  0  0  0  0  0  0
    7.4316   -0.1163    0.0000 C    0  0  0  0  0  0  0  0  0  0  0  0
    6.6465   -0.3656    0.0000 C    0  0  0  0  0  0  0  0  0  0  0  0
    4.2122    1.8568    0.0000 C    0  0  0  0  0  0  0  0  0  0  0  0
    2.8206    2.1642    0.0000 Br   0  0  0  0  0  0  0  0  0  0  0  0
    8.0422   -0.6854    0.0000 C    0  0  0  0  0  0  0  0  0  0  0  0
    7.0785   -1.7364    0.0000 C    0  0  0  0  0  0  0  0  0  0  0  0
    6.4720   -1.1756    0.0000 C    0  0  0  0  0  0  0  0  0  0  0  0
    7.8678   -1.4872    0.0000 C    0  0  0  0  0  0  0  0  0  0  0  0
    8.8273   -0.4362    0.0000 C    0  0  0  0  0  0  0  0  0  0  0  0
  2  1  1  0  0  0  0
  3  4  1  0  0  0  0
  4  1  1  0  0  0  0
  5  2  1  0  0  0  0
  5  3  1  0  0  0  0
  6  3  2  0  0  0  0
  7  6  1  0  0  0  0
  8 13  1  0  0  0  0
  9  8  3  0  0  0  0
 10  2  2  0  0  0  0
 11  7  1  0  0  0  0
 12  4  2  0  0  0  0
 13  1  1  0  0  0  0
 14  7  2  0  0  0  0
 15 11  1  0  0  0  0
 16 11  2  0  0  0  0
 17 14  1  0  0  0  0
 18 15  1  0  0  0  0
 19 20  1  0  0  0  0
 20 18  1  0  0  0  0
 21 17  2  0  0  0  0
 21 16  1  0  0  0  0
 22 17  1  0  0  0  0
 23 19  2  0  0  0  0
 24 25  1  0  0  0  0
 25 20  2  0  0  0  0
 26 24  2  0  0  0  0
 26 23  1  0  0  0  0
 27 23  1  0  0  0  0
M  END
> <CdId>
1176

> <Mol Weight>
442.326

> <Formula>
C21H16BrNO3S

> <Click_ID>
CLK016_B11 __ __ 

$$$$
