CLK002_H11
 OpenBabel03191401532D

 10 10  0  0  0  0  0  0  0  0999 V2000
   -0.1957   -0.1700    0.0000 C   0  0  0  0  0  0  0  0  0  0  0  0
   -0.8553   -0.6183    0.0000 S   0  0  0  0  0  0  0  0  0  0  0  0
   -0.4534    0.6492    0.0000 N   0  0  0  0  0  0  0  0  0  0  0  0
    0.6389   -0.3349    0.0000 S   0  0  0  0  0  0  0  0  0  0  0  0
   -1.5252   -0.1391    0.0000 C   0  0  0  0  0  0  0  0  0  0  0  0
   -1.2572    0.6492    0.0000 N   0  0  0  0  0  0  0  0  0  0  0  0
    1.1903    0.2782    0.0000 C   0  0  0  0  0  0  0  0  0  0  0  0
   -2.3341   -0.3967    0.0000 N   0  0  0  0  0  0  0  0  0  0  0  0
    1.9991    0.1134    0.0000 C   0  0  0  0  0  0  0  0  0  0  0  0
    2.7927   -0.0360    0.0000 C   0  0  0  0  0  0  0  0  0  0  0  0
  1  2  1  0  0  0  0
  1  3  2  0  0  0  0
  1  4  1  0  0  0  0
  2  5  1  0  0  0  0
  3  6  1  0  0  0  0
  4  7  1  0  0  0  0
  5  8  1  0  0  0  0
  5  6  2  0  0  0  0
  7  9  1  0  0  0  0
  9 10  3  0  0  0  0
M  END
> <CdId>
160

> <Mol Weight>
171.243

> <Formula>
C5H5N3S2

> <Click_ID>
CLK002_H11 __ __ 

$$$$
