CLK021_F04
 OpenBabel03191401532D

 29 31  0  0  0  0  0  0  0  0999 V2000
    4.4265    3.7417    0.0000 C   0  0  3  0  0  0  0  0  0  0  0  0
    3.7554    3.2498    0.0000 C   0  0  0  0  0  0  0  0  0  0  0  0
    3.0889    3.7417    0.0000 N   0  0  0  0  0  0  0  0  0  0  0  0
    4.1691    4.5139    0.0000 C   0  0  0  0  0  0  0  0  0  0  0  0
    3.3418    4.5139    0.0000 C   0  0  0  0  0  0  0  0  0  0  0  0
    5.1758    4.0771    0.0000 C   0  0  0  0  0  0  0  0  0  0  0  0
    5.7550    3.4842    0.0000 C   0  0  0  0  0  0  0  0  0  0  0  0
    6.5548    3.6772    0.0000 C   0  0  0  0  0  0  0  0  0  0  0  0
    7.1339    3.0843    0.0000 C   0  0  0  0  0  0  0  0  0  0  0  0
    6.7892    4.4633    0.0000 C   0  0  0  0  0  0  0  0  0  0  0  0
    8.1635    4.0771    0.0000 C   0  0  0  0  0  0  0  0  0  0  0  0
    7.9337    3.2866    0.0000 C   0  0  0  0  0  0  0  0  0  0  0  0
    7.5890    4.6656    0.0000 C   0  0  0  0  0  0  0  0  0  0  0  0
    1.7927    4.1323    0.0000 C   0  0  0  0  0  0  0  0  0  0  0  0
    1.2824    4.7759    0.0000 C   0  0  0  0  0  0  0  0  0  0  0  0
    3.7554    2.4224    0.0000 O   0  0  0  0  0  0  0  0  0  0  0  0
    8.9680    4.2840    0.0000 C   0  0  0  0  0  0  0  0  0  0  0  0
    5.5986    2.9234    0.0000 O   0  0  0  0  0  0  0  0  0  0  0  0
    2.2937    3.4842    0.0000 C   0  0  0  0  0  0  0  0  0  0  0  0
    4.8402    3.0200    0.0000 O   0  0  0  0  0  0  0  0  0  0  0  0
    4.5828    5.2310    0.0000 C   0  0  0  0  0  0  0  0  0  0  0  0
    2.9281    5.2310    0.0000 C   0  0  0  0  0  0  0  0  0  0  0  0
    6.2100    5.0655    0.0000 C   0  0  0  0  0  0  0  0  0  0  0  0
    6.8995    2.2937    0.0000 C   0  0  0  0  0  0  0  0  0  0  0  0
    8.9818    5.1022    0.0000 C   0  0  0  0  0  0  0  0  0  0  0  0
    9.0921    3.4659    0.0000 C   0  0  0  0  0  0  0  0  0  0  0  0
    9.7907    4.3391    0.0000 C   0  0  0  0  0  0  0  0  0  0  0  0
    4.1691    5.9480    0.0000 C   0  0  0  0  0  0  0  0  0  0  0  0
    3.3418    5.9480    0.0000 C   0  0  0  0  0  0  0  0  0  0  0  0
  2  1  1  0  0  0  0
  3  2  1  0  0  0  0
  4  1  1  0  0  0  0
  5  4  2  0  0  0  0
  5  3  1  0  0  0  0
  6  1  1  0  0  0  0
  7  6  1  0  0  0  0
  8  7  1  0  0  0  0
  9  8  1  0  0  0  0
 10  8  2  0  0  0  0
 11 13  2  0  0  0  0
 12  9  2  0  0  0  0
 12 11  1  0  0  0  0
 13 10  1  0  0  0  0
 14 19  1  0  0  0  0
 15 14  3  0  0  0  0
 16  2  2  0  0  0  0
 17 11  1  0  0  0  0
 18  7  2  0  0  0  0
 19  3  1  0  0  0  0
 20  1  1  0  0  0  0
 21  4  1  0  0  0  0
 22  5  1  0  0  0  0
 23 10  1  0  0  0  0
 24  9  1  0  0  0  0
 25 17  1  0  0  0  0
 26 17  1  0  0  0  0
 27 17  1  0  0  0  0
 28 21  2  0  0  0  0
 29 28  1  0  0  0  0
 29 22  2  0  0  0  0
M  END
> <CdId>
1609

> <Mol Weight>
389.4868

> <Formula>
C25H27NO3

> <Click_ID>
CLK021_F04 __ __ 

$$$$
