CLK032_A06
 OpenBabel03191401532D

 27 29  0  0  0  0  0  0  0  0999 V2000
    1.2042   -0.6667    0.0000 C   0  0  0  0  0  0  0  0  0  0  0  0
    0.7167   -1.3292    0.0000 N   0  0  0  0  0  0  0  0  0  0  0  0
    2.0292   -0.6667    0.0000 N   0  0  0  0  0  0  0  0  0  0  0  0
    0.7167    0.0083    0.0000 S   0  0  0  0  0  0  0  0  0  0  0  0
   -0.0625   -0.2500    0.0000 C   0  0  0  0  0  0  0  0  0  0  0  0
   -0.0625   -1.0750    0.0000 C   0  0  0  0  0  0  0  0  0  0  0  0
    2.4417    0.0458    0.0000 C   0  0  0  0  0  0  0  0  0  0  0  0
   -0.7750    0.1625    0.0000 C   0  0  0  0  0  0  0  0  0  0  0  0
    0.4167   -2.7292    0.0000 C   0  0  0  0  0  0  0  0  0  0  0  0
   -0.1333   -3.3417    0.0000 C   0  0  0  0  0  0  0  0  0  0  0  0
   -0.7750   -1.4875    0.0000 C   0  0  0  0  0  0  0  0  0  0  0  0
   -2.9208   -0.2417    0.0000 C   0  0  0  0  0  0  0  0  0  0  0  0
   -2.2083    0.1708    0.0000 N   0  0  0  0  0  0  0  0  0  0  0  0
   -1.4958   -0.2500    0.0000 C   0  0  0  0  0  0  0  0  0  0  0  0
    0.9750   -2.1167    0.0000 C   0  0  0  0  0  0  0  0  0  0  0  0
    2.0292    0.7583    0.0000 O   0  0  0  0  0  0  0  0  0  0  0  0
   -3.6333    0.1708    0.0000 O   0  0  0  0  0  0  0  0  0  0  0  0
    3.6917    0.7583    0.0000 O   0  0  0  0  0  0  0  0  0  0  0  0
   -1.4958   -1.0750    0.0000 C   0  0  0  0  0  0  0  0  0  0  0  0
    3.2667    0.0458    0.0000 C   0  0  0  0  0  0  0  0  0  0  0  0
    4.5167    0.7458    0.0000 C   0  0  0  0  0  0  0  0  0  0  0  0
   -2.9250   -1.0667    0.0000 C   0  0  0  0  0  0  0  0  0  0  0  0
    4.9125    0.0250    0.0000 C   0  0  0  0  0  0  0  0  0  0  0  0
    4.9292    1.4583    0.0000 C   0  0  0  0  0  0  0  0  0  0  0  0
    5.7542    1.4458    0.0000 C   0  0  0  0  0  0  0  0  0  0  0  0
    5.7375    0.0125    0.0000 C   0  0  0  0  0  0  0  0  0  0  0  0
    6.1625    0.7208    0.0000 C   0  0  0  0  0  0  0  0  0  0  0  0
  2  1  1  0  0  0  0
  3  1  2  0  0  0  0
  4  1  1  0  0  0  0
  5  4  1  0  0  0  0
  5  6  2  0  0  0  0
  6  2  1  0  0  0  0
  7  3  1  0  0  0  0
  8  5  1  0  0  0  0
  9 15  1  0  0  0  0
 10  9  3  0  0  0  0
 11  6  1  0  0  0  0
 12 13  1  0  0  0  0
 13 14  1  0  0  0  0
 14  8  2  0  0  0  0
 14 19  1  0  0  0  0
 15  2  1  0  0  0  0
 16  7  2  0  0  0  0
 17 12  2  0  0  0  0
 18 20  1  0  0  0  0
 19 11  2  0  0  0  0
 20  7  1  0  0  0  0
 21 18  1  0  0  0  0
 22 12  1  0  0  0  0
 23 21  2  0  0  0  0
 24 21  1  0  0  0  0
 25 24  2  0  0  0  0
 26 23  1  0  0  0  0
 27 25  1  0  0  0  0
 27 26  2  0  0  0  0
M  END
> <CdId>
2410

> <Mol Weight>
379.432

> <Formula>
C20H17N3O3S

> <Click_ID>
CLK032_A06 __ __ 

$$$$
