CLK008_G04
 OpenBabel03191401532D

 22 24  0  0  0  0  0  0  0  0999 V2000
    0.3504   -1.7280    0.0000 C   0  0  0  0  0  0  0  0  0  0  0  0
    0.3573   -2.5559    0.0000 C   0  0  0  0  0  0  0  0  0  0  0  0
   -0.2851   -1.2264    0.0000 N   0  0  0  0  0  0  0  0  0  0  0  0
    1.0340   -1.2780    0.0000 O   0  0  0  0  0  0  0  0  0  0  0  0
   -0.3126   -3.0472    0.0000 C   0  0  0  0  0  0  0  0  0  0  0  0
    1.0306   -3.0335    0.0000 S   0  0  0  0  0  0  0  0  0  0  0  0
    0.0069   -0.4535    0.0000 C   0  0  0  0  0  0  0  0  0  0  0  0
    0.8176   -0.4913    0.0000 C   0  0  0  0  0  0  0  0  0  0  0  0
   -0.0481   -3.8305    0.0000 C   0  0  0  0  0  0  0  0  0  0  0  0
    0.7730   -3.8236    0.0000 C   0  0  0  0  0  0  0  0  0  0  0  0
   -0.4466    0.2439    0.0000 C   0  0  0  0  0  0  0  0  0  0  0  0
    1.3295    0.1649    0.0000 O   0  0  0  0  0  0  0  0  0  0  0  0
   -0.0653    0.9791    0.0000 C   0  0  0  0  0  0  0  0  0  0  0  0
   -0.5221    1.6765    0.0000 C   0  0  0  0  0  0  0  0  0  0  0  0
    0.7489    1.0306    0.0000 C   0  0  0  0  0  0  0  0  0  0  0  0
   -0.1477    2.4117    0.0000 C   0  0  0  0  0  0  0  0  0  0  0  0
   -1.3364    1.6353    0.0000 O   0  0  0  0  0  0  0  0  0  0  0  0
    1.1303    1.7589    0.0000 C   0  0  0  0  0  0  0  0  0  0  0  0
    0.6734    2.4563    0.0000 C   0  0  0  0  0  0  0  0  0  0  0  0
   -1.7864    2.3189    0.0000 C   0  0  0  0  0  0  0  0  0  0  0  0
   -1.4188    3.0541    0.0000 C   0  0  0  0  0  0  0  0  0  0  0  0
   -1.8689    3.7412    0.0000 C   0  0  0  0  0  0  0  0  0  0  0  0
  1  2  1  0  0  0  0
  1  3  2  0  0  0  0
  1  4  1  0  0  0  0
  2  5  2  0  0  0  0
  2  6  1  0  0  0  0
  3  7  1  0  0  0  0
  4  8  1  0  0  0  0
  5  9  1  0  0  0  0
  6 10  1  0  0  0  0
  7 11  2  0  0  0  0
  7  8  1  0  0  0  0
  8 12  2  0  0  0  0
  9 10  2  0  0  0  0
 11 13  1  0  0  0  0
 13 14  1  0  0  0  0
 13 15  2  0  0  0  0
 14 16  2  0  0  0  0
 14 17  1  0  0  0  0
 15 18  1  0  0  0  0
 16 19  1  0  0  0  0
 17 20  1  0  0  0  0
 18 19  2  0  0  0  0
 20 21  1  0  0  0  0
 21 22  3  0  0  0  0
M  END
> <CdId>
591

> <Mol Weight>
309.339

> <Formula>
C17H11NO3S

> <Click_ID>
CLK008_G04 __ __ 

$$$$
