CLK007_H11
 OpenBabel03191401532D

 15 16  0  0  0  0  0  0  0  0999 V2000
    0.4779   -0.1315    0.0000 C   0  0  0  0  0  0  0  0  0  0  0  0
    0.8864   -0.8483    0.0000 C   0  0  0  0  0  0  0  0  0  0  0  0
   -0.3497   -0.1315    0.0000 O   0  0  0  0  0  0  0  0  0  0  0  0
    0.7340    0.6579    0.0000 N   0  0  0  0  0  0  0  0  0  0  0  0
    1.7000   -0.8483    0.0000 C   0  0  0  0  0  0  0  0  0  0  0  0
    0.4674   -1.5511    0.0000 C   0  0  0  0  0  0  0  0  0  0  0  0
   -0.5990    0.6579    0.0000 C   0  0  0  0  0  0  0  0  0  0  0  0
    0.0658    1.1461    0.0000 N   0  0  0  0  0  0  0  0  0  0  0  0
    2.1120   -1.5650    0.0000 C   0  0  0  0  0  0  0  0  0  0  0  0
    0.8726   -2.2679    0.0000 C   0  0  0  0  0  0  0  0  0  0  0  0
   -1.4023    0.8760    0.0000 S   0  0  0  0  0  0  0  0  0  0  0  0
    1.6966   -2.2748    0.0000 C   0  0  0  0  0  0  0  0  0  0  0  0
   -1.6169    1.6793    0.0000 C   0  0  0  0  0  0  0  0  0  0  0  0
   -2.4168    1.9009    0.0000 C   0  0  0  0  0  0  0  0  0  0  0  0
   -2.6279    2.7041    0.0000 C   0  0  0  0  0  0  0  0  0  0  0  0
  1  2  1  0  0  0  0
  1  3  1  0  0  0  0
  1  4  2  0  0  0  0
  2  5  1  0  0  0  0
  2  6  2  0  0  0  0
  3  7  1  0  0  0  0
  4  8  1  0  0  0  0
  5  9  2  0  0  0  0
  6 10  1  0  0  0  0
  7 11  1  0  0  0  0
  7  8  2  0  0  0  0
  9 12  1  0  0  0  0
 10 12  2  0  0  0  0
 11 13  1  0  0  0  0
 13 14  1  0  0  0  0
 14 15  3  0  0  0  0
M  END
> <CdId>
560

> <Mol Weight>
216.259

> <Formula>
C11H8N2OS

> <Click_ID>
CLK007_H11 __ __ 

$$$$
