CLK044F09
 OpenBabel03191401532D

 19 19  0  0  0  0  0  0  0  0999 V2000
    0.4875   -0.3250    0.0000 C   0  0  0  0  0  0  0  0  0  0  0  0
    0.4875   -1.1500    0.0000 C   0  0  3  0  0  0  0  0  0  0  0  0
   -0.2292    0.0875    0.0000 N   0  0  0  0  0  0  0  0  0  0  0  0
    1.2000   -1.5625    0.0000 N   0  0  0  0  0  0  0  0  0  0  0  0
   -1.6583    2.5625    0.0000 C   0  0  0  0  0  0  0  0  0  0  0  0
   -2.3708    2.9750    0.0000 C   0  0  0  0  0  0  0  0  0  0  0  0
    1.2000   -2.3875    0.0000 C   0  0  0  0  0  0  0  0  0  0  0  0
    1.2000    0.0875    0.0000 O   0  0  0  0  0  0  0  0  0  0  0  0
   -0.2292    0.9125    0.0000 C   0  0  0  0  0  0  0  0  0  0  0  0
    0.4875   -2.8000    0.0000 O   0  0  0  0  0  0  0  0  0  0  0  0
   -0.9417    2.1500    0.0000 C   0  0  0  0  0  0  0  0  0  0  0  0
   -0.2292   -1.5625    0.0000 C   0  0  0  0  0  0  0  0  0  0  0  0
   -0.9417    1.3250    0.0000 C   0  0  0  0  0  0  0  0  0  0  0  0
    0.4875    2.1500    0.0000 C   0  0  0  0  0  0  0  0  0  0  0  0
    1.9167   -2.8000    0.0000 C   0  0  0  0  0  0  0  0  0  0  0  0
    0.4875    1.3250    0.0000 C   0  0  0  0  0  0  0  0  0  0  0  0
   -0.2292    2.5625    0.0000 C   0  0  0  0  0  0  0  0  0  0  0  0
   -0.9417   -1.1500    0.0000 C   0  0  0  0  0  0  0  0  0  0  0  0
   -0.2292   -2.3875    0.0000 C   0  0  0  0  0  0  0  0  0  0  0  0
  2  1  1  0  0  0  0
  3  1  1  0  0  0  0
  4  2  1  0  0  0  0
  5 11  1  0  0  0  0
  6  5  3  0  0  0  0
  7  4  1  0  0  0  0
  8  1  2  0  0  0  0
  9  3  1  0  0  0  0
 10  7  2  0  0  0  0
 11 13  1  0  0  0  0
 12  2  1  0  0  0  0
 13  9  2  0  0  0  0
 14 16  2  0  0  0  0
 15  7  1  0  0  0  0
 16  9  1  0  0  0  0
 17 11  2  0  0  0  0
 17 14  1  0  0  0  0
 18 12  1  0  0  0  0
 19 12  1  0  0  0  0
M  END
> <CdId>
3390

> <Mol Weight>
258.3156

> <Formula>
C15H18N2O2

> <Click_ID>
CLK044F09 __ __ 

$$$$
