CLK009_G06
 OpenBabel03191401532D

 35 38  0  0  0  0  0  0  0  0999 V2000
    3.4514    0.0299    0.0000 C   0  0  0  0  0  0  0  0  0  0  0  0
   -2.8712   -0.2573    0.0000 C   0  0  0  0  0  0  0  0  0  0  0  0
   -3.5829    0.1615    0.0000 N   0  0  0  0  0  0  0  0  0  0  0  0
    2.7276   -0.3290    0.0000 N   0  0  0  0  0  0  0  0  0  0  0  0
    6.2867    0.0478    0.0000 C   0  0  0  0  0  0  0  0  0  0  0  0
   -6.4182    0.2153    0.0000 C   0  0  0  0  0  0  0  0  0  0  0  0
    4.1333   -0.3409    0.0000 C   0  0  0  0  0  0  0  0  0  0  0  0
    7.0882   -0.4307    0.0000 C   0  0  0  0  0  0  0  0  0  0  0  0
   -7.1360   -0.2153    0.0000 C   0  0  0  0  0  0  0  0  0  0  0  0
   -2.1713    0.1375    0.0000 C   0  0  0  0  0  0  0  0  0  0  0  0
    3.4514    0.8553    0.0000 O   0  0  0  0  0  0  0  0  0  0  0  0
   -2.8712   -1.0767    0.0000 O   0  0  0  0  0  0  0  0  0  0  0  0
    4.8630    0.0897    0.0000 C   0  0  0  0  0  0  0  0  0  0  0  0
   -4.2828   -0.2214    0.0000 C   0  0  0  0  0  0  0  0  0  0  0  0
    5.5988   -0.4127    0.0000 C   0  0  0  0  0  0  0  0  0  0  0  0
   -0.0478    1.3638    0.0000 O   0  0  0  0  0  0  0  0  0  0  0  0
   -1.4535   -0.2692    0.0000 C   0  0  0  0  0  0  0  0  0  0  0  0
   -2.1713    0.9630    0.0000 C   0  0  0  0  0  0  0  0  0  0  0  0
    2.0636    0.1375    0.0000 C   0  0  0  0  0  0  0  0  0  0  0  0
   -5.7004   -0.1974    0.0000 C   0  0  0  0  0  0  0  0  0  0  0  0
   -0.7476    0.9630    0.0000 C   0  0  0  0  0  0  0  0  0  0  0  0
   -4.9707    0.1914    0.0000 C   0  0  0  0  0  0  0  0  0  0  0  0
    0.6700    1.0049    0.0000 C   0  0  0  0  0  0  0  0  0  0  0  0
   -1.4535    1.3937    0.0000 C   0  0  0  0  0  0  0  0  0  0  0  0
   -0.7476    0.1375    0.0000 C   0  0  0  0  0  0  0  0  0  0  0  0
    2.0636    0.9809    0.0000 C   0  0  0  0  0  0  0  0  0  0  0  0
    1.3339   -0.2214    0.0000 C   0  0  0  0  0  0  0  0  0  0  0  0
    1.3638    1.3937    0.0000 C   0  0  0  0  0  0  0  0  0  0  0  0
    0.6700    0.2153    0.0000 C   0  0  0  0  0  0  0  0  0  0  0  0
    4.1333   -1.1485    0.0000 C   0  0  0  0  0  0  0  0  0  0  0  0
    4.8630   -1.5791    0.0000 C   0  0  0  0  0  0  0  0  0  0  0  0
   -5.0005   -1.4356    0.0000 C   0  0  0  0  0  0  0  0  0  0  0  0
   -4.3007   -1.0289    0.0000 C   0  0  0  0  0  0  0  0  0  0  0  0
    5.5988   -1.2023    0.0000 C   0  0  0  0  0  0  0  0  0  0  0  0
   -5.7004   -1.0289    0.0000 C   0  0  0  0  0  0  0  0  0  0  0  0
  2 10  1  0  0  0  0
  3  2  1  0  0  0  0
  4  1  1  0  0  0  0
  5 15  1  0  0  0  0
  6 20  1  0  0  0  0
  7  1  1  0  0  0  0
  8  5  3  0  0  0  0
  9  6  3  0  0  0  0
 10 17  2  0  0  0  0
 10 18  1  0  0  0  0
 11  1  2  0  0  0  0
 12  2  2  0  0  0  0
 13  7  2  0  0  0  0
 14  3  1  0  0  0  0
 15 13  1  0  0  0  0
 15 34  2  0  0  0  0
 16 23  1  0  0  0  0
 17 25  1  0  0  0  0
 18 24  2  0  0  0  0
 19  4  1  0  0  0  0
 20 22  1  0  0  0  0
 20 35  2  0  0  0  0
 21 16  1  0  0  0  0
 22 14  2  0  0  0  0
 23 29  1  0  0  0  0
 23 28  2  0  0  0  0
 24 21  1  0  0  0  0
 25 21  2  0  0  0  0
 26 19  2  0  0  0  0
 27 19  1  0  0  0  0
 28 26  1  0  0  0  0
 29 27  2  0  0  0  0
 30  7  1  0  0  0  0
 31 30  2  0  0  0  0
 32 33  2  0  0  0  0
 33 14  1  0  0  0  0
 34 31  1  0  0  0  0
 35 32  1  0  0  0  0
M  END
> <CdId>
661

> <Mol Weight>
456.4914

> <Formula>
C30H20N2O3

> <Click_ID>
CLK009_G06 __ __ 

$$$$
