CLK035_B02
 OpenBabel03191401532D

 22 23  0  0  0  0  0  0  0  0999 V2000
   -4.5644    2.5395    0.0000 C   0  0  0  0  0  0  0  0  0  0  0  0
   -3.8549    2.9586    0.0000 N   0  0  0  0  0  0  0  0  0  0  0  0
   -4.6640    1.7262    0.0000 N   0  0  0  0  0  0  0  0  0  0  0  0
   -5.2989    2.8839    0.0000 S   0  0  0  0  0  0  0  0  0  0  0  0
   -5.4649    1.5685    0.0000 C   0  0  0  0  0  0  0  0  0  0  0  0
   -5.8715    2.2864    0.0000 C   0  0  0  0  0  0  0  0  0  0  0  0
   -3.8549    3.7844    0.0000 C   0  0  0  0  0  0  0  0  0  0  0  0
   -4.2325    0.3486    0.0000 C   0  0  0  0  0  0  0  0  0  0  0  0
   -4.4151   -0.4606    0.0000 C   0  0  0  0  0  0  0  0  0  0  0  0
   -3.1453    4.1952    0.0000 C   0  0  0  0  0  0  0  0  0  0  0  0
   -5.8882    0.8672    0.0000 C   0  0  0  0  0  0  0  0  0  0  0  0
   -4.5769    4.1869    0.0000 O   0  0  0  0  0  0  0  0  0  0  0  0
   -4.0458    1.1535    0.0000 C   0  0  0  0  0  0  0  0  0  0  0  0
   -6.6766    2.3030    0.0000 C   0  0  0  0  0  0  0  0  0  0  0  0
   -5.4981    0.1369    0.0000 O   0  0  0  0  0  0  0  0  0  0  0  0
   -7.1123    1.6017    0.0000 C   0  0  0  0  0  0  0  0  0  0  0  0
   -2.4482    3.7553    0.0000 C   0  0  0  0  0  0  0  0  0  0  0  0
   -3.0955    5.0210    0.0000 C   0  0  0  0  0  0  0  0  0  0  0  0
   -2.4399    4.6309    0.0000 C   0  0  0  0  0  0  0  0  0  0  0  0
   -6.7015    0.8797    0.0000 C   0  0  0  0  0  0  0  0  0  0  0  0
   -5.9213   -0.5644    0.0000 C   0  0  0  0  0  0  0  0  0  0  0  0
   -5.5396   -1.2739    0.0000 C   0  0  0  0  0  0  0  0  0  0  0  0
  2  1  2  0  0  0  0
  3  1  1  0  0  0  0
  4  1  1  0  0  0  0
  5  3  1  0  0  0  0
  6  4  1  0  0  0  0
  6  5  2  0  0  0  0
  7  2  1  0  0  0  0
  8 13  1  0  0  0  0
  9  8  3  0  0  0  0
 10  7  1  0  0  0  0
 11  5  1  0  0  0  0
 12  7  2  0  0  0  0
 13  3  1  0  0  0  0
 14  6  1  0  0  0  0
 15 11  1  0  0  0  0
 16 14  2  0  0  0  0
 17 10  1  0  0  0  0
 18 10  1  0  0  0  0
 19 10  1  0  0  0  0
 20 11  2  0  0  0  0
 20 16  1  0  0  0  0
 21 15  1  0  0  0  0
 22 21  1  0  0  0  0
M  END
> <CdId>
2656

> <Mol Weight>
316.418

> <Formula>
C17H20N2O2S

> <Click_ID>
CLK035_B02 __ __ 

$$$$
