CLK034_C11
 OpenBabel03191401532D

 20 21  0  0  0  0  0  0  0  0999 V2000
   -4.5951    2.5579    0.0000 C   0  0  0  0  0  0  0  0  0  0  0  0
   -3.8619    2.9828    0.0000 N   0  0  0  0  0  0  0  0  0  0  0  0
   -4.6826    1.7330    0.0000 N   0  0  0  0  0  0  0  0  0  0  0  0
   -5.3200    2.8954    0.0000 S   0  0  0  0  0  0  0  0  0  0  0  0
   -5.4867    1.5831    0.0000 C   0  0  0  0  0  0  0  0  0  0  0  0
   -5.8949    2.2997    0.0000 C   0  0  0  0  0  0  0  0  0  0  0  0
   -3.8702    3.7994    0.0000 C   0  0  0  0  0  0  0  0  0  0  0  0
   -4.2577    0.3582    0.0000 C   0  0  0  0  0  0  0  0  0  0  0  0
   -4.4451   -0.4541    0.0000 C   0  0  0  0  0  0  0  0  0  0  0  0
   -5.9199    0.8832    0.0000 C   0  0  0  0  0  0  0  0  0  0  0  0
   -4.5826    4.2161    0.0000 O   0  0  0  0  0  0  0  0  0  0  0  0
   -4.0702    1.1623    0.0000 C   0  0  0  0  0  0  0  0  0  0  0  0
   -3.1578    4.2119    0.0000 C   0  0  0  0  0  0  0  0  0  0  0  0
   -6.7032    2.3204    0.0000 C   0  0  0  0  0  0  0  0  0  0  0  0
   -5.5200    0.1458    0.0000 O   0  0  0  0  0  0  0  0  0  0  0  0
   -7.1406    1.6206    0.0000 C   0  0  0  0  0  0  0  0  0  0  0  0
   -6.7282    0.8874    0.0000 C   0  0  0  0  0  0  0  0  0  0  0  0
   -2.4454    3.7952    0.0000 C   0  0  0  0  0  0  0  0  0  0  0  0
   -3.1620    5.0284    0.0000 C   0  0  0  0  0  0  0  0  0  0  0  0
   -5.9574   -0.5541    0.0000 C   0  0  0  0  0  0  0  0  0  0  0  0
  2  1  2  0  0  0  0
  3  1  1  0  0  0  0
  4  1  1  0  0  0  0
  5  3  1  0  0  0  0
  6  4  1  0  0  0  0
  6  5  2  0  0  0  0
  7  2  1  0  0  0  0
  8 12  1  0  0  0  0
  9  8  3  0  0  0  0
 10  5  1  0  0  0  0
 11  7  2  0  0  0  0
 12  3  1  0  0  0  0
 13  7  1  0  0  0  0
 14  6  1  0  0  0  0
 15 10  1  0  0  0  0
 16 14  2  0  0  0  0
 17 10  2  0  0  0  0
 17 16  1  0  0  0  0
 18 13  1  0  0  0  0
 19 13  1  0  0  0  0
 20 15  1  0  0  0  0
M  END
> <CdId>
2595

> <Mol Weight>
288.365

> <Formula>
C15H16N2O2S

> <Click_ID>
CLK034_C11 __ __ 

$$$$
