CLK045E04
 OpenBabel03191401532D

 30 32  0  0  0  0  0  0  0  0999 V2000
   -1.0084    2.8796    0.0000 S   0  0  0  0  0  0  0  0  0  0  0  0
    0.3333   -1.0960    0.0000 S   0  0  0  0  0  0  0  0  0  0  0  0
    0.8168   -0.4293    0.0000 C   0  0  0  0  0  0  0  0  0  0  0  0
    0.8168   -1.7669    0.0000 C   0  0  0  0  0  0  0  0  0  0  0  0
    1.6044   -1.5085    0.0000 N   0  0  0  0  0  0  0  0  0  0  0  0
    0.5626    0.3542    0.0000 N   0  0  0  0  0  0  0  0  0  0  0  0
    1.6044   -0.6834    0.0000 N   0  0  0  0  0  0  0  0  0  0  0  0
    1.1169    0.9668    0.0000 C   0  0  0  0  0  0  0  0  0  0  0  0
   -0.2000    2.7087    0.0000 C   0  0  0  0  0  0  0  0  0  0  0  0
    0.8626    1.7544    0.0000 C   0  0  0  0  0  0  0  0  0  0  0  0
   -2.8754    4.0048    0.0000 C   0  0  0  0  0  0  0  0  0  0  0  0
    0.0542    1.9253    0.0000 C   0  0  0  0  0  0  0  0  0  0  0  0
   -3.6838    4.1756    0.0000 C   0  0  0  0  0  0  0  0  0  0  0  0
   -0.8376    3.6880    0.0000 O   0  0  0  0  0  0  0  0  0  0  0  0
   -1.1794    2.0711    0.0000 O   0  0  0  0  0  0  0  0  0  0  0  0
    0.5626   -2.5504    0.0000 C   0  0  0  0  0  0  0  0  0  0  0  0
   -1.8170    3.0504    0.0000 N   0  0  0  0  0  0  0  0  0  0  0  0
    1.9211    0.7959    0.0000 O   0  0  0  0  0  0  0  0  0  0  0  0
    0.0542   -4.1214    0.0000 C   0  0  0  0  0  0  0  0  0  0  0  0
   -0.2417   -2.7212    0.0000 C   0  0  0  0  0  0  0  0  0  0  0  0
    1.1169   -3.1629    0.0000 C   0  0  0  0  0  0  0  0  0  0  0  0
   -0.5001   -3.5047    0.0000 C   0  0  0  0  0  0  0  0  0  0  0  0
    0.8626   -3.9464    0.0000 C   0  0  0  0  0  0  0  0  0  0  0  0
   -0.2000   -4.9049    0.0000 C   0  0  0  0  0  0  0  0  0  0  0  0
   -2.0711    3.8380    0.0000 C   0  0  0  0  0  0  0  0  0  0  0  0
    0.3500    3.3213    0.0000 C   0  0  0  0  0  0  0  0  0  0  0  0
    1.4127    2.3670    0.0000 C   0  0  0  0  0  0  0  0  0  0  0  0
    1.1585    3.1504    0.0000 C   0  0  0  0  0  0  0  0  0  0  0  0
    0.3500   -5.5175    0.0000 C   0  0  0  0  0  0  0  0  0  0  0  0
   -1.0084   -5.0757    0.0000 C   0  0  0  0  0  0  0  0  0  0  0  0
  2  3  1  0  0  0  0
  3  6  1  0  0  0  0
  4  2  1  0  0  0  0
  5  7  1  0  0  0  0
  5  4  2  0  0  0  0
  6  8  1  0  0  0  0
  7  3  2  0  0  0  0
  8 10  1  0  0  0  0
  9  1  1  0  0  0  0
 10 12  2  0  0  0  0
 11 25  1  0  0  0  0
 12  9  1  0  0  0  0
 13 11  3  0  0  0  0
 14  1  2  0  0  0  0
 15  1  2  0  0  0  0
 16  4  1  0  0  0  0
 17  1  1  0  0  0  0
 18  8  2  0  0  0  0
 19 22  2  0  0  0  0
 20 16  2  0  0  0  0
 21 16  1  0  0  0  0
 22 20  1  0  0  0  0
 23 21  2  0  0  0  0
 23 19  1  0  0  0  0
 24 19  1  0  0  0  0
 25 17  1  0  0  0  0
 26  9  2  0  0  0  0
 27 10  1  0  0  0  0
 28 26  1  0  0  0  0
 28 27  2  0  0  0  0
 29 24  1  0  0  0  0
 30 24  1  0  0  0  0
M  END
> <CdId>
3429

> <Mol Weight>
440.538

> <Formula>
C21H20N4O3S2

> <Click_ID>
CLK045E04 __ __ 

$$$$
