CLK026_A07
 OpenBabel03191401532D

 16 17  0  0  0  0  0  0  0  0999 V2000
   -0.9475   -0.4600    0.0000 N   0  0  0  0  0  0  0  0  0  0  0  0
   -0.6901   -1.2462    0.0000 C   0  0  0  0  0  0  0  0  0  0  0  0
    0.3879   -0.4600    0.0000 C   0  0  0  0  0  0  0  0  0  0  0  0
   -0.2781    0.0241    0.0000 C   0  0  0  0  0  0  0  0  0  0  0  0
    0.1339   -1.2462    0.0000 S   0  0  0  0  0  0  0  0  0  0  0  0
    1.1707   -0.2094    0.0000 C   0  0  0  0  0  0  0  0  0  0  0  0
    1.3527    0.5974    0.0000 C   0  0  0  0  0  0  0  0  0  0  0  0
   -1.8951    0.5974    0.0000 C   0  0  0  0  0  0  0  0  0  0  0  0
    2.1148    0.9132    0.0000 S   0  0  0  0  0  0  0  0  0  0  0  0
   -2.1182    1.3939    0.0000 C   0  0  0  0  0  0  0  0  0  0  0  0
   -1.1741   -1.9054    0.0000 O   0  0  0  0  0  0  0  0  0  0  0  0
   -0.2849    0.8480    0.0000 O   0  0  0  0  0  0  0  0  0  0  0  0
   -1.7235   -0.2094    0.0000 C   0  0  0  0  0  0  0  0  0  0  0  0
    2.0290    1.7338    0.0000 C   0  0  0  0  0  0  0  0  0  0  0  0
    0.7965    1.2085    0.0000 C   0  0  0  0  0  0  0  0  0  0  0  0
    1.2085    1.9089    0.0000 C   0  0  0  0  0  0  0  0  0  0  0  0
  2  1  1  0  0  0  0
  3  4  1  0  0  0  0
  4  1  1  0  0  0  0
  5  2  1  0  0  0  0
  5  3  1  0  0  0  0
  6  3  2  0  0  0  0
  7  6  1  0  0  0  0
  8 13  1  0  0  0  0
  9  7  1  0  0  0  0
 10  8  3  0  0  0  0
 11  2  2  0  0  0  0
 12  4  2  0  0  0  0
 13  1  1  0  0  0  0
 14  9  1  0  0  0  0
 15  7  2  0  0  0  0
 16 15  1  0  0  0  0
 16 14  2  0  0  0  0
M  END
> <CdId>
1942

> <Mol Weight>
249.309

> <Formula>
C11H7NO2S2

> <Click_ID>
CLK026_A07 __ __ 

$$$$
