CLK004_F09
 OpenBabel03191401532D

 29 32  0  0  0  0  0  0  0  0999 V2000
    0.7636    0.3116    0.0000 C   0  0  3  0  0  0  0  0  0  0  0  0
    1.4816   -0.0912    0.0000 C   0  0  0  0  0  0  0  0  0  0  0  0
    0.7522    1.1321    0.0000 C   0  0  0  0  0  0  0  0  0  0  0  0
    0.0494   -0.1064    0.0000 C   0  0  0  0  0  0  0  0  0  0  0  0
    2.1920    0.3343    0.0000 C   0  0  0  0  0  0  0  0  0  0  0  0
    1.4892   -0.9042    0.0000 C   0  0  0  0  0  0  0  0  0  0  0  0
    1.4550    1.5500    0.0000 C   0  0  0  0  0  0  0  0  0  0  0  0
    0.0342    1.5386    0.0000 C   0  0  0  0  0  0  0  0  0  0  0  0
   -0.6686    0.2925    0.0000 C   0  0  0  0  0  0  0  0  0  0  0  0
    0.0608   -0.9346    0.0000 C   0  0  0  0  0  0  0  0  0  0  0  0
    2.1768    1.1510    0.0000 N   0  0  0  0  0  0  0  0  0  0  0  0
    2.9138   -0.0760    0.0000 C   0  0  0  0  0  0  0  0  0  0  0  0
    2.2110   -1.3183    0.0000 C   0  0  0  0  0  0  0  0  0  0  0  0
    0.7749   -1.3410    0.0000 O   0  0  0  0  0  0  0  0  0  0  0  0
    1.4474    2.3857    0.0000 C   0  0  0  0  0  0  0  0  0  0  0  0
    0.0228    2.3592    0.0000 C   0  0  0  0  0  0  0  0  0  0  0  0
   -0.6800    1.1206    0.0000 O   0  0  0  0  0  0  0  0  0  0  0  0
   -1.3828   -0.1330    0.0000 C   0  0  0  0  0  0  0  0  0  0  0  0
   -0.6458   -1.3600    0.0000 C   0  0  0  0  0  0  0  0  0  0  0  0
    2.9214   -0.9003    0.0000 C   0  0  0  0  0  0  0  0  0  0  0  0
    0.7218    2.7770    0.0000 C   0  0  0  0  0  0  0  0  0  0  0  0
   -1.3714   -0.9611    0.0000 C   0  0  0  0  0  0  0  0  0  0  0  0
   -2.1008    0.2697    0.0000 O   0  0  0  0  0  0  0  0  0  0  0  0
   -2.0780   -1.3828    0.0000 O   0  0  0  0  0  0  0  0  0  0  0  0
   -2.1122    1.0979    0.0000 C   0  0  0  0  0  0  0  0  0  0  0  0
   -2.0628   -2.2147    0.0000 C   0  0  0  0  0  0  0  0  0  0  0  0
   -2.8340    1.5044    0.0000 C   0  0  0  0  0  0  0  0  0  0  0  0
   -2.7732   -2.6365    0.0000 C   0  0  0  0  0  0  0  0  0  0  0  0
   -2.7618   -3.4609    0.0000 C   0  0  0  0  0  0  0  0  0  0  0  0
  1  2  1  0  0  0  0
  1  3  1  0  0  0  0
  1  4  1  0  0  0  0
  2  5  2  0  0  0  0
  2  6  1  0  0  0  0
  3  7  2  0  0  0  0
  3  8  1  0  0  0  0
  4  9  1  0  0  0  0
  4 10  2  0  0  0  0
  5 11  1  0  0  0  0
  5 12  1  0  0  0  0
  6 13  1  0  0  0  0
  6 14  2  0  0  0  0
  7 15  1  0  0  0  0
  7 11  1  0  0  0  0
  8 16  1  0  0  0  0
  8 17  2  0  0  0  0
  9 18  2  0  0  0  0
 10 19  1  0  0  0  0
 12 20  1  0  0  0  0
 13 20  1  0  0  0  0
 15 21  1  0  0  0  0
 16 21  1  0  0  0  0
 18 22  1  0  0  0  0
 18 23  1  0  0  0  0
 19 22  2  0  0  0  0
 22 24  1  0  0  0  0
 23 25  1  0  0  0  0
 24 26  1  0  0  0  0
 25 27  1  0  0  0  0
 26 28  1  0  0  0  0
 28 29  3  0  0  0  0
M  END
> <CdId>
298

> <Mol Weight>
391.4596

> <Formula>
C24H25NO4

> <Click_ID>
CLK004_F09 __ __ 

$$$$
