CLK042G06
 OpenBabel03191401532D

 20 21  0  0  0  0  0  0  0  0999 V2000
   -0.4292    0.4958    0.0000 S    0  0  0  0  0  0  0  0  0  0  0  0
    0.2833    0.9083    0.0000 N    0  0  0  0  0  0  0  0  0  0  0  0
   -1.1458    0.0833    0.0000 C    0  0  0  0  0  0  0  0  0  0  0  0
    3.1417    0.9083    0.0000 C    0  0  0  0  0  0  0  0  0  0  0  0
   -0.8417    1.2125    0.0000 O    0  0  0  0  0  0  0  0  0  0  0  0
   -0.0167   -0.2167    0.0000 O    0  0  0  0  0  0  0  0  0  0  0  0
   -1.1458   -0.7417    0.0000 C    0  0  0  0  0  0  0  0  0  0  0  0
    3.8542    1.3208    0.0000 C    0  0  0  0  0  0  0  0  0  0  0  0
   -1.8583   -1.1542    0.0000 C    0  0  0  0  0  0  0  0  0  0  0  0
   -2.5750   -0.7417    0.0000 C    0  0  0  0  0  0  0  0  0  0  0  0
    1.0000    0.4958    0.0000 C    0  0  0  0  0  0  0  0  0  0  0  0
   -1.8583    0.4958    0.0000 C    0  0  0  0  0  0  0  0  0  0  0  0
   -2.5750    0.0833    0.0000 C    0  0  0  0  0  0  0  0  0  0  0  0
    2.4292    0.4958    0.0000 C    0  0  0  0  0  0  0  0  0  0  0  0
    1.7125    0.9083    0.0000 C    0  0  0  0  0  0  0  0  0  0  0  0
   -3.2875   -1.1542    0.0000 Br   0  0  0  0  0  0  0  0  0  0  0  0
    1.7125   -0.7417    0.0000 C    0  0  0  0  0  0  0  0  0  0  0  0
   -1.8583   -1.9792    0.0000 C    0  0  0  0  0  0  0  0  0  0  0  0
    1.0000   -0.3292    0.0000 C    0  0  0  0  0  0  0  0  0  0  0  0
    2.4292   -0.3292    0.0000 C    0  0  0  0  0  0  0  0  0  0  0  0
  2  1  1  0  0  0  0
  3  1  1  0  0  0  0
  4 14  1  0  0  0  0
  5  1  2  0  0  0  0
  6  1  2  0  0  0  0
  7  3  2  0  0  0  0
  8  4  3  0  0  0  0
  9  7  1  0  0  0  0
 10 13  1  0  0  0  0
 10  9  2  0  0  0  0
 11  2  1  0  0  0  0
 12  3  1  0  0  0  0
 13 12  2  0  0  0  0
 14 15  1  0  0  0  0
 15 11  2  0  0  0  0
 16 10  1  0  0  0  0
 17 19  2  0  0  0  0
 18  9  1  0  0  0  0
 19 11  1  0  0  0  0
 20 14  2  0  0  0  0
 20 17  1  0  0  0  0
M  END
> <CdId>
3207

> <Mol Weight>
350.23

> <Formula>
C15H12BrNO2S

> <Click_ID>
CLK042G06 __ __ 

$$$$
