CLK029_B11
 OpenBabel03191401532D

 21 23  0  0  0  0  0  0  0  0999 V2000
   -1.1649    2.3882    0.0000 C    0  0  0  0  0  0  0  0  0  0  0  0
   -0.3382    2.3799    0.0000 N    0  0  0  0  0  0  0  0  0  0  0  0
   -1.6492    1.7244    0.0000 N    0  0  0  0  0  0  0  0  0  0  0  0
   -1.6492    3.0563    0.0000 S    0  0  0  0  0  0  0  0  0  0  0  0
   -2.4383    2.8016    0.0000 C    0  0  0  0  0  0  0  0  0  0  0  0
   -2.4383    1.9749    0.0000 C    0  0  0  0  0  0  0  0  0  0  0  0
    0.0752    3.0939    0.0000 C    0  0  0  0  0  0  0  0  0  0  0  0
    0.9019    3.0939    0.0000 C    0  0  0  0  0  0  0  0  0  0  0  0
   -3.1523    3.2149    0.0000 C    0  0  0  0  0  0  0  0  0  0  0  0
   -1.9498    0.3215    0.0000 C    0  0  0  0  0  0  0  0  0  0  0  0
   -2.5010   -0.2923    0.0000 C    0  0  0  0  0  0  0  0  0  0  0  0
   -3.1523    1.5615    0.0000 C    0  0  0  0  0  0  0  0  0  0  0  0
    1.3821    2.4258    0.0000 O    0  0  0  0  0  0  0  0  0  0  0  0
   -0.3382    3.8079    0.0000 O    0  0  0  0  0  0  0  0  0  0  0  0
    1.3946    3.7786    0.0000 C    0  0  0  0  0  0  0  0  0  0  0  0
    2.1837    2.6805    0.0000 C    0  0  0  0  0  0  0  0  0  0  0  0
   -1.3987    0.9352    0.0000 C    0  0  0  0  0  0  0  0  0  0  0  0
    2.1795    3.5030    0.0000 C    0  0  0  0  0  0  0  0  0  0  0  0
   -3.8663    2.8016    0.0000 C    0  0  0  0  0  0  0  0  0  0  0  0
   -3.8663    1.9749    0.0000 C    0  0  0  0  0  0  0  0  0  0  0  0
   -4.5928    3.2192    0.0000 Cl   0  0  0  0  0  0  0  0  0  0  0  0
  2  1  2  0  0  0  0
  3  1  1  0  0  0  0
  4  1  1  0  0  0  0
  5  4  1  0  0  0  0
  5  6  2  0  0  0  0
  6  3  1  0  0  0  0
  7  2  1  0  0  0  0
  8  7  1  0  0  0  0
  9  5  1  0  0  0  0
 10 17  1  0  0  0  0
 11 10  3  0  0  0  0
 12  6  1  0  0  0  0
 13  8  1  0  0  0  0
 14  7  2  0  0  0  0
 15  8  2  0  0  0  0
 16 13  1  0  0  0  0
 16 18  2  0  0  0  0
 17  3  1  0  0  0  0
 18 15  1  0  0  0  0
 19  9  2  0  0  0  0
 19 20  1  0  0  0  0
 20 12  2  0  0  0  0
 21 19  1  0  0  0  0
M  END
> <CdId>
2185

> <Mol Weight>
316.762

> <Formula>
C15H9ClN2O2S

> <Click_ID>
CLK029_B11 __ __ 

$$$$
