CLK024_C02
 OpenBabel03191401532D

 29 30  0  0  0  0  0  0  0  0999 V2000
    1.4336   -1.6439    0.0000 C    0  0  0  0  0  0  0  0  0  0  0  0
    2.1470   -3.7151    0.0000 C    0  0  0  0  0  0  0  0  0  0  0  0
   -1.4543    2.4848    0.0000 C    0  0  0  0  0  0  0  0  0  0  0  0
    2.1470   -4.5387    0.0000 C    0  0  0  0  0  0  0  0  0  0  0  0
   -0.7306   -1.2441    0.0000 N    0  0  0  0  0  0  0  0  0  0  0  0
    0.7168   -1.2303    0.0000 C    0  0  0  0  0  0  0  0  0  0  0  0
   -1.4543    3.3049    0.0000 C    0  0  0  0  0  0  0  0  0  0  0  0
   -2.1608   -1.2510    0.0000 C    0  0  0  0  0  0  0  0  0  0  0  0
   -0.7409    2.0643    0.0000 C    0  0  0  0  0  0  0  0  0  0  0  0
   -1.4406   -1.6542    0.0000 N    0  0  0  0  0  0  0  0  0  0  0  0
    2.1470   -1.2303    0.0000 C    0  0  0  0  0  0  0  0  0  0  0  0
   -0.0035   -1.6542    0.0000 C    0  0  0  0  0  0  0  0  0  0  0  0
   -2.8707   -1.6645    0.0000 O    0  0  0  0  0  0  0  0  0  0  0  0
   -0.0275    2.4848    0.0000 C    0  0  0  0  0  0  0  0  0  0  0  0
   -0.7409    3.7151    0.0000 C    0  0  0  0  0  0  0  0  0  0  0  0
   -2.1815    2.0574    0.0000 Cl   0  0  0  0  0  0  0  0  0  0  0  0
    1.4336   -2.4675    0.0000 O    0  0  0  0  0  0  0  0  0  0  0  0
   -0.0275    3.3049    0.0000 C    0  0  0  0  0  0  0  0  0  0  0  0
   -0.7547    4.5387    0.0000 Cl   0  0  0  0  0  0  0  0  0  0  0  0
   -0.7409    1.2338    0.0000 O    0  0  0  0  0  0  0  0  0  0  0  0
    2.8673   -1.6542    0.0000 O    0  0  0  0  0  0  0  0  0  0  0  0
    2.1470   -2.8810    0.0000 C    0  0  0  0  0  0  0  0  0  0  0  0
    0.7168   -0.4032    0.0000 C    0  0  0  0  0  0  0  0  0  0  0  0
    1.4336    0.0069    0.0000 C    0  0  0  0  0  0  0  0  0  0  0  0
   -2.1677   -0.4170    0.0000 C    0  0  0  0  0  0  0  0  0  0  0  0
    2.1470   -0.4032    0.0000 C    0  0  0  0  0  0  0  0  0  0  0  0
   -1.4543    0.8202    0.0000 C    0  0  0  0  0  0  0  0  0  0  0  0
    2.8604   -2.4813    0.0000 C    0  0  0  0  0  0  0  0  0  0  0  0
   -1.4543   -0.0035    0.0000 C    0  0  0  0  0  0  0  0  0  0  0  0
  2 22  1  0  0  0  0
  3  9  1  0  0  0  0
  4  2  3  0  0  0  0
  5 12  2  0  0  0  0
  6  1  2  0  0  0  0
  7  3  2  0  0  0  0
  8 10  1  0  0  0  0
  9 20  1  0  0  0  0
 10  5  1  0  0  0  0
 11  1  1  0  0  0  0
 12  6  1  0  0  0  0
 13  8  2  0  0  0  0
 14  9  2  0  0  0  0
 15 18  2  0  0  0  0
 15  7  1  0  0  0  0
 16  3  1  0  0  0  0
 17  1  1  0  0  0  0
 18 14  1  0  0  0  0
 19 15  1  0  0  0  0
 20 27  1  0  0  0  0
 21 11  1  0  0  0  0
 22 17  1  0  0  0  0
 23  6  1  0  0  0  0
 24 26  1  0  0  0  0
 24 23  2  0  0  0  0
 25  8  1  0  0  0  0
 26 11  2  0  0  0  0
 27 29  1  0  0  0  0
 28 21  1  0  0  0  0
 29 25  1  0  0  0  0
M  END
> <CdId>
1797

> <Mol Weight>
435.3

> <Formula>
C21H20Cl2N2O4

> <Click_ID>
CLK024_C02 __ __ 

$$$$
