CLK048A09
 OpenBabel03191401532D

 20 21  0  0  0  0  0  0  0  0999 V2000
   -0.4702    0.0666    0.0000 N   0  0  0  0  0  0  0  0  0  0  0  0
   -1.2568   -0.1873    0.0000 C   0  0  0  0  0  0  0  0  0  0  0  0
   -1.7396    0.4786    0.0000 S   0  0  0  0  0  0  0  0  0  0  0  0
   -0.4702    0.8906    0.0000 C   0  0  0  0  0  0  0  0  0  0  0  0
   -1.2568    1.1444    0.0000 C   0  0  0  0  0  0  0  0  0  0  0  0
    3.7871    1.3401    0.0000 C   0  0  0  0  0  0  0  0  0  0  0  0
    4.5402    1.0030    0.0000 C   0  0  0  0  0  0  0  0  0  0  0  0
    1.6147    1.5231    0.0000 C   0  0  0  0  0  0  0  0  0  0  0  0
    0.1956    1.3775    0.0000 C   0  0  0  0  0  0  0  0  0  0  0  0
    0.9488    1.0404    0.0000 C   0  0  0  0  0  0  0  0  0  0  0  0
   -1.5106   -0.9696    0.0000 C   0  0  0  0  0  0  0  0  0  0  0  0
    1.5273    2.3429    0.0000 O   0  0  0  0  0  0  0  0  0  0  0  0
   -2.3139   -1.1403    0.0000 C   0  0  0  0  0  0  0  0  0  0  0  0
   -0.9571   -1.5814    0.0000 C   0  0  0  0  0  0  0  0  0  0  0  0
    2.3679    1.1902    0.0000 N   0  0  0  0  0  0  0  0  0  0  0  0
   -2.0183   -2.5386    0.0000 C   0  0  0  0  0  0  0  0  0  0  0  0
   -1.2110   -2.3679    0.0000 C   0  0  0  0  0  0  0  0  0  0  0  0
   -2.5718   -1.9268    0.0000 C   0  0  0  0  0  0  0  0  0  0  0  0
   -2.2722   -3.3209    0.0000 F   0  0  0  0  0  0  0  0  0  0  0  0
    3.0338    1.6730    0.0000 C   0  0  0  0  0  0  0  0  0  0  0  0
  2  1  2  0  0  0  0
  3  2  1  0  0  0  0
  3  5  1  0  0  0  0
  4  1  1  0  0  0  0
  5  4  2  0  0  0  0
  6 20  1  0  0  0  0
  7  6  3  0  0  0  0
  8 10  1  0  0  0  0
  9  4  1  0  0  0  0
 10  9  2  0  0  0  0
 11  2  1  0  0  0  0
 12  8  2  0  0  0  0
 13 11  2  0  0  0  0
 14 11  1  0  0  0  0
 15  8  1  0  0  0  0
 16 18  2  0  0  0  0
 17 14  2  0  0  0  0
 17 16  1  0  0  0  0
 18 13  1  0  0  0  0
 19 16  1  0  0  0  0
 20 15  1  0  0  0  0
M  END
> <CdId>
3705

> <Mol Weight>
286.324

> <Formula>
C15H11FN2OS

> <Click_ID>
CLK048A09 __ __ 

$$$$
