CLK026_G05
 OpenBabel03191401532D

 26 28  0  0  0  0  0  0  0  0999 V2000
   -3.0318    0.1994    0.0000 N    0  0  0  0  0  0  0  0  0  0  0  0
   -2.7740   -0.5878    0.0000 C    0  0  0  0  0  0  0  0  0  0  0  0
    0.9281   -0.6359    0.0000 N    0  0  0  0  0  0  0  0  0  0  0  0
   -1.6947    0.1994    0.0000 C    0  0  0  0  0  0  0  0  0  0  0  0
   -2.3615    0.6875    0.0000 C    0  0  0  0  0  0  0  0  0  0  0  0
   -0.2956   -0.0963    0.0000 C    0  0  0  0  0  0  0  0  0  0  0  0
   -1.9490   -0.5878    0.0000 S    0  0  0  0  0  0  0  0  0  0  0  0
    0.3678   -1.2513    0.0000 C    0  0  0  0  0  0  0  0  0  0  0  0
    0.5156    0.0757    0.0000 C    0  0  0  0  0  0  0  0  0  0  0  0
   -0.9075    0.4537    0.0000 C    0  0  0  0  0  0  0  0  0  0  0  0
   -0.3747   -0.9109    0.0000 C    0  0  0  0  0  0  0  0  0  0  0  0
    1.7496   -0.7322    0.0000 C    0  0  0  0  0  0  0  0  0  0  0  0
    2.2412   -0.0757    0.0000 C    0  0  0  0  0  0  0  0  0  0  0  0
    3.0593   -0.1718    0.0000 C    0  0  0  0  0  0  0  0  0  0  0  0
   -3.9840    1.2616    0.0000 C    0  0  0  0  0  0  0  0  0  0  0  0
   -4.2040    2.0625    0.0000 C    0  0  0  0  0  0  0  0  0  0  0  0
   -3.2587   -1.2513    0.0000 O    0  0  0  0  0  0  0  0  0  0  0  0
   -2.3684    1.5124    0.0000 O    0  0  0  0  0  0  0  0  0  0  0  0
   -3.8087    0.4537    0.0000 C    0  0  0  0  0  0  0  0  0  0  0  0
    3.3859   -0.9384    0.0000 C    0  0  0  0  0  0  0  0  0  0  0  0
    2.0728   -1.4988    0.0000 C    0  0  0  0  0  0  0  0  0  0  0  0
    2.8909   -1.5949    0.0000 C    0  0  0  0  0  0  0  0  0  0  0  0
    3.5509    0.4881    0.0000 Cl   0  0  0  0  0  0  0  0  0  0  0  0
    0.5362   -2.0590    0.0000 C    0  0  0  0  0  0  0  0  0  0  0  0
    4.2006   -1.0244    0.0000 Cl   0  0  0  0  0  0  0  0  0  0  0  0
    0.8525    0.8285    0.0000 C    0  0  0  0  0  0  0  0  0  0  0  0
  2  1  1  0  0  0  0
  3  9  1  0  0  0  0
  4  5  1  0  0  0  0
  5  1  1  0  0  0  0
  6 10  1  0  0  0  0
  7  2  1  0  0  0  0
  7  4  1  0  0  0  0
  8 11  2  0  0  0  0
  8  3  1  0  0  0  0
  9  6  2  0  0  0  0
 10  4  2  0  0  0  0
 11  6  1  0  0  0  0
 12  3  1  0  0  0  0
 13 12  1  0  0  0  0
 14 13  2  0  0  0  0
 14 20  1  0  0  0  0
 15 19  1  0  0  0  0
 16 15  3  0  0  0  0
 17  2  2  0  0  0  0
 18  5  2  0  0  0  0
 19  1  1  0  0  0  0
 20 22  2  0  0  0  0
 21 12  2  0  0  0  0
 22 21  1  0  0  0  0
 23 14  1  0  0  0  0
 24  8  1  0  0  0  0
 25 20  1  0  0  0  0
 26  9  1  0  0  0  0
M  END
> <CdId>
2000

> <Mol Weight>
405.298

> <Formula>
C19H14Cl2N2O2S

> <Click_ID>
CLK026_G05 __ __ 

$$$$
