CLK039G09
 OpenBabel03191401532D

 24 25  0  0  0  0  0  0  0  0999 V2000
    1.6333    1.8750    0.0000 S   0  0  0  0  0  0  0  0  0  0  0  0
   -1.2208    0.2250    0.0000 C   0  0  0  0  0  0  0  0  0  0  0  0
    0.9208    1.4625    0.0000 C   0  0  0  0  0  0  0  0  0  0  0  0
    3.7792    2.2875    0.0000 C   0  0  0  0  0  0  0  0  0  0  0  0
    4.4917    2.7000    0.0000 C   0  0  0  0  0  0  0  0  0  0  0  0
   -1.2208   -0.6000    0.0000 N   0  0  0  0  0  0  0  0  0  0  0  0
    1.2208    2.5917    0.0000 O   0  0  0  0  0  0  0  0  0  0  0  0
    2.0458    1.1625    0.0000 O   0  0  0  0  0  0  0  0  0  0  0  0
   -0.5083    0.6375    0.0000 C   0  0  0  0  0  0  0  0  0  0  0  0
    2.3500    2.2875    0.0000 N   0  0  0  0  0  0  0  0  0  0  0  0
   -1.9375    0.6375    0.0000 O   0  0  0  0  0  0  0  0  0  0  0  0
    0.9208    0.6375    0.0000 C   0  0  0  0  0  0  0  0  0  0  0  0
    0.2083    1.8750    0.0000 C   0  0  0  0  0  0  0  0  0  0  0  0
    0.2083    0.2250    0.0000 C   0  0  0  0  0  0  0  0  0  0  0  0
   -0.5083    1.4625    0.0000 C   0  0  0  0  0  0  0  0  0  0  0  0
   -1.9375   -1.0125    0.0000 C   0  0  0  0  0  0  0  0  0  0  0  0
   -1.9375   -3.4875    0.0000 C   0  0  0  0  0  0  0  0  0  0  0  0
   -1.9375   -1.8375    0.0000 C   0  0  0  0  0  0  0  0  0  0  0  0
    3.0625    1.8750    0.0000 C   0  0  0  0  0  0  0  0  0  0  0  0
   -1.9375   -4.3125    0.0000 F   0  0  0  0  0  0  0  0  0  0  0  0
   -1.2208   -3.0750    0.0000 C   0  0  0  0  0  0  0  0  0  0  0  0
   -2.6500   -3.0750    0.0000 C   0  0  0  0  0  0  0  0  0  0  0  0
   -2.6500   -2.2500    0.0000 C   0  0  0  0  0  0  0  0  0  0  0  0
   -1.2208   -2.2500    0.0000 C   0  0  0  0  0  0  0  0  0  0  0  0
  2  9  1  0  0  0  0
  3  1  1  0  0  0  0
  4 19  1  0  0  0  0
  5  4  3  0  0  0  0
  6  2  1  0  0  0  0
  7  1  2  0  0  0  0
  8  1  2  0  0  0  0
  9 15  2  0  0  0  0
 10  1  1  0  0  0  0
 11  2  2  0  0  0  0
 12  3  1  0  0  0  0
 13  3  2  0  0  0  0
 14 12  2  0  0  0  0
 14  9  1  0  0  0  0
 15 13  1  0  0  0  0
 16  6  1  0  0  0  0
 17 22  2  0  0  0  0
 18 16  1  0  0  0  0
 19 10  1  0  0  0  0
 20 17  1  0  0  0  0
 21 24  2  0  0  0  0
 21 17  1  0  0  0  0
 22 23  1  0  0  0  0
 23 18  2  0  0  0  0
 24 18  1  0  0  0  0
M  END
> <CdId>
2991

> <Mol Weight>
346.376

> <Formula>
C17H15FN2O3S

> <Click_ID>
CLK039G09 __ __ 

$$$$
