CLK046D02
 OpenBabel03191401532D

 19 20  0  0  0  0  0  0  0  0999 V2000
   -0.1333   -1.5754    0.0000 S   0  0  0  0  0  0  0  0  0  0  0  0
    0.3501   -0.9044    0.0000 C   0  0  0  0  0  0  0  0  0  0  0  0
    0.3501   -2.2423    0.0000 C   0  0  0  0  0  0  0  0  0  0  0  0
    0.0958   -0.1208    0.0000 C   0  0  0  0  0  0  0  0  0  0  0  0
    1.1336   -1.1628    0.0000 C   0  0  0  0  0  0  0  0  0  0  0  0
    1.1336   -1.9880    0.0000 C   0  0  0  0  0  0  0  0  0  0  0  0
    0.6460    0.4918    0.0000 N   0  0  0  0  0  0  0  0  0  0  0  0
   -1.4754    2.4048    0.0000 C   0  0  0  0  0  0  0  0  0  0  0  0
   -2.2839    2.5757    0.0000 C   0  0  0  0  0  0  0  0  0  0  0  0
    0.0958   -3.0258    0.0000 C   0  0  0  0  0  0  0  0  0  0  0  0
   -0.7127    0.0500    0.0000 O   0  0  0  0  0  0  0  0  0  0  0  0
    0.3918    1.2753    0.0000 C   0  0  0  0  0  0  0  0  0  0  0  0
    0.6460   -3.6384    0.0000 O   0  0  0  0  0  0  0  0  0  0  0  0
   -0.6710    2.2339    0.0000 C   0  0  0  0  0  0  0  0  0  0  0  0
   -0.4168    1.4504    0.0000 C   0  0  0  0  0  0  0  0  0  0  0  0
    0.6877    2.6757    0.0000 C   0  0  0  0  0  0  0  0  0  0  0  0
    0.9460    1.8922    0.0000 C   0  0  0  0  0  0  0  0  0  0  0  0
   -0.7127   -3.1966    0.0000 C   0  0  0  0  0  0  0  0  0  0  0  0
   -0.1167    2.8465    0.0000 C   0  0  0  0  0  0  0  0  0  0  0  0
  2  1  1  0  0  0  0
  3  1  1  0  0  0  0
  4  2  1  0  0  0  0
  5  2  2  0  0  0  0
  5  6  1  0  0  0  0
  6  3  2  0  0  0  0
  7  4  1  0  0  0  0
  8 14  1  0  0  0  0
  9  8  3  0  0  0  0
 10  3  1  0  0  0  0
 11  4  2  0  0  0  0
 12  7  1  0  0  0  0
 13 10  2  0  0  0  0
 14 15  1  0  0  0  0
 15 12  2  0  0  0  0
 16 17  2  0  0  0  0
 17 12  1  0  0  0  0
 18 10  1  0  0  0  0
 19 14  2  0  0  0  0
 19 16  1  0  0  0  0
M  END
> <CdId>
3492

> <Mol Weight>
269.318

> <Formula>
C15H11NO2S

> <Click_ID>
CLK046D02 __ __ 

$$$$
