CLK017_H09
 OpenBabel03191401532D

 27 29  0  0  0  0  0  0  0  0999 V2000
    4.8927   -2.7062    0.0000 N   0  0  0  0  0  0  0  0  0  0  0  0
    4.8886   -3.5210    0.0000 C   0  0  0  0  0  0  0  0  0  0  0  0
    4.1071   -2.4443    0.0000 C   0  0  0  0  0  0  0  0  0  0  0  0
    3.6083   -3.1094    0.0000 C   0  0  0  0  0  0  0  0  0  0  0  0
    4.0946   -3.7787    0.0000 S   0  0  0  0  0  0  0  0  0  0  0  0
    2.7852   -3.1052    0.0000 C   0  0  0  0  0  0  0  0  0  0  0  0
    1.1141   -7.4201    0.0000 C   0  0  0  0  0  0  0  0  0  0  0  0
    0.7026   -8.1352    0.0000 C   0  0  0  0  0  0  0  0  0  0  0  0
    5.5537   -4.0198    0.0000 O   0  0  0  0  0  0  0  0  0  0  0  0
    3.8535   -1.6503    0.0000 O   0  0  0  0  0  0  0  0  0  0  0  0
    5.5620   -2.2115    0.0000 C   0  0  0  0  0  0  0  0  0  0  0  0
    2.3695   -3.8285    0.0000 C   0  0  0  0  0  0  0  0  0  0  0  0
    1.5256   -5.2669    0.0000 C   0  0  0  0  0  0  0  0  0  0  0  0
    2.7727   -4.5436    0.0000 C   0  0  0  0  0  0  0  0  0  0  0  0
    1.5339   -3.8203    0.0000 C   0  0  0  0  0  0  0  0  0  0  0  0
    2.3612   -5.2544    0.0000 C   0  0  0  0  0  0  0  0  0  0  0  0
    1.1141   -4.5311    0.0000 C   0  0  0  0  0  0  0  0  0  0  0  0
    1.5256   -6.7010    0.0000 C   0  0  0  0  0  0  0  0  0  0  0  0
    1.1141   -5.9860    0.0000 O   0  0  0  0  0  0  0  0  0  0  0  0
    6.3144   -2.5565    0.0000 C   0  0  0  0  0  0  0  0  0  0  0  0
    7.7361   -2.4111    0.0000 C   0  0  0  0  0  0  0  0  0  0  0  0
    6.9837   -2.0743    0.0000 C   0  0  0  0  0  0  0  0  0  0  0  0
    8.3970   -1.9247    0.0000 C   0  0  0  0  0  0  0  0  0  0  0  0
    7.8109   -3.2299    0.0000 C   0  0  0  0  0  0  0  0  0  0  0  0
    9.1453   -2.2739    0.0000 C   0  0  0  0  0  0  0  0  0  0  0  0
    8.5592   -3.5667    0.0000 C   0  0  0  0  0  0  0  0  0  0  0  0
    9.2326   -3.0928    0.0000 C   0  0  0  0  0  0  0  0  0  0  0  0
  2  1  1  0  0  0  0
  3  1  1  0  0  0  0
  4  3  1  0  0  0  0
  5  2  1  0  0  0  0
  5  4  1  0  0  0  0
  6  4  2  0  0  0  0
  7 18  1  0  0  0  0
  8  7  3  0  0  0  0
  9  2  2  0  0  0  0
 10  3  2  0  0  0  0
 11  1  1  0  0  0  0
 12  6  1  0  0  0  0
 13 17  2  0  0  0  0
 14 12  1  0  0  0  0
 15 12  2  0  0  0  0
 16 14  2  0  0  0  0
 16 13  1  0  0  0  0
 17 15  1  0  0  0  0
 18 19  1  0  0  0  0
 19 13  1  0  0  0  0
 20 11  1  0  0  0  0
 21 22  1  0  0  0  0
 22 20  1  0  0  0  0
 23 21  1  0  0  0  0
 24 21  2  0  0  0  0
 25 23  2  0  0  0  0
 25 27  1  0  0  0  0
 26 24  1  0  0  0  0
 27 26  2  0  0  0  0
M  END
> <CdId>
1314

> <Mol Weight>
377.456

> <Formula>
C22H19NO3S

> <Click_ID>
CLK017_H09 __ __ 

$$$$
