CLK016_H03
 OpenBabel03191401532D

 21 22  0  0  0  0  0  0  0  0999 V2000
    1.5677   -0.8172    0.0000 N   0  0  0  0  0  0  0  0  0  0  0  0
    1.8262   -1.6052    0.0000 C   0  0  0  0  0  0  0  0  0  0  0  0
    2.9061   -0.8172    0.0000 C   0  0  0  0  0  0  0  0  0  0  0  0
    2.2389   -0.3294    0.0000 C   0  0  0  0  0  0  0  0  0  0  0  0
    2.6517   -1.6052    0.0000 S   0  0  0  0  0  0  0  0  0  0  0  0
    5.5953    1.5718    0.0000 N   0  3  0  0  0  0  0  0  0  0  0  0
    4.8073    1.3091    0.0000 C   0  0  0  0  0  0  0  0  0  0  0  0
    3.6941   -0.5629    0.0000 C   0  0  0  0  0  0  0  0  0  0  0  0
    4.6447    0.5003    0.0000 C   0  0  0  0  0  0  0  0  0  0  0  0
    3.8567    0.2460    0.0000 C   0  0  0  0  0  0  0  0  0  0  0  0
    0.6129    0.2460    0.0000 C   0  0  0  0  0  0  0  0  0  0  0  0
    0.3920    1.0465    0.0000 C   0  0  0  0  0  0  0  0  0  0  0  0
    6.2082    1.0215    0.0000 O   0  5  0  0  0  0  0  0  0  0  0  0
    1.3384   -2.2681    0.0000 O   0  0  0  0  0  0  0  0  0  0  0  0
    5.7579    2.3723    0.0000 O   0  0  0  0  0  0  0  0  0  0  0  0
    2.2306    0.4961    0.0000 O   0  0  0  0  0  0  0  0  0  0  0  0
    0.7880   -0.5629    0.0000 C   0  0  0  0  0  0  0  0  0  0  0  0
    5.2576   -0.0542    0.0000 O   0  0  0  0  0  0  0  0  0  0  0  0
    4.1944    1.8595    0.0000 C   0  0  0  0  0  0  0  0  0  0  0  0
    3.2438    0.7963    0.0000 C   0  0  0  0  0  0  0  0  0  0  0  0
    3.4147    1.5968    0.0000 C   0  0  0  0  0  0  0  0  0  0  0  0
  2  1  1  0  0  0  0
  3  4  1  0  0  0  0
  3  5  1  0  0  0  0
  4  1  1  0  0  0  0
  5  2  1  0  0  0  0
  6  7  1  0  0  0  0
  7  9  1  0  0  0  0
  7 19  2  0  0  0  0
  8  3  2  0  0  0  0
  9 10  2  0  0  0  0
 10  8  1  0  0  0  0
 11 17  1  0  0  0  0
 12 11  3  0  0  0  0
 13  6  1  0  0  0  0
 14  2  2  0  0  0  0
 15  6  2  0  0  0  0
 16  4  2  0  0  0  0
 17  1  1  0  0  0  0
 18  9  1  0  0  0  0
 19 21  1  0  0  0  0
 20 10  1  0  0  0  0
 21 20  2  0  0  0  0
M  END
> <CdId>
1228

> <Mol Weight>
304.278

> <Formula>
C13H8N2O5S

> <Click_ID>
CLK016_H03 __ __ 

$$$$
