CLK009_F05
 OpenBabel03191401532D

 25 26  0  0  0  0  0  0  0  0999 V2000
   -4.0328    2.2705    0.0000 C    0  0  0  0  0  0  0  0  0  0  0  0
   -4.4684    2.9635    0.0000 N    0  0  0  0  0  0  0  0  0  0  0  0
   -2.0329    2.9635    0.0000 C    0  0  0  0  0  0  0  0  0  0  0  0
   -3.2408    2.2705    0.0000 C    0  0  0  0  0  0  0  0  0  0  0  0
   -2.8249    2.9635    0.0000 N    0  0  0  0  0  0  0  0  0  0  0  0
   -1.5841    2.2705    0.0000 C    0  0  0  0  0  0  0  0  0  0  0  0
   -0.7921    2.2705    0.0000 C    0  0  0  0  0  0  0  0  0  0  0  0
   -0.3498    2.9635    0.0000 C    0  0  0  0  0  0  0  0  0  0  0  0
   -4.4355    1.5378    0.0000 C    0  0  0  0  0  0  0  0  0  0  0  0
    1.7096    3.6632    0.0000 C    0  0  0  0  0  0  0  0  0  0  0  0
    2.5346    3.6632    0.0000 C    0  0  0  0  0  0  0  0  0  0  0  0
   -4.0593    3.6962    0.0000 O    0  0  0  0  0  0  0  0  0  0  0  0
   -5.2605    2.9635    0.0000 O    0  0  0  0  0  0  0  0  0  0  0  0
   -1.6171    3.6962    0.0000 O    0  0  0  0  0  0  0  0  0  0  0  0
   -0.7656    3.6962    0.0000 O    0  0  0  0  0  0  0  0  0  0  0  0
   -2.8249    1.5378    0.0000 C    0  0  0  0  0  0  0  0  0  0  0  0
   -4.0328    0.8448    0.0000 C    0  0  0  0  0  0  0  0  0  0  0  0
    0.4752    2.9635    0.0000 O    0  0  0  0  0  0  0  0  0  0  0  0
   -3.2012    0.8448    0.0000 C    0  0  0  0  0  0  0  0  0  0  0  0
   -4.4355    0.1122    0.0000 Cl   0  0  0  0  0  0  0  0  0  0  0  0
    0.8779    3.6632    0.0000 C    0  0  0  0  0  0  0  0  0  0  0  0
   -1.9999    1.5378    0.0000 C    0  0  0  0  0  0  0  0  0  0  0  0
   -0.3894    1.5378    0.0000 C    0  0  0  0  0  0  0  0  0  0  0  0
   -1.6171    0.8448    0.0000 C    0  0  0  0  0  0  0  0  0  0  0  0
   -0.7921    0.8448    0.0000 C    0  0  0  0  0  0  0  0  0  0  0  0
  2  1  1  0  0  0  0
  3  5  1  0  0  0  0
  4  1  1  0  0  0  0
  5  4  1  0  0  0  0
  6  3  1  0  0  0  0
  7  6  1  0  0  0  0
  8  7  1  0  0  0  0
  9  1  2  0  0  0  0
 10 21  1  0  0  0  0
 11 10  3  0  0  0  0
 12  2  1  0  0  0  0
 13  2  2  0  0  0  0
 14  3  2  0  0  0  0
 15  8  2  0  0  0  0
 16  4  2  0  0  0  0
 17  9  1  0  0  0  0
 18  8  1  0  0  0  0
 19 17  2  0  0  0  0
 19 16  1  0  0  0  0
 20 17  1  0  0  0  0
 21 18  1  0  0  0  0
 22  6  2  0  0  0  0
 23  7  2  0  0  0  0
 24 22  1  0  0  0  0
 25 24  2  0  0  0  0
 25 23  1  0  0  0  0
M  END
> <CdId>
650

> <Mol Weight>
358.733

> <Formula>
C17H11ClN2O5

> <Click_ID>
CLK009_F05 __ __ 

$$$$
