CLK015_G09
 OpenBabel03191401532D

 14 14  0  0  0  0  0  0  0  0999 V2000
    3.0246   -1.4207    0.0000 C    0  0  0  0  0  0  0  0  0  0  0  0
    3.0704    1.4389    0.0000 C    0  0  0  0  0  0  0  0  0  0  0  0
    2.6671    2.1538    0.0000 C    0  0  0  0  0  0  0  0  0  0  0  0
    2.6168   -0.7012    0.0000 C    0  0  0  0  0  0  0  0  0  0  0  0
    2.6030   -2.1310    0.0000 C    0  0  0  0  0  0  0  0  0  0  0  0
    4.2528   -2.1493    0.0000 N    0  0  0  0  0  0  0  0  0  0  0  0
    3.8495   -1.4344    0.0000 C    0  0  0  0  0  0  0  0  0  0  0  0
    1.8010   -0.6874    0.0000 C    0  0  0  0  0  0  0  0  0  0  0  0
    1.7781   -2.1172    0.0000 C    0  0  0  0  0  0  0  0  0  0  0  0
    5.0639   -2.1906    0.0000 O    0  0  0  0  0  0  0  0  0  0  0  0
    1.3794   -1.3932    0.0000 C    0  0  0  0  0  0  0  0  0  0  0  0
    1.3519   -2.8230    0.0000 Cl   0  0  0  0  0  0  0  0  0  0  0  0
    3.0429    0.0091    0.0000 O    0  0  0  0  0  0  0  0  0  0  0  0
    2.6443    0.7286    0.0000 C    0  0  0  0  0  0  0  0  0  0  0  0
  2 14  1  0  0  0  0
  3  2  3  0  0  0  0
  4  1  1  0  0  0  0
  5  1  2  0  0  0  0
  6  7  2  0  0  0  0
  7  1  1  0  0  0  0
  8  4  2  0  0  0  0
  8 11  1  0  0  0  0
  9  5  1  0  0  0  0
 10  6  1  0  0  0  0
 11  9  2  0  0  0  0
 12  9  1  0  0  0  0
 13  4  1  0  0  0  0
 14 13  1  0  0  0  0
M  END
> <CdId>
1144

> <Mol Weight>
209.629

> <Formula>
C10H8ClNO2

> <Click_ID>
CLK015_G09 __ __ 

$$$$
