CLK038H11
 OpenBabel03191401532D

 23 24  0  0  0  0  0  0  0  0999 V2000
   -1.2125   -1.2708    0.0000 S   0  0  0  0  0  0  0  0  0  0  0  0
    0.9292    0.7917    0.0000 N   0  0  0  0  0  0  0  0  0  0  0  0
    0.2167    1.2042    0.0000 C   0  0  0  0  0  0  0  0  0  0  0  0
    1.6458    1.2042    0.0000 C   0  0  0  0  0  0  0  0  0  0  0  0
   -1.2125   -0.4458    0.0000 C   0  0  0  0  0  0  0  0  0  0  0  0
   -0.5000    0.7917    0.0000 C   0  0  0  0  0  0  0  0  0  0  0  0
   -1.9292   -3.3333    0.0000 C   0  0  0  0  0  0  0  0  0  0  0  0
   -0.5000   -0.0333    0.0000 C   0  0  0  0  0  0  0  0  0  0  0  0
   -1.9292   -4.1583    0.0000 C   0  0  0  0  0  0  0  0  0  0  0  0
   -0.3875   -1.2708    0.0000 O   0  0  0  0  0  0  0  0  0  0  0  0
   -2.0375   -1.2708    0.0000 O   0  0  0  0  0  0  0  0  0  0  0  0
    1.6458    2.0292    0.0000 N   0  0  0  0  0  0  0  0  0  0  0  0
   -1.2125   -2.0958    0.0000 N   0  0  0  0  0  0  0  0  0  0  0  0
    0.2167    2.0292    0.0000 O   0  0  0  0  0  0  0  0  0  0  0  0
    2.3583    0.7917    0.0000 C   0  0  0  0  0  0  0  0  0  0  0  0
   -1.9292   -2.5083    0.0000 C   0  0  0  0  0  0  0  0  0  0  0  0
   -1.9292   -0.0333    0.0000 C   0  0  0  0  0  0  0  0  0  0  0  0
   -1.2125    1.2042    0.0000 C   0  0  0  0  0  0  0  0  0  0  0  0
   -1.9292    0.7917    0.0000 C   0  0  0  0  0  0  0  0  0  0  0  0
    2.3583    2.4417    0.0000 C   0  0  0  0  0  0  0  0  0  0  0  0
    2.3583   -0.0333    0.0000 C   0  0  0  0  0  0  0  0  0  0  0  0
    3.0750    1.2042    0.0000 C   0  0  0  0  0  0  0  0  0  0  0  0
    3.0750    2.0292    0.0000 C   0  0  0  0  0  0  0  0  0  0  0  0
  2  3  1  0  0  0  0
  3  6  1  0  0  0  0
  4  2  1  0  0  0  0
  5  1  1  0  0  0  0
  6  8  2  0  0  0  0
  7 16  1  0  0  0  0
  8  5  1  0  0  0  0
  9  7  3  0  0  0  0
 10  1  2  0  0  0  0
 11  1  2  0  0  0  0
 12  4  1  0  0  0  0
 13  1  1  0  0  0  0
 14  3  2  0  0  0  0
 15  4  2  0  0  0  0
 16 13  1  0  0  0  0
 17  5  2  0  0  0  0
 18  6  1  0  0  0  0
 19 17  1  0  0  0  0
 19 18  2  0  0  0  0
 20 12  2  0  0  0  0
 20 23  1  0  0  0  0
 21 15  1  0  0  0  0
 22 15  1  0  0  0  0
 23 22  2  0  0  0  0
M  END
> <CdId>
2928

> <Mol Weight>
329.374

> <Formula>
C16H15N3O3S

> <Click_ID>
CLK038H11 __ __ 

$$$$
