CLK036_F06
 OpenBabel03191401532D

 20 21  0  0  0  0  0  0  0  0999 V2000
   -0.6392    2.3571    0.0000 C   0  0  0  0  0  0  0  0  0  0  0  0
   -0.0321    2.7178    0.0000 S   0  0  0  0  0  0  0  0  0  0  0  0
   -0.6392    1.6500    0.0000 N   0  0  0  0  0  0  0  0  0  0  0  0
    0.5822    2.3571    0.0000 C   0  0  0  0  0  0  0  0  0  0  0  0
    0.5822    1.6500    0.0000 N   0  0  0  0  0  0  0  0  0  0  0  0
   -1.4893    2.5463    0.0000 N   0  0  0  0  0  0  0  0  0  0  0  0
   -2.1964    2.5571    0.0000 C   0  0  0  0  0  0  0  0  0  0  0  0
    1.7393    1.2535    0.0000 C   0  0  0  0  0  0  0  0  0  0  0  0
    1.6000    0.4464    0.0000 C   0  0  0  0  0  0  0  0  0  0  0  0
   -3.0713    2.5463    0.0000 N   0  0  0  0  0  0  0  0  0  0  0  0
   -2.2035    3.2571    0.0000 O   0  0  0  0  0  0  0  0  0  0  0  0
    1.2643    2.5999    0.0000 S   0  0  0  0  0  0  0  0  0  0  0  0
   -3.4892    3.2642    0.0000 C   0  0  0  0  0  0  0  0  0  0  0  0
   -4.3249    4.6857    0.0000 C   0  0  0  0  0  0  0  0  0  0  0  0
   -4.7427    5.4035    0.0000 F   0  0  0  0  0  0  0  0  0  0  0  0
    1.8893    2.0678    0.0000 C   0  0  0  0  0  0  0  0  0  0  0  0
   -4.3142    3.2571    0.0000 C   0  0  0  0  0  0  0  0  0  0  0  0
   -3.0749    3.9785    0.0000 C   0  0  0  0  0  0  0  0  0  0  0  0
   -3.4999    4.6857    0.0000 C   0  0  0  0  0  0  0  0  0  0  0  0
   -4.7320    3.9678    0.0000 C   0  0  0  0  0  0  0  0  0  0  0  0
  2  1  1  0  0  0  0
  3  1  2  0  0  0  0
  4  2  1  0  0  0  0
  5  3  1  0  0  0  0
  5  4  2  0  0  0  0
  6  1  1  0  0  0  0
  7  6  1  0  0  0  0
  8 16  1  0  0  0  0
  9  8  3  0  0  0  0
 10  7  1  0  0  0  0
 11  7  2  0  0  0  0
 12  4  1  0  0  0  0
 13 10  1  0  0  0  0
 14 19  1  0  0  0  0
 14 20  2  0  0  0  0
 15 14  1  0  0  0  0
 16 12  1  0  0  0  0
 17 13  2  0  0  0  0
 18 13  1  0  0  0  0
 19 18  2  0  0  0  0
 20 17  1  0  0  0  0
M  END
> <CdId>
2758

> <Mol Weight>
308.354

> <Formula>
C12H9FN4OS2

> <Click_ID>
CLK036_F06 __ __ 

$$$$
