CLK037B05
 OpenBabel03191401532D

 21 22  0  0  0  0  0  0  0  0999 V2000
    1.6292   -4.4750    0.0000 C   0  0  0  0  0  0  0  0  0  0  0  0
    1.6292   -5.3000    0.0000 C   0  0  0  0  0  0  0  0  0  0  0  0
   -0.5125    1.7125    0.0000 C   0  0  0  0  0  0  0  0  0  0  0  0
   -0.5125    2.5375    0.0000 C   0  0  0  0  0  0  0  0  0  0  0  0
   -1.2250    1.3000    0.0000 C   0  0  0  0  0  0  0  0  0  0  0  0
    0.2000    1.3000    0.0000 C   0  0  0  0  0  0  0  0  0  0  0  0
   -0.5125   -0.7625    0.0000 O   0  0  0  0  0  0  0  0  0  0  0  0
   -0.5125    0.0625    0.0000 C   0  0  0  0  0  0  0  0  0  0  0  0
    0.2000   -2.0000    0.0000 C   0  0  3  0  0  0  0  0  0  0  0  0
    0.2000   -1.1750    0.0000 C   0  0  0  0  0  0  0  0  0  0  0  0
    0.9167   -3.2375    0.0000 N   0  0  0  0  0  0  0  0  0  0  0  0
   -1.2250    0.4750    0.0000 C   0  0  0  0  0  0  0  0  0  0  0  0
    0.2000    0.4750    0.0000 C   0  0  0  0  0  0  0  0  0  0  0  0
    1.6292   -3.6500    0.0000 C   0  0  0  0  0  0  0  0  0  0  0  0
   -0.5125   -2.4125    0.0000 O   0  0  0  0  0  0  0  0  0  0  0  0
    0.9167   -2.4125    0.0000 C   0  0  0  0  0  0  0  0  0  0  0  0
    0.2000    2.9500    0.0000 C   0  0  0  0  0  0  0  0  0  0  0  0
   -1.2250    2.9500    0.0000 C   0  0  0  0  0  0  0  0  0  0  0  0
   -1.2250    3.7750    0.0000 C   0  0  0  0  0  0  0  0  0  0  0  0
    0.2000    3.7750    0.0000 C   0  0  0  0  0  0  0  0  0  0  0  0
   -0.5125    4.1833    0.0000 C   0  0  0  0  0  0  0  0  0  0  0  0
  2  1  3  0  0  0  0
  3  5  2  0  0  0  0
  3  6  1  0  0  0  0
  4  3  1  0  0  0  0
  5 12  1  0  0  0  0
  6 13  2  0  0  0  0
  7 10  1  0  0  0  0
  8  7  1  0  0  0  0
  9 16  1  0  0  0  0
 10  9  1  0  0  0  0
 11 14  1  0  0  0  0
 12  8  2  0  0  0  0
 13  8  1  0  0  0  0
 14  1  1  0  0  0  0
 15  9  1  0  0  0  0
 16 11  1  0  0  0  0
 17  4  1  0  0  0  0
 18  4  2  0  0  0  0
 19 18  1  0  0  0  0
 20 17  2  0  0  0  0
 21 19  2  0  0  0  0
 21 20  1  0  0  0  0
M  END
> <CdId>
2794

> <Mol Weight>
281.349

> <Formula>
C18H19NO2

> <Click_ID>
CLK037B05 __ __ 

$$$$
