CLK050A11
 OpenBabel03191401532D

 21 23  0  0  0  0  0  0  0  0999 V2000
   -0.6825    1.2693    0.0000 N   0  0  0  0  0  0  0  0  0  0  0  0
    0.0999    1.0155    0.0000 C   0  0  3  0  0  0  0  0  0  0  0  0
   -0.6825    2.0934    0.0000 C   0  0  3  0  0  0  0  0  0  0  0  0
    0.3538    0.2289    0.0000 C   0  0  0  0  0  0  0  0  0  0  0  0
   -1.4691    1.0155    0.0000 C   0  0  0  0  0  0  0  0  0  0  0  0
    0.0999    2.3473    0.0000 S   0  0  0  0  0  0  0  0  0  0  0  0
    0.5826    1.6814    0.0000 C   0  0  0  0  0  0  0  0  0  0  0  0
   -0.1956   -0.3829    0.0000 N   0  0  0  0  0  0  0  0  0  0  0  0
    1.9228   -2.2932    0.0000 C   0  0  0  0  0  0  0  0  0  0  0  0
    2.7302   -2.4639    0.0000 C   0  0  0  0  0  0  0  0  0  0  0  0
   -1.4691    2.3473    0.0000 C   0  0  0  0  0  0  0  0  0  0  0  0
    1.1612    0.0582    0.0000 O   0  0  0  0  0  0  0  0  0  0  0  0
   -1.9520    1.6814    0.0000 C   0  0  0  0  0  0  0  0  0  0  0  0
   -1.7230    0.2289    0.0000 O   0  0  0  0  0  0  0  0  0  0  0  0
    0.0582   -1.1654    0.0000 C   0  0  0  0  0  0  0  0  0  0  0  0
    1.1195   -2.1226    0.0000 C   0  0  0  0  0  0  0  0  0  0  0  0
    0.8615   -1.3360    0.0000 C   0  0  0  0  0  0  0  0  0  0  0  0
   -0.6825    2.9175    0.0000 C   0  0  0  0  0  0  0  0  0  0  0  0
   -0.2414   -2.5638    0.0000 C   0  0  0  0  0  0  0  0  0  0  0  0
   -0.4952   -1.7772    0.0000 C   0  0  0  0  0  0  0  0  0  0  0  0
    0.5661   -2.7344    0.0000 C   0  0  0  0  0  0  0  0  0  0  0  0
  2  1  1  0  0  0  0
  3  1  1  0  0  0  0
  4  2  1  0  0  0  0
  5  1  1  0  0  0  0
  6  3  1  0  0  0  0
  6  7  1  0  0  0  0
  7  2  1  0  0  0  0
  8  4  1  0  0  0  0
  9 16  1  0  0  0  0
 10  9  3  0  0  0  0
 11  3  1  0  0  0  0
 12  4  2  0  0  0  0
 13  5  1  0  0  0  0
 13 11  1  0  0  0  0
 14  5  2  0  0  0  0
 15  8  1  0  0  0  0
 16 17  1  0  0  0  0
 17 15  2  0  0  0  0
 18  3  1  0  0  0  0
 19 20  2  0  0  0  0
 20 15  1  0  0  0  0
 21 16  2  0  0  0  0
 21 19  1  0  0  0  0
M  END
> <CdId>
3881

> <Mol Weight>
300.375

> <Formula>
C16H16N2O2S

> <Click_ID>
CLK050A11 __ __ 

$$$$
