CLK046A04
 OpenBabel03191401532D

 29 32  0  0  0  0  0  0  0  0999 V2000
   -0.1833   -0.0792    0.0000 N   0  0  0  0  0  0  0  0  0  0  0  0
   -1.6125   -0.0792    0.0000 C   0  0  0  0  0  0  0  0  0  0  0  0
   -1.6125    0.7458    0.0000 C   0  0  0  0  0  0  0  0  0  0  0  0
   -0.1833    0.7458    0.0000 C   0  0  0  0  0  0  0  0  0  0  0  0
   -0.9000    1.1583    0.0000 N   0  0  0  0  0  0  0  0  0  0  0  0
   -0.9000   -0.4917    0.0000 C   0  0  0  0  0  0  0  0  0  0  0  0
   -2.4000    1.0000    0.0000 S   0  0  0  0  0  0  0  0  0  0  0  0
   -2.4000   -0.3333    0.0000 C   0  0  0  0  0  0  0  0  0  0  0  0
   -2.8833    0.3333    0.0000 C   0  0  0  0  0  0  0  0  0  0  0  0
    0.5292   -0.4917    0.0000 C   0  0  0  0  0  0  0  0  0  0  0  0
    0.5292    1.1583    0.0000 S   0  0  0  0  0  0  0  0  0  0  0  0
    4.1000    0.7458    0.0000 C   0  0  0  0  0  0  0  0  0  0  0  0
   -0.9000   -1.3167    0.0000 O   0  0  0  0  0  0  0  0  0  0  0  0
    4.8167    0.3333    0.0000 C   0  0  0  0  0  0  0  0  0  0  0  0
    1.9583    1.1583    0.0000 C   0  0  0  0  0  0  0  0  0  0  0  0
    0.5292   -1.3167    0.0000 C   0  0  0  0  0  0  0  0  0  0  0  0
    1.9583    1.9833    0.0000 O   0  0  0  0  0  0  0  0  0  0  0  0
    1.2458    0.7458    0.0000 C   0  0  0  0  0  0  0  0  0  0  0  0
    2.6750    0.7458    0.0000 N   0  0  0  0  0  0  0  0  0  0  0  0
   -2.7333   -1.0875    0.0000 C   0  0  0  0  0  0  0  0  0  0  0  0
   -3.7042    0.2458    0.0000 C   0  0  0  0  0  0  0  0  0  0  0  0
    3.3875    1.1583    0.0000 C   0  0  0  0  0  0  0  0  0  0  0  0
    1.2458   -0.0792    0.0000 C   0  0  0  0  0  0  0  0  0  0  0  0
   -0.1833   -1.7292    0.0000 C   0  0  0  0  0  0  0  0  0  0  0  0
    1.2458   -1.7292    0.0000 C   0  0  0  0  0  0  0  0  0  0  0  0
   -3.5542   -1.1750    0.0000 C   0  0  0  0  0  0  0  0  0  0  0  0
   -4.0375   -0.5042    0.0000 C   0  0  0  0  0  0  0  0  0  0  0  0
    1.9583   -0.4917    0.0000 C   0  0  0  0  0  0  0  0  0  0  0  0
    1.9583   -1.3167    0.0000 C   0  0  0  0  0  0  0  0  0  0  0  0
  2  6  1  0  0  0  0
  3  2  2  0  0  0  0
  3  5  1  0  0  0  0
  4  1  1  0  0  0  0
  5  4  2  0  0  0  0
  6  1  1  0  0  0  0
  7  3  1  0  0  0  0
  8  2  1  0  0  0  0
  9  8  2  0  0  0  0
  9  7  1  0  0  0  0
 10  1  1  0  0  0  0
 11  4  1  0  0  0  0
 12 22  1  0  0  0  0
 13  6  2  0  0  0  0
 14 12  3  0  0  0  0
 15 18  1  0  0  0  0
 16 10  2  0  0  0  0
 17 15  2  0  0  0  0
 18 11  1  0  0  0  0
 19 15  1  0  0  0  0
 20  8  1  0  0  0  0
 21  9  1  0  0  0  0
 22 19  1  0  0  0  0
 23 10  1  0  0  0  0
 24 16  1  0  0  0  0
 25 16  1  0  0  0  0
 26 20  1  0  0  0  0
 26 27  1  0  0  0  0
 27 21  1  0  0  0  0
 28 23  2  0  0  0  0
 28 29  1  0  0  0  0
 29 25  2  0  0  0  0
M  END
> <CdId>
3505

> <Mol Weight>
423.551

> <Formula>
C22H21N3O2S2

> <Click_ID>
CLK046A04 __ __ 

$$$$
