CLK028_H07
 OpenBabel03191401532D

 20 20  0  0  0  0  0  0  0  0999 V2000
   -4.3313   -1.0863    0.0000 N   0  0  0  0  0  0  0  0  0  0  0  0
   -3.9188   -0.3747    0.0000 C   0  0  0  0  0  0  0  0  0  0  0  0
    3.5028    1.0897    0.0000 C   0  0  0  0  0  0  0  0  0  0  0  0
    4.3278    1.0897    0.0000 C   0  0  0  0  0  0  0  0  0  0  0  0
   -2.6847    0.3368    0.0000 C   0  0  0  0  0  0  0  0  0  0  0  0
   -1.4472   -0.3747    0.0000 N   0  0  0  0  0  0  0  0  0  0  0  0
    1.0347   -0.3438    0.0000 C   0  0  0  0  0  0  0  0  0  0  0  0
   -3.5062    0.3368    0.0000 C   0  0  0  0  0  0  0  0  0  0  0  0
    1.4541    0.3747    0.0000 C   0  0  0  0  0  0  0  0  0  0  0  0
   -2.2722   -0.3747    0.0000 N   0  0  0  0  0  0  0  0  0  0  0  0
    0.2097   -0.3438    0.0000 C   0  0  0  0  0  0  0  0  0  0  0  0
   -2.2722    1.0484    0.0000 O   0  0  0  0  0  0  0  0  0  0  0  0
    1.0347    1.0863    0.0000 C   0  0  0  0  0  0  0  0  0  0  0  0
   -1.0175    0.3747    0.0000 C   0  0  0  0  0  0  0  0  0  0  0  0
   -0.1925    0.3747    0.0000 C   0  0  0  0  0  0  0  0  0  0  0  0
    0.2097    1.0863    0.0000 C   0  0  0  0  0  0  0  0  0  0  0  0
    1.4438   -1.0622    0.0000 O   0  0  0  0  0  0  0  0  0  0  0  0
    2.2688    0.3747    0.0000 O   0  0  0  0  0  0  0  0  0  0  0  0
    2.6812    1.0863    0.0000 C   0  0  0  0  0  0  0  0  0  0  0  0
    2.2688   -1.0622    0.0000 C   0  0  0  0  0  0  0  0  0  0  0  0
  2  1  3  0  0  0  0
  3 19  1  0  0  0  0
  4  3  3  0  0  0  0
  5  8  1  0  0  0  0
  6 10  1  0  0  0  0
  7 11  1  0  0  0  0
  8  2  1  0  0  0  0
  9 13  1  0  0  0  0
  9  7  2  0  0  0  0
 10  5  1  0  0  0  0
 11 15  2  0  0  0  0
 12  5  2  0  0  0  0
 13 16  2  0  0  0  0
 14  6  2  0  0  0  0
 15 14  1  0  0  0  0
 16 15  1  0  0  0  0
 17  7  1  0  0  0  0
 18  9  1  0  0  0  0
 19 18  1  0  0  0  0
 20 17  1  0  0  0  0
M  END
> <CdId>
2161

> <Mol Weight>
271.2713

> <Formula>
C14H13N3O3

> <Click_ID>
CLK028_H07 __ __ 

$$$$
