CLK017_D09
 OpenBabel03191401532D

 28 32  0  0  0  0  0  0  0  0999 V2000
    5.3607   -3.8467    0.0000 N   0  0  0  0  0  0  0  0  0  0  0  0
    5.2559   -3.0564    0.0000 C   0  0  0  0  0  0  0  0  0  0  0  0
    4.6037   -4.2038    0.0000 C   0  0  0  0  0  0  0  0  0  0  0  0
    4.4323   -2.8898    0.0000 C   0  0  3  0  0  0  0  0  0  0  0  0
    4.0419   -3.6182    0.0000 C   0  0  3  0  0  0  0  0  0  0  0  0
    6.0843   -4.2467    0.0000 N   0  0  0  0  0  0  0  0  0  0  0  0
    3.5183   -2.2852    0.0000 C   0  0  3  0  0  0  0  0  0  0  0  0
    3.1992   -3.1326    0.0000 C   0  0  3  0  0  0  0  0  0  0  0  0
    7.3126   -4.9608    0.0000 C   0  0  0  0  0  0  0  0  0  0  0  0
    6.4890   -4.9608    0.0000 C   0  0  0  0  0  0  0  0  0  0  0  0
    2.7184   -2.7756    0.0000 C   0  0  0  0  0  0  0  0  0  0  0  0
    2.2471   -3.5420    0.0000 C   0  0  0  0  0  0  0  0  0  0  0  0
    3.3754   -1.3045    0.0000 C   0  0  0  0  0  0  0  0  0  0  0  0
    7.3031   -5.7749    0.0000 C   0  0  0  0  0  0  0  0  0  0  0  0
    8.7551   -2.5042    0.0000 C   0  0  0  0  0  0  0  0  0  0  0  0
    9.4692   -2.1043    0.0000 C   0  0  0  0  0  0  0  0  0  0  0  0
    5.8748   -2.4756    0.0000 O   0  0  0  0  0  0  0  0  0  0  0  0
    4.4609   -5.0036    0.0000 O   0  0  0  0  0  0  0  0  0  0  0  0
    8.0267   -4.5561    0.0000 C   0  0  0  0  0  0  0  0  0  0  0  0
    8.0124   -6.2033    0.0000 C   0  0  0  0  0  0  0  0  0  0  0  0
    8.7408   -4.9751    0.0000 C   0  0  0  0  0  0  0  0  0  0  0  0
    8.7313   -5.7986    0.0000 C   0  0  0  0  0  0  0  0  0  0  0  0
    8.0315   -3.7325    0.0000 O   0  0  0  0  0  0  0  0  0  0  0  0
    8.7456   -3.3278    0.0000 C   0  0  0  0  0  0  0  0  0  0  0  0
    6.5890   -6.1843    0.0000 C   0  0  0  0  0  0  0  0  0  0  0  0
    8.0029   -7.0269    0.0000 C   0  0  0  0  0  0  0  0  0  0  0  0
    6.5747   -7.0031    0.0000 C   0  0  0  0  0  0  0  0  0  0  0  0
    7.2888   -7.4268    0.0000 C   0  0  0  0  0  0  0  0  0  0  0  0
  2  1  1  0  0  0  0
  3  1  1  0  0  0  0
  4  2  1  0  0  0  0
  5  3  1  0  0  0  0
  5  4  1  0  0  0  0
  6  1  1  0  0  0  0
  7  4  1  0  0  0  0
  7 13  1  0  0  0  0
  8  5  1  0  0  0  0
  9 10  1  0  0  0  0
 10  6  2  0  0  0  0
 11  7  1  0  0  0  0
 12  8  1  0  0  0  0
 12 11  2  0  0  0  0
 13  8  1  0  0  0  0
 14  9  1  0  0  0  0
 15 24  1  0  0  0  0
 16 15  3  0  0  0  0
 17  2  2  0  0  0  0
 18  3  2  0  0  0  0
 19  9  2  0  0  0  0
 20 14  1  0  0  0  0
 20 22  1  0  0  0  0
 21 19  1  0  0  0  0
 22 21  2  0  0  0  0
 23 19  1  0  0  0  0
 24 23  1  0  0  0  0
 25 14  2  0  0  0  0
 26 20  2  0  0  0  0
 26 28  1  0  0  0  0
 27 25  1  0  0  0  0
 28 27  2  0  0  0  0
M  END
> <CdId>
1274

> <Mol Weight>
370.4006

> <Formula>
C23H18N2O3

> <Click_ID>
CLK017_D09 __ __ 

$$$$
