CLK024_G05
 OpenBabel03191401532D

 28 29  0  0  0  0  0  0  0  0999 V2000
    0.7124   -2.2646    0.0000 N   0  0  0  0  0  0  0  0  0  0  0  0
    0.3132   -2.9839    0.0000 C   0  0  0  0  0  0  0  0  0  0  0  0
    0.1514   -1.6520    0.0000 C   0  0  0  0  0  0  0  0  0  0  0  0
   -0.5988   -2.0030    0.0000 C   0  0  0  0  0  0  0  0  0  0  0  0
   -0.4991   -2.8255    0.0000 S   0  0  0  0  0  0  0  0  0  0  0  0
    1.5349   -2.1854    0.0000 C   0  0  3  0  0  0  0  0  0  0  0  0
   -1.2734   -1.5281    0.0000 C   0  0  0  0  0  0  0  0  0  0  0  0
    1.8723   -1.4283    0.0000 C   0  0  0  0  0  0  0  0  0  0  0  0
   -0.1136    2.9184    0.0000 C   0  0  0  0  0  0  0  0  0  0  0  0
   -0.0241    3.7376    0.0000 C   0  0  0  0  0  0  0  0  0  0  0  0
    0.6608   -3.7376    0.0000 O   0  0  0  0  0  0  0  0  0  0  0  0
   -1.7759    0.5954    0.0000 C   0  0  0  0  0  0  0  0  0  0  0  0
    0.3132   -0.8432    0.0000 O   0  0  0  0  0  0  0  0  0  0  0  0
   -1.1977   -0.7056    0.0000 C   0  0  0  0  0  0  0  0  0  0  0  0
   -1.8619   -0.2203    0.0000 C   0  0  0  0  0  0  0  0  0  0  0  0
   -1.0256    0.9292    0.0000 C   0  0  0  0  0  0  0  0  0  0  0  0
    1.3938   -0.7537    0.0000 O   0  0  0  0  0  0  0  0  0  0  0  0
   -0.3614    0.4440    0.0000 C   0  0  0  0  0  0  0  0  0  0  0  0
   -0.4474   -0.3785    0.0000 C   0  0  0  0  0  0  0  0  0  0  0  0
    2.6948   -1.3422    0.0000 O   0  0  0  0  0  0  0  0  0  0  0  0
   -2.4435    1.0910    0.0000 O   0  0  0  0  0  0  0  0  0  0  0  0
   -0.9464    1.7517    0.0000 O   0  0  0  0  0  0  0  0  0  0  0  0
   -0.1927    2.0925    0.0000 C   0  0  0  0  0  0  0  0  0  0  0  0
    2.0168   -2.8496    0.0000 C   0  0  0  0  0  0  0  0  0  0  0  0
    3.0390   -0.5920    0.0000 C   0  0  0  0  0  0  0  0  0  0  0  0
   -3.2075    0.7537    0.0000 C   0  0  0  0  0  0  0  0  0  0  0  0
    3.8649   -0.5059    0.0000 C   0  0  0  0  0  0  0  0  0  0  0  0
   -3.8683    1.2424    0.0000 C   0  0  0  0  0  0  0  0  0  0  0  0
  2  1  1  0  0  0  0
  3  1  1  0  0  0  0
  4  3  1  0  0  0  0
  4  5  1  0  0  0  0
  5  2  1  0  0  0  0
  6  1  1  0  0  0  0
  7  4  2  0  0  0  0
  8  6  1  0  0  0  0
  9 23  1  0  0  0  0
 10  9  3  0  0  0  0
 11  2  2  0  0  0  0
 12 15  2  0  0  0  0
 12 16  1  0  0  0  0
 13  3  2  0  0  0  0
 14  7  1  0  0  0  0
 15 14  1  0  0  0  0
 16 18  2  0  0  0  0
 17  8  2  0  0  0  0
 18 19  1  0  0  0  0
 19 14  2  0  0  0  0
 20  8  1  0  0  0  0
 21 12  1  0  0  0  0
 22 16  1  0  0  0  0
 23 22  1  0  0  0  0
 24  6  1  0  0  0  0
 25 20  1  0  0  0  0
 26 21  1  0  0  0  0
 27 25  1  0  0  0  0
 28 26  1  0  0  0  0
M  END
> <CdId>
1840

> <Mol Weight>
403.449

> <Formula>
C20H21NO6S

> <Click_ID>
CLK024_G05 __ __ 

$$$$
