CLK001_A03
 OpenBabel03191401532D

 11 11  0  0  0  0  0  0  0  0999 V2000
    9.4903  -21.4166    0.0000 C   0  0  0  0  0  0  0  0  0  0  0  0
   10.2136  -21.0133    0.0000 C   0  0  0  0  0  0  0  0  0  0  0  0
    8.0561  -21.3999    0.0000 N   0  0  0  0  0  0  0  0  0  0  0  0
    8.7670  -21.8156    0.0000 C   0  0  0  0  0  0  0  0  0  0  0  0
    6.6137  -21.3792    0.0000 C   0  0  0  0  0  0  0  0  0  0  0  0
    7.3328  -21.8032    0.0000 C   0  0  0  0  0  0  0  0  0  0  0  0
    6.6137  -20.5561    0.0000 C   0  0  0  0  0  0  0  0  0  0  0  0
    5.9029  -21.7907    0.0000 C   0  0  0  0  0  0  0  0  0  0  0  0
    5.1879  -21.3792    0.0000 C   0  0  0  0  0  0  0  0  0  0  0  0
    5.9029  -20.1445    0.0000 C   0  0  0  0  0  0  0  0  0  0  0  0
    5.1879  -20.5561    0.0000 C   0  0  0  0  0  0  0  0  0  0  0  0
  2  1  3  0  0  0  0
  3  4  1  0  0  0  0
  4  1  1  0  0  0  0
  5  6  1  0  0  0  0
  6  3  1  0  0  0  0
  7  5  2  0  0  0  0
  8  5  1  0  0  0  0
  9  8  2  0  0  0  0
 10  7  1  0  0  0  0
 11  9  1  0  0  0  0
 11 10  2  0  0  0  0
M  END
> <CdId>
2

> <Mol Weight>
145.201

> <Formula>
C10H11N

> <Click_ID>
CLK001_A03 __ __ 

$$$$
