CLK045B06
 OpenBabel03191401532D

 20 20  0  0  0  0  0  0  0  0999 V2000
    0.8542   -2.7625    0.0000 C    0  0  0  0  0  0  0  0  0  0  0  0
   -1.2875    1.7750    0.0000 C    0  0  0  0  0  0  0  0  0  0  0  0
    0.8542   -3.5875    0.0000 C    0  0  0  0  0  0  0  0  0  0  0  0
    0.1417   -0.7000    0.0000 C    0  0  0  0  0  0  0  0  0  0  0  0
   -1.2875    2.6000    0.0000 C    0  0  0  0  0  0  0  0  0  0  0  0
    0.8542   -1.1125    0.0000 N    0  0  0  0  0  0  0  0  0  0  0  0
   -0.5750    1.3625    0.0000 C    0  0  0  0  0  0  0  0  0  0  0  0
    0.8542   -1.9375    0.0000 C    0  0  0  0  0  0  0  0  0  0  0  0
   -0.5750    0.5375    0.0000 O    0  0  0  0  0  0  0  0  0  0  0  0
   -0.5750   -1.1125    0.0000 O    0  0  0  0  0  0  0  0  0  0  0  0
    0.1417    1.7750    0.0000 C    0  0  0  0  0  0  0  0  0  0  0  0
   -0.5750    3.0125    0.0000 C    0  0  0  0  0  0  0  0  0  0  0  0
    0.1417    0.1250    0.0000 C    0  0  0  0  0  0  0  0  0  0  0  0
   -2.0042    1.3625    0.0000 Br   0  0  0  0  0  0  0  0  0  0  0  0
    0.1417    2.6000    0.0000 C    0  0  0  0  0  0  0  0  0  0  0  0
   -0.5750    3.8375    0.0000 Br   0  0  0  0  0  0  0  0  0  0  0  0
    0.0292   -1.9375    0.0000 C    0  0  0  0  0  0  0  0  0  0  0  0
    1.6792   -1.9375    0.0000 C    0  0  0  0  0  0  0  0  0  0  0  0
   -0.3833   -1.2208    0.0000 C    0  0  0  0  0  0  0  0  0  0  0  0
    2.0917   -2.6500    0.0000 C    0  0  0  0  0  0  0  0  0  0  0  0
  2  7  2  0  0  0  0
  3  1  3  0  0  0  0
  4  6  1  0  0  0  0
  5  2  1  0  0  0  0
  6  8  1  0  0  0  0
  7  9  1  0  0  0  0
  8  1  1  0  0  0  0
  9 13  1  0  0  0  0
 10  4  2  0  0  0  0
 11  7  1  0  0  0  0
 12  5  2  0  0  0  0
 12 15  1  0  0  0  0
 13  4  1  0  0  0  0
 14  2  1  0  0  0  0
 15 11  2  0  0  0  0
 16 12  1  0  0  0  0
 17  8  1  0  0  0  0
 18  8  1  0  0  0  0
 19 17  1  0  0  0  0
 20 18  1  0  0  0  0
M  END
> <CdId>
3442

> <Mol Weight>
403.109

> <Formula>
C15H17Br2NO2

> <Click_ID>
CLK045B06 __ __ 

$$$$
