CLK034_B08
 OpenBabel03191401532D

 31 35  0  0  0  0  0  0  0  0999 V2000
   -3.1583    5.0542    0.0000 N   0  0  0  0  0  0  0  0  0  0  0  0
   -4.5833    2.5500    0.0000 C   0  0  0  0  0  0  0  0  0  0  0  0
   -2.4958    5.5292    0.0000 C   0  0  0  0  0  0  0  0  0  0  0  0
   -3.8125    5.5292    0.0000 C   0  0  0  0  0  0  0  0  0  0  0  0
   -5.3500    2.8708    0.0000 S   0  0  0  0  0  0  0  0  0  0  0  0
   -4.6583    1.7375    0.0000 N   0  0  0  0  0  0  0  0  0  0  0  0
   -5.8833    2.2458    0.0000 C   0  0  0  0  0  0  0  0  0  0  0  0
   -3.8708    2.9833    0.0000 N   0  0  0  0  0  0  0  0  0  0  0  0
   -5.4583    1.5458    0.0000 C   0  0  0  0  0  0  0  0  0  0  0  0
   -3.5625    6.3167    0.0000 C   0  0  0  0  0  0  0  0  0  0  0  0
   -2.7375    6.3125    0.0000 C   0  0  0  0  0  0  0  0  0  0  0  0
   -3.8708    3.8000    0.0000 C   0  0  0  0  0  0  0  0  0  0  0  0
   -3.1583    4.2125    0.0000 C   0  0  0  0  0  0  0  0  0  0  0  0
   -6.7042    2.2333    0.0000 C   0  0  0  0  0  0  0  0  0  0  0  0
   -5.8458    0.8208    0.0000 C   0  0  0  0  0  0  0  0  0  0  0  0
   -3.2375    1.4625    0.0000 C   0  0  0  0  0  0  0  0  0  0  0  0
   -2.4625    1.7458    0.0000 C   0  0  0  0  0  0  0  0  0  0  0  0
   -1.7208    5.2667    0.0000 O   0  0  0  0  0  0  0  0  0  0  0  0
   -4.6125    5.2792    0.0000 O   0  0  0  0  0  0  0  0  0  0  0  0
   -4.5833    4.2042    0.0000 O   0  0  0  0  0  0  0  0  0  0  0  0
   -4.0208    1.1958    0.0000 C   0  0  0  0  0  0  0  0  0  0  0  0
   -7.1042    1.5083    0.0000 C   0  0  0  0  0  0  0  0  0  0  0  0
   -6.6667    0.7958    0.0000 C   0  0  0  0  0  0  0  0  0  0  0  0
   -3.9708    7.0292    0.0000 C   0  0  0  0  0  0  0  0  0  0  0  0
   -2.3208    7.0292    0.0000 C   0  0  0  0  0  0  0  0  0  0  0  0
   -7.1417    2.9333    0.0000 C   0  0  0  0  0  0  0  0  0  0  0  0
   -7.9167    1.4833    0.0000 C   0  0  0  0  0  0  0  0  0  0  0  0
   -2.7250    7.7417    0.0000 C   0  0  0  0  0  0  0  0  0  0  0  0
   -3.5500    7.7417    0.0000 C   0  0  0  0  0  0  0  0  0  0  0  0
   -7.9667    2.9125    0.0000 C   0  0  0  0  0  0  0  0  0  0  0  0
   -8.3542    2.1875    0.0000 C   0  0  0  0  0  0  0  0  0  0  0  0
  2  8  2  0  0  0  0
  3  1  1  0  0  0  0
  4  1  1  0  0  0  0
  5  2  1  0  0  0  0
  6  2  1  0  0  0  0
  7  5  1  0  0  0  0
  7  9  2  0  0  0  0
  8 12  1  0  0  0  0
  9  6  1  0  0  0  0
 10  4  1  0  0  0  0
 11  3  1  0  0  0  0
 11 10  2  0  0  0  0
 12 13  1  0  0  0  0
 13  1  1  0  0  0  0
 14  7  1  0  0  0  0
 15  9  1  0  0  0  0
 16 21  1  0  0  0  0
 17 16  3  0  0  0  0
 18  3  2  0  0  0  0
 19  4  2  0  0  0  0
 20 12  2  0  0  0  0
 21  6  1  0  0  0  0
 22 14  1  0  0  0  0
 23 15  2  0  0  0  0
 23 22  1  0  0  0  0
 24 10  1  0  0  0  0
 25 11  1  0  0  0  0
 26 14  2  0  0  0  0
 27 22  2  0  0  0  0
 27 31  1  0  0  0  0
 28 25  2  0  0  0  0
 28 29  1  0  0  0  0
 29 24  2  0  0  0  0
 30 26  1  0  0  0  0
 31 30  2  0  0  0  0
M  END
> <CdId>
2582

> <Mol Weight>
425.459

> <Formula>
C24H15N3O3S

> <Click_ID>
CLK034_B08 __ __ 

$$$$
