CLK019_A03
 OpenBabel03191401532D

 23 24  0  0  0  0  0  0  0  0999 V2000
    8.3050    1.8827    0.0000 C    0  0  0  0  0  0  0  0  0  0  0  0
    1.5987   -1.0216    0.0000 C    0  0  0  0  0  0  0  0  0  0  0  0
    8.3004    2.7072    0.0000 C    0  0  0  0  0  0  0  0  0  0  0  0
    2.3820   -0.5681    0.0000 C    0  0  0  0  0  0  0  0  0  0  0  0
    6.8758   -0.5955    0.0000 C    0  0  0  0  0  0  0  0  0  0  0  0
    6.8758    0.2290    0.0000 C    0  0  0  0  0  0  0  0  0  0  0  0
    1.5987   -1.9285    0.0000 C    0  0  0  0  0  0  0  0  0  0  0  0
    6.1703   -1.0078    0.0000 C    0  0  0  0  0  0  0  0  0  0  0  0
    3.9578   -0.5543    0.0000 N    0  0  0  0  0  0  0  0  0  0  0  0
    3.1745   -1.0216    0.0000 C    0  0  0  0  0  0  0  0  0  0  0  0
    6.1612    0.6413    0.0000 C    0  0  0  0  0  0  0  0  0  0  0  0
    2.3820   -2.3820    0.0000 C    0  0  0  0  0  0  0  0  0  0  0  0
    5.4557   -0.5955    0.0000 C    0  0  0  0  0  0  0  0  0  0  0  0
    0.8841   -0.6093    0.0000 Cl   0  0  0  0  0  0  0  0  0  0  0  0
    4.7457   -1.0078    0.0000 C    0  0  0  0  0  0  0  0  0  0  0  0
    3.1745   -1.9285    0.0000 C    0  0  0  0  0  0  0  0  0  0  0  0
    5.4466    0.2290    0.0000 C    0  0  0  0  0  0  0  0  0  0  0  0
    7.5995   -1.0032    0.0000 O    0  0  0  0  0  0  0  0  0  0  0  0
    7.5904    0.6459    0.0000 O    0  0  0  0  0  0  0  0  0  0  0  0
    7.5904    1.4704    0.0000 C    0  0  0  0  0  0  0  0  0  0  0  0
    0.8841   -2.3408    0.0000 C    0  0  0  0  0  0  0  0  0  0  0  0
    7.5995   -1.8186    0.0000 C    0  0  0  0  0  0  0  0  0  0  0  0
    8.3141   -2.2400    0.0000 C    0  0  0  0  0  0  0  0  0  0  0  0
  2  4  1  0  0  0  0
  3  1  3  0  0  0  0
  4 10  2  0  0  0  0
  5  6  1  0  0  0  0
  6 19  1  0  0  0  0
  7 12  1  0  0  0  0
  7  2  2  0  0  0  0
  8  5  2  0  0  0  0
  9 15  1  0  0  0  0
 10  9  1  0  0  0  0
 11  6  2  0  0  0  0
 12 16  2  0  0  0  0
 13 17  2  0  0  0  0
 13  8  1  0  0  0  0
 14  2  1  0  0  0  0
 15 13  1  0  0  0  0
 16 10  1  0  0  0  0
 17 11  1  0  0  0  0
 18  5  1  0  0  0  0
 19 20  1  0  0  0  0
 20  1  1  0  0  0  0
 21  7  1  0  0  0  0
 22 18  1  0  0  0  0
 23 22  1  0  0  0  0
M  END
> <CdId>
1398

> <Mol Weight>
329.821

> <Formula>
C19H20ClNO2

> <Click_ID>
CLK019_A03 __ __ 

$$$$
