CLK043H04
 OpenBabel03191401532D

 19 20  0  0  0  0  0  0  0  0999 V2000
   -0.6500    2.9583    0.0000 C   0  0  0  0  0  0  0  0  0  0  0  0
   -0.1667    2.2917    0.0000 N   0  0  0  0  0  0  0  0  0  0  0  0
   -0.1667    3.6250    0.0000 S   0  0  0  0  0  0  0  0  0  0  0  0
    1.0208   -3.3000    0.0000 C   0  0  0  0  0  0  0  0  0  0  0  0
   -0.1250    0.1083    0.0000 C   0  0  0  0  0  0  0  0  0  0  0  0
    1.5750   -3.9125    0.0000 C   0  0  0  0  0  0  0  0  0  0  0  0
    0.1292    0.8917    0.0000 C   0  0  0  0  0  0  0  0  0  0  0  0
    0.4292   -0.5042    0.0000 N   0  0  0  0  0  0  0  0  0  0  0  0
   -0.4208    1.5083    0.0000 C   0  0  0  0  0  0  0  0  0  0  0  0
   -1.4750    2.9583    0.0000 O   0  0  0  0  0  0  0  0  0  0  0  0
    0.1708   -1.2875    0.0000 C   0  0  0  0  0  0  0  0  0  0  0  0
   -0.9333   -0.0625    0.0000 O   0  0  0  0  0  0  0  0  0  0  0  0
    0.4708   -2.6875    0.0000 C   0  0  0  0  0  0  0  0  0  0  0  0
    0.7250   -1.9000    0.0000 C   0  0  0  0  0  0  0  0  0  0  0  0
    0.6167    3.3708    0.0000 C   0  0  0  0  0  0  0  0  0  0  0  0
    0.6167    2.5458    0.0000 C   0  0  0  0  0  0  0  0  0  0  0  0
   -0.8875   -2.2458    0.0000 C   0  0  0  0  0  0  0  0  0  0  0  0
   -0.6333   -1.4625    0.0000 C   0  0  0  0  0  0  0  0  0  0  0  0
   -0.3375   -2.8583    0.0000 C   0  0  0  0  0  0  0  0  0  0  0  0
  2  1  1  0  0  0  0
  3  1  1  0  0  0  0
  4 13  1  0  0  0  0
  5  7  1  0  0  0  0
  6  4  3  0  0  0  0
  7  9  1  0  0  0  0
  8  5  1  0  0  0  0
  9  2  1  0  0  0  0
 10  1  2  0  0  0  0
 11  8  1  0  0  0  0
 12  5  2  0  0  0  0
 13 14  1  0  0  0  0
 14 11  2  0  0  0  0
 15  3  1  0  0  0  0
 15 16  1  0  0  0  0
 16  2  1  0  0  0  0
 17 18  2  0  0  0  0
 18 11  1  0  0  0  0
 19 13  2  0  0  0  0
 19 17  1  0  0  0  0
M  END
> <CdId>
3272

> <Mol Weight>
274.338

> <Formula>
C14H14N2O2S

> <Click_ID>
CLK043H04 __ __ 

$$$$
