CLK051F05
 OpenBabel03191401532D

 30 33  0  0  0  0  0  0  0  0999 V2000
    3.3125   -0.6167    0.0000 S   0  0  0  0  0  0  0  0  0  0  0  0
   -2.4625    0.8125    0.0000 C   0  0  0  0  0  0  0  0  0  0  0  0
   -2.9458    1.4792    0.0000 N   0  0  0  0  0  0  0  0  0  0  0  0
   -0.4000    0.0958    0.0000 N   0  0  0  0  0  0  0  0  0  0  0  0
   -2.9458    0.1458    0.0000 N   0  0  0  0  0  0  0  0  0  0  0  0
    0.0125   -0.6167    0.0000 C   0  0  0  0  0  0  0  0  0  0  0  0
   -1.6375    0.8125    0.0000 C   0  0  3  0  0  0  0  0  0  0  0  0
   -1.2250    0.0958    0.0000 C   0  0  0  0  0  0  0  0  0  0  0  0
   -3.7292    1.2250    0.0000 C   0  0  0  0  0  0  0  0  0  0  0  0
   -3.7292    0.4000    0.0000 C   0  0  0  0  0  0  0  0  0  0  0  0
    2.4875   -0.6167    0.0000 C   0  0  0  0  0  0  0  0  0  0  0  0
    5.3750   -1.3333    0.0000 C   0  0  0  0  0  0  0  0  0  0  0  0
    6.2000   -1.3333    0.0000 C   0  0  0  0  0  0  0  0  0  0  0  0
    3.3125    0.2083    0.0000 O   0  0  0  0  0  0  0  0  0  0  0  0
    3.3125   -1.4417    0.0000 O   0  0  0  0  0  0  0  0  0  0  0  0
    0.8375   -0.6167    0.0000 C   0  0  0  0  0  0  0  0  0  0  0  0
    4.1375   -0.6167    0.0000 N   0  0  0  0  0  0  0  0  0  0  0  0
   -0.4000   -1.3333    0.0000 O   0  0  0  0  0  0  0  0  0  0  0  0
    2.0750   -1.3333    0.0000 C   0  0  0  0  0  0  0  0  0  0  0  0
    2.0750    0.0958    0.0000 C   0  0  0  0  0  0  0  0  0  0  0  0
    1.2500   -1.3333    0.0000 C   0  0  0  0  0  0  0  0  0  0  0  0
    1.2500    0.0958    0.0000 C   0  0  0  0  0  0  0  0  0  0  0  0
    0.0125    0.8125    0.0000 C   0  0  0  0  0  0  0  0  0  0  0  0
    4.5500   -1.3333    0.0000 C   0  0  0  0  0  0  0  0  0  0  0  0
   -1.2250    1.5250    0.0000 C   0  0  0  0  0  0  0  0  0  0  0  0
   -0.4000    1.5250    0.0000 C   0  0  0  0  0  0  0  0  0  0  0  0
   -4.4458    1.6375    0.0000 C   0  0  0  0  0  0  0  0  0  0  0  0
   -4.4458   -0.0125    0.0000 C   0  0  0  0  0  0  0  0  0  0  0  0
   -5.1583    1.2250    0.0000 C   0  0  0  0  0  0  0  0  0  0  0  0
   -5.1583    0.4000    0.0000 C   0  0  0  0  0  0  0  0  0  0  0  0
  2  7  1  0  0  0  0
  3  2  2  0  0  0  0
  4  6  1  0  0  0  0
  5  2  1  0  0  0  0
  6 16  1  0  0  0  0
  7  8  1  0  0  0  0
  8  4  1  0  0  0  0
  9  3  1  0  0  0  0
 10  5  1  0  0  0  0
 10  9  2  0  0  0  0
 11  1  1  0  0  0  0
 12 24  1  0  0  0  0
 13 12  3  0  0  0  0
 14  1  2  0  0  0  0
 15  1  2  0  0  0  0
 16 22  2  0  0  0  0
 17  1  1  0  0  0  0
 18  6  2  0  0  0  0
 19 11  1  0  0  0  0
 20 11  2  0  0  0  0
 21 19  2  0  0  0  0
 21 16  1  0  0  0  0
 22 20  1  0  0  0  0
 23  4  1  0  0  0  0
 24 17  1  0  0  0  0
 25  7  1  0  0  0  0
 25 26  1  0  0  0  0
 26 23  1  0  0  0  0
 27  9  1  0  0  0  0
 28 10  1  0  0  0  0
 29 27  2  0  0  0  0
 30 28  2  0  0  0  0
 30 29  1  0  0  0  0
M  END
> <CdId>
3918

> <Mol Weight>
422.5

> <Formula>
C22H22N4O3S

> <Click_ID>
CLK051F05 __ __ 

$$$$
