CLK051B09
 OpenBabel03191401532D

 17 17  0  0  0  0  0  0  0  0999 V2000
   -0.0875   -0.4333    0.0000 C    0  0  0  0  0  0  0  0  0  0  0  0
    0.6292   -0.8458    0.0000 C    0  0  0  0  0  0  0  0  0  0  0  0
    1.3417   -2.9083    0.0000 C    0  0  0  0  0  0  0  0  0  0  0  0
    1.3417   -3.7333    0.0000 C    0  0  0  0  0  0  0  0  0  0  0  0
   -0.8000   -0.0208    0.0000 O    0  0  0  0  0  0  0  0  0  0  0  0
    1.3417   -0.4333    0.0000 O    0  0  0  0  0  0  0  0  0  0  0  0
    0.6292   -1.6708    0.0000 N    0  0  0  0  0  0  0  0  0  0  0  0
   -0.8000    0.8042    0.0000 C    0  0  0  0  0  0  0  0  0  0  0  0
   -0.8000    2.4542    0.0000 C    0  0  0  0  0  0  0  0  0  0  0  0
   -0.8000    3.2792    0.0000 Cl   0  0  0  0  0  0  0  0  0  0  0  0
    1.3417   -2.0833    0.0000 C    0  0  0  0  0  0  0  0  0  0  0  0
   -0.0875    1.2167    0.0000 C    0  0  0  0  0  0  0  0  0  0  0  0
   -1.5167    1.2167    0.0000 C    0  0  0  0  0  0  0  0  0  0  0  0
   -1.5167    2.0417    0.0000 C    0  0  0  0  0  0  0  0  0  0  0  0
   -0.0875    2.0417    0.0000 C    0  0  0  0  0  0  0  0  0  0  0  0
    0.3250    0.2792    0.0000 C    0  0  0  0  0  0  0  0  0  0  0  0
   -0.5000   -1.1500    0.0000 C    0  0  0  0  0  0  0  0  0  0  0  0
  2  1  1  0  0  0  0
  3 11  1  0  0  0  0
  4  3  3  0  0  0  0
  5  1  1  0  0  0  0
  6  2  2  0  0  0  0
  7  2  1  0  0  0  0
  8  5  1  0  0  0  0
  9 14  2  0  0  0  0
  9 15  1  0  0  0  0
 10  9  1  0  0  0  0
 11  7  1  0  0  0  0
 12  8  1  0  0  0  0
 13  8  2  0  0  0  0
 14 13  1  0  0  0  0
 15 12  2  0  0  0  0
 16  1  1  0  0  0  0
 17  1  1  0  0  0  0
M  END
> <CdId>
3946

> <Mol Weight>
251.709

> <Formula>
C13H14ClNO2

> <Click_ID>
CLK051B09 __ __ 

$$$$
