CLK014_D04
 OpenBabel03191401532D

 31 33  0  0  0  0  0  0  0  0999 V2000
    2.7776   -0.2338    0.0000 C   0  0  0  0  0  0  0  0  0  0  0  0
    1.5034   -0.6372    0.0000 N   0  0  0  0  0  0  0  0  0  0  0  0
    2.2872   -0.8984    0.0000 C   0  0  0  0  0  0  0  0  0  0  0  0
    1.5126    0.1879    0.0000 N   0  0  0  0  0  0  0  0  0  0  0  0
    2.3010    0.4354    0.0000 C   0  0  0  0  0  0  0  0  0  0  0  0
    3.6027   -0.2384    0.0000 C   0  0  0  0  0  0  0  0  0  0  0  0
    0.8297   -1.1184    0.0000 C   0  0  0  0  0  0  0  0  0  0  0  0
   -1.1779   -2.5576    0.0000 C   0  0  0  0  0  0  0  0  0  0  0  0
    5.2161   -4.5423    0.0000 C   0  0  0  0  0  0  0  0  0  0  0  0
    5.6286   -5.2574    0.0000 C   0  0  0  0  0  0  0  0  0  0  0  0
    2.5347   -1.6822    0.0000 O   0  0  0  0  0  0  0  0  0  0  0  0
    5.2436   -1.6822    0.0000 C   0  0  0  0  0  0  0  0  0  0  0  0
   -0.5088   -2.0763    0.0000 C   0  0  0  0  0  0  0  0  0  0  0  0
    4.0061   -0.9534    0.0000 C   0  0  0  0  0  0  0  0  0  0  0  0
    4.8311   -0.9672    0.0000 C   0  0  0  0  0  0  0  0  0  0  0  0
    4.8265   -2.3972    0.0000 C   0  0  0  0  0  0  0  0  0  0  0  0
   -1.1001   -3.3735    0.0000 O   0  0  0  0  0  0  0  0  0  0  0  0
    0.0825   -0.7747    0.0000 C   0  0  0  0  0  0  0  0  0  0  0  0
    0.9122   -1.9388    0.0000 C   0  0  0  0  0  0  0  0  0  0  0  0
    0.2384   -2.4110    0.0000 C   0  0  0  0  0  0  0  0  0  0  0  0
   -0.5867   -1.2559    0.0000 C   0  0  0  0  0  0  0  0  0  0  0  0
    4.0014   -2.3835    0.0000 C   0  0  0  0  0  0  0  0  0  0  0  0
    3.5935   -1.6684    0.0000 C   0  0  0  0  0  0  0  0  0  0  0  0
   -1.9342   -2.2139    0.0000 O   0  0  0  0  0  0  0  0  0  0  0  0
    6.0687   -1.6913    0.0000 O   0  0  0  0  0  0  0  0  0  0  0  0
    5.2299   -3.1123    0.0000 O   0  0  0  0  0  0  0  0  0  0  0  0
    2.5622    1.2192    0.0000 C   0  0  0  0  0  0  0  0  0  0  0  0
    4.8127   -3.8227    0.0000 C   0  0  0  0  0  0  0  0  0  0  0  0
   -2.0076   -1.3934    0.0000 C   0  0  0  0  0  0  0  0  0  0  0  0
    6.4766   -2.4064    0.0000 C   0  0  0  0  0  0  0  0  0  0  0  0
   -2.7593   -1.0497    0.0000 C   0  0  0  0  0  0  0  0  0  0  0  0
  2  3  1  0  0  0  0
  3  1  1  0  0  0  0
  4  5  2  0  0  0  0
  4  2  1  0  0  0  0
  5  1  1  0  0  0  0
  6  1  2  0  0  0  0
  7  2  1  0  0  0  0
  8 13  1  0  0  0  0
  9 28  1  0  0  0  0
 10  9  3  0  0  0  0
 11  3  2  0  0  0  0
 12 15  1  0  0  0  0
 13 20  2  0  0  0  0
 14  6  1  0  0  0  0
 15 14  2  0  0  0  0
 16 22  1  0  0  0  0
 16 12  2  0  0  0  0
 17  8  2  0  0  0  0
 18  7  1  0  0  0  0
 19  7  2  0  0  0  0
 20 19  1  0  0  0  0
 21 18  2  0  0  0  0
 21 13  1  0  0  0  0
 22 23  2  0  0  0  0
 23 14  1  0  0  0  0
 24  8  1  0  0  0  0
 25 12  1  0  0  0  0
 26 16  1  0  0  0  0
 27  5  1  0  0  0  0
 28 26  1  0  0  0  0
 29 24  1  0  0  0  0
 30 25  1  0  0  0  0
 31 29  1  0  0  0  0
M  END
> <CdId>
1029

> <Mol Weight>
418.4419

> <Formula>
C24H22N2O5

> <Click_ID>
CLK014_D04 __ __ 

$$$$
