CLK035_E02
 OpenBabel03191401532D

 26 28  0  0  0  0  0  0  0  0999 V2000
   -4.5833    2.5500    0.0000 C   0  0  0  0  0  0  0  0  0  0  0  0
   -3.8708    2.9708    0.0000 N   0  0  0  0  0  0  0  0  0  0  0  0
   -4.6750    1.7333    0.0000 N   0  0  0  0  0  0  0  0  0  0  0  0
   -5.3208    2.8958    0.0000 S   0  0  0  0  0  0  0  0  0  0  0  0
   -5.4833    1.5708    0.0000 C   0  0  0  0  0  0  0  0  0  0  0  0
   -3.8708    3.8000    0.0000 C   0  0  0  0  0  0  0  0  0  0  0  0
   -5.8833    2.2958    0.0000 C   0  0  0  0  0  0  0  0  0  0  0  0
   -3.8708    5.4417    0.0000 N   0  3  0  0  0  0  0  0  0  0  0  0
   -3.1583    4.2125    0.0000 C   0  0  0  0  0  0  0  0  0  0  0  0
   -3.1500    5.0292    0.0000 C   0  0  0  0  0  0  0  0  0  0  0  0
   -6.7042    2.3083    0.0000 C   0  0  0  0  0  0  0  0  0  0  0  0
   -4.2458    0.3500    0.0000 C   0  0  0  0  0  0  0  0  0  0  0  0
   -4.4208   -0.4542    0.0000 C   0  0  0  0  0  0  0  0  0  0  0  0
   -5.9083    0.8708    0.0000 C   0  0  0  0  0  0  0  0  0  0  0  0
   -3.8750    6.2667    0.0000 O   0  5  0  0  0  0  0  0  0  0  0  0
   -4.5833    5.0250    0.0000 O   0  0  0  0  0  0  0  0  0  0  0  0
   -4.5958    4.2125    0.0000 O   0  0  0  0  0  0  0  0  0  0  0  0
   -7.1292    1.6000    0.0000 C   0  0  0  0  0  0  0  0  0  0  0  0
   -6.7167    0.8833    0.0000 C   0  0  0  0  0  0  0  0  0  0  0  0
   -4.0583    1.1625    0.0000 C   0  0  0  0  0  0  0  0  0  0  0  0
   -2.4333    3.8000    0.0000 C   0  0  0  0  0  0  0  0  0  0  0  0
   -2.4375    5.4417    0.0000 C   0  0  0  0  0  0  0  0  0  0  0  0
   -7.1042    3.0333    0.0000 C   0  0  0  0  0  0  0  0  0  0  0  0
   -7.1167    0.1583    0.0000 C   0  0  0  0  0  0  0  0  0  0  0  0
   -1.7208    4.2042    0.0000 C   0  0  0  0  0  0  0  0  0  0  0  0
   -1.7208    5.0292    0.0000 C   0  0  0  0  0  0  0  0  0  0  0  0
  2  1  2  0  0  0  0
  3  1  1  0  0  0  0
  4  1  1  0  0  0  0
  5  3  1  0  0  0  0
  6  2  1  0  0  0  0
  7  4  1  0  0  0  0
  7  5  2  0  0  0  0
  8 10  1  0  0  0  0
  9  6  1  0  0  0  0
 10  9  1  0  0  0  0
 11  7  1  0  0  0  0
 12 20  1  0  0  0  0
 13 12  3  0  0  0  0
 14  5  1  0  0  0  0
 15  8  1  0  0  0  0
 16  8  2  0  0  0  0
 17  6  2  0  0  0  0
 18 11  2  0  0  0  0
 19 14  2  0  0  0  0
 19 18  1  0  0  0  0
 20  3  1  0  0  0  0
 21  9  2  0  0  0  0
 22 10  2  0  0  0  0
 22 26  1  0  0  0  0
 23 11  1  0  0  0  0
 24 19  1  0  0  0  0
 25 21  1  0  0  0  0
 26 25  2  0  0  0  0
M  END
> <CdId>
2686

> <Mol Weight>
365.406

> <Formula>
C19H15N3O3S

> <Click_ID>
CLK035_E02 __ __ 

$$$$
