CLK009_A07
 OpenBabel03191401532D

 26 27  0  0  0  0  0  0  0  0999 V2000
   -0.3455    0.3758    0.0000 C    0  0  0  0  0  0  0  0  0  0  0  0
   -0.3455    1.1922    0.0000 C    0  0  0  0  0  0  0  0  0  0  0  0
   -1.0497   -0.0303    0.0000 C    0  0  0  0  0  0  0  0  0  0  0  0
   -1.0497    1.6069    0.0000 C    0  0  0  0  0  0  0  0  0  0  0  0
   -1.7624    1.1922    0.0000 C    0  0  0  0  0  0  0  0  0  0  0  0
   -1.7624    0.3758    0.0000 C    0  0  0  0  0  0  0  0  0  0  0  0
    0.4147   -0.0303    0.0000 C    0  0  0  0  0  0  0  0  0  0  0  0
    0.3931    1.6069    0.0000 C    0  0  0  0  0  0  0  0  0  0  0  0
    2.5054    1.1749    0.0000 C    0  0  0  0  0  0  0  0  0  0  0  0
    0.4147   -0.8985    0.0000 N    0  0  0  0  0  0  0  0  0  0  0  0
    2.4924    0.3455    0.0000 C    0  0  0  0  0  0  0  0  0  0  0  0
    1.1058    0.3974    0.0000 O    0  0  0  0  0  0  0  0  0  0  0  0
    0.3931    2.4189    0.0000 O    0  0  0  0  0  0  0  0  0  0  0  0
   -1.0712   -0.8596    0.0000 Cl   0  0  0  0  0  0  0  0  0  0  0  0
   -1.0497    2.4189    0.0000 Cl   0  0  0  0  0  0  0  0  0  0  0  0
   -2.4837   -0.0518    0.0000 Cl   0  0  0  0  0  0  0  0  0  0  0  0
   -2.4837    1.6069    0.0000 Cl   0  0  0  0  0  0  0  0  0  0  0  0
    1.1188   -1.3002    0.0000 C    0  0  0  0  0  0  0  0  0  0  0  0
    1.0885    1.1922    0.0000 O    0  0  0  0  0  0  0  0  0  0  0  0
    1.1188   -2.1252    0.0000 C    0  0  0  0  0  0  0  0  0  0  0  0
    1.8013    1.5896    0.0000 C    0  0  0  0  0  0  0  0  0  0  0  0
    1.8315   -2.5183    0.0000 C    0  0  0  0  0  0  0  0  0  0  0  0
    0.4017   -2.5443    0.0000 C    0  0  0  0  0  0  0  0  0  0  0  0
    1.8445   -3.3563    0.0000 C    0  0  0  0  0  0  0  0  0  0  0  0
    0.4017   -3.3693    0.0000 C    0  0  0  0  0  0  0  0  0  0  0  0
    1.1188   -3.7839    0.0000 C    0  0  0  0  0  0  0  0  0  0  0  0
  2  1  2  0  0  0  0
  3  1  1  0  0  0  0
  4  2  1  0  0  0  0
  5  6  1  0  0  0  0
  5  4  2  0  0  0  0
  6  3  2  0  0  0  0
  7  1  1  0  0  0  0
  8  2  1  0  0  0  0
  9 21  1  0  0  0  0
 10  7  1  0  0  0  0
 11  9  3  0  0  0  0
 12  7  2  0  0  0  0
 13  8  2  0  0  0  0
 14  3  1  0  0  0  0
 15  4  1  0  0  0  0
 16  6  1  0  0  0  0
 17  5  1  0  0  0  0
 18 10  1  0  0  0  0
 19  8  1  0  0  0  0
 20 18  1  0  0  0  0
 21 19  1  0  0  0  0
 22 20  2  0  0  0  0
 23 20  1  0  0  0  0
 24 22  1  0  0  0  0
 25 23  2  0  0  0  0
 26 25  1  0  0  0  0
 26 24  2  0  0  0  0
M  END
> <CdId>
602

> <Mol Weight>
431.097

> <Formula>
C18H11Cl4NO3

> <Click_ID>
CLK009_A07 __ __ 

$$$$
