CLK034_D06
 OpenBabel03191401532D

 32 36  0  0  0  0  0  0  0  0999 V2000
   -4.5821    2.5493    0.0000 C   0  0  0  0  0  0  0  0  0  0  0  0
   -3.8698    2.9825    0.0000 N   0  0  0  0  0  0  0  0  0  0  0  0
   -5.3486    2.8701    0.0000 S   0  0  0  0  0  0  0  0  0  0  0  0
   -4.6570    1.7371    0.0000 N   0  0  0  0  0  0  0  0  0  0  0  0
   -5.8818    2.2452    0.0000 C   0  0  0  0  0  0  0  0  0  0  0  0
   -0.9955    5.4361    0.0000 N   0  0  0  0  0  0  0  0  0  0  0  0
   -5.4569    1.5454    0.0000 C   0  0  0  0  0  0  0  0  0  0  0  0
   -3.8698    3.7990    0.0000 C   0  0  0  0  0  0  0  0  0  0  0  0
   -0.2333    5.1361    0.0000 C   0  0  0  0  0  0  0  0  0  0  0  0
   -0.9372    6.2650    0.0000 C   0  0  0  0  0  0  0  0  0  0  0  0
   -6.7024    2.2327    0.0000 C   0  0  0  0  0  0  0  0  0  0  0  0
   -1.7121    5.0278    0.0000 C   0  0  0  0  0  0  0  0  0  0  0  0
   -5.8443    0.8205    0.0000 C   0  0  0  0  0  0  0  0  0  0  0  0
   -3.2367    1.4621    0.0000 C   0  0  0  0  0  0  0  0  0  0  0  0
   -2.4618    1.7454    0.0000 C   0  0  0  0  0  0  0  0  0  0  0  0
   -3.1575    4.2114    0.0000 C   0  0  0  0  0  0  0  0  0  0  0  0
   -4.5821    4.2031    0.0000 O   0  0  0  0  0  0  0  0  0  0  0  0
   -0.1333    6.4650    0.0000 C   0  0  0  0  0  0  0  0  0  0  0  0
    0.2916    5.7652    0.0000 C   0  0  0  0  0  0  0  0  0  0  0  0
   -1.5829    6.8107    0.0000 O   0  0  0  0  0  0  0  0  0  0  0  0
   -0.0333    4.3281    0.0000 O   0  0  0  0  0  0  0  0  0  0  0  0
   -4.0197    1.1955    0.0000 C   0  0  0  0  0  0  0  0  0  0  0  0
   -7.1023    1.5079    0.0000 C   0  0  0  0  0  0  0  0  0  0  0  0
   -6.6649    0.7955    0.0000 C   0  0  0  0  0  0  0  0  0  0  0  0
   -1.7329    4.2031    0.0000 C   0  0  0  0  0  0  0  0  0  0  0  0
   -2.4326    5.4528    0.0000 C   0  0  0  0  0  0  0  0  0  0  0  0
   -3.1492    5.0403    0.0000 C   0  0  0  0  0  0  0  0  0  0  0  0
   -2.4451    3.8073    0.0000 C   0  0  0  0  0  0  0  0  0  0  0  0
   -7.1398    2.9325    0.0000 C   0  0  0  0  0  0  0  0  0  0  0  0
   -7.9146    1.4829    0.0000 C   0  0  0  0  0  0  0  0  0  0  0  0
   -7.9646    2.9117    0.0000 C   0  0  0  0  0  0  0  0  0  0  0  0
   -8.3520    2.1869    0.0000 C   0  0  0  0  0  0  0  0  0  0  0  0
  2  1  2  0  0  0  0
  3  1  1  0  0  0  0
  4  1  1  0  0  0  0
  5  3  1  0  0  0  0
  5  7  2  0  0  0  0
  6 12  1  0  0  0  0
  7  4  1  0  0  0  0
  8  2  1  0  0  0  0
  9  6  1  0  0  0  0
 10  6  1  0  0  0  0
 11  5  1  0  0  0  0
 12 25  2  0  0  0  0
 12 26  1  0  0  0  0
 13  7  1  0  0  0  0
 14 22  1  0  0  0  0
 15 14  3  0  0  0  0
 16  8  1  0  0  0  0
 17  8  2  0  0  0  0
 18 10  1  0  0  0  0
 19  9  1  0  0  0  0
 19 18  1  0  0  0  0
 20 10  2  0  0  0  0
 21  9  2  0  0  0  0
 22  4  1  0  0  0  0
 23 11  1  0  0  0  0
 24 13  2  0  0  0  0
 24 23  1  0  0  0  0
 25 28  1  0  0  0  0
 26 27  2  0  0  0  0
 27 16  1  0  0  0  0
 28 16  2  0  0  0  0
 29 11  2  0  0  0  0
 30 23  2  0  0  0  0
 30 32  1  0  0  0  0
 31 29  1  0  0  0  0
 32 31  2  0  0  0  0
M  END
> <CdId>
2600

> <Mol Weight>
439.486

> <Formula>
C25H17N3O3S

> <Click_ID>
CLK034_D06 __ __ 

$$$$
