CLK027_B09
 OpenBabel03191401532D

 28 30  0  0  0  0  0  0  0  0999 V2000
   -0.7077    0.8451    0.0000 N   0  0  0  0  0  0  0  0  0  0  0  0
   -1.4188    1.2642    0.0000 C   0  0  0  0  0  0  0  0  0  0  0  0
   -0.7111    0.0171    0.0000 C   0  0  3  0  0  0  0  0  0  0  0  0
    0.3024    1.8552    0.0000 S   0  0  0  0  0  0  0  0  0  0  0  0
   -1.4326   -0.3848    0.0000 N   0  0  0  0  0  0  0  0  0  0  0  0
    0.0893    1.0581    0.0000 N   0  0  0  0  0  0  0  0  0  0  0  0
   -2.1334    0.8520    0.0000 C   0  0  0  0  0  0  0  0  0  0  0  0
   -2.1369    0.0275    0.0000 C   0  0  0  0  0  0  0  0  0  0  0  0
    0.0035   -0.3951    0.0000 C   0  0  0  0  0  0  0  0  0  0  0  0
    0.7077    0.0171    0.0000 C   0  0  0  0  0  0  0  0  0  0  0  0
    3.5626   -1.6216    0.0000 C   0  0  0  0  0  0  0  0  0  0  0  0
    3.5626   -2.4392    0.0000 C   0  0  0  0  0  0  0  0  0  0  0  0
    1.4223   -0.3848    0.0000 C   0  0  0  0  0  0  0  0  0  0  0  0
   -1.4258    2.0922    0.0000 O   0  0  0  0  0  0  0  0  0  0  0  0
    0.8829    1.2712    0.0000 O   0  0  0  0  0  0  0  0  0  0  0  0
   -0.2851    2.4426    0.0000 O   0  0  0  0  0  0  0  0  0  0  0  0
    1.4223   -1.2127    0.0000 C   0  0  0  0  0  0  0  0  0  0  0  0
   -0.0068   -1.2127    0.0000 C   0  0  0  0  0  0  0  0  0  0  0  0
    0.7077   -1.6250    0.0000 C   0  0  0  0  0  0  0  0  0  0  0  0
    1.0959    2.0681    0.0000 C   0  0  0  0  0  0  0  0  0  0  0  0
   -2.8514    1.2642    0.0000 C   0  0  0  0  0  0  0  0  0  0  0  0
    2.1334    0.0309    0.0000 O   0  0  0  0  0  0  0  0  0  0  0  0
    2.1334   -1.6250    0.0000 O   0  0  0  0  0  0  0  0  0  0  0  0
    2.8481   -1.2093    0.0000 C   0  0  0  0  0  0  0  0  0  0  0  0
   -2.8514   -0.3951    0.0000 C   0  0  0  0  0  0  0  0  0  0  0  0
    2.8481   -0.3813    0.0000 C   0  0  0  0  0  0  0  0  0  0  0  0
   -3.5660    0.8451    0.0000 C   0  0  0  0  0  0  0  0  0  0  0  0
   -3.5660    0.0171    0.0000 C   0  0  0  0  0  0  0  0  0  0  0  0
  2  1  1  0  0  0  0
  3  1  1  0  0  0  0
  4  6  1  0  0  0  0
  5  3  1  0  0  0  0
  6  1  1  0  0  0  0
  7  2  1  0  0  0  0
  7  8  1  0  0  0  0
  8  5  1  0  0  0  0
  9  3  1  0  0  0  0
 10  9  1  0  0  0  0
 11 24  1  0  0  0  0
 12 11  3  0  0  0  0
 13 10  2  0  0  0  0
 13 17  1  0  0  0  0
 14  2  2  0  0  0  0
 15  4  2  0  0  0  0
 16  4  2  0  0  0  0
 17 19  2  0  0  0  0
 18  9  2  0  0  0  0
 19 18  1  0  0  0  0
 20  4  1  0  0  0  0
 21  7  2  0  0  0  0
 22 13  1  0  0  0  0
 23 17  1  0  0  0  0
 24 23  1  0  0  0  0
 25  8  2  0  0  0  0
 26 22  1  0  0  0  0
 27 21  1  0  0  0  0
 27 28  2  0  0  0  0
 28 25  1  0  0  0  0
M  END
> <CdId>
2033

> <Mol Weight>
401.436

> <Formula>
C19H19N3O5S

> <Click_ID>
CLK027_B09 __ __ 

$$$$
