CLK032_H11
 OpenBabel03191401532D

 22 24  0  0  0  0  0  0  0  0999 V2000
   -4.5958    2.5583    0.0000 C   0  0  0  0  0  0  0  0  0  0  0  0
   -3.8625    2.9833    0.0000 N   0  0  0  0  0  0  0  0  0  0  0  0
   -4.6875    1.7333    0.0000 N   0  0  0  0  0  0  0  0  0  0  0  0
   -5.3208    2.9000    0.0000 S   0  0  0  0  0  0  0  0  0  0  0  0
   -5.4958    1.5833    0.0000 C   0  0  0  0  0  0  0  0  0  0  0  0
   -5.8958    2.3083    0.0000 C   0  0  0  0  0  0  0  0  0  0  0  0
   -3.8708    3.8000    0.0000 C   0  0  0  0  0  0  0  0  0  0  0  0
   -4.2708    0.3583    0.0000 C   0  0  0  0  0  0  0  0  0  0  0  0
   -4.4583   -0.4542    0.0000 C   0  0  0  0  0  0  0  0  0  0  0  0
   -4.5833    4.2125    0.0000 O   0  0  0  0  0  0  0  0  0  0  0  0
   -3.1583    4.2125    0.0000 C   0  0  0  0  0  0  0  0  0  0  0  0
   -5.9250    0.8833    0.0000 C   0  0  0  0  0  0  0  0  0  0  0  0
   -4.0833    1.1625    0.0000 C   0  0  0  0  0  0  0  0  0  0  0  0
   -6.7125    2.3333    0.0000 C   0  0  0  0  0  0  0  0  0  0  0  0
   -7.1417    1.6250    0.0000 C   0  0  0  0  0  0  0  0  0  0  0  0
   -6.7292    0.8958    0.0000 C   0  0  0  0  0  0  0  0  0  0  0  0
   -5.5333    0.1500    0.0000 C   0  0  0  0  0  0  0  0  0  0  0  0
   -3.1583    5.0292    0.0000 C   0  0  0  0  0  0  0  0  0  0  0  0
   -2.4375    3.8000    0.0000 C   0  0  0  0  0  0  0  0  0  0  0  0
   -2.4375    5.4417    0.0000 C   0  0  0  0  0  0  0  0  0  0  0  0
   -1.7208    4.2042    0.0000 C   0  0  0  0  0  0  0  0  0  0  0  0
   -1.7250    5.0292    0.0000 C   0  0  0  0  0  0  0  0  0  0  0  0
  2  1  2  0  0  0  0
  3  1  1  0  0  0  0
  4  1  1  0  0  0  0
  5  3  1  0  0  0  0
  6  4  1  0  0  0  0
  6  5  2  0  0  0  0
  7  2  1  0  0  0  0
  8 13  1  0  0  0  0
  9  8  3  0  0  0  0
 10  7  2  0  0  0  0
 11  7  1  0  0  0  0
 12  5  1  0  0  0  0
 13  3  1  0  0  0  0
 14  6  1  0  0  0  0
 15 14  2  0  0  0  0
 16 12  2  0  0  0  0
 16 15  1  0  0  0  0
 17 12  1  0  0  0  0
 18 11  1  0  0  0  0
 19 11  2  0  0  0  0
 20 18  2  0  0  0  0
 21 19  1  0  0  0  0
 22 21  2  0  0  0  0
 22 20  1  0  0  0  0
M  END
> <CdId>
2485

> <Mol Weight>
306.382

> <Formula>
C18H14N2OS

> <Click_ID>
CLK032_H11 __ __ 

$$$$
