CLK014_E10
 OpenBabel03191401532D

 18 18  0  0  0  0  0  0  0  0999 V2000
    2.7667   -1.3000    0.0000 C   0  0  0  0  0  0  0  0  0  0  0  0
    3.5917   -1.3000    0.0000 C   0  0  0  0  0  0  0  0  0  0  0  0
    2.7667    0.3500    0.0000 C   0  0  0  0  0  0  0  0  0  0  0  0
    2.0542   -0.8875    0.0000 O   0  0  0  0  0  0  0  0  0  0  0  0
    3.5917    0.3583    0.0000 C   0  0  0  0  0  0  0  0  0  0  0  0
    4.1750   -0.7167    0.0000 N   0  0  0  0  0  0  0  0  0  0  0  0
    2.0542   -0.0625    0.0000 C   0  0  0  0  0  0  0  0  0  0  0  0
    2.7667   -2.1250    0.0000 O   0  0  0  0  0  0  0  0  0  0  0  0
    3.5875   -2.1250    0.0000 O   0  0  0  0  0  0  0  0  0  0  0  0
    4.9667   -0.9292    0.0000 C   0  0  0  0  0  0  0  0  0  0  0  0
    5.5542   -0.3500    0.0000 C   0  0  0  0  0  0  0  0  0  0  0  0
    1.3375    0.3500    0.0000 C   0  0  0  0  0  0  0  0  0  0  0  0
    1.8375    0.7375    0.0000 C   0  0  0  0  0  0  0  0  0  0  0  0
    6.3542   -0.5667    0.0000 C   0  0  0  0  0  0  0  0  0  0  0  0
    5.3417    0.4458    0.0000 C   0  0  0  0  0  0  0  0  0  0  0  0
    6.9375    0.0083    0.0000 C   0  0  0  0  0  0  0  0  0  0  0  0
    5.9292    1.0208    0.0000 C   0  0  0  0  0  0  0  0  0  0  0  0
    6.7292    0.8083    0.0000 C   0  0  0  0  0  0  0  0  0  0  0  0
  2  1  1  0  0  0  0
  3  7  1  0  0  0  0
  4  1  1  0  0  0  0
  5  3  3  0  0  0  0
  6  2  1  0  0  0  0
  7  4  1  0  0  0  0
  8  1  2  0  0  0  0
  9  2  2  0  0  0  0
 10  6  1  0  0  0  0
 11 10  1  0  0  0  0
 12  7  1  0  0  0  0
 13  7  1  0  0  0  0
 14 11  2  0  0  0  0
 15 11  1  0  0  0  0
 16 14  1  0  0  0  0
 16 18  2  0  0  0  0
 17 15  2  0  0  0  0
 18 17  1  0  0  0  0
M  END
> <CdId>
1045

> <Mol Weight>
245.2738

> <Formula>
C14H15NO3

> <Click_ID>
CLK014_E10 __ __ 

$$$$
