CLK014_D03
 OpenBabel03191401532D

 22 23  0  0  0  0  0  0  0  0999 V2000
    1.5650   -0.8158    0.0000 N    0  0  0  0  0  0  0  0  0  0  0  0
    1.8230   -1.6024    0.0000 C    0  0  0  0  0  0  0  0  0  0  0  0
    2.9010   -0.8158    0.0000 C    0  0  0  0  0  0  0  0  0  0  0  0
    2.2350   -0.3288    0.0000 C    0  0  0  0  0  0  0  0  0  0  0  0
    2.6470   -1.6024    0.0000 S    0  0  0  0  0  0  0  0  0  0  0  0
    3.6876   -0.5619    0.0000 C    0  0  0  0  0  0  0  0  0  0  0  0
    3.8707    0.2372    0.0000 C    0  0  0  0  0  0  0  0  0  0  0  0
    4.8363    1.2736    0.0000 C    0  0  0  0  0  0  0  0  0  0  0  0
    4.6573    0.4870    0.0000 C    0  0  0  0  0  0  0  0  0  0  0  0
    4.2328    1.8313    0.0000 C    0  0  0  0  0  0  0  0  0  0  0  0
    0.6118    0.2455    0.0000 C    0  0  0  0  0  0  0  0  0  0  0  0
    3.4503    1.5940    0.0000 C    0  0  0  0  0  0  0  0  0  0  0  0
    3.2631    0.7866    0.0000 C    0  0  0  0  0  0  0  0  0  0  0  0
    0.3913    1.0446    0.0000 C    0  0  0  0  0  0  0  0  0  0  0  0
    1.3360   -2.2642    0.0000 O    0  0  0  0  0  0  0  0  0  0  0  0
    2.2267    0.4952    0.0000 O    0  0  0  0  0  0  0  0  0  0  0  0
    0.7866   -0.5619    0.0000 C    0  0  0  0  0  0  0  0  0  0  0  0
    2.8510    2.1559    0.0000 Br   0  0  0  0  0  0  0  0  0  0  0  0
    5.2441   -0.0749    0.0000 O    0  0  0  0  0  0  0  0  0  0  0  0
    4.4201    2.6429    0.0000 O    0  0  0  0  0  0  0  0  0  0  0  0
    6.0350    0.1623    0.0000 C    0  0  0  0  0  0  0  0  0  0  0  0
    3.8207    3.2047    0.0000 C    0  0  0  0  0  0  0  0  0  0  0  0
  2  1  1  0  0  0  0
  3  4  1  0  0  0  0
  3  5  1  0  0  0  0
  4  1  1  0  0  0  0
  5  2  1  0  0  0  0
  6  3  2  0  0  0  0
  7  6  1  0  0  0  0
  8  9  1  0  0  0  0
  9  7  2  0  0  0  0
 10 12  1  0  0  0  0
 10  8  2  0  0  0  0
 11 17  1  0  0  0  0
 12 13  2  0  0  0  0
 13  7  1  0  0  0  0
 14 11  3  0  0  0  0
 15  2  2  0  0  0  0
 16  4  2  0  0  0  0
 17  1  1  0  0  0  0
 18 12  1  0  0  0  0
 19  9  1  0  0  0  0
 20 10  1  0  0  0  0
 21 19  1  0  0  0  0
 22 20  1  0  0  0  0
M  END
> <CdId>
1028

> <Mol Weight>
382.229

> <Formula>
C15H12BrNO4S

> <Click_ID>
CLK014_D03 __ __ 

$$$$
