CLK018_F05
 OpenBabel03191401532D

 28 31  0  0  0  0  0  0  0  0999 V2000
   -0.4297   -0.4526    0.0000 N   0  0  0  0  0  0  0  0  0  0  0  0
   -1.1458   -1.6901    0.0000 C   0  0  0  0  0  0  0  0  0  0  0  0
   -0.4297   -1.2776    0.0000 N   0  0  0  0  0  0  0  0  0  0  0  0
   -1.1458   -0.0402    0.0000 C   0  0  0  0  0  0  0  0  0  0  0  0
   -1.8333   -0.4526    0.0000 C   0  0  0  0  0  0  0  0  0  0  0  0
   -1.8333   -1.2776    0.0000 C   0  0  0  0  0  0  0  0  0  0  0  0
   -1.1458   -2.5151    0.0000 N   0  0  0  0  0  0  0  0  0  0  0  0
   -1.8848    4.4974    0.0000 C   0  0  0  0  0  0  0  0  0  0  0  0
   -2.6067    4.9098    0.0000 C   0  0  0  0  0  0  0  0  0  0  0  0
   -1.1458    0.7848    0.0000 C   0  0  0  0  0  0  0  0  0  0  0  0
   -0.4297    1.1973    0.0000 C   0  0  0  0  0  0  0  0  0  0  0  0
   -1.8333    1.1973    0.0000 C   0  0  0  0  0  0  0  0  0  0  0  0
   -1.8333   -2.9276    0.0000 C   0  0  0  0  0  0  0  0  0  0  0  0
   -3.2598   -3.7526    0.0000 C   0  0  0  0  0  0  0  0  0  0  0  0
   -1.1458    2.4348    0.0000 C   0  0  0  0  0  0  0  0  0  0  0  0
   -0.4067    2.0223    0.0000 C   0  0  0  0  0  0  0  0  0  0  0  0
   -1.8333    2.0223    0.0000 C   0  0  0  0  0  0  0  0  0  0  0  0
   -2.5437   -2.5151    0.0000 C   0  0  0  0  0  0  0  0  0  0  0  0
   -1.8333   -3.7526    0.0000 C   0  0  0  0  0  0  0  0  0  0  0  0
   -2.5208   -4.1651    0.0000 C   0  0  0  0  0  0  0  0  0  0  0  0
   -3.2598   -2.9276    0.0000 C   0  0  0  0  0  0  0  0  0  0  0  0
   -1.8848    3.6723    0.0000 C   0  0  0  0  0  0  0  0  0  0  0  0
   -3.9817   -4.1480    0.0000 O   0  0  0  0  0  0  0  0  0  0  0  0
   -2.5437   -0.0402    0.0000 C   0  0  0  0  0  0  0  0  0  0  0  0
   -1.1687    3.2598    0.0000 O   0  0  0  0  0  0  0  0  0  0  0  0
   -2.5437   -1.6901    0.0000 C   0  0  0  0  0  0  0  0  0  0  0  0
   -3.2598   -0.4526    0.0000 C   0  0  0  0  0  0  0  0  0  0  0  0
   -3.2598   -1.2776    0.0000 C   0  0  0  0  0  0  0  0  0  0  0  0
  2  3  2  0  0  0  0
  2  6  1  0  0  0  0
  3  1  1  0  0  0  0
  4  1  2  0  0  0  0
  5  4  1  0  0  0  0
  6  5  1  0  0  0  0
  7  2  1  0  0  0  0
  8 22  1  0  0  0  0
  9  8  3  0  0  0  0
 10  4  1  0  0  0  0
 11 10  2  0  0  0  0
 12 10  1  0  0  0  0
 13  7  1  0  0  0  0
 14 20  1  0  0  0  0
 15 17  1  0  0  0  0
 15 16  2  0  0  0  0
 16 11  1  0  0  0  0
 17 12  2  0  0  0  0
 18 13  2  0  0  0  0
 19 13  1  0  0  0  0
 20 19  2  0  0  0  0
 21 18  1  0  0  0  0
 21 14  2  0  0  0  0
 22 25  1  0  0  0  0
 23 14  1  0  0  0  0
 24  5  2  0  0  0  0
 25 15  1  0  0  0  0
 26  6  2  0  0  0  0
 27 24  1  0  0  0  0
 28 27  2  0  0  0  0
 28 26  1  0  0  0  0
M  END
> <CdId>
1370

> <Mol Weight>
367.4

> <Formula>
C23H17N3O2

> <Click_ID>
CLK018_F05 __ __ 

$$$$
