CLK028_D08
 OpenBabel03191401532D

 27 29  0  0  0  0  0  0  0  0999 V2000
    0.3740   -1.9555    0.0000 C   0  0  0  0  0  0  0  0  0  0  0  0
    0.9092   -0.7342    0.0000 N   0  0  0  0  0  0  0  0  0  0  0  0
    0.1990   -1.1492    0.0000 C   0  0  0  0  0  0  0  0  0  0  0  0
    1.5232   -1.2933    0.0000 N   0  0  0  0  0  0  0  0  0  0  0  0
    1.1939   -2.0344    0.0000 C   0  0  0  0  0  0  0  0  0  0  0  0
   -0.1750   -2.5730    0.0000 C   0  0  0  0  0  0  0  0  0  0  0  0
    1.1218    0.0515    0.0000 C   0  0  0  0  0  0  0  0  0  0  0  0
    1.7943    2.4255    0.0000 C   0  0  0  0  0  0  0  0  0  0  0  0
   -2.0138    0.7170    0.0000 C   0  0  0  0  0  0  0  0  0  0  0  0
   -2.2677    1.5061    0.0000 C   0  0  0  0  0  0  0  0  0  0  0  0
   -0.5695   -0.8096    0.0000 O   0  0  0  0  0  0  0  0  0  0  0  0
    1.5575    1.6296    0.0000 C   0  0  0  0  0  0  0  0  0  0  0  0
   -0.9880   -2.4049    0.0000 C   0  0  0  0  0  0  0  0  0  0  0  0
    1.2316    3.0258    0.0000 O   0  0  0  0  0  0  0  0  0  0  0  0
    1.9109    0.2641    0.0000 C   0  0  0  0  0  0  0  0  0  0  0  0
    0.5455    0.6313    0.0000 C   0  0  0  0  0  0  0  0  0  0  0  0
    0.7548    1.4168    0.0000 C   0  0  0  0  0  0  0  0  0  0  0  0
    2.1236    1.0635    0.0000 C   0  0  0  0  0  0  0  0  0  0  0  0
   -1.2522   -1.6227    0.0000 C   0  0  0  0  0  0  0  0  0  0  0  0
    2.5970    2.6176    0.0000 O   0  0  0  0  0  0  0  0  0  0  0  0
   -2.0516   -1.4615    0.0000 C   0  0  0  0  0  0  0  0  0  0  0  0
    1.6090   -2.7548    0.0000 C   0  0  0  0  0  0  0  0  0  0  0  0
   -1.7634   -0.0618    0.0000 C   0  0  0  0  0  0  0  0  0  0  0  0
   -2.3122   -0.6724    0.0000 O   0  0  0  0  0  0  0  0  0  0  0  0
   -2.3397   -2.8612    0.0000 C   0  0  0  0  0  0  0  0  0  0  0  0
   -1.5300   -3.0224    0.0000 C   0  0  0  0  0  0  0  0  0  0  0  0
   -2.6004   -2.0824    0.0000 C   0  0  0  0  0  0  0  0  0  0  0  0
  2  3  1  0  0  0  0
  2  4  1  0  0  0  0
  3  1  1  0  0  0  0
  4  5  2  0  0  0  0
  5  1  1  0  0  0  0
  6  1  2  0  0  0  0
  7  2  1  0  0  0  0
  8 12  1  0  0  0  0
  9 23  1  0  0  0  0
 10  9  3  0  0  0  0
 11  3  2  0  0  0  0
 12 17  2  0  0  0  0
 13  6  1  0  0  0  0
 14  8  2  0  0  0  0
 15  7  1  0  0  0  0
 16  7  2  0  0  0  0
 17 16  1  0  0  0  0
 18 15  2  0  0  0  0
 18 12  1  0  0  0  0
 19 13  1  0  0  0  0
 20  8  1  0  0  0  0
 21 19  2  0  0  0  0
 21 27  1  0  0  0  0
 22  5  1  0  0  0  0
 23 24  1  0  0  0  0
 24 21  1  0  0  0  0
 25 26  1  0  0  0  0
 26 13  2  0  0  0  0
 27 25  2  0  0  0  0
M  END
> <CdId>
2122

> <Mol Weight>
360.3627

> <Formula>
C21H16N2O4

> <Click_ID>
CLK028_D08 __ __ 

$$$$
