CLK010_E05
 OpenBabel03191401532D

 26 28  0  0  0  0  0  0  0  0999 V2000
    3.3191    0.6937    0.0000 C    0  0  0  0  0  0  0  0  0  0  0  0
    4.0377   -0.5483    0.0000 C    0  0  0  0  0  0  0  0  0  0  0  0
    2.0106    0.9803    0.0000 N    0  0  0  0  0  0  0  0  0  0  0  0
    4.0419    0.2824    0.0000 C    0  0  0  0  0  0  0  0  0  0  0  0
    2.5672    0.3572    0.0000 C    0  0  0  0  0  0  0  0  0  0  0  0
    3.3191   -0.9596    0.0000 C    0  0  0  0  0  0  0  0  0  0  0  0
    3.2401    1.5162    0.0000 C    0  0  0  0  0  0  0  0  0  0  0  0
    2.4343    1.6907    0.0000 C    0  0  0  0  0  0  0  0  0  0  0  0
    4.7522   -0.9638    0.0000 C    0  0  0  0  0  0  0  0  0  0  0  0
    2.6046   -0.5401    0.0000 N    0  0  0  0  0  0  0  0  0  0  0  0
    5.4626   -1.3750    0.0000 N    0  0  0  0  0  0  0  0  0  0  0  0
    0.7145    1.5660    0.0000 C    0  0  0  0  0  0  0  0  0  0  0  0
    0.2659    2.2639    0.0000 C    0  0  0  0  0  0  0  0  0  0  0  0
    1.8860   -0.9513    0.0000 C    0  0  0  0  0  0  0  0  0  0  0  0
    3.3191   -1.7863    0.0000 O    0  0  0  0  0  0  0  0  0  0  0  0
    1.1714   -0.5401    0.0000 C    0  0  0  0  0  0  0  0  0  0  0  0
    1.1881    0.8931    0.0000 C    0  0  0  0  0  0  0  0  0  0  0  0
    0.4653   -0.9513    0.0000 C    0  0  0  0  0  0  0  0  0  0  0  0
   -0.2575   -0.5401    0.0000 Br   0  0  0  0  0  0  0  0  0  0  0  0
    2.1809    2.4758    0.0000 C    0  0  0  0  0  0  0  0  0  0  0  0
    3.7927    2.1268    0.0000 C    0  0  0  0  0  0  0  0  0  0  0  0
    1.1714   -2.1933    0.0000 C    0  0  0  0  0  0  0  0  0  0  0  0
    1.8860   -1.7821    0.0000 C    0  0  0  0  0  0  0  0  0  0  0  0
    0.4653   -1.7821    0.0000 C    0  0  0  0  0  0  0  0  0  0  0  0
    2.7334    3.0864    0.0000 C    0  0  0  0  0  0  0  0  0  0  0  0
    3.5434    2.9119    0.0000 C    0  0  0  0  0  0  0  0  0  0  0  0
  2  4  2  0  0  0  0
  3  5  1  0  0  0  0
  3  8  1  0  0  0  0
  4  1  1  0  0  0  0
  5  1  2  0  0  0  0
  6  2  1  0  0  0  0
  7  1  1  0  0  0  0
  8  7  1  0  0  0  0
  9  2  1  0  0  0  0
 10  6  1  0  0  0  0
 11  9  3  0  0  0  0
 12 17  1  0  0  0  0
 13 12  3  0  0  0  0
 14 10  1  0  0  0  0
 15  6  2  0  0  0  0
 16 14  2  0  0  0  0
 17  3  1  0  0  0  0
 18 16  1  0  0  0  0
 19 18  1  0  0  0  0
 20  8  2  0  0  0  0
 20 25  1  0  0  0  0
 21  7  2  0  0  0  0
 22 23  2  0  0  0  0
 23 14  1  0  0  0  0
 24 22  1  0  0  0  0
 24 18  2  0  0  0  0
 25 26  2  0  0  0  0
 26 21  1  0  0  0  0
M  END
> <CdId>
720

> <Mol Weight>
404.259

> <Formula>
C21H14BrN3O

> <Click_ID>
CLK010_E05 __ __ 

$$$$
