CLK003_E06
 OpenBabel03191401532D

 27 29  0  0  0  0  0  0  0  0999 V2000
   -1.9871   -0.0644    0.0000 C   0  0  0  0  0  0  0  0  0  0  0  0
   -1.1756    0.0796    0.0000 C   0  0  3  0  0  0  0  0  0  0  0  0
   -2.0971   -0.8760    0.0000 C   0  0  0  0  0  0  0  0  0  0  0  0
   -2.6317    0.4512    0.0000 C   0  0  0  0  0  0  0  0  0  0  0  0
   -0.7811   -0.6485    0.0000 C   0  0  0  0  0  0  0  0  0  0  0  0
   -0.2427    0.7054    0.0000 C   0  0  0  0  0  0  0  0  0  0  0  0
   -1.4372    1.0238    0.0000 O   0  0  0  0  0  0  0  0  0  0  0  0
   -1.3613   -1.2400    0.0000 N   0  0  0  0  0  0  0  0  0  0  0  0
   -2.8669   -1.1869    0.0000 C   0  0  0  0  0  0  0  0  0  0  0  0
   -3.3940    0.1441    0.0000 C   0  0  0  0  0  0  0  0  0  0  0  0
    0.0341   -0.7661    0.0000 O   0  0  0  0  0  0  0  0  0  0  0  0
    0.5499    0.2920    0.0000 C   0  0  0  0  0  0  0  0  0  0  0  0
   -1.2173   -2.0515    0.0000 C   0  0  0  0  0  0  0  0  0  0  0  0
   -3.5115   -0.6787    0.0000 C   0  0  0  0  0  0  0  0  0  0  0  0
    1.2438    0.7470    0.0000 C   0  0  0  0  0  0  0  0  0  0  0  0
    0.5840   -0.3944    0.0000 O   0  0  0  0  0  0  0  0  0  0  0  0
   -1.8506   -2.5786    0.0000 C   0  0  0  0  0  0  0  0  0  0  0  0
    1.9719    0.3640    0.0000 C   0  0  0  0  0  0  0  0  0  0  0  0
    1.2097    1.5624    0.0000 C   0  0  0  0  0  0  0  0  0  0  0  0
   -2.4838   -3.1096    0.0000 C   0  0  0  0  0  0  0  0  0  0  0  0
    2.6734    0.8039    0.0000 C   0  0  0  0  0  0  0  0  0  0  0  0
    1.9036    2.0136    0.0000 C   0  0  0  0  0  0  0  0  0  0  0  0
    2.6317    1.6268    0.0000 C   0  0  0  0  0  0  0  0  0  0  0  0
    3.4016    0.4210    0.0000 O   0  0  0  0  0  0  0  0  0  0  0  0
    3.3333    2.0706    0.0000 O   0  0  0  0  0  0  0  0  0  0  0  0
    3.4432   -0.4019    0.0000 C   0  0  0  0  0  0  0  0  0  0  0  0
    4.0614    1.6951    0.0000 C   0  0  0  0  0  0  0  0  0  0  0  0
  1  2  1  0  0  0  0
  1  3  2  0  0  0  0
  1  4  1  0  0  0  0
  2  5  1  0  0  0  0
  2  6  1  0  0  0  0
  2  7  1  0  0  0  0
  3  8  1  0  0  0  0
  3  9  1  0  0  0  0
  4 10  2  0  0  0  0
  5 11  2  0  0  0  0
  5  8  1  0  0  0  0
  6 12  1  0  0  0  0
  8 13  1  0  0  0  0
  9 14  2  0  0  0  0
 10 14  1  0  0  0  0
 12 15  1  0  0  0  0
 12 16  2  0  0  0  0
 13 17  1  0  0  0  0
 15 18  1  0  0  0  0
 15 19  2  0  0  0  0
 17 20  3  0  0  0  0
 18 21  2  0  0  0  0
 19 22  1  0  0  0  0
 21 23  1  0  0  0  0
 21 24  1  0  0  0  0
 22 23  2  0  0  0  0
 23 25  1  0  0  0  0
 24 26  1  0  0  0  0
 25 27  1  0  0  0  0
M  END
> <CdId>
205

> <Mol Weight>
365.3793

> <Formula>
C21H19NO5

> <Click_ID>
CLK003_E06 __ __ 

$$$$
