CLK046G11
 OpenBabel03191401532D

 15 15  0  0  0  0  0  0  0  0999 V2000
    0.2833    0.0000    0.0000 C    0  0  0  0  0  0  0  0  0  0  0  0
   -0.4292   -0.4125    0.0000 C    0  0  0  0  0  0  0  0  0  0  0  0
   -2.5750    0.0000    0.0000 C    0  0  0  0  0  0  0  0  0  0  0  0
   -3.2875    0.4125    0.0000 C    0  0  0  0  0  0  0  0  0  0  0  0
    1.0000   -0.4125    0.0000 C    0  0  0  0  0  0  0  0  0  0  0  0
    0.2833    0.8250    0.0000 C    0  0  0  0  0  0  0  0  0  0  0  0
   -0.4292   -1.2375    0.0000 O    0  0  0  0  0  0  0  0  0  0  0  0
   -1.1458    0.0000    0.0000 N    0  0  0  0  0  0  0  0  0  0  0  0
    1.7125    0.0000    0.0000 C    0  0  0  0  0  0  0  0  0  0  0  0
    1.0000    1.2375    0.0000 C    0  0  0  0  0  0  0  0  0  0  0  0
    1.7125    0.8250    0.0000 C    0  0  0  0  0  0  0  0  0  0  0  0
    1.0000    2.0625    0.0000 Cl   0  0  0  0  0  0  0  0  0  0  0  0
   -1.8583   -0.4125    0.0000 C    0  0  0  0  0  0  0  0  0  0  0  0
    1.0000   -1.2375    0.0000 O    0  0  0  0  0  0  0  0  0  0  0  0
    1.7125   -1.6500    0.0000 C    0  0  0  0  0  0  0  0  0  0  0  0
  2  1  1  0  0  0  0
  3 13  1  0  0  0  0
  4  3  3  0  0  0  0
  5  1  2  0  0  0  0
  6  1  1  0  0  0  0
  7  2  2  0  0  0  0
  8  2  1  0  0  0  0
  9  5  1  0  0  0  0
 10  6  2  0  0  0  0
 10 11  1  0  0  0  0
 11  9  2  0  0  0  0
 12 10  1  0  0  0  0
 13  8  1  0  0  0  0
 14  5  1  0  0  0  0
 15 14  1  0  0  0  0
M  END
> <CdId>
3567

> <Mol Weight>
223.656

> <Formula>
C11H10ClNO2

> <Click_ID>
CLK046G11 __ __ 

$$$$
