CLK029_H08
 OpenBabel03191401532D

 30 32  0  0  0  0  0  0  0  0999 V2000
   -1.1649    2.3882    0.0000 C   0  0  0  0  0  0  0  0  0  0  0  0
   -0.3382    2.3799    0.0000 N   0  0  0  0  0  0  0  0  0  0  0  0
   -1.6492    1.7244    0.0000 N   0  0  0  0  0  0  0  0  0  0  0  0
   -1.6492    3.0563    0.0000 S   0  0  0  0  0  0  0  0  0  0  0  0
   -2.4383    2.8016    0.0000 C   0  0  0  0  0  0  0  0  0  0  0  0
   -2.4383    1.9749    0.0000 C   0  0  0  0  0  0  0  0  0  0  0  0
    0.0752    3.0939    0.0000 C   0  0  0  0  0  0  0  0  0  0  0  0
   -4.5928    3.2192    0.0000 C   0  0  0  0  0  0  0  0  0  0  0  0
   -3.1523    3.2149    0.0000 C   0  0  0  0  0  0  0  0  0  0  0  0
   -3.8663    2.8016    0.0000 C   0  0  0  0  0  0  0  0  0  0  0  0
   -1.9498    0.3215    0.0000 C   0  0  0  0  0  0  0  0  0  0  0  0
   -3.1523    1.5615    0.0000 C   0  0  0  0  0  0  0  0  0  0  0  0
   -2.5010   -0.2923    0.0000 C   0  0  0  0  0  0  0  0  0  0  0  0
    0.9019    3.0939    0.0000 C   0  0  0  0  0  0  0  0  0  0  0  0
    2.5470    3.0897    0.0000 C   0  0  0  0  0  0  0  0  0  0  0  0
   -0.3382    3.8079    0.0000 O   0  0  0  0  0  0  0  0  0  0  0  0
   -3.8663    1.9749    0.0000 C   0  0  0  0  0  0  0  0  0  0  0  0
    3.3820    3.0772    0.0000 N   0  0  0  0  0  0  0  0  0  0  0  0
   -5.2985    2.8058    0.0000 O   0  0  0  0  0  0  0  0  0  0  0  0
   -1.3987    0.9352    0.0000 C   0  0  0  0  0  0  0  0  0  0  0  0
    1.3152    3.8079    0.0000 C   0  0  0  0  0  0  0  0  0  0  0  0
    1.3152    2.3757    0.0000 C   0  0  0  0  0  0  0  0  0  0  0  0
    2.1336    3.8037    0.0000 C   0  0  0  0  0  0  0  0  0  0  0  0
    2.1336    2.3757    0.0000 C   0  0  0  0  0  0  0  0  0  0  0  0
   -4.5803    4.0376    0.0000 O   0  0  0  0  0  0  0  0  0  0  0  0
    3.7996    3.8037    0.0000 C   0  0  0  0  0  0  0  0  0  0  0  0
    3.7996    2.3632    0.0000 C   0  0  0  0  0  0  0  0  0  0  0  0
   -5.2985    4.4509    0.0000 C   0  0  0  0  0  0  0  0  0  0  0  0
    4.6346    3.8037    0.0000 C   0  0  0  0  0  0  0  0  0  0  0  0
    3.3862    1.6492    0.0000 C   0  0  0  0  0  0  0  0  0  0  0  0
  2  1  2  0  0  0  0
  3  1  1  0  0  0  0
  4  1  1  0  0  0  0
  5  4  1  0  0  0  0
  5  6  2  0  0  0  0
  6  3  1  0  0  0  0
  7  2  1  0  0  0  0
  8 10  1  0  0  0  0
  9  5  1  0  0  0  0
 10  9  2  0  0  0  0
 10 17  1  0  0  0  0
 11 20  1  0  0  0  0
 12  6  1  0  0  0  0
 13 11  3  0  0  0  0
 14  7  1  0  0  0  0
 15 24  1  0  0  0  0
 16  7  2  0  0  0  0
 17 12  2  0  0  0  0
 18 15  1  0  0  0  0
 19  8  2  0  0  0  0
 20  3  1  0  0  0  0
 21 14  2  0  0  0  0
 22 14  1  0  0  0  0
 23 21  1  0  0  0  0
 23 15  2  0  0  0  0
 24 22  2  0  0  0  0
 25  8  1  0  0  0  0
 26 18  1  0  0  0  0
 27 18  1  0  0  0  0
 28 25  1  0  0  0  0
 29 26  1  0  0  0  0
 30 27  1  0  0  0  0
M  END
> <CdId>
2242

> <Mol Weight>
421.512

> <Formula>
C23H23N3O3S

> <Click_ID>
CLK029_H08 __ __ 

$$$$
