CLK037C11
 OpenBabel03191401532D

 10  9  0  0  0  0  0  0  0  0999 V2000
    2.0708    0.1167    0.0000 C   0  0  0  0  0  0  0  0  0  0  0  0
    2.7333    0.6083    0.0000 C   0  0  0  0  0  0  0  0  0  0  0  0
    0.6500   -0.0458    0.0000 N   0  0  0  0  0  0  0  0  0  0  0  0
    1.4083   -0.3750    0.0000 C   0  0  0  0  0  0  0  0  0  0  0  0
   -0.0125   -0.5375    0.0000 C   0  0  0  0  0  0  0  0  0  0  0  0
   -0.7667   -0.2125    0.0000 C   0  0  0  0  0  0  0  0  0  0  0  0
   -1.4292   -0.7042    0.0000 C   0  0  0  0  0  0  0  0  0  0  0  0
   -0.8625    0.6083    0.0000 C   0  0  0  0  0  0  0  0  0  0  0  0
   -2.1875   -0.3750    0.0000 C   0  0  0  0  0  0  0  0  0  0  0  0
   -1.6208    0.9375    0.0000 C   0  0  0  0  0  0  0  0  0  0  0  0
  2  1  3  0  0  0  0
  3  4  1  0  0  0  0
  4  1  1  0  0  0  0
  5  3  1  0  0  0  0
  6  5  1  0  0  0  0
  7  6  1  0  0  0  0
  8  6  1  0  0  0  0
  9  7  1  0  0  0  0
 10  8  1  0  0  0  0
M  END
> <CdId>
2843

> <Mol Weight>
139.238

> <Formula>
C9H17N

> <Click_ID>
CLK037C11 __ __ 

$$$$
