CLK016_H09
 OpenBabel03191401532D

 26 28  0  0  0  0  0  0  0  0999 V2000
    5.2987   -0.9282    0.0000 N    0  0  0  0  0  0  0  0  0  0  0  0
    5.1614   -1.7482    0.0000 C    0  0  0  0  0  0  0  0  0  0  0  0
    4.5620   -0.5536    0.0000 C    0  0  0  0  0  0  0  0  0  0  0  0
    3.9751   -1.1363    0.0000 C    0  0  0  0  0  0  0  0  0  0  0  0
    4.3497   -1.8773    0.0000 S    0  0  0  0  0  0  0  0  0  0  0  0
    3.1634   -1.0032    0.0000 C    0  0  0  0  0  0  0  0  0  0  0  0
    6.0355   -0.5619    0.0000 C    0  0  0  0  0  0  0  0  0  0  0  0
    5.7483   -2.3351    0.0000 S    0  0  0  0  0  0  0  0  0  0  0  0
    0.8533   -4.9741    0.0000 C    0  0  0  0  0  0  0  0  0  0  0  0
    0.3413   -5.6109    0.0000 C    0  0  0  0  0  0  0  0  0  0  0  0
    2.4142   -3.0510    0.0000 C    0  0  0  0  0  0  0  0  0  0  0  0
    4.4371    0.2580    0.0000 O    0  0  0  0  0  0  0  0  0  0  0  0
    2.6390   -1.6400    0.0000 C    0  0  0  0  0  0  0  0  0  0  0  0
    2.9345   -2.4142    0.0000 C    0  0  0  0  0  0  0  0  0  0  0  0
    1.5983   -2.9262    0.0000 C    0  0  0  0  0  0  0  0  0  0  0  0
    8.1458   -1.0906    0.0000 N    0  0  0  0  0  0  0  0  0  0  0  0
    6.7223   -1.0115    0.0000 C    0  0  0  0  0  0  0  0  0  0  0  0
    1.3029   -2.1520    0.0000 C    0  0  0  0  0  0  0  0  0  0  0  0
    2.7014   -3.8253    0.0000 Cl   0  0  0  0  0  0  0  0  0  0  0  0
    1.8273   -1.5109    0.0000 C    0  0  0  0  0  0  0  0  0  0  0  0
    1.0781   -3.5713    0.0000 O    0  0  0  0  0  0  0  0  0  0  0  0
    7.4548   -0.6368    0.0000 C    0  0  0  0  0  0  0  0  0  0  0  0
    1.3778   -4.3372    0.0000 C    0  0  0  0  0  0  0  0  0  0  0  0
    8.0958   -1.9147    0.0000 C    0  0  0  0  0  0  0  0  0  0  0  0
    6.6723   -1.8273    0.0000 C    0  0  0  0  0  0  0  0  0  0  0  0
    7.3591   -2.2851    0.0000 C    0  0  0  0  0  0  0  0  0  0  0  0
  2  1  1  0  0  0  0
  3  1  1  0  0  0  0
  4  3  1  0  0  0  0
  5  2  1  0  0  0  0
  5  4  1  0  0  0  0
  6  4  2  0  0  0  0
  7  1  1  0  0  0  0
  8  2  2  0  0  0  0
  9 23  1  0  0  0  0
 10  9  3  0  0  0  0
 11 14  2  0  0  0  0
 12  3  2  0  0  0  0
 13  6  1  0  0  0  0
 14 13  1  0  0  0  0
 15 18  2  0  0  0  0
 15 11  1  0  0  0  0
 16 22  2  0  0  0  0
 17  7  1  0  0  0  0
 18 20  1  0  0  0  0
 19 11  1  0  0  0  0
 20 13  2  0  0  0  0
 21 15  1  0  0  0  0
 22 17  1  0  0  0  0
 23 21  1  0  0  0  0
 24 26  2  0  0  0  0
 24 16  1  0  0  0  0
 25 17  2  0  0  0  0
 26 25  1  0  0  0  0
M  END
> <CdId>
1234

> <Mol Weight>
400.902

> <Formula>
C19H13ClN2O2S2

> <Click_ID>
CLK016_H09 __ __ 

$$$$
