CLK009_H05
 OpenBabel03191401532D

 29 30  0  0  0  0  0  0  0  0999 V2000
   -0.0205    0.0000    0.0000 C   0  0  0  0  0  0  0  0  0  0  0  0
    0.4105   -0.7183    0.0000 C   0  0  0  0  0  0  0  0  0  0  0  0
   -0.4391    0.7224    0.0000 C   0  0  0  0  0  0  0  0  0  0  0  0
    0.7060    0.4268    0.0000 C   0  0  0  0  0  0  0  0  0  0  0  0
   -0.7347   -0.4228    0.0000 C   0  0  0  0  0  0  0  0  0  0  0  0
    4.2646    1.6746    0.0000 C   0  0  0  0  0  0  0  0  0  0  0  0
   -4.2851   -1.6746    0.0000 C   0  0  0  0  0  0  0  0  0  0  0  0
    4.9746    2.1015    0.0000 C   0  0  0  0  0  0  0  0  0  0  0  0
   -4.9951   -2.0974    0.0000 C   0  0  0  0  0  0  0  0  0  0  0  0
    0.8373   -1.4325    0.0000 F   0  0  0  0  0  0  0  0  0  0  0  0
   -0.3078   -1.1370    0.0000 F   0  0  0  0  0  0  0  0  0  0  0  0
   -1.1533    0.2955    0.0000 F   0  0  0  0  0  0  0  0  0  0  0  0
   -0.8578    1.4407    0.0000 F   0  0  0  0  0  0  0  0  0  0  0  0
    0.2832    1.1451    0.0000 F   0  0  0  0  0  0  0  0  0  0  0  0
    1.1328   -0.2955    0.0000 F   0  0  0  0  0  0  0  0  0  0  0  0
   -0.7347   -1.2478    0.0000 C   0  0  0  0  0  0  0  0  0  0  0  0
   -1.4407   -0.0165    0.0000 C   0  0  0  0  0  0  0  0  0  0  0  0
    1.4160    0.0205    0.0000 C   0  0  0  0  0  0  0  0  0  0  0  0
    0.7060    1.2518    0.0000 C   0  0  0  0  0  0  0  0  0  0  0  0
   -2.1507   -1.2478    0.0000 C   0  0  0  0  0  0  0  0  0  0  0  0
    2.1220    1.2518    0.0000 C   0  0  0  0  0  0  0  0  0  0  0  0
   -1.4407   -1.6541    0.0000 C   0  0  0  0  0  0  0  0  0  0  0  0
   -2.1507   -0.4228    0.0000 C   0  0  0  0  0  0  0  0  0  0  0  0
    2.1220    0.4268    0.0000 C   0  0  0  0  0  0  0  0  0  0  0  0
    1.4160    1.6582    0.0000 C   0  0  0  0  0  0  0  0  0  0  0  0
   -3.5791   -1.2683    0.0000 C   0  0  0  0  0  0  0  0  0  0  0  0
    3.5504    1.2765    0.0000 C   0  0  0  0  0  0  0  0  0  0  0  0
   -2.8690   -1.6746    0.0000 O   0  0  0  0  0  0  0  0  0  0  0  0
    2.8362    1.6746    0.0000 O   0  0  0  0  0  0  0  0  0  0  0  0
  2  1  1  0  0  0  0
  3  1  1  0  0  0  0
  4  1  1  0  0  0  0
  5  1  1  0  0  0  0
  6 27  1  0  0  0  0
  7 26  1  0  0  0  0
  8  6  3  0  0  0  0
  9  7  3  0  0  0  0
 10  2  1  0  0  0  0
 11  2  1  0  0  0  0
 12  3  1  0  0  0  0
 13  3  1  0  0  0  0
 14  3  1  0  0  0  0
 15  2  1  0  0  0  0
 16  5  2  0  0  0  0
 17  5  1  0  0  0  0
 18  4  1  0  0  0  0
 19  4  2  0  0  0  0
 20 23  1  0  0  0  0
 20 22  2  0  0  0  0
 21 25  2  0  0  0  0
 21 24  1  0  0  0  0
 22 16  1  0  0  0  0
 23 17  2  0  0  0  0
 24 18  2  0  0  0  0
 25 19  1  0  0  0  0
 26 28  1  0  0  0  0
 27 29  1  0  0  0  0
 28 20  1  0  0  0  0
 29 21  1  0  0  0  0
M  END
> <CdId>
670

> <Mol Weight>
412.3251

> <Formula>
C21H14F6O2

> <Click_ID>
CLK009_H05 __ __ 

$$$$
