CLK014_F05
 OpenBabel03191401532D

 18 19  0  0  0  0  0  0  0  0999 V2000
    1.5690   -0.8179    0.0000 N    0  0  0  0  0  0  0  0  0  0  0  0
    1.8277   -1.6066    0.0000 C    0  0  0  0  0  0  0  0  0  0  0  0
    2.2408   -0.3297    0.0000 C    0  0  0  0  0  0  0  0  0  0  0  0
    2.9085   -0.8179    0.0000 C    0  0  0  0  0  0  0  0  0  0  0  0
    2.6540   -1.6066    0.0000 S    0  0  0  0  0  0  0  0  0  0  0  0
    3.6972   -0.5633    0.0000 C    0  0  0  0  0  0  0  0  0  0  0  0
    0.6134    0.2462    0.0000 C    0  0  0  0  0  0  0  0  0  0  0  0
    0.3923    1.0474    0.0000 C    0  0  0  0  0  0  0  0  0  0  0  0
    1.3395   -2.2701    0.0000 O    0  0  0  0  0  0  0  0  0  0  0  0
    2.2325    0.4965    0.0000 O    0  0  0  0  0  0  0  0  0  0  0  0
    0.7887   -0.5633    0.0000 C    0  0  0  0  0  0  0  0  0  0  0  0
    3.8725    0.2504    0.0000 C    0  0  0  0  0  0  0  0  0  0  0  0
    4.1855    1.6983    0.0000 C    0  0  0  0  0  0  0  0  0  0  0  0
    4.3607    2.5246    0.0000 Cl   0  0  0  0  0  0  0  0  0  0  0  0
    3.2549    0.7720    0.0000 C    0  0  0  0  0  0  0  0  0  0  0  0
    4.6570    0.4715    0.0000 C    0  0  0  0  0  0  0  0  0  0  0  0
    4.8114    1.1851    0.0000 C    0  0  0  0  0  0  0  0  0  0  0  0
    3.4093    1.4980    0.0000 C    0  0  0  0  0  0  0  0  0  0  0  0
  2  1  1  0  0  0  0
  3  1  1  0  0  0  0
  4  3  1  0  0  0  0
  4  5  1  0  0  0  0
  5  2  1  0  0  0  0
  6  4  2  0  0  0  0
  7 11  1  0  0  0  0
  8  7  3  0  0  0  0
  9  2  2  0  0  0  0
 10  3  2  0  0  0  0
 11  1  1  0  0  0  0
 12  6  1  0  0  0  0
 13 17  1  0  0  0  0
 13 18  2  0  0  0  0
 14 13  1  0  0  0  0
 15 12  2  0  0  0  0
 16 12  1  0  0  0  0
 17 16  2  0  0  0  0
 18 15  1  0  0  0  0
M  END
> <CdId>
1050

> <Mol Weight>
277.726

> <Formula>
C13H8ClNO2S

> <Click_ID>
CLK014_F05 __ __ 

$$$$
