CLK005_A05
 OpenBabel03191401532D

 25 27  0  0  0  0  0  0  0  0999 V2000
   -0.8896   -0.2103    0.0000 C   0  0  0  0  0  0  0  0  0  0  0  0
   -0.1759   -0.6240    0.0000 N   0  0  0  0  0  0  0  0  0  0  0  0
   -0.8896    0.6137    0.0000 N   0  0  0  0  0  0  0  0  0  0  0  0
   -1.6033   -0.6240    0.0000 C   0  0  0  0  0  0  0  0  0  0  0  0
    0.5345   -0.2103    0.0000 C   0  0  0  0  0  0  0  0  0  0  0  0
   -0.1759   -1.4551    0.0000 C   0  0  0  0  0  0  0  0  0  0  0  0
   -1.6033    1.0275    0.0000 C   0  0  0  0  0  0  0  0  0  0  0  0
   -2.3170   -0.2103    0.0000 C   0  0  0  0  0  0  0  0  0  0  0  0
    1.2551   -0.6240    0.0000 C   0  0  0  0  0  0  0  0  0  0  0  0
    0.5345   -1.8688    0.0000 C   0  0  0  0  0  0  0  0  0  0  0  0
   -1.6033    1.8515    0.0000 C   0  0  0  0  0  0  0  0  0  0  0  0
   -2.3170    0.6137    0.0000 N   0  0  0  0  0  0  0  0  0  0  0  0
   -3.0376   -0.6240    0.0000 C   0  0  0  0  0  0  0  0  0  0  0  0
    1.2551   -1.4551    0.0000 C   0  0  0  0  0  0  0  0  0  0  0  0
   -2.3136    2.2653    0.0000 C   0  0  0  0  0  0  0  0  0  0  0  0
   -0.8896    2.2653    0.0000 C   0  0  0  0  0  0  0  0  0  0  0  0
    1.9826   -1.8722    0.0000 C   0  0  0  0  0  0  0  0  0  0  0  0
   -2.3136    3.0928    0.0000 C   0  0  0  0  0  0  0  0  0  0  0  0
   -0.8896    3.0928    0.0000 C   0  0  0  0  0  0  0  0  0  0  0  0
    2.6929   -1.4620    0.0000 N   0  0  0  0  0  0  0  0  0  0  0  0
    1.9860   -2.7067    0.0000 O   0  0  0  0  0  0  0  0  0  0  0  0
   -1.6033    3.5066    0.0000 C   0  0  0  0  0  0  0  0  0  0  0  0
    3.4100   -1.8722    0.0000 C   0  0  0  0  0  0  0  0  0  0  0  0
    4.1237   -1.4620    0.0000 C   0  0  0  0  0  0  0  0  0  0  0  0
    4.8479   -1.0447    0.0000 C   0  0  0  0  0  0  0  0  0  0  0  0
  1  2  1  0  0  0  0
  1  3  2  0  0  0  0
  1  4  1  0  0  0  0
  2  5  1  0  0  0  0
  2  6  1  0  0  0  0
  3  7  1  0  0  0  0
  4  8  2  0  0  0  0
  5  9  1  0  0  0  0
  6 10  1  0  0  0  0
  7 11  1  0  0  0  0
  7 12  2  0  0  0  0
  8 13  1  0  0  0  0
  8 12  1  0  0  0  0
  9 14  1  0  0  0  0
 10 14  1  0  0  0  0
 11 15  1  0  0  0  0
 11 16  2  0  0  0  0
 14 17  1  0  0  0  0
 15 18  2  0  0  0  0
 16 19  1  0  0  0  0
 17 20  1  0  0  0  0
 17 21  2  0  0  0  0
 18 22  1  0  0  0  0
 19 22  2  0  0  0  0
 20 23  1  0  0  0  0
 23 24  1  0  0  0  0
 24 25  3  0  0  0  0
M  END
> <CdId>
324

> <Mol Weight>
334.4149

> <Formula>
C20H22N4O

> <Click_ID>
CLK005_A05 __ __ 

$$$$
