CLK010_C11
 OpenBabel03191401532D

 30 32  0  0  0  0  0  0  0  0999 V2000
    2.4990   -0.6781    0.0000 N    0  0  0  0  0  0  0  0  0  0  0  0
    3.2065   -1.9130    0.0000 C    0  0  0  0  0  0  0  0  0  0  0  0
    2.4990   -1.5069    0.0000 C    0  0  0  0  0  0  0  0  0  0  0  0
    3.2065   -0.2554    0.0000 C    0  0  0  0  0  0  0  0  0  0  0  0
    3.9223   -0.6781    0.0000 N    0  0  0  0  0  0  0  0  0  0  0  0
    3.9223   -1.5069    0.0000 C    0  0  0  0  0  0  0  0  0  0  0  0
    1.7749   -0.2637    0.0000 C    0  0  0  0  0  0  0  0  0  0  0  0
    3.2065   -2.7418    0.0000 C    0  0  0  0  0  0  0  0  0  0  0  0
    1.0591   -0.6781    0.0000 C    0  0  0  0  0  0  0  0  0  0  0  0
    6.7729   -5.6302    0.0000 C    0  0  0  0  0  0  0  0  0  0  0  0
    3.2065    0.5734    0.0000 O    0  0  0  0  0  0  0  0  0  0  0  0
    7.4887   -6.0446    0.0000 C    0  0  0  0  0  0  0  0  0  0  0  0
    1.7749   -1.9214    0.0000 O    0  0  0  0  0  0  0  0  0  0  0  0
    5.3539   -3.1520    0.0000 C    0  0  0  0  0  0  0  0  0  0  0  0
    4.6464   -1.9214    0.0000 O    0  0  0  0  0  0  0  0  0  0  0  0
    3.9223   -3.1520    0.0000 C    0  0  0  0  0  0  0  0  0  0  0  0
    4.6381   -2.7376    0.0000 C    0  0  0  0  0  0  0  0  0  0  0  0
    5.3539   -3.9683    0.0000 C    0  0  0  0  0  0  0  0  0  0  0  0
    4.6464   -4.3744    0.0000 C    0  0  0  0  0  0  0  0  0  0  0  0
    0.3433   -0.2637    0.0000 C    0  0  0  0  0  0  0  0  0  0  0  0
    3.9306   -3.9683    0.0000 C    0  0  0  0  0  0  0  0  0  0  0  0
    6.0697   -2.7418    0.0000 O    0  0  0  0  0  0  0  0  0  0  0  0
    1.7749    0.5734    0.0000 C    0  0  0  0  0  0  0  0  0  0  0  0
   -0.3725   -0.6781    0.0000 Br   0  0  0  0  0  0  0  0  0  0  0  0
    6.0697   -4.3869    0.0000 O    0  0  0  0  0  0  0  0  0  0  0  0
    6.0655   -5.2115    0.0000 C    0  0  0  0  0  0  0  0  0  0  0  0
    1.0591    0.9795    0.0000 C    0  0  0  0  0  0  0  0  0  0  0  0
    0.3433    0.5734    0.0000 C    0  0  0  0  0  0  0  0  0  0  0  0
    6.0655   -1.9256    0.0000 C    0  0  0  0  0  0  0  0  0  0  0  0
    6.7729   -1.5112    0.0000 C    0  0  0  0  0  0  0  0  0  0  0  0
  2  3  1  0  0  0  0
  2  6  1  0  0  0  0
  3  1  1  0  0  0  0
  4  1  1  0  0  0  0
  5  4  1  0  0  0  0
  6  5  1  0  0  0  0
  7  1  1  0  0  0  0
  8  2  2  0  0  0  0
  9  7  1  0  0  0  0
 10 26  1  0  0  0  0
 11  4  2  0  0  0  0
 12 10  3  0  0  0  0
 13  3  2  0  0  0  0
 14 17  1  0  0  0  0
 14 18  2  0  0  0  0
 15  6  2  0  0  0  0
 16  8  1  0  0  0  0
 17 16  2  0  0  0  0
 18 19  1  0  0  0  0
 19 21  2  0  0  0  0
 20  9  2  0  0  0  0
 20 28  1  0  0  0  0
 21 16  1  0  0  0  0
 22 14  1  0  0  0  0
 23  7  2  0  0  0  0
 24 20  1  0  0  0  0
 25 18  1  0  0  0  0
 26 25  1  0  0  0  0
 27 23  1  0  0  0  0
 28 27  2  0  0  0  0
 29 22  1  0  0  0  0
 30 29  1  0  0  0  0
M  END
> <CdId>
706

> <Mol Weight>
469.285

> <Formula>
C22H17BrN2O5

> <Click_ID>
CLK010_C11 __ __ 

$$$$
