CLK050H07
 OpenBabel03191401532D

 18 18  0  0  0  0  0  0  0  0999 V2000
    0.1583    1.6500    0.0000 C   0  0  0  0  0  0  0  0  0  0  0  0
    0.1583    0.8250    0.0000 N   0  0  0  0  0  0  0  0  0  0  0  0
    1.5875    3.3000    0.0000 C   0  0  0  0  0  0  0  0  0  0  0  0
    2.3000    3.7125    0.0000 C   0  0  0  0  0  0  0  0  0  0  0  0
   -0.5583    0.4125    0.0000 C   0  0  3  0  0  0  0  0  0  0  0  0
   -0.5583   -0.4125    0.0000 C   0  0  0  0  0  0  0  0  0  0  0  0
   -0.5583    2.0625    0.0000 O   0  0  0  0  0  0  0  0  0  0  0  0
    0.8708    2.0625    0.0000 N   0  0  0  0  0  0  0  0  0  0  0  0
   -1.2708   -0.8250    0.0000 C   0  0  0  0  0  0  0  0  0  0  0  0
    0.1583   -0.8250    0.0000 C   0  0  0  0  0  0  0  0  0  0  0  0
   -0.5583   -2.0625    0.0000 C   0  0  0  0  0  0  0  0  0  0  0  0
   -1.2708   -1.6500    0.0000 C   0  0  0  0  0  0  0  0  0  0  0  0
    0.1583   -1.6500    0.0000 C   0  0  0  0  0  0  0  0  0  0  0  0
    0.8708    2.8917    0.0000 C   0  0  0  0  0  0  0  0  0  0  0  0
   -0.5583   -2.8875    0.0000 O   0  0  0  0  0  0  0  0  0  0  0  0
   -1.2708    0.8250    0.0000 C   0  0  0  0  0  0  0  0  0  0  0  0
    0.1583   -3.3000    0.0000 C   0  0  0  0  0  0  0  0  0  0  0  0
    0.1583   -4.1250    0.0000 C   0  0  0  0  0  0  0  0  0  0  0  0
  2  1  1  0  0  0  0
  3 14  1  0  0  0  0
  4  3  3  0  0  0  0
  5  2  1  0  0  0  0
  6  5  1  0  0  0  0
  7  1  2  0  0  0  0
  8  1  1  0  0  0  0
  9  6  2  0  0  0  0
 10  6  1  0  0  0  0
 11 12  2  0  0  0  0
 12  9  1  0  0  0  0
 13 10  2  0  0  0  0
 13 11  1  0  0  0  0
 14  8  1  0  0  0  0
 15 11  1  0  0  0  0
 16  5  1  0  0  0  0
 17 15  1  0  0  0  0
 18 17  1  0  0  0  0
M  END
> <CdId>
3856

> <Mol Weight>
246.3049

> <Formula>
C14H18N2O2

> <Click_ID>
CLK050H07 __ __ 

$$$$
