CLK021_H06
 OpenBabel03191401532D

 24 23  0  0  0  0  0  0  0  0999 V2000
    1.7315    4.8144    0.0000 C    0  0  0  0  0  0  0  0  0  0  0  0
    1.0169    5.2267    0.0000 C    0  0  0  0  0  0  0  0  0  0  0  0
    3.1607    2.3591    0.0000 C    0  0  0  0  0  0  0  0  0  0  0  0
    3.1607    3.1836    0.0000 C    0  0  0  0  0  0  0  0  0  0  0  0
    6.0100    2.3591    0.0000 N    0  0  0  0  0  0  0  0  0  0  0  0
    3.8753    1.9377    0.0000 C    0  0  0  0  0  0  0  0  0  0  0  0
    6.7246    1.9377    0.0000 C    0  0  0  0  0  0  0  0  0  0  0  0
    8.1080    2.3041    0.0000 C    0  0  0  0  0  0  0  0  0  0  0  0
    3.8753    3.5959    0.0000 C    0  0  0  0  0  0  0  0  0  0  0  0
    7.3109    2.5240    0.0000 C    0  0  0  0  0  0  0  0  0  0  0  0
    4.5808    2.3591    0.0000 C    0  0  0  0  0  0  0  0  0  0  0  0
    5.2954    1.9377    0.0000 C    0  0  0  0  0  0  0  0  0  0  0  0
    4.5808    3.1836    0.0000 C    0  0  0  0  0  0  0  0  0  0  0  0
    2.4461    1.9377    0.0000 O    0  0  0  0  0  0  0  0  0  0  0  0
    2.4461    3.5959    0.0000 O    0  0  0  0  0  0  0  0  0  0  0  0
    2.4461    4.4022    0.0000 C    0  0  0  0  0  0  0  0  0  0  0  0
    6.2574    1.2597    0.0000 C    0  0  0  0  0  0  0  0  0  0  0  0
    7.3568    1.4108    0.0000 C    0  0  0  0  0  0  0  0  0  0  0  0
    8.8547    1.9605    0.0000 C    0  0  0  0  0  0  0  0  0  0  0  0
    8.5203    3.0187    0.0000 C    0  0  0  0  0  0  0  0  0  0  0  0
    7.8240    1.5345    0.0000 C    0  0  0  0  0  0  0  0  0  0  0  0
    2.4461    1.1131    0.0000 C    0  0  0  0  0  0  0  0  0  0  0  0
    1.7315    0.7009    0.0000 C    0  0  0  0  0  0  0  0  0  0  0  0
    9.6792    0.7009    0.0000 Cl   0  0  0  0  0  0  0  0  0  0  0  0
  2  1  3  0  0  0  0
  3  4  2  0  0  0  0
  4 15  1  0  0  0  0
  5 12  1  0  0  0  0
  6  3  1  0  0  0  0
  6 11  2  0  0  0  0
  7  5  1  0  0  0  0
  8 10  1  0  0  0  0
  9  4  1  0  0  0  0
 10  7  1  0  0  0  0
 11 13  1  0  0  0  0
 12 11  1  0  0  0  0
 13  9  2  0  0  0  0
 14  3  1  0  0  0  0
 15 16  1  0  0  0  0
 16  1  1  0  0  0  0
 17  7  1  0  0  0  0
 18  7  1  0  0  0  0
 19  8  1  0  0  0  0
 20  8  1  0  0  0  0
 21  8  1  0  0  0  0
 22 14  1  0  0  0  0
 23 22  1  0  0  0  0
M  END
> <CdId>
1631

> <Mol Weight>
353.927

> <Formula>
C20H32ClNO2

> <Click_ID>
CLK021_H06 __ __ 

$$$$
