CLK025_F07
 OpenBabel03191401532D

 26 28  0  0  0  0  0  0  0  0999 V2000
   -0.7626    0.3499    0.0000 C    0  0  3  0  0  0  0  0  0  0  0  0
   -0.2939   -0.2834    0.0000 C    0  0  0  0  0  0  0  0  0  0  0  0
   -1.5463    0.0945    0.0000 C    0  0  0  0  0  0  0  0  0  0  0  0
   -0.7626   -0.9830    0.0000 N    0  0  0  0  0  0  0  0  0  0  0  0
   -1.5463   -0.7346    0.0000 C    0  0  0  0  0  0  0  0  0  0  0  0
    0.0840    1.1265    0.0000 C    0  0  0  0  0  0  0  0  0  0  0  0
    1.0495    0.9550    0.0000 C    0  0  0  0  0  0  0  0  0  0  0  0
    1.5463    1.6057    0.0000 C    0  0  0  0  0  0  0  0  0  0  0  0
   -1.0145   -2.3963    0.0000 C    0  0  0  0  0  0  0  0  0  0  0  0
   -2.2669   -1.1475    0.0000 C    0  0  0  0  0  0  0  0  0  0  0  0
   -1.5497   -3.0190    0.0000 C    0  0  0  0  0  0  0  0  0  0  0  0
   -2.2669    0.5142    0.0000 C    0  0  0  0  0  0  0  0  0  0  0  0
    0.4968   -0.3499    0.0000 O    0  0  0  0  0  0  0  0  0  0  0  0
    1.2314    2.3718    0.0000 C    0  0  0  0  0  0  0  0  0  0  0  0
    2.3683    1.4972    0.0000 C    0  0  0  0  0  0  0  0  0  0  0  0
    1.3223    0.3673    0.0000 O    0  0  0  0  0  0  0  0  0  0  0  0
   -0.4863   -1.7667    0.0000 C    0  0  0  0  0  0  0  0  0  0  0  0
   -1.1509    1.2314    0.0000 O    0  0  0  0  0  0  0  0  0  0  0  0
    1.7386    3.0225    0.0000 C    0  0  0  0  0  0  0  0  0  0  0  0
   -2.9770    0.0945    0.0000 C    0  0  0  0  0  0  0  0  0  0  0  0
   -2.9770   -0.7346    0.0000 C    0  0  0  0  0  0  0  0  0  0  0  0
    2.8686    2.1514    0.0000 C    0  0  0  0  0  0  0  0  0  0  0  0
    2.5607    2.9140    0.0000 C    0  0  0  0  0  0  0  0  0  0  0  0
   -3.6977    0.5073    0.0000 Br   0  0  0  0  0  0  0  0  0  0  0  0
    0.4198    2.4803    0.0000 C    0  0  0  0  0  0  0  0  0  0  0  0
    3.6942    2.0430    0.0000 C    0  0  0  0  0  0  0  0  0  0  0  0
  2  1  1  0  0  0  0
  3  1  1  0  0  0  0
  4  2  1  0  0  0  0
  5  3  2  0  0  0  0
  5  4  1  0  0  0  0
  6  1  1  0  0  0  0
  7  6  1  0  0  0  0
  8  7  1  0  0  0  0
  9 17  1  0  0  0  0
 10  5  1  0  0  0  0
 11  9  3  0  0  0  0
 12  3  1  0  0  0  0
 13  2  2  0  0  0  0
 14  8  2  0  0  0  0
 15  8  1  0  0  0  0
 16  7  2  0  0  0  0
 17  4  1  0  0  0  0
 18  1  1  0  0  0  0
 19 14  1  0  0  0  0
 20 12  2  0  0  0  0
 21 20  1  0  0  0  0
 21 10  2  0  0  0  0
 22 15  2  0  0  0  0
 23 22  1  0  0  0  0
 23 19  2  0  0  0  0
 24 20  1  0  0  0  0
 25 14  1  0  0  0  0
 26 22  1  0  0  0  0
M  END
> <CdId>
1912

> <Mol Weight>
412.277

> <Formula>
C21H18BrNO3

> <Click_ID>
CLK025_F07 __ __ 

$$$$
