CLK043H03
 OpenBabel03191401532D

 28 30  0  0  0  0  0  0  0  0999 V2000
   -1.6042    2.0458    0.0000 S   0  0  0  0  0  0  0  0  0  0  0  0
    1.2542   -0.4292    0.0000 N   0  0  0  0  0  0  0  0  0  0  0  0
    1.2542    0.3958    0.0000 C   0  0  0  0  0  0  0  0  0  0  0  0
    1.9708   -0.8417    0.0000 C   0  0  0  0  0  0  0  0  0  0  0  0
    2.3833   -1.5542    0.0000 C   0  0  0  0  0  0  0  0  0  0  0  0
    2.7958   -0.8417    0.0000 C   0  0  0  0  0  0  0  0  0  0  0  0
   -0.8875    1.6333    0.0000 C   0  0  0  0  0  0  0  0  0  0  0  0
   -3.0333    3.6958    0.0000 C   0  0  0  0  0  0  0  0  0  0  0  0
   -3.7458    4.1042    0.0000 C   0  0  0  0  0  0  0  0  0  0  0  0
    0.5417    0.8083    0.0000 C   0  0  0  0  0  0  0  0  0  0  0  0
   -2.0167    1.3333    0.0000 O   0  0  0  0  0  0  0  0  0  0  0  0
   -1.1917    2.7583    0.0000 O   0  0  0  0  0  0  0  0  0  0  0  0
    0.5417   -0.8417    0.0000 C   0  0  0  0  0  0  0  0  0  0  0  0
   -2.3167    2.4583    0.0000 N   0  0  0  0  0  0  0  0  0  0  0  0
    1.9708    0.8083    0.0000 O   0  0  0  0  0  0  0  0  0  0  0  0
   -0.1750    2.0458    0.0000 C   0  0  0  0  0  0  0  0  0  0  0  0
   -0.8875    0.8083    0.0000 C   0  0  0  0  0  0  0  0  0  0  0  0
    0.5417    1.6333    0.0000 C   0  0  0  0  0  0  0  0  0  0  0  0
   -0.1750    0.3958    0.0000 C   0  0  0  0  0  0  0  0  0  0  0  0
    0.5417   -1.6667    0.0000 C   0  0  0  0  0  0  0  0  0  0  0  0
    0.5417   -3.3167    0.0000 C   0  0  0  0  0  0  0  0  0  0  0  0
   -2.3167    3.2833    0.0000 C   0  0  0  0  0  0  0  0  0  0  0  0
    1.2542   -2.0792    0.0000 C   0  0  0  0  0  0  0  0  0  0  0  0
   -0.1750   -2.0792    0.0000 C   0  0  0  0  0  0  0  0  0  0  0  0
    1.2542   -2.9042    0.0000 C   0  0  0  0  0  0  0  0  0  0  0  0
   -0.1750   -2.9042    0.0000 C   0  0  0  0  0  0  0  0  0  0  0  0
    0.5417   -4.1417    0.0000 O   0  0  0  0  0  0  0  0  0  0  0  0
    1.2542   -4.5542    0.0000 C   0  0  0  0  0  0  0  0  0  0  0  0
  2  3  1  0  0  0  0
  3 10  1  0  0  0  0
  4  2  1  0  0  0  0
  5  4  1  0  0  0  0
  6  4  1  0  0  0  0
  6  5  1  0  0  0  0
  7  1  1  0  0  0  0
  8 22  1  0  0  0  0
  9  8  3  0  0  0  0
 10 19  2  0  0  0  0
 11  1  2  0  0  0  0
 12  1  2  0  0  0  0
 13  2  1  0  0  0  0
 14  1  1  0  0  0  0
 15  3  2  0  0  0  0
 16  7  1  0  0  0  0
 17  7  2  0  0  0  0
 18 16  2  0  0  0  0
 18 10  1  0  0  0  0
 19 17  1  0  0  0  0
 20 13  1  0  0  0  0
 21 26  2  0  0  0  0
 22 14  1  0  0  0  0
 23 20  1  0  0  0  0
 24 20  2  0  0  0  0
 25 23  2  0  0  0  0
 25 21  1  0  0  0  0
 26 24  1  0  0  0  0
 27 21  1  0  0  0  0
 28 27  1  0  0  0  0
M  END
> <CdId>
3264

> <Mol Weight>
398.475

> <Formula>
C21H22N2O4S

> <Click_ID>
CLK043H03 __ __ 

$$$$
