CLK033_B04
 OpenBabel03191401532D

 30 32  0  0  0  0  0  0  0  0999 V2000
   -4.5898    2.5549    0.0000 C   0  0  0  0  0  0  0  0  0  0  0  0
   -0.9987    5.4346    0.0000 S   0  0  0  0  0  0  0  0  0  0  0  0
   -3.8574    2.9794    0.0000 N   0  0  0  0  0  0  0  0  0  0  0  0
   -4.6814    1.7310    0.0000 N   0  0  0  0  0  0  0  0  0  0  0  0
   -5.3138    2.8962    0.0000 S   0  0  0  0  0  0  0  0  0  0  0  0
   -5.4886    1.5812    0.0000 C   0  0  0  0  0  0  0  0  0  0  0  0
   -5.8881    2.3053    0.0000 C   0  0  0  0  0  0  0  0  0  0  0  0
   -3.8657    3.7950    0.0000 C   0  0  0  0  0  0  0  0  0  0  0  0
   -1.7185    5.0226    0.0000 C   0  0  0  0  0  0  0  0  0  0  0  0
   -0.2829    5.8465    0.0000 N   0  0  0  0  0  0  0  0  0  0  0  0
   -4.2652    0.3578    0.0000 C   0  0  0  0  0  0  0  0  0  0  0  0
   -0.5867    4.7230    0.0000 O   0  0  0  0  0  0  0  0  0  0  0  0
   -1.4106    6.1586    0.0000 O   0  0  0  0  0  0  0  0  0  0  0  0
   -4.4525   -0.4536    0.0000 C   0  0  0  0  0  0  0  0  0  0  0  0
   -3.1542    4.2070    0.0000 C   0  0  0  0  0  0  0  0  0  0  0  0
   -4.5773    4.2070    0.0000 O   0  0  0  0  0  0  0  0  0  0  0  0
   -5.9172    0.8821    0.0000 C   0  0  0  0  0  0  0  0  0  0  0  0
   -4.0780    1.1610    0.0000 C   0  0  0  0  0  0  0  0  0  0  0  0
   -1.7227    4.1987    0.0000 C   0  0  0  0  0  0  0  0  0  0  0  0
   -2.4343    5.4429    0.0000 C   0  0  0  0  0  0  0  0  0  0  0  0
   -2.4343    3.8033    0.0000 C   0  0  0  0  0  0  0  0  0  0  0  0
   -3.1459    5.0351    0.0000 C   0  0  0  0  0  0  0  0  0  0  0  0
   -6.7037    2.3302    0.0000 C   0  0  0  0  0  0  0  0  0  0  0  0
   -7.1323    1.6229    0.0000 C   0  0  0  0  0  0  0  0  0  0  0  0
    0.4286    5.4429    0.0000 C   0  0  0  0  0  0  0  0  0  0  0  0
   -0.2829    6.6829    0.0000 C   0  0  0  0  0  0  0  0  0  0  0  0
   -6.7204    0.8946    0.0000 C   0  0  0  0  0  0  0  0  0  0  0  0
   -5.5261    0.1498    0.0000 C   0  0  0  0  0  0  0  0  0  0  0  0
   -0.9945    7.0949    0.0000 C   0  0  0  0  0  0  0  0  0  0  0  0
    1.1485    5.8465    0.0000 C   0  0  0  0  0  0  0  0  0  0  0  0
  2  9  1  0  0  0  0
  3  1  2  0  0  0  0
  4  1  1  0  0  0  0
  5  1  1  0  0  0  0
  6  4  1  0  0  0  0
  7  5  1  0  0  0  0
  7  6  2  0  0  0  0
  8  3  1  0  0  0  0
  9 20  1  0  0  0  0
  9 19  2  0  0  0  0
 10  2  1  0  0  0  0
 11 18  1  0  0  0  0
 12  2  2  0  0  0  0
 13  2  2  0  0  0  0
 14 11  3  0  0  0  0
 15  8  1  0  0  0  0
 16  8  2  0  0  0  0
 17  6  1  0  0  0  0
 18  4  1  0  0  0  0
 19 21  1  0  0  0  0
 20 22  2  0  0  0  0
 21 15  2  0  0  0  0
 22 15  1  0  0  0  0
 23  7  1  0  0  0  0
 24 23  2  0  0  0  0
 25 10  1  0  0  0  0
 26 10  1  0  0  0  0
 27 17  2  0  0  0  0
 27 24  1  0  0  0  0
 28 17  1  0  0  0  0
 29 26  1  0  0  0  0
 30 25  1  0  0  0  0
M  END
> <CdId>
2498

> <Mol Weight>
441.566

> <Formula>
C22H23N3O3S2

> <Click_ID>
CLK033_B04 __ __ 

$$$$
