CLK006_A08
 OpenBabel03191401532D

 12 12  0  0  0  0  0  0  0  0999 V2000
    6.6134  -13.2060    0.0000 C   0  0  0  0  0  0  0  0  0  0  0  0
    7.3339  -12.7812    0.0000 C   0  0  0  0  0  0  0  0  0  0  0  0
    4.4603  -14.4679    0.0000 C   0  0  0  0  0  0  0  0  0  0  0  0
    4.4603  -13.6433    0.0000 C   0  0  0  0  0  0  0  0  0  0  0  0
    5.1767  -14.8844    0.0000 C   0  0  0  0  0  0  0  0  0  0  0  0
    5.8971  -14.4721    0.0000 O   0  0  0  0  0  0  0  0  0  0  0  0
    5.1767  -13.2185    0.0000 O   0  0  0  0  0  0  0  0  0  0  0  0
    5.9013  -13.6225    0.0000 C   0  0  0  0  0  0  0  0  0  0  0  0
    3.7482  -14.8802    0.0000 C   0  0  0  0  0  0  0  0  0  0  0  0
    3.7482  -13.2310    0.0000 C   0  0  0  0  0  0  0  0  0  0  0  0
    3.0277  -14.4679    0.0000 C   0  0  0  0  0  0  0  0  0  0  0  0
    3.0277  -13.6433    0.0000 C   0  0  0  0  0  0  0  0  0  0  0  0
  2  1  3  0  0  0  0
  3  4  1  0  0  0  0
  4  7  1  0  0  0  0
  5  3  1  0  0  0  0
  6  5  2  0  0  0  0
  7  8  1  0  0  0  0
  8  1  1  0  0  0  0
  9  3  2  0  0  0  0
 10  4  2  0  0  0  0
 11 12  2  0  0  0  0
 11  9  1  0  0  0  0
 12 10  1  0  0  0  0
M  END
> <CdId>
407

> <Mol Weight>
160.1693

> <Formula>
C10H8O2

> <Click_ID>
CLK006_A08 __ __ 

$$$$
