CLK020_H09
 OpenBabel03191401532D

 28 31  0  0  0  0  0  0  0  0999 V2000
    3.3625   -1.5792    0.0000 N   0  0  0  0  0  0  0  0  0  0  0  0
    3.6125   -2.3667    0.0000 C   0  0  0  0  0  0  0  0  0  0  0  0
    4.6917   -1.5792    0.0000 C   0  0  0  0  0  0  0  0  0  0  0  0
    4.0250   -1.0917    0.0000 C   0  0  0  0  0  0  0  0  0  0  0  0
    4.4375   -2.3667    0.0000 S   0  0  0  0  0  0  0  0  0  0  0  0
    5.7667   -1.2292    0.0000 C   0  0  0  0  0  0  0  0  0  0  0  0
    5.9417   -0.4250    0.0000 C   0  0  0  0  0  0  0  0  0  0  0  0
    6.7167   -0.1667    0.0000 C   0  0  0  0  0  0  0  0  0  0  0  0
    3.1292   -3.0292    0.0000 S   0  0  0  0  0  0  0  0  0  0  0  0
    4.1042    1.2333    0.0000 C   0  0  0  0  0  0  0  0  0  0  0  0
    2.5792   -1.3250    0.0000 C   0  0  0  0  0  0  0  0  0  0  0  0
    4.2792    2.0375    0.0000 C   0  0  0  0  0  0  0  0  0  0  0  0
    5.3292    0.1250    0.0000 C   0  0  0  0  0  0  0  0  0  0  0  0
    4.0250   -0.2667    0.0000 O   0  0  0  0  0  0  0  0  0  0  0  0
    6.8917    0.6333    0.0000 C   0  0  0  0  0  0  0  0  0  0  0  0
    5.5000    0.9333    0.0000 C   0  0  0  0  0  0  0  0  0  0  0  0
    6.2792    1.1875    0.0000 C   0  0  0  0  0  0  0  0  0  0  0  0
    4.5417   -0.1250    0.0000 O   0  0  0  0  0  0  0  0  0  0  0  0
    3.9292    0.4333    0.0000 C   0  0  0  0  0  0  0  0  0  0  0  0
    7.3292   -0.7292    0.0000 C   0  0  0  0  0  0  0  0  0  0  0  0
    2.4042   -0.5167    0.0000 C   0  0  0  0  0  0  0  0  0  0  0  0
    1.9667   -1.8792    0.0000 C   0  0  0  0  0  0  0  0  0  0  0  0
    7.6667    0.8875    0.0000 C   0  0  0  0  0  0  0  0  0  0  0  0
    8.1125   -0.4625    0.0000 C   0  0  0  0  0  0  0  0  0  0  0  0
    1.6250   -0.2625    0.0000 C   0  0  0  0  0  0  0  0  0  0  0  0
    1.1792   -1.6167    0.0000 C   0  0  0  0  0  0  0  0  0  0  0  0
    8.2792    0.3458    0.0000 C   0  0  0  0  0  0  0  0  0  0  0  0
    1.0125   -0.8042    0.0000 C   0  0  0  0  0  0  0  0  0  0  0  0
  2  1  1  0  0  0  0
  3  4  1  0  0  0  0
  3  5  1  0  0  0  0
  4  1  1  0  0  0  0
  5  2  1  0  0  0  0
  6  3  2  0  0  0  0
  7  6  1  0  0  0  0
  8  7  1  0  0  0  0
  9  2  2  0  0  0  0
 10 19  1  0  0  0  0
 11  1  1  0  0  0  0
 12 10  3  0  0  0  0
 13  7  2  0  0  0  0
 14  4  2  0  0  0  0
 15  8  1  0  0  0  0
 15 17  1  0  0  0  0
 16 13  1  0  0  0  0
 17 16  2  0  0  0  0
 18 13  1  0  0  0  0
 19 18  1  0  0  0  0
 20  8  2  0  0  0  0
 21 11  2  0  0  0  0
 22 11  1  0  0  0  0
 23 15  2  0  0  0  0
 23 27  1  0  0  0  0
 24 20  1  0  0  0  0
 25 21  1  0  0  0  0
 26 22  2  0  0  0  0
 27 24  2  0  0  0  0
 28 26  1  0  0  0  0
 28 25  2  0  0  0  0
M  END
> <CdId>
1554

> <Mol Weight>
401.501

> <Formula>
C23H15NO2S2

> <Click_ID>
CLK020_H09 __ __ 

$$$$
