CLK022_H07
 OpenBabel03191401532D

 23 24  0  0  0  0  0  0  0  0999 V2000
    1.9428    4.5362    0.0000 C   0  0  0  0  0  0  0  0  0  0  0  0
    4.0872    3.3082    0.0000 N   0  0  0  0  0  0  0  0  0  0  0  0
    2.6576    4.1330    0.0000 N   0  0  0  0  0  0  0  0  0  0  0  0
    4.8020    2.8958    0.0000 C   0  0  0  0  0  0  0  0  0  0  0  0
   -2.3369    2.8958    0.0000 C   0  0  0  0  0  0  0  0  0  0  0  0
   -3.0517    2.4834    0.0000 C   0  0  0  0  0  0  0  0  0  0  0  0
    1.2372    4.1330    0.0000 C   0  0  0  0  0  0  0  0  0  0  0  0
    3.3724    2.8958    0.0000 C   0  0  0  0  0  0  0  0  0  0  0  0
    4.0872    4.1330    0.0000 C   0  0  0  0  0  0  0  0  0  0  0  0
    3.3724    4.5362    0.0000 C   0  0  0  0  0  0  0  0  0  0  0  0
    2.6576    3.3082    0.0000 C   0  0  0  0  0  0  0  0  0  0  0  0
    4.8020    2.0711    0.0000 O   0  0  0  0  0  0  0  0  0  0  0  0
    1.9428    5.3610    0.0000 O   0  0  0  0  0  0  0  0  0  0  0  0
    0.5224    4.5362    0.0000 C   0  0  0  0  0  0  0  0  0  0  0  0
    1.2372    3.3082    0.0000 C   0  0  0  0  0  0  0  0  0  0  0  0
    5.5168    3.3082    0.0000 O   0  0  0  0  0  0  0  0  0  0  0  0
   -0.1924    3.3082    0.0000 C   0  0  0  0  0  0  0  0  0  0  0  0
    0.5224    2.8958    0.0000 C   0  0  0  0  0  0  0  0  0  0  0  0
   -0.1924    4.1330    0.0000 C   0  0  0  0  0  0  0  0  0  0  0  0
   -1.6220    3.3082    0.0000 C   0  0  0  0  0  0  0  0  0  0  0  0
   -0.9072    2.8958    0.0000 O   0  0  0  0  0  0  0  0  0  0  0  0
    6.2316    2.8958    0.0000 C   0  0  0  0  0  0  0  0  0  0  0  0
    6.9464    3.3082    0.0000 C   0  0  0  0  0  0  0  0  0  0  0  0
  2  8  1  0  0  0  0
  3  1  1  0  0  0  0
  4  2  1  0  0  0  0
  5 20  1  0  0  0  0
  6  5  3  0  0  0  0
  7  1  1  0  0  0  0
  8 11  1  0  0  0  0
  9 10  1  0  0  0  0
  9  2  1  0  0  0  0
 10  3  1  0  0  0  0
 11  3  1  0  0  0  0
 12  4  2  0  0  0  0
 13  1  2  0  0  0  0
 14  7  1  0  0  0  0
 15  7  2  0  0  0  0
 16  4  1  0  0  0  0
 17 18  2  0  0  0  0
 18 15  1  0  0  0  0
 19 14  2  0  0  0  0
 19 17  1  0  0  0  0
 20 21  1  0  0  0  0
 21 17  1  0  0  0  0
 22 16  1  0  0  0  0
 23 22  1  0  0  0  0
M  END
> <CdId>
1695

> <Mol Weight>
316.3517

> <Formula>
C17H20N2O4

> <Click_ID>
CLK022_H07 __ __ 

$$$$
