CLK042B07
 OpenBabel03191401532D

 20 20  0  0  0  0  0  0  0  0999 V2000
    0.0333   -1.7500    0.0000 C   0  0  0  0  0  0  0  0  0  0  0  0
   -0.6792    1.9625    0.0000 C   0  0  0  0  0  0  0  0  0  0  0  0
    0.7500    3.6125    0.0000 C   0  0  0  0  0  0  0  0  0  0  0  0
    1.4625    4.0208    0.0000 C   0  0  0  0  0  0  0  0  0  0  0  0
   -0.6792   -1.3375    0.0000 N   0  0  0  0  0  0  0  0  0  0  0  0
    0.0333   -2.5750    0.0000 O   0  0  0  0  0  0  0  0  0  0  0  0
   -0.6792    1.1375    0.0000 C   0  0  0  0  0  0  0  0  0  0  0  0
    0.7500   -1.3375    0.0000 O   0  0  0  0  0  0  0  0  0  0  0  0
   -1.3958    2.3750    0.0000 O   0  0  0  0  0  0  0  0  0  0  0  0
    0.7500   -2.9875    0.0000 C   0  0  0  0  0  0  0  0  0  0  0  0
    0.0333    2.3750    0.0000 N   0  0  0  0  0  0  0  0  0  0  0  0
   -1.3958    0.7250    0.0000 C   0  0  0  0  0  0  0  0  0  0  0  0
    0.0333    0.7250    0.0000 C   0  0  0  0  0  0  0  0  0  0  0  0
   -0.6792   -0.5125    0.0000 C   0  0  0  0  0  0  0  0  0  0  0  0
   -1.3958   -0.1000    0.0000 C   0  0  0  0  0  0  0  0  0  0  0  0
    0.0333   -0.1000    0.0000 C   0  0  0  0  0  0  0  0  0  0  0  0
    0.0333    3.2000    0.0000 C   0  0  0  0  0  0  0  0  0  0  0  0
    0.3375   -3.7042    0.0000 C   0  0  0  0  0  0  0  0  0  0  0  0
    1.4625   -3.4000    0.0000 C   0  0  0  0  0  0  0  0  0  0  0  0
    1.1625   -2.2750    0.0000 C   0  0  0  0  0  0  0  0  0  0  0  0
  2  7  1  0  0  0  0
  3 17  1  0  0  0  0
  4  3  3  0  0  0  0
  5  1  1  0  0  0  0
  6  1  1  0  0  0  0
  7 12  2  0  0  0  0
  7 13  1  0  0  0  0
  8  1  2  0  0  0  0
  9  2  2  0  0  0  0
 10  6  1  0  0  0  0
 11  2  1  0  0  0  0
 12 15  1  0  0  0  0
 13 16  2  0  0  0  0
 14  5  1  0  0  0  0
 15 14  2  0  0  0  0
 16 14  1  0  0  0  0
 17 11  1  0  0  0  0
 18 10  1  0  0  0  0
 19 10  1  0  0  0  0
 20 10  1  0  0  0  0
M  END
> <CdId>
3210

> <Mol Weight>
274.315

> <Formula>
C15H18N2O3

> <Click_ID>
CLK042B07 __ __ 

$$$$
