CLK030_G03
 OpenBabel03191401532D

 24 26  0  0  0  0  0  0  0  0999 V2000
   -1.1649    2.3882    0.0000 C    0  0  0  0  0  0  0  0  0  0  0  0
   -0.3382    2.3799    0.0000 N    0  0  0  0  0  0  0  0  0  0  0  0
   -1.6492    1.7244    0.0000 N    0  0  0  0  0  0  0  0  0  0  0  0
    0.0752    3.0939    0.0000 C    0  0  0  0  0  0  0  0  0  0  0  0
   -1.6492    3.0563    0.0000 S    0  0  0  0  0  0  0  0  0  0  0  0
   -2.4383    2.8016    0.0000 C    0  0  0  0  0  0  0  0  0  0  0  0
    0.9019    3.0939    0.0000 C    0  0  0  0  0  0  0  0  0  0  0  0
   -2.4383    1.9749    0.0000 C    0  0  0  0  0  0  0  0  0  0  0  0
   -3.1523    3.2149    0.0000 C    0  0  0  0  0  0  0  0  0  0  0  0
   -1.9498    0.3215    0.0000 C    0  0  0  0  0  0  0  0  0  0  0  0
   -2.5010   -0.2923    0.0000 C    0  0  0  0  0  0  0  0  0  0  0  0
   -3.1523    1.5615    0.0000 C    0  0  0  0  0  0  0  0  0  0  0  0
   -0.3382    3.8079    0.0000 O    0  0  0  0  0  0  0  0  0  0  0  0
    1.3069    2.3757    0.0000 C    0  0  0  0  0  0  0  0  0  0  0  0
    1.3069    3.8037    0.0000 C    0  0  0  0  0  0  0  0  0  0  0  0
   -1.3987    0.9352    0.0000 C    0  0  0  0  0  0  0  0  0  0  0  0
   -3.8663    2.8016    0.0000 C    0  0  0  0  0  0  0  0  0  0  0  0
   -3.8663    1.9749    0.0000 C    0  0  0  0  0  0  0  0  0  0  0  0
    0.8935    1.6617    0.0000 F    0  0  0  0  0  0  0  0  0  0  0  0
    0.8935    4.5135    0.0000 F    0  0  0  0  0  0  0  0  0  0  0  0
   -4.5928    3.2192    0.0000 Br   0  0  0  0  0  0  0  0  0  0  0  0
    2.5470    3.0897    0.0000 C    0  0  0  0  0  0  0  0  0  0  0  0
    2.1336    3.8079    0.0000 C    0  0  0  0  0  0  0  0  0  0  0  0
    2.1336    2.3757    0.0000 C    0  0  0  0  0  0  0  0  0  0  0  0
  2  1  2  0  0  0  0
  3  1  1  0  0  0  0
  4  2  1  0  0  0  0
  5  1  1  0  0  0  0
  6  5  1  0  0  0  0
  6  8  2  0  0  0  0
  7  4  1  0  0  0  0
  8  3  1  0  0  0  0
  9  6  1  0  0  0  0
 10 16  1  0  0  0  0
 11 10  3  0  0  0  0
 12  8  1  0  0  0  0
 13  4  2  0  0  0  0
 14  7  2  0  0  0  0
 15  7  1  0  0  0  0
 16  3  1  0  0  0  0
 17  9  2  0  0  0  0
 17 18  1  0  0  0  0
 18 12  2  0  0  0  0
 19 14  1  0  0  0  0
 20 15  1  0  0  0  0
 21 17  1  0  0  0  0
 22 23  1  0  0  0  0
 22 24  2  0  0  0  0
 23 15  2  0  0  0  0
 24 14  1  0  0  0  0
M  END
> <CdId>
2307

> <Mol Weight>
407.232

> <Formula>
C17H9BrF2N2OS

> <Click_ID>
CLK030_G03 __ __ 

$$$$
