CLK044C05
 OpenBabel03191401532D

 31 33  0  0  0  0  0  0  0  0999 V2000
   -1.0625   -1.3833    0.0000 C   0  0  0  0  0  0  0  0  0  0  0  0
    1.7958    1.0917    0.0000 C   0  0  0  0  0  0  0  0  0  0  0  0
   -1.7750   -1.7958    0.0000 N   0  0  0  0  0  0  0  0  0  0  0  0
    1.7958    1.9167    0.0000 N   0  0  0  0  0  0  0  0  0  0  0  0
   -0.3458   -1.7958    0.0000 N   0  0  0  0  0  0  0  0  0  0  0  0
    0.3667   -1.3833    0.0000 C   0  0  0  0  0  0  0  0  0  0  0  0
    1.0792    0.6792    0.0000 N   0  0  0  0  0  0  0  0  0  0  0  0
    0.3667   -0.5583    0.0000 C   0  0  0  0  0  0  0  0  0  0  0  0
    2.5083    4.8000    0.0000 C   0  0  0  0  0  0  0  0  0  0  0  0
   -4.6333   -2.6208    0.0000 C   0  0  0  0  0  0  0  0  0  0  0  0
   -3.2042   -2.6208    0.0000 N   0  0  0  0  0  0  0  0  0  0  0  0
    1.7958    3.5667    0.0000 N   0  0  0  0  0  0  0  0  0  0  0  0
    3.2250    5.2125    0.0000 C   0  0  0  0  0  0  0  0  0  0  0  0
   -5.3500   -2.2083    0.0000 C   0  0  0  0  0  0  0  0  0  0  0  0
    1.0792   -0.1458    0.0000 C   0  0  0  0  0  0  0  0  0  0  0  0
   -1.0625   -0.5583    0.0000 O   0  0  0  0  0  0  0  0  0  0  0  0
    2.5083    0.6792    0.0000 O   0  0  0  0  0  0  0  0  0  0  0  0
    1.0792   -1.7958    0.0000 C   0  0  0  0  0  0  0  0  0  0  0  0
    2.5083    2.3292    0.0000 C   0  0  0  0  0  0  0  0  0  0  0  0
    1.0792    2.3292    0.0000 C   0  0  0  0  0  0  0  0  0  0  0  0
   -2.4917   -1.3833    0.0000 C   0  0  0  0  0  0  0  0  0  0  0  0
   -1.7750   -2.6208    0.0000 C   0  0  0  0  0  0  0  0  0  0  0  0
    1.7958   -1.3833    0.0000 C   0  0  0  0  0  0  0  0  0  0  0  0
    1.0792    3.1542    0.0000 C   0  0  0  0  0  0  0  0  0  0  0  0
   -3.2042   -1.7958    0.0000 C   0  0  0  0  0  0  0  0  0  0  0  0
   -2.4917   -3.0333    0.0000 C   0  0  0  0  0  0  0  0  0  0  0  0
    2.5083    3.1542    0.0000 C   0  0  0  0  0  0  0  0  0  0  0  0
    1.7958    4.3875    0.0000 C   0  0  0  0  0  0  0  0  0  0  0  0
   -3.9208   -3.0333    0.0000 C   0  0  0  0  0  0  0  0  0  0  0  0
    1.7958   -0.5583    0.0000 C   0  0  0  0  0  0  0  0  0  0  0  0
    1.0792   -2.6208    0.0000 C   0  0  0  0  0  0  0  0  0  0  0  0
  2  7  1  0  0  0  0
  3  1  1  0  0  0  0
  4  2  1  0  0  0  0
  5  1  1  0  0  0  0
  6  5  1  0  0  0  0
  7 15  1  0  0  0  0
  8  6  1  0  0  0  0
  9 28  1  0  0  0  0
 10 29  1  0  0  0  0
 11 26  1  0  0  0  0
 11 25  1  0  0  0  0
 12 24  1  0  0  0  0
 12 27  1  0  0  0  0
 13  9  3  0  0  0  0
 14 10  3  0  0  0  0
 15  8  2  0  0  0  0
 15 30  1  0  0  0  0
 16  1  2  0  0  0  0
 17  2  2  0  0  0  0
 18  6  2  0  0  0  0
 19  4  1  0  0  0  0
 20  4  1  0  0  0  0
 21  3  1  0  0  0  0
 22  3  1  0  0  0  0
 23 18  1  0  0  0  0
 24 20  1  0  0  0  0
 25 21  1  0  0  0  0
 26 22  1  0  0  0  0
 27 19  1  0  0  0  0
 28 12  1  0  0  0  0
 29 11  1  0  0  0  0
 30 23  2  0  0  0  0
 31 18  1  0  0  0  0
M  END
> <CdId>
3355

> <Mol Weight>
422.5233

> <Formula>
C23H30N6O2

> <Click_ID>
CLK044C05 __ __ 

$$$$
