CLK031_C04
 OpenBabel03191401532D

 38 42  0  0  0  0  0  0  0  0999 V2000
    3.3875    3.0625    0.0000 S   0  0  0  0  0  0  0  0  0  0  0  0
   -1.1625    2.3833    0.0000 C   0  0  0  0  0  0  0  0  0  0  0  0
    4.2125    3.0583    0.0000 N   0  0  0  0  0  0  0  0  0  0  0  0
   -0.3375    2.3750    0.0000 N   0  0  0  0  0  0  0  0  0  0  0  0
   -4.5833    3.2125    0.0000 S   0  0  0  0  0  0  0  0  0  0  0  0
   -1.6458    1.7208    0.0000 N   0  0  0  0  0  0  0  0  0  0  0  0
   -1.6458    3.0500    0.0000 S   0  0  0  0  0  0  0  0  0  0  0  0
   -2.4333    2.7958    0.0000 C   0  0  0  0  0  0  0  0  0  0  0  0
   -2.4333    1.9708    0.0000 C   0  0  0  0  0  0  0  0  0  0  0  0
    0.0750    3.0875    0.0000 C   0  0  0  0  0  0  0  0  0  0  0  0
    4.6167    2.3500    0.0000 C   0  0  0  0  0  0  0  0  0  0  0  0
   -3.8583    2.7958    0.0000 C   0  0  0  0  0  0  0  0  0  0  0  0
   -3.1458    3.2083    0.0000 C   0  0  0  0  0  0  0  0  0  0  0  0
    2.5542    3.0708    0.0000 C   0  0  0  0  0  0  0  0  0  0  0  0
    3.3917    3.8958    0.0000 O   0  0  0  0  0  0  0  0  0  0  0  0
    3.3792    2.2333    0.0000 O   0  0  0  0  0  0  0  0  0  0  0  0
   -1.9458    0.3208    0.0000 C   0  0  0  0  0  0  0  0  0  0  0  0
   -3.1458    1.5583    0.0000 C   0  0  0  0  0  0  0  0  0  0  0  0
   -2.4958   -0.2917    0.0000 C   0  0  0  0  0  0  0  0  0  0  0  0
   -4.1458    3.9083    0.0000 O   0  0  0  0  0  0  0  0  0  0  0  0
   -5.0208    2.5083    0.0000 O   0  0  0  0  0  0  0  0  0  0  0  0
    0.9000    3.0875    0.0000 C   0  0  0  0  0  0  0  0  0  0  0  0
   -5.2833    3.6458    0.0000 N   0  0  0  0  0  0  0  0  0  0  0  0
   -0.3375    3.8000    0.0000 O   0  0  0  0  0  0  0  0  0  0  0  0
   -3.8583    1.9708    0.0000 C   0  0  0  0  0  0  0  0  0  0  0  0
    5.4500    2.3458    0.0000 C   0  0  0  0  0  0  0  0  0  0  0  0
   -1.3958    0.9333    0.0000 C   0  0  0  0  0  0  0  0  0  0  0  0
    2.1500    3.8083    0.0000 C   0  0  0  0  0  0  0  0  0  0  0  0
    2.1292    2.3708    0.0000 C   0  0  0  0  0  0  0  0  0  0  0  0
    1.3125    2.3833    0.0000 C   0  0  0  0  0  0  0  0  0  0  0  0
    1.3250    3.8125    0.0000 C   0  0  0  0  0  0  0  0  0  0  0  0
    4.6292    3.7833    0.0000 C   0  0  0  0  0  0  0  0  0  0  0  0
    4.2000    1.6333    0.0000 C   0  0  0  0  0  0  0  0  0  0  0  0
    5.4625    3.7750    0.0000 C   0  0  0  0  0  0  0  0  0  0  0  0
    5.8667    3.0458    0.0000 C   0  0  0  0  0  0  0  0  0  0  0  0
    5.8542    1.6208    0.0000 C   0  0  0  0  0  0  0  0  0  0  0  0
    4.6042    0.9125    0.0000 C   0  0  0  0  0  0  0  0  0  0  0  0
    5.4375    0.9083    0.0000 C   0  0  0  0  0  0  0  0  0  0  0  0
  2  4  2  0  0  0  0
  3  1  1  0  0  0  0
  4 10  1  0  0  0  0
  5 12  1  0  0  0  0
  6  2  1  0  0  0  0
  7  2  1  0  0  0  0
  8  7  1  0  0  0  0
  8  9  2  0  0  0  0
  9  6  1  0  0  0  0
 10 22  1  0  0  0  0
 11  3  1  0  0  0  0
 12 13  2  0  0  0  0
 12 25  1  0  0  0  0
 13  8  1  0  0  0  0
 14  1  1  0  0  0  0
 15  1  2  0  0  0  0
 16  1  2  0  0  0  0
 17 27  1  0  0  0  0
 18  9  1  0  0  0  0
 19 17  3  0  0  0  0
 20  5  2  0  0  0  0
 21  5  2  0  0  0  0
 22 30  2  0  0  0  0
 22 31  1  0  0  0  0
 23  5  1  0  0  0  0
 24 10  2  0  0  0  0
 25 18  2  0  0  0  0
 26 11  2  0  0  0  0
 26 35  1  0  0  0  0
 27  6  1  0  0  0  0
 28 14  1  0  0  0  0
 29 14  2  0  0  0  0
 30 29  1  0  0  0  0
 31 28  2  0  0  0  0
 32  3  1  0  0  0  0
 33 11  1  0  0  0  0
 34 32  1  0  0  0  0
 35 34  1  0  0  0  0
 36 26  1  0  0  0  0
 37 33  2  0  0  0  0
 38 37  1  0  0  0  0
 38 36  2  0  0  0  0
M  END
> <CdId>
2348

> <Mol Weight>
566.672

> <Formula>
C26H22N4O5S3

> <Click_ID>
CLK031_C04 __ __ 

$$$$
