CLK023_F03
 OpenBabel03191401532D

 23 24  0  0  0  0  0  0  0  0999 V2000
   -1.2773   -1.9298    0.0000 N   0  0  0  0  0  0  0  0  0  0  0  0
   -1.0266   -2.7229    0.0000 C   0  0  0  0  0  0  0  0  0  0  0  0
   -0.6112   -1.4490    0.0000 C   0  0  0  0  0  0  0  0  0  0  0  0
    0.0583   -1.9298    0.0000 C   0  0  0  0  0  0  0  0  0  0  0  0
   -0.1992   -2.7229    0.0000 N   0  0  0  0  0  0  0  0  0  0  0  0
    0.8481   -1.6791    0.0000 C   0  0  0  0  0  0  0  0  0  0  0  0
    2.4997    2.5959    0.0000 C   0  0  0  0  0  0  0  0  0  0  0  0
    2.6817    3.3959    0.0000 C   0  0  0  0  0  0  0  0  0  0  0  0
   -1.5108   -3.3959    0.0000 O   0  0  0  0  0  0  0  0  0  0  0  0
    0.5700    0.4910    0.0000 C   0  0  0  0  0  0  0  0  0  0  0  0
   -0.6112   -0.6215    0.0000 O   0  0  0  0  0  0  0  0  0  0  0  0
    1.0198   -0.8721    0.0000 C   0  0  0  0  0  0  0  0  0  0  0  0
    0.4086   -0.3262    0.0000 C   0  0  0  0  0  0  0  0  0  0  0  0
    1.3494    0.7417    0.0000 C   0  0  0  0  0  0  0  0  0  0  0  0
   -2.0637   -1.6791    0.0000 C   0  0  0  0  0  0  0  0  0  0  0  0
    1.9640    0.1889    0.0000 C   0  0  0  0  0  0  0  0  0  0  0  0
    1.7889   -0.6215    0.0000 C   0  0  0  0  0  0  0  0  0  0  0  0
   -0.0309    1.0336    0.0000 O   0  0  0  0  0  0  0  0  0  0  0  0
    1.5383    1.5417    0.0000 O   0  0  0  0  0  0  0  0  0  0  0  0
    2.3177    1.7889    0.0000 C   0  0  0  0  0  0  0  0  0  0  0  0
   -0.8103    0.7794    0.0000 C   0  0  0  0  0  0  0  0  0  0  0  0
   -2.6851   -2.2319    0.0000 C   0  0  0  0  0  0  0  0  0  0  0  0
   -1.4147    1.3288    0.0000 C   0  0  0  0  0  0  0  0  0  0  0  0
  2  1  1  0  0  0  0
  3  1  1  0  0  0  0
  4  3  1  0  0  0  0
  5  2  1  0  0  0  0
  5  4  1  0  0  0  0
  6  4  2  0  0  0  0
  7 20  1  0  0  0  0
  8  7  3  0  0  0  0
  9  2  2  0  0  0  0
 10 13  1  0  0  0  0
 10 14  2  0  0  0  0
 11  3  2  0  0  0  0
 12  6  1  0  0  0  0
 13 12  2  0  0  0  0
 14 16  1  0  0  0  0
 15  1  1  0  0  0  0
 16 17  2  0  0  0  0
 17 12  1  0  0  0  0
 18 10  1  0  0  0  0
 19 14  1  0  0  0  0
 20 19  1  0  0  0  0
 21 18  1  0  0  0  0
 22 15  1  0  0  0  0
 23 21  1  0  0  0  0
M  END
> <CdId>
1748

> <Mol Weight>
314.3358

> <Formula>
C17H18N2O4

> <Click_ID>
CLK023_F03 __ __ 

$$$$
