CLK020_E10
 OpenBabel03191401532D

 30 33  0  0  0  0  0  0  0  0999 V2000
    1.1538   -0.9164    0.0000 N   0  0  0  0  0  0  0  0  0  0  0  0
    1.4120   -1.7036    0.0000 C   0  0  0  0  0  0  0  0  0  0  0  0
    2.4908   -0.9164    0.0000 C   0  0  0  0  0  0  0  0  0  0  0  0
    1.8243   -0.4290    0.0000 C   0  0  0  0  0  0  0  0  0  0  0  0
    2.2367   -1.7036    0.0000 N   0  0  0  0  0  0  0  0  0  0  0  0
    3.5612   -0.5665    0.0000 C   0  0  0  0  0  0  0  0  0  0  0  0
    3.7361    0.2374    0.0000 C   0  0  0  0  0  0  0  0  0  0  0  0
    0.3749   -0.6623    0.0000 C   0  0  0  0  0  0  0  0  0  0  0  0
    0.1999    0.1457    0.0000 C   0  0  0  0  0  0  0  0  0  0  0  0
    4.5150    0.4956    0.0000 C   0  0  0  0  0  0  0  0  0  0  0  0
    1.9035    1.8951    0.0000 C   0  0  0  0  0  0  0  0  0  0  0  0
    2.0659    2.7073    0.0000 C   0  0  0  0  0  0  0  0  0  0  0  0
    0.9247   -2.3658    0.0000 O   0  0  0  0  0  0  0  0  0  0  0  0
    3.1238    0.7872    0.0000 C   0  0  0  0  0  0  0  0  0  0  0  0
    1.8160    0.3957    0.0000 O   0  0  0  0  0  0  0  0  0  0  0  0
   -0.5831    0.3957    0.0000 C   0  0  0  0  0  0  0  0  0  0  0  0
    4.6899    1.2953    0.0000 C   0  0  0  0  0  0  0  0  0  0  0  0
    3.2905    1.5952    0.0000 C   0  0  0  0  0  0  0  0  0  0  0  0
    4.0777    1.8493    0.0000 C   0  0  0  0  0  0  0  0  0  0  0  0
   -1.1953   -0.1541    0.0000 F   0  0  0  0  0  0  0  0  0  0  0  0
    2.3408    0.5373    0.0000 O   0  0  0  0  0  0  0  0  0  0  0  0
    1.7285    1.0954    0.0000 C   0  0  0  0  0  0  0  0  0  0  0  0
    0.8164    0.6955    0.0000 C   0  0  0  0  0  0  0  0  0  0  0  0
    5.1273   -0.0667    0.0000 C   0  0  0  0  0  0  0  0  0  0  0  0
   -0.7580    1.1995    0.0000 C   0  0  0  0  0  0  0  0  0  0  0  0
    5.4646    1.5494    0.0000 C   0  0  0  0  0  0  0  0  0  0  0  0
    0.6415    1.4994    0.0000 C   0  0  0  0  0  0  0  0  0  0  0  0
    5.9020    0.1999    0.0000 C   0  0  0  0  0  0  0  0  0  0  0  0
   -0.1457    1.7576    0.0000 C   0  0  0  0  0  0  0  0  0  0  0  0
    6.0727    1.0079    0.0000 C   0  0  0  0  0  0  0  0  0  0  0  0
  2  1  1  0  0  0  0
  3  4  1  0  0  0  0
  3  5  1  0  0  0  0
  4  1  1  0  0  0  0
  5  2  1  0  0  0  0
  6  3  2  0  0  0  0
  7  6  1  0  0  0  0
  8  1  1  0  0  0  0
  9  8  1  0  0  0  0
 10  7  1  0  0  0  0
 11 22  1  0  0  0  0
 12 11  3  0  0  0  0
 13  2  2  0  0  0  0
 14  7  2  0  0  0  0
 15  4  2  0  0  0  0
 16  9  1  0  0  0  0
 17 10  1  0  0  0  0
 17 19  1  0  0  0  0
 18 14  1  0  0  0  0
 19 18  2  0  0  0  0
 20 16  1  0  0  0  0
 21 14  1  0  0  0  0
 22 21  1  0  0  0  0
 23  9  2  0  0  0  0
 24 10  2  0  0  0  0
 25 16  2  0  0  0  0
 26 17  2  0  0  0  0
 26 30  1  0  0  0  0
 27 23  1  0  0  0  0
 28 24  1  0  0  0  0
 29 27  2  0  0  0  0
 29 25  1  0  0  0  0
 30 28  2  0  0  0  0
M  END
> <CdId>
1525

> <Mol Weight>
400.4018

> <Formula>
C24H17FN2O3

> <Click_ID>
CLK020_E10 __ __ 

$$$$
