CLK046F02
 OpenBabel03191401532D

 23 24  0  0  0  0  0  0  0  0999 V2000
   -0.5917   -1.6667    0.0000 C   0  0  0  0  0  0  0  0  0  0  0  0
   -1.3083   -2.0792    0.0000 N   0  3  0  0  0  0  0  0  0  0  0  0
    0.1208   -2.0792    0.0000 C   0  0  0  0  0  0  0  0  0  0  0  0
   -0.5917   -0.8417    0.0000 C   0  0  0  0  0  0  0  0  0  0  0  0
    0.1208    0.3958    0.0000 C   0  0  0  0  0  0  0  0  0  0  0  0
    0.1208   -0.4292    0.0000 C   0  0  0  0  0  0  0  0  0  0  0  0
    0.8375    0.8083    0.0000 N   0  0  0  0  0  0  0  0  0  0  0  0
   -0.5917    3.2833    0.0000 C   0  0  0  0  0  0  0  0  0  0  0  0
    0.8375   -1.6667    0.0000 C   0  0  0  0  0  0  0  0  0  0  0  0
   -1.3083    3.6958    0.0000 C   0  0  0  0  0  0  0  0  0  0  0  0
   -2.0208   -1.6667    0.0000 O   0  5  0  0  0  0  0  0  0  0  0  0
   -1.3083   -2.9042    0.0000 O   0  0  0  0  0  0  0  0  0  0  0  0
    0.1208   -2.9042    0.0000 N   0  0  0  0  0  0  0  0  0  0  0  0
   -0.5917    0.8083    0.0000 O   0  0  0  0  0  0  0  0  0  0  0  0
    0.8375   -0.8417    0.0000 C   0  0  0  0  0  0  0  0  0  0  0  0
    0.8375    1.6333    0.0000 C   0  0  0  0  0  0  0  0  0  0  0  0
    0.1208    2.8708    0.0000 C   0  0  0  0  0  0  0  0  0  0  0  0
    0.1208    2.0458    0.0000 C   0  0  0  0  0  0  0  0  0  0  0  0
    1.5500    2.8708    0.0000 C   0  0  0  0  0  0  0  0  0  0  0  0
   -0.5917   -3.3167    0.0000 C   0  0  0  0  0  0  0  0  0  0  0  0
    0.8375   -3.3167    0.0000 C   0  0  0  0  0  0  0  0  0  0  0  0
    1.5500    2.0458    0.0000 C   0  0  0  0  0  0  0  0  0  0  0  0
    0.8375    3.2833    0.0000 C   0  0  0  0  0  0  0  0  0  0  0  0
  2  1  1  0  0  0  0
  3  1  2  0  0  0  0
  4  1  1  0  0  0  0
  5  6  1  0  0  0  0
  6  4  2  0  0  0  0
  6 15  1  0  0  0  0
  7  5  1  0  0  0  0
  8 17  1  0  0  0  0
  9  3  1  0  0  0  0
 10  8  3  0  0  0  0
 11  2  1  0  0  0  0
 12  2  2  0  0  0  0
 13  3  1  0  0  0  0
 14  5  2  0  0  0  0
 15  9  2  0  0  0  0
 16  7  1  0  0  0  0
 17 18  1  0  0  0  0
 18 16  2  0  0  0  0
 19 22  2  0  0  0  0
 20 13  1  0  0  0  0
 21 13  1  0  0  0  0
 22 16  1  0  0  0  0
 23 17  2  0  0  0  0
 23 19  1  0  0  0  0
M  END
> <CdId>
3494

> <Mol Weight>
309.3193

> <Formula>
C17H15N3O3

> <Click_ID>
CLK046F02 __ __ 

$$$$
