CLK006_G09
 OpenBabel03191401532D

 26 28  0  0  0  0  0  0  0  0999 V2000
    5.0839  -24.7920    0.0000 C   0  0  0  0  0  0  0  0  0  0  0  0
    5.4954  -24.0811    0.0000 C   0  0  0  0  0  0  0  0  0  0  0  0
    4.2567  -24.7920    0.0000 N   0  0  0  0  0  0  0  0  0  0  0  0
    5.0839  -23.3661    0.0000 C   0  0  0  0  0  0  0  0  0  0  0  0
    4.2567  -23.3661    0.0000 N   0  0  0  0  0  0  0  0  0  0  0  0
    3.8452  -24.0811    0.0000 C   0  0  0  0  0  0  0  0  0  0  0  0
    5.4954  -25.5070    0.0000 N   0  0  0  0  0  0  0  0  0  0  0  0
    6.3227  -24.0811    0.0000 C   0  0  3  0  0  0  0  0  0  0  0  0
    6.3227  -25.5070    0.0000 C   0  0  0  0  0  0  0  0  0  0  0  0
    6.7342  -23.3661    0.0000 C   0  0  0  0  0  0  0  0  0  0  0  0
    6.7342  -24.7920    0.0000 C   0  0  0  0  0  0  0  0  0  0  0  0
    6.3227  -22.6553    0.0000 C   0  0  0  0  0  0  0  0  0  0  0  0
    1.7833  -24.7920    0.0000 C   0  0  0  0  0  0  0  0  0  0  0  0
    0.9603  -24.7920    0.0000 C   0  0  0  0  0  0  0  0  0  0  0  0
    6.7342  -21.9403    0.0000 C   0  0  0  0  0  0  0  0  0  0  0  0
    5.5038  -22.6470    0.0000 O   0  0  0  0  0  0  0  0  0  0  0  0
    7.5615  -21.9403    0.0000 C   0  0  0  0  0  0  0  0  0  0  0  0
    6.7425  -26.2261    0.0000 O   0  0  0  0  0  0  0  0  0  0  0  0
    7.5615  -23.3661    0.0000 C   0  0  0  0  0  0  0  0  0  0  0  0
    3.0221  -24.0811    0.0000 S   0  0  0  0  0  0  0  0  0  0  0  0
    7.9730  -22.6553    0.0000 C   0  0  0  0  0  0  0  0  0  0  0  0
    6.3144  -21.2211    0.0000 O   0  0  0  0  0  0  0  0  0  0  0  0
    2.6106  -24.7920    0.0000 C   0  0  0  0  0  0  0  0  0  0  0  0
    7.9813  -21.2211    0.0000 O   0  0  0  0  0  0  0  0  0  0  0  0
    6.7260  -20.5020    0.0000 C   0  0  0  0  0  0  0  0  0  0  0  0
    7.5698  -20.5020    0.0000 C   0  0  0  0  0  0  0  0  0  0  0  0
  2  1  2  0  0  0  0
  3  1  1  0  0  0  0
  4  2  1  0  0  0  0
  4  5  1  0  0  0  0
  5  6  1  0  0  0  0
  6  3  2  0  0  0  0
  7  1  1  0  0  0  0
  8  2  1  0  0  0  0
  8 11  1  0  0  0  0
  9  7  1  0  0  0  0
 10  8  1  0  0  0  0
 11  9  1  0  0  0  0
 12 10  1  0  0  0  0
 13 23  1  0  0  0  0
 14 13  3  0  0  0  0
 15 12  2  0  0  0  0
 15 17  1  0  0  0  0
 16  4  2  0  0  0  0
 17 21  2  0  0  0  0
 18  9  2  0  0  0  0
 19 10  2  0  0  0  0
 20  6  1  0  0  0  0
 21 19  1  0  0  0  0
 22 15  1  0  0  0  0
 23 20  1  0  0  0  0
 24 17  1  0  0  0  0
 25 22  1  0  0  0  0
 26 24  1  0  0  0  0
M  END
> <CdId>
468

> <Mol Weight>
371.41

> <Formula>
C18H17N3O4S

> <Click_ID>
CLK006_G09 __ __ 

$$$$
