CLK045H09
 OpenBabel03191401532D

 24 26  0  0  0  0  0  0  0  0999 V2000
    0.5625    0.9917    0.0000 C   0  0  0  0  0  0  0  0  0  0  0  0
   -0.1500    1.4042    0.0000 N   0  0  0  0  0  0  0  0  0  0  0  0
   -1.5792    3.8792    0.0000 C   0  0  0  0  0  0  0  0  0  0  0  0
   -2.2958    4.2875    0.0000 C   0  0  0  0  0  0  0  0  0  0  0  0
    0.5625    0.1667    0.0000 C   0  0  0  0  0  0  0  0  0  0  0  0
    1.2792    1.4042    0.0000 O   0  0  0  0  0  0  0  0  0  0  0  0
   -0.1500    2.2292    0.0000 C   0  0  0  0  0  0  0  0  0  0  0  0
    0.5167   -4.0333    0.0000 O   0  0  0  0  0  0  0  0  0  0  0  0
   -0.1500   -0.2458    0.0000 C   0  0  0  0  0  0  0  0  0  0  0  0
    1.2792   -0.2458    0.0000 C   0  0  0  0  0  0  0  0  0  0  0  0
   -0.8667    3.4667    0.0000 C   0  0  0  0  0  0  0  0  0  0  0  0
    0.5625   -2.3083    0.0000 O   0  0  0  0  0  0  0  0  0  0  0  0
   -0.8667    2.6417    0.0000 C   0  0  0  0  0  0  0  0  0  0  0  0
    0.5625   -1.4833    0.0000 C   0  0  0  0  0  0  0  0  0  0  0  0
    1.2792   -1.0708    0.0000 C   0  0  0  0  0  0  0  0  0  0  0  0
   -0.1500   -1.0708    0.0000 C   0  0  0  0  0  0  0  0  0  0  0  0
   -0.1500   -3.5458    0.0000 C   0  0  3  0  0  0  0  0  0  0  0  0
   -0.1500   -2.7208    0.0000 C   0  0  0  0  0  0  0  0  0  0  0  0
    0.5625    3.4667    0.0000 C   0  0  0  0  0  0  0  0  0  0  0  0
    0.5625    2.6417    0.0000 C   0  0  0  0  0  0  0  0  0  0  0  0
    0.2625   -4.8167    0.0000 C   0  0  0  0  0  0  0  0  0  0  0  0
   -0.1500    3.8792    0.0000 C   0  0  0  0  0  0  0  0  0  0  0  0
   -0.8167   -4.0333    0.0000 C   0  0  0  0  0  0  0  0  0  0  0  0
   -0.5625   -4.8167    0.0000 C   0  0  0  0  0  0  0  0  0  0  0  0
  2  1  1  0  0  0  0
  3 11  1  0  0  0  0
  4  3  3  0  0  0  0
  5  1  1  0  0  0  0
  6  1  2  0  0  0  0
  7  2  1  0  0  0  0
  8 17  1  0  0  0  0
  9  5  1  0  0  0  0
 10  5  2  0  0  0  0
 11 13  1  0  0  0  0
 12 14  1  0  0  0  0
 13  7  2  0  0  0  0
 14 15  2  0  0  0  0
 14 16  1  0  0  0  0
 15 10  1  0  0  0  0
 16  9  2  0  0  0  0
 17 18  1  0  0  0  0
 18 12  1  0  0  0  0
 19 20  2  0  0  0  0
 20  7  1  0  0  0  0
 21  8  1  0  0  0  0
 21 24  1  0  0  0  0
 22 11  2  0  0  0  0
 22 19  1  0  0  0  0
 23 17  1  0  0  0  0
 24 23  1  0  0  0  0
M  END
> <CdId>
3472

> <Mol Weight>
321.3698

> <Formula>
C20H19NO3

> <Click_ID>
CLK045H09 __ __ 

$$$$
