CLK042B02
 OpenBabel03191401532D

 27 29  0  0  0  0  0  0  0  0999 V2000
    1.8500    0.5958    0.0000 C   0  0  0  0  0  0  0  0  0  0  0  0
    2.5625    2.6583    0.0000 C   0  0  0  0  0  0  0  0  0  0  0  0
    1.1333   -0.6417    0.0000 N   0  0  0  0  0  0  0  0  0  0  0  0
   -0.2958   -1.4667    0.0000 N   0  0  0  0  0  0  0  0  0  0  0  0
   -3.1500   -1.4667    0.0000 C   0  0  0  0  0  0  0  0  0  0  0  0
    2.5625    3.4833    0.0000 C   0  0  0  0  0  0  0  0  0  0  0  0
    2.5625    1.0083    0.0000 N   0  0  0  0  0  0  0  0  0  0  0  0
   -3.1500   -0.6417    0.0000 C   0  0  0  0  0  0  0  0  0  0  0  0
   -3.9375   -1.7208    0.0000 O   0  0  0  0  0  0  0  0  0  0  0  0
    2.5625    1.8333    0.0000 C   0  0  0  0  0  0  0  0  0  0  0  0
   -3.9375   -0.3833    0.0000 O   0  0  0  0  0  0  0  0  0  0  0  0
   -4.4208   -1.0542    0.0000 C   0  0  0  0  0  0  0  0  0  0  0  0
   -2.4375   -1.8792    0.0000 C   0  0  0  0  0  0  0  0  0  0  0  0
    1.8500   -0.2292    0.0000 C   0  0  0  0  0  0  0  0  0  0  0  0
    1.1333    1.0083    0.0000 O   0  0  0  0  0  0  0  0  0  0  0  0
   -1.7208   -1.4667    0.0000 C   0  0  0  0  0  0  0  0  0  0  0  0
   -1.0083   -1.8792    0.0000 C   0  0  0  0  0  0  0  0  0  0  0  0
   -2.4375   -0.2292    0.0000 C   0  0  0  0  0  0  0  0  0  0  0  0
    0.4208   -1.8792    0.0000 C   0  0  0  0  0  0  0  0  0  0  0  0
    1.1333   -1.4667    0.0000 C   0  0  0  0  0  0  0  0  0  0  0  0
    0.4208   -0.2292    0.0000 C   0  0  0  0  0  0  0  0  0  0  0  0
   -0.2958   -0.6417    0.0000 C   0  0  0  0  0  0  0  0  0  0  0  0
   -1.7208   -0.6417    0.0000 C   0  0  0  0  0  0  0  0  0  0  0  0
    1.7375    1.8333    0.0000 C   0  0  0  0  0  0  0  0  0  0  0  0
    3.3875    1.8333    0.0000 C   0  0  0  0  0  0  0  0  0  0  0  0
    1.3250    2.5500    0.0000 C   0  0  0  0  0  0  0  0  0  0  0  0
    3.8000    1.1208    0.0000 C   0  0  0  0  0  0  0  0  0  0  0  0
  2 10  1  0  0  0  0
  3 14  1  0  0  0  0
  4 19  1  0  0  0  0
  4 22  1  0  0  0  0
  5 13  1  0  0  0  0
  6  2  3  0  0  0  0
  7  1  1  0  0  0  0
  8  5  2  0  0  0  0
  8 18  1  0  0  0  0
  9  5  1  0  0  0  0
 10  7  1  0  0  0  0
 11  8  1  0  0  0  0
 12  9  1  0  0  0  0
 12 11  1  0  0  0  0
 13 16  2  0  0  0  0
 14  1  1  0  0  0  0
 15  1  2  0  0  0  0
 16 17  1  0  0  0  0
 17  4  1  0  0  0  0
 18 23  2  0  0  0  0
 19 20  1  0  0  0  0
 20  3  1  0  0  0  0
 21  3  1  0  0  0  0
 22 21  1  0  0  0  0
 23 16  1  0  0  0  0
 24 10  1  0  0  0  0
 25 10  1  0  0  0  0
 26 24  1  0  0  0  0
 27 25  1  0  0  0  0
M  END
> <CdId>
3170

> <Mol Weight>
371.4733

> <Formula>
C21H29N3O3

> <Click_ID>
CLK042B02 __ __ 

$$$$
