CLK024_C09
 OpenBabel03191401532D

 28 30  0  0  0  0  0  0  0  0999 V2000
   -2.6172   -1.6911    0.0000 N   0  0  0  0  0  0  0  0  0  0  0  0
   -2.6137   -2.5108    0.0000 C   0  0  0  0  0  0  0  0  0  0  0  0
   -1.8419   -1.4235    0.0000 C   0  0  0  0  0  0  0  0  0  0  0  0
   -1.3583   -2.0821    0.0000 C   0  0  0  0  0  0  0  0  0  0  0  0
   -1.8317   -2.7578    0.0000 S   0  0  0  0  0  0  0  0  0  0  0  0
   -0.5351   -2.0752    0.0000 C   0  0  0  0  0  0  0  0  0  0  0  0
    4.3459    2.2707    0.0000 C   0  0  0  0  0  0  0  0  0  0  0  0
   -4.0372   -1.5641    0.0000 C   0  0  0  0  0  0  0  0  0  0  0  0
   -4.7644   -1.9483    0.0000 C   0  0  0  0  0  0  0  0  0  0  0  0
    3.5193    2.2570    0.0000 C   0  0  0  0  0  0  0  0  0  0  0  0
   -3.2655   -2.9945    0.0000 O   0  0  0  0  0  0  0  0  0  0  0  0
   -1.5984   -0.6415    0.0000 O   0  0  0  0  0  0  0  0  0  0  0  0
   -3.2860   -1.2177    0.0000 C   0  0  0  0  0  0  0  0  0  0  0  0
    3.1282    1.5332    0.0000 C   0  0  0  0  0  0  0  0  0  0  0  0
    4.7370    2.9979    0.0000 O   0  0  0  0  0  0  0  0  0  0  0  0
   -0.1303   -1.3548    0.0000 C   0  0  0  0  0  0  0  0  0  0  0  0
    1.0805    0.8095    0.0000 O   0  0  0  0  0  0  0  0  0  0  0  0
    4.7609    1.5573    0.0000 O   0  0  0  0  0  0  0  0  0  0  0  0
    0.6689    0.0892    0.0000 C   0  0  0  0  0  0  0  0  0  0  0  0
    2.2982    1.5230    0.0000 C   0  0  0  0  0  0  0  0  0  0  0  0
    1.8969    0.8095    0.0000 C   0  0  0  0  0  0  0  0  0  0  0  0
   -0.5625   -0.6448    0.0000 C   0  0  0  0  0  0  0  0  0  0  0  0
    0.6963   -1.3412    0.0000 C   0  0  0  0  0  0  0  0  0  0  0  0
   -0.1372    0.0755    0.0000 C   0  0  0  0  0  0  0  0  0  0  0  0
    1.1045   -0.6277    0.0000 C   0  0  0  0  0  0  0  0  0  0  0  0
    3.0905    2.9636    0.0000 C   0  0  0  0  0  0  0  0  0  0  0  0
    2.2741    2.9430    0.0000 C   0  0  0  0  0  0  0  0  0  0  0  0
    1.8763    2.2330    0.0000 C   0  0  0  0  0  0  0  0  0  0  0  0
  2  1  1  0  0  0  0
  3  1  1  0  0  0  0
  4  3  1  0  0  0  0
  5  2  1  0  0  0  0
  5  4  1  0  0  0  0
  6  4  2  0  0  0  0
  7 10  1  0  0  0  0
  8 13  1  0  0  0  0
  9  8  3  0  0  0  0
 10 14  1  0  0  0  0
 11  2  2  0  0  0  0
 12  3  2  0  0  0  0
 13  1  1  0  0  0  0
 14 20  2  0  0  0  0
 15  7  2  0  0  0  0
 16  6  1  0  0  0  0
 17 19  1  0  0  0  0
 18  7  1  0  0  0  0
 19 25  1  0  0  0  0
 20 21  1  0  0  0  0
 21 17  1  0  0  0  0
 22 16  2  0  0  0  0
 23 16  1  0  0  0  0
 24 22  1  0  0  0  0
 24 19  2  0  0  0  0
 25 23  2  0  0  0  0
 26 27  1  0  0  0  0
 26 10  2  0  0  0  0
 27 28  2  0  0  0  0
 28 20  1  0  0  0  0
M  END
> <CdId>
1804

> <Mol Weight>
393.413

> <Formula>
C21H15NO5S

> <Click_ID>
CLK024_C09 __ __ 

$$$$
