CLK021_G03
 OpenBabel03191401532D

 15 15  0  0  0  0  0  0  0  0999 V2000
    1.3376    1.2368    0.0000 C   0  0  0  0  0  0  0  0  0  0  0  0
   -0.7971    1.6491    0.0000 C   0  0  0  0  0  0  0  0  0  0  0  0
   -1.5117    2.0614    0.0000 C   0  0  0  0  0  0  0  0  0  0  0  0
    2.0522    1.6491    0.0000 N   0  0  0  0  0  0  0  0  0  0  0  0
    1.3376    0.4123    0.0000 O   0  0  0  0  0  0  0  0  0  0  0  0
    2.7668    1.2368    0.0000 C   0  0  0  0  0  0  0  0  0  0  0  0
    0.6230    1.6491    0.0000 O   0  0  0  0  0  0  0  0  0  0  0  0
    4.1960    0.4123    0.0000 C   0  0  0  0  0  0  0  0  0  0  0  0
    3.4814    1.6491    0.0000 C   0  0  0  0  0  0  0  0  0  0  0  0
    2.7668    0.4123    0.0000 C   0  0  0  0  0  0  0  0  0  0  0  0
    3.4814    0.0000    0.0000 C   0  0  0  0  0  0  0  0  0  0  0  0
    4.1960    1.2368    0.0000 C   0  0  0  0  0  0  0  0  0  0  0  0
   -0.0916    1.2368    0.0000 C   0  0  0  0  0  0  0  0  0  0  0  0
    4.9106    0.0000    0.0000 O   0  0  0  0  0  0  0  0  0  0  0  0
    5.6252    0.4123    0.0000 C   0  0  0  0  0  0  0  0  0  0  0  0
  2 13  1  0  0  0  0
  3  2  3  0  0  0  0
  4  1  1  0  0  0  0
  5  1  2  0  0  0  0
  6  4  1  0  0  0  0
  7  1  1  0  0  0  0
  8 11  1  0  0  0  0
  8 12  2  0  0  0  0
  9  6  2  0  0  0  0
 10  6  1  0  0  0  0
 11 10  2  0  0  0  0
 12  9  1  0  0  0  0
 13  7  1  0  0  0  0
 14  8  1  0  0  0  0
 15 14  1  0  0  0  0
M  END
> <CdId>
1618

> <Mol Weight>
205.2099

> <Formula>
C11H11NO3

> <Click_ID>
CLK021_G03 __ __ 

$$$$
