CLK039D09
 OpenBabel03191401532D

 24 25  0  0  0  0  0  0  0  0999 V2000
    1.3524   -1.1235    0.0000 S   0  0  0  0  0  0  0  0  0  0  0  0
   -1.3607   -0.2414    0.0000 C   0  0  0  0  0  0  0  0  0  0  0  0
   -1.4064    1.9349    0.0000 C   0  0  0  0  0  0  0  0  0  0  0  0
   -1.1068    0.5409    0.0000 N   0  0  0  0  0  0  0  0  0  0  0  0
    0.5450   -1.2983    0.0000 C   0  0  0  0  0  0  0  0  0  0  0  0
   -0.8114   -0.8571    0.0000 C   0  0  0  0  0  0  0  0  0  0  0  0
   -1.6603    1.1527    0.0000 C   0  0  0  0  0  0  0  0  0  0  0  0
   -1.8892    2.6048    0.0000 C   0  0  0  0  0  0  0  0  0  0  0  0
   -0.6199    2.1929    0.0000 S   0  0  0  0  0  0  0  0  0  0  0  0
   -0.0042   -0.6824    0.0000 C   0  0  0  0  0  0  0  0  0  0  0  0
    3.5161   -1.3939    0.0000 C   0  0  0  0  0  0  0  0  0  0  0  0
    4.3192   -1.2234    0.0000 C   0  0  0  0  0  0  0  0  0  0  0  0
    1.1818   -0.3204    0.0000 O   0  0  0  0  0  0  0  0  0  0  0  0
    1.5229   -1.9307    0.0000 O   0  0  0  0  0  0  0  0  0  0  0  0
   -0.6199    3.0168    0.0000 C   0  0  0  0  0  0  0  0  0  0  0  0
    2.1597   -0.9529    0.0000 N   0  0  0  0  0  0  0  0  0  0  0  0
   -1.4064    3.2706    0.0000 C   0  0  0  0  0  0  0  0  0  0  0  0
   -2.1679   -0.4162    0.0000 O   0  0  0  0  0  0  0  0  0  0  0  0
    2.7089   -1.5646    0.0000 C   0  0  0  0  0  0  0  0  0  0  0  0
   -1.0653   -1.6395    0.0000 C   0  0  0  0  0  0  0  0  0  0  0  0
   -0.3038    0.7115    0.0000 C   0  0  0  0  0  0  0  0  0  0  0  0
    0.2913   -2.0806    0.0000 C   0  0  0  0  0  0  0  0  0  0  0  0
   -2.7131    2.6048    0.0000 C   0  0  0  0  0  0  0  0  0  0  0  0
   -0.5160   -2.2512    0.0000 C   0  0  0  0  0  0  0  0  0  0  0  0
  2  6  1  0  0  0  0
  3  7  1  0  0  0  0
  4  2  1  0  0  0  0
  5  1  1  0  0  0  0
  6 10  2  0  0  0  0
  7  4  1  0  0  0  0
  8  3  2  0  0  0  0
  9  3  1  0  0  0  0
 10  5  1  0  0  0  0
 11 19  1  0  0  0  0
 12 11  3  0  0  0  0
 13  1  2  0  0  0  0
 14  1  2  0  0  0  0
 15  9  1  0  0  0  0
 16  1  1  0  0  0  0
 17  8  1  0  0  0  0
 17 15  2  0  0  0  0
 18  2  2  0  0  0  0
 19 16  1  0  0  0  0
 20  6  1  0  0  0  0
 21  4  1  0  0  0  0
 22  5  2  0  0  0  0
 23  8  1  0  0  0  0
 24 22  1  0  0  0  0
 24 20  2  0  0  0  0
M  END
> <CdId>
2988

> <Mol Weight>
362.466

> <Formula>
C17H18N2O3S2

> <Click_ID>
CLK039D09 __ __ 

$$$$
