CLK039E03
 OpenBabel03191401532D

 17 17  0  0  0  0  0  0  0  0999 V2000
   -1.3875   -0.4125    0.0000 C    0  0  0  0  0  0  0  0  0  0  0  0
    0.0417    0.4125    0.0000 C    0  0  0  0  0  0  0  0  0  0  0  0
   -1.3875    0.4125    0.0000 C    0  0  0  0  0  0  0  0  0  0  0  0
   -0.6750   -0.8250    0.0000 C    0  0  0  0  0  0  0  0  0  0  0  0
    0.7542    0.8250    0.0000 C    0  0  0  0  0  0  0  0  0  0  0  0
   -0.6750    0.8250    0.0000 C    0  0  0  0  0  0  0  0  0  0  0  0
    0.0417   -0.4125    0.0000 C    0  0  0  0  0  0  0  0  0  0  0  0
    2.8958    0.4125    0.0000 C    0  0  0  0  0  0  0  0  0  0  0  0
    3.6125    0.0000    0.0000 C    0  0  0  0  0  0  0  0  0  0  0  0
    0.7542    1.6500    0.0000 O    0  0  0  0  0  0  0  0  0  0  0  0
    1.4708    0.4125    0.0000 N    0  0  0  0  0  0  0  0  0  0  0  0
   -2.1042    0.8250    0.0000 Cl   0  0  0  0  0  0  0  0  0  0  0  0
   -2.1042   -0.8250    0.0000 O    0  0  0  0  0  0  0  0  0  0  0  0
   -0.6750   -1.6500    0.0000 O    0  0  0  0  0  0  0  0  0  0  0  0
    2.1833    0.8250    0.0000 C    0  0  0  0  0  0  0  0  0  0  0  0
   -2.8167   -0.4125    0.0000 C    0  0  0  0  0  0  0  0  0  0  0  0
    0.0417   -2.0625    0.0000 C    0  0  0  0  0  0  0  0  0  0  0  0
  2  7  2  0  0  0  0
  3  1  1  0  0  0  0
  4  1  2  0  0  0  0
  5  2  1  0  0  0  0
  6  3  2  0  0  0  0
  6  2  1  0  0  0  0
  7  4  1  0  0  0  0
  8 15  1  0  0  0  0
  9  8  3  0  0  0  0
 10  5  2  0  0  0  0
 11  5  1  0  0  0  0
 12  3  1  0  0  0  0
 13  1  1  0  0  0  0
 14  4  1  0  0  0  0
 15 11  1  0  0  0  0
 16 13  1  0  0  0  0
 17 14  1  0  0  0  0
M  END
> <CdId>
2941

> <Mol Weight>
253.682

> <Formula>
C12H12ClNO3

> <Click_ID>
CLK039E03 __ __ 

$$$$
