CLK015_E03
 OpenBabel03191401532D

 24 25  0  0  0  0  0  0  0  0999 V2000
    6.4270   -2.3803    0.0000 N    0  0  0  0  0  0  0  0  0  0  0  0
    6.0186   -3.0939    0.0000 C    0  0  0  0  0  0  0  0  0  0  0  0
    5.1358   -2.1038    0.0000 C    0  0  0  0  0  0  0  0  0  0  0  0
    5.8825   -1.7697    0.0000 C    0  0  0  0  0  0  0  0  0  0  0  0
    5.2142   -2.9248    0.0000 N    0  0  0  0  0  0  0  0  0  0  0  0
    4.4222   -1.6954    0.0000 C    0  0  0  0  0  0  0  0  0  0  0  0
    2.2647   -2.9372    0.0000 C    0  0  0  0  0  0  0  0  0  0  0  0
    2.2689   -2.1038    0.0000 C    0  0  0  0  0  0  0  0  0  0  0  0
    2.9867   -3.3455    0.0000 C    0  0  0  0  0  0  0  0  0  0  0  0
    3.7003   -2.1080    0.0000 C    0  0  0  0  0  0  0  0  0  0  0  0
    6.3528   -3.8406    0.0000 S    0  0  0  0  0  0  0  0  0  0  0  0
    0.8415   -4.5955    0.0000 C    0  0  0  0  0  0  0  0  0  0  0  0
    0.1238   -5.0039    0.0000 C    0  0  0  0  0  0  0  0  0  0  0  0
    6.0516   -0.9694    0.0000 O    0  0  0  0  0  0  0  0  0  0  0  0
    2.9825   -1.6872    0.0000 C    0  0  0  0  0  0  0  0  0  0  0  0
    3.7003   -2.9330    0.0000 C    0  0  0  0  0  0  0  0  0  0  0  0
    7.2438   -2.2936    0.0000 C    0  0  0  0  0  0  0  0  0  0  0  0
    1.5511   -1.6872    0.0000 Br   0  0  0  0  0  0  0  0  0  0  0  0
    4.6037   -3.4693    0.0000 C    0  0  0  0  0  0  0  0  0  0  0  0
    1.5511   -3.3538    0.0000 O    0  0  0  0  0  0  0  0  0  0  0  0
    2.9867   -4.1705    0.0000 O    0  0  0  0  0  0  0  0  0  0  0  0
    1.5511   -4.1747    0.0000 C    0  0  0  0  0  0  0  0  0  0  0  0
    3.7044   -4.5831    0.0000 C    0  0  0  0  0  0  0  0  0  0  0  0
    7.7265   -2.9577    0.0000 C    0  0  0  0  0  0  0  0  0  0  0  0
  2  1  1  0  0  0  0
  3  4  1  0  0  0  0
  4  1  1  0  0  0  0
  5  2  1  0  0  0  0
  5  3  1  0  0  0  0
  6  3  2  0  0  0  0
  7  9  1  0  0  0  0
  7  8  2  0  0  0  0
  8 15  1  0  0  0  0
  9 16  2  0  0  0  0
 10  6  1  0  0  0  0
 11  2  2  0  0  0  0
 12 22  1  0  0  0  0
 13 12  3  0  0  0  0
 14  4  2  0  0  0  0
 15 10  2  0  0  0  0
 16 10  1  0  0  0  0
 17  1  1  0  0  0  0
 18  8  1  0  0  0  0
 19  5  1  0  0  0  0
 20  7  1  0  0  0  0
 21  9  1  0  0  0  0
 22 20  1  0  0  0  0
 23 21  1  0  0  0  0
 24 17  1  0  0  0  0
M  END
> <CdId>
1118

> <Mol Weight>
409.297

> <Formula>
C17H17BrN2O3S

> <Click_ID>
CLK015_E03 __ __ 

$$$$
