CLK002_A06
 OpenBabel03191401532D

 26 29  0  0  0  0  0  0  0  0999 V2000
   -1.1580    0.0744    0.0000 C   0  0  0  0  0  0  0  0  0  0  0  0
   -2.5531    0.0744    0.0000 C   0  0  0  0  0  0  0  0  0  0  0  0
   -1.1580   -0.7278    0.0000 C   0  0  0  0  0  0  0  0  0  0  0  0
   -0.4558    0.4674    0.0000 C   0  0  0  0  0  0  0  0  0  0  0  0
   -2.5531   -0.7278    0.0000 C   0  0  0  0  0  0  0  0  0  0  0  0
   -3.2414    0.4674    0.0000 C   0  0  0  0  0  0  0  0  0  0  0  0
   -0.4558   -1.1184    0.0000 N   0  0  0  0  0  0  0  0  0  0  0  0
   -1.8579   -1.1184    0.0000 S   0  0  0  0  0  0  0  0  0  0  0  0
    0.2185    0.0744    0.0000 N   0  0  0  0  0  0  0  0  0  0  0  0
   -0.4558    1.3021    0.0000 O   0  0  0  0  0  0  0  0  0  0  0  0
   -3.2414   -1.1184    0.0000 C   0  0  0  0  0  0  0  0  0  0  0  0
   -3.9367    0.0744    0.0000 C   0  0  0  0  0  0  0  0  0  0  0  0
    0.2185   -0.7278    0.0000 C   0  0  0  0  0  0  0  0  0  0  0  0
    0.8929    0.4674    0.0000 C   0  0  0  0  0  0  0  0  0  0  0  0
   -3.9367   -0.7278    0.0000 C   0  0  0  0  0  0  0  0  0  0  0  0
    0.9394   -1.1464    0.0000 S   0  0  0  0  0  0  0  0  0  0  0  0
    0.8929    1.2952    0.0000 C   0  0  0  0  0  0  0  0  0  0  0  0
    1.6137    0.0488    0.0000 C   0  0  0  0  0  0  0  0  0  0  0  0
    1.6556   -0.7348    0.0000 C   0  0  0  0  0  0  0  0  0  0  0  0
    1.6137    1.7207    0.0000 C   0  0  0  0  0  0  0  0  0  0  0  0
    2.3346    0.4674    0.0000 C   0  0  0  0  0  0  0  0  0  0  0  0
    2.3695   -1.1510    0.0000 C   0  0  0  0  0  0  0  0  0  0  0  0
    2.3346    1.3021    0.0000 C   0  0  0  0  0  0  0  0  0  0  0  0
    3.0903   -1.5696    0.0000 C   0  0  0  0  0  0  0  0  0  0  0  0
    3.0577    1.7207    0.0000 O   0  0  0  0  0  0  0  0  0  0  0  0
    3.7716    1.3091    0.0000 C   0  0  0  0  0  0  0  0  0  0  0  0
  1  2  1  0  0  0  0
  1  3  2  0  0  0  0
  1  4  1  0  0  0  0
  2  5  2  0  0  0  0
  2  6  1  0  0  0  0
  3  7  1  0  0  0  0
  3  8  1  0  0  0  0
  4  9  1  0  0  0  0
  4 10  2  0  0  0  0
  5 11  1  0  0  0  0
  5  8  1  0  0  0  0
  6 12  1  0  0  0  0
  7 13  2  0  0  0  0
  9 14  1  0  0  0  0
  9 13  1  0  0  0  0
 11 15  1  0  0  0  0
 12 15  1  0  0  0  0
 13 16  1  0  0  0  0
 14 17  1  0  0  0  0
 14 18  2  0  0  0  0
 16 19  1  0  0  0  0
 17 20  2  0  0  0  0
 18 21  1  0  0  0  0
 19 22  1  0  0  0  0
 20 23  1  0  0  0  0
 21 23  2  0  0  0  0
 22 24  3  0  0  0  0
 23 25  1  0  0  0  0
 25 26  1  0  0  0  0
M  END
> <CdId>
85

> <Mol Weight>
382.499

> <Formula>
C20H18N2O2S2

> <Click_ID>
CLK002_A06 __ __ 

$$$$
