CLK011B06
 OpenBabel03181409022D

 24 25  0  0  0  0  0  0  0  0999 V2000
    1.9491   -1.6402    0.0000 C   0  0  0  0  0  0  0  0  0  0  0  0
    1.9491    0.1590    0.0000 C   0  0  3  0  0  0  0  0  0  0  0  0
    1.1631   -1.1904    0.0000 C   0  0  0  0  0  0  0  0  0  0  0  0
    2.7260   -1.1904    0.0000 C   0  0  0  0  0  0  0  0  0  0  0  0
    2.7260   -0.2908    0.0000 O   0  0  0  0  0  0  0  0  0  0  0  0
    1.1631   -0.2908    0.0000 O   0  0  0  0  0  0  0  0  0  0  0  0
    1.9491   -2.5398    0.0000 C   0  0  0  0  0  0  0  0  0  0  0  0
    2.7170    0.6088    0.0000 C   0  0  0  0  0  0  0  0  0  0  0  0
   -1.6220   -4.7433    0.0000 C   0  0  0  0  0  0  0  0  0  0  0  0
   -2.3398   -4.4980    0.0000 C   0  0  0  0  0  0  0  0  0  0  0  0
    0.3862   -1.6402    0.0000 O   0  0  0  0  0  0  0  0  0  0  0  0
    3.5030   -1.6402    0.0000 O   0  0  0  0  0  0  0  0  0  0  0  0
    1.3812   -3.0305    0.0000 C   0  0  0  0  0  0  0  0  0  0  0  0
    1.1631    0.6088    0.0000 C   0  0  0  0  0  0  0  0  0  0  0  0
    0.2453   -4.0119    0.0000 C   0  0  0  0  0  0  0  0  0  0  0  0
    0.6725   -2.7806    0.0000 C   0  0  0  0  0  0  0  0  0  0  0  0
    1.5175   -3.7619    0.0000 C   0  0  0  0  0  0  0  0  0  0  0  0
    0.1000   -3.2713    0.0000 C   0  0  0  0  0  0  0  0  0  0  0  0
    0.9541   -4.2526    0.0000 C   0  0  0  0  0  0  0  0  0  0  0  0
   -1.0449   -4.2526    0.0000 C   0  0  0  0  0  0  0  0  0  0  0  0
   -0.3271   -4.5026    0.0000 O   0  0  0  0  0  0  0  0  0  0  0  0
    1.8447    0.8405    0.0000 C   0  0  0  0  0  0  0  0  0  0  0  0
    2.7124    1.5084    0.0000 C   0  0  0  0  0  0  0  0  0  0  0  0
    3.5030    0.1726    0.0000 C   0  0  0  0  0  0  0  0  0  0  0  0
  2  5  1  0  0  0  0
  3  1  1  0  0  0  0
  4  1  1  0  0  0  0
  5  4  1  0  0  0  0
  6  3  1  0  0  0  0
  6  2  1  0  0  0  0
  7  1  2  0  0  0  0
  8  2  1  0  0  0  0
  9 20  1  0  0  0  0
 10  9  3  0  0  0  0
 11  3  2  0  0  0  0
 12  4  2  0  0  0  0
 13  7  1  0  0  0  0
 14  2  1  0  0  0  0
 15 19  1  0  0  0  0
 16 13  2  0  0  0  0
 17 13  1  0  0  0  0
 18 16  1  0  0  0  0
 18 15  2  0  0  0  0
 19 17  2  0  0  0  0
 20 21  1  0  0  0  0
 21 15  1  0  0  0  0
 22  8  1  0  0  0  0
 23  8  1  0  0  0  0
 24  8  1  0  0  0  0
M  END
> <Mol Weight>
328.3591

> <Click ID>
CLK011_B06

> <Plant Activity>
0

> <Yeast Activity>
1 __ __ 

$$$$
