CLK028A04
 OpenBabel03181409022D

 26 28  0  0  0  0  0  0  0  0999 V2000
    1.0129    0.9881    0.0000 C   0  0  0  0  0  0  0  0  0  0  0  0
    2.4366    0.1700    0.0000 C   0  0  0  0  0  0  0  0  0  0  0  0
    1.7282   -0.2408    0.0000 N   0  0  0  0  0  0  0  0  0  0  0  0
    2.4366    0.9881    0.0000 N   0  0  0  0  0  0  0  0  0  0  0  0
    1.0129    0.1700    0.0000 C   0  0  0  0  0  0  0  0  0  0  0  0
    1.7282    1.4131    0.0000 C   0  0  0  0  0  0  0  0  0  0  0  0
    0.2833    1.4060    0.0000 C   0  0  0  0  0  0  0  0  0  0  0  0
   -1.0164    0.6339    0.0000 C   0  0  0  0  0  0  0  0  0  0  0  0
   -1.7318    1.0448    0.0000 C   0  0  0  0  0  0  0  0  0  0  0  0
    3.1519   -0.2514    0.0000 S   0  0  0  0  0  0  0  0  0  0  0  0
    0.4250   -1.8451    0.0000 C   0  0  0  0  0  0  0  0  0  0  0  0
    1.1545   -2.2701    0.0000 C   0  0  0  0  0  0  0  0  0  0  0  0
    1.7282    2.2382    0.0000 O   0  0  0  0  0  0  0  0  0  0  0  0
    0.3045   -0.2514    0.0000 O   0  0  0  0  0  0  0  0  0  0  0  0
   -1.0164   -0.1912    0.0000 C   0  0  0  0  0  0  0  0  0  0  0  0
   -2.4436    0.6339    0.0000 C   0  0  0  0  0  0  0  0  0  0  0  0
    1.7282   -1.0624    0.0000 C   0  0  0  0  0  0  0  0  0  0  0  0
    3.1519    1.3989    0.0000 C   0  0  0  0  0  0  0  0  0  0  0  0
   -1.7318   -0.6020    0.0000 C   0  0  0  0  0  0  0  0  0  0  0  0
   -2.4436   -0.1912    0.0000 C   0  0  0  0  0  0  0  0  0  0  0  0
   -0.3081   -0.6020    0.0000 O   0  0  0  0  0  0  0  0  0  0  0  0
   -0.3081   -1.4237    0.0000 C   0  0  0  0  0  0  0  0  0  0  0  0
   -1.7318    1.8735    0.0000 C   0  0  0  0  0  0  0  0  0  0  0  0
   -3.1555    1.0341    0.0000 C   0  0  0  0  0  0  0  0  0  0  0  0
   -2.4543    2.2736    0.0000 C   0  0  0  0  0  0  0  0  0  0  0  0
   -3.1555    1.8522    0.0000 C   0  0  0  0  0  0  0  0  0  0  0  0
  2  4  1  0  0  0  0
  2  3  1  0  0  0  0
  3  5  1  0  0  0  0
  4  6  1  0  0  0  0
  5  1  1  0  0  0  0
  6  1  1  0  0  0  0
  7  1  2  0  0  0  0
  8  7  1  0  0  0  0
  9  8  1  0  0  0  0
 10  2  2  0  0  0  0
 11 22  1  0  0  0  0
 12 11  3  0  0  0  0
 13  6  2  0  0  0  0
 14  5  2  0  0  0  0
 15  8  2  0  0  0  0
 16  9  1  0  0  0  0
 16 20  1  0  0  0  0
 17  3  1  0  0  0  0
 18  4  1  0  0  0  0
 19 15  1  0  0  0  0
 20 19  2  0  0  0  0
 21 15  1  0  0  0  0
 22 21  1  0  0  0  0
 23  9  2  0  0  0  0
 24 16  2  0  0  0  0
 24 26  1  0  0  0  0
 25 23  1  0  0  0  0
 26 25  2  0  0  0  0
M  END
> <Mol Weight>
364.418

> <Click ID>
CLK028_A04

> <Plant Activity>
0

> <Yeast Activity>
1 __ __ 

$$$$
