CLK023B05
 OpenBabel03181409022D

 30 32  0  0  0  0  0  0  0  0999 V2000
    2.1303    0.4151    0.0000 N    0  0  0  0  0  0  0  0  0  0  0  0
    0.7101    0.4151    0.0000 C    0  0  0  0  0  0  0  0  0  0  0  0
    1.4202    0.8336    0.0000 C    0  0  0  0  0  0  0  0  0  0  0  0
    2.1303   -0.4117    0.0000 C    0  0  0  0  0  0  0  0  0  0  0  0
    1.4202   -0.8199    0.0000 N    0  0  0  0  0  0  0  0  0  0  0  0
    0.7101   -0.4117    0.0000 C    0  0  0  0  0  0  0  0  0  0  0  0
   -0.0068    0.8233    0.0000 C    0  0  0  0  0  0  0  0  0  0  0  0
   -2.1371   -0.4219    0.0000 C    0  0  0  0  0  0  0  0  0  0  0  0
   -2.1441    0.3979    0.0000 C    0  0  0  0  0  0  0  0  0  0  0  0
   -1.4270   -0.8336    0.0000 C    0  0  0  0  0  0  0  0  0  0  0  0
    2.8404    0.8199    0.0000 C    0  0  0  0  0  0  0  0  0  0  0  0
   -0.7204    0.4117    0.0000 C    0  0  0  0  0  0  0  0  0  0  0  0
   -4.2847   -0.8301    0.0000 C    0  0  0  0  0  0  0  0  0  0  0  0
    2.8404   -0.8199    0.0000 O    0  0  0  0  0  0  0  0  0  0  0  0
   -5.0016   -1.2384    0.0000 C    0  0  0  0  0  0  0  0  0  0  0  0
    1.4202    1.6535    0.0000 O    0  0  0  0  0  0  0  0  0  0  0  0
   -1.4270    0.8130    0.0000 C    0  0  0  0  0  0  0  0  0  0  0  0
   -0.7136   -0.4219    0.0000 C    0  0  0  0  0  0  0  0  0  0  0  0
   -0.0068   -0.8199    0.0000 O    0  0  0  0  0  0  0  0  0  0  0  0
    2.8404    1.6466    0.0000 C    0  0  0  0  0  0  0  0  0  0  0  0
    3.5574    0.4117    0.0000 C    0  0  0  0  0  0  0  0  0  0  0  0
   -2.8542    0.8096    0.0000 I    0  0  0  0  0  0  0  0  0  0  0  0
   -2.8542   -0.8336    0.0000 O    0  0  0  0  0  0  0  0  0  0  0  0
    4.2812    1.6398    0.0000 C    0  0  0  0  0  0  0  0  0  0  0  0
   -1.4270   -1.6501    0.0000 O    0  0  0  0  0  0  0  0  0  0  0  0
    4.2709    0.8130    0.0000 C    0  0  0  0  0  0  0  0  0  0  0  0
    3.5643    2.0548    0.0000 C    0  0  0  0  0  0  0  0  0  0  0  0
    5.0016    2.0445    0.0000 Cl   0  0  0  0  0  0  0  0  0  0  0  0
   -3.5676   -0.4185    0.0000 C    0  0  0  0  0  0  0  0  0  0  0  0
   -0.7272   -2.0514    0.0000 C    0  0  0  0  0  0  0  0  0  0  0  0
  2  3  1  0  0  0  0
  2  6  1  0  0  0  0
  3  1  1  0  0  0  0
  4  1  1  0  0  0  0
  5  4  1  0  0  0  0
  6  5  1  0  0  0  0
  7  2  2  0  0  0  0
  8 10  2  0  0  0  0
  9 17  2  0  0  0  0
  9  8  1  0  0  0  0
 10 18  1  0  0  0  0
 11  1  1  0  0  0  0
 12  7  1  0  0  0  0
 13 29  1  0  0  0  0
 14  4  2  0  0  0  0
 15 13  3  0  0  0  0
 16  3  2  0  0  0  0
 17 12  1  0  0  0  0
 18 12  2  0  0  0  0
 19  6  2  0  0  0  0
 20 11  1  0  0  0  0
 21 11  2  0  0  0  0
 22  9  1  0  0  0  0
 23  8  1  0  0  0  0
 24 26  2  0  0  0  0
 25 10  1  0  0  0  0
 26 21  1  0  0  0  0
 27 20  2  0  0  0  0
 27 24  1  0  0  0  0
 28 24  1  0  0  0  0
 29 23  1  0  0  0  0
 30 25  1  0  0  0  0
M  END
> <Mol Weight>
536.704

> <Click ID>
CLK023_B05

> <Plant Activity>
0

> <Yeast Activity>
1 __ __ 

$$$$
