CLK014A06
 OpenBabel03181409022D

 19 20  0  0  0  0  0  0  0  0999 V2000
    1.5649   -0.8157    0.0000 N    0  0  0  0  0  0  0  0  0  0  0  0
    1.8229   -1.6023    0.0000 C    0  0  0  0  0  0  0  0  0  0  0  0
    2.2348   -0.3288    0.0000 C    0  0  0  0  0  0  0  0  0  0  0  0
    2.9008   -0.8157    0.0000 C    0  0  0  0  0  0  0  0  0  0  0  0
    2.6468   -1.6023    0.0000 S    0  0  0  0  0  0  0  0  0  0  0  0
    3.6873   -0.5619    0.0000 C    0  0  0  0  0  0  0  0  0  0  0  0
    0.6118    0.2455    0.0000 C    0  0  0  0  0  0  0  0  0  0  0  0
    0.3913    1.0445    0.0000 C    0  0  0  0  0  0  0  0  0  0  0  0
    4.7984    1.3067    0.0000 C    0  0  0  0  0  0  0  0  0  0  0  0
    1.3359   -2.2640    0.0000 O    0  0  0  0  0  0  0  0  0  0  0  0
    2.2265    0.4952    0.0000 O    0  0  0  0  0  0  0  0  0  0  0  0
    3.8579    0.2372    0.0000 C    0  0  0  0  0  0  0  0  0  0  0  0
    0.7865   -0.5619    0.0000 C    0  0  0  0  0  0  0  0  0  0  0  0
    4.1992    1.8561    0.0000 C    0  0  0  0  0  0  0  0  0  0  0  0
    4.6320    0.5077    0.0000 C    0  0  0  0  0  0  0  0  0  0  0  0
    3.4126    1.5981    0.0000 C    0  0  0  0  0  0  0  0  0  0  0  0
    5.5809    1.5482    0.0000 Br   0  0  0  0  0  0  0  0  0  0  0  0
    3.2462    0.7990    0.0000 C    0  0  0  0  0  0  0  0  0  0  0  0
    4.3698    2.6551    0.0000 O    0  0  0  0  0  0  0  0  0  0  0  0
  2  1  1  0  0  0  0
  3  1  1  0  0  0  0
  4  3  1  0  0  0  0
  4  5  1  0  0  0  0
  5  2  1  0  0  0  0
  6  4  2  0  0  0  0
  7 13  1  0  0  0  0
  8  7  3  0  0  0  0
  9 15  1  0  0  0  0
  9 14  2  0  0  0  0
 10  2  2  0  0  0  0
 11  3  2  0  0  0  0
 12  6  1  0  0  0  0
 13  1  1  0  0  0  0
 14 16  1  0  0  0  0
 15 12  2  0  0  0  0
 16 18  2  0  0  0  0
 17  9  1  0  0  0  0
 18 12  1  0  0  0  0
 19 14  1  0  0  0  0
M  END
> <Mol Weight>
338.177

> <Click ID>
CLK014_A06

> <Plant Activity>
0

> <Yeast Activity>
1 __ __ 

$$$$
