DB00182
 OpenBabel03171413512D

 10 10  0  0  0  0  0  0  0  0999 V2000
   -0.1480    0.2044    0.0000 C   0  0  0  0  0  0  0  0  0  0  0  0
   -0.1480   -0.6206    0.0000 C   0  0  0  0  0  0  0  0  0  0  0  0
   -0.8625    0.6169    0.0000 C   0  0  0  0  0  0  0  0  0  0  0  0
    0.5665    0.6169    0.0000 C   0  0  0  0  0  0  0  0  0  0  0  0
   -0.8625   -1.0331    0.0000 C   0  0  0  0  0  0  0  0  0  0  0  0
   -1.5770    0.2044    0.0000 C   0  0  0  0  0  0  0  0  0  0  0  0
    1.2809    0.2044    0.0000 C   0  0  3  0  0  0  0  0  0  0  0  0
   -1.5770   -0.6206    0.0000 C   0  0  0  0  0  0  0  0  0  0  0  0
    1.2809   -0.6206    0.0000 C   0  0  0  0  0  0  0  0  0  0  0  0
    1.9954    0.6169    0.0000 N   0  0  0  0  0  0  0  0  0  0  0  0
  1  2  1  0  0  0  0
  1  3  2  0  0  0  0
  1  4  1  0  0  0  0
  2  5  2  0  0  0  0
  3  6  1  0  0  0  0
  4  7  1  0  0  0  0
  5  8  1  0  0  0  0
  6  8  2  0  0  0  0
  7  9  1  0  0  0  0
  7 10  1  0  0  0  0
M  END
>  <DRUGBANK_ID>
DB00182

>  <DRUG_GROUPS>
illicit; approved

>  <GENERIC_NAME>
Amphetamine

>  <SYNONYMS>
(+/-)-Benzedrine; (+/-)-beta-Phenylisopropylamine; (+/-)-Desoxynorephedrine; [1-(3-Methoxyphenyl)-2-propyl]amine; 1-Methyl-2-phenylethylamine; 1-Phenyl-2-aminopropane; 3-Methoxyamphetamine; alpha-Methylbenzeneethaneamine; Amfetamine; Amphetamine Sulfate; beta-Aminopropylbenzene; beta-phenyl-isopropylamine; dl-1-Phenyl-2-aminopropane; DL-alpha-Methylphenethylamine; dl-Amphetamine; dl-Benzedrine; Fenylo-izopropylaminyl; m-Methoxyamphetamine; Methamphetamine HCL

>  <BRANDS>
Actedron; Adipan; Allodene; Anorexide; Anorexine; Benzebar; Benzedrine; Benzolone; Dexampex; Elastonon; Fenamin; Ferndex; Finam; Isoamycin; Isoamyne; Isomyn; Mecodrin; Methampex; Norephedrane; Novydrine; Oktedrin; Ortedrine; Paredrine; Percomon; Phenamine; Phenedrine; Profamina; Propisamine; Psychedrine; Raphetamine; Rhinalator; Simpatedrin; Simpatina; Sympamin; Sympamine; Sympatedrine; Weckamine

>  <CHEMICAL_FORMULA>
C9H13N

>  <MOLECULAR_WEIGHT>
135.2062

>  <EXACT_MASS>
135.104799421

>  <IUPAC_NAME>
1-phenylpropan-2-amine

>  <INCHI_IDENTIFIER>
InChI=1S/C9H13N/c1-8(10)7-9-5-3-2-4-6-9/h2-6,8H,7,10H2,1H3

>  <INCHI_KEY>
InChIKey=KWTSXDURSIMDCE-UHFFFAOYSA-N

>  <SMILES>
CC(N)CC1=CC=CC=C1

>  <JCHEM_ACCEPTOR_COUNT>
1

>  <JCHEM_DONOR_COUNT>
1

>  <JCHEM_BASIC_PKA>
10.01

>  <JCHEM_PHYSIOLOGICAL_CHARGE>
1

>  <ALOGPS_LOGP>
1.85

>  <JCHEM_LOGP>
1.8

>  <ALOGPS_LOGS>
-1.9

>  <JCHEM_POLARIZABILITY>
16.17

>  <JCHEM_POLAR_SURFACE_AREA>
26.02

>  <JCHEM_REFRACTIVITY>
43.71

>  <JCHEM_ROTATABLE_BOND_COUNT>
2

>  <ALOGPS_SOLUBILITY>
1.74e+00 g/l __

$$$$
DB00189
 OpenBabel03171413512D

 10  9  0  0  0  0  0  0  0  0999 V2000
    6.2861   -7.7655    0.0000 C   0  0  0  0  0  0  0  0  0  0  0  0
    6.9920   -7.3579    0.0000 C   0  0  3  0  0  0  0  0  0  0  0  0
    7.6978   -7.7655    0.0000 C   0  0  0  0  0  0  0  0  0  0  0  0
    8.4037   -7.3579    0.0000 C   0  0  0  0  0  0  0  0  0  0  0  0
    9.1202   -7.7717    0.0000 Cl  0  0  0  0  0  0  0  0  0  0  0  0
    8.4035   -6.5294    0.0000 H   0  0  0  0  0  0  0  0  0  0  0  0
    7.3967   -6.6390    0.0000 C   0  0  0  0  0  0  0  0  0  0  0  0
    6.5693   -6.6390    0.0000 O   0  0  0  0  0  0  0  0  0  0  0  0
    5.5724   -7.3469    0.0000 C   0  0  0  0  0  0  0  0  0  0  0  0
    7.8054   -5.9213    0.0000 C   0  0  0  0  0  0  0  0  0  0  0  0
  1  9  1  0  0  0  0
  2  1  1  0  0  0  0
  2  7  1  0  0  0  0
  2  8  1  0  0  0  0
  3  2  1  0  0  0  0
  4  3  2  3  0  0  0
  4  5  1  0  0  0  0
  4  6  1  0  0  0  0
  7 10  3  0  0  0  0
M  END
>  <DRUGBANK_ID>
DB00189

>  <DRUG_GROUPS>
illicit; approved

>  <GENERIC_NAME>
Ethchlorvynol

>  <SYNONYMS>
Aethyl-chlorvynol; Etchlorvinolo; Ethchlorovynol; Ethchlorvinol; Ethchlorvinyl; Ethclorvynol; Ethochlorvynol; Ethychlorvynol

>  <BRANDS>
Alvinol; Arvynol; Normonson; Normosan; Normoson; Nostel; Nromoson; Placidil; Placidyl; Roeridorm; Serenesil; Serenil; Serensil; Serensiloline

>  <CHEMICAL_FORMULA>
C7H9ClO

>  <MOLECULAR_WEIGHT>
144.599

>  <EXACT_MASS>
144.034192617

>  <IUPAC_NAME>
1-chloro-3-ethylpent-1-en-4-yn-3-ol

>  <INCHI_IDENTIFIER>
InChI=1S/C7H9ClO/c1-3-7(9,4-2)5-6-8/h1,5-6,9H,4H2,2H3/b6-5+

>  <INCHI_KEY>
InChIKey=ZEHYJZXQEQOSON-AATRIKPKSA-N

>  <SMILES>
[H]C(Cl)=CC(O)(CC)C#C

>  <JCHEM_ACCEPTOR_COUNT>
1

>  <JCHEM_DONOR_COUNT>
1

>  <JCHEM_ACIDIC_PKA>
12.88

>  <JCHEM_BASIC_PKA>
-3.7

>  <JCHEM_PHYSIOLOGICAL_CHARGE>
0

>  <ALOGPS_LOGP>
1.45

>  <JCHEM_LOGP>
1.62

>  <ALOGPS_LOGS>
-3

>  <JCHEM_POLARIZABILITY>
14.77

>  <JCHEM_POLAR_SURFACE_AREA>
20.23

>  <JCHEM_REFRACTIVITY>
38.64

>  <JCHEM_ROTATABLE_BOND_COUNT>
2

>  <ALOGPS_SOLUBILITY>
1.43e-01 g/l __

$$$$
DB00191
 OpenBabel03171413512D

 11 11  0  0  0  0  0  0  0  0999 V2000
    3.7935    1.3943    0.0000 N   0  0  0  0  0  0  0  0  0  0  0  0
    3.0791    0.9818    0.0000 C   0  0  0  0  0  0  0  0  0  0  0  0
    2.3645    0.5693    0.0000 C   0  0  0  0  0  0  0  0  0  0  0  0
    2.6665    1.6962    0.0000 C   0  0  0  0  0  0  0  0  0  0  0  0
    3.4916    0.2673    0.0000 C   0  0  0  0  0  0  0  0  0  0  0  0
    2.3645   -0.2558    0.0000 C   0  0  0  0  0  0  0  0  0  0  0  0
    3.0791   -0.6683    0.0000 C   0  0  0  0  0  0  0  0  0  0  0  0
    1.6500   -0.6683    0.0000 C   0  0  0  0  0  0  0  0  0  0  0  0
    3.0791   -1.4933    0.0000 C   0  0  0  0  0  0  0  0  0  0  0  0
    1.6500   -1.4933    0.0000 C   0  0  0  0  0  0  0  0  0  0  0  0
    2.3645   -1.9058    0.0000 C   0  0  0  0  0  0  0  0  0  0  0  0
  1  2  1  0  0  0  0
  2  3  1  0  0  0  0
  2  4  1  0  0  0  0
  2  5  1  0  0  0  0
  3  6  1  0  0  0  0
  6  7  2  0  0  0  0
  6  8  1  0  0  0  0
  7  9  1  0  0  0  0
  8 10  2  0  0  0  0
  9 11  2  0  0  0  0
 10 11  1  0  0  0  0
M  END
>  <DRUGBANK_ID>
DB00191

>  <DRUG_GROUPS>
illicit; approved

>  <GENERIC_NAME>
Phentermine

>  <SYNONYMS>
(alpha,alpha)-Dimethylphenethylamine

>  <SALTS>
Phentermine Hydrochloride

>  <BRANDS>
Adipex-P; Duromine; Fastin; Inoamin; Ionamin; Linyl; Lipopill; Lonamin; Mirapront; Normephentermine; Obenix; Obestin-30; Oby-Trim; Omnibex; Ona Mast; Ona-Mast; Phentercot; Phentermine Resin 30; Phentride; Pro-Fast; Suprenza; Teramine; Tora; Uritone; Wilpo; Wyamine Sulfate; Zantryl

>  <CHEMICAL_FORMULA>
C10H15N

>  <MOLECULAR_WEIGHT>
149.2328

>  <EXACT_MASS>
149.120449485

>  <IUPAC_NAME>
2-methyl-1-phenylpropan-2-amine

>  <INCHI_IDENTIFIER>
InChI=1S/C10H15N/c1-10(2,11)8-9-6-4-3-5-7-9/h3-7H,8,11H2,1-2H3

>  <INCHI_KEY>
InChIKey=DHHVAGZRUROJKS-UHFFFAOYSA-N

>  <SMILES>
CC(C)(N)CC1=CC=CC=C1

>  <JCHEM_ACCEPTOR_COUNT>
1

>  <JCHEM_DONOR_COUNT>
1

>  <JCHEM_BASIC_PKA>
10.25

>  <JCHEM_PHYSIOLOGICAL_CHARGE>
1

>  <ALOGPS_LOGP>
2.32

>  <JCHEM_LOGP>
2.08

>  <ALOGPS_LOGS>
-2.3

>  <JCHEM_POLARIZABILITY>
17.87

>  <JCHEM_POLAR_SURFACE_AREA>
26.02

>  <JCHEM_REFRACTIVITY>
48.34

>  <JCHEM_ROTATABLE_BOND_COUNT>
2

>  <ALOGPS_SOLUBILITY>
7.57e-01 g/l __

$$$$
DB00230
 OpenBabel03171413512D

 11 10  0  0  1  0  0  0  0  0999 V2000
    5.2224    0.4620    0.0000 O   0  0  0  0  0  0  0  0  0  0  0  0
    4.5080   -0.7755    0.0000 O   0  0  0  0  0  0  0  0  0  0  0  0
    2.3645   -1.1880    0.0000 N   0  0  0  0  0  0  0  0  0  0  0  0
    3.0791    0.0495    0.0000 C   0  0  1  0  0  0  0  0  0  0  0  0
    2.3645    0.4620    0.0000 C   0  0  0  0  0  0  0  0  0  0  0  0
    2.3645    1.2870    0.0000 C   0  0  0  0  0  0  0  0  0  0  0  0
    3.7935    0.4620    0.0000 C   0  0  0  0  0  0  0  0  0  0  0  0
    3.0791   -0.7755    0.0000 C   0  0  0  0  0  0  0  0  0  0  0  0
    1.6500    1.6995    0.0000 C   0  0  0  0  0  0  0  0  0  0  0  0
    3.0791    1.6995    0.0000 C   0  0  0  0  0  0  0  0  0  0  0  0
    4.5080    0.0495    0.0000 C   0  0  0  0  0  0  0  0  0  0  0  0
  1 11  1  0  0  0  0
  2 11  2  0  0  0  0
  3  8  1  0  0  0  0
  4  5  1  1  0  0  0
  4  7  1  0  0  0  0
  4  8  1  0  0  0  0
  5  6  1  0  0  0  0
  6  9  1  0  0  0  0
  6 10  1  0  0  0  0
  7 11  1  0  0  0  0
M  END
>  <DRUGBANK_ID>
DB00230

>  <DRUG_GROUPS>
illicit; approved; investigational

>  <GENERIC_NAME>
Pregabalin

>  <BRANDS>
Lyrica

>  <CHEMICAL_FORMULA>
C8H17NO2

>  <MOLECULAR_WEIGHT>
159.2261

>  <EXACT_MASS>
159.125928793

>  <IUPAC_NAME>
(3S)-3-(aminomethyl)-5-methylhexanoic acid

>  <INCHI_IDENTIFIER>
InChI=1S/C8H17NO2/c1-6(2)3-7(5-9)4-8(10)11/h6-7H,3-5,9H2,1-2H3,(H,10,11)/t7-/m0/s1

>  <INCHI_KEY>
InChIKey=AYXYPKUFHZROOJ-ZETCQYMHSA-N

>  <SMILES>
CC(C)C[C@H](CN)CC(O)=O

>  <JCHEM_ACCEPTOR_COUNT>
3

>  <JCHEM_DONOR_COUNT>
2

>  <JCHEM_ACIDIC_PKA>
4.8

>  <JCHEM_BASIC_PKA>
10.23

>  <JCHEM_PHYSIOLOGICAL_CHARGE>
0

>  <ALOGPS_LOGP>
-1.4

>  <JCHEM_LOGP>
-1.3

>  <ALOGPS_LOGS>
-1.1

>  <JCHEM_POLARIZABILITY>
18.08

>  <JCHEM_POLAR_SURFACE_AREA>
63.32

>  <JCHEM_REFRACTIVITY>
43.68

>  <JCHEM_ROTATABLE_BOND_COUNT>
5

>  <ALOGPS_SOLUBILITY>
1.13e+01 g/l __

$$$$
DB00237
 OpenBabel03171413512D

 15 15  0  0  1  0  0  0  0  0999 V2000
    4.5080    0.1658    0.0000 O   0  0  0  0  0  0  0  0  0  0  0  0
    1.6500    0.1658    0.0000 O   0  0  0  0  0  0  0  0  0  0  0  0
    3.0791   -2.3092    0.0000 O   0  0  0  0  0  0  0  0  0  0  0  0
    3.7935   -1.0717    0.0000 N   0  0  0  0  0  0  0  0  0  0  0  0
    2.3645   -1.0717    0.0000 N   0  0  0  0  0  0  0  0  0  0  0  0
    3.0791    0.1658    0.0000 C   0  0  0  0  0  0  0  0  0  0  0  0
    3.4916    0.8803    0.0000 C   0  0  3  0  0  0  0  0  0  0  0  0
    2.6665    0.8803    0.0000 C   0  0  0  0  0  0  0  0  0  0  0  0
    3.0791    1.5948    0.0000 C   0  0  0  0  0  0  0  0  0  0  0  0
    3.7935   -0.2467    0.0000 C   0  0  0  0  0  0  0  0  0  0  0  0
    2.3645   -0.2467    0.0000 C   0  0  0  0  0  0  0  0  0  0  0  0
    4.3166    0.8803    0.0000 C   0  0  0  0  0  0  0  0  0  0  0  0
    1.8415    0.8803    0.0000 C   0  0  0  0  0  0  0  0  0  0  0  0
    3.4916    2.3092    0.0000 C   0  0  0  0  0  0  0  0  0  0  0  0
    3.0791   -1.4842    0.0000 C   0  0  0  0  0  0  0  0  0  0  0  0
  1 10  2  0  0  0  0
  2 11  2  0  0  0  0
  3 15  2  0  0  0  0
  4 10  1  0  0  0  0
  4 15  1  0  0  0  0
  5 11  1  0  0  0  0
  5 15  1  0  0  0  0
  6  7  1  0  0  0  0
  6  8  1  0  0  0  0
  6 10  1  0  0  0  0
  6 11  1  0  0  0  0
  7  9  1  0  0  0  0
  7 12  1  0  0  0  0
  8 13  1  0  0  0  0
  9 14  1  0  0  0  0
M  END
>  <DRUGBANK_ID>
DB00237

>  <DRUG_GROUPS>
illicit; approved

>  <GENERIC_NAME>
Butabarbital

>  <SYNONYMS>
Butabarbital Sodium; Butabarbitone; Butrate; Secbubarbital; Secbutabarbital; Secbutobarbital; Secbutobarbitone; Sodium Butabarbital

>  <BRANDS>
Butabarb; Butalan; Butatab; Butatal; Buticaps; Butisol; Butisol Sodium; Medarsed; Nilox; Sarisol; Sarisol No. 1; Unicelles

>  <CHEMICAL_FORMULA>
C10H16N2O3

>  <MOLECULAR_WEIGHT>
212.2456

>  <EXACT_MASS>
212.116092388

>  <IUPAC_NAME>
5-(butan-2-yl)-5-ethyl-1,3-diazinane-2,4,6-trione

>  <INCHI_IDENTIFIER>
InChI=1S/C10H16N2O3/c1-4-6(3)10(5-2)7(13)11-9(15)12-8(10)14/h6H,4-5H2,1-3H3,(H2,11,12,13,14,15)

>  <INCHI_KEY>
InChIKey=ZRIHAIZYIMGOAB-UHFFFAOYSA-N

>  <SMILES>
CCC(C)C1(CC)C(=O)NC(=O)NC1=O

>  <JCHEM_ACCEPTOR_COUNT>
3

>  <JCHEM_DONOR_COUNT>
2

>  <JCHEM_ACIDIC_PKA>
8.48

>  <JCHEM_PHYSIOLOGICAL_CHARGE>
0

>  <ALOGPS_LOGP>
1.7

>  <JCHEM_LOGP>
1.45

>  <ALOGPS_LOGS>
-2.2

>  <JCHEM_POLARIZABILITY>
21.41

>  <JCHEM_POLAR_SURFACE_AREA>
75.27

>  <JCHEM_REFRACTIVITY>
53.4

>  <JCHEM_ROTATABLE_BOND_COUNT>
3

>  <ALOGPS_SOLUBILITY>
1.39e+00 g/l __

$$$$
DB00241
 OpenBabel03171413512D

 16 16  0  0  0  0  0  0  0  0999 V2000
    4.7291    0.1658    0.0000 O   0  0  0  0  0  0  0  0  0  0  0  0
    1.8711    0.1658    0.0000 O   0  0  0  0  0  0  0  0  0  0  0  0
    3.3001   -2.3092    0.0000 O   0  0  0  0  0  0  0  0  0  0  0  0
    4.0145   -1.0717    0.0000 N   0  0  0  0  0  0  0  0  0  0  0  0
    2.5856   -1.0717    0.0000 N   0  0  0  0  0  0  0  0  0  0  0  0
    3.3001    0.1658    0.0000 C   0  0  0  0  0  0  0  0  0  0  0  0
    3.7126    0.8803    0.0000 C   0  0  0  0  0  0  0  0  0  0  0  0
    3.3001    1.5948    0.0000 C   0  0  0  0  0  0  0  0  0  0  0  0
    2.8876    0.8803    0.0000 C   0  0  0  0  0  0  0  0  0  0  0  0
    4.0145   -0.2467    0.0000 C   0  0  0  0  0  0  0  0  0  0  0  0
    2.5856   -0.2467    0.0000 C   0  0  0  0  0  0  0  0  0  0  0  0
    2.4751    1.5948    0.0000 C   0  0  0  0  0  0  0  0  0  0  0  0
    3.7126    2.3092    0.0000 C   0  0  0  0  0  0  0  0  0  0  0  0
    2.0625    0.8803    0.0000 C   0  0  0  0  0  0  0  0  0  0  0  0
    3.3001   -1.4842    0.0000 C   0  0  0  0  0  0  0  0  0  0  0  0
    1.6500    1.5948    0.0000 C   0  0  0  0  0  0  0  0  0  0  0  0
  1 10  2  0  0  0  0
  2 11  2  0  0  0  0
  3 15  2  0  0  0  0
  4 10  1  0  0  0  0
  4 15  1  0  0  0  0
  5 11  1  0  0  0  0
  5 15  1  0  0  0  0
  6  7  1  0  0  0  0
  6  9  1  0  0  0  0
  6 10  1  0  0  0  0
  6 11  1  0  0  0  0
  7  8  1  0  0  0  0
  8 12  1  0  0  0  0
  8 13  1  0  0  0  0
  9 14  1  0  0  0  0
 14 16  2  0  0  0  0
M  END
>  <DRUGBANK_ID>
DB00241

>  <DRUG_GROUPS>
illicit; approved

>  <GENERIC_NAME>
Butalbital

>  <SYNONYMS>
Allylbarbital; Butalbital M (OH)

>  <CHEMICAL_FORMULA>
C11H16N2O3

>  <MOLECULAR_WEIGHT>
224.2563

>  <EXACT_MASS>
224.116092388

>  <IUPAC_NAME>
5-(2-methylpropyl)-5-(prop-2-en-1-yl)-1,3-diazinane-2,4,6-trione

>  <INCHI_IDENTIFIER>
InChI=1S/C11H16N2O3/c1-4-5-11(6-7(2)3)8(14)12-10(16)13-9(11)15/h4,7H,1,5-6H2,2-3H3,(H2,12,13,14,15,16)

>  <INCHI_KEY>
InChIKey=UZVHFVZFNXBMQJ-UHFFFAOYSA-N

>  <SMILES>
CC(C)CC1(CC=C)C(=O)NC(=O)NC1=O

>  <JCHEM_ACCEPTOR_COUNT>
3

>  <JCHEM_DONOR_COUNT>
2

>  <JCHEM_ACIDIC_PKA>
8.48

>  <JCHEM_PHYSIOLOGICAL_CHARGE>
0

>  <ALOGPS_LOGP>
1.47

>  <JCHEM_LOGP>
1.59

>  <ALOGPS_LOGS>
-2

>  <JCHEM_POLARIZABILITY>
22.42

>  <JCHEM_POLAR_SURFACE_AREA>
75.27

>  <JCHEM_REFRACTIVITY>
58.05

>  <JCHEM_ROTATABLE_BOND_COUNT>
4

>  <ALOGPS_SOLUBILITY>
2.23e+00 g/l __

$$$$
DB00306
 OpenBabel03171413512D

 18 18  0  0  1  0  0  0  0  0999 V2000
    1.8711    0.1658    0.0000 O   0  0  0  0  0  0  0  0  0  0  0  0
    4.7291    0.1658    0.0000 O   0  0  0  0  0  0  0  0  0  0  0  0
    3.3001   -2.3092    0.0000 O   0  0  0  0  0  0  0  0  0  0  0  0
    2.5856   -1.0717    0.0000 N   0  0  0  0  0  0  0  0  0  0  0  0
    4.0145   -1.0717    0.0000 N   0  0  0  0  0  0  0  0  0  0  0  0
    3.3001    0.1658    0.0000 C   0  0  0  0  0  0  0  0  0  0  0  0
    3.7126    0.8803    0.0000 C   0  0  3  0  0  0  0  0  0  0  0  0
    2.8876    0.8803    0.0000 C   0  0  0  0  0  0  0  0  0  0  0  0
    3.3001    1.5948    0.0000 C   0  0  0  0  0  0  0  0  0  0  0  0
    2.5856   -0.2467    0.0000 C   0  0  0  0  0  0  0  0  0  0  0  0
    4.0145   -0.2467    0.0000 C   0  0  0  0  0  0  0  0  0  0  0  0
    4.5376    0.8803    0.0000 C   0  0  0  0  0  0  0  0  0  0  0  0
    3.3001   -1.4842    0.0000 C   0  0  0  0  0  0  0  0  0  0  0  0
    3.7126    2.3092    0.0000 C   0  0  0  0  0  0  0  0  0  0  0  0
    2.0625    0.8803    0.0000 C   0  0  0  0  0  0  0  0  0  0  0  0
    1.8711   -1.4842    0.0000 C   0  0  0  0  0  0  0  0  0  0  0  0
    4.7291   -1.4842    0.0000 C   0  0  0  0  0  0  0  0  0  0  0  0
    1.6500    1.5948    0.0000 C   0  0  0  0  0  0  0  0  0  0  0  0
  1 10  2  0  0  0  0
  2 11  2  0  0  0  0
  3 13  2  0  0  0  0
  4 10  1  0  0  0  0
  4 13  1  0  0  0  0
  4 16  1  0  0  0  0
  5 11  1  0  0  0  0
  5 13  1  0  0  0  0
  5 17  1  0  0  0  0
  6  7  1  0  0  0  0
  6  8  1  0  0  0  0
  6 10  1  0  0  0  0
  6 11  1  0  0  0  0
  7  9  1  0  0  0  0
  7 12  1  0  0  0  0
  8 15  1  0  0  0  0
  9 14  1  0  0  0  0
 15 18  2  0  0  0  0
M  END
>  <DRUGBANK_ID>
DB00306

>  <DRUG_GROUPS>
illicit; approved

>  <GENERIC_NAME>
Talbutal

>  <SYNONYMS>
5-Allyl-5-sec-butylbarbituric acid; sec-Butyl allyl barbituric acid

>  <BRANDS>
Latusate; Lotusate; Profundol

>  <CHEMICAL_FORMULA>
C13H20N2O3

>  <MOLECULAR_WEIGHT>
252.3095

>  <EXACT_MASS>
252.147392516

>  <IUPAC_NAME>
5-(butan-2-yl)-1,3-dimethyl-5-(prop-2-en-1-yl)-1,3-diazinane-2,4,6-trione

>  <INCHI_IDENTIFIER>
InChI=1S/C13H20N2O3/c1-6-8-13(9(3)7-2)10(16)14(4)12(18)15(5)11(13)17/h6,9H,1,7-8H2,2-5H3

>  <INCHI_KEY>
InChIKey=CDKJETHMMUVSNV-UHFFFAOYSA-N

>  <SMILES>
CCC(C)C1(CC=C)C(=O)N(C)C(=O)N(C)C1=O

>  <JCHEM_ACCEPTOR_COUNT>
3

>  <JCHEM_DONOR_COUNT>
0

>  <JCHEM_BASIC_PKA>
-9.4

>  <JCHEM_PHYSIOLOGICAL_CHARGE>
0

>  <ALOGPS_LOGP>
2.22

>  <JCHEM_LOGP>
2.04

>  <ALOGPS_LOGS>
-2

>  <JCHEM_POLARIZABILITY>
26.52

>  <JCHEM_POLAR_SURFACE_AREA>
57.69

>  <JCHEM_REFRACTIVITY>
67.84

>  <JCHEM_ROTATABLE_BOND_COUNT>
4

>  <ALOGPS_SOLUBILITY>
2.63e+00 g/l __

$$$$
DB00318
 OpenBabel03171413512D

 25 29  0  0  1  0  0  0  0  0999 V2000
    1.9356   -0.1190    0.0000 O   0  0  0  0  0  0  0  0  0  0  0  0
    1.7349   -2.2486    0.0000 O   0  0  0  0  0  0  0  0  0  0  0  0
    1.7349    1.9190    0.0000 O   0  0  0  0  0  0  0  0  0  0  0  0
    5.3440   -0.9899    0.0000 N   0  0  0  0  0  0  0  0  0  0  0  0
    3.2006   -0.5773    0.0000 C   0  0  1  0  0  0  0  0  0  0  0  0
    3.9151   -0.9899    0.0000 C   0  0  2  0  0  0  0  0  0  0  0  0
    4.6296   -0.5773    0.0000 C   0  0  1  0  0  0  0  0  0  0  0  0
    2.4861   -0.9899    0.0000 C   0  0  2  0  0  0  0  0  0  0  0  0
    3.6773    0.0277    0.0000 C   0  0  0  0  0  0  0  0  0  0  0  0
    3.2006    0.2477    0.0000 C   0  0  0  0  0  0  0  0  0  0  0  0
    4.6296    0.2477    0.0000 C   0  0  0  0  0  0  0  0  0  0  0  0
    4.8506    0.0277    0.0000 C   0  0  0  0  0  0  0  0  0  0  0  0
    3.9151    0.6602    0.0000 C   0  0  0  0  0  0  0  0  0  0  0  0
    2.4861   -1.8149    0.0000 C   0  0  2  0  0  0  0  0  0  0  0  0
    3.9151   -1.8149    0.0000 C   0  0  0  0  0  0  0  0  0  0  0  0
    2.4861    0.6602    0.0000 C   0  0  0  0  0  0  0  0  0  0  0  0
    3.2006   -2.2274    0.0000 C   0  0  0  0  0  0  0  0  0  0  0  0
    5.9350   -1.6249    0.0000 C   0  0  0  0  0  0  0  0  0  0  0  0
    3.9151    1.4852    0.0000 C   0  0  0  0  0  0  0  0  0  0  0  0
    2.4861    1.4852    0.0000 C   0  0  0  0  0  0  0  0  0  0  0  0
    3.2006    1.8977    0.0000 C   0  0  0  0  0  0  0  0  0  0  0  0
    1.7349    2.7864    0.0000 C   0  0  0  0  0  0  0  0  0  0  0  0
    4.3612   -1.5214    0.0000 H   0  0  0  0  0  0  0  0  0  0  0  0
    4.8675   -1.2293    0.0000 H   0  0  0  0  0  0  0  0  0  0  0  0
    1.8196   -1.1829    0.0000 H   0  0  0  0  0  0  0  0  0  0  0  0
  1  8  1  0  0  0  0
  1 16  1  0  0  0  0
  3 20  1  0  0  0  0
  3 22  1  0  0  0  0
  4  7  1  0  0  0  0
  4 12  1  0  0  0  0
  4 18  1  0  0  0  0
  5  6  1  0  0  0  0
  5  8  1  0  0  0  0
  5  9  1  1  0  0  0
  5 10  1  0  0  0  0
  6  7  1  0  0  0  0
  6 15  1  0  0  0  0
  6 23  1  1  0  0  0
  7 11  1  0  0  0  0
  7 24  1  6  0  0  0
  8 14  1  0  0  0  0
  8 25  1  1  0  0  0
  9 12  1  0  0  0  0
 10 13  2  0  0  0  0
 10 16  1  0  0  0  0
 11 13  1  0  0  0  0
 13 19  1  0  0  0  0
 14  2  1  6  0  0  0
 14 17  1  0  0  0  0
 15 17  2  0  0  0  0
 16 20  2  0  0  0  0
 19 21  2  0  0  0  0
 20 21  1  0  0  0  0
M  END
>  <DRUGBANK_ID>
DB00318

>  <DRUG_GROUPS>
illicit; approved

>  <GENERIC_NAME>
Codeine

>  <SYNONYMS>
Codeine anhydrous; L-Codeine; Methylmorphine; Morphine monomethyl ether; Norcodeine, N-Methyl; Norcodine, N-Methyl

>  <BRANDS>
Codicept; Coducept

>  <CHEMICAL_FORMULA>
C18H21NO3

>  <MOLECULAR_WEIGHT>
299.3642

>  <EXACT_MASS>
299.152143543

>  <IUPAC_NAME>
(1S,5R,13R,14S,17R)-10-methoxy-4-methyl-12-oxa-4-azapentacyclo[9.6.1.0^{1,13}.0^{5,17}.0^{7,18}]octadeca-7(18),8,10,15-tetraen-14-ol

>  <INCHI_IDENTIFIER>
InChI=1S/C18H21NO3/c1-19-8-7-18-11-4-5-13(20)17(18)22-16-14(21-2)6-3-10(15(16)18)9-12(11)19/h3-6,11-13,17,20H,7-9H2,1-2H3/t11-,12+,13-,17-,18-/m0/s1

>  <INCHI_KEY>
InChIKey=OROGSEYTTFOCAN-DNJOTXNNSA-N

>  <SMILES>
[H][C@@]12OC3=C(OC)C=CC4=C3[C@@]11CCN(C)[C@]([H])(C4)[C@]1([H])C=C[C@@H]2O

>  <JCHEM_ACCEPTOR_COUNT>
4

>  <JCHEM_DONOR_COUNT>
1

>  <JCHEM_ACIDIC_PKA>
13.78

>  <JCHEM_BASIC_PKA>
9.19

>  <JCHEM_PHYSIOLOGICAL_CHARGE>
1

>  <ALOGPS_LOGP>
1.2

>  <JCHEM_LOGP>
1.34

>  <ALOGPS_LOGS>
-2.7

>  <JCHEM_POLARIZABILITY>
31.95

>  <JCHEM_POLAR_SURFACE_AREA>
41.93

>  <JCHEM_REFRACTIVITY>
84.6

>  <JCHEM_ROTATABLE_BOND_COUNT>
1

>  <ALOGPS_SOLUBILITY>
5.77e-01 g/l __

$$$$
DB00327
 OpenBabel03171413512D

 24 28  0  0  1  0  0  0  0  0999 V2000
    1.9356   -0.2231    0.0000 O   0  0  0  0  0  0  0  0  0  0  0  0
    1.7349   -2.3527    0.0000 O   0  0  0  0  0  0  0  0  0  0  0  0
    1.7349    1.8149    0.0000 O   0  0  0  0  0  0  0  0  0  0  0  0
    5.3440   -1.0939    0.0000 N   0  0  0  0  0  0  0  0  0  0  0  0
    3.2006   -0.6814    0.0000 C   0  0  1  0  0  0  0  0  0  0  0  0
    3.9151   -1.0939    0.0000 C   0  0  2  0  0  0  0  0  0  0  0  0
    4.6296   -0.6814    0.0000 C   0  0  1  0  0  0  0  0  0  0  0  0
    2.4861   -1.0939    0.0000 C   0  0  2  0  0  0  0  0  0  0  0  0
    3.6773   -0.0764    0.0000 C   0  0  0  0  0  0  0  0  0  0  0  0
    3.2006    0.1436    0.0000 C   0  0  0  0  0  0  0  0  0  0  0  0
    3.9151   -1.9190    0.0000 C   0  0  0  0  0  0  0  0  0  0  0  0
    4.6296    0.1436    0.0000 C   0  0  0  0  0  0  0  0  0  0  0  0
    4.8506   -0.0764    0.0000 C   0  0  0  0  0  0  0  0  0  0  0  0
    3.9151    0.5561    0.0000 C   0  0  0  0  0  0  0  0  0  0  0  0
    3.2006   -2.3315    0.0000 C   0  0  0  0  0  0  0  0  0  0  0  0
    2.4861   -1.9190    0.0000 C   0  0  0  0  0  0  0  0  0  0  0  0
    2.4861    0.5561    0.0000 C   0  0  0  0  0  0  0  0  0  0  0  0
    5.9350   -1.7290    0.0000 C   0  0  0  0  0  0  0  0  0  0  0  0
    3.9151    1.3811    0.0000 C   0  0  0  0  0  0  0  0  0  0  0  0
    2.4861    1.3811    0.0000 C   0  0  0  0  0  0  0  0  0  0  0  0
    3.2006    1.7936    0.0000 C   0  0  0  0  0  0  0  0  0  0  0  0
    4.3612   -1.6255    0.0000 H   0  0  0  0  0  0  0  0  0  0  0  0
    4.8675   -1.3334    0.0000 H   0  0  0  0  0  0  0  0  0  0  0  0
    1.8196   -1.2870    0.0000 H   0  0  0  0  0  0  0  0  0  0  0  0
  1  8  1  0  0  0  0
  1 17  1  0  0  0  0
  2 16  2  0  0  0  0
  3 20  1  0  0  0  0
  4  7  1  0  0  0  0
  4 13  1  0  0  0  0
  4 18  1  0  0  0  0
  5  6  1  0  0  0  0
  5  8  1  0  0  0  0
  5  9  1  1  0  0  0
  5 10  1  0  0  0  0
  6  7  1  0  0  0  0
  6 11  1  0  0  0  0
  6 22  1  1  0  0  0
  7 12  1  0  0  0  0
  7 23  1  6  0  0  0
  8 16  1  0  0  0  0
  8 24  1  1  0  0  0
  9 13  1  0  0  0  0
 10 14  2  0  0  0  0
 10 17  1  0  0  0  0
 11 15  1  0  0  0  0
 12 14  1  0  0  0  0
 14 19  1  0  0  0  0
 15 16  1  0  0  0  0
 17 20  2  0  0  0  0
 19 21  2  0  0  0  0
 20 21  1  0  0  0  0
M  END
>  <DRUGBANK_ID>
DB00327

>  <DRUG_GROUPS>
illicit; approved

>  <GENERIC_NAME>
Hydromorphone

>  <SYNONYMS>
Dihydromorfinon [Czech]; Dihydromorphinone; Hidromorfona [INN-Spanish]; Hydromorfona [Spanish]; Hydromorphon; Hydromorphone HCL; Hydromorphonum [INN-Latin]

>  <BRANDS>
Dilaudid; Dilaudid Oros; Dilaudid-hp; DiMo; Dimorphone; Hymorphan; Idromorfone; Laudacon; Laudicon; Novolaudon; Palladone; Paramorphan

>  <CHEMICAL_FORMULA>
C17H19NO3

>  <MOLECULAR_WEIGHT>
285.3377

>  <EXACT_MASS>
285.136493479

>  <IUPAC_NAME>
(1S,5R,13R,17R)-10-hydroxy-4-methyl-12-oxa-4-azapentacyclo[9.6.1.0^{1,13}.0^{5,17}.0^{7,18}]octadeca-7(18),8,10-trien-14-one

>  <INCHI_IDENTIFIER>
InChI=1S/C17H19NO3/c1-18-7-6-17-10-3-5-13(20)16(17)21-15-12(19)4-2-9(14(15)17)8-11(10)18/h2,4,10-11,16,19H,3,5-8H2,1H3/t10-,11+,16-,17-/m0/s1

>  <INCHI_KEY>
InChIKey=WVLOADHCBXTIJK-YNHQPCIGSA-N

>  <SMILES>
[H][C@@]12OC3=C(O)C=CC4=C3[C@@]11CCN(C)[C@]([H])(C4)[C@]1([H])CCC2=O

>  <JCHEM_ACCEPTOR_COUNT>
4

>  <JCHEM_DONOR_COUNT>
1

>  <JCHEM_ACIDIC_PKA>
10.11

>  <JCHEM_BASIC_PKA>
8.59

>  <JCHEM_PHYSIOLOGICAL_CHARGE>
1

>  <ALOGPS_LOGP>
1.69

>  <JCHEM_LOGP>
1.62

>  <ALOGPS_LOGS>
-1.8

>  <JCHEM_POLARIZABILITY>
30.02

>  <JCHEM_POLAR_SURFACE_AREA>
49.77

>  <JCHEM_REFRACTIVITY>
78.26

>  <JCHEM_ROTATABLE_BOND_COUNT>
0

>  <ALOGPS_SOLUBILITY>
4.39e+00 g/l __

$$$$
DB00349
 OpenBabel03171413512D

 21 23  0  0  0  0  0  0  0  0999 V2000
    2.8172   -2.3593    0.0000 Cl  0  0  0  0  0  0  0  0  0  0  0  0
    5.1124    1.1545    0.0000 O   0  0  0  0  0  0  0  0  0  0  0  0
    2.6107    2.3593    0.0000 O   0  0  0  0  0  0  0  0  0  0  0  0
    4.1245    0.1666    0.0000 N   0  0  0  0  0  0  0  0  0  0  0  0
    2.4543    0.9709    0.0000 N   0  0  0  0  0  0  0  0  0  0  0  0
    3.3812   -0.1914    0.0000 C   0  0  0  0  0  0  0  0  0  0  0  0
    2.6379    0.1666    0.0000 C   0  0  0  0  0  0  0  0  0  0  0  0
    3.7937    1.6159    0.0000 C   0  0  0  0  0  0  0  0  0  0  0  0
    4.3081    0.9709    0.0000 C   0  0  0  0  0  0  0  0  0  0  0  0
    2.9687    1.6159    0.0000 C   0  0  0  0  0  0  0  0  0  0  0  0
    4.7695   -0.3478    0.0000 C   0  0  0  0  0  0  0  0  0  0  0  0
    3.4586   -1.0473    0.0000 C   0  0  0  0  0  0  0  0  0  0  0  0
    1.9205   -0.3065    0.0000 C   0  0  0  0  0  0  0  0  0  0  0  0
    1.6500    1.1545    0.0000 C   0  0  0  0  0  0  0  0  0  0  0  0
    2.7524   -1.5367    0.0000 C   0  0  0  0  0  0  0  0  0  0  0  0
    1.9781   -1.1639    0.0000 C   0  0  0  0  0  0  0  0  0  0  0  0
    5.5375   -0.0464    0.0000 C   0  0  0  0  0  0  0  0  0  0  0  0
    4.6466   -1.1636    0.0000 C   0  0  0  0  0  0  0  0  0  0  0  0
    6.1825   -0.5608    0.0000 C   0  0  0  0  0  0  0  0  0  0  0  0
    5.2915   -1.6780    0.0000 C   0  0  0  0  0  0  0  0  0  0  0  0
    6.0595   -1.3765    0.0000 C   0  0  0  0  0  0  0  0  0  0  0  0
  1 15  1  0  0  0  0
  2  9  2  0  0  0  0
  3 10  2  0  0  0  0
  4  6  1  0  0  0  0
  4  9  1  0  0  0  0
  4 11  1  0  0  0  0
  5  7  1  0  0  0  0
  5 10  1  0  0  0  0
  5 14  1  0  0  0  0
  6  7  2  0  0  0  0
  6 12  1  0  0  0  0
  7 13  1  0  0  0  0
  8  9  1  0  0  0  0
  8 10  1  0  0  0  0
 11 17  2  0  0  0  0
 11 18  1  0  0  0  0
 12 15  2  0  0  0  0
 13 16  2  0  0  0  0
 15 16  1  0  0  0  0
 17 19  1  0  0  0  0
 18 20  2  0  0  0  0
 19 21  2  0  0  0  0
 20 21  1  0  0  0  0
M  END
>  <DRUGBANK_ID>
DB00349

>  <DRUG_GROUPS>
illicit; approved

>  <GENERIC_NAME>
Clobazam

>  <SYNONYMS>
Aedon; Anxirloc ; Castilium; Chlorepin; Clarmyl; Clobam ; Clobamax ; Clobator ; Clofritis ; Clopax ; Clorepin; Frisium; Grifoclobam; Karidium ; Lucium ; Mystan; Noiafren ; Sederlona ; Sentil; Urbadan; Urbanil; Urbanol ; Urbanyl

>  <BRANDS>
Clorepin; Frisium; Onfi

>  <CHEMICAL_FORMULA>
C16H13ClN2O2

>  <MOLECULAR_WEIGHT>
300.74

>  <EXACT_MASS>
300.066555377

>  <IUPAC_NAME>
7-chloro-1-methyl-5-phenyl-2,3,4,5-tetrahydro-1H-1,5-benzodiazepine-2,4-dione

>  <INCHI_IDENTIFIER>
InChI=1S/C16H13ClN2O2/c1-18-13-8-7-11(17)9-14(13)19(16(21)10-15(18)20)12-5-3-2-4-6-12/h2-9H,10H2,1H3

>  <INCHI_KEY>
InChIKey=CXOXHMZGEKVPMT-UHFFFAOYSA-N

>  <SMILES>
CN1C2=C(C=C(Cl)C=C2)N(C2=CC=CC=C2)C(=O)CC1=O

>  <JCHEM_ACCEPTOR_COUNT>
2

>  <JCHEM_DONOR_COUNT>
0

>  <JCHEM_ACIDIC_PKA>
4.07

>  <JCHEM_BASIC_PKA>
-6.7

>  <JCHEM_PHYSIOLOGICAL_CHARGE>
-1

>  <ALOGPS_LOGP>
2.14

>  <JCHEM_LOGP>
2.55

>  <ALOGPS_LOGS>
-3.3

>  <JCHEM_POLARIZABILITY>
30.07

>  <JCHEM_POLAR_SURFACE_AREA>
40.62

>  <JCHEM_REFRACTIVITY>
80.3

>  <JCHEM_ROTATABLE_BOND_COUNT>
1

>  <ALOGPS_SOLUBILITY>
1.64e-01 g/l __

$$$$
DB00371
 OpenBabel03171413512D

 15 14  0  0  0  0  0  0  0  0999 V2000
    6.3799   -0.4529    0.0000 O   0  0  0  0  0  0  0  0  0  0  0  0
    3.5220   -0.4529    0.0000 O   0  0  0  0  0  0  0  0  0  0  0  0
    7.0944    0.7846    0.0000 O   0  0  0  0  0  0  0  0  0  0  0  0
    2.8075   -1.6905    0.0000 O   0  0  0  0  0  0  0  0  0  0  0  0
    7.8089   -0.4529    0.0000 N   0  0  0  0  0  0  0  0  0  0  0  0
    2.0930   -0.4529    0.0000 N   0  0  0  0  0  0  0  0  0  0  0  0
    4.9509   -0.4529    0.0000 C   0  0  0  0  0  0  0  0  0  0  0  0
    4.5384    0.2615    0.0000 C   0  0  0  0  0  0  0  0  0  0  0  0
    5.6655   -0.0404    0.0000 C   0  0  0  0  0  0  0  0  0  0  0  0
    4.2365   -0.8654    0.0000 C   0  0  0  0  0  0  0  0  0  0  0  0
    5.3634   -1.1675    0.0000 C   0  0  0  0  0  0  0  0  0  0  0  0
    4.9509    0.9760    0.0000 C   0  0  0  0  0  0  0  0  0  0  0  0
    4.5384    1.6905    0.0000 C   0  0  0  0  0  0  0  0  0  0  0  0
    7.0944   -0.0404    0.0000 C   0  0  0  0  0  0  0  0  0  0  0  0
    2.8075   -0.8654    0.0000 C   0  0  0  0  0  0  0  0  0  0  0  0
  1  9  1  0  0  0  0
  1 14  1  0  0  0  0
  2 10  1  0  0  0  0
  2 15  1  0  0  0  0
  3 14  2  0  0  0  0
  4 15  2  0  0  0  0
  5 14  1  0  0  0  0
  6 15  1  0  0  0  0
  7  8  1  0  0  0  0
  7  9  1  0  0  0  0
  7 10  1  0  0  0  0
  7 11  1  0  0  0  0
  8 12  1  0  0  0  0
 12 13  1  0  0  0  0
M  END
>  <DRUGBANK_ID>
DB00371

>  <DRUG_GROUPS>
illicit; approved

>  <GENERIC_NAME>
Meprobamate

>  <SYNONYMS>
DEA No. 2820; Meprobamat [German]; Meprobamato [INN-Spanish]; Meprobamato [Italian]; Meprobamatum [INN-Latin]; Meprobamic acid; Procarbamide

>  <BRANDS>
3P bamate; Amepromat; Amosene; Anastress; Anathylmon; Anatimon; Andaksin; Andaxin; Aneural; Aneurol; Aneusral; Aneuxal; Aneuxral; Ansiatan; Ansietan; Ansil; Ansiowas; Anural; Anxietil; Anzil; Apascil; Apasil; Apo-Meprobamate; Appetrol; Appetrol-Sr; Arcoban; Arpon; Artolon; Ataraxine; Atraxin; Auxietil; Ayeramate; Ayermate; Bamate; Bamd 400; Bamo 400; Biobamat; Biobamate; Brobamate; Calmadin; Calmax; Calmiren; Canquil 400; Canquil-400; Carbaxin; Cirpon; Cirponyl; Coprobate; Crestanil; Cypron; Cyrpon; Dapaz; Deprol; Despasmol; Dicandiol; Diron; Diurnal; Diveron; Dormabrol; Ecuanil; Edenal; Enorden; Epicur; Epikur; Equanil; Equatrate; Equazine-M; Equilium; Equinil; Equitar; Erina; Estasil; Fas-Cile; Fas-Cile 200; Gadexyl; Gagexyl; Harmonin; Hartol; Holbamate; Ipsotian; Kesso-Bamate; Kessobamate; Klort; Larten; Lepenil; Lepetown; Letyl; Libiolan; Madiol; Mar-Bate; Margonil; Mendel; Mepamtin; Mepantin; Mepavlon; Mepiosine; Meposed; Mepranil; Mepriam; Meprin; Meprindon; Mepro-analgesic; Mepro-Aspirin; Meprobam; Meprobamat; Meproban; Meprocompren; Meprocon; Meprocon CMC; Meprodil; Meprodiol; Meprol; Meproleaf; Mepronil; Meprosa; Meprosan; Meprosin; Meprospan; Meprotabs; Meprotan; Meprotanum; Meproten; Meprotil; Meprovan; Meprozine; Meptran; Metractyl; Metranquil; Micrainin; Milpath; Milprem; Miltamato; Miltann; Miltaun; Miltown; Miltuan; Miltwon; Misedant; Morbam; Multaun; My-trans; Neo-Tran; Nephentine; Nervonus; Neuramate; Oasil; Optarket; Orlevol; Orolevol; Pan-tranquil; Pancalma; Panediol; Pankalma; Pathibamate; Paxin; Pensive; Perequietil; Perequil; Perquietil; Pertranquil; Pimal; Placidon; Placitate; Prequil; Probamato; Probamyl; Probate; Procalmadiol; Procalmadol; Procalmidol; Promate; Promato; Proquanil; Protran; Q-Gesic; Quaname; Quanane; Quanil; Quietidon; Quivet; Rastenil; Reostral; Restenil; Restenyl; Restinal; Restinil; Restran; Robamate; Sadanyl; Scolazil; Sedabamate; Sedanil; Sedanyl; Sedazil; Sedoquil; Sedoselecta; Selene; Seril; Setran; Shalvaton; SK-Bamate; Solevione anastress; Sowell; Spantran; Stensolo; Tamate; Tensol; Tensonal; Trancot; Trankvilan; Tranlisant; Tranmep; Tranquil; Tranquilan; Tranquilate; Tranquilax; Tranquiline; Tranquillin; Tranquilsan; Tranquinol; Tranquisan; Trelmar; Urbil; Urbilat; Vio-Bamate; Vistabamate; Wardamate; Wyseals; Zirpon

>  <CHEMICAL_FORMULA>
C9H18N2O4

>  <MOLECULAR_WEIGHT>
218.2502

>  <EXACT_MASS>
218.126657074

>  <IUPAC_NAME>
2-[(carbamoyloxy)methyl]-2-methylpentyl carbamate

>  <INCHI_IDENTIFIER>
InChI=1S/C9H18N2O4/c1-3-4-9(2,5-14-7(10)12)6-15-8(11)13/h3-6H2,1-2H3,(H2,10,12)(H2,11,13)

>  <INCHI_KEY>
InChIKey=NPPQSCRMBWNHMW-UHFFFAOYSA-N

>  <SMILES>
CCCC(C)(COC(N)=O)COC(N)=O

>  <JCHEM_ACCEPTOR_COUNT>
2

>  <JCHEM_DONOR_COUNT>
2

>  <JCHEM_ACIDIC_PKA>
15.17

>  <JCHEM_PHYSIOLOGICAL_CHARGE>
0

>  <ALOGPS_LOGP>
1.06

>  <JCHEM_LOGP>
0.93

>  <ALOGPS_LOGS>
-1.9

>  <JCHEM_POLARIZABILITY>
22.65

>  <JCHEM_POLAR_SURFACE_AREA>
104.64

>  <JCHEM_REFRACTIVITY>
53.04

>  <JCHEM_ROTATABLE_BOND_COUNT>
8

>  <ALOGPS_SOLUBILITY>
2.47e+00 g/l __

$$$$
DB00404
 OpenBabel03171413512D

 22 25  0  0  0  0  0  0  0  0999 V2000
    1.6500   -0.2321    0.0000 Cl  0  0  0  0  0  0  0  0  0  0  0  0
    4.8159   -1.3269    0.0000 N   0  0  0  0  0  0  0  0  0  0  0  0
    5.2284    0.4805    0.0000 N   0  0  0  0  0  0  0  0  0  0  0  0
    6.1244   -1.5631    0.0000 N   0  0  0  0  0  0  0  0  0  0  0  0
    5.7352   -2.2849    0.0000 N   0  0  0  0  0  0  0  0  0  0  0  0
    4.0726   -0.9689    0.0000 C   0  0  0  0  0  0  0  0  0  0  0  0
    3.8890   -0.1645    0.0000 C   0  0  0  0  0  0  0  0  0  0  0  0
    5.5592   -0.9689    0.0000 C   0  0  0  0  0  0  0  0  0  0  0  0
    4.4034    0.4805    0.0000 C   0  0  0  0  0  0  0  0  0  0  0  0
    5.7428   -0.1645    0.0000 C   0  0  0  0  0  0  0  0  0  0  0  0
    4.9281   -2.1392    0.0000 C   0  0  0  0  0  0  0  0  0  0  0  0
    3.4517   -1.5630    0.0000 C   0  0  0  0  0  0  0  0  0  0  0  0
    3.0718    0.1014    0.0000 C   0  0  0  0  0  0  0  0  0  0  0  0
    4.0454    1.2238    0.0000 C   0  0  0  0  0  0  0  0  0  0  0  0
    2.6286   -1.3160    0.0000 C   0  0  0  0  0  0  0  0  0  0  0  0
    2.4374   -0.4783    0.0000 C   0  0  0  0  0  0  0  0  0  0  0  0
    4.3328   -2.7104    0.0000 C   0  0  0  0  0  0  0  0  0  0  0  0
    3.2227    1.2854    0.0000 C   0  0  0  0  0  0  0  0  0  0  0  0
    4.5102    1.9054    0.0000 C   0  0  0  0  0  0  0  0  0  0  0  0
    2.8648    2.0288    0.0000 C   0  0  0  0  0  0  0  0  0  0  0  0
    4.1523    2.6488    0.0000 C   0  0  0  0  0  0  0  0  0  0  0  0
    3.3296    2.7104    0.0000 C   0  0  0  0  0  0  0  0  0  0  0  0
  1 16  1  0  0  0  0
  2  6  1  0  0  0  0
  2  8  1  0  0  0  0
  2 11  1  0  0  0  0
  3  9  2  0  0  0  0
  3 10  1  0  0  0  0
  4  5  1  0  0  0  0
  4  8  2  0  0  0  0
  5 11  2  0  0  0  0
  6  7  2  0  0  0  0
  6 12  1  0  0  0  0
  7  9  1  0  0  0  0
  7 13  1  0  0  0  0
  8 10  1  0  0  0  0
  9 14  1  0  0  0  0
 11 17  1  0  0  0  0
 12 15  2  0  0  0  0
 13 16  2  0  0  0  0
 14 18  2  0  0  0  0
 14 19  1  0  0  0  0
 15 16  1  0  0  0  0
 18 20  1  0  0  0  0
 19 21  2  0  0  0  0
 20 22  2  0  0  0  0
 21 22  1  0  0  0  0
M  END
>  <DRUGBANK_ID>
DB00404

>  <DRUG_GROUPS>
illicit; approved; investigational

>  <GENERIC_NAME>
Alprazolam

>  <SYNONYMS>
TUS-1

>  <BRANDS>
Alplax; Alpronax; Alviz; Bestrol; Cassadan; Constan; D 65MT; Esparon; Frontal; Niravam; Restyl; Solanax; Tafil; Tranax; Trankimazin; Tranquinal; Xanax; Xanax XR; Xanor

>  <CHEMICAL_FORMULA>
C17H13ClN4

>  <MOLECULAR_WEIGHT>
308.765

>  <EXACT_MASS>
308.082874143

>  <IUPAC_NAME>
12-chloro-3-methyl-9-phenyl-2,4,5,8-tetraazatricyclo[8.4.0.0^{2,6}]tetradeca-1(10),3,5,8,11,13-hexaene

>  <INCHI_IDENTIFIER>
InChI=1S/C17H13ClN4/c1-11-20-21-16-10-19-17(12-5-3-2-4-6-12)14-9-13(18)7-8-15(14)22(11)16/h2-9H,10H2,1H3

>  <INCHI_KEY>
InChIKey=VREFGVBLTWBCJP-UHFFFAOYSA-N

>  <SMILES>
CC1=NN=C2CN=C(C3=CC=CC=C3)C3=C(C=CC(Cl)=C3)N12

>  <JCHEM_ACCEPTOR_COUNT>
3

>  <JCHEM_DONOR_COUNT>
0

>  <JCHEM_ACIDIC_PKA>
18.3

>  <JCHEM_BASIC_PKA>
5.08

>  <JCHEM_PHYSIOLOGICAL_CHARGE>
0

>  <ALOGPS_LOGP>
2.23

>  <JCHEM_LOGP>
2.37

>  <ALOGPS_LOGS>
-4

>  <JCHEM_POLARIZABILITY>
32.22

>  <JCHEM_POLAR_SURFACE_AREA>
43.07

>  <JCHEM_REFRACTIVITY>
98.88

>  <JCHEM_ROTATABLE_BOND_COUNT>
1

>  <ALOGPS_SOLUBILITY>
3.24e-02 g/l __

$$$$
DB00470
 OpenBabel03171413512D

 25 27  0  0  1  0  0  0  0  0999 V2000
    7.4202   -1.7338    0.0000 O   0  0  0  0  0  0  0  0  0  0  0  0
    5.9778    0.7697    0.0000 O   0  0  0  0  0  0  0  0  0  0  0  0
    8.1347   -0.4963    0.0000 C   0  0  2  0  0  0  0  0  0  0  0  0
    7.4202   -0.0838    0.0000 C   0  0  2  0  0  0  0  0  0  0  0  0
    8.1347   -1.3213    0.0000 C   0  0  0  0  0  0  0  0  0  0  0  0
    8.8854   -0.0782    0.0000 C   0  0  0  0  0  0  0  0  0  0  0  0
    6.7058   -0.4963    0.0000 C   0  0  0  0  0  0  0  0  0  0  0  0
    8.8921    0.7811    0.0000 C   0  0  0  0  0  0  0  0  0  0  0  0
    7.4069    0.7754    0.0000 C   0  0  0  0  0  0  0  0  0  0  0  0
    8.1479    1.2108    0.0000 C   0  0  0  0  0  0  0  0  0  0  0  0
    6.7058   -1.3213    0.0000 C   0  0  0  0  0  0  0  0  0  0  0  0
    8.5472   -2.0358    0.0000 C   0  0  0  0  0  0  0  0  0  0  0  0
    8.9597   -1.3213    0.0000 C   0  0  0  0  0  0  0  0  0  0  0  0
    5.9682   -0.0553    0.0000 C   0  0  0  0  0  0  0  0  0  0  0  0
    5.9682   -1.7624    0.0000 C   0  0  0  0  0  0  0  0  0  0  0  0
    8.1446    2.0358    0.0000 C   0  0  0  0  0  0  0  0  0  0  0  0
    5.2208   -1.3385    0.0000 C   0  0  0  0  0  0  0  0  0  0  0  0
    5.2208   -0.4792    0.0000 C   0  0  0  0  0  0  0  0  0  0  0  0
    4.5079   -1.7538    0.0000 C   0  0  0  0  0  0  0  0  0  0  0  0
    3.7918   -1.3440    0.0000 C   0  0  0  0  0  0  0  0  0  0  0  0
    3.0789   -1.7592    0.0000 C   0  0  0  0  0  0  0  0  0  0  0  0
    2.3629   -1.3495    0.0000 C   0  0  0  0  0  0  0  0  0  0  0  0
    1.6500   -1.7648    0.0000 C   0  0  0  0  0  0  0  0  0  0  0  0
    8.7037   -0.8307    0.0000 H   0  0  0  0  0  0  0  0  0  0  0  0
    7.9892    0.2506    0.0000 H   0  0  0  0  0  0  0  0  0  0  0  0
  1  5  1  0  0  0  0
  1 11  1  0  0  0  0
  2 14  1  0  0  0  0
  3  4  1  0  0  0  0
  3  5  1  0  0  0  0
  3  6  1  0  0  0  0
  3 24  1  6  0  0  0
  4  7  1  0  0  0  0
  4  9  1  0  0  0  0
  4 25  1  1  0  0  0
  5 12  1  0  0  0  0
  5 13  1  0  0  0  0
  6  8  1  0  0  0  0
  7 11  1  0  0  0  0
  7 14  2  0  0  0  0
  8 10  1  0  0  0  0
  9 10  2  0  0  0  0
 10 16  1  0  0  0  0
 11 15  2  0  0  0  0
 14 18  1  0  0  0  0
 15 17  1  0  0  0  0
 17 18  2  0  0  0  0
 17 19  1  0  0  0  0
 19 20  1  0  0  0  0
 20 21  1  0  0  0  0
 21 22  1  0  0  0  0
 22 23  1  0  0  0  0
M  END
>  <DRUGBANK_ID>
DB00470

>  <DRUG_GROUPS>
illicit; approved

>  <GENERIC_NAME>
Dronabinol

>  <BRANDS>
&Delta;9-tetrahydrocannabinol; &Delta;9-THC; Abbott 40566; Dea No. 7369; Dea No. 7370; delta-9-tetrahydrocannabinol; delta-9-THC; Deltanyne; Dronabinol; Dronabinol [Usan:Inn]; Dronabinolum [Latin]; Marinol

>  <CHEMICAL_FORMULA>
C21H30O2

>  <MOLECULAR_WEIGHT>
314.4617

>  <EXACT_MASS>
314.224580204

>  <IUPAC_NAME>
(6aR,10aR)-6,6,9-trimethyl-3-pentyl-6H,6aH,7H,8H,10aH-benzo[c]isochromen-1-ol

>  <INCHI_IDENTIFIER>
InChI=1S/C21H30O2/c1-5-6-7-8-15-12-18(22)20-16-11-14(2)9-10-17(16)21(3,4)23-19(20)13-15/h11-13,16-17,22H,5-10H2,1-4H3/t16-,17-/m1/s1

>  <INCHI_KEY>
InChIKey=CYQFCXCEBYINGO-IAGOWNOFSA-N

>  <SMILES>
[H][C@@]12C=C(C)CC[C@@]1([H])C(C)(C)OC1=CC(CCCCC)=CC(O)=C21

>  <JCHEM_ACCEPTOR_COUNT>
2

>  <JCHEM_DONOR_COUNT>
1

>  <JCHEM_ACIDIC_PKA>
9.34

>  <JCHEM_BASIC_PKA>
-4.9

>  <JCHEM_PHYSIOLOGICAL_CHARGE>
0

>  <ALOGPS_LOGP>
7.29

>  <JCHEM_LOGP>
5.94

>  <ALOGPS_LOGS>
-5.1

>  <JCHEM_POLARIZABILITY>
38.81

>  <JCHEM_POLAR_SURFACE_AREA>
29.46

>  <JCHEM_REFRACTIVITY>
96.73

>  <JCHEM_ROTATABLE_BOND_COUNT>
4

>  <ALOGPS_SOLUBILITY>
2.63e-03 g/l __

$$$$
DB00475
 OpenBabel03171413512D

 21 23  0  0  0  0  0  0  0  0999 V2000
   -0.7145    0.4125    0.0000 C   0  0  0  0  0  0  0  0  0  0  0  0
   -0.7145   -0.4125    0.0000 C   0  0  0  0  0  0  0  0  0  0  0  0
    0.7145   -0.4125    0.0000 C   0  0  0  0  0  0  0  0  0  0  0  0
    0.7145    0.4125    0.0000 C   0  0  0  0  0  0  0  0  0  0  0  0
    0.0000   -0.8250    0.0000 C   0  0  0  0  0  0  0  0  0  0  0  0
    0.0000    0.8250    0.0000 C   0  0  0  0  0  0  0  0  0  0  0  0
    1.3595   -0.9269    0.0000 C   0  0  0  0  0  0  0  0  0  0  0  0
    1.1759   -1.7312    0.0000 C   0  0  0  0  0  0  0  0  0  0  0  0
    2.1638   -0.7433    0.0000 N   0  0  0  0  0  0  0  0  0  0  0  0
    1.3595    0.9269    0.0000 N   0  0  0  0  0  0  0  0  0  0  0  0
    0.3876   -1.9744    0.0000 C   0  0  0  0  0  0  0  0  0  0  0  0
    1.7807   -2.2923    0.0000 C   0  0  0  0  0  0  0  0  0  0  0  0
    2.5218    0.0000    0.0000 C   0  0  0  0  0  0  0  0  0  0  0  0
    2.6782   -1.3883    0.0000 O   0  0  0  0  0  0  0  0  0  0  0  0
    2.1638    0.7433    0.0000 C   0  0  0  0  0  0  0  0  0  0  0  0
   -1.4289   -0.8250    0.0000 Cl  0  0  0  0  0  0  0  0  0  0  0  0
    0.2040   -2.7787    0.0000 C   0  0  0  0  0  0  0  0  0  0  0  0
    1.5971   -3.0967    0.0000 C   0  0  0  0  0  0  0  0  0  0  0  0
    0.8087   -3.3398    0.0000 C   0  0  0  0  0  0  0  0  0  0  0  0
    2.3768    2.1563    0.0000 C   0  0  0  0  0  0  0  0  0  0  0  0
    2.6782    1.3883    0.0000 N   0  0  0  0  0  0  0  0  0  0  0  0
  1  2  1  0  0  0  0
  2 16  1  0  0  0  0
  3  7  1  0  0  0  0
  3  4  2  0  0  0  0
  4 10  1  0  0  0  0
  4  6  1  0  0  0  0
  5  2  2  0  0  0  0
  5  3  1  0  0  0  0
  6  1  2  0  0  0  0
  7  8  1  0  0  0  0
  7  9  2  0  0  0  0
  8 11  2  0  0  0  0
  8 12  1  0  0  0  0
  9 13  1  0  0  0  0
  9 14  2  0  0  0  0
 10 15  2  0  0  0  0
 11 17  1  0  0  0  0
 12 18  2  0  0  0  0
 13 15  1  0  0  0  0
 15 21  1  0  0  0  0
 17 19  2  0  0  0  0
 18 19  1  0  0  0  0
 21 20  1  0  0  0  0
M  END
>  <DRUGBANK_ID>
DB00475

>  <DRUG_GROUPS>
illicit; approved

>  <GENERIC_NAME>
Chlordiazepoxide

>  <BRANDS>
A-Poxide; Abboxide; Apo-Chlordiazepoxide; Balance; CD 2; CDP; Chloradiazepoxide; Chlordiazachel; Chlordiazepoxid; Chlordiazepoxide Base; Chlordiazepoxide Hcl; Chlordiazepoxidum; Chloridazepoxide; Chloridiazepide; Chloridiazepoxide; Chlorodiazepoxide; Chlozepid; Clopoxide; Clordiazepossido; Contol; Control; Decacil; Eden; Elenium; Helogaphen; Ifibrium; Kalmocaps; Librelease; Librinin; Libritabs; Librium; Lygen; Menrium; Mesural; Methaminodiazepoxide; Mildmen; Multum; Napoton; Napton; Novo-Poxide; Psicosan; Radepur; Risolid; Silibrin; Tropium; Viopsicol

>  <CHEMICAL_FORMULA>
C16H14ClN3O

>  <MOLECULAR_WEIGHT>
299.755

>  <EXACT_MASS>
299.082539792

>  <IUPAC_NAME>
7-chloro-2-(methylamino)-5-phenyl-3H-1,4$l^{5}-benzodiazepin-4-one

>  <INCHI_IDENTIFIER>
InChI=1S/C16H14ClN3O/c1-18-15-10-20(21)16(11-5-3-2-4-6-11)13-9-12(17)7-8-14(13)19-15/h2-9H,10H2,1H3,(H,18,19)

>  <INCHI_KEY>
InChIKey=ANTSCNMPPGJYLG-UHFFFAOYSA-N

>  <SMILES>
CNC1=NC2=C(C=C(Cl)C=C2)C(C2=CC=CC=C2)=N(=O)C1

>  <JCHEM_ACCEPTOR_COUNT>
3

>  <JCHEM_DONOR_COUNT>
1

>  <JCHEM_ACIDIC_PKA>
18.52

>  <JCHEM_BASIC_PKA>
6.43

>  <JCHEM_PHYSIOLOGICAL_CHARGE>
0

>  <ALOGPS_LOGP>
2.01

>  <JCHEM_LOGP>
3.05

>  <ALOGPS_LOGS>
-4.2

>  <JCHEM_POLARIZABILITY>
30.97

>  <JCHEM_POLAR_SURFACE_AREA>
53.14

>  <JCHEM_REFRACTIVITY>
87.34

>  <JCHEM_ROTATABLE_BOND_COUNT>
1

>  <ALOGPS_SOLUBILITY>
1.99e-02 g/l __

$$$$
DB00497
 OpenBabel03171413512D

 25 29  0  0  1  0  0  0  0  0999 V2000
    1.9356   -0.3879    0.0000 O   0  0  0  0  0  0  0  0  0  0  0  0
    4.4727   -1.9232    0.0000 O   0  0  0  0  0  0  0  0  0  0  0  0
    1.7349   -2.5175    0.0000 O   0  0  0  0  0  0  0  0  0  0  0  0
    1.7349    1.6501    0.0000 O   0  0  0  0  0  0  0  0  0  0  0  0
    5.3440   -1.2588    0.0000 N   0  0  0  0  0  0  0  0  0  0  0  0
    3.2006   -0.8462    0.0000 C   0  0  1  0  0  0  0  0  0  0  0  0
    3.9151   -1.2588    0.0000 C   0  0  1  0  0  0  0  0  0  0  0  0
    4.6296   -0.8462    0.0000 C   0  0  1  0  0  0  0  0  0  0  0  0
    2.4861   -1.2588    0.0000 C   0  0  2  0  0  0  0  0  0  0  0  0
    3.6773   -0.2412    0.0000 C   0  0  0  0  0  0  0  0  0  0  0  0
    3.2006   -0.0213    0.0000 C   0  0  0  0  0  0  0  0  0  0  0  0
    3.9151   -2.0838    0.0000 C   0  0  0  0  0  0  0  0  0  0  0  0
    4.6296   -0.0213    0.0000 C   0  0  0  0  0  0  0  0  0  0  0  0
    4.8506   -0.2412    0.0000 C   0  0  0  0  0  0  0  0  0  0  0  0
    3.9151    0.3913    0.0000 C   0  0  0  0  0  0  0  0  0  0  0  0
    3.2006   -2.4963    0.0000 C   0  0  0  0  0  0  0  0  0  0  0  0
    2.4861   -2.0838    0.0000 C   0  0  0  0  0  0  0  0  0  0  0  0
    2.4861    0.3913    0.0000 C   0  0  0  0  0  0  0  0  0  0  0  0
    5.9350   -1.8938    0.0000 C   0  0  0  0  0  0  0  0  0  0  0  0
    3.9151    1.2163    0.0000 C   0  0  0  0  0  0  0  0  0  0  0  0
    2.4861    1.2163    0.0000 C   0  0  0  0  0  0  0  0  0  0  0  0
    3.2006    1.6288    0.0000 C   0  0  0  0  0  0  0  0  0  0  0  0
    1.7349    2.5175    0.0000 C   0  0  0  0  0  0  0  0  0  0  0  0
    4.8675   -1.4982    0.0000 H   0  0  0  0  0  0  0  0  0  0  0  0
    1.8196   -1.4518    0.0000 H   0  0  0  0  0  0  0  0  0  0  0  0
  1  9  1  0  0  0  0
  1 18  1  0  0  0  0
  3 17  2  0  0  0  0
  4 21  1  0  0  0  0
  4 23  1  0  0  0  0
  5  8  1  0  0  0  0
  5 14  1  0  0  0  0
  5 19  1  0  0  0  0
  6  7  1  0  0  0  0
  6  9  1  0  0  0  0
  6 10  1  1  0  0  0
  6 11  1  0  0  0  0
  7  2  1  1  0  0  0
  7  8  1  0  0  0  0
  7 12  1  0  0  0  0
  8 13  1  0  0  0  0
  8 24  1  6  0  0  0
  9 17  1  0  0  0  0
  9 25  1  1  0  0  0
 10 14  1  0  0  0  0
 11 15  2  0  0  0  0
 11 18  1  0  0  0  0
 12 16  1  0  0  0  0
 13 15  1  0  0  0  0
 15 20  1  0  0  0  0
 16 17  1  0  0  0  0
 18 21  2  0  0  0  0
 20 22  2  0  0  0  0
 21 22  1  0  0  0  0
M  END
>  <DRUGBANK_ID>
DB00497

>  <DRUG_GROUPS>
illicit; approved; investigational

>  <GENERIC_NAME>
Oxycodone

>  <SYNONYMS>
Dihydrohydroxycodeinone; Dihydrohydroxycondeinone; Dihydrone; Oxicodona [INN-Spanish]; Oxycodone Hcl; Oxycodone Hydrochloride; Oxycodonum [INN-Latin]; PTI-821

>  <BRANDS>
Dihydroxycodeinone; Dinarkon; Diphydrone; Endodan; Endone; Eubine; Eucodal; Eucodalum; Eukodal; Eutagen; Oxanest; Oxicon; Oxicone; Oxikon; Oxycodeinone; Oxycodon; Oxycon; Oxycontin; OxyFAST; OxyIR; OxyNorm; Pancodine; Percobarb; Percolone; Remoxy; Roxicodone; Supendol; Supeudol; Tecodin; Tekodin; Thecodine; Thekodin

>  <CHEMICAL_FORMULA>
C18H21NO4

>  <MOLECULAR_WEIGHT>
315.3636

>  <EXACT_MASS>
315.147058165

>  <IUPAC_NAME>
(1S,5R,13R,17S)-17-hydroxy-10-methoxy-4-methyl-12-oxa-4-azapentacyclo[9.6.1.0^{1,13}.0^{5,17}.0^{7,18}]octadeca-7(18),8,10-trien-14-one

>  <INCHI_IDENTIFIER>
InChI=1S/C18H21NO4/c1-19-8-7-17-14-10-3-4-12(22-2)15(14)23-16(17)11(20)5-6-18(17,21)13(19)9-10/h3-4,13,16,21H,5-9H2,1-2H3/t13-,16+,17+,18-/m1/s1

>  <INCHI_KEY>
InChIKey=BRUQQQPBMZOVGD-XFKAJCMBSA-N

>  <SMILES>
[H][C@@]12OC3=C(OC)C=CC4=C3[C@@]11CCN(C)[C@]([H])(C4)[C@]1(O)CCC2=O

>  <JCHEM_ACCEPTOR_COUNT>
5

>  <JCHEM_DONOR_COUNT>
1

>  <JCHEM_ACIDIC_PKA>
13.56

>  <JCHEM_BASIC_PKA>
8.21

>  <JCHEM_PHYSIOLOGICAL_CHARGE>
1

>  <ALOGPS_LOGP>
1.04

>  <JCHEM_LOGP>
1.03

>  <ALOGPS_LOGS>
-1.8

>  <JCHEM_POLARIZABILITY>
32.8

>  <JCHEM_POLAR_SURFACE_AREA>
59

>  <JCHEM_REFRACTIVITY>
84.04

>  <JCHEM_ROTATABLE_BOND_COUNT>
1

>  <ALOGPS_SOLUBILITY>
5.59e+00 g/l __

$$$$
DB00574
 OpenBabel03171413512D

 16 16  0  0  1  0  0  0  0  0999 V2000
    3.6830    2.0625    0.0000 F   0  0  0  0  0  0  0  0  0  0  0  0
    5.3330    2.0625    0.0000 F   0  0  0  0  0  0  0  0  0  0  0  0
    4.5080    2.8876    0.0000 F   0  0  0  0  0  0  0  0  0  0  0  0
    2.3645   -1.6500    0.0000 N   0  0  0  0  0  0  0  0  0  0  0  0
    3.0791   -1.2375    0.0000 C   0  0  3  0  0  0  0  0  0  0  0  0
    3.0791   -0.4125    0.0000 C   0  0  0  0  0  0  0  0  0  0  0  0
    3.7935    0.0000    0.0000 C   0  0  0  0  0  0  0  0  0  0  0  0
    3.7935   -1.6500    0.0000 C   0  0  0  0  0  0  0  0  0  0  0  0
    2.3645   -2.4751    0.0000 C   0  0  0  0  0  0  0  0  0  0  0  0
    3.7935    0.8250    0.0000 C   0  0  0  0  0  0  0  0  0  0  0  0
    4.5080   -0.4125    0.0000 C   0  0  0  0  0  0  0  0  0  0  0  0
    4.5080    1.2375    0.0000 C   0  0  0  0  0  0  0  0  0  0  0  0
    5.2224    0.0000    0.0000 C   0  0  0  0  0  0  0  0  0  0  0  0
    5.2224    0.8250    0.0000 C   0  0  0  0  0  0  0  0  0  0  0  0
    1.6500   -2.8876    0.0000 C   0  0  0  0  0  0  0  0  0  0  0  0
    4.5080    2.0625    0.0000 C   0  0  0  0  0  0  0  0  0  0  0  0
  1 16  1  0  0  0  0
  2 16  1  0  0  0  0
  3 16  1  0  0  0  0
  4  5  1  0  0  0  0
  4  9  1  0  0  0  0
  5  6  1  0  0  0  0
  5  8  1  0  0  0  0
  6  7  1  0  0  0  0
  7 10  2  0  0  0  0
  7 11  1  0  0  0  0
  9 15  1  0  0  0  0
 10 12  1  0  0  0  0
 11 13  2  0  0  0  0
 12 14  2  0  0  0  0
 12 16  1  0  0  0  0
 13 14  1  0  0  0  0
M  END
>  <DRUGBANK_ID>
DB00574

>  <DRUG_GROUPS>
illicit; withdrawn

>  <GENERIC_NAME>
Fenfluramine

>  <SYNONYMS>
DEA No. 1670; Fenfluramina [DCIT]; Fenfluramine Hydrochloride; Fenfluraminum [INN-Latin]

>  <BRANDS>
Acino; Adipomin; Obedrex; Pesos; Ponderax Pa; Ponderex; Pondimin; Rotondin

>  <CHEMICAL_FORMULA>
C12H16F3N

>  <MOLECULAR_WEIGHT>
231.2573

>  <EXACT_MASS>
231.123484132

>  <IUPAC_NAME>
ethyl({1-[3-(trifluoromethyl)phenyl]propan-2-yl})amine

>  <INCHI_IDENTIFIER>
InChI=1S/C12H16F3N/c1-3-16-9(2)7-10-5-4-6-11(8-10)12(13,14)15/h4-6,8-9,16H,3,7H2,1-2H3

>  <INCHI_KEY>
InChIKey=DBGIVFWFUFKIQN-UHFFFAOYSA-N

>  <SMILES>
CCNC(C)CC1=CC(=CC=C1)C(F)(F)F

>  <JCHEM_ACCEPTOR_COUNT>
1

>  <JCHEM_DONOR_COUNT>
1

>  <JCHEM_BASIC_PKA>
10.22

>  <JCHEM_PHYSIOLOGICAL_CHARGE>
1

>  <ALOGPS_LOGP>
3.3

>  <JCHEM_LOGP>
3.47

>  <ALOGPS_LOGS>
-4

>  <JCHEM_POLARIZABILITY>
22.51

>  <JCHEM_POLAR_SURFACE_AREA>
12.03

>  <JCHEM_REFRACTIVITY>
59.2

>  <JCHEM_ROTATABLE_BOND_COUNT>
5

>  <ALOGPS_SOLUBILITY>
2.15e-02 g/l __

$$$$
DB00611
 OpenBabel03171413512D

 25 29  0  0  1  0  0  0  0  0999 V2000
    6.4350   -0.2341    0.0000 O   0  0  0  0  0  0  0  0  0  0  0  0
    2.0939   -1.0789    0.0000 O   0  0  0  0  0  0  0  0  0  0  0  0
    5.3724    0.1709    0.0000 N   0  0  0  0  0  0  0  0  0  0  0  0
    5.0062   -1.0591    0.0000 C   0  0  1  0  0  0  0  0  0  0  0  0
    5.7205   -0.6466    0.0000 C   0  0  1  0  0  0  0  0  0  0  0  0
    5.7205    0.1784    0.0000 C   0  0  2  0  0  0  0  0  0  0  0  0
    4.8386   -0.7539    0.0000 C   0  0  0  0  0  0  0  0  0  0  0  0
    4.9929   -1.9183    0.0000 C   0  0  0  0  0  0  0  0  0  0  0  0
    6.4713   -1.0647    0.0000 C   0  0  0  0  0  0  0  0  0  0  0  0
    4.2916   -0.6466    0.0000 C   0  0  0  0  0  0  0  0  0  0  0  0
    4.7695   -0.0975    0.0000 C   0  0  0  0  0  0  0  0  0  0  0  0
    5.0062    0.5909    0.0000 C   0  0  0  0  0  0  0  0  0  0  0  0
    5.7336   -2.3536    0.0000 C   0  0  0  0  0  0  0  0  0  0  0  0
    6.4779   -1.9240    0.0000 C   0  0  0  0  0  0  0  0  0  0  0  0
    4.2916    0.1784    0.0000 C   0  0  0  0  0  0  0  0  0  0  0  0
    5.5440    0.9778    0.0000 C   0  0  0  0  0  0  0  0  0  0  0  0
    4.9309    1.5298    0.0000 C   0  0  0  0  0  0  0  0  0  0  0  0
    4.1071    1.4867    0.0000 C   0  0  0  0  0  0  0  0  0  0  0  0
    4.8878    2.3536    0.0000 C   0  0  0  0  0  0  0  0  0  0  0  0
    3.5542   -1.0876    0.0000 C   0  0  0  0  0  0  0  0  0  0  0  0
    4.0639    2.3104    0.0000 C   0  0  0  0  0  0  0  0  0  0  0  0
    3.5542    0.6195    0.0000 C   0  0  0  0  0  0  0  0  0  0  0  0
    2.8067   -0.6638    0.0000 C   0  0  0  0  0  0  0  0  0  0  0  0
    2.8067    0.1955    0.0000 C   0  0  0  0  0  0  0  0  0  0  0  0
    6.0505    0.7498    0.0000 H   0  0  0  0  0  0  0  0  0  0  0  0
  2 23  1  0  0  0  0
  3  6  1  0  0  0  0
  3 11  1  0  0  0  0
  3 16  1  0  0  0  0
  4  5  1  0  0  0  0
  4  7  1  6  0  0  0
  4  8  1  0  0  0  0
  4 10  1  0  0  0  0
  5  1  1  1  0  0  0
  5  6  1  0  0  0  0
  5  9  1  0  0  0  0
  6 12  1  0  0  0  0
  6 25  1  6  0  0  0
  7 11  1  0  0  0  0
  8 13  1  0  0  0  0
  9 14  1  0  0  0  0
 10 15  2  0  0  0  0
 10 20  1  0  0  0  0
 12 15  1  0  0  0  0
 13 14  1  0  0  0  0
 15 22  1  0  0  0  0
 16 17  1  0  0  0  0
 17 18  1  0  0  0  0
 17 19  1  0  0  0  0
 18 21  1  0  0  0  0
 19 21  1  0  0  0  0
 20 23  2  0  0  0  0
 22 24  2  0  0  0  0
 23 24  1  0  0  0  0
M  END
>  <DRUGBANK_ID>
DB00611

>  <DRUG_GROUPS>
illicit; approved

>  <GENERIC_NAME>
Butorphanol

>  <SYNONYMS>
Butorfanol; Butorfanol [INN-Spanish]; Butorphanol Tartrate; Butorphanolum [INN-Latin]

>  <BRANDS>
Beforal; Moradol; Stadol; Stadol NS

>  <CHEMICAL_FORMULA>
C21H29NO2

>  <MOLECULAR_WEIGHT>
327.4605

>  <EXACT_MASS>
327.219829177

>  <IUPAC_NAME>
(1S,9R,10S)-17-(cyclobutylmethyl)-17-azatetracyclo[7.5.3.0^{1,10}.0^{2,7}]heptadeca-2(7),3,5-triene-4,10-diol

>  <INCHI_IDENTIFIER>
InChI=1S/C21H29NO2/c23-17-7-6-16-12-19-21(24)9-2-1-8-20(21,18(16)13-17)10-11-22(19)14-15-4-3-5-15/h6-7,13,15,19,23-24H,1-5,8-12,14H2/t19-,20+,21-/m1/s1

>  <INCHI_KEY>
InChIKey=IFKLAQQSCNILHL-QHAWAJNXSA-N

>  <SMILES>
[H][C@@]12CC3=C(C=C(O)C=C3)[C@]3(CCCC[C@@]13O)CCN2CC1CCC1

>  <JCHEM_ACCEPTOR_COUNT>
3

>  <JCHEM_DONOR_COUNT>
2

>  <JCHEM_ACIDIC_PKA>
9.86

>  <JCHEM_BASIC_PKA>
10.7

>  <JCHEM_PHYSIOLOGICAL_CHARGE>
1

>  <ALOGPS_LOGP>
3.65

>  <JCHEM_LOGP>
2.89

>  <ALOGPS_LOGS>
-3.3

>  <JCHEM_POLARIZABILITY>
37.94

>  <JCHEM_POLAR_SURFACE_AREA>
43.7

>  <JCHEM_REFRACTIVITY>
95.92

>  <JCHEM_ROTATABLE_BOND_COUNT>
2

>  <ALOGPS_SOLUBILITY>
1.60e-01 g/l __

$$$$
DB00628
 OpenBabel03171413512D

 22 24  0  0  1  0  0  0  0  0999 V2000
    2.5467   -2.7000    0.0000 Cl  0  0  0  0  0  0  0  0  0  0  0  0
    2.3403    2.0183    0.0000 O   0  0  0  0  0  0  0  0  0  0  0  0
    4.7038    2.0801    0.0000 O   0  0  0  0  0  0  0  0  0  0  0  0
    3.4164    2.7000    0.0000 O   0  0  0  0  0  0  0  0  0  0  0  0
    2.1838    0.6300    0.0000 N   0  0  0  0  0  0  0  0  0  0  0  0
    4.0375    0.6300    0.0000 N   0  0  0  0  0  0  0  0  0  0  0  0
    3.1106   -0.5322    0.0000 C   0  0  0  0  0  0  0  0  0  0  0  0
    3.8540   -0.1742    0.0000 C   0  0  0  0  0  0  0  0  0  0  0  0
    2.3674   -0.1742    0.0000 C   0  0  0  0  0  0  0  0  0  0  0  0
    3.5231    1.2751    0.0000 C   0  0  3  0  0  0  0  0  0  0  0  0
    4.4989   -0.6886    0.0000 C   0  0  0  0  0  0  0  0  0  0  0  0
    2.6981    1.2751    0.0000 C   0  0  0  0  0  0  0  0  0  0  0  0
    3.1881   -1.3880    0.0000 C   0  0  0  0  0  0  0  0  0  0  0  0
    1.6500   -0.6473    0.0000 C   0  0  0  0  0  0  0  0  0  0  0  0
    2.4818   -1.8776    0.0000 C   0  0  0  0  0  0  0  0  0  0  0  0
    1.7076   -1.5047    0.0000 C   0  0  0  0  0  0  0  0  0  0  0  0
    5.2669   -0.3872    0.0000 C   0  0  0  0  0  0  0  0  0  0  0  0
    4.3760   -1.5044    0.0000 C   0  0  0  0  0  0  0  0  0  0  0  0
    3.8811    2.0183    0.0000 C   0  0  0  0  0  0  0  0  0  0  0  0
    5.9120   -0.9016    0.0000 C   0  0  0  0  0  0  0  0  0  0  0  0
    5.0210   -2.0188    0.0000 C   0  0  0  0  0  0  0  0  0  0  0  0
    5.7890   -1.7174    0.0000 C   0  0  0  0  0  0  0  0  0  0  0  0
  1 15  1  0  0  0  0
  2 12  2  0  0  0  0
  3 19  1  0  0  0  0
  4 19  2  0  0  0  0
  5  9  1  0  0  0  0
  5 12  1  0  0  0  0
  6  8  2  0  0  0  0
  6 10  1  0  0  0  0
  7  8  1  0  0  0  0
  7  9  2  0  0  0  0
  7 13  1  0  0  0  0
  8 11  1  0  0  0  0
  9 14  1  0  0  0  0
 10 12  1  0  0  0  0
 10 19  1  0  0  0  0
 11 17  2  0  0  0  0
 11 18  1  0  0  0  0
 13 15  2  0  0  0  0
 14 16  2  0  0  0  0
 15 16  1  0  0  0  0
 17 20  1  0  0  0  0
 18 21  2  0  0  0  0
 20 22  2  0  0  0  0
 21 22  1  0  0  0  0
M  END
>  <DRUGBANK_ID>
DB00628

>  <DRUG_GROUPS>
illicit; approved

>  <GENERIC_NAME>
Clorazepate

>  <BRANDS>
Chlorazepate; Chlorazepic acid; Clorazepate dipotassium; Clorazepic acid; Clorazepic acid [BAN]; Gen-xene; Novo-Clopate; Tranxene

>  <CHEMICAL_FORMULA>
C16H11ClN2O3

>  <MOLECULAR_WEIGHT>
314.723

>  <EXACT_MASS>
314.045819935

>  <IUPAC_NAME>
7-chloro-2-oxo-5-phenyl-2,3-dihydro-1H-1,4-benzodiazepine-3-carboxylic acid

>  <INCHI_IDENTIFIER>
InChI=1S/C16H11ClN2O3/c17-10-6-7-12-11(8-10)13(9-4-2-1-3-5-9)19-14(16(21)22)15(20)18-12/h1-8,14H,(H,18,20)(H,21,22)

>  <INCHI_KEY>
InChIKey=XDDJGVMJFWAHJX-UHFFFAOYSA-N

>  <SMILES>
OC(=O)C1N=C(C2=CC=CC=C2)C2=C(NC1=O)C=CC(Cl)=C2

>  <JCHEM_ACCEPTOR_COUNT>
4

>  <JCHEM_DONOR_COUNT>
2

>  <JCHEM_ACIDIC_PKA>
3.32

>  <JCHEM_BASIC_PKA>
-0.64

>  <JCHEM_PHYSIOLOGICAL_CHARGE>
-1

>  <ALOGPS_LOGP>
2.68

>  <JCHEM_LOGP>
3.21

>  <ALOGPS_LOGS>
-4.1

>  <JCHEM_POLARIZABILITY>
30.63

>  <JCHEM_POLAR_SURFACE_AREA>
78.76

>  <JCHEM_REFRACTIVITY>
82.68

>  <JCHEM_ROTATABLE_BOND_COUNT>
2

>  <ALOGPS_SOLUBILITY>
2.48e-02 g/l __

$$$$
DB00647
 OpenBabel03171413512D

 25 26  0  0  0  0  0  0  0  0999 V2000
   -1.6205    3.0938    0.0000 C   0  0  0  0  0  0  0  0  0  0  0  0
   -2.3350    2.6813    0.0000 C   0  0  0  0  0  0  0  0  0  0  0  0
   -2.3350    1.8562    0.0000 C   0  0  0  0  0  0  0  0  0  0  0  0
   -1.6205    1.4437    0.0000 C   0  0  0  0  0  0  0  0  0  0  0  0
   -0.9061    1.8562    0.0000 C   0  0  0  0  0  0  0  0  0  0  0  0
   -0.9061    2.6813    0.0000 C   0  0  0  0  0  0  0  0  0  0  0  0
   -1.6205    0.6187    0.0000 C   0  0  3  0  0  0  0  0  0  0  0  0
   -2.3350    0.2062    0.0000 C   0  0  0  0  0  0  0  0  0  0  0  0
   -3.0495    0.6187    0.0000 C   0  0  0  0  0  0  0  0  0  0  0  0
   -3.7639    1.8563    0.0000 C   0  0  0  0  0  0  0  0  0  0  0  0
   -4.4784    1.4438    0.0000 C   0  0  0  0  0  0  0  0  0  0  0  0
   -4.4784    0.6187    0.0000 C   0  0  0  0  0  0  0  0  0  0  0  0
   -3.7639    0.2062    0.0000 C   0  0  0  0  0  0  0  0  0  0  0  0
   -3.0495    1.4438    0.0000 C   0  0  0  0  0  0  0  0  0  0  0  0
   -1.6205   -0.2063    0.0000 C   0  0  1  0  0  0  0  0  0  0  0  0
   -0.9061    0.2062    0.0000 O   0  0  0  0  0  0  0  0  0  0  0  0
   -0.1916    0.6187    0.0000 C   0  0  0  0  0  0  0  0  0  0  0  0
    0.5229    0.2062    0.0000 C   0  0  0  0  0  0  0  0  0  0  0  0
    1.2373    0.6187    0.0000 C   0  0  0  0  0  0  0  0  0  0  0  0
   -0.9061   -0.6188    0.0000 C   0  0  0  0  0  0  0  0  0  0  0  0
   -0.9061   -1.4438    0.0000 N   0  0  0  0  0  0  0  0  0  0  0  0
   -1.6205   -1.8563    0.0000 C   0  0  0  0  0  0  0  0  0  0  0  0
   -0.1916   -1.8563    0.0000 C   0  0  0  0  0  0  0  0  0  0  0  0
   -2.3350   -0.6188    0.0000 C   0  0  0  0  0  0  0  0  0  0  0  0
   -0.1916    1.4437    0.0000 O   0  0  0  0  0  0  0  0  0  0  0  0
  1  2  2  0  0  0  0
  1  6  1  0  0  0  0
  2  3  1  0  0  0  0
  3  4  2  0  0  0  0
  4  5  1  0  0  0  0
  5  6  2  0  0  0  0
  7  4  1  0  0  0  0
  7  8  1  0  0  0  0
  7 15  1  0  0  0  0
  7 16  1  0  0  0  0
  8  9  1  0  0  0  0
  9 14  1  0  0  0  0
 10 11  1  0  0  0  0
 10 14  2  0  0  0  0
 11 12  2  0  0  0  0
 12 13  1  0  0  0  0
 13  9  2  0  0  0  0
 15 20  1  1  0  0  0
 15 24  1  0  0  0  0
 16 17  1  0  0  0  0
 17 18  1  0  0  0  0
 17 25  2  0  0  0  0
 18 19  1  0  0  0  0
 20 21  1  0  0  0  0
 21 22  1  0  0  0  0
 21 23  1  0  0  0  0
M  END
>  <DRUGBANK_ID>
DB00647

>  <DRUG_GROUPS>
illicit; approved

>  <GENERIC_NAME>
Propoxyphene

>  <SYNONYMS>
D-Propoxyphene; Dextropropoxyphene; Dextropropoxyphene-M; Dextroproxifeno; Propoxyphene HCl

>  <BRANDS>
Algafan; Antalvic; Darvon; Deprancol; Depromic; Dolene; Dolocap; Doloxen; Doloxene; Erantin; Femadol; Harmar; Kesso-Gesic; Propacet; Prophene 65; Propoxychel; Propoxyphene HCl 65; Proxagesic

>  <CHEMICAL_FORMULA>
C22H29NO2

>  <MOLECULAR_WEIGHT>
339.4712

>  <EXACT_MASS>
339.219829177

>  <IUPAC_NAME>
(3R)-4-(dimethylamino)-3-methyl-1,2-diphenylbutan-2-yl propanoate

>  <INCHI_IDENTIFIER>
InChI=1S/C22H29NO2/c1-5-21(24)25-22(18(2)17-23(3)4,20-14-10-7-11-15-20)16-19-12-8-6-9-13-19/h6-15,18H,5,16-17H2,1-4H3/t18-,22?/m1/s1

>  <INCHI_KEY>
InChIKey=XLMALTXPSGQGBX-ZZWBGTBQSA-N

>  <SMILES>
CCC(=O)OC(CC1=CC=CC=C1)([C@H](C)CN(C)C)C1=CC=CC=C1

>  <JCHEM_ACCEPTOR_COUNT>
2

>  <JCHEM_DONOR_COUNT>
0

>  <JCHEM_BASIC_PKA>
9.52

>  <JCHEM_PHYSIOLOGICAL_CHARGE>
1

>  <ALOGPS_LOGP>
4.06

>  <JCHEM_LOGP>
4.9

>  <ALOGPS_LOGS>
-4.9

>  <JCHEM_POLARIZABILITY>
38.4

>  <JCHEM_POLAR_SURFACE_AREA>
29.54

>  <JCHEM_REFRACTIVITY>
102.88

>  <JCHEM_ROTATABLE_BOND_COUNT>
9

>  <ALOGPS_SOLUBILITY>
4.19e-03 g/l __

$$$$
DB00683
 OpenBabel03171413512D

 23 26  0  0  0  0  0  0  0  0999 V2000
    1.6500   -0.2321    0.0000 Cl  0  0  0  0  0  0  0  0  0  0  0  0
    5.3329    1.8438    0.0000 F   0  0  0  0  0  0  0  0  0  0  0  0
    4.8159   -1.3269    0.0000 N   0  0  0  0  0  0  0  0  0  0  0  0
    5.2284    0.4805    0.0000 N   0  0  0  0  0  0  0  0  0  0  0  0
    5.7352   -2.2849    0.0000 N   0  0  0  0  0  0  0  0  0  0  0  0
    4.0726   -0.9689    0.0000 C   0  0  0  0  0  0  0  0  0  0  0  0
    5.5592   -0.9689    0.0000 C   0  0  0  0  0  0  0  0  0  0  0  0
    3.8890   -0.1645    0.0000 C   0  0  0  0  0  0  0  0  0  0  0  0
    5.7428   -0.1645    0.0000 C   0  0  0  0  0  0  0  0  0  0  0  0
    4.4034    0.4805    0.0000 C   0  0  0  0  0  0  0  0  0  0  0  0
    4.9281   -2.1392    0.0000 C   0  0  0  0  0  0  0  0  0  0  0  0
    6.1244   -1.5631    0.0000 C   0  0  0  0  0  0  0  0  0  0  0  0
    3.4517   -1.5630    0.0000 C   0  0  0  0  0  0  0  0  0  0  0  0
    3.0718    0.1014    0.0000 C   0  0  0  0  0  0  0  0  0  0  0  0
    4.0454    1.2238    0.0000 C   0  0  0  0  0  0  0  0  0  0  0  0
    4.3328   -2.7104    0.0000 C   0  0  0  0  0  0  0  0  0  0  0  0
    2.6286   -1.3160    0.0000 C   0  0  0  0  0  0  0  0  0  0  0  0
    2.4374   -0.4783    0.0000 C   0  0  0  0  0  0  0  0  0  0  0  0
    4.5102    1.9054    0.0000 C   0  0  0  0  0  0  0  0  0  0  0  0
    3.2227    1.2854    0.0000 C   0  0  0  0  0  0  0  0  0  0  0  0
    4.1523    2.6488    0.0000 C   0  0  0  0  0  0  0  0  0  0  0  0
    2.8648    2.0288    0.0000 C   0  0  0  0  0  0  0  0  0  0  0  0
    3.3296    2.7104    0.0000 C   0  0  0  0  0  0  0  0  0  0  0  0
  1 18  1  0  0  0  0
  2 19  1  0  0  0  0
  3  6  1  0  0  0  0
  3  7  1  0  0  0  0
  3 11  1  0  0  0  0
  4  9  1  0  0  0  0
  4 10  2  0  0  0  0
  5 11  2  0  0  0  0
  5 12  1  0  0  0  0
  6  8  2  0  0  0  0
  6 13  1  0  0  0  0
  7  9  1  0  0  0  0
  7 12  2  0  0  0  0
  8 10  1  0  0  0  0
  8 14  1  0  0  0  0
 10 15  1  0  0  0  0
 11 16  1  0  0  0  0
 13 17  2  0  0  0  0
 14 18  2  0  0  0  0
 15 19  1  0  0  0  0
 15 20  2  0  0  0  0
 17 18  1  0  0  0  0
 19 21  2  0  0  0  0
 20 22  1  0  0  0  0
 21 23  1  0  0  0  0
 22 23  2  0  0  0  0
M  END
>  <DRUGBANK_ID>
DB00683

>  <DRUG_GROUPS>
illicit; approved

>  <GENERIC_NAME>
Midazolam

>  <SYNONYMS>
Dea No. 2884; Midazolam Base; Midazolam Hcl; Midazolamum [INN-Latin]

>  <BRANDS>
Dormicum; Versed

>  <CHEMICAL_FORMULA>
C18H13ClFN3

>  <MOLECULAR_WEIGHT>
325.767

>  <EXACT_MASS>
325.078203343

>  <IUPAC_NAME>
12-chloro-9-(2-fluorophenyl)-3-methyl-2,4,8-triazatricyclo[8.4.0.0^{2,6}]tetradeca-1(10),3,5,8,11,13-hexaene

>  <INCHI_IDENTIFIER>
InChI=1S/C18H13ClFN3/c1-11-21-9-13-10-22-18(14-4-2-3-5-16(14)20)15-8-12(19)6-7-17(15)23(11)13/h2-9H,10H2,1H3

>  <INCHI_KEY>
InChIKey=DDLIGBOFAVUZHB-UHFFFAOYSA-N

>  <SMILES>
CC1=NC=C2CN=C(C3=CC=CC=C3F)C3=C(C=CC(Cl)=C3)N12

>  <JCHEM_ACCEPTOR_COUNT>
2

>  <JCHEM_DONOR_COUNT>
0

>  <JCHEM_BASIC_PKA>
6.57

>  <JCHEM_PHYSIOLOGICAL_CHARGE>
0

>  <ALOGPS_LOGP>
3.89

>  <JCHEM_LOGP>
3.33

>  <ALOGPS_LOGS>
-4.5

>  <JCHEM_POLARIZABILITY>
32.7

>  <JCHEM_POLAR_SURFACE_AREA>
30.18

>  <JCHEM_REFRACTIVITY>
99.43

>  <JCHEM_ROTATABLE_BOND_COUNT>
1

>  <ALOGPS_SOLUBILITY>
9.87e-03 g/l __

$$$$
DB00690
 OpenBabel03171413512D

 27 29  0  0  0  0  0  0  0  0999 V2000
    5.2302   -2.7288    0.0000 Cl  0  0  0  0  0  0  0  0  0  0  0  0
    8.0735    0.3999    0.0000 F   0  0  0  0  0  0  0  0  0  0  0  0
    5.0238    1.9897    0.0000 O   0  0  0  0  0  0  0  0  0  0  0  0
    4.8673    0.6014    0.0000 N   0  0  0  0  0  0  0  0  0  0  0  0
    3.0155    1.7569    0.0000 N   0  0  0  0  0  0  0  0  0  0  0  0
    6.7212    0.6014    0.0000 N   0  0  0  0  0  0  0  0  0  0  0  0
    4.0630    0.7849    0.0000 C   0  0  0  0  0  0  0  0  0  0  0  0
    3.8198    1.5733    0.0000 C   0  0  0  0  0  0  0  0  0  0  0  0
    5.0509   -0.2030    0.0000 C   0  0  0  0  0  0  0  0  0  0  0  0
    2.4543    1.1521    0.0000 C   0  0  0  0  0  0  0  0  0  0  0  0
    2.7723    2.5453    0.0000 C   0  0  0  0  0  0  0  0  0  0  0  0
    5.7942   -0.5609    0.0000 C   0  0  0  0  0  0  0  0  0  0  0  0
    5.3817    1.2464    0.0000 C   0  0  0  0  0  0  0  0  0  0  0  0
    6.5376   -0.2030    0.0000 C   0  0  0  0  0  0  0  0  0  0  0  0
    6.2068    1.2464    0.0000 C   0  0  0  0  0  0  0  0  0  0  0  0
    4.3336   -0.6761    0.0000 C   0  0  0  0  0  0  0  0  0  0  0  0
    5.8716   -1.4168    0.0000 C   0  0  0  0  0  0  0  0  0  0  0  0
    1.6500    1.3357    0.0000 C   0  0  0  0  0  0  0  0  0  0  0  0
    1.9680    2.7288    0.0000 C   0  0  0  0  0  0  0  0  0  0  0  0
    7.1826   -0.7174    0.0000 C   0  0  0  0  0  0  0  0  0  0  0  0
    4.3911   -1.5335    0.0000 C   0  0  0  0  0  0  0  0  0  0  0  0
    5.1654   -1.9064    0.0000 C   0  0  0  0  0  0  0  0  0  0  0  0
    7.9506   -0.4160    0.0000 C   0  0  0  0  0  0  0  0  0  0  0  0
    7.0597   -1.5332    0.0000 C   0  0  0  0  0  0  0  0  0  0  0  0
    8.5956   -0.9304    0.0000 C   0  0  0  0  0  0  0  0  0  0  0  0
    7.7047   -2.0475    0.0000 C   0  0  0  0  0  0  0  0  0  0  0  0
    8.4727   -1.7461    0.0000 C   0  0  0  0  0  0  0  0  0  0  0  0
  1 22  1  0  0  0  0
  2 23  1  0  0  0  0
  3 13  2  0  0  0  0
  4  7  1  0  0  0  0
  4  9  1  0  0  0  0
  4 13  1  0  0  0  0
  5  8  1  0  0  0  0
  5 10  1  0  0  0  0
  5 11  1  0  0  0  0
  6 14  2  0  0  0  0
  6 15  1  0  0  0  0
  7  8  1  0  0  0  0
  9 12  2  0  0  0  0
  9 16  1  0  0  0  0
 10 18  1  0  0  0  0
 11 19  1  0  0  0  0
 12 14  1  0  0  0  0
 12 17  1  0  0  0  0
 13 15  1  0  0  0  0
 14 20  1  0  0  0  0
 16 21  2  0  0  0  0
 17 22  2  0  0  0  0
 20 23  1  0  0  0  0
 20 24  2  0  0  0  0
 21 22  1  0  0  0  0
 23 25  2  0  0  0  0
 24 26  1  0  0  0  0
 25 27  1  0  0  0  0
 26 27  2  0  0  0  0
M  END
>  <DRUGBANK_ID>
DB00690

>  <DRUG_GROUPS>
illicit; approved

>  <GENERIC_NAME>
Flurazepam

>  <SYNONYMS>
Flurazepam HCL

>  <BRANDS>
Dalmadorm; Dalmane; Felison; Felmane; Flunox; Insumin; Noctosom; Paxane; Somnol; Stauroderm; Valdorm

>  <CHEMICAL_FORMULA>
C21H23ClFN3O

>  <MOLECULAR_WEIGHT>
387.878

>  <EXACT_MASS>
387.151368285

>  <IUPAC_NAME>
7-chloro-1-[2-(diethylamino)ethyl]-5-(2-fluorophenyl)-2,3-dihydro-1H-1,4-benzodiazepin-2-one

>  <INCHI_IDENTIFIER>
InChI=1S/C21H23ClFN3O/c1-3-25(4-2)11-12-26-19-10-9-15(22)13-17(19)21(24-14-20(26)27)16-7-5-6-8-18(16)23/h5-10,13H,3-4,11-12,14H2,1-2H3

>  <INCHI_KEY>
InChIKey=SAADBVWGJQAEFS-UHFFFAOYSA-N

>  <SMILES>
CCN(CC)CCN1C2=C(C=C(Cl)C=C2)C(=NCC1=O)C1=CC=CC=C1F

>  <JCHEM_ACCEPTOR_COUNT>
3

>  <JCHEM_DONOR_COUNT>
0

>  <JCHEM_BASIC_PKA>
8.71

>  <JCHEM_PHYSIOLOGICAL_CHARGE>
1

>  <ALOGPS_LOGP>
3.81

>  <JCHEM_LOGP>
3.95

>  <ALOGPS_LOGS>
-4.6

>  <JCHEM_POLARIZABILITY>
41.22

>  <JCHEM_POLAR_SURFACE_AREA>
35.91

>  <JCHEM_REFRACTIVITY>
107.54

>  <JCHEM_ROTATABLE_BOND_COUNT>
6

>  <ALOGPS_SOLUBILITY>
1.00e-02 g/l __

$$$$
DB00801
 OpenBabel03171413512D

 24 26  0  0  0  0  0  0  0  0999 V2000
    4.0267   -2.3989    0.0000 Cl  0  0  0  0  0  0  0  0  0  0  0  0
    2.8159    2.2807    0.0000 F   0  0  0  0  0  0  0  0  0  0  0  0
    1.6936    1.0712    0.0000 F   0  0  0  0  0  0  0  0  0  0  0  0
    1.6500    2.2371    0.0000 F   0  0  0  0  0  0  0  0  0  0  0  0
    4.2399    2.3989    0.0000 O   0  0  0  0  0  0  0  0  0  0  0  0
    3.6638    0.9312    0.0000 N   0  0  0  0  0  0  0  0  0  0  0  0
    5.5176    0.9312    0.0000 N   0  0  0  0  0  0  0  0  0  0  0  0
    3.8475    0.1269    0.0000 C   0  0  0  0  0  0  0  0  0  0  0  0
    4.5907   -0.2311    0.0000 C   0  0  0  0  0  0  0  0  0  0  0  0
    2.8595    1.1148    0.0000 C   0  0  0  0  0  0  0  0  0  0  0  0
    5.3340    0.1269    0.0000 C   0  0  0  0  0  0  0  0  0  0  0  0
    4.1782    1.5762    0.0000 C   0  0  0  0  0  0  0  0  0  0  0  0
    5.0032    1.5762    0.0000 C   0  0  0  0  0  0  0  0  0  0  0  0
    3.1301   -0.3462    0.0000 C   0  0  0  0  0  0  0  0  0  0  0  0
    4.6682   -1.0869    0.0000 C   0  0  0  0  0  0  0  0  0  0  0  0
    5.9790   -0.3875    0.0000 C   0  0  0  0  0  0  0  0  0  0  0  0
    2.2548    1.6759    0.0000 C   0  0  0  0  0  0  0  0  0  0  0  0
    3.1876   -1.2036    0.0000 C   0  0  0  0  0  0  0  0  0  0  0  0
    3.9619   -1.5765    0.0000 C   0  0  0  0  0  0  0  0  0  0  0  0
    6.7470   -0.0860    0.0000 C   0  0  0  0  0  0  0  0  0  0  0  0
    5.8561   -1.2033    0.0000 C   0  0  0  0  0  0  0  0  0  0  0  0
    7.3920   -0.6004    0.0000 C   0  0  0  0  0  0  0  0  0  0  0  0
    6.5011   -1.7176    0.0000 C   0  0  0  0  0  0  0  0  0  0  0  0
    7.2691   -1.4163    0.0000 C   0  0  0  0  0  0  0  0  0  0  0  0
  1 19  1  0  0  0  0
  2 17  1  0  0  0  0
  3 17  1  0  0  0  0
  4 17  1  0  0  0  0
  5 12  2  0  0  0  0
  6  8  1  0  0  0  0
  6 10  1  0  0  0  0
  6 12  1  0  0  0  0
  7 11  2  0  0  0  0
  7 13  1  0  0  0  0
  8  9  2  0  0  0  0
  8 14  1  0  0  0  0
  9 11  1  0  0  0  0
  9 15  1  0  0  0  0
 10 17  1  0  0  0  0
 11 16  1  0  0  0  0
 12 13  1  0  0  0  0
 14 18  2  0  0  0  0
 15 19  2  0  0  0  0
 16 20  2  0  0  0  0
 16 21  1  0  0  0  0
 18 19  1  0  0  0  0
 20 22  1  0  0  0  0
 21 23  2  0  0  0  0
 22 24  2  0  0  0  0
 23 24  1  0  0  0  0
M  END
>  <DRUGBANK_ID>
DB00801

>  <DRUG_GROUPS>
illicit; approved

>  <GENERIC_NAME>
Halazepam

>  <SYNONYMS>
Halazepamum [INN-Latin]

>  <BRANDS>
Pacinone; Paxipam

>  <CHEMICAL_FORMULA>
C17H12ClF3N2O

>  <MOLECULAR_WEIGHT>
352.738

>  <EXACT_MASS>
352.059025338

>  <IUPAC_NAME>
7-chloro-5-phenyl-1-(2,2,2-trifluoroethyl)-2,3-dihydro-1H-1,4-benzodiazepin-2-one

>  <INCHI_IDENTIFIER>
InChI=1S/C17H12ClF3N2O/c18-12-6-7-14-13(8-12)16(11-4-2-1-3-5-11)22-9-15(24)23(14)10-17(19,20)21/h1-8H,9-10H2

>  <INCHI_KEY>
InChIKey=WYCLKVQLVUQKNZ-UHFFFAOYSA-N

>  <SMILES>
FC(F)(F)CN1C2=C(C=C(Cl)C=C2)C(=NCC1=O)C1=CC=CC=C1

>  <JCHEM_ACCEPTOR_COUNT>
2

>  <JCHEM_DONOR_COUNT>
0

>  <JCHEM_ACIDIC_PKA>
18.88

>  <JCHEM_BASIC_PKA>
2.33

>  <JCHEM_PHYSIOLOGICAL_CHARGE>
0

>  <ALOGPS_LOGP>
3.52

>  <JCHEM_LOGP>
4.03

>  <ALOGPS_LOGS>
-5.3

>  <JCHEM_POLARIZABILITY>
31.82

>  <JCHEM_POLAR_SURFACE_AREA>
32.67

>  <JCHEM_REFRACTIVITY>
85.26

>  <JCHEM_ROTATABLE_BOND_COUNT>
3

>  <ALOGPS_SOLUBILITY>
1.70e-03 g/l __

$$$$
DB00802
 OpenBabel03171413512D

 30 32  0  0  0  0  0  0  0  0999 V2000
    2.5791    2.4872    0.0000 O   0  0  0  0  0  0  0  0  0  0  0  0
    2.9916    3.2016    0.0000 O   0  0  0  0  0  0  0  0  0  0  0  0
    1.6500   -2.1699    0.0000 O   0  0  0  0  0  0  0  0  0  0  0  0
    3.8166    0.1227    0.0000 N   0  0  0  0  0  0  0  0  0  0  0  0
    4.2291    2.4872    0.0000 N   0  0  0  0  0  0  0  0  0  0  0  0
    3.1022   -1.9399    0.0000 N   0  0  0  0  0  0  0  0  0  0  0  0
    3.7696   -2.4248    0.0000 N   0  0  0  0  0  0  0  0  0  0  0  0
    2.6896   -3.2095    0.0000 N   0  0  0  0  0  0  0  0  0  0  0  0
    3.5147   -3.2095    0.0000 N   0  0  0  0  0  0  0  0  0  0  0  0
    3.8166    1.7727    0.0000 C   0  0  0  0  0  0  0  0  0  0  0  0
    4.5311    1.3602    0.0000 C   0  0  0  0  0  0  0  0  0  0  0  0
    3.1022    1.3602    0.0000 C   0  0  0  0  0  0  0  0  0  0  0  0
    4.5311    0.5352    0.0000 C   0  0  0  0  0  0  0  0  0  0  0  0
    3.1022    0.5352    0.0000 C   0  0  0  0  0  0  0  0  0  0  0  0
    3.4041    2.4872    0.0000 C   0  0  0  0  0  0  0  0  0  0  0  0
    3.8166   -0.7023    0.0000 C   0  0  0  0  0  0  0  0  0  0  0  0
    5.0541    2.4872    0.0000 C   0  0  0  0  0  0  0  0  0  0  0  0
    3.8166    3.2016    0.0000 C   0  0  0  0  0  0  0  0  0  0  0  0
    3.1022   -1.1148    0.0000 C   0  0  0  0  0  0  0  0  0  0  0  0
    4.2291    3.9161    0.0000 C   0  0  0  0  0  0  0  0  0  0  0  0
    5.4667    3.2016    0.0000 C   0  0  0  0  0  0  0  0  0  0  0  0
    5.4667    1.7727    0.0000 C   0  0  0  0  0  0  0  0  0  0  0  0
    2.1666    3.2016    0.0000 C   0  0  0  0  0  0  0  0  0  0  0  0
    3.8166    4.6307    0.0000 C   0  0  0  0  0  0  0  0  0  0  0  0
    6.2917    3.2016    0.0000 C   0  0  0  0  0  0  0  0  0  0  0  0
    6.2917    1.7727    0.0000 C   0  0  0  0  0  0  0  0  0  0  0  0
    2.4347   -2.4248    0.0000 C   0  0  0  0  0  0  0  0  0  0  0  0
    6.7042    2.4872    0.0000 C   0  0  0  0  0  0  0  0  0  0  0  0
    2.2047   -3.8769    0.0000 C   0  0  0  0  0  0  0  0  0  0  0  0
    2.5402   -4.6307    0.0000 C   0  0  0  0  0  0  0  0  0  0  0  0
  1 15  1  0  0  0  0
  1 23  1  0  0  0  0
  2 18  2  0  0  0  0
  3 27  2  0  0  0  0
  4 13  1  0  0  0  0
  4 14  1  0  0  0  0
  4 16  1  0  0  0  0
  5 10  1  0  0  0  0
  5 17  1  0  0  0  0
  5 18  1  0  0  0  0
  6  7  1  0  0  0  0
  6 19  1  0  0  0  0
  6 27  1  0  0  0  0
  7  9  2  0  0  0  0
  8  9  1  0  0  0  0
  8 27  1  0  0  0  0
  8 29  1  0  0  0  0
 10 11  1  0  0  0  0
 10 12  1  0  0  0  0
 10 15  1  0  0  0  0
 11 13  1  0  0  0  0
 12 14  1  0  0  0  0
 16 19  1  0  0  0  0
 17 21  2  0  0  0  0
 17 22  1  0  0  0  0
 18 20  1  0  0  0  0
 20 24  1  0  0  0  0
 21 25  1  0  0  0  0
 22 26  2  0  0  0  0
 25 28  2  0  0  0  0
 26 28  1  0  0  0  0
 29 30  1  0  0  0  0
M  END
>  <DRUGBANK_ID>
DB00802

>  <DRUG_GROUPS>
illicit; approved

>  <GENERIC_NAME>
Alfentanil

>  <SYNONYMS>
Alfentanilum [INN-Latin]; Alfentanyl

>  <BRANDS>
Alfenta

>  <CHEMICAL_FORMULA>
C21H32N6O3

>  <MOLECULAR_WEIGHT>
416.5172

>  <EXACT_MASS>
416.25358892

>  <IUPAC_NAME>
N-{1-[2-(4-ethyl-5-oxo-4,5-dihydro-1H-1,2,3,4-tetrazol-1-yl)ethyl]-4-(methoxymethyl)piperidin-4-yl}-N-phenylpropanamide

>  <INCHI_IDENTIFIER>
InChI=1S/C21H32N6O3/c1-4-19(28)27(18-9-7-6-8-10-18)21(17-30-3)11-13-24(14-12-21)15-16-26-20(29)25(5-2)22-23-26/h6-10H,4-5,11-17H2,1-3H3

>  <INCHI_KEY>
InChIKey=IDBPHNDTYPBSNI-UHFFFAOYSA-N

>  <SMILES>
CCN1N=NN(CCN2CCC(COC)(CC2)N(C(=O)CC)C2=CC=CC=C2)C1=O

>  <JCHEM_ACCEPTOR_COUNT>
6

>  <JCHEM_DONOR_COUNT>
0

>  <JCHEM_BASIC_PKA>
7.5

>  <JCHEM_PHYSIOLOGICAL_CHARGE>
1

>  <ALOGPS_LOGP>
2.2

>  <JCHEM_LOGP>
2.81

>  <ALOGPS_LOGS>
-3.2

>  <JCHEM_POLARIZABILITY>
45.57

>  <JCHEM_POLAR_SURFACE_AREA>
81.05

>  <JCHEM_REFRACTIVITY>
118.59

>  <JCHEM_ROTATABLE_BOND_COUNT>
9

>  <ALOGPS_SOLUBILITY>
2.52e-01 g/l __

$$$$
DB00813
 OpenBabel03171413512D

 25 27  0  0  0  0  0  0  0  0999 V2000
    1.6500    2.2688    0.0000 O   0  0  0  0  0  0  0  0  0  0  0  0
    3.0791   -0.2063    0.0000 N   0  0  0  0  0  0  0  0  0  0  0  0
    3.0791    2.2688    0.0000 N   0  0  0  0  0  0  0  0  0  0  0  0
    3.0791    1.4438    0.0000 C   0  0  0  0  0  0  0  0  0  0  0  0
    3.7935    1.0313    0.0000 C   0  0  0  0  0  0  0  0  0  0  0  0
    2.3645    1.0313    0.0000 C   0  0  0  0  0  0  0  0  0  0  0  0
    3.7935    0.2063    0.0000 C   0  0  0  0  0  0  0  0  0  0  0  0
    2.3645    0.2063    0.0000 C   0  0  0  0  0  0  0  0  0  0  0  0
    3.0791   -1.0313    0.0000 C   0  0  0  0  0  0  0  0  0  0  0  0
    2.3645   -1.4438    0.0000 C   0  0  0  0  0  0  0  0  0  0  0  0
    3.7935    2.6813    0.0000 C   0  0  0  0  0  0  0  0  0  0  0  0
    2.3645    2.6813    0.0000 C   0  0  0  0  0  0  0  0  0  0  0  0
    2.3645   -2.2688    0.0000 C   0  0  0  0  0  0  0  0  0  0  0  0
    2.3645    3.5063    0.0000 C   0  0  0  0  0  0  0  0  0  0  0  0
    3.7935    3.5063    0.0000 C   0  0  0  0  0  0  0  0  0  0  0  0
    4.5080    2.2688    0.0000 C   0  0  0  0  0  0  0  0  0  0  0  0
    1.6500    3.9188    0.0000 C   0  0  0  0  0  0  0  0  0  0  0  0
    3.0791   -2.6813    0.0000 C   0  0  0  0  0  0  0  0  0  0  0  0
    1.6500   -2.6813    0.0000 C   0  0  0  0  0  0  0  0  0  0  0  0
    4.5080    3.9188    0.0000 C   0  0  0  0  0  0  0  0  0  0  0  0
    5.2224    2.6813    0.0000 C   0  0  0  0  0  0  0  0  0  0  0  0
    5.2224    3.5063    0.0000 C   0  0  0  0  0  0  0  0  0  0  0  0
    3.0791   -3.5063    0.0000 C   0  0  0  0  0  0  0  0  0  0  0  0
    1.6500   -3.5063    0.0000 C   0  0  0  0  0  0  0  0  0  0  0  0
    2.3645   -3.9188    0.0000 C   0  0  0  0  0  0  0  0  0  0  0  0
  1 12  2  0  0  0  0
  2  7  1  0  0  0  0
  2  8  1  0  0  0  0
  2  9  1  0  0  0  0
  3  4  1  0  0  0  0
  3 11  1  0  0  0  0
  3 12  1  0  0  0  0
  4  5  1  0  0  0  0
  4  6  1  0  0  0  0
  5  7  1  0  0  0  0
  6  8  1  0  0  0  0
  9 10  1  0  0  0  0
 10 13  1  0  0  0  0
 11 15  2  0  0  0  0
 11 16  1  0  0  0  0
 12 14  1  0  0  0  0
 13 18  2  0  0  0  0
 13 19  1  0  0  0  0
 14 17  1  0  0  0  0
 15 20  1  0  0  0  0
 16 21  2  0  0  0  0
 18 23  1  0  0  0  0
 19 24  2  0  0  0  0
 20 22  2  0  0  0  0
 21 22  1  0  0  0  0
 23 25  2  0  0  0  0
 24 25  1  0  0  0  0
M  END
>  <DRUGBANK_ID>
DB00813

>  <DRUG_GROUPS>
illicit; approved; investigational

>  <GENERIC_NAME>
Fentanyl

>  <SYNONYMS>
Fentanila [INN-Spanish]; Fentanyl citrate; Fentanylum [INN-Latin]

>  <BRANDS>
Actiq; Duragesic; Duragesic-100; Durogesic; Fentanest; Fentanil; Nasalfent; Pentanyl; Phentanyl; Rapinyl; Sentonil; Subsys

>  <CHEMICAL_FORMULA>
C22H28N2O

>  <MOLECULAR_WEIGHT>
336.4705

>  <EXACT_MASS>
336.220163528

>  <IUPAC_NAME>
N-phenyl-N-[1-(2-phenylethyl)piperidin-4-yl]propanamide

>  <INCHI_IDENTIFIER>
InChI=1S/C22H28N2O/c1-2-22(25)24(20-11-7-4-8-12-20)21-14-17-23(18-15-21)16-13-19-9-5-3-6-10-19/h3-12,21H,2,13-18H2,1H3

>  <INCHI_KEY>
InChIKey=PJMPHNIQZUBGLI-UHFFFAOYSA-N

>  <SMILES>
CCC(=O)N(C1CCN(CCC2=CC=CC=C2)CC1)C1=CC=CC=C1

>  <JCHEM_ACCEPTOR_COUNT>
2

>  <JCHEM_DONOR_COUNT>
0

>  <JCHEM_BASIC_PKA>
8.77

>  <JCHEM_PHYSIOLOGICAL_CHARGE>
1

>  <ALOGPS_LOGP>
4.12

>  <JCHEM_LOGP>
3.82

>  <ALOGPS_LOGS>
-4.2

>  <JCHEM_POLARIZABILITY>
40.03

>  <JCHEM_POLAR_SURFACE_AREA>
23.55

>  <JCHEM_REFRACTIVITY>
103.48

>  <JCHEM_ROTATABLE_BOND_COUNT>
6

>  <ALOGPS_SOLUBILITY>
2.40e-02 g/l __

$$$$
DB00829
 OpenBabel03171413512D

 20 22  0  0  0  0  0  0  0  0999 V2000
    2.8172   -2.3592    0.0000 Cl  0  0  0  0  0  0  0  0  0  0  0  0
    2.6107    2.3592    0.0000 O   0  0  0  0  0  0  0  0  0  0  0  0
    2.4542    0.9709    0.0000 N   0  0  0  0  0  0  0  0  0  0  0  0
    4.3080    0.9709    0.0000 N   0  0  0  0  0  0  0  0  0  0  0  0
    3.3811   -0.1914    0.0000 C   0  0  0  0  0  0  0  0  0  0  0  0
    2.6378    0.1666    0.0000 C   0  0  0  0  0  0  0  0  0  0  0  0
    4.1244    0.1666    0.0000 C   0  0  0  0  0  0  0  0  0  0  0  0
    3.7936    1.6159    0.0000 C   0  0  0  0  0  0  0  0  0  0  0  0
    2.9686    1.6159    0.0000 C   0  0  0  0  0  0  0  0  0  0  0  0
    4.7694   -0.3478    0.0000 C   0  0  0  0  0  0  0  0  0  0  0  0
    3.4586   -1.0472    0.0000 C   0  0  0  0  0  0  0  0  0  0  0  0
    1.9205   -0.3065    0.0000 C   0  0  0  0  0  0  0  0  0  0  0  0
    1.6500    1.1545    0.0000 C   0  0  0  0  0  0  0  0  0  0  0  0
    2.7523   -1.5367    0.0000 C   0  0  0  0  0  0  0  0  0  0  0  0
    1.9781   -1.1639    0.0000 C   0  0  0  0  0  0  0  0  0  0  0  0
    5.5374   -0.0464    0.0000 C   0  0  0  0  0  0  0  0  0  0  0  0
    4.6465   -1.1636    0.0000 C   0  0  0  0  0  0  0  0  0  0  0  0
    6.1824   -0.5607    0.0000 C   0  0  0  0  0  0  0  0  0  0  0  0
    5.2915   -1.6779    0.0000 C   0  0  0  0  0  0  0  0  0  0  0  0
    6.0594   -1.3765    0.0000 C   0  0  0  0  0  0  0  0  0  0  0  0
  1 14  1  0  0  0  0
  2  9  2  0  0  0  0
  3  6  1  0  0  0  0
  3  9  1  0  0  0  0
  3 13  1  0  0  0  0
  4  7  2  0  0  0  0
  4  8  1  0  0  0  0
  5  6  2  0  0  0  0
  5  7  1  0  0  0  0
  5 11  1  0  0  0  0
  6 12  1  0  0  0  0
  7 10  1  0  0  0  0
  8  9  1  0  0  0  0
 10 16  2  0  0  0  0
 10 17  1  0  0  0  0
 11 14  2  0  0  0  0
 12 15  2  0  0  0  0
 14 15  1  0  0  0  0
 16 18  1  0  0  0  0
 17 19  2  0  0  0  0
 18 20  2  0  0  0  0
 19 20  1  0  0  0  0
M  END
>  <DRUGBANK_ID>
DB00829

>  <DRUG_GROUPS>
illicit; approved

>  <GENERIC_NAME>
Diazepam

>  <SYNONYMS>
Methyldiazepinone

>  <BRANDS>
Alboral; Aliseum; Alupram; Amiprol; An-Ding; Ansiolin; Ansiolisina; Apaurin; Apo-Diazepam; Apozepam; Armonil; Assival; Atensine; Atilen; Bensedin; Bialzepam; Calmocitene; Calmpose; Cercine; Ceregulart; Condition; Diacepan; Dialag; Dialar; Diapam; Diastat; Diazemuls; Diazemulus; Diazepam Intensol; Diazepan; Diazetard; Dienpax; Dipam; Dipezona; Dizac; Domalium; Duksen; Duxen; E-Pam; Eridan; Eurosan; Evacalm; Faustan; Faustan,; Freudal; Frustan; Gewacalm; Gihitan; Kabivitrum; Kiatrium; LA III; La-Iii; Lamra; Lembrol; Levium; Liberetas; Mandrozep; Morosan; Neurolytril; Noan; Novazam; Novo-Dipam; Paceum; Paranten; Paxate; Paxel; Plidan; Pms-Diazepam; Pro-Pam; Q-Pam; Q-Pam Relanium; Quetinil; Quiatril; Quievita; Relaminal; Relanium; Renborin; Ruhsitus; Saromet; Sedapam; Sedipam; Seduksen; Seduxen; Serenack; Serenamin; Serenzin; Servizepam; Setonil; Sibazon; Sibazone; Solis; Sonacon; Stesolid; Stesolin; Tensopam; Tranimul; Tranqdyn; Tranquase; Tranquirit; Tranquo-Puren; Tranquo-Tablinen; Umbrium; Unisedil; Usempax Ap; Valaxona; Valeo; Valiquid; Valitran; Valium; Valrelease; Vatran; Velium; Vival; Vivol; Zetran; Zipan

>  <CHEMICAL_FORMULA>
C16H13ClN2O

>  <MOLECULAR_WEIGHT>
284.74

>  <EXACT_MASS>
284.071640755

>  <IUPAC_NAME>
7-chloro-1-methyl-5-phenyl-2,3-dihydro-1H-1,4-benzodiazepin-2-one

>  <INCHI_IDENTIFIER>
InChI=1S/C16H13ClN2O/c1-19-14-8-7-12(17)9-13(14)16(18-10-15(19)20)11-5-3-2-4-6-11/h2-9H,10H2,1H3

>  <INCHI_KEY>
InChIKey=AAOVKJBEBIDNHE-UHFFFAOYSA-N

>  <SMILES>
CN1C2=C(C=C(Cl)C=C2)C(=NCC1=O)C1=CC=CC=C1

>  <JCHEM_ACCEPTOR_COUNT>
2

>  <JCHEM_DONOR_COUNT>
0

>  <JCHEM_BASIC_PKA>
2.92

>  <JCHEM_PHYSIOLOGICAL_CHARGE>
0

>  <ALOGPS_LOGP>
2.63

>  <JCHEM_LOGP>
3.08

>  <ALOGPS_LOGS>
-4.4

>  <JCHEM_POLARIZABILITY>
29.39

>  <JCHEM_POLAR_SURFACE_AREA>
32.67

>  <JCHEM_REFRACTIVITY>
79.81

>  <JCHEM_ROTATABLE_BOND_COUNT>
1

>  <ALOGPS_SOLUBILITY>
1.22e-02 g/l __

$$$$
DB00830
 OpenBabel03171413512D

 13 14  0  0  1  0  0  0  0  0999 V2000
    4.5080    0.4620    0.0000 O   0  0  0  0  0  0  0  0  0  0  0  0
    4.5080   -1.1880    0.0000 N   0  0  0  0  0  0  0  0  0  0  0  0
    3.7935   -0.7755    0.0000 C   0  0  3  0  0  0  0  0  0  0  0  0
    3.7935    0.0495    0.0000 C   0  0  3  0  0  0  0  0  0  0  0  0
    5.2224   -0.7755    0.0000 C   0  0  0  0  0  0  0  0  0  0  0  0
    5.2224    0.0495    0.0000 C   0  0  0  0  0  0  0  0  0  0  0  0
    3.0791    0.4620    0.0000 C   0  0  0  0  0  0  0  0  0  0  0  0
    3.0791   -1.1880    0.0000 C   0  0  0  0  0  0  0  0  0  0  0  0
    2.3645    0.0495    0.0000 C   0  0  0  0  0  0  0  0  0  0  0  0
    3.0791    1.2870    0.0000 C   0  0  0  0  0  0  0  0  0  0  0  0
    1.6500    0.4620    0.0000 C   0  0  0  0  0  0  0  0  0  0  0  0
    2.3645    1.6995    0.0000 C   0  0  0  0  0  0  0  0  0  0  0  0
    1.6500    1.2870    0.0000 C   0  0  0  0  0  0  0  0  0  0  0  0
  1  4  1  0  0  0  0
  1  6  1  0  0  0  0
  2  3  1  0  0  0  0
  2  5  1  0  0  0  0
  3  4  1  0  0  0  0
  3  8  1  0  0  0  0
  4  7  1  0  0  0  0
  5  6  1  0  0  0  0
  7  9  2  0  0  0  0
  7 10  1  0  0  0  0
  9 11  1  0  0  0  0
 10 12  2  0  0  0  0
 11 13  2  0  0  0  0
 12 13  1  0  0  0  0
M  END
>  <DRUGBANK_ID>
DB00830

>  <DRUG_GROUPS>
illicit; approved

>  <GENERIC_NAME>
Phenmetrazine

>  <SYNONYMS>
2-Phenyl-3-Methylmorpholine; 3-Methyl-2-phenylmorpholine; Defenmetrazin; Dexphenmetrazine; Fenmetrazin; Fenmetrazina [INN-Spanish]; Oxazimedrine; Phenmetraline hydrochloride; Phenmetrazinum [INN-Latin]; USAF Ge-1

>  <BRANDS>
Bromadryl; Cafilon; Marsin; Mefolin; Neo-zine; Phenmetrazin; Phenmetrazine hydrochloride; Preludin; Preludin hydrochloride; Probese-P; Probese-P hydrochloride; Psychamine A 66; Psychamine A 66 hydrochloride

>  <CHEMICAL_FORMULA>
C11H15NO

>  <MOLECULAR_WEIGHT>
177.2429

>  <EXACT_MASS>
177.115364107

>  <IUPAC_NAME>
3-methyl-2-phenylmorpholine

>  <INCHI_IDENTIFIER>
InChI=1S/C11H15NO/c1-9-11(13-8-7-12-9)10-5-3-2-4-6-10/h2-6,9,11-12H,7-8H2,1H3

>  <INCHI_KEY>
InChIKey=OOBHFESNSZDWIU-UHFFFAOYSA-N

>  <SMILES>
CC1NCCOC1C1=CC=CC=C1

>  <JCHEM_ACCEPTOR_COUNT>
2

>  <JCHEM_DONOR_COUNT>
1

>  <JCHEM_BASIC_PKA>
8.22

>  <JCHEM_PHYSIOLOGICAL_CHARGE>
1

>  <ALOGPS_LOGP>
1.45

>  <JCHEM_LOGP>
1.79

>  <ALOGPS_LOGS>
-1.9

>  <JCHEM_POLARIZABILITY>
20.1

>  <JCHEM_POLAR_SURFACE_AREA>
21.26

>  <JCHEM_REFRACTIVITY>
52.47

>  <JCHEM_ROTATABLE_BOND_COUNT>
1

>  <ALOGPS_SOLUBILITY>
2.44e+00 g/l __

$$$$
DB00858
 OpenBabel03171413512D

 26 29  0  0  1  0  0  0  0  0999 V2000
    1.8036   -0.1138    0.0000 C   0  0  0  0  0  0  0  0  0  0  0  0
    0.3045   -1.0964    0.0000 C   0  0  0  0  0  0  0  0  0  0  0  0
    1.8036    1.2211    0.0000 C   0  0  1  0  0  0  0  0  0  0  0  0
    0.3045    1.3786    0.0000 C   0  0  0  0  0  0  0  0  0  0  0  0
    2.2885    0.5536    0.0000 C   0  0  0  0  0  0  0  0  0  0  0  0
   -1.1245   -0.2714    0.0000 C   0  0  2  0  0  0  0  0  0  0  0  0
   -0.4100    0.9661    0.0000 C   0  0  0  0  0  0  0  0  0  0  0  0
   -0.4100   -1.5089    0.0000 C   0  0  0  0  0  0  0  0  0  0  0  0
   -1.1245   -1.0964    0.0000 C   0  0  1  0  0  0  0  0  0  0  0  0
   -1.8390    0.1411    0.0000 C   0  0  0  0  0  0  0  0  0  0  0  0
   -1.8390   -1.5089    0.0000 C   0  0  0  0  0  0  0  0  0  0  0  0
   -2.5534   -0.2714    0.0000 C   0  0  2  0  0  0  0  0  0  0  0  0
    0.3045   -0.2714    0.0000 C   0  0  2  0  0  0  0  0  0  0  0  0
    0.3045    0.5536    0.0000 H   0  0  0  0  0  0  0  0  0  0  0  0
   -0.4100    0.1411    0.0000 C   0  0  1  0  0  0  0  0  0  0  0  0
   -0.4100   -0.6839    0.0000 H   0  0  0  0  0  0  0  0  0  0  0  0
    1.0189    0.9661    0.0000 C   0  0  2  0  0  0  0  0  0  0  0  0
    1.0189    1.7911    0.0000 C   0  0  0  0  0  0  0  0  0  0  0  0
    1.0189    0.1411    0.0000 C   0  0  1  0  0  0  0  0  0  0  0  0
    1.0189   -0.6839    0.0000 H   0  0  0  0  0  0  0  0  0  0  0  0
   -3.2679   -1.5089    0.0000 O   0  0  0  0  0  0  0  0  0  0  0  0
   -2.5534   -1.0964    0.0000 C   0  0  0  0  0  0  0  0  0  0  0  0
   -1.1245    0.5536    0.0000 C   0  0  0  0  0  0  0  0  0  0  0  0
    1.8036    2.0461    0.0000 O   0  0  0  0  0  0  0  0  0  0  0  0
   -3.2679    0.1411    0.0000 C   0  0  0  0  0  0  0  0  0  0  0  0
   -1.1245   -1.9214    0.0000 H   0  0  0  0  0  0  0  0  0  0  0  0
  2  8  1  0  0  0  0
  3  5  1  0  0  0  0
  3 24  1  1  0  0  0
  4  7  1  0  0  0  0
  5  1  1  0  0  0  0
  6  9  1  0  0  0  0
  6 10  1  0  0  0  0
  6 23  1  1  0  0  0
  8  9  1  0  0  0  0
  9 11  1  0  0  0  0
  9 26  1  6  0  0  0
 10 12  1  0  0  0  0
 11 22  1  0  0  0  0
 12 22  1  0  0  0  0
 12 25  1  6  0  0  0
 13 15  1  0  0  0  0
 13  2  1  0  0  0  0
 13 14  1  1  0  0  0
 15  6  1  0  0  0  0
 15  7  1  0  0  0  0
 15 16  1  6  0  0  0
 17  3  1  0  0  0  0
 17  4  1  0  0  0  0
 17 18  1  1  0  0  0
 19 13  1  0  0  0  0
 19 17  1  0  0  0  0
 19  1  1  0  0  0  0
 19 20  1  6  0  0  0
 22 21  2  0  0  0  0
M  END
>  <DRUGBANK_ID>
DB00858

>  <DRUG_GROUPS>
illicit; approved

>  <GENERIC_NAME>
Drostanolone

>  <SYNONYMS>
Drolban; Dromostanolone

>  <BRANDS>
Emdisterone; Masterid; Masteril; Masteron; Masterone; Metholone; Permastril

>  <CHEMICAL_FORMULA>
C20H32O2

>  <MOLECULAR_WEIGHT>
304.4669

>  <EXACT_MASS>
304.240230268

>  <IUPAC_NAME>
(1S,2S,4R,7S,10R,11S,14S,15S)-14-hydroxy-2,4,15-trimethyltetracyclo[8.7.0.0^{2,7}.0^{11,15}]heptadecan-5-one

>  <INCHI_IDENTIFIER>
InChI=1S/C20H32O2/c1-12-11-20(3)13(10-17(12)21)4-5-14-15-6-7-18(22)19(15,2)9-8-16(14)20/h12-16,18,22H,4-11H2,1-3H3/t12-,13+,14+,15+,16+,18+,19+,20+/m1/s1

>  <INCHI_KEY>
InChIKey=IKXILDNPCZPPRV-RFMGOVQKSA-N

>  <SMILES>
[H][C@@]12CC[C@H](O)[C@@]1(C)CC[C@@]1([H])[C@@]2([H])CC[C@@]2([H])CC(=O)[C@H](C)C[C@]12C

>  <JCHEM_ACCEPTOR_COUNT>
2

>  <JCHEM_DONOR_COUNT>
1

>  <JCHEM_ACIDIC_PKA>
19.38

>  <JCHEM_BASIC_PKA>
-0.88

>  <JCHEM_PHYSIOLOGICAL_CHARGE>
0

>  <ALOGPS_LOGP>
3.81

>  <JCHEM_LOGP>
3.95

>  <ALOGPS_LOGS>
-4.7

>  <JCHEM_POLARIZABILITY>
36.79

>  <JCHEM_POLAR_SURFACE_AREA>
37.3

>  <JCHEM_REFRACTIVITY>
88.18

>  <JCHEM_ROTATABLE_BOND_COUNT>
0

>  <ALOGPS_SOLUBILITY>
6.05e-03 g/l __

$$$$
DB00865
 OpenBabel03171413512D

 18 19  0  0  0  0  0  0  0  0999 V2000
    3.8484   -3.8637    0.0000 C   0  0  0  0  0  0  0  0  0  0  0  0
    4.5652   -3.4465    0.0000 C   0  0  0  0  0  0  0  0  0  0  0  0
    3.8484   -4.6910    0.0000 C   0  0  0  0  0  0  0  0  0  0  0  0
    3.1311   -3.4465    0.0000 C   0  0  0  0  0  0  0  0  0  0  0  0
    5.2790   -3.8603    0.0000 C   0  0  1  0  0  0  0  0  0  0  0  0
    3.1311   -5.1047    0.0000 C   0  0  0  0  0  0  0  0  0  0  0  0
    2.4109   -3.8637    0.0000 C   0  0  0  0  0  0  0  0  0  0  0  0
    5.9959   -3.4465    0.0000 N   0  0  0  0  0  0  0  0  0  0  0  0
    5.2824   -4.6841    0.0000 C   0  0  0  0  0  0  0  0  0  0  0  0
    2.4109   -4.6910    0.0000 C   0  0  0  0  0  0  0  0  0  0  0  0
    6.7095   -3.8568    0.0000 C   0  0  0  0  0  0  0  0  0  0  0  0
    5.9924   -2.6193    0.0000 C   0  0  0  0  0  0  0  0  0  0  0  0
    7.4232   -3.4432    0.0000 C   0  0  0  0  0  0  0  0  0  0  0  0
    8.1367   -3.8568    0.0000 C   0  0  0  0  0  0  0  0  0  0  0  0
    7.4196   -2.6193    0.0000 C   0  0  0  0  0  0  0  0  0  0  0  0
    8.8501   -3.4432    0.0000 C   0  0  0  0  0  0  0  0  0  0  0  0
    8.1332   -2.2056    0.0000 C   0  0  0  0  0  0  0  0  0  0  0  0
    8.8467   -2.6193    0.0000 C   0  0  0  0  0  0  0  0  0  0  0  0
  1  2  1  0  0  0  0
  1  3  1  0  0  0  0
  1  4  2  0  0  0  0
  3  6  2  0  0  0  0
  4  7  1  0  0  0  0
  5  2  1  1  0  0  0
  5  8  1  0  0  0  0
  5  9  1  0  0  0  0
  6 10  1  0  0  0  0
  7 10  2  0  0  0  0
  8 11  1  0  0  0  0
  8 12  1  0  0  0  0
 11 13  1  0  0  0  0
 13 14  2  0  0  0  0
 13 15  1  0  0  0  0
 14 16  1  0  0  0  0
 15 17  2  0  0  0  0
 16 18  2  0  0  0  0
 17 18  1  0  0  0  0
M  END
>  <DRUGBANK_ID>
DB00865

>  <DRUG_GROUPS>
illicit; approved

>  <GENERIC_NAME>
Benzphetamine

>  <SYNONYMS>
Benzfetamine; Benzphetamine Hydrochloride; Benzylamphetamine

>  <BRANDS>
Didrex

>  <CHEMICAL_FORMULA>
C17H21N

>  <MOLECULAR_WEIGHT>
239.3553

>  <EXACT_MASS>
239.167399677

>  <IUPAC_NAME>
benzyl(methyl)[(2S)-1-phenylpropan-2-yl]amine

>  <INCHI_IDENTIFIER>
InChI=1S/C17H21N/c1-15(13-16-9-5-3-6-10-16)18(2)14-17-11-7-4-8-12-17/h3-12,15H,13-14H2,1-2H3/t15-/m0/s1

>  <INCHI_KEY>
InChIKey=YXKTVDFXDRQTKV-HNNXBMFYSA-N

>  <SMILES>
C[C@@H](CC1=CC=CC=C1)N(C)CC1=CC=CC=C1

>  <JCHEM_ACCEPTOR_COUNT>
1

>  <JCHEM_DONOR_COUNT>
0

>  <JCHEM_BASIC_PKA>
9.8

>  <JCHEM_PHYSIOLOGICAL_CHARGE>
1

>  <ALOGPS_LOGP>
3.72

>  <JCHEM_LOGP>
4.34

>  <ALOGPS_LOGS>
-4

>  <JCHEM_POLARIZABILITY>
29.03

>  <JCHEM_POLAR_SURFACE_AREA>
3.24

>  <JCHEM_REFRACTIVITY>
78.39

>  <JCHEM_ROTATABLE_BOND_COUNT>
5

>  <ALOGPS_SOLUBILITY>
2.33e-02 g/l __

$$$$
DB00897
 OpenBabel03171413512D

 23 26  0  0  0  0  0  0  0  0999 V2000
    1.6500   -0.2321    0.0000 Cl  0  0  0  0  0  0  0  0  0  0  0  0
    5.3329    1.8438    0.0000 Cl  0  0  0  0  0  0  0  0  0  0  0  0
    4.8159   -1.3269    0.0000 N   0  0  0  0  0  0  0  0  0  0  0  0
    5.2284    0.4805    0.0000 N   0  0  0  0  0  0  0  0  0  0  0  0
    6.1244   -1.5631    0.0000 N   0  0  0  0  0  0  0  0  0  0  0  0
    5.7352   -2.2849    0.0000 N   0  0  0  0  0  0  0  0  0  0  0  0
    4.0726   -0.9689    0.0000 C   0  0  0  0  0  0  0  0  0  0  0  0
    3.8890   -0.1645    0.0000 C   0  0  0  0  0  0  0  0  0  0  0  0
    5.5592   -0.9689    0.0000 C   0  0  0  0  0  0  0  0  0  0  0  0
    4.4034    0.4805    0.0000 C   0  0  0  0  0  0  0  0  0  0  0  0
    5.7428   -0.1645    0.0000 C   0  0  0  0  0  0  0  0  0  0  0  0
    4.9281   -2.1392    0.0000 C   0  0  0  0  0  0  0  0  0  0  0  0
    3.4517   -1.5630    0.0000 C   0  0  0  0  0  0  0  0  0  0  0  0
    4.0454    1.2238    0.0000 C   0  0  0  0  0  0  0  0  0  0  0  0
    3.0718    0.1014    0.0000 C   0  0  0  0  0  0  0  0  0  0  0  0
    2.6286   -1.3160    0.0000 C   0  0  0  0  0  0  0  0  0  0  0  0
    2.4374   -0.4783    0.0000 C   0  0  0  0  0  0  0  0  0  0  0  0
    4.3328   -2.7104    0.0000 C   0  0  0  0  0  0  0  0  0  0  0  0
    4.5102    1.9054    0.0000 C   0  0  0  0  0  0  0  0  0  0  0  0
    3.2227    1.2854    0.0000 C   0  0  0  0  0  0  0  0  0  0  0  0
    4.1523    2.6488    0.0000 C   0  0  0  0  0  0  0  0  0  0  0  0
    2.8648    2.0288    0.0000 C   0  0  0  0  0  0  0  0  0  0  0  0
    3.3296    2.7104    0.0000 C   0  0  0  0  0  0  0  0  0  0  0  0
  1 17  1  0  0  0  0
  2 19  1  0  0  0  0
  3  7  1  0  0  0  0
  3  9  1  0  0  0  0
  3 12  1  0  0  0  0
  4 10  2  0  0  0  0
  4 11  1  0  0  0  0
  5  6  1  0  0  0  0
  5  9  2  0  0  0  0
  6 12  2  0  0  0  0
  7  8  2  0  0  0  0
  7 13  1  0  0  0  0
  8 10  1  0  0  0  0
  8 15  1  0  0  0  0
  9 11  1  0  0  0  0
 10 14  1  0  0  0  0
 12 18  1  0  0  0  0
 13 16  2  0  0  0  0
 14 19  1  0  0  0  0
 14 20  2  0  0  0  0
 15 17  2  0  0  0  0
 16 17  1  0  0  0  0
 19 21  2  0  0  0  0
 20 22  1  0  0  0  0
 21 23  1  0  0  0  0
 22 23  2  0  0  0  0
M  END
>  <DRUGBANK_ID>
DB00897

>  <DRUG_GROUPS>
illicit; approved; withdrawn

>  <GENERIC_NAME>
Triazolam

>  <SYNONYMS>
DEA No. 2887; Triazolamum [INN-Latin]

>  <BRANDS>
Alti-Triazolam; Apo-Triazo; Clorazolam; Gen-Triazolam; Halcion; Novidorm; Novo-Triolam; Novodorm; Songar

>  <CHEMICAL_FORMULA>
C17H12Cl2N4

>  <MOLECULAR_WEIGHT>
343.21

>  <EXACT_MASS>
342.043901818

>  <IUPAC_NAME>
12-chloro-9-(2-chlorophenyl)-3-methyl-2,4,5,8-tetraazatricyclo[8.4.0.0^{2,6}]tetradeca-1(10),3,5,8,11,13-hexaene

>  <INCHI_IDENTIFIER>
InChI=1S/C17H12Cl2N4/c1-10-21-22-16-9-20-17(12-4-2-3-5-14(12)19)13-8-11(18)6-7-15(13)23(10)16/h2-8H,9H2,1H3

>  <INCHI_KEY>
InChIKey=JOFWLTCLBGQGBO-UHFFFAOYSA-N

>  <SMILES>
CC1=NN=C2CN=C(C3=CC=CC=C3Cl)C3=C(C=CC(Cl)=C3)N12

>  <JCHEM_ACCEPTOR_COUNT>
3

>  <JCHEM_DONOR_COUNT>
0

>  <JCHEM_ACIDIC_PKA>
18.08

>  <JCHEM_BASIC_PKA>
4.32

>  <JCHEM_PHYSIOLOGICAL_CHARGE>
0

>  <ALOGPS_LOGP>
2.94

>  <JCHEM_LOGP>
2.89

>  <ALOGPS_LOGS>
-4.3

>  <JCHEM_POLARIZABILITY>
34.19

>  <JCHEM_POLAR_SURFACE_AREA>
43.07

>  <JCHEM_REFRACTIVITY>
103.68

>  <JCHEM_ROTATABLE_BOND_COUNT>
1

>  <ALOGPS_SOLUBILITY>
1.83e-02 g/l __

$$$$
DB00907
 OpenBabel03171413512D

 24 26  0  0  0  0  0  0  0  0999 V2000
   -0.6312    0.1434    0.0000 C   0  0  0  0  0  0  0  0  0  0  0  0
    0.1937    0.1434    0.0000 C   0  0  0  0  0  0  0  0  0  0  0  0
    0.5245    1.5927    0.0000 C   0  0  0  0  0  0  0  0  0  0  0  0
   -0.2250    0.5897    0.0000 N   0  0  0  0  0  0  0  0  0  0  0  0
   -0.2250    1.4147    0.0000 C   0  0  0  0  0  0  0  0  0  0  0  0
   -0.2187    1.9507    0.0000 C   0  0  1  0  0  0  0  0  0  0  0  0
   -0.9620    1.5927    0.0000 C   0  0  2  0  0  0  0  0  0  0  0  0
   -1.6765    2.8302    0.0000 O   0  0  0  0  0  0  0  0  0  0  0  0
   -1.6765    2.0052    0.0000 C   0  0  0  0  0  0  0  0  0  0  0  0
   -2.3910    1.5927    0.0000 O   0  0  0  0  0  0  0  0  0  0  0  0
   -3.1055    2.0052    0.0000 C   0  0  0  0  0  0  0  0  0  0  0  0
   -0.2187    2.7757    0.0000 O   0  0  0  0  0  0  0  0  0  0  0  0
    0.4957    4.0132    0.0000 O   0  0  0  0  0  0  0  0  0  0  0  0
    0.4957    3.1882    0.0000 C   0  0  0  0  0  0  0  0  0  0  0  0
    1.2102    2.7757    0.0000 C   0  0  0  0  0  0  0  0  0  0  0  0
    1.9247    1.5382    0.0000 C   0  0  0  0  0  0  0  0  0  0  0  0
    2.6391    1.9507    0.0000 C   0  0  0  0  0  0  0  0  0  0  0  0
    2.6391    2.7757    0.0000 C   0  0  0  0  0  0  0  0  0  0  0  0
    1.9247    3.1882    0.0000 C   0  0  0  0  0  0  0  0  0  0  0  0
    1.2102    1.9507    0.0000 C   0  0  0  0  0  0  0  0  0  0  0  0
   -1.1456    0.7885    0.0000 C   0  0  1  0  0  0  0  0  0  0  0  0
   -1.9425    0.5750    0.0000 H   0  0  0  0  0  0  0  0  0  0  0  0
    0.7081    0.7885    0.0000 C   0  0  1  0  0  0  0  0  0  0  0  0
    1.5050    0.5750    0.0000 H   0  0  0  0  0  0  0  0  0  0  0  0
  1  2  1  0  0  0  0
  2 23  1  0  0  0  0
  3  6  1  0  0  0  0
  4  5  1  0  0  0  0
  6  7  1  0  0  0  0
  6 12  1  1  0  0  0
  7 21  1  0  0  0  0
  7  9  1  1  0  0  0
  9  8  2  0  0  0  0
  9 10  1  0  0  0  0
 10 11  1  0  0  0  0
 12 14  1  0  0  0  0
 14 13  2  0  0  0  0
 14 15  1  0  0  0  0
 15 20  1  0  0  0  0
 16 17  1  0  0  0  0
 17 18  2  0  0  0  0
 18 19  1  0  0  0  0
 19 15  2  0  0  0  0
 20 16  2  0  0  0  0
 21  1  1  0  0  0  0
 21  4  1  0  0  0  0
 21 22  1  1  0  0  0
 23  3  1  0  0  0  0
 23  4  1  0  0  0  0
 23 24  1  1  0  0  0
M  END
>  <DRUGBANK_ID>
DB00907

>  <DRUG_GROUPS>
illicit; approved

>  <GENERIC_NAME>
Cocaine

>  <SYNONYMS>
(−)-cocaine; Benzoylmethylecgonine; beta-Cocain; Cocain; Kokain; Neurocaine

>  <CHEMICAL_FORMULA>
C17H21NO4

>  <MOLECULAR_WEIGHT>
303.3529

>  <EXACT_MASS>
303.147058165

>  <IUPAC_NAME>
methyl (1R,2R,3S,5S)-3-(benzoyloxy)-8-methyl-8-azabicyclo[3.2.1]octane-2-carboxylate

>  <INCHI_IDENTIFIER>
InChI=1S/C17H21NO4/c1-18-12-8-9-13(18)15(17(20)21-2)14(10-12)22-16(19)11-6-4-3-5-7-11/h3-7,12-15H,8-10H2,1-2H3/t12-,13+,14-,15+/m0/s1

>  <INCHI_KEY>
InChIKey=ZPUCINDJVBIVPJ-LJISPDSOSA-N

>  <SMILES>
[H][C@]12CC[C@]([H])([C@H]([C@H](C1)OC(=O)C1=CC=CC=C1)C(=O)OC)N2C

>  <JCHEM_ACCEPTOR_COUNT>
3

>  <JCHEM_DONOR_COUNT>
0

>  <JCHEM_BASIC_PKA>
8.85

>  <JCHEM_PHYSIOLOGICAL_CHARGE>
1

>  <ALOGPS_LOGP>
1.97

>  <JCHEM_LOGP>
2.28

>  <ALOGPS_LOGS>
-1.8

>  <JCHEM_POLARIZABILITY>
32.36

>  <JCHEM_POLAR_SURFACE_AREA>
55.84

>  <JCHEM_REFRACTIVITY>
81.16

>  <JCHEM_ROTATABLE_BOND_COUNT>
5

>  <ALOGPS_SOLUBILITY>
5.03e+00 g/l __

$$$$
DB00913
 OpenBabel03171413512D

 26 28  0  0  0  0  0  0  0  0999 V2000
    2.8876    2.9996    0.0000 O   0  0  0  0  0  0  0  0  0  0  0  0
    3.8558    3.8121    0.0000 O   0  0  0  0  0  0  0  0  0  0  0  0
    4.1251    0.6351    0.0000 N   0  0  0  0  0  0  0  0  0  0  0  0
    3.4106   -3.9025    0.0000 N   0  0  0  0  0  0  0  0  0  0  0  0
    4.1251    2.2851    0.0000 C   0  0  0  0  0  0  0  0  0  0  0  0
    3.4106    1.8726    0.0000 C   0  0  0  0  0  0  0  0  0  0  0  0
    4.8396    1.8726    0.0000 C   0  0  0  0  0  0  0  0  0  0  0  0
    3.4106    1.0476    0.0000 C   0  0  0  0  0  0  0  0  0  0  0  0
    4.8396    1.0476    0.0000 C   0  0  0  0  0  0  0  0  0  0  0  0
    4.7571    2.8155    0.0000 C   0  0  0  0  0  0  0  0  0  0  0  0
    4.1251   -0.1899    0.0000 C   0  0  0  0  0  0  0  0  0  0  0  0
    3.7126    2.9996    0.0000 C   0  0  0  0  0  0  0  0  0  0  0  0
    3.4106   -0.6024    0.0000 C   0  0  0  0  0  0  0  0  0  0  0  0
    4.6138    3.6279    0.0000 C   0  0  0  0  0  0  0  0  0  0  0  0
    5.5323    2.5333    0.0000 C   0  0  0  0  0  0  0  0  0  0  0  0
    3.4106   -1.4274    0.0000 C   0  0  0  0  0  0  0  0  0  0  0  0
    5.2458    4.1583    0.0000 C   0  0  0  0  0  0  0  0  0  0  0  0
    6.1644    3.0636    0.0000 C   0  0  0  0  0  0  0  0  0  0  0  0
    6.0211    3.8761    0.0000 C   0  0  0  0  0  0  0  0  0  0  0  0
    2.4751    3.7141    0.0000 C   0  0  0  0  0  0  0  0  0  0  0  0
    4.1251   -1.8400    0.0000 C   0  0  0  0  0  0  0  0  0  0  0  0
    2.6961   -1.8400    0.0000 C   0  0  0  0  0  0  0  0  0  0  0  0
    1.6500    3.7141    0.0000 C   0  0  0  0  0  0  0  0  0  0  0  0
    4.1251   -2.6650    0.0000 C   0  0  0  0  0  0  0  0  0  0  0  0
    2.6961   -2.6650    0.0000 C   0  0  0  0  0  0  0  0  0  0  0  0
    3.4106   -3.0775    0.0000 C   0  0  0  0  0  0  0  0  0  0  0  0
  1 12  1  0  0  0  0
  1 20  1  0  0  0  0
  2 12  2  0  0  0  0
  3  8  1  0  0  0  0
  3  9  1  0  0  0  0
  3 11  1  0  0  0  0
  4 26  1  0  0  0  0
  5  6  1  0  0  0  0
  5  7  1  0  0  0  0
  5 10  1  0  0  0  0
  5 12  1  0  0  0  0
  6  8  1  0  0  0  0
  7  9  1  0  0  0  0
 10 14  2  0  0  0  0
 10 15  1  0  0  0  0
 11 13  1  0  0  0  0
 13 16  1  0  0  0  0
 14 17  1  0  0  0  0
 15 18  2  0  0  0  0
 16 21  2  0  0  0  0
 16 22  1  0  0  0  0
 17 19  2  0  0  0  0
 18 19  1  0  0  0  0
 20 23  1  0  0  0  0
 21 24  1  0  0  0  0
 22 25  2  0  0  0  0
 24 26  2  0  0  0  0
 25 26  1  0  0  0  0
M  END
>  <DRUGBANK_ID>
DB00913

>  <DRUG_GROUPS>
illicit; approved

>  <GENERIC_NAME>
Anileridine

>  <SYNONYMS>
Anileridina [INN-Spanish]; Anileridinum [INN-Latin]; Phthalylsulfathiazole; Sulfathalidine

>  <BRANDS>
Adopol; Alidine; Apidol; Apodol; Leritin; Leritine; Nipecotan

>  <CHEMICAL_FORMULA>
C22H28N2O2

>  <MOLECULAR_WEIGHT>
352.4699

>  <EXACT_MASS>
352.21507815

>  <IUPAC_NAME>
ethyl 1-[2-(4-aminophenyl)ethyl]-4-phenylpiperidine-4-carboxylate

>  <INCHI_IDENTIFIER>
InChI=1S/C22H28N2O2/c1-2-26-21(25)22(19-6-4-3-5-7-19)13-16-24(17-14-22)15-12-18-8-10-20(23)11-9-18/h3-11H,2,12-17,23H2,1H3

>  <INCHI_KEY>
InChIKey=LKYQLAWMNBFNJT-UHFFFAOYSA-N

>  <SMILES>
CCOC(=O)C1(CCN(CCC2=CC=C(N)C=C2)CC1)C1=CC=CC=C1

>  <JCHEM_ACCEPTOR_COUNT>
3

>  <JCHEM_DONOR_COUNT>
1

>  <JCHEM_BASIC_PKA>
8.88

>  <JCHEM_PHYSIOLOGICAL_CHARGE>
1

>  <ALOGPS_LOGP>
4.05

>  <JCHEM_LOGP>
3.64

>  <ALOGPS_LOGS>
-4.5

>  <JCHEM_POLARIZABILITY>
40.98

>  <JCHEM_POLAR_SURFACE_AREA>
55.56

>  <JCHEM_REFRACTIVITY>
106.55

>  <JCHEM_ROTATABLE_BOND_COUNT>
7

>  <ALOGPS_SOLUBILITY>
1.24e-02 g/l __

$$$$
DB00921
 OpenBabel03171413512D

 34 40  0  0  1  0  0  0  0  0999 V2000
    4.3078   -2.2511    0.0000 O   0  0  0  0  0  0  0  0  0  0  0  0
    6.3944   -2.4225    0.0000 O   0  0  0  0  0  0  0  0  0  0  0  0
    7.2344   -0.1130    0.0000 O   0  0  0  0  0  0  0  0  0  0  0  0
    2.2396   -2.4225    0.0000 O   0  0  0  0  0  0  0  0  0  0  0  0
    5.1420    1.1756    0.0000 N   0  0  0  0  0  0  0  0  0  0  0  0
    5.1420   -0.2533    0.0000 C   0  0  2  0  0  0  0  0  0  0  0  0
    4.7295   -0.9678    0.0000 C   0  0  1  0  0  0  0  0  0  0  0  0
    5.9670   -1.6823    0.0000 C   0  0  1  0  0  0  0  0  0  0  0  0
    5.1420   -1.6823    0.0000 C   0  0  2  0  0  0  0  0  0  0  0  0
    6.3796   -0.9678    0.0000 C   0  0  2  0  0  0  0  0  0  0  0  0
    5.9670   -0.2533    0.0000 C   0  0  0  0  0  0  0  0  0  0  0  0
    4.7295    0.4612    0.0000 C   0  0  1  0  0  0  0  0  0  0  0  0
    5.7378   -0.6378    0.0000 C   0  0  0  0  0  0  0  0  0  0  0  0
    5.4262   -1.2611    0.0000 C   0  0  0  0  0  0  0  0  0  0  0  0
    4.3171   -0.2533    0.0000 C   0  0  0  0  0  0  0  0  0  0  0  0
    3.9045   -0.9678    0.0000 C   0  0  0  0  0  0  0  0  0  0  0  0
    3.9045    0.4612    0.0000 C   0  0  0  0  0  0  0  0  0  0  0  0
    7.2344   -0.9678    0.0000 C   0  0  1  0  0  0  0  0  0  0  0  0
    4.3078    1.3238    0.0000 C   0  0  0  0  0  0  0  0  0  0  0  0
    3.4920   -0.2533    0.0000 C   0  0  0  0  0  0  0  0  0  0  0  0
    3.4920   -1.6823    0.0000 C   0  0  0  0  0  0  0  0  0  0  0  0
    5.9170    1.5364    0.0000 C   0  0  0  0  0  0  0  0  0  0  0  0
    8.0892   -0.9678    0.0000 C   0  0  0  0  0  0  0  0  0  0  0  0
    5.9921    2.3878    0.0000 C   0  0  0  0  0  0  0  0  0  0  0  0
    7.2344   -1.8226    0.0000 C   0  0  0  0  0  0  0  0  0  0  0  0
    2.6670   -0.2533    0.0000 C   0  0  0  0  0  0  0  0  0  0  0  0
    2.6670   -1.6823    0.0000 C   0  0  0  0  0  0  0  0  0  0  0  0
    5.6313    3.1628    0.0000 C   0  0  0  0  0  0  0  0  0  0  0  0
    6.4829    3.0878    0.0000 C   0  0  0  0  0  0  0  0  0  0  0  0
    5.9670   -3.1628    0.0000 C   0  0  0  0  0  0  0  0  0  0  0  0
    2.2545   -0.9678    0.0000 C   0  0  0  0  0  0  0  0  0  0  0  0
    8.9440   -0.9678    0.0000 C   0  0  0  0  0  0  0  0  0  0  0  0
    8.0892   -1.8226    0.0000 C   0  0  0  0  0  0  0  0  0  0  0  0
    8.0892   -0.1130    0.0000 C   0  0  0  0  0  0  0  0  0  0  0  0
  1 21  1  0  0  0  0
  2 30  1  0  0  0  0
  4 27  1  0  0  0  0
  5 19  1  0  0  0  0
  5 22  1  0  0  0  0
  6  7  1  0  0  0  0
  6 11  1  1  0  0  0
  6 12  1  0  0  0  0
  6 13  1  0  0  0  0
  7  9  1  0  0  0  0
  7 15  1  1  0  0  0
  7 16  1  0  0  0  0
  8  2  1  6  0  0  0
  8  9  1  0  0  0  0
  8 10  1  0  0  0  0
  8 14  1  0  0  0  0
  9  1  1  6  0  0  0
 10 11  1  6  0  0  0
 10 18  1  0  0  0  0
 12  5  1  1  0  0  0
 12 17  1  0  0  0  0
 13 14  1  0  0  0  0
 15 19  1  0  0  0  0
 16 20  2  0  0  0  0
 16 21  1  0  0  0  0
 17 20  1  0  0  0  0
 18  3  1  1  0  0  0
 18 23  1  0  0  0  0
 18 25  1  0  0  0  0
 20 26  1  0  0  0  0
 21 27  2  0  0  0  0
 22 24  1  0  0  0  0
 23 32  1  0  0  0  0
 23 33  1  0  0  0  0
 23 34  1  0  0  0  0
 24 28  1  0  0  0  0
 24 29  1  0  0  0  0
 26 31  2  0  0  0  0
 27 31  1  0  0  0  0
 28 29  1  0  0  0  0
M  END
>  <DRUGBANK_ID>
DB00921

>  <DRUG_GROUPS>
illicit; approved; investigational

>  <GENERIC_NAME>
Buprenorphine

>  <SYNONYMS>
Buprenophine; Buprenorfina [INN-Spanish]; Buprenorphine Hcl; Buprenorphinum [INN-Latin]

>  <BRANDS>
Buprel; Buprenex; Probuphine; Subutex; Temgesic

>  <CHEMICAL_FORMULA>
C29H41NO4

>  <MOLECULAR_WEIGHT>
467.6401

>  <EXACT_MASS>
467.303558805

>  <IUPAC_NAME>
(1S,2R,6S,14R,15R,16R)-3-(cyclopropylmethyl)-16-[(2S)-2-hydroxy-3,3-dimethylbutan-2-yl]-15-methoxy-13-oxa-3-azahexacyclo[13.2.2.1^{2,8}.0^{1,6}.0^{6,14}.0^{7,12}]icosa-7,9,11-trien-11-ol

>  <INCHI_IDENTIFIER>
InChI=1S/C29H41NO4/c1-25(2,3)26(4,32)20-15-27-10-11-29(20,33-5)24-28(27)12-13-30(16-17-6-7-17)21(27)14-18-8-9-19(31)23(34-24)22(18)28/h8-9,17,20-21,24,31-32H,6-7,10-16H2,1-5H3/t20-,21-,24-,26+,27-,28+,29-/m1/s1

>  <INCHI_KEY>
InChIKey=RMRJXGBAOAMLHD-IHFGGWKQSA-N

>  <SMILES>
CO[C@]12CC[C@@]3(C[C@@H]1[C@](C)(O)C(C)(C)C)[C@H]1CC4=C5C(O[C@@H]2[C@@]35CCN1CC1CC1)=C(O)C=C4

>  <JCHEM_ACCEPTOR_COUNT>
5

>  <JCHEM_DONOR_COUNT>
2

>  <JCHEM_ACIDIC_PKA>
7.5

>  <JCHEM_BASIC_PKA>
12.54

>  <JCHEM_PHYSIOLOGICAL_CHARGE>
1

>  <ALOGPS_LOGP>
4.53

>  <JCHEM_LOGP>
3.55

>  <ALOGPS_LOGS>
-4.4

>  <JCHEM_POLARIZABILITY>
53.11

>  <JCHEM_POLAR_SURFACE_AREA>
62.16

>  <JCHEM_REFRACTIVITY>
131.76

>  <JCHEM_ROTATABLE_BOND_COUNT>
5

>  <ALOGPS_SOLUBILITY>
1.68e-02 g/l __

$$$$
DB00937
 OpenBabel03171413512D

 15 15  0  0  1  0  0  0  0  0999 V2000
    1.6500    0.4125    0.0000 O   0  0  0  0  0  0  0  0  0  0  0  0
    3.0790    1.2375    0.0000 N   0  0  0  0  0  0  0  0  0  0  0  0
    3.0790    0.4125    0.0000 C   0  0  3  0  0  0  0  0  0  0  0  0
    3.7934    1.6500    0.0000 C   0  0  0  0  0  0  0  0  0  0  0  0
    2.3644    1.6500    0.0000 C   0  0  0  0  0  0  0  0  0  0  0  0
    2.3644    0.0000    0.0000 C   0  0  0  0  0  0  0  0  0  0  0  0
    3.7934    0.0000    0.0000 C   0  0  0  0  0  0  0  0  0  0  0  0
    3.7934    2.4750    0.0000 C   0  0  0  0  0  0  0  0  0  0  0  0
    2.3644    2.4750    0.0000 C   0  0  0  0  0  0  0  0  0  0  0  0
    2.3644   -0.8250    0.0000 C   0  0  0  0  0  0  0  0  0  0  0  0
    3.0790   -1.2375    0.0000 C   0  0  0  0  0  0  0  0  0  0  0  0
    1.6500   -1.2375    0.0000 C   0  0  0  0  0  0  0  0  0  0  0  0
    3.0790   -2.0625    0.0000 C   0  0  0  0  0  0  0  0  0  0  0  0
    1.6500   -2.0625    0.0000 C   0  0  0  0  0  0  0  0  0  0  0  0
    2.3644   -2.4750    0.0000 C   0  0  0  0  0  0  0  0  0  0  0  0
  1  6  2  0  0  0  0
  2  3  1  0  0  0  0
  2  4  1  0  0  0  0
  2  5  1  0  0  0  0
  3  6  1  0  0  0  0
  3  7  1  0  0  0  0
  4  8  1  0  0  0  0
  5  9  1  0  0  0  0
  6 10  1  0  0  0  0
 10 11  2  0  0  0  0
 10 12  1  0  0  0  0
 11 13  1  0  0  0  0
 12 14  2  0  0  0  0
 13 15  2  0  0  0  0
 14 15  1  0  0  0  0
M  END
>  <DRUGBANK_ID>
DB00937

>  <DRUG_GROUPS>
illicit; approved

>  <GENERIC_NAME>
Diethylpropion

>  <SYNONYMS>
alpha-Benzoyltriethylamine; alpha-Diethylaminopropiophenone; Amfepramone; Amfepramone HCL; Amfepramone Hydrochloride; Amfepramonum [INN-Latin]; Amphepramonum hydrochloride; Anfepramona [INN-Spanish]; DEA No. 1610; Diethylcathinone; Diethylpropion HCL; Diethylpropion Hydrochloride; Diethylpropione; Diethylpropione hydrochloride

>  <BRANDS>
Adiposon; Amfepramon; Amfepramone; Amphepramon; Amphepramone; Anfamon; Anorex; Cegramine; Danylen; Derfon; Dobesin; Frekentine; Keramik; Keramin; Magrene; Moderatan; Modulor; Neobes; Nopropiophenone; Obesitex; Parabolin; Prefamone; Regenon; Regenon hydrochloride; Reginon; Silutin; Tenuate; Tenuate Dospan; Tenuate hydrochloride; Tepanil; Tepanil Ten-tab; Tylinal

>  <CHEMICAL_FORMULA>
C13H19NO

>  <MOLECULAR_WEIGHT>
205.2961

>  <EXACT_MASS>
205.146664235

>  <IUPAC_NAME>
2-(diethylamino)-1-phenylpropan-1-one

>  <INCHI_IDENTIFIER>
InChI=1S/C13H19NO/c1-4-14(5-2)11(3)13(15)12-9-7-6-8-10-12/h6-11H,4-5H2,1-3H3

>  <INCHI_KEY>
InChIKey=XXEPPPIWZFICOJ-UHFFFAOYSA-N

>  <SMILES>
CCN(CC)C(C)C(=O)C1=CC=CC=C1

>  <JCHEM_ACCEPTOR_COUNT>
2

>  <JCHEM_DONOR_COUNT>
0

>  <JCHEM_ACIDIC_PKA>
17.43

>  <JCHEM_BASIC_PKA>
7.44

>  <JCHEM_PHYSIOLOGICAL_CHARGE>
1

>  <ALOGPS_LOGP>
2.8

>  <JCHEM_LOGP>
2.7

>  <ALOGPS_LOGS>
-2.2

>  <JCHEM_POLARIZABILITY>
24.12

>  <JCHEM_POLAR_SURFACE_AREA>
20.31

>  <JCHEM_REFRACTIVITY>
63.88

>  <JCHEM_ROTATABLE_BOND_COUNT>
5

>  <ALOGPS_SOLUBILITY>
1.22e+00 g/l __

$$$$
DB00956
 OpenBabel03171413512D

 25 29  0  0  1  0  0  0  0  0999 V2000
    1.9356   -0.3879    0.0000 O   0  0  0  0  0  0  0  0  0  0  0  0
    1.7349   -2.5175    0.0000 O   0  0  0  0  0  0  0  0  0  0  0  0
    1.7349    1.6501    0.0000 O   0  0  0  0  0  0  0  0  0  0  0  0
    5.3440   -1.2588    0.0000 N   0  0  0  0  0  0  0  0  0  0  0  0
    3.2006   -0.8462    0.0000 C   0  0  1  0  0  0  0  0  0  0  0  0
    3.9151   -1.2588    0.0000 C   0  0  2  0  0  0  0  0  0  0  0  0
    4.6296   -0.8462    0.0000 C   0  0  1  0  0  0  0  0  0  0  0  0
    2.4861   -1.2588    0.0000 C   0  0  2  0  0  0  0  0  0  0  0  0
    3.6773   -0.2412    0.0000 C   0  0  0  0  0  0  0  0  0  0  0  0
    3.2006   -0.0213    0.0000 C   0  0  0  0  0  0  0  0  0  0  0  0
    3.9151   -2.0838    0.0000 C   0  0  0  0  0  0  0  0  0  0  0  0
    4.6296   -0.0213    0.0000 C   0  0  0  0  0  0  0  0  0  0  0  0
    4.8506   -0.2412    0.0000 C   0  0  0  0  0  0  0  0  0  0  0  0
    3.9151    0.3913    0.0000 C   0  0  0  0  0  0  0  0  0  0  0  0
    3.2006   -2.4963    0.0000 C   0  0  0  0  0  0  0  0  0  0  0  0
    2.4861   -2.0838    0.0000 C   0  0  0  0  0  0  0  0  0  0  0  0
    2.4861    0.3913    0.0000 C   0  0  0  0  0  0  0  0  0  0  0  0
    5.9350   -1.8938    0.0000 C   0  0  0  0  0  0  0  0  0  0  0  0
    3.9151    1.2163    0.0000 C   0  0  0  0  0  0  0  0  0  0  0  0
    2.4861    1.2163    0.0000 C   0  0  0  0  0  0  0  0  0  0  0  0
    3.2006    1.6288    0.0000 C   0  0  0  0  0  0  0  0  0  0  0  0
    1.7349    2.5175    0.0000 C   0  0  0  0  0  0  0  0  0  0  0  0
    4.3612   -1.7903    0.0000 H   0  0  0  0  0  0  0  0  0  0  0  0
    4.8675   -1.4982    0.0000 H   0  0  0  0  0  0  0  0  0  0  0  0
    1.8196   -1.4518    0.0000 H   0  0  0  0  0  0  0  0  0  0  0  0
  1  8  1  0  0  0  0
  1 17  1  0  0  0  0
  2 16  2  0  0  0  0
  3 20  1  0  0  0  0
  3 22  1  0  0  0  0
  4  7  1  0  0  0  0
  4 13  1  0  0  0  0
  4 18  1  0  0  0  0
  5  6  1  0  0  0  0
  5  8  1  0  0  0  0
  5  9  1  1  0  0  0
  5 10  1  0  0  0  0
  6  7  1  0  0  0  0
  6 11  1  0  0  0  0
  6 23  1  1  0  0  0
  7 12  1  0  0  0  0
  7 24  1  6  0  0  0
  8 16  1  0  0  0  0
  8 25  1  1  0  0  0
  9 13  1  0  0  0  0
 10 14  2  0  0  0  0
 10 17  1  0  0  0  0
 11 15  1  0  0  0  0
 12 14  1  0  0  0  0
 14 19  1  0  0  0  0
 15 16  1  0  0  0  0
 17 20  2  0  0  0  0
 19 21  2  0  0  0  0
 20 21  1  0  0  0  0
M  END
>  <DRUGBANK_ID>
DB00956

>  <DRUG_GROUPS>
illicit; approved

>  <GENERIC_NAME>
Hydrocodone

>  <SYNONYMS>
Dihydrocodeinone; Hidrocodona [INN-Spanish]; Hydrocodon; Hydrocodonum [INN-Latin]; Hydrocone; Hydroconum; Idrocodone [Dcit]

>  <BRANDS>
Bekadid; Codinovo; Dico; Dicodid; Multacodin

>  <CHEMICAL_FORMULA>
C18H21NO3

>  <MOLECULAR_WEIGHT>
299.3642

>  <EXACT_MASS>
299.152143543

>  <IUPAC_NAME>
(1S,5R,13R,17R)-10-methoxy-4-methyl-12-oxa-4-azapentacyclo[9.6.1.0^{1,13}.0^{5,17}.0^{7,18}]octadeca-7(18),8,10-trien-14-one

>  <INCHI_IDENTIFIER>
InChI=1S/C18H21NO3/c1-19-8-7-18-11-4-5-13(20)17(18)22-16-14(21-2)6-3-10(15(16)18)9-12(11)19/h3,6,11-12,17H,4-5,7-9H2,1-2H3/t11-,12+,17-,18-/m0/s1

>  <INCHI_KEY>
InChIKey=LLPOLZWFYMWNKH-CMKMFDCUSA-N

>  <SMILES>
[H][C@@]12OC3=C(OC)C=CC4=C3[C@@]11CCN(C)[C@]([H])(C4)[C@]1([H])CCC2=O

>  <JCHEM_ACCEPTOR_COUNT>
4

>  <JCHEM_DONOR_COUNT>
0

>  <JCHEM_ACIDIC_PKA>
18

>  <JCHEM_BASIC_PKA>
8.61

>  <JCHEM_PHYSIOLOGICAL_CHARGE>
1

>  <ALOGPS_LOGP>
2.13

>  <JCHEM_LOGP>
1.96

>  <ALOGPS_LOGS>
-2.6

>  <JCHEM_POLARIZABILITY>
32.05

>  <JCHEM_POLAR_SURFACE_AREA>
38.77

>  <JCHEM_REFRACTIVITY>
82.74

>  <JCHEM_ROTATABLE_BOND_COUNT>
1

>  <ALOGPS_SOLUBILITY>
7.97e-01 g/l __

$$$$
DB00962
 OpenBabel03171413512D

 23 25  0  0  0  0  0  0  0  0999 V2000
    3.0791    3.3850    0.0000 O   0  0  0  0  0  0  0  0  0  0  0  0
    3.7935    2.1474    0.0000 N   0  0  0  0  0  0  0  0  0  0  0  0
    3.0791   -0.7401    0.0000 N   0  0  0  0  0  0  0  0  0  0  0  0
    3.8597   -0.4887    0.0000 N   0  0  0  0  0  0  0  0  0  0  0  0
    2.3645   -1.9777    0.0000 N   0  0  0  0  0  0  0  0  0  0  0  0
    4.3723   -3.3850    0.0000 N   0  0  0  0  0  0  0  0  0  0  0  0
    2.3645    0.4974    0.0000 C   0  0  0  0  0  0  0  0  0  0  0  0
    3.0791    1.7349    0.0000 C   0  0  0  0  0  0  0  0  0  0  0  0
    2.3645   -0.3276    0.0000 C   0  0  0  0  0  0  0  0  0  0  0  0
    3.0791    0.9099    0.0000 C   0  0  0  0  0  0  0  0  0  0  0  0
    4.5080    1.7349    0.0000 C   0  0  0  0  0  0  0  0  0  0  0  0
    1.6500    0.9099    0.0000 C   0  0  0  0  0  0  0  0  0  0  0  0
    2.3645    2.1474    0.0000 C   0  0  0  0  0  0  0  0  0  0  0  0
    3.0791   -1.5651    0.0000 C   0  0  0  0  0  0  0  0  0  0  0  0
    1.6500    1.7349    0.0000 C   0  0  0  0  0  0  0  0  0  0  0  0
    1.6500   -0.7401    0.0000 C   0  0  0  0  0  0  0  0  0  0  0  0
    3.7935    2.9725    0.0000 C   0  0  0  0  0  0  0  0  0  0  0  0
    5.2224    2.1474    0.0000 C   0  0  0  0  0  0  0  0  0  0  0  0
    3.8597   -1.8165    0.0000 C   0  0  0  0  0  0  0  0  0  0  0  0
    1.6500   -1.5651    0.0000 C   0  0  0  0  0  0  0  0  0  0  0  0
    4.3412   -1.1526    0.0000 C   0  0  0  0  0  0  0  0  0  0  0  0
    4.5080    3.3850    0.0000 C   0  0  0  0  0  0  0  0  0  0  0  0
    4.1159   -2.6008    0.0000 C   0  0  0  0  0  0  0  0  0  0  0  0
  1 17  2  0  0  0  0
  2  8  1  0  0  0  0
  2 11  1  0  0  0  0
  2 17  1  0  0  0  0
  3  4  1  0  0  0  0
  3  9  1  0  0  0  0
  3 14  1  0  0  0  0
  4 21  2  0  0  0  0
  5 14  1  0  0  0  0
  5 20  2  0  0  0  0
  6 23  3  0  0  0  0
  7  9  1  0  0  0  0
  7 10  2  0  0  0  0
  7 12  1  0  0  0  0
  8 10  1  0  0  0  0
  8 13  2  0  0  0  0
  9 16  2  0  0  0  0
 11 18  1  0  0  0  0
 12 15  2  0  0  0  0
 13 15  1  0  0  0  0
 14 19  2  0  0  0  0
 16 20  1  0  0  0  0
 17 22  1  0  0  0  0
 19 21  1  0  0  0  0
 19 23  1  0  0  0  0
M  END
>  <DRUGBANK_ID>
DB00962

>  <DRUG_GROUPS>
illicit; approved; investigational

>  <GENERIC_NAME>
Zaleplon

>  <SYNONYMS>
DEA No. 2781

>  <BRANDS>
Sonata; Zalaplon

>  <CHEMICAL_FORMULA>
C17H15N5O

>  <MOLECULAR_WEIGHT>
305.3339

>  <EXACT_MASS>
305.127660127

>  <IUPAC_NAME>
N-(3-{3-cyanopyrazolo[1,5-a]pyrimidin-7-yl}phenyl)-N-ethylacetamide

>  <INCHI_IDENTIFIER>
InChI=1S/C17H15N5O/c1-3-21(12(2)23)15-6-4-5-13(9-15)16-7-8-19-17-14(10-18)11-20-22(16)17/h4-9,11H,3H2,1-2H3

>  <INCHI_KEY>
InChIKey=HUNXMJYCHXQEGX-UHFFFAOYSA-N

>  <SMILES>
CCN(C(C)=O)C1=CC=CC(=C1)C1=CC=NC2=C(C=NN12)C#N

>  <JCHEM_ACCEPTOR_COUNT>
4

>  <JCHEM_DONOR_COUNT>
0

>  <JCHEM_BASIC_PKA>
0.3

>  <JCHEM_PHYSIOLOGICAL_CHARGE>
0

>  <ALOGPS_LOGP>
2

>  <JCHEM_LOGP>
1.53

>  <ALOGPS_LOGS>
-3.9

>  <JCHEM_POLARIZABILITY>
32.09

>  <JCHEM_POLAR_SURFACE_AREA>
74.29

>  <JCHEM_REFRACTIVITY>
97.24

>  <JCHEM_ROTATABLE_BOND_COUNT>
3

>  <ALOGPS_SOLUBILITY>
4.03e-02 g/l __

$$$$
DB00984
 OpenBabel03171413512D

 34 38  0  0  1  0  0  0  0  0999 V2000
    7.1363    0.0573    0.0000 O   0  0  0  0  0  0  0  0  0  0  0  0
    1.6500   -3.4965    0.0000 O   0  0  0  0  0  0  0  0  0  0  0  0
    8.4945   -0.3866    0.0000 O   0  0  0  0  0  0  0  0  0  0  0  0
    6.0994   -1.8033    0.0000 C   0  0  2  0  0  0  0  0  0  0  0  0
    6.0994   -0.9783    0.0000 C   0  0  2  0  0  0  0  0  0  0  0  0
    5.3849   -2.2158    0.0000 C   0  0  1  0  0  0  0  0  0  0  0  0
    4.6704   -1.8033    0.0000 C   0  0  2  0  0  0  0  0  0  0  0  0
    5.3849   -0.5658    0.0000 C   0  0  0  0  0  0  0  0  0  0  0  0
    6.8800   -0.7269    0.0000 C   0  0  2  0  0  0  0  0  0  0  0  0
    6.8800   -2.0547    0.0000 C   0  0  0  0  0  0  0  0  0  0  0  0
    4.6704   -0.9783    0.0000 C   0  0  0  0  0  0  0  0  0  0  0  0
    3.9196   -2.2214    0.0000 C   0  0  2  0  0  0  0  0  0  0  0  0
    7.3615   -1.3908    0.0000 C   0  0  0  0  0  0  0  0  0  0  0  0
    5.3981   -3.0751    0.0000 C   0  0  0  0  0  0  0  0  0  0  0  0
    6.0994   -0.1533    0.0000 C   0  0  0  0  0  0  0  0  0  0  0  0
    4.6573   -3.5105    0.0000 C   0  0  0  0  0  0  0  0  0  0  0  0
    3.9130   -3.0807    0.0000 C   0  0  0  0  0  0  0  0  0  0  0  0
    3.1550   -1.7561    0.0000 C   0  0  0  0  0  0  0  0  0  0  0  0
    2.3730   -2.1916    0.0000 C   0  0  0  0  0  0  0  0  0  0  0  0
    3.1413   -3.5343    0.0000 C   0  0  0  0  0  0  0  0  0  0  0  0
    2.3660   -3.0868    0.0000 C   0  0  0  0  0  0  0  0  0  0  0  0
    7.9436    0.2275    0.0000 C   0  0  0  0  0  0  0  0  0  0  0  0
    8.1998    1.0116    0.0000 C   0  0  0  0  0  0  0  0  0  0  0  0
    9.0071    1.1817    0.0000 C   0  0  0  0  0  0  0  0  0  0  0  0
    9.2634    1.9659    0.0000 C   0  0  0  0  0  0  0  0  0  0  0  0
    8.7125    2.5800    0.0000 C   0  0  0  0  0  0  0  0  0  0  0  0
   10.0707    2.1360    0.0000 C   0  0  0  0  0  0  0  0  0  0  0  0
    8.9687    3.3642    0.0000 C   0  0  0  0  0  0  0  0  0  0  0  0
   10.3270    2.9203    0.0000 C   0  0  0  0  0  0  0  0  0  0  0  0
    9.7760    3.5343    0.0000 C   0  0  0  0  0  0  0  0  0  0  0  0
    6.1692   -2.4596    0.0000 H   0  0  0  0  0  0  0  0  0  0  0  0
    5.9590   -2.5414    0.0000 H   0  0  0  0  0  0  0  0  0  0  0  0
    5.2420   -1.4733    0.0000 H   0  0  0  0  0  0  0  0  0  0  0  0
    3.9323   -1.5616    0.0000 H   0  0  0  0  0  0  0  0  0  0  0  0
  1 22  1  0  0  0  0
  2 21  2  0  0  0  0
  3 22  2  0  0  0  0
  4  5  1  0  0  0  0
  4  6  1  0  0  0  0
  4 10  1  0  0  0  0
  4 31  1  6  0  0  0
  5  8  1  0  0  0  0
  5  9  1  0  0  0  0
  5 15  1  1  0  0  0
  6  7  1  0  0  0  0
  6 14  1  0  0  0  0
  6 32  1  1  0  0  0
  7 11  1  0  0  0  0
  7 12  1  0  0  0  0
  7 33  1  6  0  0  0
  8 11  1  0  0  0  0
  9  1  1  1  0  0  0
  9 13  1  0  0  0  0
 10 13  1  0  0  0  0
 12 17  1  0  0  0  0
 12 18  1  0  0  0  0
 12 34  1  1  0  0  0
 14 16  1  0  0  0  0
 16 17  1  0  0  0  0
 17 20  2  0  0  0  0
 18 19  1  0  0  0  0
 19 21  1  0  0  0  0
 20 21  1  0  0  0  0
 22 23  1  0  0  0  0
 23 24  1  0  0  0  0
 24 25  1  0  0  0  0
 25 26  2  0  0  0  0
 25 27  1  0  0  0  0
 26 28  1  0  0  0  0
 27 29  2  0  0  0  0
 28 30  2  0  0  0  0
 29 30  1  0  0  0  0
M  END
>  <DRUGBANK_ID>
DB00984

>  <DRUG_GROUPS>
illicit; approved

>  <GENERIC_NAME>
Nandrolone phenpropionate

>  <SYNONYMS>
19NTPP; Nadrolone phenylpropionate; Nandrolin; Nandrolon phenylpropionate; Nandrolone phenylpionate; Nandrolone phenylpropionate; Norandrolone phenyl propionate; Norandrostenolone phenylpropionate; Nortestosterone phenylpropionate; NTPP; Testosterone phenylpropionate

>  <BRANDS>
Activin; Durabol; Durabolin; Fenobolin; Nandrobolic; Nerobil; Nerobiolil; Nerobolil; Phenobolin; Strabolene; Superanabolon

>  <CHEMICAL_FORMULA>
C27H34O3

>  <MOLECULAR_WEIGHT>
406.5571

>  <EXACT_MASS>
406.250794954

>  <IUPAC_NAME>
(1S,2R,10R,11S,14S,15S)-15-methyl-5-oxotetracyclo[8.7.0.0^{2,7}.0^{11,15}]heptadec-6-en-14-yl 3-phenylpropanoate

>  <INCHI_IDENTIFIER>
InChI=1S/C27H34O3/c1-27-16-15-22-21-11-9-20(28)17-19(21)8-10-23(22)24(27)12-13-25(27)30-26(29)14-7-18-5-3-2-4-6-18/h2-6,17,21-25H,7-16H2,1H3/t21-,22+,23+,24-,25-,27-/m0/s1

>  <INCHI_KEY>
InChIKey=UBWXUGDQUBIEIZ-QNTYDACNSA-N

>  <SMILES>
[H][C@@]12CC[C@H](OC(=O)CCC3=CC=CC=C3)[C@@]1(C)CC[C@]1([H])[C@@]3([H])CCC(=O)C=C3CC[C@@]21[H]

>  <JCHEM_ACCEPTOR_COUNT>
2

>  <JCHEM_DONOR_COUNT>
0

>  <JCHEM_ACIDIC_PKA>
19.28

>  <JCHEM_BASIC_PKA>
-4.7

>  <JCHEM_PHYSIOLOGICAL_CHARGE>
0

>  <ALOGPS_LOGP>
4.22

>  <JCHEM_LOGP>
5.79

>  <ALOGPS_LOGS>
-6

>  <JCHEM_POLARIZABILITY>
47.83

>  <JCHEM_POLAR_SURFACE_AREA>
43.37

>  <JCHEM_REFRACTIVITY>
118.43

>  <JCHEM_ROTATABLE_BOND_COUNT>
5

>  <ALOGPS_SOLUBILITY>
4.58e-04 g/l __

$$$$
DB01031
 OpenBabel03171413512D

 12 12  0  0  0  0  0  0  0  0999 V2000
    3.1433    0.6035    0.0000 O   0  0  0  0  0  0  0  0  0  0  0  0
    4.3808   -0.1110    0.0000 O   0  0  0  0  0  0  0  0  0  0  0  0
    4.3808    1.3180    0.0000 N   0  0  0  0  0  0  0  0  0  0  0  0
    2.7308   -0.1110    0.0000 C   0  0  0  0  0  0  0  0  0  0  0  0
    2.0163   -0.5235    0.0000 C   0  0  0  0  0  0  0  0  0  0  0  0
    3.4453   -0.5235    0.0000 C   0  0  0  0  0  0  0  0  0  0  0  0
    2.0163   -1.3485    0.0000 C   0  0  0  0  0  0  0  0  0  0  0  0
    3.4453   -1.3485    0.0000 C   0  0  0  0  0  0  0  0  0  0  0  0
    2.7308   -1.7610    0.0000 C   0  0  0  0  0  0  0  0  0  0  0  0
    2.3183    0.6035    0.0000 C   0  0  0  0  0  0  0  0  0  0  0  0
    3.9683    0.6035    0.0000 C   0  0  0  0  0  0  0  0  0  0  0  0
    1.9058    1.3180    0.0000 C   0  0  0  0  0  0  0  0  0  0  0  0
  1  4  1  0  0  0  0
  1 11  1  0  0  0  0
  2 11  2  0  0  0  0
  3 11  1  0  0  0  0
  4  5  1  0  0  0  0
  4  6  1  0  0  0  0
  4 10  1  0  0  0  0
  5  7  1  0  0  0  0
  6  8  1  0  0  0  0
  7  9  1  0  0  0  0
  8  9  1  0  0  0  0
 10 12  3  0  0  0  0
M  END
>  <DRUGBANK_ID>
DB01031

>  <DRUG_GROUPS>
illicit; approved

>  <GENERIC_NAME>
Ethinamate

>  <SYNONYMS>
Ethinamat; Ethinimate; Etinamate; USAF EL-42

>  <BRANDS>
Valamin; Valaminettae; Valaminetten; Valmid; Valmidate; Volamin

>  <CHEMICAL_FORMULA>
C9H13NO2

>  <MOLECULAR_WEIGHT>
167.205

>  <EXACT_MASS>
167.094628665

>  <IUPAC_NAME>
1-ethynylcyclohexyl carbamate

>  <INCHI_IDENTIFIER>
InChI=1S/C9H13NO2/c1-2-9(12-8(10)11)6-4-3-5-7-9/h1H,3-7H2,(H2,10,11)

>  <INCHI_KEY>
InChIKey=GXRZIMHKGDIBEW-UHFFFAOYSA-N

>  <SMILES>
NC(=O)OC1(CCCCC1)C#C

>  <JCHEM_ACCEPTOR_COUNT>
1

>  <JCHEM_DONOR_COUNT>
1

>  <JCHEM_ACIDIC_PKA>
15.37

>  <JCHEM_PHYSIOLOGICAL_CHARGE>
0

>  <ALOGPS_LOGP>
1.09

>  <JCHEM_LOGP>
1.54

>  <ALOGPS_LOGS>
-3.2

>  <JCHEM_POLARIZABILITY>
17.73

>  <JCHEM_POLAR_SURFACE_AREA>
52.32

>  <JCHEM_REFRACTIVITY>
44.57

>  <JCHEM_ROTATABLE_BOND_COUNT>
2

>  <ALOGPS_SOLUBILITY>
1.06e-01 g/l __

$$$$
DB01068
 OpenBabel03171413512D

 22 24  0  0  0  0  0  0  0  0999 V2000
    3.6081   -1.2313    0.0000 Cl  0  0  0  0  0  0  0  0  0  0  0  0
    2.3403    2.5929    0.0000 O   0  0  0  0  0  0  0  0  0  0  0  0
    1.8668   -2.5929    0.0000 O   0  0  0  0  0  0  0  0  0  0  0  0
    3.2913   -2.4806    0.0000 O   0  0  0  0  0  0  0  0  0  0  0  0
    2.1839    1.2046    0.0000 N   0  0  0  0  0  0  0  0  0  0  0  0
    4.0375    1.2046    0.0000 N   0  0  0  0  0  0  0  0  0  0  0  0
    2.5467   -2.1255    0.0000 N   0  0  0  0  0  0  0  0  0  0  0  0
    3.1107    0.0423    0.0000 C   0  0  0  0  0  0  0  0  0  0  0  0
    2.3674    0.4003    0.0000 C   0  0  0  0  0  0  0  0  0  0  0  0
    3.8540    0.4003    0.0000 C   0  0  0  0  0  0  0  0  0  0  0  0
    4.4990   -0.1141    0.0000 C   0  0  0  0  0  0  0  0  0  0  0  0
    3.1881   -0.8135    0.0000 C   0  0  0  0  0  0  0  0  0  0  0  0
    1.6500   -0.0728    0.0000 C   0  0  0  0  0  0  0  0  0  0  0  0
    3.5232    1.8496    0.0000 C   0  0  0  0  0  0  0  0  0  0  0  0
    2.4818   -1.3031    0.0000 C   0  0  0  0  0  0  0  0  0  0  0  0
    2.6982    1.8496    0.0000 C   0  0  0  0  0  0  0  0  0  0  0  0
    1.7076   -0.9302    0.0000 C   0  0  0  0  0  0  0  0  0  0  0  0
    4.3760   -0.9299    0.0000 C   0  0  0  0  0  0  0  0  0  0  0  0
    5.2670    0.1873    0.0000 C   0  0  0  0  0  0  0  0  0  0  0  0
    5.0210   -1.4442    0.0000 C   0  0  0  0  0  0  0  0  0  0  0  0
    5.9120   -0.3271    0.0000 C   0  0  0  0  0  0  0  0  0  0  0  0
    5.7890   -1.1429    0.0000 C   0  0  0  0  0  0  0  0  0  0  0  0
  1 18  1  0  0  0  0
  2 16  2  0  0  0  0
  3  7  1  0  0  0  0
  4  7  2  0  0  0  0
  5  9  1  0  0  0  0
  5 16  1  0  0  0  0
  6 10  2  0  0  0  0
  6 14  1  0  0  0  0
  7 15  1  0  0  0  0
  8  9  2  0  0  0  0
  8 10  1  0  0  0  0
  8 12  1  0  0  0  0
  9 13  1  0  0  0  0
 10 11  1  0  0  0  0
 11 18  1  0  0  0  0
 11 19  2  0  0  0  0
 12 15  2  0  0  0  0
 13 17  2  0  0  0  0
 14 16  1  0  0  0  0
 15 17  1  0  0  0  0
 18 20  2  0  0  0  0
 19 21  1  0  0  0  0
 20 22  1  0  0  0  0
 21 22  2  0  0  0  0
M  END
>  <DRUGBANK_ID>
DB01068

>  <DRUG_GROUPS>
illicit; approved

>  <GENERIC_NAME>
Clonazepam

>  <SYNONYMS>
Chlonazepam; Clonazepamum

>  <BRANDS>
Antelepsin; Antilepsin; Cloazepam; Clonopin; Iktorivil; Klonopin; Klonopin Rapidly Disintegrating; Landsen; Rivotril

>  <CHEMICAL_FORMULA>
C15H10ClN3O3

>  <MOLECULAR_WEIGHT>
315.711

>  <EXACT_MASS>
315.041068908

>  <IUPAC_NAME>
5-(2-chlorophenyl)-7-nitro-2,3-dihydro-1H-1,4-benzodiazepin-2-one

>  <INCHI_IDENTIFIER>
InChI=1S/C15H10ClN3O3/c16-12-4-2-1-3-10(12)15-11-7-9(19(21)22)5-6-13(11)18-14(20)8-17-15/h1-7H,8H2,(H,18,20)

>  <INCHI_KEY>
InChIKey=DGBIGWXXNGSACT-UHFFFAOYSA-N

>  <SMILES>
[O-][N+](=O)C1=CC2=C(NC(=O)CN=C2C2=CC=CC=C2Cl)C=C1

>  <JCHEM_ACCEPTOR_COUNT>
4

>  <JCHEM_DONOR_COUNT>
1

>  <JCHEM_ACIDIC_PKA>
11.89

>  <JCHEM_BASIC_PKA>
1.86

>  <JCHEM_PHYSIOLOGICAL_CHARGE>
0

>  <ALOGPS_LOGP>
2.76

>  <JCHEM_LOGP>
3.15

>  <ALOGPS_LOGS>
-4.5

>  <JCHEM_POLARIZABILITY>
29.59

>  <JCHEM_POLAR_SURFACE_AREA>
87.28

>  <JCHEM_REFRACTIVITY>
84.02

>  <JCHEM_ROTATABLE_BOND_COUNT>
2

>  <ALOGPS_SOLUBILITY>
1.06e-02 g/l __

$$$$
DB01081
 OpenBabel03171413512D

 34 37  0  0  0  0  0  0  0  0999 V2000
    3.6020    2.8717    0.0000 O   0  0  0  0  0  0  0  0  0  0  0  0
    4.5704    3.6842    0.0000 O   0  0  0  0  0  0  0  0  0  0  0  0
    4.8396    0.5072    0.0000 N   0  0  0  0  0  0  0  0  0  0  0  0
    5.7751   -1.5553    0.0000 N   0  0  0  0  0  0  0  0  0  0  0  0
    4.8396    2.1573    0.0000 C   0  0  0  0  0  0  0  0  0  0  0  0
    4.1251    1.7447    0.0000 C   0  0  0  0  0  0  0  0  0  0  0  0
    5.5541    1.7447    0.0000 C   0  0  0  0  0  0  0  0  0  0  0  0
    4.1251    0.9197    0.0000 C   0  0  0  0  0  0  0  0  0  0  0  0
    5.5541    0.9197    0.0000 C   0  0  0  0  0  0  0  0  0  0  0  0
    4.8396   -0.3178    0.0000 C   0  0  0  0  0  0  0  0  0  0  0  0
    5.4716    2.6876    0.0000 C   0  0  0  0  0  0  0  0  0  0  0  0
    4.4270    2.8717    0.0000 C   0  0  0  0  0  0  0  0  0  0  0  0
    4.1251   -0.7303    0.0000 C   0  0  0  0  0  0  0  0  0  0  0  0
    4.1251   -1.5553    0.0000 C   0  0  0  0  0  0  0  0  0  0  0  0
    5.3283    3.5001    0.0000 C   0  0  0  0  0  0  0  0  0  0  0  0
    6.2469    2.4054    0.0000 C   0  0  0  0  0  0  0  0  0  0  0  0
    3.3001   -1.5553    0.0000 C   0  0  0  0  0  0  0  0  0  0  0  0
    4.1251   -2.3803    0.0000 C   0  0  0  0  0  0  0  0  0  0  0  0
    5.9603    4.0304    0.0000 C   0  0  0  0  0  0  0  0  0  0  0  0
    6.8788    2.9357    0.0000 C   0  0  0  0  0  0  0  0  0  0  0  0
    4.9501   -1.5553    0.0000 C   0  0  0  0  0  0  0  0  0  0  0  0
    6.7356    3.7482    0.0000 C   0  0  0  0  0  0  0  0  0  0  0  0
    3.1895    3.5863    0.0000 C   0  0  0  0  0  0  0  0  0  0  0  0
    2.8876   -2.2698    0.0000 C   0  0  0  0  0  0  0  0  0  0  0  0
    4.8396   -2.7929    0.0000 C   0  0  0  0  0  0  0  0  0  0  0  0
    2.8876   -0.8409    0.0000 C   0  0  0  0  0  0  0  0  0  0  0  0
    3.4106   -2.7929    0.0000 C   0  0  0  0  0  0  0  0  0  0  0  0
    2.3645    3.5863    0.0000 C   0  0  0  0  0  0  0  0  0  0  0  0
    2.0625   -2.2698    0.0000 C   0  0  0  0  0  0  0  0  0  0  0  0
    4.8396   -3.6179    0.0000 C   0  0  0  0  0  0  0  0  0  0  0  0
    2.0625   -0.8409    0.0000 C   0  0  0  0  0  0  0  0  0  0  0  0
    3.4106   -3.6179    0.0000 C   0  0  0  0  0  0  0  0  0  0  0  0
    1.6500   -1.5553    0.0000 C   0  0  0  0  0  0  0  0  0  0  0  0
    4.1251   -4.0304    0.0000 C   0  0  0  0  0  0  0  0  0  0  0  0
  1 12  1  0  0  0  0
  1 23  1  0  0  0  0
  2 12  2  0  0  0  0
  3  8  1  0  0  0  0
  3  9  1  0  0  0  0
  3 10  1  0  0  0  0
  4 21  3  0  0  0  0
  5  6  1  0  0  0  0
  5  7  1  0  0  0  0
  5 11  1  0  0  0  0
  5 12  1  0  0  0  0
  6  8  1  0  0  0  0
  7  9  1  0  0  0  0
 10 13  1  0  0  0  0
 11 15  2  0  0  0  0
 11 16  1  0  0  0  0
 13 14  1  0  0  0  0
 14 17  1  0  0  0  0
 14 18  1  0  0  0  0
 14 21  1  0  0  0  0
 15 19  1  0  0  0  0
 16 20  2  0  0  0  0
 17 24  2  0  0  0  0
 17 26  1  0  0  0  0
 18 25  2  0  0  0  0
 18 27  1  0  0  0  0
 19 22  2  0  0  0  0
 20 22  1  0  0  0  0
 23 28  1  0  0  0  0
 24 29  1  0  0  0  0
 25 30  1  0  0  0  0
 26 31  2  0  0  0  0
 27 32  2  0  0  0  0
 29 33  2  0  0  0  0
 30 34  2  0  0  0  0
 31 33  1  0  0  0  0
 32 34  1  0  0  0  0
M  END
>  <DRUGBANK_ID>
DB01081

>  <DRUG_GROUPS>
illicit; approved

>  <GENERIC_NAME>
Diphenoxylate

>  <SYNONYMS>
Dea No. 9170; Difenossilato [Dcit]; Difenoxilato [INN-Spanish]; Diphenoxalate; Diphenoxylate Hydrochloride; Diphenoxylatum [INN-Latin]

>  <BRANDS>
Lomotil

>  <CHEMICAL_FORMULA>
C30H32N2O2

>  <MOLECULAR_WEIGHT>
452.5873

>  <EXACT_MASS>
452.246378278

>  <IUPAC_NAME>
ethyl 1-(3-cyano-3,3-diphenylpropyl)-4-phenylpiperidine-4-carboxylate

>  <INCHI_IDENTIFIER>
InChI=1S/C30H32N2O2/c1-2-34-28(33)29(25-12-6-3-7-13-25)18-21-32(22-19-29)23-20-30(24-31,26-14-8-4-9-15-26)27-16-10-5-11-17-27/h3-17H,2,18-23H2,1H3

>  <INCHI_KEY>
InChIKey=HYPPXZBJBPSRLK-UHFFFAOYSA-N

>  <SMILES>
CCOC(=O)C1(CCN(CCC(C#N)(C2=CC=CC=C2)C2=CC=CC=C2)CC1)C1=CC=CC=C1

>  <JCHEM_ACCEPTOR_COUNT>
3

>  <JCHEM_DONOR_COUNT>
0

>  <JCHEM_BASIC_PKA>
8.5

>  <JCHEM_PHYSIOLOGICAL_CHARGE>
1

>  <ALOGPS_LOGP>
5.74

>  <JCHEM_LOGP>
5.88

>  <ALOGPS_LOGS>
-5.5

>  <JCHEM_POLARIZABILITY>
51.58

>  <JCHEM_POLAR_SURFACE_AREA>
53.33

>  <JCHEM_REFRACTIVITY>
146.76

>  <JCHEM_ROTATABLE_BOND_COUNT>
9

>  <ALOGPS_SOLUBILITY>
1.46e-03 g/l __

$$$$
DB01105
 OpenBabel03171413512D

 19 20  0  0  1  0  0  0  0  0999 V2000
    4.1251   -2.3645    0.0000 Cl  0  0  0  0  0  0  0  0  0  0  0  0
    2.8876    1.6500    0.0000 N   0  0  0  0  0  0  0  0  0  0  0  0
    4.1251    0.9356    0.0000 C   0  0  0  0  0  0  0  0  0  0  0  0
    4.9501    0.9356    0.0000 C   0  0  0  0  0  0  0  0  0  0  0  0
    4.1251    1.7606    0.0000 C   0  0  0  0  0  0  0  0  0  0  0  0
    3.3001    0.9356    0.0000 C   0  0  3  0  0  0  0  0  0  0  0  0
    4.9501    1.7606    0.0000 C   0  0  0  0  0  0  0  0  0  0  0  0
    4.1251    0.1106    0.0000 C   0  0  0  0  0  0  0  0  0  0  0  0
    2.8876    0.2210    0.0000 C   0  0  0  0  0  0  0  0  0  0  0  0
    2.0625    0.2210    0.0000 C   0  0  0  0  0  0  0  0  0  0  0  0
    4.8396   -0.3020    0.0000 C   0  0  0  0  0  0  0  0  0  0  0  0
    3.4106   -0.3020    0.0000 C   0  0  0  0  0  0  0  0  0  0  0  0
    2.0625    1.6500    0.0000 C   0  0  0  0  0  0  0  0  0  0  0  0
    3.3001    2.3645    0.0000 C   0  0  0  0  0  0  0  0  0  0  0  0
    1.6500   -0.4934    0.0000 C   0  0  0  0  0  0  0  0  0  0  0  0
    1.6500    0.9356    0.0000 C   0  0  0  0  0  0  0  0  0  0  0  0
    4.8396   -1.1270    0.0000 C   0  0  0  0  0  0  0  0  0  0  0  0
    3.4106   -1.1270    0.0000 C   0  0  0  0  0  0  0  0  0  0  0  0
    4.1251   -1.5395    0.0000 C   0  0  0  0  0  0  0  0  0  0  0  0
  1 19  1  0  0  0  0
  2  6  1  0  0  0  0
  2 13  1  0  0  0  0
  2 14  1  0  0  0  0
  3  4  1  0  0  0  0
  3  5  1  0  0  0  0
  3  6  1  0  0  0  0
  3  8  1  0  0  0  0
  4  7  1  0  0  0  0
  5  7  1  0  0  0  0
  6  9  1  0  0  0  0
  8 11  2  0  0  0  0
  8 12  1  0  0  0  0
  9 10  1  0  0  0  0
 10 15  1  0  0  0  0
 10 16  1  0  0  0  0
 11 17  1  0  0  0  0
 12 18  2  0  0  0  0
 17 19  2  0  0  0  0
 18 19  1  0  0  0  0
M  END
>  <DRUGBANK_ID>
DB01105

>  <DRUG_GROUPS>
illicit; approved; withdrawn; investigational

>  <GENERIC_NAME>
Sibutramine

>  <SYNONYMS>
Sibutramina [Spanish]; Sibutraminum [Latin]

>  <BRANDS>
Butramin; Medaria; Meridia; Reductil

>  <CHEMICAL_FORMULA>
C17H26ClN

>  <MOLECULAR_WEIGHT>
279.848

>  <EXACT_MASS>
279.175377544

>  <IUPAC_NAME>
{1-[1-(4-chlorophenyl)cyclobutyl]-3-methylbutyl}dimethylamine

>  <INCHI_IDENTIFIER>
InChI=1S/C17H26ClN/c1-13(2)12-16(19(3)4)17(10-5-11-17)14-6-8-15(18)9-7-14/h6-9,13,16H,5,10-12H2,1-4H3

>  <INCHI_KEY>
InChIKey=UNAANXDKBXWMLN-UHFFFAOYSA-N

>  <SMILES>
CC(C)CC(N(C)C)C1(CCC1)C1=CC=C(Cl)C=C1

>  <JCHEM_ACCEPTOR_COUNT>
1

>  <JCHEM_DONOR_COUNT>
0

>  <JCHEM_BASIC_PKA>
9.77

>  <JCHEM_PHYSIOLOGICAL_CHARGE>
1

>  <ALOGPS_LOGP>
5.05

>  <JCHEM_LOGP>
5.2

>  <ALOGPS_LOGS>
-5.5

>  <JCHEM_POLARIZABILITY>
32.9

>  <JCHEM_POLAR_SURFACE_AREA>
3.24

>  <JCHEM_REFRACTIVITY>
83.92

>  <JCHEM_ROTATABLE_BOND_COUNT>
5

>  <ALOGPS_SOLUBILITY>
9.40e-04 g/l __

$$$$
DB01107
 OpenBabel03171413512D

 13 13  0  0  1  0  0  0  0  0999 V2000
    1.6500    0.1106    0.0000 O   0  0  0  0  0  0  0  0  0  0  0  0
    4.5080    0.1106    0.0000 O   0  0  0  0  0  0  0  0  0  0  0  0
    3.7935   -1.1270    0.0000 N   0  0  0  0  0  0  0  0  0  0  0  0
    3.0791    0.1106    0.0000 C   0  0  0  0  0  0  0  0  0  0  0  0
    2.3645   -1.1270    0.0000 C   0  0  3  0  0  0  0  0  0  0  0  0
    2.3645   -0.3020    0.0000 C   0  0  0  0  0  0  0  0  0  0  0  0
    2.6665    0.8250    0.0000 C   0  0  0  0  0  0  0  0  0  0  0  0
    3.4916    0.8250    0.0000 C   0  0  0  0  0  0  0  0  0  0  0  0
    3.7935   -0.3020    0.0000 C   0  0  0  0  0  0  0  0  0  0  0  0
    3.0791   -1.5395    0.0000 C   0  0  0  0  0  0  0  0  0  0  0  0
    1.6500   -1.5395    0.0000 C   0  0  0  0  0  0  0  0  0  0  0  0
    1.8415    0.8250    0.0000 C   0  0  0  0  0  0  0  0  0  0  0  0
    3.0791    1.5395    0.0000 C   0  0  0  0  0  0  0  0  0  0  0  0
  1  6  2  0  0  0  0
  2  9  2  0  0  0  0
  3  9  1  0  0  0  0
  3 10  1  0  0  0  0
  4  6  1  0  0  0  0
  4  7  1  0  0  0  0
  4  8  1  0  0  0  0
  4  9  1  0  0  0  0
  5  6  1  0  0  0  0
  5 10  1  0  0  0  0
  5 11  1  0  0  0  0
  7 12  1  0  0  0  0
  8 13  1  0  0  0  0
M  END
>  <DRUGBANK_ID>
DB01107

>  <DRUG_GROUPS>
illicit; approved; withdrawn

>  <GENERIC_NAME>
Methyprylon

>  <SYNONYMS>
Dea No. 2575; Methprylon; Methyprolon; Methyprylon [INN]; Methyprylone [INN-French]; Methyprylonum [INN-Latin]; Metiprilon; Metiprilona [INN-Spanish]; Metiprilone

>  <BRANDS>
Dimerin; Noctan; Nodular; Noludar

>  <CHEMICAL_FORMULA>
C10H17NO2

>  <MOLECULAR_WEIGHT>
183.2475

>  <EXACT_MASS>
183.125928793

>  <IUPAC_NAME>
3,3-diethyl-5-methylpiperidine-2,4-dione

>  <INCHI_IDENTIFIER>
InChI=1S/C10H17NO2/c1-4-10(5-2)8(12)7(3)6-11-9(10)13/h7H,4-6H2,1-3H3,(H,11,13)

>  <INCHI_KEY>
InChIKey=SIDLZWOQUZRBRU-UHFFFAOYSA-N

>  <SMILES>
CCC1(CC)C(=O)NCC(C)C1=O

>  <JCHEM_ACCEPTOR_COUNT>
2

>  <JCHEM_DONOR_COUNT>
1

>  <JCHEM_ACIDIC_PKA>
14.53

>  <JCHEM_BASIC_PKA>
-3.1

>  <JCHEM_PHYSIOLOGICAL_CHARGE>
0

>  <ALOGPS_LOGP>
0.94

>  <JCHEM_LOGP>
1.88

>  <ALOGPS_LOGS>
-1.2

>  <JCHEM_POLARIZABILITY>
19.95

>  <JCHEM_POLAR_SURFACE_AREA>
46.17

>  <JCHEM_REFRACTIVITY>
50.25

>  <JCHEM_ROTATABLE_BOND_COUNT>
2

>  <ALOGPS_SOLUBILITY>
1.13e+01 g/l __

$$$$
DB01185
 OpenBabel03171413512D

 26 29  0  0  1  0  0  0  0  0999 V2000
    4.1396    0.5667    0.0000 F   0  0  0  0  0  0  0  0  0  0  0  0
    7.5474    1.4947    0.0000 O   0  0  0  0  0  0  0  0  0  0  0  0
    3.9555    1.1722    0.0000 O   0  0  0  0  0  0  0  0  0  0  0  0
    1.6498   -1.7582    0.0000 O   0  0  0  0  0  0  0  0  0  0  0  0
    6.0987    0.7597    0.0000 C   0  0  1  0  0  0  0  0  0  0  0  0
    6.0987   -0.0653    0.0000 C   0  0  2  0  0  0  0  0  0  0  0  0
    5.3843   -0.4777    0.0000 C   0  0  1  0  0  0  0  0  0  0  0  0
    4.6698   -0.0653    0.0000 C   0  0  2  0  0  0  0  0  0  0  0  0
    6.8793    1.0111    0.0000 C   0  0  2  0  0  0  0  0  0  0  0  0
    5.3843    1.1722    0.0000 C   0  0  0  0  0  0  0  0  0  0  0  0
    3.9192   -0.4833    0.0000 C   0  0  2  0  0  0  0  0  0  0  0  0
    4.6698    0.7597    0.0000 C   0  0  2  0  0  0  0  0  0  0  0  0
    6.8793   -0.3166    0.0000 C   0  0  0  0  0  0  0  0  0  0  0  0
    7.3607    0.3473    0.0000 C   0  0  0  0  0  0  0  0  0  0  0  0
    5.3975   -1.3368    0.0000 C   0  0  0  0  0  0  0  0  0  0  0  0
    6.0987    1.5846    0.0000 C   0  0  0  0  0  0  0  0  0  0  0  0
    3.9126   -1.3425    0.0000 C   0  0  0  0  0  0  0  0  0  0  0  0
    4.6567   -1.7722    0.0000 C   0  0  0  0  0  0  0  0  0  0  0  0
    3.1546   -0.0180    0.0000 C   0  0  0  0  0  0  0  0  0  0  0  0
    6.6257    1.7960    0.0000 C   0  0  0  0  0  0  0  0  0  0  0  0
    3.6431    0.2940    0.0000 C   0  0  0  0  0  0  0  0  0  0  0  0
    2.3727   -0.4535    0.0000 C   0  0  0  0  0  0  0  0  0  0  0  0
    3.1409   -1.7960    0.0000 C   0  0  0  0  0  0  0  0  0  0  0  0
    2.3658   -1.3485    0.0000 C   0  0  0  0  0  0  0  0  0  0  0  0
    6.1685   -0.7215    0.0000 H   0  0  0  0  0  0  0  0  0  0  0  0
    5.9583   -0.8032    0.0000 H   0  0  0  0  0  0  0  0  0  0  0  0
  4 24  2  0  0  0  0
  5  6  1  0  0  0  0
  5  9  1  0  0  0  0
  5 10  1  0  0  0  0
  5 16  1  1  0  0  0
  6  7  1  0  0  0  0
  6 13  1  0  0  0  0
  6 25  1  6  0  0  0
  7  8  1  0  0  0  0
  7 15  1  0  0  0  0
  7 26  1  1  0  0  0
  8  1  1  6  0  0  0
  8 11  1  0  0  0  0
  8 12  1  0  0  0  0
  9  2  1  1  0  0  0
  9 14  1  0  0  0  0
  9 20  1  0  0  0  0
 10 12  1  0  0  0  0
 11 17  1  0  0  0  0
 11 19  1  0  0  0  0
 11 21  1  1  0  0  0
 12  3  1  1  0  0  0
 13 14  1  0  0  0  0
 15 18  1  0  0  0  0
 17 18  1  0  0  0  0
 17 23  2  0  0  0  0
 19 22  1  0  0  0  0
 22 24  1  0  0  0  0
 23 24  1  0  0  0  0
M  END
>  <DRUGBANK_ID>
DB01185

>  <DRUG_GROUPS>
illicit; approved

>  <GENERIC_NAME>
Fluoxymesterone

>  <SYNONYMS>
Androfluorene; Androfluorone; Fluossimesterone [DCIT]; Fluoximesterona [INN-Spanish]; Fluoximesterone; Fluoximesteronum; Fluoxymesteronum [INN-Latin]; Fluoxymestrone

>  <BRANDS>
Anadroid-F; Android-f; Androsterolo; Fluosterone; Fluotestin; Flusteron; Flutestos; Halotestin; Neo-Ormonal; Ora Testryl; Ora-testryl; Oralsterone; Oratestin; Testoral; Ultandren; Ultandrene

>  <CHEMICAL_FORMULA>
C20H29FO3

>  <MOLECULAR_WEIGHT>
336.4409

>  <EXACT_MASS>
336.210072999

>  <IUPAC_NAME>
(1R,2S,10S,11S,14S,15S,17S)-1-fluoro-14,17-dihydroxy-2,14,15-trimethyltetracyclo[8.7.0.0^{2,7}.0^{11,15}]heptadec-6-en-5-one

>  <INCHI_IDENTIFIER>
InChI=1S/C20H29FO3/c1-17-8-6-13(22)10-12(17)4-5-15-14-7-9-19(3,24)18(14,2)11-16(23)20(15,17)21/h10,14-16,23-24H,4-9,11H2,1-3H3/t14-,15-,16-,17-,18-,19-,20-/m0/s1

>  <INCHI_KEY>
InChIKey=YLRFCQOZQXIBAB-RBZZARIASA-N

>  <SMILES>
[H][C@@]12CC[C@](C)(O)[C@@]1(C)C[C@H](O)[C@@]1(F)[C@@]2([H])CCC2=CC(=O)CC[C@]12C

>  <JCHEM_ACCEPTOR_COUNT>
3

>  <JCHEM_DONOR_COUNT>
2

>  <JCHEM_ACIDIC_PKA>
13.6

>  <JCHEM_BASIC_PKA>
-3

>  <JCHEM_PHYSIOLOGICAL_CHARGE>
0

>  <ALOGPS_LOGP>
2.5

>  <JCHEM_LOGP>
2.38

>  <ALOGPS_LOGS>
-3.9

>  <JCHEM_POLARIZABILITY>
36.63

>  <JCHEM_POLAR_SURFACE_AREA>
57.53

>  <JCHEM_REFRACTIVITY>
90.19

>  <JCHEM_ROTATABLE_BOND_COUNT>
0

>  <ALOGPS_SOLUBILITY>
4.52e-02 g/l __

$$$$
DB01191
 OpenBabel03171413512D

 16 16  0  0  1  0  0  0  0  0999 V2000
    4.1890   -6.4628    0.0000 C   0  0  0  0  0  0  0  0  0  0  0  0
    4.9035   -6.0503    0.0000 C   0  0  0  0  0  0  0  0  0  0  0  0
    5.6179   -6.4628    0.0000 C   0  0  0  0  0  0  0  0  0  0  0  0
    6.3324   -6.0503    0.0000 C   0  0  0  0  0  0  0  0  0  0  0  0
    4.1890   -7.2879    0.0000 F   0  0  0  0  0  0  0  0  0  0  0  0
    3.4745   -6.0503    0.0000 F   0  0  0  0  0  0  0  0  0  0  0  0
    7.0469   -6.4628    0.0000 C   0  0  0  0  0  0  0  0  0  0  0  0
    7.7614   -5.2253    0.0000 N   0  0  0  0  0  0  0  0  0  0  0  0
    4.9035   -5.2253    0.0000 C   0  0  0  0  0  0  0  0  0  0  0  0
    7.7614   -6.0503    0.0000 C   0  0  1  0  0  0  0  0  0  0  0  0
    5.6179   -4.8128    0.0000 C   0  0  0  0  0  0  0  0  0  0  0  0
    6.3324   -5.2253    0.0000 C   0  0  0  0  0  0  0  0  0  0  0  0
    8.4759   -6.4628    0.0000 C   0  0  0  0  0  0  0  0  0  0  0  0
    3.4690   -6.8822    0.0000 F   0  0  0  0  0  0  0  0  0  0  0  0
    7.0469   -4.8128    0.0000 C   0  0  0  0  0  0  0  0  0  0  0  0
    7.0469   -3.9878    0.0000 C   0  0  0  0  0  0  0  0  0  0  0  0
  1 14  1  0  0  0  0
  2  1  1  0  0  0  0
  3  2  2  0  0  0  0
  4  3  1  0  0  0  0
  5  1  1  0  0  0  0
  6  1  1  0  0  0  0
  7  4  1  0  0  0  0
  8 15  1  0  0  0  0
  9  2  1  0  0  0  0
 10  7  1  1  0  0  0
 10  8  1  0  0  0  0
 11  9  2  0  0  0  0
 12  4  2  0  0  0  0
 12 11  1  0  0  0  0
 13 10  1  0  0  0  0
 15 16  1  0  0  0  0
M  END
>  <DRUGBANK_ID>
DB01191

>  <DRUG_GROUPS>
illicit; approved; withdrawn

>  <GENERIC_NAME>
Dexfenfluramine

>  <SYNONYMS>
(+)-fenfluramine; (S)-fenfluramine; Dextrofenfluramine

>  <BRANDS>
Adifax; Redux

>  <CHEMICAL_FORMULA>
C12H16F3N

>  <MOLECULAR_WEIGHT>
231.2573

>  <EXACT_MASS>
231.123484132

>  <IUPAC_NAME>
ethyl[(2S)-1-[3-(trifluoromethyl)phenyl]propan-2-yl]amine

>  <INCHI_IDENTIFIER>
InChI=1S/C12H16F3N/c1-3-16-9(2)7-10-5-4-6-11(8-10)12(13,14)15/h4-6,8-9,16H,3,7H2,1-2H3/t9-/m0/s1

>  <INCHI_KEY>
InChIKey=DBGIVFWFUFKIQN-VIFPVBQESA-N

>  <SMILES>
CCN[C@@H](C)CC1=CC=CC(=C1)C(F)(F)F

>  <JCHEM_ACCEPTOR_COUNT>
1

>  <JCHEM_DONOR_COUNT>
1

>  <JCHEM_BASIC_PKA>
10.22

>  <JCHEM_PHYSIOLOGICAL_CHARGE>
1

>  <ALOGPS_LOGP>
3.3

>  <JCHEM_LOGP>
3.47

>  <ALOGPS_LOGS>
-4

>  <JCHEM_POLARIZABILITY>
22.69

>  <JCHEM_POLAR_SURFACE_AREA>
12.03

>  <JCHEM_REFRACTIVITY>
59.2

>  <JCHEM_ROTATABLE_BOND_COUNT>
5

>  <ALOGPS_SOLUBILITY>
2.15e-02 g/l __

$$$$
DB01215
 OpenBabel03171413512D

 21 24  0  0  0  0  0  0  0  0999 V2000
    1.6500   -0.4448    0.0000 Cl  0  0  0  0  0  0  0  0  0  0  0  0
    4.8158   -1.5395    0.0000 N   0  0  0  0  0  0  0  0  0  0  0  0
    5.2283    0.2678    0.0000 N   0  0  0  0  0  0  0  0  0  0  0  0
    6.1244   -1.7758    0.0000 N   0  0  0  0  0  0  0  0  0  0  0  0
    5.7351   -2.4977    0.0000 N   0  0  0  0  0  0  0  0  0  0  0  0
    4.0726   -1.1816    0.0000 C   0  0  0  0  0  0  0  0  0  0  0  0
    3.8890   -0.3773    0.0000 C   0  0  0  0  0  0  0  0  0  0  0  0
    4.4033    0.2678    0.0000 C   0  0  0  0  0  0  0  0  0  0  0  0
    5.5592   -1.1816    0.0000 C   0  0  0  0  0  0  0  0  0  0  0  0
    5.7427   -0.3773    0.0000 C   0  0  0  0  0  0  0  0  0  0  0  0
    4.0455    1.0110    0.0000 C   0  0  0  0  0  0  0  0  0  0  0  0
    3.4517   -1.7757    0.0000 C   0  0  0  0  0  0  0  0  0  0  0  0
    3.0718   -0.1113    0.0000 C   0  0  0  0  0  0  0  0  0  0  0  0
    4.9280   -2.3519    0.0000 C   0  0  0  0  0  0  0  0  0  0  0  0
    2.6286   -1.5287    0.0000 C   0  0  0  0  0  0  0  0  0  0  0  0
    2.4374   -0.6909    0.0000 C   0  0  0  0  0  0  0  0  0  0  0  0
    4.5102    1.6927    0.0000 C   0  0  0  0  0  0  0  0  0  0  0  0
    3.2227    1.0727    0.0000 C   0  0  0  0  0  0  0  0  0  0  0  0
    4.1522    2.4360    0.0000 C   0  0  0  0  0  0  0  0  0  0  0  0
    2.8648    1.8160    0.0000 C   0  0  0  0  0  0  0  0  0  0  0  0
    3.3295    2.4977    0.0000 C   0  0  0  0  0  0  0  0  0  0  0  0
  1 16  1  0  0  0  0
  2  6  1  0  0  0  0
  2  9  1  0  0  0  0
  2 14  1  0  0  0  0
  3  8  2  0  0  0  0
  3 10  1  0  0  0  0
  4  5  1  0  0  0  0
  4  9  2  0  0  0  0
  5 14  2  0  0  0  0
  6  7  2  0  0  0  0
  6 12  1  0  0  0  0
  7  8  1  0  0  0  0
  7 13  1  0  0  0  0
  8 11  1  0  0  0  0
  9 10  1  0  0  0  0
 11 17  2  0  0  0  0
 11 18  1  0  0  0  0
 12 15  2  0  0  0  0
 13 16  2  0  0  0  0
 15 16  1  0  0  0  0
 17 19  1  0  0  0  0
 18 20  2  0  0  0  0
 19 21  2  0  0  0  0
 20 21  1  0  0  0  0
M  END
>  <DRUGBANK_ID>
DB01215

>  <DRUG_GROUPS>
illicit; approved

>  <GENERIC_NAME>
Estazolam

>  <BRANDS>
Cannoc; Esilgan; Eurodin; Julodin; Nemurel; Nuctalon; ProSom; Somnatrol

>  <CHEMICAL_FORMULA>
C16H11ClN4

>  <MOLECULAR_WEIGHT>
294.738

>  <EXACT_MASS>
294.067224079

>  <IUPAC_NAME>
12-chloro-9-phenyl-2,4,5,8-tetraazatricyclo[8.4.0.0^{2,6}]tetradeca-1(10),3,5,8,11,13-hexaene

>  <INCHI_IDENTIFIER>
InChI=1S/C16H11ClN4/c17-12-6-7-14-13(8-12)16(11-4-2-1-3-5-11)18-9-15-20-19-10-21(14)15/h1-8,10H,9H2

>  <INCHI_KEY>
InChIKey=CDCHDCWJMGXXRH-UHFFFAOYSA-N

>  <SMILES>
ClC1=CC2=C(C=C1)N1C=NN=C1CN=C2C1=CC=CC=C1

>  <JCHEM_ACCEPTOR_COUNT>
3

>  <JCHEM_DONOR_COUNT>
0

>  <JCHEM_ACIDIC_PKA>
18.4

>  <JCHEM_BASIC_PKA>
4.97

>  <JCHEM_PHYSIOLOGICAL_CHARGE>
0

>  <ALOGPS_LOGP>
1.72

>  <JCHEM_LOGP>
2.09

>  <ALOGPS_LOGS>
-3.8

>  <JCHEM_POLARIZABILITY>
29.83

>  <JCHEM_POLAR_SURFACE_AREA>
43.07

>  <JCHEM_REFRACTIVITY>
94.44

>  <JCHEM_ROTATABLE_BOND_COUNT>
1

>  <ALOGPS_SOLUBILITY>
4.23e-02 g/l __

$$$$
DB01230
 OpenBabel03171413512D

 13 14  0  0  1  0  0  0  0  0999 V2000
    2.3888    0.5203    0.0000 O   0  0  0  0  0  0  0  0  0  0  0  0
    4.5083    0.2653    0.0000 O   0  0  0  0  0  0  0  0  0  0  0  0
    3.4687    1.3049    0.0000 N   0  0  0  0  0  0  0  0  0  0  0  0
    2.1587    1.9724    0.0000 N   0  0  0  0  0  0  0  0  0  0  0  0
    3.0562    0.0354    0.0000 C   0  0  3  0  0  0  0  0  0  0  0  0
    3.0562   -0.7896    0.0000 C   0  0  0  0  0  0  0  0  0  0  0  0
    3.7236    0.5203    0.0000 C   0  0  0  0  0  0  0  0  0  0  0  0
    3.7707   -1.2021    0.0000 C   0  0  0  0  0  0  0  0  0  0  0  0
    2.3417   -1.2021    0.0000 C   0  0  0  0  0  0  0  0  0  0  0  0
    2.6437    1.3049    0.0000 C   0  0  0  0  0  0  0  0  0  0  0  0
    3.7707   -2.0272    0.0000 C   0  0  0  0  0  0  0  0  0  0  0  0
    2.3417   -2.0272    0.0000 C   0  0  0  0  0  0  0  0  0  0  0  0
    3.0562   -2.4397    0.0000 C   0  0  0  0  0  0  0  0  0  0  0  0
  1  5  1  0  0  0  0
  1 10  1  0  0  0  0
  2  7  2  0  0  0  0
  3  7  1  0  0  0  0
  3 10  2  0  0  0  0
  4 10  1  0  0  0  0
  5  6  1  0  0  0  0
  5  7  1  0  0  0  0
  6  8  2  0  0  0  0
  6  9  1  0  0  0  0
  8 11  1  0  0  0  0
  9 12  2  0  0  0  0
 11 13  2  0  0  0  0
 12 13  1  0  0  0  0
M  END
>  <DRUGBANK_ID>
DB01230

>  <DRUG_GROUPS>
illicit; withdrawn

>  <GENERIC_NAME>
Pemoline

>  <SYNONYMS>
Pheniminooxazolidinone; Phenoxazole; Phenylisohydantoin; Phenylpseudohydantoin

>  <BRANDS>
Azoksodon; Azoxodon; Azoxodone; Betanamin; Centramin; Constimol; Cylert; Cylert Chewable; Dantromin; Deltamine; Endolin; Fenoxazol; Fio; Hyton; Hyton asa; Juston-Wirkstoff; Kethamed; Myamin; Nitan; Notair; NPL 1; Okodon; Pemolin; Pemolina; Phenalone; Phenilone; PIO; Pioxol; Pomoline; Pondex; Ronyl; Senior; Sigmadyn; Sistra; Sistral; Stimul; Stimulol; Tradon; Tradone; Volital; Volitol; Yh 1

>  <CHEMICAL_FORMULA>
C9H8N2O2

>  <MOLECULAR_WEIGHT>
176.172

>  <EXACT_MASS>
176.05857751

>  <IUPAC_NAME>
2-amino-5-phenyl-4,5-dihydro-1,3-oxazol-4-one

>  <INCHI_IDENTIFIER>
InChI=1S/C9H8N2O2/c10-9-11-8(12)7(13-9)6-4-2-1-3-5-6/h1-5,7H,(H2,10,11,12)

>  <INCHI_KEY>
InChIKey=NRNCYVBFPDDJNE-UHFFFAOYSA-N

>  <SMILES>
NC1=NC(=O)C(O1)C1=CC=CC=C1

>  <JCHEM_ACCEPTOR_COUNT>
4

>  <JCHEM_DONOR_COUNT>
1

>  <JCHEM_ACIDIC_PKA>
14.95

>  <JCHEM_BASIC_PKA>
0.99

>  <JCHEM_PHYSIOLOGICAL_CHARGE>
0

>  <ALOGPS_LOGP>
0.52

>  <JCHEM_LOGP>
0.8

>  <ALOGPS_LOGS>
-2.3

>  <JCHEM_POLARIZABILITY>
17.04

>  <JCHEM_POLAR_SURFACE_AREA>
64.68

>  <JCHEM_REFRACTIVITY>
45.7

>  <JCHEM_ROTATABLE_BOND_COUNT>
1

>  <ALOGPS_SOLUBILITY>
9.79e-01 g/l __

$$$$
DB01351
 OpenBabel03171413512D

 16 16  0  0  0  0  0  0  0  0999 V2000
    4.5080   -0.1915    0.0000 O   0  0  0  0  0  0  0  0  0  0  0  0
    1.6500   -0.1915    0.0000 O   0  0  0  0  0  0  0  0  0  0  0  0
    3.0791   -2.6665    0.0000 O   0  0  0  0  0  0  0  0  0  0  0  0
    3.7935   -1.4290    0.0000 N   0  0  0  0  0  0  0  0  0  0  0  0
    2.3645   -1.4290    0.0000 N   0  0  0  0  0  0  0  0  0  0  0  0
    3.0791   -0.1915    0.0000 C   0  0  0  0  0  0  0  0  0  0  0  0
    3.4916    0.5231    0.0000 C   0  0  0  0  0  0  0  0  0  0  0  0
    3.0791    1.2375    0.0000 C   0  0  0  0  0  0  0  0  0  0  0  0
    2.6665    0.5231    0.0000 C   0  0  0  0  0  0  0  0  0  0  0  0
    3.4916    1.9520    0.0000 C   0  0  0  0  0  0  0  0  0  0  0  0
    3.7935   -0.6040    0.0000 C   0  0  0  0  0  0  0  0  0  0  0  0
    2.3645   -0.6040    0.0000 C   0  0  0  0  0  0  0  0  0  0  0  0
    1.8415    0.5231    0.0000 C   0  0  0  0  0  0  0  0  0  0  0  0
    4.3166    1.9520    0.0000 C   0  0  0  0  0  0  0  0  0  0  0  0
    3.0791    2.6665    0.0000 C   0  0  0  0  0  0  0  0  0  0  0  0
    3.0791   -1.8415    0.0000 C   0  0  0  0  0  0  0  0  0  0  0  0
  1 11  2  0  0  0  0
  2 12  2  0  0  0  0
  3 16  2  0  0  0  0
  4 11  1  0  0  0  0
  4 16  1  0  0  0  0
  5 12  1  0  0  0  0
  5 16  1  0  0  0  0
  6  7  1  0  0  0  0
  6  9  1  0  0  0  0
  6 11  1  0  0  0  0
  6 12  1  0  0  0  0
  7  8  1  0  0  0  0
  8 10  1  0  0  0  0
  9 13  1  0  0  0  0
 10 14  1  0  0  0  0
 10 15  1  0  0  0  0
M  END
>  <DRUGBANK_ID>
DB01351

>  <DRUG_GROUPS>
illicit; approved

>  <GENERIC_NAME>
Amobarbital

>  <BRANDS>
Isomytal

>  <CHEMICAL_FORMULA>
C11H18N2O3

>  <MOLECULAR_WEIGHT>
226.2722

>  <EXACT_MASS>
226.131742452

>  <IUPAC_NAME>
5-ethyl-5-(3-methylbutyl)-1,3-diazinane-2,4,6-trione

>  <INCHI_IDENTIFIER>
InChI=1S/C11H18N2O3/c1-4-11(6-5-7(2)3)8(14)12-10(16)13-9(11)15/h7H,4-6H2,1-3H3,(H2,12,13,14,15,16)

>  <INCHI_KEY>
InChIKey=VIROVYVQCGLCII-UHFFFAOYSA-N

>  <SMILES>
CCC1(CCC(C)C)C(=O)NC(=O)NC1=O

>  <JCHEM_ACCEPTOR_COUNT>
3

>  <JCHEM_DONOR_COUNT>
2

>  <JCHEM_ACIDIC_PKA>
8.48

>  <JCHEM_PHYSIOLOGICAL_CHARGE>
0

>  <ALOGPS_LOGP>
1.87

>  <JCHEM_LOGP>
1.89

>  <ALOGPS_LOGS>
-2.4

>  <JCHEM_POLARIZABILITY>
23.45

>  <JCHEM_POLAR_SURFACE_AREA>
75.27

>  <JCHEM_REFRACTIVITY>
58

>  <JCHEM_ROTATABLE_BOND_COUNT>
4

>  <ALOGPS_SOLUBILITY>
8.97e-01 g/l __

$$$$
DB01352
 OpenBabel03171413512D

 15 15  0  0  0  0  0  0  0  0999 V2000
    1.8569   -2.6352    0.0000 C   0  0  0  0  0  0  0  0  0  0  0  0
    2.2695   -1.9208    0.0000 C   0  0  0  0  0  0  0  0  0  0  0  0
    1.8569   -1.2063    0.0000 C   0  0  0  0  0  0  0  0  0  0  0  0
    3.0945   -1.9208    0.0000 C   0  0  0  0  0  0  0  0  0  0  0  0
    2.6820   -2.6352    0.0000 C   0  0  0  0  0  0  0  0  0  0  0  0
    3.0945   -3.3497    0.0000 C   0  0  0  0  0  0  0  0  0  0  0  0
    3.0945   -1.0958    0.0000 C   0  0  0  0  0  0  0  0  0  0  0  0
    2.3800   -0.6832    0.0000 O   0  0  0  0  0  0  0  0  0  0  0  0
    3.8089   -0.6832    0.0000 N   0  0  0  0  0  0  0  0  0  0  0  0
    4.5234   -1.0958    0.0000 C   0  0  0  0  0  0  0  0  0  0  0  0
    5.2379   -0.6832    0.0000 O   0  0  0  0  0  0  0  0  0  0  0  0
    4.5234   -1.9208    0.0000 N   0  0  0  0  0  0  0  0  0  0  0  0
    3.8089   -2.3333    0.0000 C   0  0  0  0  0  0  0  0  0  0  0  0
    3.8089   -3.1583    0.0000 O   0  0  0  0  0  0  0  0  0  0  0  0
    2.6820   -4.0642    0.0000 C   0  0  0  0  0  0  0  0  0  0  0  0
  1  2  1  0  0  0  0
  2  3  1  0  0  0  0
  2  4  1  0  0  0  0
  4  5  1  0  0  0  0
  4  7  1  0  0  0  0
  4 13  1  0  0  0  0
  5  6  1  0  0  0  0
  7  8  2  0  0  0  0
  7  9  1  0  0  0  0
  9 10  1  0  0  0  0
 10 11  2  0  0  0  0
 10 12  1  0  0  0  0
 12 13  1  0  0  0  0
 13 14  2  0  0  0  0
 15  6  2  0  0  0  0
M  END
>  <DRUGBANK_ID>
DB01352

>  <DRUG_GROUPS>
illicit; approved

>  <GENERIC_NAME>
Aprobarbital

>  <CHEMICAL_FORMULA>
C10H14N2O3

>  <MOLECULAR_WEIGHT>
210.2298

>  <EXACT_MASS>
210.100442324

>  <IUPAC_NAME>
5-(prop-2-en-1-yl)-5-(propan-2-yl)-1,3-diazinane-2,4,6-trione

>  <INCHI_IDENTIFIER>
InChI=1S/C10H14N2O3/c1-4-5-10(6(2)3)7(13)11-9(15)12-8(10)14/h4,6H,1,5H2,2-3H3,(H2,11,12,13,14,15)

>  <INCHI_KEY>
InChIKey=UORJNBVJVRLXMQ-UHFFFAOYSA-N

>  <SMILES>
CC(C)C1(CC=C)C(=O)NC(=O)NC1=O

>  <JCHEM_ACCEPTOR_COUNT>
3

>  <JCHEM_DONOR_COUNT>
2

>  <JCHEM_ACIDIC_PKA>
8.48

>  <JCHEM_PHYSIOLOGICAL_CHARGE>
0

>  <ALOGPS_LOGP>
1.24

>  <JCHEM_LOGP>
1.14

>  <ALOGPS_LOGS>
-1.6

>  <JCHEM_POLARIZABILITY>
20.5

>  <JCHEM_POLAR_SURFACE_AREA>
75.27

>  <JCHEM_REFRACTIVITY>
53.45

>  <JCHEM_ROTATABLE_BOND_COUNT>
3

>  <ALOGPS_SOLUBILITY>
5.17e+00 g/l __

$$$$
DB01353
 OpenBabel03171413512D

 15 15  0  0  0  0  0  0  0  0999 V2000
    1.6500   -0.1915    0.0000 O   0  0  0  0  0  0  0  0  0  0  0  0
    4.5080   -0.1915    0.0000 O   0  0  0  0  0  0  0  0  0  0  0  0
    3.0791   -2.6665    0.0000 O   0  0  0  0  0  0  0  0  0  0  0  0
    2.3645   -1.4290    0.0000 N   0  0  0  0  0  0  0  0  0  0  0  0
    3.7935   -1.4290    0.0000 N   0  0  0  0  0  0  0  0  0  0  0  0
    3.0791   -0.1915    0.0000 C   0  0  0  0  0  0  0  0  0  0  0  0
    3.4916    0.5231    0.0000 C   0  0  0  0  0  0  0  0  0  0  0  0
    2.6665    0.5231    0.0000 C   0  0  0  0  0  0  0  0  0  0  0  0
    3.0791    1.2375    0.0000 C   0  0  0  0  0  0  0  0  0  0  0  0
    2.3645   -0.6040    0.0000 C   0  0  0  0  0  0  0  0  0  0  0  0
    3.7935   -0.6040    0.0000 C   0  0  0  0  0  0  0  0  0  0  0  0
    3.4916    1.9520    0.0000 C   0  0  0  0  0  0  0  0  0  0  0  0
    1.8415    0.5231    0.0000 C   0  0  0  0  0  0  0  0  0  0  0  0
    3.0791   -1.8415    0.0000 C   0  0  0  0  0  0  0  0  0  0  0  0
    3.0791    2.6665    0.0000 C   0  0  0  0  0  0  0  0  0  0  0  0
  1 10  2  0  0  0  0
  2 11  2  0  0  0  0
  3 14  2  0  0  0  0
  4 10  1  0  0  0  0
  4 14  1  0  0  0  0
  5 11  1  0  0  0  0
  5 14  1  0  0  0  0
  6  7  1  0  0  0  0
  6  8  1  0  0  0  0
  6 10  1  0  0  0  0
  6 11  1  0  0  0  0
  7  9  1  0  0  0  0
  8 13  1  0  0  0  0
  9 12  1  0  0  0  0
 12 15  1  0  0  0  0
M  END
>  <DRUGBANK_ID>
DB01353

>  <DRUG_GROUPS>
illicit; approved

>  <GENERIC_NAME>
Butethal

>  <SYNONYMS>
5-Butyl-5-ethyl-2,4,6(1H,3H,5H)-pyrimidinetrione; 5-Butyl-5-ethylbarbituric acid; 5-Ethyl-5-butylbarbituric acid; 5-Ethyl-5-N-butylbarbituric acid; Butabarbitol; Butobarbital; Butobarbitalum; Butobarbitone; Butobarbitural; Butyl,5-ethylbarbituric acid

>  <BRANDS>
Budorm; Etoval; Hyperbutal; Longanoct; Meonal; Monodorm; Neonal; Sonerile; Soneryl

>  <CHEMICAL_FORMULA>
C10H16N2O3

>  <MOLECULAR_WEIGHT>
212.2456

>  <EXACT_MASS>
212.116092388

>  <IUPAC_NAME>
5-butyl-5-ethyl-1,3-diazinane-2,4,6-trione

>  <INCHI_IDENTIFIER>
InChI=1S/C10H16N2O3/c1-3-5-6-10(4-2)7(13)11-9(15)12-8(10)14/h3-6H2,1-2H3,(H2,11,12,13,14,15)

>  <INCHI_KEY>
InChIKey=STDBAQMTJLUMFW-UHFFFAOYSA-N

>  <SMILES>
CCCCC1(CC)C(=O)NC(=O)NC1=O

>  <JCHEM_ACCEPTOR_COUNT>
3

>  <JCHEM_DONOR_COUNT>
2

>  <JCHEM_ACIDIC_PKA>
8.48

>  <JCHEM_PHYSIOLOGICAL_CHARGE>
0

>  <ALOGPS_LOGP>
1.65

>  <JCHEM_LOGP>
1.61

>  <ALOGPS_LOGS>
-2.2

>  <JCHEM_POLARIZABILITY>
21.62

>  <JCHEM_POLAR_SURFACE_AREA>
75.27

>  <JCHEM_REFRACTIVITY>
53.45

>  <JCHEM_ROTATABLE_BOND_COUNT>
4

>  <ALOGPS_SOLUBILITY>
1.27e+00 g/l __

$$$$
DB01433
 OpenBabel03171413512D

 26 27  0  0  1  0  0  0  0  0999 V2000
    5.8950   -0.7144    0.0000 O   0  0  0  0  0  0  0  0  0  0  0  0
    7.1325    0.0000    0.0000 O   0  0  0  0  0  0  0  0  0  0  0  0
    2.4253   -0.2482    0.0000 N   0  0  0  0  0  0  0  0  0  0  0  0
    4.6575    0.0000    0.0000 C   0  0  0  0  0  0  0  0  0  0  0  0
    3.8325    0.0000    0.0000 C   0  0  0  0  0  0  0  0  0  0  0  0
    5.4825    0.0000    0.0000 C   0  0  3  0  0  0  0  0  0  0  0  0
    3.0572    0.2822    0.0000 C   0  0  3  0  0  0  0  0  0  0  0  0
    4.6575    0.8250    0.0000 C   0  0  0  0  0  0  0  0  0  0  0  0
    4.6575   -0.8250    0.0000 C   0  0  0  0  0  0  0  0  0  0  0  0
    5.8950    0.7144    0.0000 C   0  0  0  0  0  0  0  0  0  0  0  0
    2.9140    1.0946    0.0000 C   0  0  0  0  0  0  0  0  0  0  0  0
    3.9430    1.2375    0.0000 C   0  0  0  0  0  0  0  0  0  0  0  0
    5.3720   -1.2375    0.0000 C   0  0  0  0  0  0  0  0  0  0  0  0
    5.3720    1.2375    0.0000 C   0  0  0  0  0  0  0  0  0  0  0  0
    3.9430   -1.2375    0.0000 C   0  0  0  0  0  0  0  0  0  0  0  0
    6.7200    0.7144    0.0000 C   0  0  0  0  0  0  0  0  0  0  0  0
    1.6500    0.0341    0.0000 C   0  0  0  0  0  0  0  0  0  0  0  0
    2.5685   -1.0605    0.0000 C   0  0  0  0  0  0  0  0  0  0  0  0
    3.9430    2.0625    0.0000 C   0  0  0  0  0  0  0  0  0  0  0  0
    5.3720   -2.0625    0.0000 C   0  0  0  0  0  0  0  0  0  0  0  0
    5.3720    2.0625    0.0000 C   0  0  0  0  0  0  0  0  0  0  0  0
    3.9430   -2.0625    0.0000 C   0  0  0  0  0  0  0  0  0  0  0  0
    6.7200   -0.7144    0.0000 C   0  0  0  0  0  0  0  0  0  0  0  0
    4.6575    2.4750    0.0000 C   0  0  0  0  0  0  0  0  0  0  0  0
    4.6575   -2.4750    0.0000 C   0  0  0  0  0  0  0  0  0  0  0  0
    7.1325   -1.4290    0.0000 C   0  0  0  0  0  0  0  0  0  0  0  0
  1  6  1  0  0  0  0
  1 23  1  0  0  0  0
  2 23  2  0  0  0  0
  3  7  1  0  0  0  0
  3 17  1  0  0  0  0
  3 18  1  0  0  0  0
  4  5  1  0  0  0  0
  4  6  1  0  0  0  0
  4  8  1  0  0  0  0
  4  9  1  0  0  0  0
  5  7  1  0  0  0  0
  6 10  1  0  0  0  0
  7 11  1  0  0  0  0
  8 12  2  0  0  0  0
  8 14  1  0  0  0  0
  9 13  2  0  0  0  0
  9 15  1  0  0  0  0
 10 16  1  0  0  0  0
 12 19  1  0  0  0  0
 13 20  1  0  0  0  0
 14 21  2  0  0  0  0
 15 22  2  0  0  0  0
 19 24  2  0  0  0  0
 20 25  2  0  0  0  0
 21 24  1  0  0  0  0
 22 25  1  0  0  0  0
 23 26  1  0  0  0  0
M  END
>  <DRUGBANK_ID>
DB01433

>  <DRUG_GROUPS>
illicit; approved

>  <GENERIC_NAME>
Methadyl Acetate

>  <SYNONYMS>
Acetilmetadol [inn-spanish]; Acetylmethadol; Acetylmethadolum [inn-latin]; Betamethadol

>  <CHEMICAL_FORMULA>
C23H31NO2

>  <MOLECULAR_WEIGHT>
353.4977

>  <EXACT_MASS>
353.235479241

>  <IUPAC_NAME>
6-(dimethylamino)-4,4-diphenylheptan-3-yl acetate

>  <INCHI_IDENTIFIER>
InChI=1S/C23H31NO2/c1-6-22(26-19(3)25)23(17-18(2)24(4)5,20-13-9-7-10-14-20)21-15-11-8-12-16-21/h7-16,18,22H,6,17H2,1-5H3

>  <INCHI_KEY>
InChIKey=XBMIVRRWGCYBTQ-UHFFFAOYSA-N

>  <SMILES>
CCC(OC(C)=O)C(CC(C)N(C)C)(C1=CC=CC=C1)C1=CC=CC=C1

>  <JCHEM_ACCEPTOR_COUNT>
2

>  <JCHEM_DONOR_COUNT>
0

>  <JCHEM_BASIC_PKA>
9.87

>  <JCHEM_PHYSIOLOGICAL_CHARGE>
1

>  <ALOGPS_LOGP>
4.78

>  <JCHEM_LOGP>
4.88

>  <ALOGPS_LOGS>
-5.3

>  <JCHEM_POLARIZABILITY>
40.82

>  <JCHEM_POLAR_SURFACE_AREA>
29.54

>  <JCHEM_REFRACTIVITY>
117.86

>  <JCHEM_ROTATABLE_BOND_COUNT>
9

>  <ALOGPS_SOLUBILITY>
1.79e-03 g/l __

$$$$
DB01437
 OpenBabel03171413512D

 16 17  0  0  1  0  0  0  0  0999 V2000
    1.6500    0.1658    0.0000 O   0  0  0  0  0  0  0  0  0  0  0  0
    3.0791   -2.3092    0.0000 O   0  0  0  0  0  0  0  0  0  0  0  0
    2.3645   -1.0717    0.0000 N   0  0  0  0  0  0  0  0  0  0  0  0
    3.0791    0.1658    0.0000 C   0  0  3  0  0  0  0  0  0  0  0  0
    3.7935   -0.2467    0.0000 C   0  0  0  0  0  0  0  0  0  0  0  0
    2.6665    0.8803    0.0000 C   0  0  0  0  0  0  0  0  0  0  0  0
    3.4916    0.8803    0.0000 C   0  0  0  0  0  0  0  0  0  0  0  0
    3.7935   -1.0717    0.0000 C   0  0  0  0  0  0  0  0  0  0  0  0
    2.3645   -0.2467    0.0000 C   0  0  0  0  0  0  0  0  0  0  0  0
    3.0791   -1.4842    0.0000 C   0  0  0  0  0  0  0  0  0  0  0  0
    1.8415    0.8803    0.0000 C   0  0  0  0  0  0  0  0  0  0  0  0
    3.0791    1.5948    0.0000 C   0  0  0  0  0  0  0  0  0  0  0  0
    4.3166    0.8803    0.0000 C   0  0  0  0  0  0  0  0  0  0  0  0
    3.4916    2.3092    0.0000 C   0  0  0  0  0  0  0  0  0  0  0  0
    4.7291    1.5948    0.0000 C   0  0  0  0  0  0  0  0  0  0  0  0
    4.3166    2.3092    0.0000 C   0  0  0  0  0  0  0  0  0  0  0  0
  1  9  2  0  0  0  0
  2 10  2  0  0  0  0
  3  9  1  0  0  0  0
  3 10  1  0  0  0  0
  4  5  1  0  0  0  0
  4  6  1  0  0  0  0
  4  7  1  0  0  0  0
  4  9  1  0  0  0  0
  5  8  1  0  0  0  0
  6 11  1  0  0  0  0
  7 12  2  0  0  0  0
  7 13  1  0  0  0  0
  8 10  1  0  0  0  0
 12 14  1  0  0  0  0
 13 15  2  0  0  0  0
 14 16  2  0  0  0  0
 15 16  1  0  0  0  0
M  END
>  <DRUGBANK_ID>
DB01437

>  <DRUG_GROUPS>
illicit; approved

>  <GENERIC_NAME>
Glutethimide

>  <SYNONYMS>
Glutathimid; Glutethimid; Glutetimid; Glutetimide; Gluthetimide

>  <BRANDS>
Alfimid; Doriden; Elrodorm; Gimid; Glimid; Noxiron; Noxyron; Ondasil; Rigenox; Sarodormin

>  <CHEMICAL_FORMULA>
C13H15NO2

>  <MOLECULAR_WEIGHT>
217.2637

>  <EXACT_MASS>
217.110278729

>  <IUPAC_NAME>
3-ethyl-3-phenylpiperidine-2,6-dione

>  <INCHI_IDENTIFIER>
InChI=1S/C13H15NO2/c1-2-13(10-6-4-3-5-7-10)9-8-11(15)14-12(13)16/h3-7H,2,8-9H2,1H3,(H,14,15,16)

>  <INCHI_KEY>
InChIKey=JMBQKKAJIKAWKF-UHFFFAOYSA-N

>  <SMILES>
CCC1(CCC(=O)NC1=O)C1=CC=CC=C1

>  <JCHEM_ACCEPTOR_COUNT>
2

>  <JCHEM_DONOR_COUNT>
1

>  <JCHEM_ACIDIC_PKA>
11.69

>  <JCHEM_BASIC_PKA>
-6.7

>  <JCHEM_PHYSIOLOGICAL_CHARGE>
0

>  <ALOGPS_LOGP>
1.89

>  <JCHEM_LOGP>
2.13

>  <ALOGPS_LOGS>
-2.8

>  <JCHEM_POLARIZABILITY>
23.15

>  <JCHEM_POLAR_SURFACE_AREA>
46.17

>  <JCHEM_REFRACTIVITY>
60.65

>  <JCHEM_ROTATABLE_BOND_COUNT>
2

>  <ALOGPS_SOLUBILITY>
3.27e-01 g/l __

$$$$
DB01439
 OpenBabel03171413512D

 25 27  0  0  1  0  0  0  0  0999 V2000
    1.6971   -2.9440    0.0000 S   0  0  0  0  0  0  0  0  0  0  0  0
    1.6500    2.0786    0.0000 O   0  0  0  0  0  0  0  0  0  0  0  0
    3.0791   -0.3965    0.0000 N   0  0  0  0  0  0  0  0  0  0  0  0
    3.0791    2.0786    0.0000 N   0  0  0  0  0  0  0  0  0  0  0  0
    3.0791    1.2535    0.0000 C   0  0  3  0  0  0  0  0  0  0  0  0
    2.3645    0.8410    0.0000 C   0  0  3  0  0  0  0  0  0  0  0  0
    3.7935    0.8410    0.0000 C   0  0  0  0  0  0  0  0  0  0  0  0
    2.3645    0.0160    0.0000 C   0  0  0  0  0  0  0  0  0  0  0  0
    3.7935    0.0160    0.0000 C   0  0  0  0  0  0  0  0  0  0  0  0
    1.6500    1.2535    0.0000 C   0  0  0  0  0  0  0  0  0  0  0  0
    3.0791   -1.2215    0.0000 C   0  0  0  0  0  0  0  0  0  0  0  0
    2.3645   -1.6340    0.0000 C   0  0  0  0  0  0  0  0  0  0  0  0
    3.7935    2.4911    0.0000 C   0  0  0  0  0  0  0  0  0  0  0  0
    2.3645    2.4911    0.0000 C   0  0  0  0  0  0  0  0  0  0  0  0
    2.3645    3.3161    0.0000 C   0  0  0  0  0  0  0  0  0  0  0  0
    2.3645   -2.4590    0.0000 C   0  0  0  0  0  0  0  0  0  0  0  0
    3.7935    3.3161    0.0000 C   0  0  0  0  0  0  0  0  0  0  0  0
    4.5080    2.0786    0.0000 C   0  0  0  0  0  0  0  0  0  0  0  0
    1.6500    3.7286    0.0000 C   0  0  0  0  0  0  0  0  0  0  0  0
    4.5080    3.7286    0.0000 C   0  0  0  0  0  0  0  0  0  0  0  0
    5.2224    2.4911    0.0000 C   0  0  0  0  0  0  0  0  0  0  0  0
    3.0319   -2.9440    0.0000 C   0  0  0  0  0  0  0  0  0  0  0  0
    5.2224    3.3161    0.0000 C   0  0  0  0  0  0  0  0  0  0  0  0
    2.7770   -3.7286    0.0000 C   0  0  0  0  0  0  0  0  0  0  0  0
    1.9520   -3.7286    0.0000 C   0  0  0  0  0  0  0  0  0  0  0  0
  1 16  1  0  0  0  0
  1 25  1  0  0  0  0
  2 14  2  0  0  0  0
  3  8  1  0  0  0  0
  3  9  1  0  0  0  0
  3 11  1  0  0  0  0
  4  5  1  0  0  0  0
  4 13  1  0  0  0  0
  4 14  1  0  0  0  0
  5  6  1  0  0  0  0
  5  7  1  0  0  0  0
  6  8  1  0  0  0  0
  6 10  1  0  0  0  0
  7  9  1  0  0  0  0
 11 12  1  0  0  0  0
 12 16  1  0  0  0  0
 13 17  2  0  0  0  0
 13 18  1  0  0  0  0
 14 15  1  0  0  0  0
 15 19  1  0  0  0  0
 16 22  2  0  0  0  0
 17 20  1  0  0  0  0
 18 21  2  0  0  0  0
 20 23  2  0  0  0  0
 21 23  1  0  0  0  0
 22 24  1  0  0  0  0
 24 25  2  0  0  0  0
M  END
>  <DRUGBANK_ID>
DB01439

>  <DRUG_GROUPS>
illicit; experimental

>  <GENERIC_NAME>
3-Methylthiofentanyl

>  <SYNONYMS>
3-Methyl-thiofentanyl

>  <CHEMICAL_FORMULA>
C21H28N2OS

>  <MOLECULAR_WEIGHT>
356.525

>  <EXACT_MASS>
356.192234218

>  <IUPAC_NAME>
N-{3-methyl-1-[2-(thiophen-2-yl)ethyl]piperidin-4-yl}-N-phenylpropanamide

>  <INCHI_IDENTIFIER>
InChI=1S/C21H28N2OS/c1-3-21(24)23(18-8-5-4-6-9-18)20-12-14-22(16-17(20)2)13-11-19-10-7-15-25-19/h4-10,15,17,20H,3,11-14,16H2,1-2H3

>  <INCHI_KEY>
InChIKey=SRARDYUHGVMEQI-UHFFFAOYSA-N

>  <SMILES>
CCC(=O)N(C1CCN(CCC2=CC=CS2)CC1C)C1=CC=CC=C1

>  <JCHEM_ACCEPTOR_COUNT>
2

>  <JCHEM_DONOR_COUNT>
0

>  <JCHEM_BASIC_PKA>
9.07

>  <JCHEM_PHYSIOLOGICAL_CHARGE>
1

>  <ALOGPS_LOGP>
4.32

>  <JCHEM_LOGP>
4.21

>  <ALOGPS_LOGS>
-4.3

>  <JCHEM_POLARIZABILITY>
39.97

>  <JCHEM_POLAR_SURFACE_AREA>
23.55

>  <JCHEM_REFRACTIVITY>
104.9

>  <JCHEM_ROTATABLE_BOND_COUNT>
6

>  <ALOGPS_SOLUBILITY>
1.80e-02 g/l __

$$$$
DB01440
 OpenBabel03171413512D

  7  6  0  0  0  0  0  0  0  0999 V2000
    5.2224    0.2063    0.0000 O   0  0  0  0  0  0  0  0  0  0  0  0
    1.6500    0.6188    0.0000 O   0  5  0  0  0  0  0  0  0  0  0  0
    2.3645   -0.6188    0.0000 O   0  0  0  0  0  0  0  0  0  0  0  0
    3.7935    0.2063    0.0000 C   0  0  0  0  0  0  0  0  0  0  0  0
    3.0791    0.6188    0.0000 C   0  0  0  0  0  0  0  0  0  0  0  0
    4.5080    0.6188    0.0000 C   0  0  0  0  0  0  0  0  0  0  0  0
    2.3645    0.2063    0.0000 C   0  0  0  0  0  0  0  0  0  0  0  0
  1  6  1  0  0  0  0
  2  7  1  0  0  0  0
  3  7  2  0  0  0  0
  4  5  1  0  0  0  0
  4  6  1  0  0  0  0
  5  7  1  0  0  0  0
M  CHG  1   2  -1
M  END
>  <DRUGBANK_ID>
DB01440

>  <DRUG_GROUPS>
illicit; approved

>  <GENERIC_NAME>
Gamma Hydroxybutyric Acid

>  <SYNONYMS>
4-Hydroxy-butanoic acid; 4-hydroxybutanoate; 4-hydroxybutanoic acid; 4-Hydroxybutyric acid; gamma-Hydroxybutyric acid; GHB; Juice; Liquid Ecstasy; Sodium oxybate

>  <BRANDS>
Xyrem

>  <CHEMICAL_FORMULA>
C4H7O3

>  <MOLECULAR_WEIGHT>
103.0966

>  <EXACT_MASS>
103.03951909

>  <IUPAC_NAME>
4-hydroxybutanoate

>  <INCHI_IDENTIFIER>
InChI=1S/C4H8O3/c5-3-1-2-4(6)7/h5H,1-3H2,(H,6,7)/p-1

>  <INCHI_KEY>
InChIKey=SJZRECIVHVDYJC-UHFFFAOYSA-M

>  <SMILES>
OCCCC([O-])=O

>  <JCHEM_ACCEPTOR_COUNT>
3

>  <JCHEM_DONOR_COUNT>
1

>  <JCHEM_ACIDIC_PKA>
4.44

>  <JCHEM_BASIC_PKA>
-2.4

>  <JCHEM_PHYSIOLOGICAL_CHARGE>
-1

>  <ALOGPS_LOGP>
-0.6

>  <JCHEM_LOGP>
-0.51

>  <ALOGPS_LOGS>
0.77

>  <JCHEM_POLARIZABILITY>
9.73

>  <JCHEM_POLAR_SURFACE_AREA>
60.36

>  <JCHEM_REFRACTIVITY>
34.64

>  <JCHEM_ROTATABLE_BOND_COUNT>
3

>  <ALOGPS_SOLUBILITY>
7.11e+02 g/l __

$$$$
DB01441
 OpenBabel03171413512D

 20 21  0  0  0  0  0  0  0  0999 V2000
    2.3645   -0.5003    0.0000 O   0  0  0  0  0  0  0  0  0  0  0  0
    6.6086    1.0771    0.0000 N   0  0  0  0  0  0  0  0  0  0  0  0
    5.2886   -1.9892    0.0000 N   0  0  0  0  0  0  0  0  0  0  0  0
    6.3522    0.2930    0.0000 C   0  0  0  0  0  0  0  0  0  0  0  0
    6.0575    1.6912    0.0000 C   0  0  0  0  0  0  0  0  0  0  0  0
    7.4158    1.2473    0.0000 C   0  0  0  0  0  0  0  0  0  0  0  0
    5.5449    0.1228    0.0000 C   0  0  0  0  0  0  0  0  0  0  0  0
    5.2886   -0.6613    0.0000 C   0  0  0  0  0  0  0  0  0  0  0  0
    5.2503    1.5211    0.0000 C   0  0  0  0  0  0  0  0  0  0  0  0
    6.3139    2.4754    0.0000 C   0  0  0  0  0  0  0  0  0  0  0  0
    7.9668    0.6332    0.0000 C   0  0  0  0  0  0  0  0  0  0  0  0
    7.6721    2.0315    0.0000 C   0  0  0  0  0  0  0  0  0  0  0  0
    4.5080   -0.9128    0.0000 C   0  0  0  0  0  0  0  0  0  0  0  0
    4.5080   -1.7378    0.0000 C   0  0  0  0  0  0  0  0  0  0  0  0
    5.7701   -1.3253    0.0000 C   0  0  0  0  0  0  0  0  0  0  0  0
    3.7935   -0.5003    0.0000 C   0  0  0  0  0  0  0  0  0  0  0  0
    3.7935   -2.1503    0.0000 C   0  0  0  0  0  0  0  0  0  0  0  0
    3.0791   -0.9128    0.0000 C   0  0  0  0  0  0  0  0  0  0  0  0
    3.0791   -1.7378    0.0000 C   0  0  0  0  0  0  0  0  0  0  0  0
    1.6500   -0.9128    0.0000 C   0  0  0  0  0  0  0  0  0  0  0  0
  1 18  1  0  0  0  0
  1 20  1  0  0  0  0
  2  4  1  0  0  0  0
  2  5  1  0  0  0  0
  2  6  1  0  0  0  0
  3 14  1  0  0  0  0
  3 15  1  0  0  0  0
  4  7  1  0  0  0  0
  5  9  1  0  0  0  0
  5 10  1  0  0  0  0
  6 11  1  0  0  0  0
  6 12  1  0  0  0  0
  7  8  1  0  0  0  0
  8 13  1  0  0  0  0
  8 15  2  0  0  0  0
 13 14  2  0  0  0  0
 13 16  1  0  0  0  0
 14 17  1  0  0  0  0
 16 18  2  0  0  0  0
 17 19  2  0  0  0  0
 18 19  1  0  0  0  0
M  END
>  <DRUGBANK_ID>
DB01441

>  <DRUG_GROUPS>
illicit; experimental

>  <GENERIC_NAME>
5-Methoxy-N,N-diisopropyltryptamine

>  <SYNONYMS>
5-MeO-DIPT; 5-methoxy-N,N-bis(1-methylethyl)-1H-Indole-3-ethanamine; Foxy; Foxy methoxy

>  <CHEMICAL_FORMULA>
C17H26N2O

>  <MOLECULAR_WEIGHT>
274.4011

>  <EXACT_MASS>
274.204513464

>  <IUPAC_NAME>
[2-(5-methoxy-1H-indol-3-yl)ethyl]bis(propan-2-yl)amine

>  <INCHI_IDENTIFIER>
InChI=1S/C17H26N2O/c1-12(2)19(13(3)4)9-8-14-11-18-17-7-6-15(20-5)10-16(14)17/h6-7,10-13,18H,8-9H2,1-5H3

>  <INCHI_KEY>
InChIKey=DNBPMBJFRRVTSJ-UHFFFAOYSA-N

>  <SMILES>
COC1=CC2=C(NC=C2CCN(C(C)C)C(C)C)C=C1

>  <JCHEM_ACCEPTOR_COUNT>
2

>  <JCHEM_DONOR_COUNT>
1

>  <JCHEM_ACIDIC_PKA>
17.44

>  <JCHEM_BASIC_PKA>
10.68

>  <JCHEM_PHYSIOLOGICAL_CHARGE>
1

>  <ALOGPS_LOGP>
4.35

>  <JCHEM_LOGP>
3.69

>  <ALOGPS_LOGS>
-3.6

>  <JCHEM_POLARIZABILITY>
33.06

>  <JCHEM_POLAR_SURFACE_AREA>
28.26

>  <JCHEM_REFRACTIVITY>
85.24

>  <JCHEM_ROTATABLE_BOND_COUNT>
6

>  <ALOGPS_SOLUBILITY>
6.73e-02 g/l __

$$$$
DB01442
 OpenBabel03171413512D

 15 16  0  0  1  0  0  0  0  0999 V2000
    6.4461   -1.0269    0.0000 O   0  0  0  0  0  0  0  0  0  0  0  0
    6.4461    0.3009    0.0000 O   0  0  0  0  0  0  0  0  0  0  0  0
    4.9509    1.2870    0.0000 O   0  0  0  0  0  0  0  0  0  0  0  0
    2.0930   -1.1880    0.0000 N   0  0  0  0  0  0  0  0  0  0  0  0
    3.5220   -1.1880    0.0000 C   0  0  0  0  0  0  0  0  0  0  0  0
    2.8075   -0.7755    0.0000 C   0  0  3  0  0  0  0  0  0  0  0  0
    4.2365   -0.7755    0.0000 C   0  0  0  0  0  0  0  0  0  0  0  0
    4.9509   -1.1880    0.0000 C   0  0  0  0  0  0  0  0  0  0  0  0
    5.6655   -0.7755    0.0000 C   0  0  0  0  0  0  0  0  0  0  0  0
    4.2365    0.0495    0.0000 C   0  0  0  0  0  0  0  0  0  0  0  0
    5.6655    0.0495    0.0000 C   0  0  0  0  0  0  0  0  0  0  0  0
    4.9509    0.4620    0.0000 C   0  0  0  0  0  0  0  0  0  0  0  0
    2.8075    0.0495    0.0000 C   0  0  0  0  0  0  0  0  0  0  0  0
    6.9276   -0.3630    0.0000 C   0  0  0  0  0  0  0  0  0  0  0  0
    4.2365    1.6995    0.0000 C   0  0  0  0  0  0  0  0  0  0  0  0
  1  9  1  0  0  0  0
  1 14  1  0  0  0  0
  2 11  1  0  0  0  0
  2 14  1  0  0  0  0
  3 12  1  0  0  0  0
  3 15  1  0  0  0  0
  4  6  1  0  0  0  0
  5  6  1  0  0  0  0
  5  7  1  0  0  0  0
  6 13  1  0  0  0  0
  7  8  2  0  0  0  0
  7 10  1  0  0  0  0
  8  9  1  0  0  0  0
  9 11  2  0  0  0  0
 10 12  2  0  0  0  0
 11 12  1  0  0  0  0
M  END
>  <DRUGBANK_ID>
DB01442

>  <DRUG_GROUPS>
illicit; experimental

>  <GENERIC_NAME>
MMDA

>  <SYNONYMS>
(+-)-mmda; 3-Methoxy-4,5-methylenedioxyphenylisopropylamine; 3-Methoxy-alpha-methyl-4,5-methylenedioxyphenethylamine; 3-METHOXY-METHYLENEDIOXYAMPHETAMINE; 5-Methoxy-3,4-methylenedioxyamphetamine; Amphetamine, 3,4-methylenedioxy-5-methoxy; DEA No. 7401

>  <CHEMICAL_FORMULA>
C11H15NO3

>  <MOLECULAR_WEIGHT>
209.2417

>  <EXACT_MASS>
209.105193351

>  <IUPAC_NAME>
1-(7-methoxy-2H-1,3-benzodioxol-5-yl)propan-2-amine

>  <INCHI_IDENTIFIER>
InChI=1S/C11H15NO3/c1-7(12)3-8-4-9(13-2)11-10(5-8)14-6-15-11/h4-5,7H,3,6,12H2,1-2H3

>  <INCHI_KEY>
InChIKey=YQYUWUKDEVZFDB-UHFFFAOYSA-N

>  <SMILES>
COC1=CC(CC(C)N)=CC2=C1OCO2

>  <JCHEM_ACCEPTOR_COUNT>
4

>  <JCHEM_DONOR_COUNT>
1

>  <JCHEM_BASIC_PKA>
9.99

>  <JCHEM_PHYSIOLOGICAL_CHARGE>
1

>  <ALOGPS_LOGP>
1.07

>  <JCHEM_LOGP>
1.27

>  <ALOGPS_LOGS>
-1.9

>  <JCHEM_POLARIZABILITY>
22.38

>  <JCHEM_POLAR_SURFACE_AREA>
53.71

>  <JCHEM_REFRACTIVITY>
55.94

>  <JCHEM_ROTATABLE_BOND_COUNT>
3

>  <ALOGPS_SOLUBILITY>
2.71e+00 g/l __

$$$$
DB01444
 OpenBabel03171413512D

 17 18  0  0  1  0  0  0  0  0999 V2000
    5.2616   -0.1133    0.0000 S   0  0  0  0  0  0  0  0  0  0  0  0
    3.1261   -1.5002    0.0000 S   0  0  0  0  0  0  0  0  0  0  0  0
    2.3645    1.4598    0.0000 N   0  0  0  0  0  0  0  0  0  0  0  0
    3.0791    1.0473    0.0000 C   0  0  3  0  0  0  0  0  0  0  0  0
    3.0791    0.2223    0.0000 C   0  0  0  0  0  0  0  0  0  0  0  0
    3.7935   -0.1902    0.0000 C   0  0  0  0  0  0  0  0  0  0  0  0
    3.7935    1.4598    0.0000 C   0  0  0  0  0  0  0  0  0  0  0  0
    2.3645    2.2848    0.0000 C   0  0  0  0  0  0  0  0  0  0  0  0
    1.6500    1.0473    0.0000 C   0  0  0  0  0  0  0  0  0  0  0  0
    4.5080    0.2223    0.0000 C   0  0  0  0  0  0  0  0  0  0  0  0
    3.7935   -1.0153    0.0000 C   0  0  0  0  0  0  0  0  0  0  0  0
    4.5942    1.0427    0.0000 C   0  0  0  0  0  0  0  0  0  0  0  0
    4.4610   -1.5002    0.0000 C   0  0  0  0  0  0  0  0  0  0  0  0
    5.4012    1.2143    0.0000 C   0  0  0  0  0  0  0  0  0  0  0  0
    4.2060   -2.2848    0.0000 C   0  0  0  0  0  0  0  0  0  0  0  0
    5.8137    0.4998    0.0000 C   0  0  0  0  0  0  0  0  0  0  0  0
    3.3810   -2.2848    0.0000 C   0  0  0  0  0  0  0  0  0  0  0  0
  1 10  1  0  0  0  0
  1 16  1  0  0  0  0
  2 11  1  0  0  0  0
  2 17  1  0  0  0  0
  3  4  1  0  0  0  0
  3  8  1  0  0  0  0
  3  9  1  0  0  0  0
  4  5  1  0  0  0  0
  4  7  1  0  0  0  0
  5  6  2  0  0  0  0
  6 10  1  0  0  0  0
  6 11  1  0  0  0  0
 10 12  2  0  0  0  0
 11 13  2  0  0  0  0
 12 14  1  0  0  0  0
 13 15  1  0  0  0  0
 14 16  2  0  0  0  0
 15 17  2  0  0  0  0
M  END
>  <DRUGBANK_ID>
DB01444

>  <DRUG_GROUPS>
illicit; experimental

>  <GENERIC_NAME>
Dimethylthiambutene

>  <SYNONYMS>
Dimethibutin; Ohton

>  <CHEMICAL_FORMULA>
C14H17NS2

>  <MOLECULAR_WEIGHT>
263.421

>  <EXACT_MASS>
263.080240929

>  <IUPAC_NAME>
[4,4-bis(thiophen-2-yl)but-3-en-2-yl]dimethylamine

>  <INCHI_IDENTIFIER>
InChI=1S/C14H17NS2/c1-11(15(2)3)10-12(13-6-4-8-16-13)14-7-5-9-17-14/h4-11H,1-3H3

>  <INCHI_KEY>
InChIKey=CANBGVXYBPOLRR-UHFFFAOYSA-N

>  <SMILES>
CC(C=C(C1=CC=CS1)C1=CC=CS1)N(C)C

>  <JCHEM_ACCEPTOR_COUNT>
1

>  <JCHEM_DONOR_COUNT>
0

>  <JCHEM_BASIC_PKA>
8.67

>  <JCHEM_PHYSIOLOGICAL_CHARGE>
1

>  <ALOGPS_LOGP>
4.06

>  <JCHEM_LOGP>
4.2

>  <ALOGPS_LOGS>
-3.5

>  <JCHEM_POLARIZABILITY>
29.46

>  <JCHEM_POLAR_SURFACE_AREA>
3.24

>  <JCHEM_REFRACTIVITY>
86.67

>  <JCHEM_ROTATABLE_BOND_COUNT>
4

>  <ALOGPS_SOLUBILITY>
8.39e-02 g/l __

$$$$
DB01445
 OpenBabel03171413512D

 15 16  0  0  0  0  0  0  0  0999 V2000
    2.0930   -0.1082    0.0000 O   0  0  0  0  0  0  0  0  0  0  0  0
    6.3370    1.4693    0.0000 N   0  0  0  0  0  0  0  0  0  0  0  0
    5.0171   -1.5972    0.0000 N   0  0  0  0  0  0  0  0  0  0  0  0
    5.2734    0.5149    0.0000 C   0  0  0  0  0  0  0  0  0  0  0  0
    5.0171   -0.2693    0.0000 C   0  0  0  0  0  0  0  0  0  0  0  0
    4.2365   -0.5207    0.0000 C   0  0  0  0  0  0  0  0  0  0  0  0
    6.0807    0.6851    0.0000 C   0  0  0  0  0  0  0  0  0  0  0  0
    4.2365   -1.3457    0.0000 C   0  0  0  0  0  0  0  0  0  0  0  0
    5.4986   -0.9332    0.0000 C   0  0  0  0  0  0  0  0  0  0  0  0
    3.5220   -0.1082    0.0000 C   0  0  0  0  0  0  0  0  0  0  0  0
    3.5220   -1.7582    0.0000 C   0  0  0  0  0  0  0  0  0  0  0  0
    2.8075   -0.5207    0.0000 C   0  0  0  0  0  0  0  0  0  0  0  0
    7.1443    1.6394    0.0000 C   0  0  0  0  0  0  0  0  0  0  0  0
    5.7860    2.0833    0.0000 C   0  0  0  0  0  0  0  0  0  0  0  0
    2.8075   -1.3457    0.0000 C   0  0  0  0  0  0  0  0  0  0  0  0
  1 12  1  0  0  0  0
  2  7  1  0  0  0  0
  2 13  1  0  0  0  0
  2 14  1  0  0  0  0
  3  8  1  0  0  0  0
  3  9  1  0  0  0  0
  4  5  1  0  0  0  0
  4  7  1  0  0  0  0
  5  6  1  0  0  0  0
  5  9  2  0  0  0  0
  6  8  2  0  0  0  0
  6 10  1  0  0  0  0
  8 11  1  0  0  0  0
 10 12  2  0  0  0  0
 11 15  2  0  0  0  0
 12 15  1  0  0  0  0
M  END
>  <DRUGBANK_ID>
DB01445

>  <DRUG_GROUPS>
illicit; experimental

>  <GENERIC_NAME>
Bufotenine

>  <CHEMICAL_FORMULA>
C12H16N2O

>  <MOLECULAR_WEIGHT>
204.2682

>  <EXACT_MASS>
204.126263144

>  <IUPAC_NAME>
3-[2-(dimethylamino)ethyl]-1H-indol-5-ol

>  <INCHI_IDENTIFIER>
InChI=1S/C12H16N2O/c1-14(2)6-5-9-8-13-12-4-3-10(15)7-11(9)12/h3-4,7-8,13,15H,5-6H2,1-2H3

>  <INCHI_KEY>
InChIKey=VTTONGPRPXSUTJ-UHFFFAOYSA-N

>  <SMILES>
CN(C)CCC1=CNC2=C1C=C(O)C=C2

>  <JCHEM_ACCEPTOR_COUNT>
2

>  <JCHEM_DONOR_COUNT>
2

>  <JCHEM_ACIDIC_PKA>
9.23

>  <JCHEM_BASIC_PKA>
9.91

>  <JCHEM_PHYSIOLOGICAL_CHARGE>
1

>  <ALOGPS_LOGP>
2.04

>  <JCHEM_LOGP>
1.29

>  <ALOGPS_LOGS>
-1.8

>  <JCHEM_POLARIZABILITY>
23.29

>  <JCHEM_POLAR_SURFACE_AREA>
39.26

>  <JCHEM_REFRACTIVITY>
62.42

>  <JCHEM_ROTATABLE_BOND_COUNT>
3

>  <ALOGPS_SOLUBILITY>
3.20e+00 g/l __

$$$$
DB01446
 OpenBabel03171413512D

 13 14  0  0  1  0  0  0  0  0999 V2000
    3.8597   -1.4804    0.0000 N   0  0  0  0  0  0  0  0  0  0  0  0
    5.1795    1.5859    0.0000 N   0  0  0  0  0  0  0  0  0  0  0  0
    4.1159    0.6316    0.0000 C   0  0  0  0  0  0  0  0  0  0  0  0
    3.8597   -0.1526    0.0000 C   0  0  0  0  0  0  0  0  0  0  0  0
    4.9232    0.8018    0.0000 C   0  0  3  0  0  0  0  0  0  0  0  0
    3.0791   -0.4040    0.0000 C   0  0  0  0  0  0  0  0  0  0  0  0
    3.0791   -1.2290    0.0000 C   0  0  0  0  0  0  0  0  0  0  0  0
    4.3412   -0.8165    0.0000 C   0  0  0  0  0  0  0  0  0  0  0  0
    5.4742    0.1877    0.0000 C   0  0  0  0  0  0  0  0  0  0  0  0
    2.3645    0.0085    0.0000 C   0  0  0  0  0  0  0  0  0  0  0  0
    2.3645   -1.6415    0.0000 C   0  0  0  0  0  0  0  0  0  0  0  0
    1.6500   -0.4040    0.0000 C   0  0  0  0  0  0  0  0  0  0  0  0
    1.6500   -1.2290    0.0000 C   0  0  0  0  0  0  0  0  0  0  0  0
  1  7  1  0  0  0  0
  1  8  1  0  0  0  0
  2  5  1  0  0  0  0
  3  4  1  0  0  0  0
  3  5  1  0  0  0  0
  4  6  1  0  0  0  0
  4  8  2  0  0  0  0
  5  9  1  0  0  0  0
  6  7  1  0  0  0  0
  6 10  2  0  0  0  0
  7 11  2  0  0  0  0
 10 12  1  0  0  0  0
 11 13  1  0  0  0  0
 12 13  2  0  0  0  0
M  END
>  <DRUGBANK_ID>
DB01446

>  <DRUG_GROUPS>
illicit; experimental

>  <GENERIC_NAME>
Alpha-methyltryptamine

>  <CHEMICAL_FORMULA>
C11H14N2

>  <MOLECULAR_WEIGHT>
174.2423

>  <EXACT_MASS>
174.115698458

>  <IUPAC_NAME>
1-(1H-indol-3-yl)propan-2-amine

>  <INCHI_IDENTIFIER>
InChI=1S/C11H14N2/c1-8(12)6-9-7-13-11-5-3-2-4-10(9)11/h2-5,7-8,13H,6,12H2,1H3

>  <INCHI_KEY>
InChIKey=QSQQQURBVYWZKJ-UHFFFAOYSA-N

>  <SMILES>
CC(N)CC1=CNC2=CC=CC=C12

>  <JCHEM_ACCEPTOR_COUNT>
1

>  <JCHEM_DONOR_COUNT>
2

>  <JCHEM_ACIDIC_PKA>
17.14

>  <JCHEM_BASIC_PKA>
9.96

>  <JCHEM_PHYSIOLOGICAL_CHARGE>
1

>  <ALOGPS_LOGP>
2

>  <JCHEM_LOGP>
1.9

>  <ALOGPS_LOGS>
-2.2

>  <JCHEM_POLARIZABILITY>
20.19

>  <JCHEM_POLAR_SURFACE_AREA>
41.81

>  <JCHEM_REFRACTIVITY>
54.79

>  <JCHEM_ROTATABLE_BOND_COUNT>
2

>  <ALOGPS_SOLUBILITY>
1.15e+00 g/l __

$$$$
DB01447
 OpenBabel03171413512D

 13 14  0  0  1  0  0  0  0  0999 V2000
    2.3888    0.5203    0.0000 O   0  0  0  0  0  0  0  0  0  0  0  0
    3.4687    1.3049    0.0000 N   0  0  0  0  0  0  0  0  0  0  0  0
    2.1587    1.9724    0.0000 N   0  0  0  0  0  0  0  0  0  0  0  0
    3.0562    0.0354    0.0000 C   0  0  3  0  0  0  0  0  0  0  0  0
    3.7236    0.5203    0.0000 C   0  0  3  0  0  0  0  0  0  0  0  0
    3.0562   -0.7896    0.0000 C   0  0  0  0  0  0  0  0  0  0  0  0
    4.5083    0.2653    0.0000 C   0  0  0  0  0  0  0  0  0  0  0  0
    2.6437    1.3049    0.0000 C   0  0  0  0  0  0  0  0  0  0  0  0
    3.7707   -1.2021    0.0000 C   0  0  0  0  0  0  0  0  0  0  0  0
    2.3417   -1.2021    0.0000 C   0  0  0  0  0  0  0  0  0  0  0  0
    3.7707   -2.0272    0.0000 C   0  0  0  0  0  0  0  0  0  0  0  0
    2.3417   -2.0272    0.0000 C   0  0  0  0  0  0  0  0  0  0  0  0
    3.0562   -2.4397    0.0000 C   0  0  0  0  0  0  0  0  0  0  0  0
  1  4  1  0  0  0  0
  1  8  1  0  0  0  0
  2  5  1  0  0  0  0
  2  8  2  0  0  0  0
  3  8  1  0  0  0  0
  4  5  1  0  0  0  0
  4  6  1  0  0  0  0
  5  7  1  0  0  0  0
  6  9  2  0  0  0  0
  6 10  1  0  0  0  0
  9 11  1  0  0  0  0
 10 12  2  0  0  0  0
 11 13  2  0  0  0  0
 12 13  1  0  0  0  0
M  END
>  <DRUGBANK_ID>
DB01447

>  <DRUG_GROUPS>
illicit; experimental

>  <GENERIC_NAME>
4-Methylaminorex

>  <CHEMICAL_FORMULA>
C10H12N2O

>  <MOLECULAR_WEIGHT>
176.2151

>  <EXACT_MASS>
176.094963016

>  <IUPAC_NAME>
4-methyl-5-phenyl-4,5-dihydro-1,3-oxazol-2-amine

>  <INCHI_IDENTIFIER>
InChI=1S/C10H12N2O/c1-7-9(13-10(11)12-7)8-5-3-2-4-6-8/h2-7,9H,1H3,(H2,11,12)

>  <INCHI_KEY>
InChIKey=LJQBMYDFWFGESC-UHFFFAOYSA-N

>  <SMILES>
CC1N=C(N)OC1C1=CC=CC=C1

>  <JCHEM_ACCEPTOR_COUNT>
3

>  <JCHEM_DONOR_COUNT>
1

>  <JCHEM_BASIC_PKA>
7.24

>  <JCHEM_PHYSIOLOGICAL_CHARGE>
1

>  <ALOGPS_LOGP>
1.47

>  <JCHEM_LOGP>
1.88

>  <ALOGPS_LOGS>
-2.6

>  <JCHEM_POLARIZABILITY>
18.92

>  <JCHEM_POLAR_SURFACE_AREA>
47.61

>  <JCHEM_REFRACTIVITY>
50.17

>  <JCHEM_ROTATABLE_BOND_COUNT>
1

>  <ALOGPS_SOLUBILITY>
4.68e-01 g/l __

$$$$
DB01450
 OpenBabel03171413512D

 33 38  0  0  1  0  0  0  0  0999 V2000
    4.3079   -1.4379    0.0000 O   0  0  0  0  0  0  0  0  0  0  0  0
    6.3946   -1.6094    0.0000 O   0  0  0  0  0  0  0  0  0  0  0  0
    7.2345    0.7003    0.0000 O   0  0  0  0  0  0  0  0  0  0  0  0
    2.2397   -1.6093    0.0000 O   0  0  0  0  0  0  0  0  0  0  0  0
    5.1422    1.9889    0.0000 N   0  0  0  0  0  0  0  0  0  0  0  0
    5.1422    0.5599    0.0000 C   0  0  2  0  0  0  0  0  0  0  0  0
    4.7296   -0.1546    0.0000 C   0  0  1  0  0  0  0  0  0  0  0  0
    5.9672   -0.8690    0.0000 C   0  0  1  0  0  0  0  0  0  0  0  0
    5.1422   -0.8690    0.0000 C   0  0  2  0  0  0  0  0  0  0  0  0
    5.9672    0.5599    0.0000 C   0  0  0  0  0  0  0  0  0  0  0  0
    6.3797   -0.1546    0.0000 C   0  0  2  0  0  0  0  0  0  0  0  0
    4.7296    1.2745    0.0000 C   0  0  1  0  0  0  0  0  0  0  0  0
    5.7380    0.1755    0.0000 C   0  0  0  0  0  0  0  0  0  0  0  0
    5.4263   -0.4479    0.0000 C   0  0  0  0  0  0  0  0  0  0  0  0
    4.3172    0.5599    0.0000 C   0  0  0  0  0  0  0  0  0  0  0  0
    3.9046   -0.1546    0.0000 C   0  0  0  0  0  0  0  0  0  0  0  0
    3.9046    1.2745    0.0000 C   0  0  0  0  0  0  0  0  0  0  0  0
    7.2345   -0.1546    0.0000 C   0  0  1  0  0  0  0  0  0  0  0  0
    4.3079    2.1372    0.0000 C   0  0  0  0  0  0  0  0  0  0  0  0
    3.4921    0.5599    0.0000 C   0  0  0  0  0  0  0  0  0  0  0  0
    3.4921   -0.8690    0.0000 C   0  0  0  0  0  0  0  0  0  0  0  0
    8.0894   -0.1546    0.0000 C   0  0  0  0  0  0  0  0  0  0  0  0
    5.9172    2.3497    0.0000 C   0  0  0  0  0  0  0  0  0  0  0  0
    7.2345   -1.0094    0.0000 C   0  0  0  0  0  0  0  0  0  0  0  0
    2.6671    0.5599    0.0000 C   0  0  0  0  0  0  0  0  0  0  0  0
    2.6671   -0.8690    0.0000 C   0  0  0  0  0  0  0  0  0  0  0  0
    5.9672   -2.3497    0.0000 C   0  0  0  0  0  0  0  0  0  0  0  0
    2.2545   -0.1546    0.0000 C   0  0  0  0  0  0  0  0  0  0  0  0
    8.5168    0.5857    0.0000 C   0  0  0  0  0  0  0  0  0  0  0  0
    9.3716    0.5857    0.0000 C   0  0  0  0  0  0  0  0  0  0  0  0
    5.3437   -1.5225    0.0000 H   0  0  0  0  0  0  0  0  0  0  0  0
    6.7216    0.4377    0.0000 H   0  0  0  0  0  0  0  0  0  0  0  0
    5.3702    1.0349    0.0000 H   0  0  0  0  0  0  0  0  0  0  0  0
  1  9  1  0  0  0  0
  1 21  1  0  0  0  0
  2 27  1  0  0  0  0
  4 26  1  0  0  0  0
  5 12  1  0  0  0  0
  5 19  1  0  0  0  0
  5 23  1  0  0  0  0
  6  7  1  0  0  0  0
  6 10  1  1  0  0  0
  6 12  1  0  0  0  0
  6 13  1  0  0  0  0
  7  9  1  0  0  0  0
  7 15  1  1  0  0  0
  7 16  1  0  0  0  0
  8  2  1  6  0  0  0
  8  9  1  0  0  0  0
  8 11  1  0  0  0  0
  8 14  1  0  0  0  0
  9 31  1  1  0  0  0
 10 11  1  0  0  0  0
 11 18  1  0  0  0  0
 11 32  1  1  0  0  0
 12 17  1  0  0  0  0
 12 33  1  6  0  0  0
 13 14  1  0  0  0  0
 15 19  1  0  0  0  0
 16 20  2  0  0  0  0
 16 21  1  0  0  0  0
 17 20  1  0  0  0  0
 18  3  1  1  0  0  0
 18 22  1  0  0  0  0
 18 24  1  0  0  0  0
 20 25  1  0  0  0  0
 21 26  2  0  0  0  0
 22 29  1  0  0  0  0
 25 28  2  0  0  0  0
 26 28  1  0  0  0  0
 29 30  1  0  0  0  0
M  END
>  <DRUGBANK_ID>
DB01450

>  <DRUG_GROUPS>
illicit; experimental

>  <GENERIC_NAME>
Dihydroetorphine

>  <CHEMICAL_FORMULA>
C25H35NO4

>  <MOLECULAR_WEIGHT>
413.5497

>  <EXACT_MASS>
413.256608613

>  <IUPAC_NAME>
(1S,2R,6S,14R,15R,16R)-16-[(2R)-2-hydroxypentan-2-yl]-15-methoxy-3-methyl-13-oxa-3-azahexacyclo[13.2.2.1^{2,8}.0^{1,6}.0^{6,14}.0^{7,12}]icosa-7,9,11-trien-11-ol

>  <INCHI_IDENTIFIER>
InChI=1S/C25H35NO4/c1-5-8-22(2,28)17-14-23-9-10-25(17,29-4)21-24(23)11-12-26(3)18(23)13-15-6-7-16(27)20(30-21)19(15)24/h6-7,17-18,21,27-28H,5,8-14H2,1-4H3/t17-,18-,21-,22-,23-,24+,25-/m1/s1

>  <INCHI_KEY>
InChIKey=BRTSNYPDACNMIP-FAWZKKEFSA-N

>  <SMILES>
[H][C@@]12OC3=C(O)C=CC4=C3[C@@]11CCN(C)[C@]([H])(C4)[C@]11CC[C@@]2(OC)[C@]([H])(C1)[C@](C)(O)CCC

>  <JCHEM_ACCEPTOR_COUNT>
5

>  <JCHEM_DONOR_COUNT>
2

>  <JCHEM_ACIDIC_PKA>
7.5

>  <JCHEM_BASIC_PKA>
11.87

>  <JCHEM_PHYSIOLOGICAL_CHARGE>
1

>  <ALOGPS_LOGP>
2.98

>  <JCHEM_LOGP>
2.66

>  <ALOGPS_LOGS>
-3.6

>  <JCHEM_POLARIZABILITY>
46.49

>  <JCHEM_POLAR_SURFACE_AREA>
62.16

>  <JCHEM_REFRACTIVITY>
115.55

>  <JCHEM_ROTATABLE_BOND_COUNT>
4

>  <ALOGPS_SOLUBILITY>
1.14e-01 g/l __

$$$$
DB01452
 OpenBabel03171413512D

 30 34  0  0  1  0  0  0  0  0999 V2000
    2.6869    0.0458    0.0000 O   0  0  0  0  0  0  0  0  0  0  0  0
    2.4861   -2.0838    0.0000 O   0  0  0  0  0  0  0  0  0  0  0  0
    2.4861    2.0837    0.0000 O   0  0  0  0  0  0  0  0  0  0  0  0
    3.2374   -3.3850    0.0000 O   0  0  0  0  0  0  0  0  0  0  0  0
    3.2374    3.3849    0.0000 O   0  0  0  0  0  0  0  0  0  0  0  0
    6.0953   -0.8250    0.0000 N   0  0  0  0  0  0  0  0  0  0  0  0
    3.9519   -0.4125    0.0000 C   0  0  1  0  0  0  0  0  0  0  0  0
    4.6664   -0.8250    0.0000 C   0  0  2  0  0  0  0  0  0  0  0  0
    5.3808   -0.4125    0.0000 C   0  0  1  0  0  0  0  0  0  0  0  0
    3.2374   -0.8250    0.0000 C   0  0  2  0  0  0  0  0  0  0  0  0
    4.4285    0.1925    0.0000 C   0  0  0  0  0  0  0  0  0  0  0  0
    3.9519    0.4125    0.0000 C   0  0  0  0  0  0  0  0  0  0  0  0
    5.3808    0.4125    0.0000 C   0  0  0  0  0  0  0  0  0  0  0  0
    5.6019    0.1925    0.0000 C   0  0  0  0  0  0  0  0  0  0  0  0
    4.6664    0.8250    0.0000 C   0  0  0  0  0  0  0  0  0  0  0  0
    3.2374   -1.6501    0.0000 C   0  0  2  0  0  0  0  0  0  0  0  0
    4.6664   -1.6501    0.0000 C   0  0  0  0  0  0  0  0  0  0  0  0
    3.2374    0.8250    0.0000 C   0  0  0  0  0  0  0  0  0  0  0  0
    3.9519   -2.0625    0.0000 C   0  0  0  0  0  0  0  0  0  0  0  0
    6.6862   -1.4601    0.0000 C   0  0  0  0  0  0  0  0  0  0  0  0
    4.6664    1.6500    0.0000 C   0  0  0  0  0  0  0  0  0  0  0  0
    3.2374    1.6500    0.0000 C   0  0  0  0  0  0  0  0  0  0  0  0
    3.9519    2.0625    0.0000 C   0  0  0  0  0  0  0  0  0  0  0  0
    2.4861   -2.9513    0.0000 C   0  0  0  0  0  0  0  0  0  0  0  0
    1.7349   -3.3850    0.0000 C   0  0  0  0  0  0  0  0  0  0  0  0
    2.4861    2.9512    0.0000 C   0  0  0  0  0  0  0  0  0  0  0  0
    1.7349    3.3850    0.0000 C   0  0  0  0  0  0  0  0  0  0  0  0
    5.1124   -1.3566    0.0000 H   0  0  0  0  0  0  0  0  0  0  0  0
    5.6188   -1.0645    0.0000 H   0  0  0  0  0  0  0  0  0  0  0  0
    2.5708   -1.0180    0.0000 H   0  0  0  0  0  0  0  0  0  0  0  0
  1 10  1  0  0  0  0
  1 18  1  0  0  0  0
  2 24  1  0  0  0  0
  3 22  1  0  0  0  0
  3 26  1  0  0  0  0
  4 24  2  0  0  0  0
  5 26  2  0  0  0  0
  6  9  1  0  0  0  0
  6 14  1  0  0  0  0
  6 20  1  0  0  0  0
  7  8  1  0  0  0  0
  7 10  1  0  0  0  0
  7 11  1  1  0  0  0
  7 12  1  0  0  0  0
  8  9  1  0  0  0  0
  8 17  1  0  0  0  0
  8 28  1  1  0  0  0
  9 13  1  0  0  0  0
  9 29  1  6  0  0  0
 10 16  1  0  0  0  0
 10 30  1  1  0  0  0
 11 14  1  0  0  0  0
 12 15  2  0  0  0  0
 12 18  1  0  0  0  0
 13 15  1  0  0  0  0
 15 21  1  0  0  0  0
 16  2  1  6  0  0  0
 16 19  1  0  0  0  0
 17 19  2  0  0  0  0
 18 22  2  0  0  0  0
 21 23  2  0  0  0  0
 22 23  1  0  0  0  0
 24 25  1  0  0  0  0
 26 27  1  0  0  0  0
M  END
>  <DRUGBANK_ID>
DB01452

>  <DRUG_GROUPS>
illicit; approved

>  <GENERIC_NAME>
Heroin

>  <SYNONYMS>
diacetylmorphine; diamorphine; morphine diacetate

>  <SALTS>
Heroin hydrochloride

>  <CHEMICAL_FORMULA>
C21H23NO5

>  <MOLECULAR_WEIGHT>
369.411

>  <EXACT_MASS>
369.157622851

>  <IUPAC_NAME>
(1S,5R,13R,14S,17R)-10-(acetyloxy)-4-methyl-12-oxa-4-azapentacyclo[9.6.1.0^{1,13}.0^{5,17}.0^{7,18}]octadeca-7(18),8,10,15-tetraen-14-yl acetate

>  <INCHI_IDENTIFIER>
InChI=1S/C21H23NO5/c1-11(23)25-16-6-4-13-10-15-14-5-7-17(26-12(2)24)20-21(14,8-9-22(15)3)18(13)19(16)27-20/h4-7,14-15,17,20H,8-10H2,1-3H3/t14-,15+,17-,20-,21-/m0/s1

>  <INCHI_KEY>
InChIKey=GVGLGOZIDCSQPN-PVHGPHFFSA-N

>  <SMILES>
[H][C@@]12OC3=C(OC(C)=O)C=CC4=C3[C@@]11CCN(C)[C@]([H])(C4)[C@]1([H])C=C[C@@H]2OC(C)=O

>  <JCHEM_ACCEPTOR_COUNT>
4

>  <JCHEM_DONOR_COUNT>
0

>  <JCHEM_BASIC_PKA>
9.1

>  <JCHEM_PHYSIOLOGICAL_CHARGE>
1

>  <ALOGPS_LOGP>
2.3

>  <JCHEM_LOGP>
1.55

>  <ALOGPS_LOGS>
-3.1

>  <JCHEM_POLARIZABILITY>
37.9

>  <JCHEM_POLAR_SURFACE_AREA>
65.07

>  <JCHEM_REFRACTIVITY>
98.43

>  <JCHEM_ROTATABLE_BOND_COUNT>
4

>  <ALOGPS_SOLUBILITY>
2.66e-01 g/l __

$$$$
DB01453
 OpenBabel03171413512D

 26 28  0  0  1  0  0  0  0  0999 V2000
    2.0930   -1.0313    0.0000 O   0  0  0  0  0  0  0  0  0  0  0  0
    2.0930    2.2688    0.0000 O   0  0  0  0  0  0  0  0  0  0  0  0
    3.5220   -0.2063    0.0000 N   0  0  0  0  0  0  0  0  0  0  0  0
    3.5220    2.2688    0.0000 N   0  0  0  0  0  0  0  0  0  0  0  0
    3.5220    1.4438    0.0000 C   0  0  3  0  0  0  0  0  0  0  0  0
    2.8075    1.0313    0.0000 C   0  0  0  0  0  0  0  0  0  0  0  0
    4.2365    1.0313    0.0000 C   0  0  0  0  0  0  0  0  0  0  0  0
    2.8075    0.2063    0.0000 C   0  0  0  0  0  0  0  0  0  0  0  0
    4.2365    0.2063    0.0000 C   0  0  0  0  0  0  0  0  0  0  0  0
    3.5220   -1.0313    0.0000 C   0  0  0  0  0  0  0  0  0  0  0  0
    2.8075   -1.4438    0.0000 C   0  0  3  0  0  0  0  0  0  0  0  0
    4.2365    2.6813    0.0000 C   0  0  0  0  0  0  0  0  0  0  0  0
    2.8075    2.6813    0.0000 C   0  0  0  0  0  0  0  0  0  0  0  0
    2.8075   -2.2688    0.0000 C   0  0  0  0  0  0  0  0  0  0  0  0
    2.8075    3.5063    0.0000 C   0  0  0  0  0  0  0  0  0  0  0  0
    4.2365    3.5063    0.0000 C   0  0  0  0  0  0  0  0  0  0  0  0
    4.9509    2.2688    0.0000 C   0  0  0  0  0  0  0  0  0  0  0  0
    3.5220   -2.6813    0.0000 C   0  0  0  0  0  0  0  0  0  0  0  0
    2.0930   -2.6813    0.0000 C   0  0  0  0  0  0  0  0  0  0  0  0
    2.0930    3.9188    0.0000 C   0  0  0  0  0  0  0  0  0  0  0  0
    4.9509    3.9188    0.0000 C   0  0  0  0  0  0  0  0  0  0  0  0
    5.6655    2.6813    0.0000 C   0  0  0  0  0  0  0  0  0  0  0  0
    5.6655    3.5063    0.0000 C   0  0  0  0  0  0  0  0  0  0  0  0
    3.5220   -3.5063    0.0000 C   0  0  0  0  0  0  0  0  0  0  0  0
    2.0930   -3.5063    0.0000 C   0  0  0  0  0  0  0  0  0  0  0  0
    2.8075   -3.9188    0.0000 C   0  0  0  0  0  0  0  0  0  0  0  0
  1 11  1  0  0  0  0
  2 13  2  0  0  0  0
  3  8  1  0  0  0  0
  3  9  1  0  0  0  0
  3 10  1  0  0  0  0
  4  5  1  0  0  0  0
  4 12  1  0  0  0  0
  4 13  1  0  0  0  0
  5  6  1  0  0  0  0
  5  7  1  0  0  0  0
  6  8  1  0  0  0  0
  7  9  1  0  0  0  0
 10 11  1  0  0  0  0
 11 14  1  0  0  0  0
 12 16  2  0  0  0  0
 12 17  1  0  0  0  0
 13 15  1  0  0  0  0
 14 18  2  0  0  0  0
 14 19  1  0  0  0  0
 15 20  1  0  0  0  0
 16 21  1  0  0  0  0
 17 22  2  0  0  0  0
 18 24  1  0  0  0  0
 19 25  2  0  0  0  0
 21 23  2  0  0  0  0
 22 23  1  0  0  0  0
 24 26  2  0  0  0  0
 25 26  1  0  0  0  0
M  END
>  <DRUGBANK_ID>
DB01453

>  <DRUG_GROUPS>
illicit; experimental

>  <GENERIC_NAME>
Beta-hydroxyfentanyl

>  <CHEMICAL_FORMULA>
C22H28N2O2

>  <MOLECULAR_WEIGHT>
352.4699

>  <EXACT_MASS>
352.21507815

>  <IUPAC_NAME>
N-[1-(2-hydroxy-2-phenylethyl)piperidin-4-yl]-N-phenylpropanamide

>  <INCHI_IDENTIFIER>
InChI=1S/C22H28N2O2/c1-2-22(26)24(19-11-7-4-8-12-19)20-13-15-23(16-14-20)17-21(25)18-9-5-3-6-10-18/h3-12,20-21,25H,2,13-17H2,1H3

>  <INCHI_KEY>
InChIKey=JEFVHLMGRUJLET-UHFFFAOYSA-N

>  <SMILES>
CCC(=O)N(C1CCN(CC(O)C2=CC=CC=C2)CC1)C1=CC=CC=C1

>  <JCHEM_ACCEPTOR_COUNT>
3

>  <JCHEM_DONOR_COUNT>
1

>  <JCHEM_ACIDIC_PKA>
14.11

>  <JCHEM_BASIC_PKA>
8.28

>  <JCHEM_PHYSIOLOGICAL_CHARGE>
1

>  <ALOGPS_LOGP>
2.96

>  <JCHEM_LOGP>
2.9

>  <ALOGPS_LOGS>
-3.5

>  <JCHEM_POLARIZABILITY>
39.71

>  <JCHEM_POLAR_SURFACE_AREA>
43.78

>  <JCHEM_REFRACTIVITY>
104.69

>  <JCHEM_ROTATABLE_BOND_COUNT>
6

>  <ALOGPS_SOLUBILITY>
1.14e-01 g/l __

$$$$
DB01454
 OpenBabel03171413512D

 14 15  0  0  1  0  0  0  0  0999 V2000
    6.7171    0.4081    0.0000 O   0  0  0  0  0  0  0  0  0  0  0  0
    6.7171   -0.9195    0.0000 O   0  0  0  0  0  0  0  0  0  0  0  0
    2.3643    0.5693    0.0000 N   0  0  0  0  0  0  0  0  0  0  0  0
    3.0789    0.1568    0.0000 C   0  0  3  0  0  0  0  0  0  0  0  0
    3.7932    0.5693    0.0000 C   0  0  0  0  0  0  0  0  0  0  0  0
    4.5077    0.1568    0.0000 C   0  0  0  0  0  0  0  0  0  0  0  0
    3.0789   -0.6682    0.0000 C   0  0  0  0  0  0  0  0  0  0  0  0
    5.2220    0.5693    0.0000 C   0  0  0  0  0  0  0  0  0  0  0  0
    5.9365    0.1568    0.0000 C   0  0  0  0  0  0  0  0  0  0  0  0
    4.5077   -0.6682    0.0000 C   0  0  0  0  0  0  0  0  0  0  0  0
    5.9365   -0.6682    0.0000 C   0  0  0  0  0  0  0  0  0  0  0  0
    5.2220   -1.0807    0.0000 C   0  0  0  0  0  0  0  0  0  0  0  0
    1.6499    0.1568    0.0000 C   0  0  0  0  0  0  0  0  0  0  0  0
    7.1986   -0.2558    0.0000 C   0  0  0  0  0  0  0  0  0  0  0  0
  1  9  1  0  0  0  0
  1 14  1  0  0  0  0
  2 11  1  0  0  0  0
  2 14  1  0  0  0  0
  3  4  1  0  0  0  0
  3 13  1  0  0  0  0
  4  5  1  0  0  0  0
  4  7  1  0  0  0  0
  5  6  1  0  0  0  0
  6  8  2  0  0  0  0
  6 10  1  0  0  0  0
  8  9  1  0  0  0  0
  9 11  2  0  0  0  0
 10 12  2  0  0  0  0
 11 12  1  0  0  0  0
M  END
>  <DRUGBANK_ID>
DB01454

>  <DRUG_GROUPS>
illicit; experimental

>  <GENERIC_NAME>
3,4-Methylenedioxymethamphetamine

>  <SYNONYMS>
Ecstasy; MDMA

>  <CHEMICAL_FORMULA>
C11H15NO2

>  <MOLECULAR_WEIGHT>
193.2423

>  <EXACT_MASS>
193.110278729

>  <IUPAC_NAME>
[1-(2H-1,3-benzodioxol-5-yl)propan-2-yl](methyl)amine

>  <INCHI_IDENTIFIER>
InChI=1S/C11H15NO2/c1-8(12-2)5-9-3-4-10-11(6-9)14-7-13-10/h3-4,6,8,12H,5,7H2,1-2H3

>  <INCHI_KEY>
InChIKey=SHXWCVYOXRDMCX-UHFFFAOYSA-N

>  <SMILES>
CNC(C)CC1=CC2=C(OCO2)C=C1

>  <JCHEM_ACCEPTOR_COUNT>
3

>  <JCHEM_DONOR_COUNT>
1

>  <JCHEM_BASIC_PKA>
10.14

>  <JCHEM_PHYSIOLOGICAL_CHARGE>
1

>  <ALOGPS_LOGP>
1.65

>  <JCHEM_LOGP>
1.86

>  <ALOGPS_LOGS>
-1.8

>  <JCHEM_POLARIZABILITY>
21.49

>  <JCHEM_POLAR_SURFACE_AREA>
30.49

>  <JCHEM_REFRACTIVITY>
54.25

>  <JCHEM_ROTATABLE_BOND_COUNT>
3

>  <ALOGPS_SOLUBILITY>
3.22e+00 g/l __

$$$$
DB01459
 OpenBabel03171413512D

 37 41  0  0  0  0  0  0  0  0999 V2000
    5.1661   -2.3526    0.0000 O   0  0  0  0  0  0  0  0  0  0  0  0
    3.5649   -4.4147    0.0000 O   0  0  0  0  0  0  0  0  0  0  0  0
    4.6285    0.6639    0.0000 N   0  0  0  0  0  0  0  0  0  0  0  0
    3.8596   -1.6886    0.0000 N   0  0  0  0  0  0  0  0  0  0  0  0
    3.8596   -3.0165    0.0000 N   0  0  0  0  0  0  0  0  0  0  0  0
    4.3800    2.9150    0.0000 N   0  0  0  0  0  0  0  0  0  0  0  0
    4.1159   -0.9045    0.0000 C   0  0  0  0  0  0  0  0  0  0  0  0
    4.9232   -0.7343    0.0000 C   0  0  0  0  0  0  0  0  0  0  0  0
    3.5649   -0.2904    0.0000 C   0  0  0  0  0  0  0  0  0  0  0  0
    5.1795    0.0498    0.0000 C   0  0  0  0  0  0  0  0  0  0  0  0
    3.8213    0.4938    0.0000 C   0  0  0  0  0  0  0  0  0  0  0  0
    4.8848    1.4481    0.0000 C   0  0  0  0  0  0  0  0  0  0  0  0
    5.6921    1.6183    0.0000 C   0  0  0  0  0  0  0  0  0  0  0  0
    3.0790   -1.9401    0.0000 C   0  0  0  0  0  0  0  0  0  0  0  0
    5.9484    2.4024    0.0000 C   0  0  0  0  0  0  0  0  0  0  0  0
    4.3411   -2.3526    0.0000 C   0  0  0  0  0  0  0  0  0  0  0  0
    3.0790   -2.7651    0.0000 C   0  0  0  0  0  0  0  0  0  0  0  0
    6.7326    2.1461    0.0000 C   0  0  0  0  0  0  0  0  0  0  0  0
    6.2047    3.1866    0.0000 C   0  0  0  0  0  0  0  0  0  0  0  0
    2.3645   -1.5276    0.0000 C   0  0  0  0  0  0  0  0  0  0  0  0
    2.3645   -3.1776    0.0000 C   0  0  0  0  0  0  0  0  0  0  0  0
    4.1159   -3.8006    0.0000 C   0  0  0  0  0  0  0  0  0  0  0  0
    5.1642    2.6588    0.0000 C   0  0  0  0  0  0  0  0  0  0  0  0
    1.6500   -1.9401    0.0000 C   0  0  0  0  0  0  0  0  0  0  0  0
    1.6500   -2.7651    0.0000 C   0  0  0  0  0  0  0  0  0  0  0  0
    7.3466    2.6971    0.0000 C   0  0  0  0  0  0  0  0  0  0  0  0
    5.6537    3.8006    0.0000 C   0  0  0  0  0  0  0  0  0  0  0  0
    6.9027    1.3388    0.0000 C   0  0  0  0  0  0  0  0  0  0  0  0
    7.0120    3.3567    0.0000 C   0  0  0  0  0  0  0  0  0  0  0  0
    4.9232   -3.9708    0.0000 C   0  0  0  0  0  0  0  0  0  0  0  0
    8.1308    2.4408    0.0000 C   0  0  0  0  0  0  0  0  0  0  0  0
    5.9100    4.5848    0.0000 C   0  0  0  0  0  0  0  0  0  0  0  0
    7.6868    1.0826    0.0000 C   0  0  0  0  0  0  0  0  0  0  0  0
    7.2682    4.1410    0.0000 C   0  0  0  0  0  0  0  0  0  0  0  0
    5.1795   -4.7550    0.0000 C   0  0  0  0  0  0  0  0  0  0  0  0
    8.3009    1.6335    0.0000 C   0  0  0  0  0  0  0  0  0  0  0  0
    6.7173    4.7550    0.0000 C   0  0  0  0  0  0  0  0  0  0  0  0
  1 16  2  0  0  0  0
  2 22  2  0  0  0  0
  3 10  1  0  0  0  0
  3 11  1  0  0  0  0
  3 12  1  0  0  0  0
  4  7  1  0  0  0  0
  4 14  1  0  0  0  0
  4 16  1  0  0  0  0
  5 16  1  0  0  0  0
  5 17  1  0  0  0  0
  5 22  1  0  0  0  0
  6 23  3  0  0  0  0
  7  8  1  0  0  0  0
  7  9  1  0  0  0  0
  8 10  1  0  0  0  0
  9 11  1  0  0  0  0
 12 13  1  0  0  0  0
 13 15  1  0  0  0  0
 14 17  1  0  0  0  0
 14 20  2  0  0  0  0
 15 18  1  0  0  0  0
 15 19  1  0  0  0  0
 15 23  1  0  0  0  0
 17 21  2  0  0  0  0
 18 26  2  0  0  0  0
 18 28  1  0  0  0  0
 19 27  2  0  0  0  0
 19 29  1  0  0  0  0
 20 24  1  0  0  0  0
 21 25  1  0  0  0  0
 22 30  1  0  0  0  0
 24 25  2  0  0  0  0
 26 31  1  0  0  0  0
 27 32  1  0  0  0  0
 28 33  2  0  0  0  0
 29 34  2  0  0  0  0
 30 35  1  0  0  0  0
 31 36  2  0  0  0  0
 32 37  2  0  0  0  0
 33 36  1  0  0  0  0
 34 37  1  0  0  0  0
M  END
>  <DRUGBANK_ID>
DB01459

>  <DRUG_GROUPS>
illicit; experimental

>  <GENERIC_NAME>
Bezitramide

>  <CHEMICAL_FORMULA>
C31H32N4O2

>  <MOLECULAR_WEIGHT>
492.6114

>  <EXACT_MASS>
492.252526288

>  <IUPAC_NAME>
4-[4-(2-oxo-3-propanoyl-2,3-dihydro-1H-1,3-benzodiazol-1-yl)piperidin-1-yl]-2,2-diphenylbutanenitrile

>  <INCHI_IDENTIFIER>
InChI=1S/C31H32N4O2/c1-2-29(36)35-28-16-10-9-15-27(28)34(30(35)37)26-17-20-33(21-18-26)22-19-31(23-32,24-11-5-3-6-12-24)25-13-7-4-8-14-25/h3-16,26H,2,17-22H2,1H3

>  <INCHI_KEY>
InChIKey=FLKWNFFCSSJANB-UHFFFAOYSA-N

>  <SMILES>
CCC(=O)N1C(=O)N(C2CCN(CCC(C#N)(C3=CC=CC=C3)C3=CC=CC=C3)CC2)C2=CC=CC=C12

>  <JCHEM_ACCEPTOR_COUNT>
4

>  <JCHEM_DONOR_COUNT>
0

>  <JCHEM_BASIC_PKA>
8.32

>  <JCHEM_PHYSIOLOGICAL_CHARGE>
1

>  <ALOGPS_LOGP>
4.35

>  <JCHEM_LOGP>
4.79

>  <ALOGPS_LOGS>
-4.9

>  <JCHEM_POLARIZABILITY>
55.58

>  <JCHEM_POLAR_SURFACE_AREA>
67.65

>  <JCHEM_REFRACTIVITY>
155.25

>  <JCHEM_ROTATABLE_BOND_COUNT>
7

>  <ALOGPS_SOLUBILITY>
6.70e-03 g/l __

$$$$
DB01460
 OpenBabel03171413512D

 16 17  0  0  0  0  0  0  0  0999 V2000
    5.1796    1.0772    0.0000 N   0  0  0  0  0  0  0  0  0  0  0  0
    3.8597   -1.9892    0.0000 N   0  0  0  0  0  0  0  0  0  0  0  0
    4.9233    0.2930    0.0000 C   0  0  0  0  0  0  0  0  0  0  0  0
    4.1160    0.1228    0.0000 C   0  0  0  0  0  0  0  0  0  0  0  0
    3.8597   -0.6613    0.0000 C   0  0  0  0  0  0  0  0  0  0  0  0
    3.0791   -0.9128    0.0000 C   0  0  0  0  0  0  0  0  0  0  0  0
    4.6287    1.6912    0.0000 C   0  0  0  0  0  0  0  0  0  0  0  0
    5.9869    1.2473    0.0000 C   0  0  0  0  0  0  0  0  0  0  0  0
    3.0791   -1.7378    0.0000 C   0  0  0  0  0  0  0  0  0  0  0  0
    4.3412   -1.3253    0.0000 C   0  0  0  0  0  0  0  0  0  0  0  0
    2.3645   -0.5003    0.0000 C   0  0  0  0  0  0  0  0  0  0  0  0
    4.8849    2.4754    0.0000 C   0  0  0  0  0  0  0  0  0  0  0  0
    6.2433    2.0316    0.0000 C   0  0  0  0  0  0  0  0  0  0  0  0
    2.3645   -2.1504    0.0000 C   0  0  0  0  0  0  0  0  0  0  0  0
    1.6501   -0.9128    0.0000 C   0  0  0  0  0  0  0  0  0  0  0  0
    1.6501   -1.7378    0.0000 C   0  0  0  0  0  0  0  0  0  0  0  0
  1  3  1  0  0  0  0
  1  7  1  0  0  0  0
  1  8  1  0  0  0  0
  2  9  1  0  0  0  0
  2 10  1  0  0  0  0
  3  4  1  0  0  0  0
  4  5  1  0  0  0  0
  5  6  1  0  0  0  0
  5 10  2  0  0  0  0
  6  9  1  0  0  0  0
  6 11  2  0  0  0  0
  7 12  1  0  0  0  0
  8 13  1  0  0  0  0
  9 14  2  0  0  0  0
 11 15  1  0  0  0  0
 14 16  1  0  0  0  0
 15 16  2  0  0  0  0
M  END
>  <DRUGBANK_ID>
DB01460

>  <DRUG_GROUPS>
illicit; experimental

>  <GENERIC_NAME>
Diethyltryptamine

>  <SYNONYMS>
3-(2-Diethylaminoethyl)indole; N,N-Diethyl-2-(1H-indol-3-yl)ethanamine

>  <CHEMICAL_FORMULA>
C14H20N2

>  <MOLECULAR_WEIGHT>
216.322

>  <EXACT_MASS>
216.16264865

>  <IUPAC_NAME>
diethyl[2-(1H-indol-3-yl)ethyl]amine

>  <INCHI_IDENTIFIER>
InChI=1S/C14H20N2/c1-3-16(4-2)10-9-12-11-15-14-8-6-5-7-13(12)14/h5-8,11,15H,3-4,9-10H2,1-2H3

>  <INCHI_KEY>
InChIKey=LSSUMOWDTKZHHT-UHFFFAOYSA-N

>  <SMILES>
CCN(CC)CCC1=CNC2=CC=CC=C12

>  <JCHEM_ACCEPTOR_COUNT>
1

>  <JCHEM_DONOR_COUNT>
1

>  <JCHEM_ACIDIC_PKA>
17.16

>  <JCHEM_BASIC_PKA>
10.08

>  <JCHEM_PHYSIOLOGICAL_CHARGE>
1

>  <ALOGPS_LOGP>
3.64

>  <JCHEM_LOGP>
3.02

>  <ALOGPS_LOGS>
-2.8

>  <JCHEM_POLARIZABILITY>
26.41

>  <JCHEM_POLAR_SURFACE_AREA>
19.03

>  <JCHEM_REFRACTIVITY>
69.94

>  <JCHEM_ROTATABLE_BOND_COUNT>
5

>  <ALOGPS_SOLUBILITY>
3.53e-01 g/l __

$$$$
DB01461
 OpenBabel03171413512D

 24 25  0  0  0  0  0  0  0  0999 V2000
    2.8876    0.0000    0.0000 O   0  0  0  0  0  0  0  0  0  0  0  0
    4.9501   -0.7145    0.0000 O   0  0  0  0  0  0  0  0  0  0  0  0
    4.9501    0.7145    0.0000 O   0  0  0  0  0  0  0  0  0  0  0  0
    7.0127   -1.4290    0.0000 N   0  0  0  0  0  0  0  0  0  0  0  0
    3.7126    0.0000    0.0000 C   0  0  0  0  0  0  0  0  0  0  0  0
    3.7126   -0.8250    0.0000 C   0  0  0  0  0  0  0  0  0  0  0  0
    3.7126    0.8250    0.0000 C   0  0  0  0  0  0  0  0  0  0  0  0
    4.5376    0.0000    0.0000 C   0  0  0  0  0  0  0  0  0  0  0  0
    4.4270   -1.2375    0.0000 C   0  0  0  0  0  0  0  0  0  0  0  0
    2.9981    1.2375    0.0000 C   0  0  0  0  0  0  0  0  0  0  0  0
    2.9981   -1.2375    0.0000 C   0  0  0  0  0  0  0  0  0  0  0  0
    4.4270    1.2375    0.0000 C   0  0  0  0  0  0  0  0  0  0  0  0
    2.4751    0.7145    0.0000 C   0  0  0  0  0  0  0  0  0  0  0  0
    5.7751   -0.7145    0.0000 C   0  0  0  0  0  0  0  0  0  0  0  0
    6.1876   -1.4290    0.0000 C   0  0  0  0  0  0  0  0  0  0  0  0
    4.4270   -2.0625    0.0000 C   0  0  0  0  0  0  0  0  0  0  0  0
    2.9981    2.0625    0.0000 C   0  0  0  0  0  0  0  0  0  0  0  0
    2.9981   -2.0625    0.0000 C   0  0  0  0  0  0  0  0  0  0  0  0
    4.4270    2.0625    0.0000 C   0  0  0  0  0  0  0  0  0  0  0  0
    3.7126   -2.4751    0.0000 C   0  0  0  0  0  0  0  0  0  0  0  0
    3.7126    2.4751    0.0000 C   0  0  0  0  0  0  0  0  0  0  0  0
    1.6500    0.7145    0.0000 C   0  0  0  0  0  0  0  0  0  0  0  0
    7.4252   -2.1435    0.0000 C   0  0  0  0  0  0  0  0  0  0  0  0
    7.4252   -0.7145    0.0000 C   0  0  0  0  0  0  0  0  0  0  0  0
  1  5  1  0  0  0  0
  1 13  1  0  0  0  0
  2  8  1  0  0  0  0
  2 14  1  0  0  0  0
  3  8  2  0  0  0  0
  4 15  1  0  0  0  0
  4 23  1  0  0  0  0
  4 24  1  0  0  0  0
  5  6  1  0  0  0  0
  5  7  1  0  0  0  0
  5  8  1  0  0  0  0
  6  9  2  0  0  0  0
  6 11  1  0  0  0  0
  7 10  2  0  0  0  0
  7 12  1  0  0  0  0
  9 16  1  0  0  0  0
 10 17  1  0  0  0  0
 11 18  2  0  0  0  0
 12 19  2  0  0  0  0
 13 22  1  0  0  0  0
 14 15  1  0  0  0  0
 16 20  2  0  0  0  0
 17 21  2  0  0  0  0
 18 20  1  0  0  0  0
 19 21  1  0  0  0  0
M  END
>  <DRUGBANK_ID>
DB01461

>  <DRUG_GROUPS>
illicit; experimental

>  <GENERIC_NAME>
Dimenoxadol

>  <CHEMICAL_FORMULA>
C20H25NO3

>  <MOLECULAR_WEIGHT>
327.4174

>  <EXACT_MASS>
327.183443671

>  <IUPAC_NAME>
2-(dimethylamino)ethyl 2-ethoxy-2,2-diphenylacetate

>  <INCHI_IDENTIFIER>
InChI=1S/C20H25NO3/c1-4-24-20(17-11-7-5-8-12-17,18-13-9-6-10-14-18)19(22)23-16-15-21(2)3/h5-14H,4,15-16H2,1-3H3

>  <INCHI_KEY>
InChIKey=RHUWRJWFHUKVED-UHFFFAOYSA-N

>  <SMILES>
CCOC(C(=O)OCCN(C)C)(C1=CC=CC=C1)C1=CC=CC=C1

>  <JCHEM_ACCEPTOR_COUNT>
3

>  <JCHEM_DONOR_COUNT>
0

>  <JCHEM_BASIC_PKA>
8.42

>  <JCHEM_PHYSIOLOGICAL_CHARGE>
1

>  <ALOGPS_LOGP>
3.43

>  <JCHEM_LOGP>
3.72

>  <ALOGPS_LOGS>
-4

>  <JCHEM_POLARIZABILITY>
36.51

>  <JCHEM_POLAR_SURFACE_AREA>
38.77

>  <JCHEM_REFRACTIVITY>
95.77

>  <JCHEM_ROTATABLE_BOND_COUNT>
9

>  <ALOGPS_SOLUBILITY>
3.04e-02 g/l __

$$$$
DB01462
 OpenBabel03171413512D

 29 31  0  0  0  0  0  0  0  0999 V2000
    8.2451   -2.9720    0.0000 O   0  0  0  0  0  0  0  0  0  0  0  0
    1.6500   -0.5266    0.0000 O   0  5  0  0  0  0  0  0  0  0  0  0
    2.3645   -1.7641    0.0000 O   0  0  0  0  0  0  0  0  0  0  0  0
    5.2886    0.5498    0.0000 N   0  0  0  0  0  0  0  0  0  0  0  0
    6.6086    2.2883    0.0000 N   0  0  0  0  0  0  0  0  0  0  0  0
    5.2886   -0.7781    0.0000 N   0  0  0  0  0  0  0  0  0  0  0  0
    2.3645   -0.9391    0.0000 N   0  3  0  0  0  0  0  0  0  0  0  0
    5.5449    1.3340    0.0000 C   0  0  0  0  0  0  0  0  0  0  0  0
    6.3522    1.5041    0.0000 C   0  0  0  0  0  0  0  0  0  0  0  0
    5.7701   -0.1141    0.0000 C   0  0  0  0  0  0  0  0  0  0  0  0
    4.5080    0.2984    0.0000 C   0  0  0  0  0  0  0  0  0  0  0  0
    4.5080   -0.5266    0.0000 C   0  0  0  0  0  0  0  0  0  0  0  0
    6.5951   -0.1141    0.0000 C   0  0  0  0  0  0  0  0  0  0  0  0
    7.4158    2.4585    0.0000 C   0  0  0  0  0  0  0  0  0  0  0  0
    6.0575    2.9024    0.0000 C   0  0  0  0  0  0  0  0  0  0  0  0
    3.7935    0.7109    0.0000 C   0  0  0  0  0  0  0  0  0  0  0  0
    7.0076   -0.8286    0.0000 C   0  0  0  0  0  0  0  0  0  0  0  0
    3.7935   -0.9391    0.0000 C   0  0  0  0  0  0  0  0  0  0  0  0
    3.0791   -0.5266    0.0000 C   0  0  0  0  0  0  0  0  0  0  0  0
    3.0791    0.2984    0.0000 C   0  0  0  0  0  0  0  0  0  0  0  0
    7.6721    3.2427    0.0000 C   0  0  0  0  0  0  0  0  0  0  0  0
    6.3139    3.6866    0.0000 C   0  0  0  0  0  0  0  0  0  0  0  0
    7.8326   -0.8286    0.0000 C   0  0  0  0  0  0  0  0  0  0  0  0
    6.5951   -1.5431    0.0000 C   0  0  0  0  0  0  0  0  0  0  0  0
    8.2451   -1.5431    0.0000 C   0  0  0  0  0  0  0  0  0  0  0  0
    7.0076   -2.2576    0.0000 C   0  0  0  0  0  0  0  0  0  0  0  0
    7.8326   -2.2576    0.0000 C   0  0  0  0  0  0  0  0  0  0  0  0
    9.0702   -2.9720    0.0000 C   0  0  0  0  0  0  0  0  0  0  0  0
    9.4827   -3.6866    0.0000 C   0  0  0  0  0  0  0  0  0  0  0  0
  1 27  1  0  0  0  0
  1 28  1  0  0  0  0
  2  7  1  0  0  0  0
  3  7  2  0  0  0  0
  4  8  1  0  0  0  0
  4 10  1  0  0  0  0
  4 11  1  0  0  0  0
  5  9  1  0  0  0  0
  5 14  1  0  0  0  0
  5 15  1  0  0  0  0
  6 10  2  0  0  0  0
  6 12  1  0  0  0  0
  7 19  1  0  0  0  0
  8  9  1  0  0  0  0
 10 13  1  0  0  0  0
 11 12  2  0  0  0  0
 11 16  1  0  0  0  0
 12 18  1  0  0  0  0
 13 17  1  0  0  0  0
 14 21  1  0  0  0  0
 15 22  1  0  0  0  0
 16 20  2  0  0  0  0
 17 23  2  0  0  0  0
 17 24  1  0  0  0  0
 18 19  2  0  0  0  0
 19 20  1  0  0  0  0
 23 25  1  0  0  0  0
 24 26  2  0  0  0  0
 25 27  2  0  0  0  0
 26 27  1  0  0  0  0
 28 29  1  0  0  0  0
M  CHG  2   2  -1   7   1
M  END
>  <DRUGBANK_ID>
DB01462

>  <DRUG_GROUPS>
illicit; experimental

>  <GENERIC_NAME>
Etonitazene

>  <CHEMICAL_FORMULA>
C22H28N4O3

>  <MOLECULAR_WEIGHT>
396.4827

>  <EXACT_MASS>
396.216140782

>  <IUPAC_NAME>
(2-{2-[(4-ethoxyphenyl)methyl]-5-nitro-1H-1,3-benzodiazol-1-yl}ethyl)diethylamine

>  <INCHI_IDENTIFIER>
InChI=1S/C22H28N4O3/c1-4-24(5-2)13-14-25-21-12-9-18(26(27)28)16-20(21)23-22(25)15-17-7-10-19(11-8-17)29-6-3/h7-12,16H,4-6,13-15H2,1-3H3

>  <INCHI_KEY>
InChIKey=PXDBZSCGSQSKST-UHFFFAOYSA-N

>  <SMILES>
CCOC1=CC=C(CC2=NC3=C(C=CC(=C3)[N+]([O-])=O)N2CCN(CC)CC)C=C1

>  <JCHEM_ACCEPTOR_COUNT>
5

>  <JCHEM_DONOR_COUNT>
0

>  <JCHEM_BASIC_PKA>
9.63

>  <JCHEM_PHYSIOLOGICAL_CHARGE>
1

>  <ALOGPS_LOGP>
4.99

>  <JCHEM_LOGP>
4.31

>  <ALOGPS_LOGS>
-4.5

>  <JCHEM_POLARIZABILITY>
44.62

>  <JCHEM_POLAR_SURFACE_AREA>
76.11

>  <JCHEM_REFRACTIVITY>
115.08

>  <JCHEM_ROTATABLE_BOND_COUNT>
10

>  <ALOGPS_SOLUBILITY>
1.21e-02 g/l __

$$$$
DB01463
 OpenBabel03171413512D

 16 18  0  0  1  0  0  0  0  0999 V2000
    2.6602    0.9070    0.0000 N   0  0  0  0  0  0  0  0  0  0  0  0
    5.2984    0.8040    0.0000 C   0  0  3  0  0  0  0  0  0  0  0  0
    5.5119    1.6008    0.0000 C   0  0  3  0  0  0  0  0  0  0  0  0
    3.8696   -0.0210    0.0000 C   0  0  3  0  0  0  0  0  0  0  0  0
    3.4571    0.6934    0.0000 C   0  0  3  0  0  0  0  0  0  0  0  0
    4.9042    2.4115    0.0000 C   0  0  0  0  0  0  0  0  0  0  0  0
    6.8097    0.1780    0.0000 C   0  0  0  0  0  0  0  0  0  0  0  0
    7.0231    0.9748    0.0000 C   0  0  0  0  0  0  0  0  0  0  0  0
    3.6561   -0.8177    0.0000 C   0  0  0  0  0  0  0  0  0  0  0  0
    2.4467    1.7039    0.0000 C   0  0  0  0  0  0  0  0  0  0  0  0
    2.8592   -1.0312    0.0000 C   0  0  0  0  0  0  0  0  0  0  0  0
    4.2394   -1.4011    0.0000 C   0  0  0  0  0  0  0  0  0  0  0  0
    1.6499    1.9173    0.0000 C   0  0  0  0  0  0  0  0  0  0  0  0
    2.6457   -1.8282    0.0000 C   0  0  0  0  0  0  0  0  0  0  0  0
    4.0258   -2.1979    0.0000 C   0  0  0  0  0  0  0  0  0  0  0  0
    3.2289   -2.4115    0.0000 C   0  0  0  0  0  0  0  0  0  0  0  0
  1  5  1  0  0  0  0
  1 10  1  0  0  0  0
  2  4  1  0  0  0  0
  2  6  1  0  0  0  0
  2  7  1  0  0  0  0
  3  5  1  0  0  0  0
  3  6  1  0  0  0  0
  3  8  1  0  0  0  0
  4  5  1  0  0  0  0
  4  9  1  0  0  0  0
  7  8  1  0  0  0  0
  9 11  2  0  0  0  0
  9 12  1  0  0  0  0
 10 13  1  0  0  0  0
 11 14  1  0  0  0  0
 12 15  2  0  0  0  0
 14 16  2  0  0  0  0
 15 16  1  0  0  0  0
M  END
>  <DRUGBANK_ID>
DB01463

>  <DRUG_GROUPS>
illicit; approved; withdrawn

>  <GENERIC_NAME>
Fencamfamine

>  <SYNONYMS>
2-Aethylamino-3-phenyl-nor-camphan; 2-Ethylamino-3-phenyl-norcamphane hydrochloride; 2-Ethylamino-3-phenylnorcamphane hydrochloride; Fencamfamin; Fencamfamin hydrochloride; Fencamfamina [dcit]; Fencamfamine [inn-french]; Fencamfamine hydrochloride; Fencamfaminum [inn-latin]; Fencanfamina [inn-spanish]

>  <BRANDS>
Euvitol; Glucoenergan; Reactivan

>  <CHEMICAL_FORMULA>
C15H21N

>  <MOLECULAR_WEIGHT>
215.3339

>  <EXACT_MASS>
215.167399677

>  <IUPAC_NAME>
N-ethyl-3-phenylbicyclo[2.2.1]heptan-2-amine

>  <INCHI_IDENTIFIER>
InChI=1S/C15H21N/c1-2-16-15-13-9-8-12(10-13)14(15)11-6-4-3-5-7-11/h3-7,12-16H,2,8-10H2,1H3

>  <INCHI_KEY>
InChIKey=IKFBPFGUINLYQI-UHFFFAOYSA-N

>  <SMILES>
CCNC1C2CCC(C2)C1C1=CC=CC=C1

>  <JCHEM_ACCEPTOR_COUNT>
1

>  <JCHEM_DONOR_COUNT>
1

>  <JCHEM_BASIC_PKA>
10.56

>  <JCHEM_PHYSIOLOGICAL_CHARGE>
1

>  <ALOGPS_LOGP>
3.46

>  <JCHEM_LOGP>
3.21

>  <ALOGPS_LOGS>
-4.9

>  <JCHEM_POLARIZABILITY>
26.13

>  <JCHEM_POLAR_SURFACE_AREA>
12.03

>  <JCHEM_REFRACTIVITY>
67.64

>  <JCHEM_ROTATABLE_BOND_COUNT>
3

>  <ALOGPS_SOLUBILITY>
2.95e-03 g/l __

$$$$
DB01464
 OpenBabel03171413512D

 26 28  0  0  1  0  0  0  0  0999 V2000
    2.8876    2.8878    0.0000 O   0  0  0  0  0  0  0  0  0  0  0  0
    3.4106   -1.5393    0.0000 O   0  0  0  0  0  0  0  0  0  0  0  0
    3.3636   -3.2618    0.0000 O   0  0  0  0  0  0  0  0  0  0  0  0
    3.8558    3.7003    0.0000 O   0  0  0  0  0  0  0  0  0  0  0  0
    4.1251    0.5232    0.0000 N   0  0  0  0  0  0  0  0  0  0  0  0
    4.1251    2.1733    0.0000 C   0  0  3  0  0  0  0  0  0  0  0  0
    4.8396    1.7608    0.0000 C   0  0  0  0  0  0  0  0  0  0  0  0
    3.4106    1.7608    0.0000 C   0  0  0  0  0  0  0  0  0  0  0  0
    4.8396    0.9357    0.0000 C   0  0  0  0  0  0  0  0  0  0  0  0
    3.4106    0.9357    0.0000 C   0  0  0  0  0  0  0  0  0  0  0  0
    4.7571    2.7036    0.0000 C   0  0  0  0  0  0  0  0  0  0  0  0
    4.1251   -0.3018    0.0000 C   0  0  0  0  0  0  0  0  0  0  0  0
    3.7126    2.8878    0.0000 C   0  0  0  0  0  0  0  0  0  0  0  0
    3.4106   -0.7143    0.0000 C   0  0  0  0  0  0  0  0  0  0  0  0
    4.6138    3.5161    0.0000 C   0  0  0  0  0  0  0  0  0  0  0  0
    5.5323    2.4214    0.0000 C   0  0  0  0  0  0  0  0  0  0  0  0
    2.6961   -2.7768    0.0000 C   0  0  3  0  0  0  0  0  0  0  0  0
    2.0286   -3.2618    0.0000 C   0  0  0  0  0  0  0  0  0  0  0  0
    2.6961   -1.9518    0.0000 C   0  0  0  0  0  0  0  0  0  0  0  0
    2.2836   -4.0464    0.0000 C   0  0  0  0  0  0  0  0  0  0  0  0
    3.1086   -4.0464    0.0000 C   0  0  0  0  0  0  0  0  0  0  0  0
    5.2458    4.0464    0.0000 C   0  0  0  0  0  0  0  0  0  0  0  0
    6.1644    2.9517    0.0000 C   0  0  0  0  0  0  0  0  0  0  0  0
    6.0211    3.7642    0.0000 C   0  0  0  0  0  0  0  0  0  0  0  0
    2.4751    3.6023    0.0000 C   0  0  0  0  0  0  0  0  0  0  0  0
    1.6500    3.6023    0.0000 C   0  0  0  0  0  0  0  0  0  0  0  0
  1 13  1  0  0  0  0
  1 25  1  0  0  0  0
  2 14  1  0  0  0  0
  2 19  1  0  0  0  0
  3 17  1  0  0  0  0
  3 21  1  0  0  0  0
  4 13  2  0  0  0  0
  5  9  1  0  0  0  0
  5 10  1  0  0  0  0
  5 12  1  0  0  0  0
  6  7  1  0  0  0  0
  6  8  1  0  0  0  0
  6 11  1  0  0  0  0
  6 13  1  0  0  0  0
  7  9  1  0  0  0  0
  8 10  1  0  0  0  0
 11 15  2  0  0  0  0
 11 16  1  0  0  0  0
 12 14  1  0  0  0  0
 15 22  1  0  0  0  0
 16 23  2  0  0  0  0
 17 18  1  0  0  0  0
 17 19  1  0  0  0  0
 18 20  1  0  0  0  0
 20 21  1  0  0  0  0
 22 24  2  0  0  0  0
 23 24  1  0  0  0  0
 25 26  1  0  0  0  0
M  END
>  <DRUGBANK_ID>
DB01464

>  <DRUG_GROUPS>
illicit; experimental

>  <GENERIC_NAME>
Furethidine

>  <CHEMICAL_FORMULA>
C21H31NO4

>  <MOLECULAR_WEIGHT>
361.4751

>  <EXACT_MASS>
361.225308485

>  <IUPAC_NAME>
ethyl 1-[2-(oxolan-2-ylmethoxy)ethyl]-4-phenylpiperidine-4-carboxylate

>  <INCHI_IDENTIFIER>
InChI=1S/C21H31NO4/c1-2-25-20(23)21(18-7-4-3-5-8-18)10-12-22(13-11-21)14-16-24-17-19-9-6-15-26-19/h3-5,7-8,19H,2,6,9-17H2,1H3

>  <INCHI_KEY>
InChIKey=NNCOZXNZFLUYGG-UHFFFAOYSA-N

>  <SMILES>
CCOC(=O)C1(CCN(CCOCC2CCCO2)CC1)C1=CC=CC=C1

>  <JCHEM_ACCEPTOR_COUNT>
4

>  <JCHEM_DONOR_COUNT>
0

>  <JCHEM_BASIC_PKA>
7.98

>  <JCHEM_PHYSIOLOGICAL_CHARGE>
1

>  <ALOGPS_LOGP>
2.86

>  <JCHEM_LOGP>
2.83

>  <ALOGPS_LOGS>
-3.9

>  <JCHEM_POLARIZABILITY>
41.23

>  <JCHEM_POLAR_SURFACE_AREA>
48

>  <JCHEM_REFRACTIVITY>
101.78

>  <JCHEM_ROTATABLE_BOND_COUNT>
9

>  <ALOGPS_SOLUBILITY>
4.85e-02 g/l __

$$$$
DB01465
 OpenBabel03171413512D

 14 14  0  0  1  0  0  0  0  0999 V2000
    2.3645    0.0784    0.0000 O   0  0  0  0  0  0  0  0  0  0  0  0
    5.2224   -1.5717    0.0000 O   0  0  0  0  0  0  0  0  0  0  0  0
    4.5080    2.1409    0.0000 N   0  0  0  0  0  0  0  0  0  0  0  0
    3.7935    0.9034    0.0000 C   0  0  0  0  0  0  0  0  0  0  0  0
    4.5080    1.3159    0.0000 C   0  0  3  0  0  0  0  0  0  0  0  0
    3.7935    0.0784    0.0000 C   0  0  0  0  0  0  0  0  0  0  0  0
    3.0791   -0.3341    0.0000 C   0  0  0  0  0  0  0  0  0  0  0  0
    5.2224    0.9034    0.0000 C   0  0  0  0  0  0  0  0  0  0  0  0
    4.5080   -0.3341    0.0000 C   0  0  0  0  0  0  0  0  0  0  0  0
    4.5080   -1.1592    0.0000 C   0  0  0  0  0  0  0  0  0  0  0  0
    3.0791   -1.1592    0.0000 C   0  0  0  0  0  0  0  0  0  0  0  0
    3.7935   -1.5717    0.0000 C   0  0  0  0  0  0  0  0  0  0  0  0
    1.6500   -0.3341    0.0000 C   0  0  0  0  0  0  0  0  0  0  0  0
    5.2224   -2.3967    0.0000 C   0  0  0  0  0  0  0  0  0  0  0  0
  1  7  1  0  0  0  0
  1 13  1  0  0  0  0
  2 10  1  0  0  0  0
  2 14  1  0  0  0  0
  3  5  1  0  0  0  0
  4  5  1  0  0  0  0
  4  6  1  0  0  0  0
  5  8  1  0  0  0  0
  6  7  2  0  0  0  0
  6  9  1  0  0  0  0
  7 11  1  0  0  0  0
  9 10  2  0  0  0  0
 10 12  1  0  0  0  0
 11 12  2  0  0  0  0
M  END
>  <DRUGBANK_ID>
DB01465

>  <DRUG_GROUPS>
illicit; experimental

>  <GENERIC_NAME>
2,5-Dimethoxyamphetamine

>  <CHEMICAL_FORMULA>
C11H17NO2

>  <MOLECULAR_WEIGHT>
195.2582

>  <EXACT_MASS>
195.125928793

>  <IUPAC_NAME>
1-(2,5-dimethoxyphenyl)propan-2-amine

>  <INCHI_IDENTIFIER>
InChI=1S/C11H17NO2/c1-8(12)6-9-7-10(13-2)4-5-11(9)14-3/h4-5,7-8H,6,12H2,1-3H3

>  <INCHI_KEY>
InChIKey=LATVFYDIBMDBSY-UHFFFAOYSA-N

>  <SMILES>
COC1=CC(CC(C)N)=C(OC)C=C1

>  <JCHEM_ACCEPTOR_COUNT>
3

>  <JCHEM_DONOR_COUNT>
1

>  <JCHEM_BASIC_PKA>
9.91

>  <JCHEM_PHYSIOLOGICAL_CHARGE>
1

>  <ALOGPS_LOGP>
1.52

>  <JCHEM_LOGP>
1.49

>  <ALOGPS_LOGS>
-2.2

>  <JCHEM_POLARIZABILITY>
22

>  <JCHEM_POLAR_SURFACE_AREA>
44.48

>  <JCHEM_REFRACTIVITY>
56.63

>  <JCHEM_ROTATABLE_BOND_COUNT>
4

>  <ALOGPS_SOLUBILITY>
1.25e+00 g/l __

$$$$
DB01466
 OpenBabel03171413512D

 26 30  0  0  1  0  0  0  0  0999 V2000
    2.6868   -0.3359    0.0000 O   0  0  0  0  0  0  0  0  0  0  0  0
    2.4860   -2.4654    0.0000 O   0  0  0  0  0  0  0  0  0  0  0  0
    2.4860    1.7020    0.0000 O   0  0  0  0  0  0  0  0  0  0  0  0
    6.0951   -1.2067    0.0000 N   0  0  0  0  0  0  0  0  0  0  0  0
    3.9517   -0.7941    0.0000 C   0  0  1  0  0  0  0  0  0  0  0  0
    4.6662   -1.2067    0.0000 C   0  0  2  0  0  0  0  0  0  0  0  0
    5.3806   -0.7941    0.0000 C   0  0  1  0  0  0  0  0  0  0  0  0
    3.2372   -1.2067    0.0000 C   0  0  2  0  0  0  0  0  0  0  0  0
    4.4284   -0.1892    0.0000 C   0  0  0  0  0  0  0  0  0  0  0  0
    3.9517    0.0308    0.0000 C   0  0  0  0  0  0  0  0  0  0  0  0
    5.3806    0.0308    0.0000 C   0  0  0  0  0  0  0  0  0  0  0  0
    5.6017   -0.1892    0.0000 C   0  0  0  0  0  0  0  0  0  0  0  0
    4.6662    0.4433    0.0000 C   0  0  0  0  0  0  0  0  0  0  0  0
    3.2372   -2.0317    0.0000 C   0  0  2  0  0  0  0  0  0  0  0  0
    4.6662   -2.0317    0.0000 C   0  0  0  0  0  0  0  0  0  0  0  0
    3.2372    0.4433    0.0000 C   0  0  0  0  0  0  0  0  0  0  0  0
    3.9517   -2.4441    0.0000 C   0  0  0  0  0  0  0  0  0  0  0  0
    4.6662    1.2683    0.0000 C   0  0  0  0  0  0  0  0  0  0  0  0
    6.6859   -1.8417    0.0000 C   0  0  0  0  0  0  0  0  0  0  0  0
    3.2372    1.2683    0.0000 C   0  0  0  0  0  0  0  0  0  0  0  0
    3.9517    1.6808    0.0000 C   0  0  0  0  0  0  0  0  0  0  0  0
    2.4860    2.5694    0.0000 C   0  0  0  0  0  0  0  0  0  0  0  0
    1.7348    3.0032    0.0000 C   0  0  0  0  0  0  0  0  0  0  0  0
    5.1122   -1.7382    0.0000 H   0  0  0  0  0  0  0  0  0  0  0  0
    5.6185   -1.4461    0.0000 H   0  0  0  0  0  0  0  0  0  0  0  0
    2.5707   -1.3997    0.0000 H   0  0  0  0  0  0  0  0  0  0  0  0
  1  8  1  0  0  0  0
  1 16  1  0  0  0  0
  3 20  1  0  0  0  0
  3 22  1  0  0  0  0
  4  7  1  0  0  0  0
  4 12  1  0  0  0  0
  4 19  1  0  0  0  0
  5  6  1  0  0  0  0
  5  8  1  0  0  0  0
  5  9  1  1  0  0  0
  5 10  1  0  0  0  0
  6  7  1  0  0  0  0
  6 15  1  0  0  0  0
  6 24  1  1  0  0  0
  7 11  1  0  0  0  0
  7 25  1  6  0  0  0
  8 14  1  0  0  0  0
  8 26  1  1  0  0  0
  9 12  1  0  0  0  0
 10 13  2  0  0  0  0
 10 16  1  0  0  0  0
 11 13  1  0  0  0  0
 13 18  1  0  0  0  0
 14  2  1  6  0  0  0
 14 17  1  0  0  0  0
 15 17  2  0  0  0  0
 16 20  2  0  0  0  0
 18 21  2  0  0  0  0
 20 21  1  0  0  0  0
 22 23  1  0  0  0  0
M  END
>  <DRUGBANK_ID>
DB01466

>  <DRUG_GROUPS>
illicit; approved

>  <GENERIC_NAME>
Ethylmorphine

>  <SYNONYMS>
Dionine; Ethyl morphine

>  <BRANDS>
Codethyline; Dionina; Lepheton

>  <CHEMICAL_FORMULA>
C19H23NO3

>  <MOLECULAR_WEIGHT>
313.3908

>  <EXACT_MASS>
313.167793607

>  <IUPAC_NAME>
(1S,5R,13R,14S,17R)-10-ethoxy-4-methyl-12-oxa-4-azapentacyclo[9.6.1.0^{1,13}.0^{5,17}.0^{7,18}]octadeca-7(18),8,10,15-tetraen-14-ol

>  <INCHI_IDENTIFIER>
InChI=1S/C19H23NO3/c1-3-22-15-7-4-11-10-13-12-5-6-14(21)18-19(12,8-9-20(13)2)16(11)17(15)23-18/h4-7,12-14,18,21H,3,8-10H2,1-2H3/t12-,13+,14-,18-,19-/m0/s1

>  <INCHI_KEY>
InChIKey=OGDVEMNWJVYAJL-LEPYJNQMSA-N

>  <SMILES>
[H][C@@]12OC3=C(OCC)C=CC4=C3[C@@]11CCN(C)[C@]([H])(C4)[C@]1([H])C=C[C@@H]2O

>  <JCHEM_ACCEPTOR_COUNT>
4

>  <JCHEM_DONOR_COUNT>
1

>  <JCHEM_ACIDIC_PKA>
13.78

>  <JCHEM_BASIC_PKA>
9.19

>  <JCHEM_PHYSIOLOGICAL_CHARGE>
1

>  <ALOGPS_LOGP>
1.72

>  <JCHEM_LOGP>
1.7

>  <ALOGPS_LOGS>
-2.6

>  <JCHEM_POLARIZABILITY>
34.17

>  <JCHEM_POLAR_SURFACE_AREA>
41.93

>  <JCHEM_REFRACTIVITY>
89.35

>  <JCHEM_ROTATABLE_BOND_COUNT>
2

>  <ALOGPS_SOLUBILITY>
8.35e-01 g/l __

$$$$
DB01467
 OpenBabel03171413512D

 16 16  0  0  1  0  0  0  0  0999 V2000
    2.3645    0.2846    0.0000 O   0  0  0  0  0  0  0  0  0  0  0  0
    5.2224   -1.3654    0.0000 O   0  0  0  0  0  0  0  0  0  0  0  0
    4.5080    2.3472    0.0000 N   0  0  0  0  0  0  0  0  0  0  0  0
    3.7935    1.1096    0.0000 C   0  0  0  0  0  0  0  0  0  0  0  0
    3.7935    0.2846    0.0000 C   0  0  0  0  0  0  0  0  0  0  0  0
    4.5080    1.5222    0.0000 C   0  0  3  0  0  0  0  0  0  0  0  0
    3.7935   -1.3654    0.0000 C   0  0  0  0  0  0  0  0  0  0  0  0
    3.0791   -0.1279    0.0000 C   0  0  0  0  0  0  0  0  0  0  0  0
    4.5080   -0.1279    0.0000 C   0  0  0  0  0  0  0  0  0  0  0  0
    4.5080   -0.9529    0.0000 C   0  0  0  0  0  0  0  0  0  0  0  0
    3.0791   -0.9529    0.0000 C   0  0  0  0  0  0  0  0  0  0  0  0
    3.7935   -2.1904    0.0000 C   0  0  0  0  0  0  0  0  0  0  0  0
    5.2224    1.1096    0.0000 C   0  0  0  0  0  0  0  0  0  0  0  0
    3.0791   -2.6029    0.0000 C   0  0  0  0  0  0  0  0  0  0  0  0
    1.6500   -0.1279    0.0000 C   0  0  0  0  0  0  0  0  0  0  0  0
    5.9370   -0.9529    0.0000 C   0  0  0  0  0  0  0  0  0  0  0  0
  1  8  1  0  0  0  0
  1 15  1  0  0  0  0
  2 10  1  0  0  0  0
  2 16  1  0  0  0  0
  3  6  1  0  0  0  0
  4  5  1  0  0  0  0
  4  6  1  0  0  0  0
  5  8  2  0  0  0  0
  5  9  1  0  0  0  0
  6 13  1  0  0  0  0
  7 10  1  0  0  0  0
  7 11  2  0  0  0  0
  7 12  1  0  0  0  0
  8 11  1  0  0  0  0
  9 10  2  0  0  0  0
 12 14  1  0  0  0  0
M  END
>  <DRUGBANK_ID>
DB01467

>  <DRUG_GROUPS>
illicit; experimental

>  <GENERIC_NAME>
2,5-Dimethoxy-4-ethylamphetamine

>  <CHEMICAL_FORMULA>
C13H21NO2

>  <MOLECULAR_WEIGHT>
223.3113

>  <EXACT_MASS>
223.157228921

>  <IUPAC_NAME>
1-(4-ethyl-2,5-dimethoxyphenyl)propan-2-amine

>  <INCHI_IDENTIFIER>
InChI=1S/C13H21NO2/c1-5-10-7-13(16-4)11(6-9(2)14)8-12(10)15-3/h7-9H,5-6,14H2,1-4H3

>  <INCHI_KEY>
InChIKey=HXJKWPGVENNMCC-UHFFFAOYSA-N

>  <SMILES>
CCC1=CC(OC)=C(CC(C)N)C=C1OC

>  <JCHEM_ACCEPTOR_COUNT>
3

>  <JCHEM_DONOR_COUNT>
1

>  <JCHEM_BASIC_PKA>
9.93

>  <JCHEM_PHYSIOLOGICAL_CHARGE>
1

>  <ALOGPS_LOGP>
2.71

>  <JCHEM_LOGP>
2.45

>  <ALOGPS_LOGS>
-2.7

>  <JCHEM_POLARIZABILITY>
26.07

>  <JCHEM_POLAR_SURFACE_AREA>
44.48

>  <JCHEM_REFRACTIVITY>
66.27

>  <JCHEM_ROTATABLE_BOND_COUNT>
5

>  <ALOGPS_SOLUBILITY>
4.13e-01 g/l __

$$$$
DB01468
 OpenBabel03171413512D

 18 19  0  0  1  0  0  0  0  0999 V2000
    5.2616   -0.3195    0.0000 S   0  0  0  0  0  0  0  0  0  0  0  0
    3.1261   -1.7065    0.0000 S   0  0  0  0  0  0  0  0  0  0  0  0
    2.3645    1.2535    0.0000 N   0  0  0  0  0  0  0  0  0  0  0  0
    3.0791    0.8410    0.0000 C   0  0  3  0  0  0  0  0  0  0  0  0
    3.0791    0.0160    0.0000 C   0  0  0  0  0  0  0  0  0  0  0  0
    2.3645    2.0786    0.0000 C   0  0  0  0  0  0  0  0  0  0  0  0
    3.7935    1.2535    0.0000 C   0  0  0  0  0  0  0  0  0  0  0  0
    3.7935   -0.3965    0.0000 C   0  0  0  0  0  0  0  0  0  0  0  0
    1.6500    0.8410    0.0000 C   0  0  0  0  0  0  0  0  0  0  0  0
    1.6500    2.4911    0.0000 C   0  0  0  0  0  0  0  0  0  0  0  0
    4.5080    0.0160    0.0000 C   0  0  0  0  0  0  0  0  0  0  0  0
    3.7935   -1.2215    0.0000 C   0  0  0  0  0  0  0  0  0  0  0  0
    4.5942    0.8365    0.0000 C   0  0  0  0  0  0  0  0  0  0  0  0
    4.4610   -1.7065    0.0000 C   0  0  0  0  0  0  0  0  0  0  0  0
    5.4012    1.0081    0.0000 C   0  0  0  0  0  0  0  0  0  0  0  0
    4.2060   -2.4911    0.0000 C   0  0  0  0  0  0  0  0  0  0  0  0
    5.8137    0.2935    0.0000 C   0  0  0  0  0  0  0  0  0  0  0  0
    3.3810   -2.4911    0.0000 C   0  0  0  0  0  0  0  0  0  0  0  0
  1 11  1  0  0  0  0
  1 17  1  0  0  0  0
  2 12  1  0  0  0  0
  2 18  1  0  0  0  0
  3  4  1  0  0  0  0
  3  6  1  0  0  0  0
  3  9  1  0  0  0  0
  4  5  1  0  0  0  0
  4  7  1  0  0  0  0
  5  8  2  0  0  0  0
  6 10  1  0  0  0  0
  8 11  1  0  0  0  0
  8 12  1  0  0  0  0
 11 13  2  0  0  0  0
 12 14  2  0  0  0  0
 13 15  1  0  0  0  0
 14 16  1  0  0  0  0
 15 17  2  0  0  0  0
 16 18  2  0  0  0  0
M  END
>  <DRUGBANK_ID>
DB01468

>  <DRUG_GROUPS>
illicit; experimental

>  <GENERIC_NAME>
Ethylmethylthiambutene

>  <CHEMICAL_FORMULA>
C15H19NS2

>  <MOLECULAR_WEIGHT>
277.448

>  <EXACT_MASS>
277.095890993

>  <IUPAC_NAME>
[4,4-bis(thiophen-2-yl)but-3-en-2-yl](ethyl)methylamine

>  <INCHI_IDENTIFIER>
InChI=1S/C15H19NS2/c1-4-16(3)12(2)11-13(14-7-5-9-17-14)15-8-6-10-18-15/h5-12H,4H2,1-3H3

>  <INCHI_KEY>
InChIKey=MORSAEFGQPDBKM-UHFFFAOYSA-N

>  <SMILES>
CCN(C)C(C)C=C(C1=CC=CS1)C1=CC=CS1

>  <JCHEM_ACCEPTOR_COUNT>
1

>  <JCHEM_DONOR_COUNT>
0

>  <JCHEM_BASIC_PKA>
8.94

>  <JCHEM_PHYSIOLOGICAL_CHARGE>
1

>  <ALOGPS_LOGP>
4.61

>  <JCHEM_LOGP>
4.56

>  <ALOGPS_LOGS>
-3.6

>  <JCHEM_POLARIZABILITY>
30.92

>  <JCHEM_POLAR_SURFACE_AREA>
3.24

>  <JCHEM_REFRACTIVITY>
91.42

>  <JCHEM_ROTATABLE_BOND_COUNT>
5

>  <ALOGPS_SOLUBILITY>
6.76e-02 g/l __

$$$$
DB01469
 OpenBabel03171413512D

 35 40  0  0  1  0  0  0  0  0999 V2000
    5.0601   -1.0675    0.0000 O   0  0  0  0  0  0  0  0  0  0  0  0
    7.1467   -1.2389    0.0000 O   0  0  0  0  0  0  0  0  0  0  0  0
    5.3959   -1.5975    0.0000 O   0  0  0  0  0  0  0  0  0  0  0  0
    2.9918   -1.2389    0.0000 O   0  0  0  0  0  0  0  0  0  0  0  0
    1.7096   -0.4986    0.0000 O   0  0  0  0  0  0  0  0  0  0  0  0
    5.8943    2.3593    0.0000 N   0  0  0  0  0  0  0  0  0  0  0  0
    5.4817    0.2158    0.0000 C   0  0  3  0  0  0  0  0  0  0  0  0
    5.8943    0.9303    0.0000 C   0  0  3  0  0  0  0  0  0  0  0  0
    5.8943   -0.4986    0.0000 C   0  0  1  0  0  0  0  0  0  0  0  0
    6.7193   -0.4986    0.0000 C   0  0  3  0  0  0  0  0  0  0  0  0
    5.4817    1.6448    0.0000 C   0  0  3  0  0  0  0  0  0  0  0  0
    6.4901    0.5459    0.0000 C   0  0  0  0  0  0  0  0  0  0  0  0
    6.1784   -0.0774    0.0000 C   0  0  2  0  0  0  0  0  0  0  0  0
    5.0693    0.9303    0.0000 C   0  0  0  0  0  0  0  0  0  0  0  0
    4.6568    0.2158    0.0000 C   0  0  0  0  0  0  0  0  0  0  0  0
    6.7193    0.9303    0.0000 C   0  0  0  0  0  0  0  0  0  0  0  0
    4.6568    1.6448    0.0000 C   0  0  0  0  0  0  0  0  0  0  0  0
    7.1318    0.2158    0.0000 C   0  0  0  0  0  0  0  0  0  0  0  0
    5.0601    2.5075    0.0000 C   0  0  0  0  0  0  0  0  0  0  0  0
    5.7872   -0.8375    0.0000 C   0  0  1  0  0  0  0  0  0  0  0  0
    4.2442    0.9303    0.0000 C   0  0  0  0  0  0  0  0  0  0  0  0
    4.2442   -0.4986    0.0000 C   0  0  0  0  0  0  0  0  0  0  0  0
    6.4679   -1.3548    0.0000 C   0  0  0  0  0  0  0  0  0  0  0  0
    6.6692    2.7200    0.0000 C   0  0  0  0  0  0  0  0  0  0  0  0
    3.4192    0.9303    0.0000 C   0  0  0  0  0  0  0  0  0  0  0  0
    5.0272   -0.4462    0.0000 C   0  0  0  0  0  0  0  0  0  0  0  0
    3.4192   -0.4986    0.0000 C   0  0  0  0  0  0  0  0  0  0  0  0
    3.0067    0.2158    0.0000 C   0  0  0  0  0  0  0  0  0  0  0  0
    8.0015   -1.2389    0.0000 C   0  0  0  0  0  0  0  0  0  0  0  0
    6.3601   -2.2028    0.0000 C   0  0  0  0  0  0  0  0  0  0  0  0
    7.0407   -2.7200    0.0000 C   0  0  0  0  0  0  0  0  0  0  0  0
    2.1370   -1.2389    0.0000 C   0  0  0  0  0  0  0  0  0  0  0  0
    1.7096   -1.9792    0.0000 C   0  0  0  0  0  0  0  0  0  0  0  0
    6.3956   -0.9637    0.0000 H   0  0  0  0  0  0  0  0  0  0  0  0
    5.5686    0.2320    0.0000 H   0  0  0  0  0  0  0  0  0  0  0  0
  1  9  1  0  0  0  0
  1 22  1  0  0  0  0
  2 10  1  0  0  0  0
  2 29  1  0  0  0  0
  4 27  1  0  0  0  0
  4 32  1  0  0  0  0
  5 32  2  0  0  0  0
  6 11  1  0  0  0  0
  6 19  1  0  0  0  0
  6 24  1  0  0  0  0
  7  8  1  0  0  0  0
  7  9  1  0  0  0  0
  7 14  1  0  0  0  0
  7 15  1  0  0  0  0
  8 11  1  0  0  0  0
  8 12  1  0  0  0  0
  8 16  1  0  0  0  0
  9 10  1  0  0  0  0
  9 34  1  6  0  0  0
 10 13  1  0  0  0  0
 10 18  1  0  0  0  0
 11 17  1  0  0  0  0
 12 13  1  0  0  0  0
 13 20  1  0  0  0  0
 13 35  1  6  0  0  0
 14 19  1  0  0  0  0
 15 21  2  0  0  0  0
 15 22  1  0  0  0  0
 16 18  2  0  0  0  0
 17 21  1  0  0  0  0
 20  3  1  1  0  0  0
 20 23  1  0  0  0  0
 20 26  1  0  0  0  0
 21 25  1  0  0  0  0
 22 27  2  0  0  0  0
 23 30  1  0  0  0  0
 25 28  2  0  0  0  0
 27 28  1  0  0  0  0
 30 31  1  0  0  0  0
 32 33  1  0  0  0  0
M  END
>  <DRUGBANK_ID>
DB01469

>  <DRUG_GROUPS>
illicit; experimental

>  <GENERIC_NAME>
Acetorphine

>  <CHEMICAL_FORMULA>
C27H35NO5

>  <MOLECULAR_WEIGHT>
453.5705

>  <EXACT_MASS>
453.251523235

>  <IUPAC_NAME>
(14S,19R)-19-[(2R)-2-hydroxypentan-2-yl]-15-methoxy-3-methyl-13-oxa-3-azahexacyclo[13.2.2.1^{2,8}.0^{1,6}.0^{6,14}.0^{7,12}]icosa-7,9,11,16-tetraen-11-yl acetate

>  <INCHI_IDENTIFIER>
InChI=1S/C27H35NO5/c1-6-9-24(3,30)19-15-25-10-11-27(19,31-5)23-26(25)12-13-28(4)20(25)14-17-7-8-18(32-16(2)29)22(33-23)21(17)26/h7-8,10-11,19-20,23,30H,6,9,12-15H2,1-5H3/t19-,20?,23+,24-,25?,26?,27?/m1/s1

>  <INCHI_KEY>
InChIKey=LFYBMMHFJIAKFE-XRACTLHESA-N

>  <SMILES>
[H][C@]12OC3=C(OC(C)=O)C=CC4=C3C11CCN(C)C(C4)C11C[C@]([H])([C@](C)(O)CCC)C2(OC)C=C1

>  <JCHEM_ACCEPTOR_COUNT>
5

>  <JCHEM_DONOR_COUNT>
1

>  <JCHEM_ACIDIC_PKA>
14.68

>  <JCHEM_BASIC_PKA>
8.97

>  <JCHEM_PHYSIOLOGICAL_CHARGE>
1

>  <ALOGPS_LOGP>
3.59

>  <JCHEM_LOGP>
2.66

>  <ALOGPS_LOGS>
-4.4

>  <JCHEM_POLARIZABILITY>
50.19

>  <JCHEM_POLAR_SURFACE_AREA>
68.23

>  <JCHEM_REFRACTIVITY>
125.67

>  <JCHEM_ROTATABLE_BOND_COUNT>
6

>  <ALOGPS_SOLUBILITY>
1.97e-02 g/l __

$$$$
DB01470
 OpenBabel03171413512D

 25 27  0  0  1  0  0  0  0  0999 V2000
    1.6971   -2.9440    0.0000 S   0  0  0  0  0  0  0  0  0  0  0  0
    1.6500    2.0786    0.0000 O   0  0  0  0  0  0  0  0  0  0  0  0
    3.0791   -0.3965    0.0000 N   0  0  0  0  0  0  0  0  0  0  0  0
    3.0791    2.0786    0.0000 N   0  0  0  0  0  0  0  0  0  0  0  0
    3.0791    1.2535    0.0000 C   0  0  3  0  0  0  0  0  0  0  0  0
    2.3645    0.8410    0.0000 C   0  0  0  0  0  0  0  0  0  0  0  0
    3.7935    0.8410    0.0000 C   0  0  0  0  0  0  0  0  0  0  0  0
    2.3645    0.0160    0.0000 C   0  0  0  0  0  0  0  0  0  0  0  0
    3.7935    0.0160    0.0000 C   0  0  0  0  0  0  0  0  0  0  0  0
    3.0791   -1.2215    0.0000 C   0  0  3  0  0  0  0  0  0  0  0  0
    2.3645   -1.6340    0.0000 C   0  0  0  0  0  0  0  0  0  0  0  0
    3.7935   -1.6340    0.0000 C   0  0  0  0  0  0  0  0  0  0  0  0
    3.7935    2.4911    0.0000 C   0  0  0  0  0  0  0  0  0  0  0  0
    2.3645    2.4911    0.0000 C   0  0  0  0  0  0  0  0  0  0  0  0
    2.3645   -2.4590    0.0000 C   0  0  0  0  0  0  0  0  0  0  0  0
    2.3645    3.3161    0.0000 C   0  0  0  0  0  0  0  0  0  0  0  0
    3.7935    3.3161    0.0000 C   0  0  0  0  0  0  0  0  0  0  0  0
    4.5080    2.0786    0.0000 C   0  0  0  0  0  0  0  0  0  0  0  0
    3.0319   -2.9440    0.0000 C   0  0  0  0  0  0  0  0  0  0  0  0
    1.6500    3.7286    0.0000 C   0  0  0  0  0  0  0  0  0  0  0  0
    4.5080    3.7286    0.0000 C   0  0  0  0  0  0  0  0  0  0  0  0
    5.2224    2.4911    0.0000 C   0  0  0  0  0  0  0  0  0  0  0  0
    2.7770   -3.7286    0.0000 C   0  0  0  0  0  0  0  0  0  0  0  0
    1.9520   -3.7286    0.0000 C   0  0  0  0  0  0  0  0  0  0  0  0
    5.2224    3.3161    0.0000 C   0  0  0  0  0  0  0  0  0  0  0  0
  1 15  1  0  0  0  0
  1 24  1  0  0  0  0
  2 14  2  0  0  0  0
  3  8  1  0  0  0  0
  3  9  1  0  0  0  0
  3 10  1  0  0  0  0
  4  5  1  0  0  0  0
  4 13  1  0  0  0  0
  4 14  1  0  0  0  0
  5  6  1  0  0  0  0
  5  7  1  0  0  0  0
  6  8  1  0  0  0  0
  7  9  1  0  0  0  0
 10 11  1  0  0  0  0
 10 12  1  0  0  0  0
 11 15  1  0  0  0  0
 13 17  2  0  0  0  0
 13 18  1  0  0  0  0
 14 16  1  0  0  0  0
 15 19  2  0  0  0  0
 16 20  1  0  0  0  0
 17 21  1  0  0  0  0
 18 22  2  0  0  0  0
 19 23  1  0  0  0  0
 21 25  2  0  0  0  0
 22 25  1  0  0  0  0
 23 24  2  0  0  0  0
M  END
>  <DRUGBANK_ID>
DB01470

>  <DRUG_GROUPS>
illicit; experimental

>  <GENERIC_NAME>
Alpha-methylthiofentanyl

>  <CHEMICAL_FORMULA>
C21H28N2OS

>  <MOLECULAR_WEIGHT>
356.525

>  <EXACT_MASS>
356.192234218

>  <IUPAC_NAME>
N-phenyl-N-{1-[1-(thiophen-2-yl)propan-2-yl]piperidin-4-yl}propanamide

>  <INCHI_IDENTIFIER>
InChI=1S/C21H28N2OS/c1-3-21(24)23(18-8-5-4-6-9-18)19-11-13-22(14-12-19)17(2)16-20-10-7-15-25-20/h4-10,15,17,19H,3,11-14,16H2,1-2H3

>  <INCHI_KEY>
InChIKey=YPOXDUYRRSUFFG-UHFFFAOYSA-N

>  <SMILES>
CCC(=O)N(C1CCN(CC1)C(C)CC1=CC=CS1)C1=CC=CC=C1

>  <JCHEM_ACCEPTOR_COUNT>
2

>  <JCHEM_DONOR_COUNT>
0

>  <JCHEM_BASIC_PKA>
8.98

>  <JCHEM_PHYSIOLOGICAL_CHARGE>
1

>  <ALOGPS_LOGP>
4.48

>  <JCHEM_LOGP>
4.14

>  <ALOGPS_LOGS>
-4.3

>  <JCHEM_POLARIZABILITY>
41.26

>  <JCHEM_POLAR_SURFACE_AREA>
23.55

>  <JCHEM_REFRACTIVITY>
104.9

>  <JCHEM_ROTATABLE_BOND_COUNT>
6

>  <ALOGPS_SOLUBILITY>
1.86e-02 g/l __

$$$$
DB01471
 OpenBabel03171413512D

 26 29  0  0  1  0  0  0  0  0999 V2000
    7.5474    1.4947    0.0000 O   0  0  0  0  0  0  0  0  0  0  0  0
    1.6498   -1.7582    0.0000 O   0  0  0  0  0  0  0  0  0  0  0  0
    6.0987   -0.0653    0.0000 C   0  0  2  0  0  0  0  0  0  0  0  0
    6.0987    0.7597    0.0000 C   0  0  1  0  0  0  0  0  0  0  0  0
    5.3843   -0.4777    0.0000 C   0  0  1  0  0  0  0  0  0  0  0  0
    4.6698   -0.0653    0.0000 C   0  0  1  0  0  0  0  0  0  0  0  0
    6.8793    1.0111    0.0000 C   0  0  2  0  0  0  0  0  0  0  0  0
    3.9192   -0.4833    0.0000 C   0  0  2  0  0  0  0  0  0  0  0  0
    5.3843    1.1722    0.0000 C   0  0  0  0  0  0  0  0  0  0  0  0
    4.6698    0.7597    0.0000 C   0  0  0  0  0  0  0  0  0  0  0  0
    6.8793   -0.3166    0.0000 C   0  0  0  0  0  0  0  0  0  0  0  0
    5.3975   -1.3368    0.0000 C   0  0  1  0  0  0  0  0  0  0  0  0
    7.3606    0.3472    0.0000 C   0  0  0  0  0  0  0  0  0  0  0  0
    4.6567   -1.7722    0.0000 C   0  0  0  0  0  0  0  0  0  0  0  0
    3.9126   -1.3425    0.0000 C   0  0  0  0  0  0  0  0  0  0  0  0
    6.0987    1.5846    0.0000 C   0  0  0  0  0  0  0  0  0  0  0  0
    3.1546   -0.0180    0.0000 C   0  0  0  0  0  0  0  0  0  0  0  0
    6.6257    1.7960    0.0000 C   0  0  0  0  0  0  0  0  0  0  0  0
    3.9255    0.3416    0.0000 C   0  0  0  0  0  0  0  0  0  0  0  0
    6.1167   -1.7410    0.0000 C   0  0  0  0  0  0  0  0  0  0  0  0
    2.3727   -0.4535    0.0000 C   0  0  0  0  0  0  0  0  0  0  0  0
    3.1409   -1.7960    0.0000 C   0  0  0  0  0  0  0  0  0  0  0  0
    2.3658   -1.3485    0.0000 C   0  0  0  0  0  0  0  0  0  0  0  0
    6.1685   -0.7215    0.0000 H   0  0  0  0  0  0  0  0  0  0  0  0
    5.9583   -0.8032    0.0000 H   0  0  0  0  0  0  0  0  0  0  0  0
    5.2415    0.2647    0.0000 H   0  0  0  0  0  0  0  0  0  0  0  0
  2 23  2  0  0  0  0
  3  4  1  0  0  0  0
  3  5  1  0  0  0  0
  3 11  1  0  0  0  0
  3 24  1  6  0  0  0
  4  7  1  0  0  0  0
  4  9  1  0  0  0  0
  4 16  1  1  0  0  0
  5  6  1  0  0  0  0
  5 12  1  0  0  0  0
  5 25  1  1  0  0  0
  6  8  1  0  0  0  0
  6 10  1  0  0  0  0
  6 26  1  6  0  0  0
  7  1  1  1  0  0  0
  7 13  1  0  0  0  0
  7 18  1  0  0  0  0
  8 15  1  0  0  0  0
  8 17  1  0  0  0  0
  8 19  1  1  0  0  0
  9 10  1  0  0  0  0
 11 13  1  0  0  0  0
 12 14  1  0  0  0  0
 12 20  1  6  0  0  0
 14 15  1  0  0  0  0
 15 22  2  0  0  0  0
 17 21  1  0  0  0  0
 21 23  1  0  0  0  0
 22 23  1  0  0  0  0
M  END
>  <DRUGBANK_ID>
DB01471

>  <DRUG_GROUPS>
illicit; experimental

>  <GENERIC_NAME>
Bolasterone

>  <CHEMICAL_FORMULA>
C21H32O2

>  <MOLECULAR_WEIGHT>
316.4776

>  <EXACT_MASS>
316.240230268

>  <IUPAC_NAME>
(1S,2R,9R,10R,11S,14S,15S)-14-hydroxy-2,9,14,15-tetramethyltetracyclo[8.7.0.0^{2,7}.0^{11,15}]heptadec-6-en-5-one

>  <INCHI_IDENTIFIER>
InChI=1S/C21H32O2/c1-13-11-14-12-15(22)5-8-19(14,2)16-6-9-20(3)17(18(13)16)7-10-21(20,4)23/h12-13,16-18,23H,5-11H2,1-4H3/t13-,16+,17+,18-,19+,20+,21+/m1/s1

>  <INCHI_KEY>
InChIKey=IVFYLRMMHVYGJH-VLOLGRDOSA-N

>  <SMILES>
[H][C@@]12CC[C@](C)(O)[C@@]1(C)CC[C@@]1([H])[C@@]2([H])[C@H](C)CC2=CC(=O)CC[C@]12C

>  <JCHEM_ACCEPTOR_COUNT>
2

>  <JCHEM_DONOR_COUNT>
1

>  <JCHEM_ACIDIC_PKA>
19.56

>  <JCHEM_BASIC_PKA>
-0.53

>  <JCHEM_PHYSIOLOGICAL_CHARGE>
0

>  <ALOGPS_LOGP>
3.55

>  <JCHEM_LOGP>
3.93

>  <ALOGPS_LOGS>
-4.5

>  <JCHEM_POLARIZABILITY>
37.54

>  <JCHEM_POLAR_SURFACE_AREA>
37.3

>  <JCHEM_REFRACTIVITY>
93.62

>  <JCHEM_ROTATABLE_BOND_COUNT>
0

>  <ALOGPS_SOLUBILITY>
1.12e-02 g/l __

$$$$
DB01472
 OpenBabel03171413512D

 12 12  0  0  1  0  0  0  0  0999 V2000
    2.3645   -2.1904    0.0000 O   0  0  0  0  0  0  0  0  0  0  0  0
    3.0791    2.3472    0.0000 N   0  0  0  0  0  0  0  0  0  0  0  0
    2.3645    1.1096    0.0000 C   0  0  0  0  0  0  0  0  0  0  0  0
    3.0791    1.5222    0.0000 C   0  0  3  0  0  0  0  0  0  0  0  0
    2.3645    0.2846    0.0000 C   0  0  0  0  0  0  0  0  0  0  0  0
    3.7935    1.1096    0.0000 C   0  0  0  0  0  0  0  0  0  0  0  0
    3.0791   -0.1279    0.0000 C   0  0  0  0  0  0  0  0  0  0  0  0
    1.6500   -0.1279    0.0000 C   0  0  0  0  0  0  0  0  0  0  0  0
    3.0791   -0.9529    0.0000 C   0  0  0  0  0  0  0  0  0  0  0  0
    1.6500   -0.9529    0.0000 C   0  0  0  0  0  0  0  0  0  0  0  0
    2.3645   -1.3654    0.0000 C   0  0  0  0  0  0  0  0  0  0  0  0
    1.6500   -2.6029    0.0000 C   0  0  0  0  0  0  0  0  0  0  0  0
  1 11  1  0  0  0  0
  1 12  1  0  0  0  0
  2  4  1  0  0  0  0
  3  4  1  0  0  0  0
  3  5  1  0  0  0  0
  4  6  1  0  0  0  0
  5  7  2  0  0  0  0
  5  8  1  0  0  0  0
  7  9  1  0  0  0  0
  8 10  2  0  0  0  0
  9 11  2  0  0  0  0
 10 11  1  0  0  0  0
M  END
>  <DRUGBANK_ID>
DB01472

>  <DRUG_GROUPS>
illicit; experimental

>  <GENERIC_NAME>
4-Methoxyamphetamine

>  <CHEMICAL_FORMULA>
C10H15NO

>  <MOLECULAR_WEIGHT>
165.2322

>  <EXACT_MASS>
165.115364107

>  <IUPAC_NAME>
1-(4-methoxyphenyl)propan-2-amine

>  <INCHI_IDENTIFIER>
InChI=1S/C10H15NO/c1-8(11)7-9-3-5-10(12-2)6-4-9/h3-6,8H,7,11H2,1-2H3

>  <INCHI_KEY>
InChIKey=NEGYEDYHPHMHGK-UHFFFAOYSA-N

>  <SMILES>
COC1=CC=C(CC(C)N)C=C1

>  <JCHEM_ACCEPTOR_COUNT>
2

>  <JCHEM_DONOR_COUNT>
1

>  <JCHEM_BASIC_PKA>
10.04

>  <JCHEM_PHYSIOLOGICAL_CHARGE>
1

>  <ALOGPS_LOGP>
1.74

>  <JCHEM_LOGP>
1.65

>  <ALOGPS_LOGS>
-2.2

>  <JCHEM_POLARIZABILITY>
19.29

>  <JCHEM_POLAR_SURFACE_AREA>
35.25

>  <JCHEM_REFRACTIVITY>
50.17

>  <JCHEM_ROTATABLE_BOND_COUNT>
3

>  <ALOGPS_SOLUBILITY>
9.28e-01 g/l __

$$$$
DB01473
 OpenBabel03171413512D

 19 20  0  0  1  0  0  0  0  0999 V2000
    3.0573    0.6582    0.0000 O   0  0  0  0  0  0  0  0  0  0  0  0
    1.6500    0.9064    0.0000 O   0  0  0  0  0  0  0  0  0  0  0  0
    3.4698   -1.7063    0.0000 N   0  0  0  0  0  0  0  0  0  0  0  0
    3.4698   -0.0563    0.0000 C   0  0  3  0  0  0  0  0  0  0  0  0
    2.7553   -0.4688    0.0000 C   0  0  3  0  0  0  0  0  0  0  0  0
    4.1843   -0.4688    0.0000 C   0  0  0  0  0  0  0  0  0  0  0  0
    2.7553   -1.2938    0.0000 C   0  0  0  0  0  0  0  0  0  0  0  0
    4.1843   -1.2938    0.0000 C   0  0  0  0  0  0  0  0  0  0  0  0
    3.8823    0.6582    0.0000 C   0  0  0  0  0  0  0  0  0  0  0  0
    1.9428   -0.6121    0.0000 C   0  0  0  0  0  0  0  0  0  0  0  0
    3.4698   -2.5313    0.0000 C   0  0  0  0  0  0  0  0  0  0  0  0
    3.4698    1.3727    0.0000 C   0  0  0  0  0  0  0  0  0  0  0  0
    4.7073    0.6582    0.0000 C   0  0  0  0  0  0  0  0  0  0  0  0
    2.4254    1.1886    0.0000 C   0  0  0  0  0  0  0  0  0  0  0  0
    3.8823    2.0872    0.0000 C   0  0  0  0  0  0  0  0  0  0  0  0
    5.1198    1.3727    0.0000 C   0  0  0  0  0  0  0  0  0  0  0  0
    2.5685    2.0010    0.0000 C   0  0  0  0  0  0  0  0  0  0  0  0
    4.7073    2.0872    0.0000 C   0  0  0  0  0  0  0  0  0  0  0  0
    1.9366    2.5313    0.0000 C   0  0  0  0  0  0  0  0  0  0  0  0
  1  4  1  0  0  0  0
  1 14  1  0  0  0  0
  2 14  2  0  0  0  0
  3  7  1  0  0  0  0
  3  8  1  0  0  0  0
  3 11  1  0  0  0  0
  4  5  1  0  0  0  0
  4  6  1  0  0  0  0
  4  9  1  0  0  0  0
  5  7  1  0  0  0  0
  5 10  1  0  0  0  0
  6  8  1  0  0  0  0
  9 12  2  0  0  0  0
  9 13  1  0  0  0  0
 12 15  1  0  0  0  0
 13 16  2  0  0  0  0
 14 17  1  0  0  0  0
 15 18  2  0  0  0  0
 16 18  1  0  0  0  0
 17 19  1  0  0  0  0
M  END
>  <DRUGBANK_ID>
DB01473

>  <DRUG_GROUPS>
illicit; experimental

>  <GENERIC_NAME>
Betaprodine

>  <CHEMICAL_FORMULA>
C16H23NO2

>  <MOLECULAR_WEIGHT>
261.3593

>  <EXACT_MASS>
261.172878985

>  <IUPAC_NAME>
1,3-dimethyl-4-phenylpiperidin-4-yl propanoate

>  <INCHI_IDENTIFIER>
InChI=1S/C16H23NO2/c1-4-15(18)19-16(14-8-6-5-7-9-14)10-11-17(3)12-13(16)2/h5-9,13H,4,10-12H2,1-3H3

>  <INCHI_KEY>
InChIKey=UVAZQQHAVMNMHE-UHFFFAOYSA-N

>  <SMILES>
CCC(=O)OC1(CCN(C)CC1C)C1=CC=CC=C1

>  <JCHEM_ACCEPTOR_COUNT>
2

>  <JCHEM_DONOR_COUNT>
0

>  <JCHEM_BASIC_PKA>
8.9

>  <JCHEM_PHYSIOLOGICAL_CHARGE>
1

>  <ALOGPS_LOGP>
3.24

>  <JCHEM_LOGP>
2.78

>  <ALOGPS_LOGS>
-2.7

>  <JCHEM_POLARIZABILITY>
29.82

>  <JCHEM_POLAR_SURFACE_AREA>
29.54

>  <JCHEM_REFRACTIVITY>
76.41

>  <JCHEM_ROTATABLE_BOND_COUNT>
4

>  <ALOGPS_SOLUBILITY>
4.75e-01 g/l __

$$$$
DB01475
 OpenBabel03171413512D

 26 28  0  0  0  0  0  0  0  0999 V2000
    1.6500    0.7145    0.0000 O   0  0  0  0  0  0  0  0  0  0  0  0
    6.6001   -0.7145    0.0000 O   0  0  0  0  0  0  0  0  0  0  0  0
    6.6001    0.7145    0.0000 O   0  0  0  0  0  0  0  0  0  0  0  0
    3.3001    0.7145    0.0000 N   0  0  0  0  0  0  0  0  0  0  0  0
    5.3626    0.0000    0.0000 C   0  0  0  0  0  0  0  0  0  0  0  0
    4.5376    0.0000    0.0000 C   0  0  0  0  0  0  0  0  0  0  0  0
    4.1251    0.7145    0.0000 C   0  0  0  0  0  0  0  0  0  0  0  0
    2.8876    1.4290    0.0000 C   0  0  0  0  0  0  0  0  0  0  0  0
    2.8876    0.0000    0.0000 C   0  0  0  0  0  0  0  0  0  0  0  0
    5.3626    0.8250    0.0000 C   0  0  0  0  0  0  0  0  0  0  0  0
    5.3626   -0.8250    0.0000 C   0  0  0  0  0  0  0  0  0  0  0  0
    6.1876    0.0000    0.0000 C   0  0  0  0  0  0  0  0  0  0  0  0
    2.0625    1.4290    0.0000 C   0  0  0  0  0  0  0  0  0  0  0  0
    2.0625    0.0000    0.0000 C   0  0  0  0  0  0  0  0  0  0  0  0
    4.6482    1.2375    0.0000 C   0  0  0  0  0  0  0  0  0  0  0  0
    6.0771   -1.2375    0.0000 C   0  0  0  0  0  0  0  0  0  0  0  0
    6.0771    1.2375    0.0000 C   0  0  0  0  0  0  0  0  0  0  0  0
    4.6482   -1.2375    0.0000 C   0  0  0  0  0  0  0  0  0  0  0  0
    4.6482    2.0625    0.0000 C   0  0  0  0  0  0  0  0  0  0  0  0
    6.0771   -2.0625    0.0000 C   0  0  0  0  0  0  0  0  0  0  0  0
    6.0771    2.0625    0.0000 C   0  0  0  0  0  0  0  0  0  0  0  0
    4.6482   -2.0625    0.0000 C   0  0  0  0  0  0  0  0  0  0  0  0
    5.3626    2.4751    0.0000 C   0  0  0  0  0  0  0  0  0  0  0  0
    5.3626   -2.4751    0.0000 C   0  0  0  0  0  0  0  0  0  0  0  0
    7.4252   -0.7145    0.0000 C   0  0  0  0  0  0  0  0  0  0  0  0
    7.8377   -1.4290    0.0000 C   0  0  0  0  0  0  0  0  0  0  0  0
  1 13  1  0  0  0  0
  1 14  1  0  0  0  0
  2 12  1  0  0  0  0
  2 25  1  0  0  0  0
  3 12  2  0  0  0  0
  4  7  1  0  0  0  0
  4  8  1  0  0  0  0
  4  9  1  0  0  0  0
  5  6  1  0  0  0  0
  5 10  1  0  0  0  0
  5 11  1  0  0  0  0
  5 12  1  0  0  0  0
  6  7  1  0  0  0  0
  8 13  1  0  0  0  0
  9 14  1  0  0  0  0
 10 15  2  0  0  0  0
 10 17  1  0  0  0  0
 11 16  2  0  0  0  0
 11 18  1  0  0  0  0
 15 19  1  0  0  0  0
 16 20  1  0  0  0  0
 17 21  2  0  0  0  0
 18 22  2  0  0  0  0
 19 23  2  0  0  0  0
 20 24  2  0  0  0  0
 21 23  1  0  0  0  0
 22 24  1  0  0  0  0
 25 26  1  0  0  0  0
M  END
>  <DRUGBANK_ID>
DB01475

>  <DRUG_GROUPS>
illicit; experimental

>  <GENERIC_NAME>
Dioxaphetyl butyrate

>  <CHEMICAL_FORMULA>
C22H27NO3

>  <MOLECULAR_WEIGHT>
353.4547

>  <EXACT_MASS>
353.199093735

>  <IUPAC_NAME>
ethyl 4-(morpholin-4-yl)-2,2-diphenylbutanoate

>  <INCHI_IDENTIFIER>
InChI=1S/C22H27NO3/c1-2-26-21(24)22(19-9-5-3-6-10-19,20-11-7-4-8-12-20)13-14-23-15-17-25-18-16-23/h3-12H,2,13-18H2,1H3

>  <INCHI_KEY>
InChIKey=LQGIXNQCOXNCRP-UHFFFAOYSA-N

>  <SMILES>
CCOC(=O)C(CCN1CCOCC1)(C1=CC=CC=C1)C1=CC=CC=C1

>  <JCHEM_ACCEPTOR_COUNT>
3

>  <JCHEM_DONOR_COUNT>
0

>  <JCHEM_BASIC_PKA>
6.88

>  <JCHEM_PHYSIOLOGICAL_CHARGE>
0

>  <ALOGPS_LOGP>
3.76

>  <JCHEM_LOGP>
3.84

>  <ALOGPS_LOGS>
-4.4

>  <JCHEM_POLARIZABILITY>
39.33

>  <JCHEM_POLAR_SURFACE_AREA>
38.77

>  <JCHEM_REFRACTIVITY>
103.26

>  <JCHEM_ROTATABLE_BOND_COUNT>
8

>  <ALOGPS_SOLUBILITY>
1.54e-02 g/l __

$$$$
DB01476
 OpenBabel03171413512D

 23 26  0  0  1  0  0  0  0  0999 V2000
    1.6500   -0.7747    0.0000 Br  0  0  0  0  0  0  0  0  0  0  0  0
    5.1559   -1.7086    0.0000 F   0  0  0  0  0  0  0  0  0  0  0  0
    4.5520   -1.0344    0.0000 O   0  0  0  0  0  0  0  0  0  0  0  0
    5.2103    2.3286    0.0000 O   0  0  0  0  0  0  0  0  0  0  0  0
    5.1832    0.1360    0.0000 N   0  0  3  0  0  0  0  0  0  0  0  0
    4.0273    1.5853    0.0000 N   0  0  0  0  0  0  0  0  0  0  0  0
    4.4398   -0.2220    0.0000 C   0  0  3  0  0  0  0  0  0  0  0  0
    5.7484   -0.4583    0.0000 C   0  0  0  0  0  0  0  0  0  0  0  0
    3.6966    0.1360    0.0000 C   0  0  0  0  0  0  0  0  0  0  0  0
    5.3591   -1.1802    0.0000 C   0  0  0  0  0  0  0  0  0  0  0  0
    5.3667    0.9403    0.0000 C   0  0  0  0  0  0  0  0  0  0  0  0
    3.9751   -0.9036    0.0000 C   0  0  0  0  0  0  0  0  0  0  0  0
    3.5130    0.9403    0.0000 C   0  0  0  0  0  0  0  0  0  0  0  0
    4.8523    1.5853    0.0000 C   0  0  0  0  0  0  0  0  0  0  0  0
    3.0757   -0.4582    0.0000 C   0  0  0  0  0  0  0  0  0  0  0  0
    4.3331   -1.6470    0.0000 C   0  0  0  0  0  0  0  0  0  0  0  0
    3.1524   -0.8420    0.0000 C   0  0  0  0  0  0  0  0  0  0  0  0
    2.6958    1.2062    0.0000 C   0  0  0  0  0  0  0  0  0  0  0  0
    2.2526   -0.2112    0.0000 C   0  0  0  0  0  0  0  0  0  0  0  0
    2.0614    0.6266    0.0000 C   0  0  0  0  0  0  0  0  0  0  0  0
    3.8684   -2.3286    0.0000 C   0  0  0  0  0  0  0  0  0  0  0  0
    2.6876   -1.5236    0.0000 C   0  0  0  0  0  0  0  0  0  0  0  0
    3.0456   -2.2669    0.0000 C   0  0  0  0  0  0  0  0  0  0  0  0
  1 19  1  0  0  0  0
  2 16  1  0  0  0  0
  3  7  1  0  0  0  0
  3 10  1  0  0  0  0
  4 14  2  0  0  0  0
  5  7  1  0  0  0  0
  5  8  1  0  0  0  0
  5 11  1  0  0  0  0
  6 13  1  0  0  0  0
  6 14  1  0  0  0  0
  7  9  1  0  0  0  0
  7 12  1  0  0  0  0
  8 10  1  0  0  0  0
  9 13  2  0  0  0  0
  9 15  1  0  0  0  0
 11 14  1  0  0  0  0
 12 16  1  0  0  0  0
 12 17  2  0  0  0  0
 13 18  1  0  0  0  0
 15 19  2  0  0  0  0
 16 21  2  0  0  0  0
 17 22  1  0  0  0  0
 18 20  2  0  0  0  0
 19 20  1  0  0  0  0
 21 23  1  0  0  0  0
 22 23  2  0  0  0  0
M  END
>  <DRUGBANK_ID>
DB01476

>  <DRUG_GROUPS>
illicit; experimental

>  <GENERIC_NAME>
Haloxazolam

>  <BRANDS>
Somelin

>  <CHEMICAL_FORMULA>
C17H14BrFN2O2

>  <MOLECULAR_WEIGHT>
377.208

>  <EXACT_MASS>
376.022268554

>  <IUPAC_NAME>
13-bromo-2-(2-fluorophenyl)-3-oxa-6,9-diazatricyclo[8.4.0.0^{2,6}]tetradeca-1(10),11,13-trien-8-one

>  <INCHI_IDENTIFIER>
InChI=1S/C17H14BrFN2O2/c18-11-5-6-15-13(9-11)17(12-3-1-2-4-14(12)19)21(7-8-23-17)10-16(22)20-15/h1-6,9H,7-8,10H2,(H,20,22)

>  <INCHI_KEY>
InChIKey=XDKCGKQHVBOOHC-UHFFFAOYSA-N

>  <SMILES>
FC1=CC=CC=C1C12OCCN1CC(=O)NC1=C2C=C(Br)C=C1

>  <JCHEM_ACCEPTOR_COUNT>
3

>  <JCHEM_DONOR_COUNT>
1

>  <JCHEM_ACIDIC_PKA>
12.68

>  <JCHEM_BASIC_PKA>
2.22

>  <JCHEM_PHYSIOLOGICAL_CHARGE>
0

>  <ALOGPS_LOGP>
2.98

>  <JCHEM_LOGP>
3.83

>  <ALOGPS_LOGS>
-4.1

>  <JCHEM_POLARIZABILITY>
32.98

>  <JCHEM_POLAR_SURFACE_AREA>
41.57

>  <JCHEM_REFRACTIVITY>
89.28

>  <JCHEM_ROTATABLE_BOND_COUNT>
1

>  <ALOGPS_SOLUBILITY>
3.08e-02 g/l __

$$$$
DB01477
 OpenBabel03171413512D

 27 30  0  0  1  0  0  0  0  0999 V2000
    0.0000    2.8384    0.0000 Br  0  0  0  0  0  0  0  0  0  0  0  0
    2.9071    2.6673    0.0000 O   0  0  0  0  0  0  0  0  0  0  0  0
    2.7064    0.5378    0.0000 O   0  0  0  0  0  0  0  0  0  0  0  0
    2.7064    4.7052    0.0000 O   0  0  0  0  0  0  0  0  0  0  0  0
    6.3153    1.7965    0.0000 N   0  0  0  0  0  0  0  0  0  0  0  0
    4.1720    2.2090    0.0000 C   0  0  2  0  0  0  0  0  0  0  0  0
    4.8864    1.7965    0.0000 C   0  0  2  0  0  0  0  0  0  0  0  0
    5.6009    2.2090    0.0000 C   0  0  1  0  0  0  0  0  0  0  0  0
    4.6487    2.8140    0.0000 C   0  0  0  0  0  0  0  0  0  0  0  0
    3.4575    1.7965    0.0000 C   0  0  2  0  0  0  0  0  0  0  0  0
    4.1720    3.0340    0.0000 C   0  0  0  0  0  0  0  0  0  0  0  0
    5.8220    2.8140    0.0000 C   0  0  0  0  0  0  0  0  0  0  0  0
    5.6009    3.0340    0.0000 C   0  0  0  0  0  0  0  0  0  0  0  0
    4.8864    3.4464    0.0000 C   0  0  0  0  0  0  0  0  0  0  0  0
    4.8864    0.9715    0.0000 C   0  0  0  0  0  0  0  0  0  0  0  0
    3.4575    0.9715    0.0000 C   0  0  2  0  0  0  0  0  0  0  0  0
    3.4575    3.4464    0.0000 C   0  0  0  0  0  0  0  0  0  0  0  0
    7.1446    1.5419    0.0000 C   0  0  0  0  0  0  0  0  0  0  0  0
    6.5096    0.9510    0.0000 C   0  0  0  0  0  0  0  0  0  0  0  0
    4.1720    0.5591    0.0000 C   0  0  0  0  0  0  0  0  0  0  0  0
    4.8864    4.2714    0.0000 C   0  0  0  0  0  0  0  0  0  0  0  0
    3.4575    4.2714    0.0000 C   0  0  0  0  0  0  0  0  0  0  0  0
    4.1720    4.6839    0.0000 C   0  0  0  0  0  0  0  0  0  0  0  0
    2.7064    5.5726    0.0000 C   0  0  0  0  0  0  0  0  0  0  0  0
    5.3326    1.2649    0.0000 H   0  0  0  0  0  0  0  0  0  0  0  0
    5.8388    1.5571    0.0000 H   0  0  0  0  0  0  0  0  0  0  0  0
    2.7910    1.6034    0.0000 H   0  0  0  0  0  0  0  0  0  0  0  0
  2 10  1  0  0  0  0
  2 17  1  0  0  0  0
  4 22  1  0  0  0  0
  4 24  1  0  0  0  0
  5  8  1  0  0  0  0
  5 12  1  0  0  0  0
  5 18  1  0  0  0  0
  5 19  1  0  0  0  0
  6  7  1  0  0  0  0
  6  9  1  1  0  0  0
  6 10  1  0  0  0  0
  6 11  1  0  0  0  0
  7  8  1  0  0  0  0
  7 15  1  0  0  0  0
  7 25  1  1  0  0  0
  8 13  1  0  0  0  0
  8 26  1  6  0  0  0
  9 12  1  0  0  0  0
 10 16  1  0  0  0  0
 10 27  1  1  0  0  0
 11 14  2  0  0  0  0
 11 17  1  0  0  0  0
 13 14  1  0  0  0  0
 14 21  1  0  0  0  0
 15 20  2  0  0  0  0
 16  3  1  6  0  0  0
 16 20  1  0  0  0  0
 17 22  2  0  0  0  0
 21 23  2  0  0  0  0
 22 23  1  0  0  0  0
M  END
>  <DRUGBANK_ID>
DB01477

>  <DRUG_GROUPS>
illicit; experimental

>  <GENERIC_NAME>
Codeine methylbromide

>  <CHEMICAL_FORMULA>
C19H24BrNO3

>  <MOLECULAR_WEIGHT>
394.303

>  <EXACT_MASS>
393.093956286

>  <IUPAC_NAME>
(1S,5R,13R,14S,17R)-14-hydroxy-10-methoxy-4,4-dimethyl-12-oxa-4-azapentacyclo[9.6.1.0^{1,13}.0^{5,17}.0^{7,18}]octadeca-7(18),8,10,15-tetraen-4-ium bromide

>  <INCHI_IDENTIFIER>
InChI=1S/C19H24NO3.BrH/c1-20(2)9-8-19-12-5-6-14(21)18(19)23-17-15(22-3)7-4-11(16(17)19)10-13(12)20;/h4-7,12-14,18,21H,8-10H2,1-3H3;1H/q+1;/p-1/t12-,13+,14-,18-,19-;/m0./s1

>  <INCHI_KEY>
InChIKey=KIKLDWULAZATJG-YZZSNFJZSA-M

>  <SMILES>
[Br-].[H][C@@]12OC3=C(OC)C=CC4=C3[C@@]11CC[N+](C)(C)[C@]([H])(C4)[C@]1([H])C=C[C@@H]2O

>  <JCHEM_ACCEPTOR_COUNT>
3

>  <JCHEM_DONOR_COUNT>
1

>  <JCHEM_ACIDIC_PKA>
13.78

>  <JCHEM_BASIC_PKA>
-3.3

>  <JCHEM_PHYSIOLOGICAL_CHARGE>
1

>  <ALOGPS_LOGP>
-1.9

>  <JCHEM_LOGP>
-2.8

>  <ALOGPS_LOGS>
-5.6

>  <JCHEM_POLARIZABILITY>
34.03

>  <JCHEM_POLAR_SURFACE_AREA>
38.69

>  <JCHEM_REFRACTIVITY>
100.52

>  <JCHEM_ROTATABLE_BOND_COUNT>
1

>  <ALOGPS_SOLUBILITY>
9.59e-04 g/l __

$$$$
DB01478
 OpenBabel03171413512D

 18 19  0  0  0  0  0  0  0  0999 V2000
    3.7126    0.8803    0.0000 O   0  0  0  0  0  0  0  0  0  0  0  0
    2.4751    0.1658    0.0000 O   0  0  0  0  0  0  0  0  0  0  0  0
    4.1251   -1.4842    0.0000 N   0  0  0  0  0  0  0  0  0  0  0  0
    4.1251    0.1658    0.0000 C   0  0  0  0  0  0  0  0  0  0  0  0
    4.8396   -0.2467    0.0000 C   0  0  0  0  0  0  0  0  0  0  0  0
    3.4106   -0.2467    0.0000 C   0  0  0  0  0  0  0  0  0  0  0  0
    4.8396   -1.0717    0.0000 C   0  0  0  0  0  0  0  0  0  0  0  0
    3.4106   -1.0717    0.0000 C   0  0  0  0  0  0  0  0  0  0  0  0
    4.5376    0.8803    0.0000 C   0  0  0  0  0  0  0  0  0  0  0  0
    4.1251   -2.3092    0.0000 C   0  0  0  0  0  0  0  0  0  0  0  0
    4.1251    1.5948    0.0000 C   0  0  0  0  0  0  0  0  0  0  0  0
    5.3626    0.8803    0.0000 C   0  0  0  0  0  0  0  0  0  0  0  0
    2.8876    0.8803    0.0000 C   0  0  0  0  0  0  0  0  0  0  0  0
    4.5376    2.3092    0.0000 C   0  0  0  0  0  0  0  0  0  0  0  0
    5.7751    1.5948    0.0000 C   0  0  0  0  0  0  0  0  0  0  0  0
    2.4751    1.5948    0.0000 C   0  0  0  0  0  0  0  0  0  0  0  0
    5.3626    2.3092    0.0000 C   0  0  0  0  0  0  0  0  0  0  0  0
    1.6500    1.5948    0.0000 C   0  0  0  0  0  0  0  0  0  0  0  0
  1  4  1  0  0  0  0
  1 13  1  0  0  0  0
  2 13  2  0  0  0  0
  3  7  1  0  0  0  0
  3  8  1  0  0  0  0
  3 10  1  0  0  0  0
  4  5  1  0  0  0  0
  4  6  1  0  0  0  0
  4  9  1  0  0  0  0
  5  7  1  0  0  0  0
  6  8  1  0  0  0  0
  9 11  2  0  0  0  0
  9 12  1  0  0  0  0
 11 14  1  0  0  0  0
 12 15  2  0  0  0  0
 13 16  1  0  0  0  0
 14 17  2  0  0  0  0
 15 17  1  0  0  0  0
 16 18  1  0  0  0  0
M  END
>  <DRUGBANK_ID>
DB01478

>  <DRUG_GROUPS>
illicit; experimental

>  <GENERIC_NAME>
1-Methyl-4-phenyl-4-propionoxypiperidine

>  <CHEMICAL_FORMULA>
C15H21NO2

>  <MOLECULAR_WEIGHT>
247.3327

>  <EXACT_MASS>
247.157228921

>  <IUPAC_NAME>
1-methyl-4-phenylpiperidin-4-yl propanoate

>  <INCHI_IDENTIFIER>
InChI=1S/C15H21NO2/c1-3-14(17)18-15(9-11-16(2)12-10-15)13-7-5-4-6-8-13/h4-8H,3,9-12H2,1-2H3

>  <INCHI_KEY>
InChIKey=BCQMRZRAWHNSBF-UHFFFAOYSA-N

>  <SMILES>
CCC(=O)OC1(CCN(C)CC1)C1=CC=CC=C1

>  <JCHEM_ACCEPTOR_COUNT>
2

>  <JCHEM_DONOR_COUNT>
0

>  <JCHEM_BASIC_PKA>
8.58

>  <JCHEM_PHYSIOLOGICAL_CHARGE>
1

>  <ALOGPS_LOGP>
2.91

>  <JCHEM_LOGP>
2.3

>  <ALOGPS_LOGS>
-2.3

>  <JCHEM_POLARIZABILITY>
28.04

>  <JCHEM_POLAR_SURFACE_AREA>
29.54

>  <JCHEM_REFRACTIVITY>
71.99

>  <JCHEM_ROTATABLE_BOND_COUNT>
4

>  <ALOGPS_SOLUBILITY>
1.22e+00 g/l __

$$$$
DB01480
 OpenBabel03171413512D

 31 37  0  0  1  0  0  0  0  0999 V2000
    4.3078   -2.2564    0.0000 O   0  0  0  0  0  0  0  0  0  0  0  0
    6.7073   -2.1150    0.0000 O   0  0  0  0  0  0  0  0  0  0  0  0
    5.9991   -2.6317    0.0000 O   0  0  0  0  0  0  0  0  0  0  0  0
    2.2396   -2.4278    0.0000 O   0  0  0  0  0  0  0  0  0  0  0  0
    5.1420    1.1703    0.0000 N   0  0  0  0  0  0  0  0  0  0  0  0
    4.7295   -0.9731    0.0000 C   0  0  3  0  0  0  0  0  0  0  0  0
    5.1420   -0.2587    0.0000 C   0  0  3  0  0  0  0  0  0  0  0  0
    5.1420   -1.6876    0.0000 C   0  0  3  0  0  0  0  0  0  0  0  0
    5.9670   -1.6876    0.0000 C   0  0  3  0  0  0  0  0  0  0  0  0
    4.7295    0.4559    0.0000 C   0  0  3  0  0  0  0  0  0  0  0  0
    5.7378   -0.6431    0.0000 C   0  0  0  0  0  0  0  0  0  0  0  0
    5.4262   -1.2664    0.0000 C   0  0  3  0  0  0  0  0  0  0  0  0
    4.3171   -0.2587    0.0000 C   0  0  0  0  0  0  0  0  0  0  0  0
    3.9045   -0.9731    0.0000 C   0  0  0  0  0  0  0  0  0  0  0  0
    5.9670   -0.2587    0.0000 C   0  0  0  0  0  0  0  0  0  0  0  0
    3.9045    0.4559    0.0000 C   0  0  0  0  0  0  0  0  0  0  0  0
    4.3078    1.3185    0.0000 C   0  0  0  0  0  0  0  0  0  0  0  0
    6.3796   -0.9731    0.0000 C   0  0  0  0  0  0  0  0  0  0  0  0
    3.4920   -0.2587    0.0000 C   0  0  0  0  0  0  0  0  0  0  0  0
    5.3186   -2.1145    0.0000 C   0  0  0  0  0  0  0  0  0  0  0  0
    3.4920   -1.6876    0.0000 C   0  0  0  0  0  0  0  0  0  0  0  0
    5.9170    1.5311    0.0000 C   0  0  0  0  0  0  0  0  0  0  0  0
    5.9921    2.3825    0.0000 C   0  0  0  0  0  0  0  0  0  0  0  0
    2.6670   -0.2587    0.0000 C   0  0  0  0  0  0  0  0  0  0  0  0
    2.6670   -1.6876    0.0000 C   0  0  0  0  0  0  0  0  0  0  0  0
    6.4829    3.0825    0.0000 C   0  0  0  0  0  0  0  0  0  0  0  0
    5.6313    3.1575    0.0000 C   0  0  0  0  0  0  0  0  0  0  0  0
    5.2109   -2.9624    0.0000 C   0  0  0  0  0  0  0  0  0  0  0  0
    4.5585   -1.7232    0.0000 C   0  0  0  0  0  0  0  0  0  0  0  0
    2.2545   -0.9731    0.0000 C   0  0  0  0  0  0  0  0  0  0  0  0
    7.4476   -1.6876    0.0000 C   0  0  0  0  0  0  0  0  0  0  0  0
  1  8  1  0  0  0  0
  1 21  1  0  0  0  0
  2  9  1  0  0  0  0
  2 31  1  0  0  0  0
  3 20  1  0  0  0  0
  4 25  1  0  0  0  0
  5 10  1  0  0  0  0
  5 17  1  0  0  0  0
  5 22  1  0  0  0  0
  6  7  1  0  0  0  0
  6  8  1  0  0  0  0
  6 13  1  0  0  0  0
  6 14  1  0  0  0  0
  7 10  1  0  0  0  0
  7 11  1  0  0  0  0
  7 15  1  0  0  0  0
  8  9  1  0  0  0  0
  9 12  1  0  0  0  0
  9 18  1  0  0  0  0
 10 16  1  0  0  0  0
 11 12  1  0  0  0  0
 12 20  1  0  0  0  0
 13 17  1  0  0  0  0
 14 19  2  0  0  0  0
 14 21  1  0  0  0  0
 15 18  2  0  0  0  0
 16 19  1  0  0  0  0
 19 24  1  0  0  0  0
 20 28  1  0  0  0  0
 20 29  1  0  0  0  0
 21 25  2  0  0  0  0
 22 23  1  0  0  0  0
 23 26  1  0  0  0  0
 23 27  1  0  0  0  0
 24 30  2  0  0  0  0
 25 30  1  0  0  0  0
 26 27  1  0  0  0  0
M  END
>  <DRUGBANK_ID>
DB01480

>  <DRUG_GROUPS>
illicit; experimental

>  <GENERIC_NAME>
Cyprenorphine

>  <CHEMICAL_FORMULA>
C26H33NO4

>  <MOLECULAR_WEIGHT>
423.5445

>  <EXACT_MASS>
423.240958549

>  <IUPAC_NAME>
3-(cyclopropylmethyl)-19-(2-hydroxypropan-2-yl)-15-methoxy-13-oxa-3-azahexacyclo[13.2.2.1^{2,8}.0^{1,6}.0^{6,14}.0^{7,12}]icosa-7,9,11,16-tetraen-11-ol

>  <INCHI_IDENTIFIER>
InChI=1S/C26H33NO4/c1-23(2,29)18-13-24-8-9-26(18,30-3)22-25(24)10-11-27(14-15-4-5-15)19(24)12-16-6-7-17(28)21(31-22)20(16)25/h6-9,15,18-19,22,28-29H,4-5,10-14H2,1-3H3

>  <INCHI_KEY>
InChIKey=VSKIOMHXEUHYSI-UHFFFAOYSA-N

>  <SMILES>
COC12C=CC3(CC1C(C)(C)O)C1CC4=C5C(OC2C35CCN1CC1CC1)=C(O)C=C4

>  <JCHEM_ACCEPTOR_COUNT>
5

>  <JCHEM_DONOR_COUNT>
2

>  <JCHEM_ACIDIC_PKA>
7.49

>  <JCHEM_BASIC_PKA>
12.4

>  <JCHEM_PHYSIOLOGICAL_CHARGE>
1

>  <ALOGPS_LOGP>
3.33

>  <JCHEM_LOGP>
2.13

>  <ALOGPS_LOGS>
-3.9

>  <JCHEM_POLARIZABILITY>
46.93

>  <JCHEM_POLAR_SURFACE_AREA>
62.16

>  <JCHEM_REFRACTIVITY>
119.33

>  <JCHEM_ROTATABLE_BOND_COUNT>
4

>  <ALOGPS_SOLUBILITY>
5.82e-02 g/l __

$$$$
DB01481
 OpenBabel03171413512D

 25 28  0  0  1  0  0  0  0  0999 V2000
    7.1353    1.7429    0.0000 O   0  0  0  0  0  0  0  0  0  0  0  0
    1.6498   -1.8105    0.0000 O   0  0  0  0  0  0  0  0  0  0  0  0
    6.0985   -0.1176    0.0000 C   0  0  1  0  0  0  0  0  0  0  0  0
    5.3842   -0.5300    0.0000 C   0  0  1  0  0  0  0  0  0  0  0  0
    6.0985    0.7073    0.0000 C   0  0  2  0  0  0  0  0  0  0  0  0
    4.6697   -0.1176    0.0000 C   0  0  1  0  0  0  0  0  0  0  0  0
    3.9191   -0.5356    0.0000 C   0  0  1  0  0  0  0  0  0  0  0  0
    5.3842    1.1197    0.0000 C   0  0  0  0  0  0  0  0  0  0  0  0
    4.6697    0.7073    0.0000 C   0  0  0  0  0  0  0  0  0  0  0  0
    6.8790    0.9588    0.0000 C   0  0  2  0  0  0  0  0  0  0  0  0
    6.8790   -0.3689    0.0000 C   0  0  0  0  0  0  0  0  0  0  0  0
    5.3974   -1.3891    0.0000 C   0  0  0  0  0  0  0  0  0  0  0  0
    3.9125   -1.3948    0.0000 C   0  0  1  0  0  0  0  0  0  0  0  0
    7.3604    0.2949    0.0000 C   0  0  0  0  0  0  0  0  0  0  0  0
    4.6566   -1.8245    0.0000 C   0  0  0  0  0  0  0  0  0  0  0  0
    6.0985    1.5322    0.0000 C   0  0  0  0  0  0  0  0  0  0  0  0
    3.9254    0.2893    0.0000 C   0  0  0  0  0  0  0  0  0  0  0  0
    3.1546   -0.0703    0.0000 C   0  0  0  0  0  0  0  0  0  0  0  0
    3.1409   -1.8482    0.0000 C   0  0  0  0  0  0  0  0  0  0  0  0
    2.3726   -0.5058    0.0000 C   0  0  0  0  0  0  0  0  0  0  0  0
    2.3657   -1.4007    0.0000 C   0  0  0  0  0  0  0  0  0  0  0  0
    6.1683   -0.7738    0.0000 H   0  0  0  0  0  0  0  0  0  0  0  0
    5.9581   -0.8555    0.0000 H   0  0  0  0  0  0  0  0  0  0  0  0
    5.2413    0.2124    0.0000 H   0  0  0  0  0  0  0  0  0  0  0  0
    3.9150   -2.0547    0.0000 H   0  0  0  0  0  0  0  0  0  0  0  0
  2 21  2  0  0  0  0
  3  4  1  0  0  0  0
  3  5  1  0  0  0  0
  3 11  1  0  0  0  0
  3 22  1  6  0  0  0
  4  6  1  0  0  0  0
  4 12  1  0  0  0  0
  4 23  1  1  0  0  0
  5  8  1  0  0  0  0
  5 10  1  0  0  0  0
  5 16  1  1  0  0  0
  6  7  1  0  0  0  0
  6  9  1  0  0  0  0
  6 24  1  6  0  0  0
  7 13  1  0  0  0  0
  7 17  1  1  0  0  0
  7 18  1  0  0  0  0
  8  9  1  0  0  0  0
 10  1  1  1  0  0  0
 10 14  1  0  0  0  0
 11 14  1  0  0  0  0
 12 15  1  0  0  0  0
 13 15  1  0  0  0  0
 13 19  1  0  0  0  0
 13 25  1  6  0  0  0
 18 20  2  0  0  0  0
 19 21  1  0  0  0  0
 20 21  1  0  0  0  0
M  END
>  <DRUGBANK_ID>
DB01481

>  <DRUG_GROUPS>
illicit; experimental

>  <GENERIC_NAME>
Delta1-dihydrotestosterone

>  <SYNONYMS>
1-T; 1-Testo; 1-testosterone; 17beta-hydroxy-5alpha-androst-1-en-3-one

>  <CHEMICAL_FORMULA>
C19H28O2

>  <MOLECULAR_WEIGHT>
288.4244

>  <EXACT_MASS>
288.20893014

>  <IUPAC_NAME>
(1S,2R,7S,10R,11S,14S,15S)-14-hydroxy-2,15-dimethyltetracyclo[8.7.0.0^{2,7}.0^{11,15}]heptadec-3-en-5-one

>  <INCHI_IDENTIFIER>
InChI=1S/C19H28O2/c1-18-9-7-13(20)11-12(18)3-4-14-15-5-6-17(21)19(15,2)10-8-16(14)18/h7,9,12,14-17,21H,3-6,8,10-11H2,1-2H3/t12-,14-,15-,16-,17-,18-,19-/m0/s1

>  <INCHI_KEY>
InChIKey=OKJCFMUGMSVJBG-ABEVXSGRSA-N

>  <SMILES>
[H][C@@]12CC[C@H](O)[C@@]1(C)CC[C@@]1([H])[C@@]2([H])CC[C@@]2([H])CC(=O)C=C[C@]12C

>  <JCHEM_ACCEPTOR_COUNT>
2

>  <JCHEM_DONOR_COUNT>
1

>  <JCHEM_ACIDIC_PKA>
19.38

>  <JCHEM_BASIC_PKA>
-0.88

>  <JCHEM_PHYSIOLOGICAL_CHARGE>
0

>  <ALOGPS_LOGP>
3.38

>  <JCHEM_LOGP>
3.41

>  <ALOGPS_LOGS>
-4.3

>  <JCHEM_POLARIZABILITY>
34.06

>  <JCHEM_POLAR_SURFACE_AREA>
37.3

>  <JCHEM_REFRACTIVITY>
84.7

>  <JCHEM_ROTATABLE_BOND_COUNT>
0

>  <ALOGPS_SOLUBILITY>
1.28e-02 g/l __

$$$$
DB01482
 OpenBabel03171413512D

 26 27  0  0  1  0  0  0  0  0999 V2000
    3.9240    8.7776    0.0000 Cl  0  0  0  0  0  0  0  0  0  0  0  0
    1.8720    3.8116    0.0000 O   0  0  0  0  0  0  0  0  0  0  0  0
    0.4430    1.3365    0.0000 O   0  0  0  0  0  0  0  0  0  0  0  0
    3.3671    2.8254    0.0000 N   0  0  0  0  0  0  0  0  0  0  0  0
    4.6870    4.5640    0.0000 N   0  0  0  0  0  0  0  0  0  0  0  0
    1.8720    1.3365    0.0000 N   0  0  0  0  0  0  0  0  0  0  0  0
    1.1575    2.5741    0.0000 N   0  0  0  0  0  0  0  0  0  0  0  0
    3.3671    1.4977    0.0000 N   0  0  0  0  0  0  0  0  0  0  0  0
    5.4943    4.7341    0.0000 C   0  0  3  0  0  0  0  0  0  0  0  0
    3.6234    3.6097    0.0000 C   0  0  0  0  0  0  0  0  0  0  0  0
    4.4307    3.7798    0.0000 C   0  0  0  0  0  0  0  0  0  0  0  0
    2.5864    2.5741    0.0000 C   0  0  0  0  0  0  0  0  0  0  0  0
    5.7505    5.5183    0.0000 C   0  0  0  0  0  0  0  0  0  0  0  0
    2.5864    1.7490    0.0000 C   0  0  0  0  0  0  0  0  0  0  0  0
    6.0452    4.1201    0.0000 C   0  0  0  0  0  0  0  0  0  0  0  0
    3.8485    2.1615    0.0000 C   0  0  0  0  0  0  0  0  0  0  0  0
    1.8720    2.9866    0.0000 C   0  0  0  0  0  0  0  0  0  0  0  0
    6.5578    5.6884    0.0000 C   0  0  0  0  0  0  0  0  0  0  0  0
    1.1575    1.7490    0.0000 C   0  0  0  0  0  0  0  0  0  0  0  0
    1.8720    0.5115    0.0000 C   0  0  0  0  0  0  0  0  0  0  0  0
    0.4430    2.9866    0.0000 C   0  0  0  0  0  0  0  0  0  0  0  0
    6.8142    6.4727    0.0000 C   0  0  0  0  0  0  0  0  0  0  0  0
    7.1089    5.0744    0.0000 C   0  0  0  0  0  0  0  0  0  0  0  0
    7.6214    6.6428    0.0000 C   0  0  0  0  0  0  0  0  0  0  0  0
    7.9161    5.2446    0.0000 C   0  0  0  0  0  0  0  0  0  0  0  0
    8.1724    6.0287    0.0000 C   0  0  0  0  0  0  0  0  0  0  0  0
  2 17  2  0  0  0  0
  3 19  2  0  0  0  0
  4 10  1  0  0  0  0
  4 12  1  0  0  0  0
  4 16  1  0  0  0  0
  5  9  1  0  0  0  0
  5 11  1  0  0  0  0
  6 14  1  0  0  0  0
  6 19  1  0  0  0  0
  6 20  1  0  0  0  0
  7 17  1  0  0  0  0
  7 19  1  0  0  0  0
  7 21  1  0  0  0  0
  8 14  1  0  0  0  0
  8 16  2  0  0  0  0
  9 13  1  0  0  0  0
  9 15  1  0  0  0  0
 10 11  1  0  0  0  0
 12 14  2  0  0  0  0
 12 17  1  0  0  0  0
 13 18  1  0  0  0  0
 18 22  2  0  0  0  0
 18 23  1  0  0  0  0
 22 24  1  0  0  0  0
 23 25  2  0  0  0  0
 24 26  2  0  0  0  0
 25 26  1  0  0  0  0
M  END
>  <DRUGBANK_ID>
DB01482

>  <DRUG_GROUPS>
illicit; experimental

>  <GENERIC_NAME>
Fenethylline

>  <CHEMICAL_FORMULA>
C18H24ClN5O2

>  <MOLECULAR_WEIGHT>
377.868

>  <EXACT_MASS>
377.161852744

>  <IUPAC_NAME>
1,3-dimethyl-7-{2-[(1-phenylpropan-2-yl)amino]ethyl}-2,3,6,7-tetrahydro-1H-purine-2,6-dione hydrochloride

>  <INCHI_IDENTIFIER>
InChI=1S/C18H23N5O2.ClH/c1-13(11-14-7-5-4-6-8-14)19-9-10-23-12-20-16-15(23)17(24)22(3)18(25)21(16)2;/h4-8,12-13,19H,9-11H2,1-3H3;1H

>  <INCHI_KEY>
InChIKey=MVXGSLGVWBVZCA-UHFFFAOYSA-N

>  <SMILES>
Cl.CC(CC1=CC=CC=C1)NCCN1C=NC2=C1C(=O)N(C)C(=O)N2C

>  <JCHEM_ACCEPTOR_COUNT>
4

>  <JCHEM_DONOR_COUNT>
1

>  <JCHEM_BASIC_PKA>
10.06

>  <JCHEM_PHYSIOLOGICAL_CHARGE>
1

>  <JCHEM_LOGP>
1.52

>  <JCHEM_POLARIZABILITY>
36.03

>  <JCHEM_POLAR_SURFACE_AREA>
70.47

>  <JCHEM_REFRACTIVITY>
96.34

>  <JCHEM_ROTATABLE_BOND_COUNT>
6 __

$$$$
DB01483
 OpenBabel03171413512D

 13 13  0  0  0  0  0  0  0  0999 V2000
    1.6500    0.5231    0.0000 O   0  0  0  0  0  0  0  0  0  0  0  0
    4.5080    0.5231    0.0000 O   0  0  0  0  0  0  0  0  0  0  0  0
    3.0791   -1.9520    0.0000 O   0  0  0  0  0  0  0  0  0  0  0  0
    2.3645   -0.7145    0.0000 N   0  0  0  0  0  0  0  0  0  0  0  0
    3.7935   -0.7145    0.0000 N   0  0  0  0  0  0  0  0  0  0  0  0
    3.0791    0.5231    0.0000 C   0  0  0  0  0  0  0  0  0  0  0  0
    2.6665    1.2375    0.0000 C   0  0  0  0  0  0  0  0  0  0  0  0
    3.4916    1.2375    0.0000 C   0  0  0  0  0  0  0  0  0  0  0  0
    2.3645    0.1106    0.0000 C   0  0  0  0  0  0  0  0  0  0  0  0
    3.7935    0.1106    0.0000 C   0  0  0  0  0  0  0  0  0  0  0  0
    1.8415    1.2375    0.0000 C   0  0  0  0  0  0  0  0  0  0  0  0
    3.0791    1.9520    0.0000 C   0  0  0  0  0  0  0  0  0  0  0  0
    3.0791   -1.1270    0.0000 C   0  0  0  0  0  0  0  0  0  0  0  0
  1  9  2  0  0  0  0
  2 10  2  0  0  0  0
  3 13  2  0  0  0  0
  4  9  1  0  0  0  0
  4 13  1  0  0  0  0
  5 10  1  0  0  0  0
  5 13  1  0  0  0  0
  6  7  1  0  0  0  0
  6  8  1  0  0  0  0
  6  9  1  0  0  0  0
  6 10  1  0  0  0  0
  7 11  1  0  0  0  0
  8 12  1  0  0  0  0
M  END
>  <DRUGBANK_ID>
DB01483

>  <DRUG_GROUPS>
illicit; experimental

>  <GENERIC_NAME>
Barbital

>  <CHEMICAL_FORMULA>
C8H12N2O3

>  <MOLECULAR_WEIGHT>
184.1925

>  <EXACT_MASS>
184.08479226

>  <IUPAC_NAME>
5,5-diethyl-1,3-diazinane-2,4,6-trione

>  <INCHI_IDENTIFIER>
InChI=1S/C8H12N2O3/c1-3-8(4-2)5(11)9-7(13)10-6(8)12/h3-4H2,1-2H3,(H2,9,10,11,12,13)

>  <INCHI_KEY>
InChIKey=FTOAOBMCPZCFFF-UHFFFAOYSA-N

>  <SMILES>
CCC1(CC)C(=O)NC(=O)NC1=O

>  <JCHEM_ACCEPTOR_COUNT>
3

>  <JCHEM_DONOR_COUNT>
2

>  <JCHEM_ACIDIC_PKA>
8.48

>  <JCHEM_PHYSIOLOGICAL_CHARGE>
0

>  <ALOGPS_LOGP>
0.73

>  <JCHEM_LOGP>
0.72

>  <ALOGPS_LOGS>
-1.8

>  <JCHEM_POLARIZABILITY>
17.59

>  <JCHEM_POLAR_SURFACE_AREA>
75.27

>  <JCHEM_REFRACTIVITY>
44.25

>  <JCHEM_ROTATABLE_BOND_COUNT>
2

>  <ALOGPS_SOLUBILITY>
3.23e+00 g/l __

$$$$
DB01484
 OpenBabel03171413512D

 15 15  0  0  1  0  0  0  0  0999 V2000
    3.7935   -2.3967    0.0000 Br  0  0  0  0  0  0  0  0  0  0  0  0
    2.3645    0.0784    0.0000 O   0  0  0  0  0  0  0  0  0  0  0  0
    5.2224   -1.5717    0.0000 O   0  0  0  0  0  0  0  0  0  0  0  0
    4.5080    2.1409    0.0000 N   0  0  0  0  0  0  0  0  0  0  0  0
    3.7935    0.9034    0.0000 C   0  0  0  0  0  0  0  0  0  0  0  0
    4.5080    1.3159    0.0000 C   0  0  3  0  0  0  0  0  0  0  0  0
    3.7935    0.0784    0.0000 C   0  0  0  0  0  0  0  0  0  0  0  0
    3.0791   -0.3341    0.0000 C   0  0  0  0  0  0  0  0  0  0  0  0
    5.2224    0.9034    0.0000 C   0  0  0  0  0  0  0  0  0  0  0  0
    4.5080   -0.3341    0.0000 C   0  0  0  0  0  0  0  0  0  0  0  0
    4.5080   -1.1592    0.0000 C   0  0  0  0  0  0  0  0  0  0  0  0
    3.0791   -1.1592    0.0000 C   0  0  0  0  0  0  0  0  0  0  0  0
    3.7935   -1.5717    0.0000 C   0  0  0  0  0  0  0  0  0  0  0  0
    1.6500   -0.3341    0.0000 C   0  0  0  0  0  0  0  0  0  0  0  0
    5.9370   -1.1592    0.0000 C   0  0  0  0  0  0  0  0  0  0  0  0
  1 13  1  0  0  0  0
  2  8  1  0  0  0  0
  2 14  1  0  0  0  0
  3 11  1  0  0  0  0
  3 15  1  0  0  0  0
  4  6  1  0  0  0  0
  5  6  1  0  0  0  0
  5  7  1  0  0  0  0
  6  9  1  0  0  0  0
  7  8  1  0  0  0  0
  7 10  2  0  0  0  0
  8 12  2  0  0  0  0
 10 11  1  0  0  0  0
 11 13  2  0  0  0  0
 12 13  1  0  0  0  0
M  END
>  <DRUGBANK_ID>
DB01484

>  <DRUG_GROUPS>
illicit; experimental

>  <GENERIC_NAME>
4-Bromo-2,5-dimethoxyamphetamine

>  <CHEMICAL_FORMULA>
C11H16BrNO2

>  <MOLECULAR_WEIGHT>
274.154

>  <EXACT_MASS>
273.036441408

>  <IUPAC_NAME>
1-(4-bromo-2,5-dimethoxyphenyl)propan-2-amine

>  <INCHI_IDENTIFIER>
InChI=1S/C11H16BrNO2/c1-7(13)4-8-5-11(15-3)9(12)6-10(8)14-2/h5-7H,4,13H2,1-3H3

>  <INCHI_KEY>
InChIKey=FXMWUTGUCAKGQL-UHFFFAOYSA-N

>  <SMILES>
COC1=CC(Br)=C(OC)C=C1CC(C)N

>  <JCHEM_ACCEPTOR_COUNT>
3

>  <JCHEM_DONOR_COUNT>
1

>  <JCHEM_BASIC_PKA>
9.9

>  <JCHEM_PHYSIOLOGICAL_CHARGE>
1

>  <ALOGPS_LOGP>
2.53

>  <JCHEM_LOGP>
2.26

>  <ALOGPS_LOGS>
-3.5

>  <JCHEM_POLARIZABILITY>
25.28

>  <JCHEM_POLAR_SURFACE_AREA>
44.48

>  <JCHEM_REFRACTIVITY>
64.25

>  <JCHEM_ROTATABLE_BOND_COUNT>
4

>  <ALOGPS_SOLUBILITY>
9.48e-02 g/l __

$$$$
DB01486
 OpenBabel03171413512D

 11 11  0  0  1  0  0  0  0  0999 V2000
    1.6498    0.9033    0.0000 O   0  0  0  0  0  0  0  0  0  0  0  0
    3.0787    1.7282    0.0000 N   0  0  0  0  0  0  0  0  0  0  0  0
    2.3642    0.4908    0.0000 C   0  0  2  0  0  0  0  0  0  0  0  0
    3.0787    0.9033    0.0000 C   0  0  2  0  0  0  0  0  0  0  0  0
    2.3642   -0.3341    0.0000 C   0  0  0  0  0  0  0  0  0  0  0  0
    3.7930    0.4908    0.0000 C   0  0  0  0  0  0  0  0  0  0  0  0
    3.0787   -0.7465    0.0000 C   0  0  0  0  0  0  0  0  0  0  0  0
    1.6498   -0.7465    0.0000 C   0  0  0  0  0  0  0  0  0  0  0  0
    3.0787   -1.5715    0.0000 C   0  0  0  0  0  0  0  0  0  0  0  0
    1.6498   -1.5715    0.0000 C   0  0  0  0  0  0  0  0  0  0  0  0
    2.3642   -1.9840    0.0000 C   0  0  0  0  0  0  0  0  0  0  0  0
  3  1  1  6  0  0  0
  3  4  1  0  0  0  0
  3  5  1  0  0  0  0
  4  2  1  1  0  0  0
  4  6  1  0  0  0  0
  5  7  2  0  0  0  0
  5  8  1  0  0  0  0
  7  9  1  0  0  0  0
  8 10  2  0  0  0  0
  9 11  2  0  0  0  0
 10 11  1  0  0  0  0
M  END
>  <DRUGBANK_ID>
DB01486

>  <DRUG_GROUPS>
illicit; experimental

>  <GENERIC_NAME>
Cathine

>  <SYNONYMS>
(+)-norephedrin; (+)-Norpseudoephedrine; (1S,2R)-(+)-Norephedrine; D-Cathine; D-norephedrine; D-phenylpropanolamine; Katine; norpseudoephedrine; Pseudonorephedrine; β-hydroxyamphetamine

>  <CHEMICAL_FORMULA>
C9H13NO

>  <MOLECULAR_WEIGHT>
151.2056

>  <EXACT_MASS>
151.099714043

>  <IUPAC_NAME>
(1S,2S)-2-amino-1-phenylpropan-1-ol

>  <INCHI_IDENTIFIER>
InChI=1S/C9H13NO/c1-7(10)9(11)8-5-3-2-4-6-8/h2-7,9,11H,10H2,1H3/t7-,9+/m0/s1

>  <INCHI_KEY>
InChIKey=DLNKOYKMWOXYQA-IONNQARKSA-N

>  <SMILES>
C[C@H](N)[C@@H](O)C1=CC=CC=C1

>  <JCHEM_ACCEPTOR_COUNT>
2

>  <JCHEM_DONOR_COUNT>
2

>  <JCHEM_ACIDIC_PKA>
13.9

>  <JCHEM_BASIC_PKA>
9.37

>  <JCHEM_PHYSIOLOGICAL_CHARGE>
1

>  <ALOGPS_LOGP>
0.57

>  <JCHEM_LOGP>
0.89

>  <ALOGPS_LOGS>
-0.87

>  <JCHEM_POLARIZABILITY>
16.87

>  <JCHEM_POLAR_SURFACE_AREA>
46.25

>  <JCHEM_REFRACTIVITY>
44.91

>  <JCHEM_ROTATABLE_BOND_COUNT>
2

>  <ALOGPS_SOLUBILITY>
2.06e+01 g/l __

$$$$
DB01487
 OpenBabel03171413512D

 21 21  0  0  0  0  0  0  0  0999 V2000
    1.6500   -3.2217    0.0000 O   0  0  0  0  0  0  0  0  0  0  0  0
    3.0791    1.7284    0.0000 O   0  0  0  0  0  0  0  0  0  0  0  0
    5.2224    3.7910    0.0000 O   0  0  0  0  0  0  0  0  0  0  0  0
    3.7935    0.4909    0.0000 N   0  0  0  0  0  0  0  0  0  0  0  0
    3.0791   -0.7466    0.0000 C   0  0  0  0  0  0  0  0  0  0  0  0
    3.9041   -0.7466    0.0000 C   0  0  0  0  0  0  0  0  0  0  0  0
    2.2540   -0.7466    0.0000 C   0  0  0  0  0  0  0  0  0  0  0  0
    3.0791    0.0784    0.0000 C   0  0  0  0  0  0  0  0  0  0  0  0
    3.0791   -1.5717    0.0000 C   0  0  0  0  0  0  0  0  0  0  0  0
    4.3166   -1.4611    0.0000 C   0  0  0  0  0  0  0  0  0  0  0  0
    1.8415   -0.0322    0.0000 C   0  0  0  0  0  0  0  0  0  0  0  0
    2.3645   -1.9842    0.0000 C   0  0  0  0  0  0  0  0  0  0  0  0
    3.7935   -1.9842    0.0000 C   0  0  0  0  0  0  0  0  0  0  0  0
    3.7935    1.3159    0.0000 C   0  0  0  0  0  0  0  0  0  0  0  0
    2.3645   -2.8092    0.0000 C   0  0  0  0  0  0  0  0  0  0  0  0
    3.7935   -2.8092    0.0000 C   0  0  0  0  0  0  0  0  0  0  0  0
    4.5080    1.7284    0.0000 C   0  0  0  0  0  0  0  0  0  0  0  0
    3.0791   -3.2217    0.0000 C   0  0  0  0  0  0  0  0  0  0  0  0
    4.5080    2.5534    0.0000 C   0  0  0  0  0  0  0  0  0  0  0  0
    5.2224    2.9659    0.0000 C   0  0  0  0  0  0  0  0  0  0  0  0
    1.6500   -4.0467    0.0000 C   0  0  0  0  0  0  0  0  0  0  0  0
  1 15  1  0  0  0  0
  1 21  1  0  0  0  0
  2 14  2  0  0  0  0
  3 20  1  0  0  0  0
  4  8  1  0  0  0  0
  4 14  1  0  0  0  0
  5  6  1  0  0  0  0
  5  7  1  0  0  0  0
  5  8  1  0  0  0  0
  5  9  1  0  0  0  0
  6 10  1  0  0  0  0
  7 11  1  0  0  0  0
  9 12  2  0  0  0  0
  9 13  1  0  0  0  0
 12 15  1  0  0  0  0
 13 16  2  0  0  0  0
 14 17  1  0  0  0  0
 15 18  2  0  0  0  0
 16 18  1  0  0  0  0
 17 19  1  0  0  0  0
 19 20  1  0  0  0  0
M  END
>  <DRUGBANK_ID>
DB01487

>  <DRUG_GROUPS>
illicit; experimental

>  <GENERIC_NAME>
Embutramide

>  <CHEMICAL_FORMULA>
C17H27NO3

>  <MOLECULAR_WEIGHT>
293.4012

>  <EXACT_MASS>
293.199093735

>  <IUPAC_NAME>
N-[2-ethyl-2-(3-methoxyphenyl)butyl]-4-hydroxybutanamide

>  <INCHI_IDENTIFIER>
InChI=1S/C17H27NO3/c1-4-17(5-2,13-18-16(20)10-7-11-19)14-8-6-9-15(12-14)21-3/h6,8-9,12,19H,4-5,7,10-11,13H2,1-3H3,(H,18,20)

>  <INCHI_KEY>
InChIKey=LMBMDLOSPKIWAP-UHFFFAOYSA-N

>  <SMILES>
CCC(CC)(CNC(=O)CCCO)C1=CC(OC)=CC=C1

>  <JCHEM_ACCEPTOR_COUNT>
3

>  <JCHEM_DONOR_COUNT>
2

>  <JCHEM_ACIDIC_PKA>
15.63

>  <JCHEM_BASIC_PKA>
-0.062

>  <JCHEM_PHYSIOLOGICAL_CHARGE>
0

>  <ALOGPS_LOGP>
2.98

>  <JCHEM_LOGP>
2.39

>  <ALOGPS_LOGS>
-3.9

>  <JCHEM_POLARIZABILITY>
33.93

>  <JCHEM_POLAR_SURFACE_AREA>
58.56

>  <JCHEM_REFRACTIVITY>
84.42

>  <JCHEM_ROTATABLE_BOND_COUNT>
9

>  <ALOGPS_SOLUBILITY>
4.17e-02 g/l __

$$$$
DB01488
 OpenBabel03171413512D

 14 15  0  0  0  0  0  0  0  0999 V2000
    5.1796    1.4693    0.0000 N   0  0  0  0  0  0  0  0  0  0  0  0
    3.8597   -1.5972    0.0000 N   0  0  0  0  0  0  0  0  0  0  0  0
    4.1160    0.5149    0.0000 C   0  0  0  0  0  0  0  0  0  0  0  0
    3.8597   -0.2693    0.0000 C   0  0  0  0  0  0  0  0  0  0  0  0
    4.9233    0.6851    0.0000 C   0  0  0  0  0  0  0  0  0  0  0  0
    3.0791   -0.5207    0.0000 C   0  0  0  0  0  0  0  0  0  0  0  0
    3.0791   -1.3457    0.0000 C   0  0  0  0  0  0  0  0  0  0  0  0
    4.3412   -0.9332    0.0000 C   0  0  0  0  0  0  0  0  0  0  0  0
    2.3645   -0.1082    0.0000 C   0  0  0  0  0  0  0  0  0  0  0  0
    2.3645   -1.7582    0.0000 C   0  0  0  0  0  0  0  0  0  0  0  0
    5.9869    1.6394    0.0000 C   0  0  0  0  0  0  0  0  0  0  0  0
    4.6286    2.0834    0.0000 C   0  0  0  0  0  0  0  0  0  0  0  0
    1.6501   -0.5207    0.0000 C   0  0  0  0  0  0  0  0  0  0  0  0
    1.6501   -1.3457    0.0000 C   0  0  0  0  0  0  0  0  0  0  0  0
  1  5  1  0  0  0  0
  1 11  1  0  0  0  0
  1 12  1  0  0  0  0
  2  7  1  0  0  0  0
  2  8  1  0  0  0  0
  3  4  1  0  0  0  0
  3  5  1  0  0  0  0
  4  6  1  0  0  0  0
  4  8  2  0  0  0  0
  6  7  1  0  0  0  0
  6  9  2  0  0  0  0
  7 10  2  0  0  0  0
  9 13  1  0  0  0  0
 10 14  1  0  0  0  0
 13 14  2  0  0  0  0
M  END
>  <DRUGBANK_ID>
DB01488

>  <DRUG_GROUPS>
illicit; experimental

>  <GENERIC_NAME>
Dimethyltryptamine

>  <CHEMICAL_FORMULA>
C12H16N2

>  <MOLECULAR_WEIGHT>
188.2688

>  <EXACT_MASS>
188.131348522

>  <IUPAC_NAME>
[2-(1H-indol-3-yl)ethyl]dimethylamine

>  <INCHI_IDENTIFIER>
InChI=1S/C12H16N2/c1-14(2)8-7-10-9-13-12-6-4-3-5-11(10)12/h3-6,9,13H,7-8H2,1-2H3

>  <INCHI_KEY>
InChIKey=DMULVCHRPCFFGV-UHFFFAOYSA-N

>  <SMILES>
CN(C)CCC1=CNC2=CC=CC=C12

>  <JCHEM_ACCEPTOR_COUNT>
1

>  <JCHEM_DONOR_COUNT>
1

>  <JCHEM_ACIDIC_PKA>
17.16

>  <JCHEM_BASIC_PKA>
9.55

>  <JCHEM_PHYSIOLOGICAL_CHARGE>
1

>  <ALOGPS_LOGP>
2.41

>  <JCHEM_LOGP>
2.3

>  <ALOGPS_LOGS>
-2

>  <JCHEM_POLARIZABILITY>
22.32

>  <JCHEM_POLAR_SURFACE_AREA>
19.03

>  <JCHEM_REFRACTIVITY>
60.44

>  <JCHEM_ROTATABLE_BOND_COUNT>
3

>  <ALOGPS_SOLUBILITY>
1.69e+00 g/l __

$$$$
DB01489
 OpenBabel03171413512D

 26 28  0  0  1  0  0  0  0  0999 V2000
    2.8172   -3.1025    0.0000 Cl  0  0  0  0  0  0  0  0  0  0  0  0
    4.1516    1.6159    0.0000 O   0  0  0  0  0  0  0  0  0  0  0  0
    2.6107    1.6159    0.0000 O   0  0  0  0  0  0  0  0  0  0  0  0
    5.4391    0.9959    0.0000 O   0  0  0  0  0  0  0  0  0  0  0  0
    2.4543    0.2276    0.0000 N   0  0  0  0  0  0  0  0  0  0  0  0
    4.3081    0.2276    0.0000 N   0  0  0  0  0  0  0  0  0  0  0  0
    5.3323    2.4209    0.0000 N   0  0  0  0  0  0  0  0  0  0  0  0
    2.6379   -0.5767    0.0000 C   0  0  0  0  0  0  0  0  0  0  0  0
    3.3812   -0.9346    0.0000 C   0  0  0  0  0  0  0  0  0  0  0  0
    4.1245   -0.5767    0.0000 C   0  0  0  0  0  0  0  0  0  0  0  0
    3.7937    0.8726    0.0000 C   0  0  3  0  0  0  0  0  0  0  0  0
    2.9687    0.8726    0.0000 C   0  0  0  0  0  0  0  0  0  0  0  0
    4.7695   -1.0911    0.0000 C   0  0  0  0  0  0  0  0  0  0  0  0
    1.9205   -1.0498    0.0000 C   0  0  0  0  0  0  0  0  0  0  0  0
    3.4586   -1.7905    0.0000 C   0  0  0  0  0  0  0  0  0  0  0  0
    1.6500    0.4112    0.0000 C   0  0  0  0  0  0  0  0  0  0  0  0
    1.9781   -1.9072    0.0000 C   0  0  0  0  0  0  0  0  0  0  0  0
    2.7524   -2.2801    0.0000 C   0  0  0  0  0  0  0  0  0  0  0  0
    5.5375   -0.7897    0.0000 C   0  0  0  0  0  0  0  0  0  0  0  0
    4.6466   -1.9069    0.0000 C   0  0  0  0  0  0  0  0  0  0  0  0
    6.1825   -1.3041    0.0000 C   0  0  0  0  0  0  0  0  0  0  0  0
    5.2915   -2.4213    0.0000 C   0  0  0  0  0  0  0  0  0  0  0  0
    4.9743    1.6776    0.0000 C   0  0  0  0  0  0  0  0  0  0  0  0
    6.0595   -2.1198    0.0000 C   0  0  0  0  0  0  0  0  0  0  0  0
    6.1550    2.4825    0.0000 C   0  0  0  0  0  0  0  0  0  0  0  0
    4.8676    3.1025    0.0000 C   0  0  0  0  0  0  0  0  0  0  0  0
  1 18  1  0  0  0  0
  2 11  1  0  0  0  0
  2 23  1  0  0  0  0
  3 12  2  0  0  0  0
  4 23  2  0  0  0  0
  5  8  1  0  0  0  0
  5 12  1  0  0  0  0
  5 16  1  0  0  0  0
  6 10  2  0  0  0  0
  6 11  1  0  0  0  0
  7 23  1  0  0  0  0
  7 25  1  0  0  0  0
  7 26  1  0  0  0  0
  8  9  2  0  0  0  0
  8 14  1  0  0  0  0
  9 10  1  0  0  0  0
  9 15  1  0  0  0  0
 10 13  1  0  0  0  0
 11 12  1  0  0  0  0
 13 19  2  0  0  0  0
 13 20  1  0  0  0  0
 14 17  2  0  0  0  0
 15 18  2  0  0  0  0
 17 18  1  0  0  0  0
 19 21  1  0  0  0  0
 20 22  2  0  0  0  0
 21 24  2  0  0  0  0
 22 24  1  0  0  0  0
M  END
>  <DRUGBANK_ID>
DB01489

>  <DRUG_GROUPS>
illicit; experimental

>  <GENERIC_NAME>
Camazepam

>  <CHEMICAL_FORMULA>
C19H18ClN3O3

>  <MOLECULAR_WEIGHT>
371.818

>  <EXACT_MASS>
371.103669164

>  <IUPAC_NAME>
7-chloro-1-methyl-2-oxo-5-phenyl-2,3-dihydro-1H-1,4-benzodiazepin-3-yl N,N-dimethylcarbamate

>  <INCHI_IDENTIFIER>
InChI=1S/C19H18ClN3O3/c1-22(2)19(25)26-17-18(24)23(3)15-10-9-13(20)11-14(15)16(21-17)12-7-5-4-6-8-12/h4-11,17H,1-3H3

>  <INCHI_KEY>
InChIKey=PXBVEXGRHZFEOF-UHFFFAOYSA-N

>  <SMILES>
CN(C)C(=O)OC1N=C(C2=CC=CC=C2)C2=C(C=CC(Cl)=C2)N(C)C1=O

>  <JCHEM_ACCEPTOR_COUNT>
3

>  <JCHEM_DONOR_COUNT>
0

>  <JCHEM_BASIC_PKA>
-1.7

>  <JCHEM_PHYSIOLOGICAL_CHARGE>
0

>  <ALOGPS_LOGP>
2.48

>  <JCHEM_LOGP>
3.34

>  <ALOGPS_LOGS>
-4.3

>  <JCHEM_POLARIZABILITY>
38.05

>  <JCHEM_POLAR_SURFACE_AREA>
62.21

>  <JCHEM_REFRACTIVITY>
98.63

>  <JCHEM_ROTATABLE_BOND_COUNT>
3

>  <ALOGPS_SOLUBILITY>
1.82e-02 g/l __

$$$$
DB01490
 OpenBabel03171413512D

 12 13  0  0  1  0  0  0  0  0999 V2000
    2.3888    0.5203    0.0000 O   0  0  0  0  0  0  0  0  0  0  0  0
    3.4687    1.3049    0.0000 N   0  0  0  0  0  0  0  0  0  0  0  0
    2.1587    1.9724    0.0000 N   0  0  0  0  0  0  0  0  0  0  0  0
    3.0562    0.0354    0.0000 C   0  0  3  0  0  0  0  0  0  0  0  0
    3.7236    0.5203    0.0000 C   0  0  0  0  0  0  0  0  0  0  0  0
    3.0562   -0.7896    0.0000 C   0  0  0  0  0  0  0  0  0  0  0  0
    3.7707   -1.2021    0.0000 C   0  0  0  0  0  0  0  0  0  0  0  0
    2.3417   -1.2021    0.0000 C   0  0  0  0  0  0  0  0  0  0  0  0
    2.6437    1.3049    0.0000 C   0  0  0  0  0  0  0  0  0  0  0  0
    3.7707   -2.0272    0.0000 C   0  0  0  0  0  0  0  0  0  0  0  0
    2.3417   -2.0272    0.0000 C   0  0  0  0  0  0  0  0  0  0  0  0
    3.0562   -2.4397    0.0000 C   0  0  0  0  0  0  0  0  0  0  0  0
  1  4  1  0  0  0  0
  1  9  1  0  0  0  0
  2  5  1  0  0  0  0
  2  9  2  0  0  0  0
  3  9  1  0  0  0  0
  4  5  1  0  0  0  0
  4  6  1  0  0  0  0
  6  7  2  0  0  0  0
  6  8  1  0  0  0  0
  7 10  1  0  0  0  0
  8 11  2  0  0  0  0
 10 12  2  0  0  0  0
 11 12  1  0  0  0  0
M  END
>  <DRUGBANK_ID>
DB01490

>  <DRUG_GROUPS>
illicit; experimental

>  <GENERIC_NAME>
Aminorex

>  <BRANDS>
Apiquel; Monocil

>  <CHEMICAL_FORMULA>
C9H10N2O

>  <MOLECULAR_WEIGHT>
162.1885

>  <EXACT_MASS>
162.079312952

>  <IUPAC_NAME>
5-phenyl-4,5-dihydro-1,3-oxazol-2-amine

>  <INCHI_IDENTIFIER>
InChI=1S/C9H10N2O/c10-9-11-6-8(12-9)7-4-2-1-3-5-7/h1-5,8H,6H2,(H2,10,11)

>  <INCHI_KEY>
InChIKey=SYAKTDIEAPMBAL-UHFFFAOYSA-N

>  <SMILES>
NC1=NCC(O1)C1=CC=CC=C1

>  <JCHEM_ACCEPTOR_COUNT>
3

>  <JCHEM_DONOR_COUNT>
1

>  <JCHEM_ACIDIC_PKA>
19.48

>  <JCHEM_BASIC_PKA>
7.49

>  <JCHEM_PHYSIOLOGICAL_CHARGE>
1

>  <ALOGPS_LOGP>
1.16

>  <JCHEM_LOGP>
1.46

>  <ALOGPS_LOGS>
-2.3

>  <JCHEM_POLARIZABILITY>
16.97

>  <JCHEM_POLAR_SURFACE_AREA>
47.61

>  <JCHEM_REFRACTIVITY>
45.75

>  <JCHEM_ROTATABLE_BOND_COUNT>
1

>  <ALOGPS_SOLUBILITY>
7.92e-01 g/l __

$$$$
DB01491
 OpenBabel03171413512D

 26 28  0  0  1  0  0  0  0  0999 V2000
    6.5270    0.7144    0.0000 O   0  0  0  0  0  0  0  0  0  0  0  0
    3.0572   -0.2482    0.0000 N   0  0  0  0  0  0  0  0  0  0  0  0
    3.6892    0.2822    0.0000 C   0  0  3  0  0  0  0  0  0  0  0  0
    4.4645    0.0000    0.0000 C   0  0  0  0  0  0  0  0  0  0  0  0
    5.2895    0.0000    0.0000 C   0  0  0  0  0  0  0  0  0  0  0  0
    2.2820    0.0341    0.0000 C   0  0  0  0  0  0  0  0  0  0  0  0
    3.2004   -1.0605    0.0000 C   0  0  0  0  0  0  0  0  0  0  0  0
    1.6500   -0.4962    0.0000 C   0  0  0  0  0  0  0  0  0  0  0  0
    2.5685   -1.5908    0.0000 C   0  0  0  0  0  0  0  0  0  0  0  0
    1.7932   -1.3087    0.0000 C   0  0  0  0  0  0  0  0  0  0  0  0
    3.5459    1.0946    0.0000 C   0  0  0  0  0  0  0  0  0  0  0  0
    5.2895   -0.8250    0.0000 C   0  0  0  0  0  0  0  0  0  0  0  0
    5.2895    0.8250    0.0000 C   0  0  0  0  0  0  0  0  0  0  0  0
    6.1145    0.0000    0.0000 C   0  0  0  0  0  0  0  0  0  0  0  0
    6.5270   -0.7144    0.0000 C   0  0  0  0  0  0  0  0  0  0  0  0
    6.0039   -1.2375    0.0000 C   0  0  0  0  0  0  0  0  0  0  0  0
    4.5750    1.2375    0.0000 C   0  0  0  0  0  0  0  0  0  0  0  0
    4.5750   -1.2375    0.0000 C   0  0  0  0  0  0  0  0  0  0  0  0
    6.0039    1.2375    0.0000 C   0  0  0  0  0  0  0  0  0  0  0  0
    7.3520   -0.7144    0.0000 C   0  0  0  0  0  0  0  0  0  0  0  0
    6.0039   -2.0625    0.0000 C   0  0  0  0  0  0  0  0  0  0  0  0
    4.5750    2.0625    0.0000 C   0  0  0  0  0  0  0  0  0  0  0  0
    4.5750   -2.0625    0.0000 C   0  0  0  0  0  0  0  0  0  0  0  0
    6.0039    2.0625    0.0000 C   0  0  0  0  0  0  0  0  0  0  0  0
    5.2895   -2.4750    0.0000 C   0  0  0  0  0  0  0  0  0  0  0  0
    5.2895    2.4750    0.0000 C   0  0  0  0  0  0  0  0  0  0  0  0
  1 14  2  0  0  0  0
  2  3  1  0  0  0  0
  2  6  1  0  0  0  0
  2  7  1  0  0  0  0
  3  4  1  0  0  0  0
  3 11  1  0  0  0  0
  4  5  1  0  0  0  0
  5 12  1  0  0  0  0
  5 13  1  0  0  0  0
  5 14  1  0  0  0  0
  6  8  1  0  0  0  0
  7  9  1  0  0  0  0
  8 10  1  0  0  0  0
  9 10  1  0  0  0  0
 12 16  2  0  0  0  0
 12 18  1  0  0  0  0
 13 17  2  0  0  0  0
 13 19  1  0  0  0  0
 14 15  1  0  0  0  0
 15 20  1  0  0  0  0
 16 21  1  0  0  0  0
 17 22  1  0  0  0  0
 18 23  2  0  0  0  0
 19 24  2  0  0  0  0
 21 25  2  0  0  0  0
 22 26  2  0  0  0  0
 23 25  1  0  0  0  0
 24 26  1  0  0  0  0
M  END
>  <DRUGBANK_ID>
DB01491

>  <DRUG_GROUPS>
illicit; experimental

>  <GENERIC_NAME>
Dipipanone

>  <CHEMICAL_FORMULA>
C24H31NO

>  <MOLECULAR_WEIGHT>
349.509

>  <EXACT_MASS>
349.240564619

>  <IUPAC_NAME>
4,4-diphenyl-6-(piperidin-1-yl)heptan-3-one

>  <INCHI_IDENTIFIER>
InChI=1S/C24H31NO/c1-3-23(26)24(21-13-7-4-8-14-21,22-15-9-5-10-16-22)19-20(2)25-17-11-6-12-18-25/h4-5,7-10,13-16,20H,3,6,11-12,17-19H2,1-2H3

>  <INCHI_KEY>
InChIKey=SVDHSZFEQYXRDC-UHFFFAOYSA-N

>  <SMILES>
CCC(=O)C(CC(C)N1CCCCC1)(C1=CC=CC=C1)C1=CC=CC=C1

>  <JCHEM_ACCEPTOR_COUNT>
2

>  <JCHEM_DONOR_COUNT>
0

>  <JCHEM_ACIDIC_PKA>
18.77

>  <JCHEM_BASIC_PKA>
9.3

>  <JCHEM_PHYSIOLOGICAL_CHARGE>
1

>  <ALOGPS_LOGP>
5.28

>  <JCHEM_LOGP>
5.86

>  <ALOGPS_LOGS>
-5.7

>  <JCHEM_POLARIZABILITY>
41.57

>  <JCHEM_POLAR_SURFACE_AREA>
20.31

>  <JCHEM_REFRACTIVITY>
109.41

>  <JCHEM_ROTATABLE_BOND_COUNT>
7

>  <ALOGPS_SOLUBILITY>
7.57e-04 g/l __

$$$$
DB01493
 OpenBabel03171413512D

 25 28  0  0  1  0  0  0  0  0999 V2000
    6.8323    1.1889    0.0000 O   0  0  0  0  0  0  0  0  0  0  0  0
    5.3833    0.4537    0.0000 C   0  0  1  0  0  0  0  0  0  0  0  0
    5.3833   -0.3713    0.0000 C   0  0  2  0  0  0  0  0  0  0  0  0
    4.6689   -0.7838    0.0000 C   0  0  1  0  0  0  0  0  0  0  0  0
    3.9544   -0.3713    0.0000 C   0  0  2  0  0  0  0  0  0  0  0  0
    6.1640    0.7051    0.0000 C   0  0  2  0  0  0  0  0  0  0  0  0
    4.6689    0.8662    0.0000 C   0  0  0  0  0  0  0  0  0  0  0  0
    6.1640   -0.6227    0.0000 C   0  0  0  0  0  0  0  0  0  0  0  0
    3.9544    0.4537    0.0000 C   0  0  0  0  0  0  0  0  0  0  0  0
    6.6455    0.0412    0.0000 C   0  0  0  0  0  0  0  0  0  0  0  0
    3.2036   -0.7895    0.0000 C   0  0  2  0  0  0  0  0  0  0  0  0
    4.6821   -1.6431    0.0000 C   0  0  0  0  0  0  0  0  0  0  0  0
    5.3833    1.2787    0.0000 C   0  0  0  0  0  0  0  0  0  0  0  0
    5.9104    1.4902    0.0000 C   0  0  0  0  0  0  0  0  0  0  0  0
    3.9412   -2.0785    0.0000 C   0  0  0  0  0  0  0  0  0  0  0  0
    3.1970   -1.6488    0.0000 C   0  0  0  0  0  0  0  0  0  0  0  0
    2.4389   -0.3241    0.0000 C   0  0  0  0  0  0  0  0  0  0  0  0
    1.6570   -0.7597    0.0000 C   0  0  0  0  0  0  0  0  0  0  0  0
    2.4252   -2.1023    0.0000 C   0  0  0  0  0  0  0  0  0  0  0  0
    6.4635    2.1023    0.0000 C   0  0  0  0  0  0  0  0  0  0  0  0
    1.6500   -1.6547    0.0000 C   0  0  0  0  0  0  0  0  0  0  0  0
    5.4532   -1.0276    0.0000 H   0  0  0  0  0  0  0  0  0  0  0  0
    5.2430   -1.1094    0.0000 H   0  0  0  0  0  0  0  0  0  0  0  0
    4.5260   -0.0413    0.0000 H   0  0  0  0  0  0  0  0  0  0  0  0
    3.2163   -0.1296    0.0000 H   0  0  0  0  0  0  0  0  0  0  0  0
  2  3  1  0  0  0  0
  2  6  1  0  0  0  0
  2  7  1  0  0  0  0
  2 13  1  1  0  0  0
  3  4  1  0  0  0  0
  3  8  1  0  0  0  0
  3 22  1  6  0  0  0
  4  5  1  0  0  0  0
  4 12  1  0  0  0  0
  4 23  1  1  0  0  0
  5  9  1  0  0  0  0
  5 11  1  0  0  0  0
  5 24  1  6  0  0  0
  6  1  1  1  0  0  0
  6 10  1  0  0  0  0
  6 14  1  0  0  0  0
  7  9  1  0  0  0  0
  8 10  1  0  0  0  0
 11 16  1  0  0  0  0
 11 17  1  0  0  0  0
 11 25  1  1  0  0  0
 12 15  1  0  0  0  0
 14 20  1  0  0  0  0
 15 16  1  0  0  0  0
 16 19  2  0  0  0  0
 17 18  1  0  0  0  0
 18 21  1  0  0  0  0
 19 21  1  0  0  0  0
M  END
>  <DRUGBANK_ID>
DB01493

>  <DRUG_GROUPS>
illicit; experimental

>  <GENERIC_NAME>
Ethylestrenol

>  <CHEMICAL_FORMULA>
C20H32O

>  <MOLECULAR_WEIGHT>
288.4675

>  <EXACT_MASS>
288.245315646

>  <IUPAC_NAME>
(1S,2R,10R,11S,14S,15S)-14-ethyl-15-methyltetracyclo[8.7.0.0^{2,7}.0^{11,15}]heptadec-6-en-14-ol

>  <INCHI_IDENTIFIER>
InChI=1S/C20H32O/c1-3-20(21)13-11-18-17-9-8-14-6-4-5-7-15(14)16(17)10-12-19(18,20)2/h6,15-18,21H,3-5,7-13H2,1-2H3/t15-,16+,17+,18-,19-,20-/m0/s1

>  <INCHI_KEY>
InChIKey=AOXRBFRFYPMWLR-XGXHKTLJSA-N

>  <SMILES>
[H][C@@]12CC[C@@](O)(CC)[C@@]1(C)CC[C@]1([H])[C@@]3([H])CCCC=C3CC[C@@]21[H]

>  <JCHEM_ACCEPTOR_COUNT>
1

>  <JCHEM_DONOR_COUNT>
1

>  <JCHEM_BASIC_PKA>
-0.27

>  <JCHEM_PHYSIOLOGICAL_CHARGE>
0

>  <ALOGPS_LOGP>
5.2

>  <JCHEM_LOGP>
4.69

>  <ALOGPS_LOGS>
-5.5

>  <JCHEM_POLARIZABILITY>
35.94

>  <JCHEM_POLAR_SURFACE_AREA>
20.23

>  <JCHEM_REFRACTIVITY>
88.5

>  <JCHEM_ROTATABLE_BOND_COUNT>
1

>  <ALOGPS_SOLUBILITY>
8.60e-04 g/l __

$$$$
DB01494
 OpenBabel03171413512D

 15 13  0  0  0  0  0  0  0  0999 V2000
    0.3572    0.3020    0.0000 Cl  0  0  0  0  0  0  0  0  0  0  0  0
    0.6592    1.4290    0.0000 Cl  0  0  0  0  0  0  0  0  0  0  0  0
    1.4842    0.0000    0.0000 Cl  0  0  0  0  0  0  0  0  0  0  0  0
    3.3009    5.4278    0.0000 O   0  0  0  0  0  0  0  0  0  0  0  0
    2.5864    4.1903    0.0000 O   0  0  0  0  0  0  0  0  0  0  0  0
    2.5007    0.7145    0.0000 O   0  0  0  0  0  0  0  0  0  0  0  0
    1.7862    1.9520    0.0000 O   0  0  0  0  0  0  0  0  0  0  0  0
    1.1575    5.0153    0.0000 N   0  0  0  0  0  0  0  0  0  0  0  0
    1.8720    5.4278    0.0000 C   0  0  0  0  0  0  0  0  0  0  0  0
    1.5700    4.3008    0.0000 C   0  0  0  0  0  0  0  0  0  0  0  0
    0.7450    5.7298    0.0000 C   0  0  0  0  0  0  0  0  0  0  0  0
    0.4430    4.6028    0.0000 C   0  0  0  0  0  0  0  0  0  0  0  0
    2.5864    5.0153    0.0000 C   0  0  0  0  0  0  0  0  0  0  0  0
    1.7862    1.1270    0.0000 C   0  0  0  0  0  0  0  0  0  0  0  0
    1.0717    0.7145    0.0000 C   0  0  0  0  0  0  0  0  0  0  0  0
  1 15  1  0  0  0  0
  2 15  1  0  0  0  0
  3 15  1  0  0  0  0
  4 13  1  0  0  0  0
  5 13  2  0  0  0  0
  6 14  1  0  0  0  0
  7 14  1  0  0  0  0
  8  9  1  0  0  0  0
  8 10  1  0  0  0  0
  8 11  1  0  0  0  0
  8 12  1  0  0  0  0
  9 13  1  0  0  0  0
 14 15  1  0  0  0  0
M  END
>  <DRUGBANK_ID>
DB01494

>  <DRUG_GROUPS>
illicit; experimental

>  <GENERIC_NAME>
Chloral betaine

>  <CHEMICAL_FORMULA>
C7H14Cl3NO4

>  <MOLECULAR_WEIGHT>
282.549

>  <EXACT_MASS>
280.998841062

>  <IUPAC_NAME>
2,2,2-trichloroethane-1,1-diol 2-(trimethylazaniumyl)acetate

>  <INCHI_IDENTIFIER>
InChI=1S/C5H11NO2.C2H3Cl3O2/c1-6(2,3)4-5(7)8;3-2(4,5)1(6)7/h4H2,1-3H3;1,6-7H

>  <INCHI_KEY>
InChIKey=ONAOIDNSINNZOA-UHFFFAOYSA-N

>  <SMILES>
OC(O)C(Cl)(Cl)Cl.C[N+](C)(C)CC([O-])=O

>  <JCHEM_ACCEPTOR_COUNT>
2

>  <JCHEM_DONOR_COUNT>
0

>  <JCHEM_ACIDIC_PKA>
2.26

>  <JCHEM_PHYSIOLOGICAL_CHARGE>
0

>  <JCHEM_LOGP>
-4.5

>  <JCHEM_POLARIZABILITY>
12.11

>  <JCHEM_POLAR_SURFACE_AREA>
40.13

>  <JCHEM_REFRACTIVITY>
52.82

>  <JCHEM_ROTATABLE_BOND_COUNT>
3 __

$$$$
DB01495
 OpenBabel03171413512D

 28 27  0  0  1  0  0  0  0  0999 V2000
    5.7656    6.9874    0.0000 Cl  0  0  0  0  0  0  0  0  0  0  0  0
    4.9405    8.4164    0.0000 Cl  0  0  0  0  0  0  0  0  0  0  0  0
    4.6386    7.2894    0.0000 Cl  0  0  0  0  0  0  0  0  0  0  0  0
    1.1270    3.4937    0.0000 Cl  0  0  0  0  0  0  0  0  0  0  0  0
    0.3020    4.9227    0.0000 Cl  0  0  0  0  0  0  0  0  0  0  0  0
    0.0000    3.7957    0.0000 Cl  0  0  0  0  0  0  0  0  0  0  0  0
    4.2365    3.2166    0.0000 O   0  0  0  0  0  0  0  0  0  0  0  0
    6.7821    7.7020    0.0000 O   0  0  0  0  0  0  0  0  0  0  0  0
    6.0676    8.9395    0.0000 O   0  0  0  0  0  0  0  0  0  0  0  0
    2.1435    4.2082    0.0000 O   0  0  0  0  0  0  0  0  0  0  0  0
    1.4290    5.4457    0.0000 O   0  0  0  0  0  0  0  0  0  0  0  0
    6.3560    3.4715    0.0000 N   0  0  0  0  0  0  0  0  0  0  0  0
    5.6886    2.9866    0.0000 N   0  0  0  0  0  0  0  0  0  0  0  0
    6.1011    4.2561    0.0000 C   0  0  0  0  0  0  0  0  0  0  0  0
    5.6886    2.1615    0.0000 C   0  0  0  0  0  0  0  0  0  0  0  0
    5.0211    3.4715    0.0000 C   0  0  0  0  0  0  0  0  0  0  0  0
    5.2761    4.2561    0.0000 C   0  0  0  0  0  0  0  0  0  0  0  0
    7.1407    3.2166    0.0000 C   0  0  0  0  0  0  0  0  0  0  0  0
    6.5860    4.9236    0.0000 C   0  0  0  0  0  0  0  0  0  0  0  0
    6.4030    1.7490    0.0000 C   0  0  0  0  0  0  0  0  0  0  0  0
    4.9741    1.7490    0.0000 C   0  0  0  0  0  0  0  0  0  0  0  0
    6.4030    0.9240    0.0000 C   0  0  0  0  0  0  0  0  0  0  0  0
    4.9741    0.9240    0.0000 C   0  0  0  0  0  0  0  0  0  0  0  0
    5.6886    0.5115    0.0000 C   0  0  0  0  0  0  0  0  0  0  0  0
    6.0676    8.1145    0.0000 C   0  0  0  0  0  0  0  0  0  0  0  0
    1.4290    4.6207    0.0000 C   0  0  0  0  0  0  0  0  0  0  0  0
    5.3530    7.7020    0.0000 C   0  0  0  0  0  0  0  0  0  0  0  0
    0.7145    4.2082    0.0000 C   0  0  0  0  0  0  0  0  0  0  0  0
  1 27  1  0  0  0  0
  2 27  1  0  0  0  0
  3 27  1  0  0  0  0
  4 28  1  0  0  0  0
  5 28  1  0  0  0  0
  6 28  1  0  0  0  0
  7 16  2  0  0  0  0
  8 25  1  0  0  0  0
  9 25  1  0  0  0  0
 10 26  1  0  0  0  0
 11 26  1  0  0  0  0
 12 13  1  0  0  0  0
 12 14  1  0  0  0  0
 12 18  1  0  0  0  0
 13 15  1  0  0  0  0
 13 16  1  0  0  0  0
 14 17  2  0  0  0  0
 14 19  1  0  0  0  0
 15 20  2  0  0  0  0
 15 21  1  0  0  0  0
 16 17  1  0  0  0  0
 20 22  1  0  0  0  0
 21 23  2  0  0  0  0
 22 24  2  0  0  0  0
 23 24  1  0  0  0  0
 25 27  1  0  0  0  0
 26 28  1  0  0  0  0
M  END
>  <DRUGBANK_ID>
DB01495

>  <DRUG_GROUPS>
illicit; experimental

>  <GENERIC_NAME>
Dichloralphenazone

>  <CHEMICAL_FORMULA>
C15H18Cl6N2O5

>  <MOLECULAR_WEIGHT>
519.032

>  <EXACT_MASS>
515.934687938

>  <IUPAC_NAME>
1,5-dimethyl-2-phenyl-2,3-dihydro-1H-pyrazol-3-one; bis(2,2,2-trichloroethane-1,1-diol)

>  <INCHI_IDENTIFIER>
InChI=1S/C11H12N2O.2C2H3Cl3O2/c1-9-8-11(14)13(12(9)2)10-6-4-3-5-7-10;2*3-2(4,5)1(6)7/h3-8H,1-2H3;2*1,6-7H

>  <INCHI_KEY>
InChIKey=ATKXDQOHNICLQW-UHFFFAOYSA-N

>  <SMILES>
OC(O)C(Cl)(Cl)Cl.OC(O)C(Cl)(Cl)Cl.CN1N(C(=O)C=C1C)C1=CC=CC=C1

>  <JCHEM_ACCEPTOR_COUNT>
2

>  <JCHEM_DONOR_COUNT>
0

>  <JCHEM_BASIC_PKA>
0.37

>  <JCHEM_PHYSIOLOGICAL_CHARGE>
0

>  <JCHEM_LOGP>
1.22

>  <JCHEM_POLARIZABILITY>
20.41

>  <JCHEM_POLAR_SURFACE_AREA>
23.55

>  <JCHEM_REFRACTIVITY>
56.42

>  <JCHEM_ROTATABLE_BOND_COUNT>
3 __

$$$$
DB01496
 OpenBabel03171413512D

 25 27  0  0  0  0  0  0  0  0999 V2000
    5.1753   -2.6608    0.0000 S   0  0  0  0  0  0  0  0  0  0  0  0
    3.6172    0.5757    0.0000 F   0  0  0  0  0  0  0  0  0  0  0  0
    4.7065    0.1576    0.0000 F   0  0  0  0  0  0  0  0  0  0  0  0
    5.1246    1.2468    0.0000 F   0  0  0  0  0  0  0  0  0  0  0  0
    2.9849    0.2991    0.0000 O   0  0  0  0  0  0  0  0  0  0  0  0
    2.3174   -2.6608    0.0000 O   0  0  0  0  0  0  0  0  0  0  0  0
    3.7464   -0.1858    0.0000 O   0  0  0  0  0  0  0  0  0  0  0  0
    3.7464   -2.6608    0.0000 N   0  0  0  0  0  0  0  0  0  0  0  0
    4.4609   -1.4233    0.0000 N   0  0  0  0  0  0  0  0  0  0  0  0
    3.0319   -1.4233    0.0000 C   0  0  0  0  0  0  0  0  0  0  0  0
    2.3174   -1.0108    0.0000 C   0  0  0  0  0  0  0  0  0  0  0  0
    2.3174   -0.1858    0.0000 C   0  0  0  0  0  0  0  0  0  0  0  0
    3.0319   -2.2483    0.0000 C   0  0  0  0  0  0  0  0  0  0  0  0
    3.7464   -1.0108    0.0000 C   0  0  0  0  0  0  0  0  0  0  0  0
    2.7299    1.0837    0.0000 C   0  0  0  0  0  0  0  0  0  0  0  0
    1.6500    0.2991    0.0000 C   0  0  0  0  0  0  0  0  0  0  0  0
    3.2149    1.7512    0.0000 C   0  0  0  0  0  0  0  0  0  0  0  0
    1.9049    1.0837    0.0000 C   0  0  0  0  0  0  0  0  0  0  0  0
    4.0353    1.6649    0.0000 C   0  0  0  0  0  0  0  0  0  0  0  0
    4.4609   -2.2483    0.0000 C   0  0  0  0  0  0  0  0  0  0  0  0
    2.8793    2.5049    0.0000 C   0  0  0  0  0  0  0  0  0  0  0  0
    4.5203    2.3324    0.0000 C   0  0  0  0  0  0  0  0  0  0  0  0
    4.3710    0.9113    0.0000 C   0  0  0  0  0  0  0  0  0  0  0  0
    3.3643    3.1723    0.0000 C   0  0  0  0  0  0  0  0  0  0  0  0
    4.1848    3.0861    0.0000 C   0  0  0  0  0  0  0  0  0  0  0  0
  1 20  2  0  0  0  0
  2 23  1  0  0  0  0
  3 23  1  0  0  0  0
  4 23  1  0  0  0  0
  5 12  1  0  0  0  0
  5 15  1  0  0  0  0
  6 13  2  0  0  0  0
  7 14  2  0  0  0  0
  8 13  1  0  0  0  0
  8 20  1  0  0  0  0
  9 14  1  0  0  0  0
  9 20  1  0  0  0  0
 10 11  1  0  0  0  0
 10 13  1  0  0  0  0
 10 14  1  0  0  0  0
 11 12  1  0  0  0  0
 12 16  2  0  0  0  0
 15 17  1  0  0  0  0
 15 18  2  0  0  0  0
 16 18  1  0  0  0  0
 17 19  1  0  0  0  0
 17 21  2  0  0  0  0
 19 22  2  0  0  0  0
 19 23  1  0  0  0  0
 21 24  1  0  0  0  0
 22 25  1  0  0  0  0
 24 25  2  0  0  0  0
M  END
>  <DRUGBANK_ID>
DB01496

>  <DRUG_GROUPS>
illicit; experimental

>  <GENERIC_NAME>
Barbituric acid derivative

>  <CHEMICAL_FORMULA>
C16H11F3N2O3S

>  <MOLECULAR_WEIGHT>
368.33

>  <EXACT_MASS>
368.044247533

>  <IUPAC_NAME>
2-sulfanylidene-5-({5-[2-(trifluoromethyl)phenyl]furan-2-yl}methyl)-1,3-diazinane-4,6-dione

>  <INCHI_IDENTIFIER>
InChI=1S/C16H11F3N2O3S/c17-16(18,19)11-4-2-1-3-9(11)12-6-5-8(24-12)7-10-13(22)20-15(25)21-14(10)23/h1-6,10H,7H2,(H2,20,21,22,23,25)

>  <INCHI_KEY>
InChIKey=DNZPLHRZXUJATK-UHFFFAOYSA-N

>  <SMILES>
FC(F)(F)C1=CC=CC=C1C1=CC=C(CC2C(=O)NC(=S)NC2=O)O1

>  <JCHEM_ACCEPTOR_COUNT>
2

>  <JCHEM_DONOR_COUNT>
2

>  <JCHEM_ACIDIC_PKA>
3.41

>  <JCHEM_BASIC_PKA>
-2.8

>  <JCHEM_PHYSIOLOGICAL_CHARGE>
-1

>  <ALOGPS_LOGP>
3.19

>  <JCHEM_LOGP>
3.09

>  <ALOGPS_LOGS>
-4.2

>  <JCHEM_POLARIZABILITY>
31.65

>  <JCHEM_POLAR_SURFACE_AREA>
71.34

>  <JCHEM_REFRACTIVITY>
86.77

>  <JCHEM_ROTATABLE_BOND_COUNT>
4

>  <ALOGPS_SOLUBILITY>
2.06e-02 g/l __

$$$$
DB01497
 OpenBabel03171413512D

 31 36  0  0  1  0  0  0  0  0999 V2000
    4.3078   -1.1907    0.0000 O   0  0  0  0  0  0  0  0  0  0  0  0
    6.3944   -1.3621    0.0000 O   0  0  0  0  0  0  0  0  0  0  0  0
    4.6437   -1.7207    0.0000 O   0  0  0  0  0  0  0  0  0  0  0  0
    2.2396   -1.3621    0.0000 O   0  0  0  0  0  0  0  0  0  0  0  0
    5.1420    2.2361    0.0000 N   0  0  0  0  0  0  0  0  0  0  0  0
    4.7295    0.0927    0.0000 C   0  0  1  0  0  0  0  0  0  0  0  0
    5.1420    0.8072    0.0000 C   0  0  1  0  0  0  0  0  0  0  0  0
    5.1420   -0.6218    0.0000 C   0  0  3  0  0  0  0  0  0  0  0  0
    5.9670   -0.6218    0.0000 C   0  0  3  0  0  0  0  0  0  0  0  0
    4.7295    1.5217    0.0000 C   0  0  1  0  0  0  0  0  0  0  0  0
    5.7378    0.4227    0.0000 C   0  0  0  0  0  0  0  0  0  0  0  0
    5.4262   -0.2006    0.0000 C   0  0  3  0  0  0  0  0  0  0  0  0
    4.3171    0.8072    0.0000 C   0  0  0  0  0  0  0  0  0  0  0  0
    3.9045    0.0927    0.0000 C   0  0  0  0  0  0  0  0  0  0  0  0
    5.9670    0.8072    0.0000 C   0  0  0  0  0  0  0  0  0  0  0  0
    3.9045    1.5217    0.0000 C   0  0  0  0  0  0  0  0  0  0  0  0
    6.3796    0.0927    0.0000 C   0  0  0  0  0  0  0  0  0  0  0  0
    4.3078    2.3844    0.0000 C   0  0  0  0  0  0  0  0  0  0  0  0
    5.0349   -0.9606    0.0000 C   0  0  3  0  0  0  0  0  0  0  0  0
    3.4920    0.8072    0.0000 C   0  0  0  0  0  0  0  0  0  0  0  0
    3.4920   -0.6218    0.0000 C   0  0  0  0  0  0  0  0  0  0  0  0
    5.7951   -1.3519    0.0000 C   0  0  0  0  0  0  0  0  0  0  0  0
    5.9170    2.5968    0.0000 C   0  0  0  0  0  0  0  0  0  0  0  0
    2.6670    0.8072    0.0000 C   0  0  0  0  0  0  0  0  0  0  0  0
    4.2749   -0.5695    0.0000 C   0  0  0  0  0  0  0  0  0  0  0  0
    2.6670   -0.6218    0.0000 C   0  0  0  0  0  0  0  0  0  0  0  0
    2.2545    0.0927    0.0000 C   0  0  0  0  0  0  0  0  0  0  0  0
    7.2492   -1.3621    0.0000 C   0  0  0  0  0  0  0  0  0  0  0  0
    5.8363   -2.2057    0.0000 C   0  0  0  0  0  0  0  0  0  0  0  0
    6.5964   -2.5968    0.0000 C   0  0  0  0  0  0  0  0  0  0  0  0
    5.3701    1.2821    0.0000 H   0  0  0  0  0  0  0  0  0  0  0  0
  1  8  1  0  0  0  0
  1 21  1  0  0  0  0
  2  9  1  0  0  0  0
  2 28  1  0  0  0  0
  3 19  1  0  0  0  0
  4 26  1  0  0  0  0
  5 10  1  0  0  0  0
  5 18  1  0  0  0  0
  5 23  1  0  0  0  0
  6  7  1  0  0  0  0
  6  8  1  0  0  0  0
  6 13  1  1  0  0  0
  6 14  1  0  0  0  0
  7 10  1  0  0  0  0
  7 11  1  1  0  0  0
  7 15  1  0  0  0  0
  8  9  1  0  0  0  0
  9 12  1  0  0  0  0
  9 17  1  0  0  0  0
 10 16  1  0  0  0  0
 10 31  1  6  0  0  0
 11 12  1  0  0  0  0
 12 19  1  0  0  0  0
 13 18  1  0  0  0  0
 14 20  2  0  0  0  0
 14 21  1  0  0  0  0
 15 17  2  0  0  0  0
 16 20  1  0  0  0  0
 19 22  1  0  0  0  0
 19 25  1  0  0  0  0
 20 24  1  0  0  0  0
 21 26  2  0  0  0  0
 22 29  1  0  0  0  0
 24 27  2  0  0  0  0
 26 27  1  0  0  0  0
 29 30  1  0  0  0  0
M  END
>  <DRUGBANK_ID>
DB01497

>  <DRUG_GROUPS>
illicit; experimental

>  <GENERIC_NAME>
Etorphine

>  <SYNONYMS>
19-Propylorvinol; 7-alpha-Etorphine; DEA No. 9056; Etorphine HCl; Etorphine Hydrochloride; Etorphinum [INN-Latin]; M99

>  <BRANDS>
Immobilon

>  <CHEMICAL_FORMULA>
C25H33NO4

>  <MOLECULAR_WEIGHT>
411.5338

>  <EXACT_MASS>
411.240958549

>  <IUPAC_NAME>
(1R,2R,6S)-19-(2-hydroxypentan-2-yl)-15-methoxy-3-methyl-13-oxa-3-azahexacyclo[13.2.2.1^{2,8}.0^{1,6}.0^{6,14}.0^{7,12}]icosa-7,9,11,16-tetraen-11-ol

>  <INCHI_IDENTIFIER>
InChI=1S/C25H33NO4/c1-5-8-22(2,28)17-14-23-9-10-25(17,29-4)21-24(23)11-12-26(3)18(23)13-15-6-7-16(27)20(30-21)19(15)24/h6-7,9-10,17-18,21,27-28H,5,8,11-14H2,1-4H3/t17?,18-,21?,22?,23-,24+,25?/m1/s1

>  <INCHI_KEY>
InChIKey=CAHCBJPUTCKATP-HBDRVVKHSA-N

>  <SMILES>
[H][C@]12CC3=C4C(OC5[C@@]4(CCN1C)[C@]21CC(C(C)(O)CCC)C5(OC)C=C1)=C(O)C=C3

>  <JCHEM_ACCEPTOR_COUNT>
5

>  <JCHEM_DONOR_COUNT>
2

>  <JCHEM_ACIDIC_PKA>
7.48

>  <JCHEM_BASIC_PKA>
11.72

>  <JCHEM_PHYSIOLOGICAL_CHARGE>
1

>  <ALOGPS_LOGP>
3.29

>  <JCHEM_LOGP>
2.47

>  <ALOGPS_LOGS>
-3.6

>  <JCHEM_POLARIZABILITY>
45.55

>  <JCHEM_POLAR_SURFACE_AREA>
62.16

>  <JCHEM_REFRACTIVITY>
116.51

>  <JCHEM_ROTATABLE_BOND_COUNT>
4

>  <ALOGPS_SOLUBILITY>
1.12e-01 g/l __

$$$$
DB01498
 OpenBabel03171413512D

 23 24  0  0  1  0  0  0  0  0999 V2000
    5.8950    0.7144    0.0000 O   0  0  0  0  0  0  0  0  0  0  0  0
    2.4253    0.2482    0.0000 N   0  0  0  0  0  0  0  0  0  0  0  0
    4.6575    0.0000    0.0000 C   0  0  0  0  0  0  0  0  0  0  0  0
    3.8325    0.0000    0.0000 C   0  0  0  0  0  0  0  0  0  0  0  0
    5.4825    0.0000    0.0000 C   0  0  1  0  0  0  0  0  0  0  0  0
    3.0572   -0.2822    0.0000 C   0  0  1  0  0  0  0  0  0  0  0  0
    4.6575    0.8250    0.0000 C   0  0  0  0  0  0  0  0  0  0  0  0
    4.6575   -0.8250    0.0000 C   0  0  0  0  0  0  0  0  0  0  0  0
    5.8950   -0.7144    0.0000 C   0  0  0  0  0  0  0  0  0  0  0  0
    2.9141   -1.0947    0.0000 C   0  0  0  0  0  0  0  0  0  0  0  0
    3.9430    1.2375    0.0000 C   0  0  0  0  0  0  0  0  0  0  0  0
    5.3720   -1.2375    0.0000 C   0  0  0  0  0  0  0  0  0  0  0  0
    5.3720    1.2375    0.0000 C   0  0  0  0  0  0  0  0  0  0  0  0
    3.9430   -1.2375    0.0000 C   0  0  0  0  0  0  0  0  0  0  0  0
    6.7200   -0.7144    0.0000 C   0  0  0  0  0  0  0  0  0  0  0  0
    1.6500   -0.0340    0.0000 C   0  0  0  0  0  0  0  0  0  0  0  0
    2.5686    1.0607    0.0000 C   0  0  0  0  0  0  0  0  0  0  0  0
    3.9430    2.0625    0.0000 C   0  0  0  0  0  0  0  0  0  0  0  0
    5.3720   -2.0625    0.0000 C   0  0  0  0  0  0  0  0  0  0  0  0
    5.3720    2.0625    0.0000 C   0  0  0  0  0  0  0  0  0  0  0  0
    3.9430   -2.0625    0.0000 C   0  0  0  0  0  0  0  0  0  0  0  0
    4.6575    2.4750    0.0000 C   0  0  0  0  0  0  0  0  0  0  0  0
    4.6575   -2.4750    0.0000 C   0  0  0  0  0  0  0  0  0  0  0  0
  2 16  1  0  0  0  0
  2 17  1  0  0  0  0
  3  4  1  0  0  0  0
  3  5  1  0  0  0  0
  3  7  1  0  0  0  0
  3  8  1  0  0  0  0
  4  6  1  0  0  0  0
  5  1  1  6  0  0  0
  5  9  1  0  0  0  0
  6  2  1  1  0  0  0
  6 10  1  0  0  0  0
  7 11  2  0  0  0  0
  7 13  1  0  0  0  0
  8 12  2  0  0  0  0
  8 14  1  0  0  0  0
  9 15  1  0  0  0  0
 11 18  1  0  0  0  0
 12 19  1  0  0  0  0
 13 20  2  0  0  0  0
 14 21  2  0  0  0  0
 18 22  2  0  0  0  0
 19 23  2  0  0  0  0
 20 22  1  0  0  0  0
 21 23  1  0  0  0  0
M  END
>  <DRUGBANK_ID>
DB01498

>  <DRUG_GROUPS>
illicit; experimental

>  <GENERIC_NAME>
Alphamethadol

>  <CHEMICAL_FORMULA>
C21H29NO

>  <MOLECULAR_WEIGHT>
311.4611

>  <EXACT_MASS>
311.224914555

>  <IUPAC_NAME>
(3R,6R)-6-(dimethylamino)-4,4-diphenylheptan-3-ol

>  <INCHI_IDENTIFIER>
InChI=1S/C21H29NO/c1-5-20(23)21(16-17(2)22(3)4,18-12-8-6-9-13-18)19-14-10-7-11-15-19/h6-15,17,20,23H,5,16H2,1-4H3/t17-,20-/m1/s1

>  <INCHI_KEY>
InChIKey=QIRAYNIFEOXSPW-YLJYHZDGSA-N

>  <SMILES>
CC[C@@H](O)C(C[C@@H](C)N(C)C)(C1=CC=CC=C1)C1=CC=CC=C1

>  <JCHEM_ACCEPTOR_COUNT>
2

>  <JCHEM_DONOR_COUNT>
1

>  <JCHEM_ACIDIC_PKA>
14.52

>  <JCHEM_BASIC_PKA>
9.57

>  <JCHEM_PHYSIOLOGICAL_CHARGE>
1

>  <ALOGPS_LOGP>
4.21

>  <JCHEM_LOGP>
4.44

>  <ALOGPS_LOGS>
-4.4

>  <JCHEM_POLARIZABILITY>
36.88

>  <JCHEM_POLAR_SURFACE_AREA>
23.47

>  <JCHEM_REFRACTIVITY>
108.71

>  <JCHEM_ROTATABLE_BOND_COUNT>
7

>  <ALOGPS_SOLUBILITY>
1.28e-02 g/l __

$$$$
DB01499
 OpenBabel03171413512D

 20 21  0  0  1  0  0  0  0  0999 V2000
    3.0573    0.6582    0.0000 O   0  0  0  0  0  0  0  0  0  0  0  0
    1.6500    0.9064    0.0000 O   0  0  0  0  0  0  0  0  0  0  0  0
    3.4698   -1.7063    0.0000 N   0  0  0  0  0  0  0  0  0  0  0  0
    3.4698   -0.0563    0.0000 C   0  0  1  0  0  0  0  0  0  0  0  0
    2.7553   -0.4688    0.0000 C   0  0  2  0  0  0  0  0  0  0  0  0
    4.1843   -0.4688    0.0000 C   0  0  0  0  0  0  0  0  0  0  0  0
    2.7553   -1.2938    0.0000 C   0  0  0  0  0  0  0  0  0  0  0  0
    4.1843   -1.2938    0.0000 C   0  0  0  0  0  0  0  0  0  0  0  0
    1.9428   -0.6121    0.0000 C   0  0  0  0  0  0  0  0  0  0  0  0
    3.8823    0.6582    0.0000 C   0  0  0  0  0  0  0  0  0  0  0  0
    3.4698   -2.5313    0.0000 C   0  0  0  0  0  0  0  0  0  0  0  0
    1.6606   -1.3873    0.0000 C   0  0  0  0  0  0  0  0  0  0  0  0
    3.4698    1.3727    0.0000 C   0  0  0  0  0  0  0  0  0  0  0  0
    4.7073    0.6582    0.0000 C   0  0  0  0  0  0  0  0  0  0  0  0
    2.4254    1.1886    0.0000 C   0  0  0  0  0  0  0  0  0  0  0  0
    3.8823    2.0872    0.0000 C   0  0  0  0  0  0  0  0  0  0  0  0
    5.1198    1.3727    0.0000 C   0  0  0  0  0  0  0  0  0  0  0  0
    2.5685    2.0010    0.0000 C   0  0  0  0  0  0  0  0  0  0  0  0
    4.7073    2.0872    0.0000 C   0  0  0  0  0  0  0  0  0  0  0  0
    1.9366    2.5313    0.0000 C   0  0  0  0  0  0  0  0  0  0  0  0
  1 15  1  0  0  0  0
  2 15  2  0  0  0  0
  3  7  1  0  0  0  0
  3  8  1  0  0  0  0
  3 11  1  0  0  0  0
  4  1  1  6  0  0  0
  4  5  1  0  0  0  0
  4  6  1  0  0  0  0
  4 10  1  0  0  0  0
  5  7  1  0  0  0  0
  5  9  1  6  0  0  0
  6  8  1  0  0  0  0
  9 12  1  0  0  0  0
 10 13  2  0  0  0  0
 10 14  1  0  0  0  0
 13 16  1  0  0  0  0
 14 17  2  0  0  0  0
 15 18  1  0  0  0  0
 16 19  2  0  0  0  0
 17 19  1  0  0  0  0
 18 20  1  0  0  0  0
M  END
>  <DRUGBANK_ID>
DB01499

>  <DRUG_GROUPS>
illicit; experimental

>  <GENERIC_NAME>
Alphameprodine

>  <CHEMICAL_FORMULA>
C17H25NO2

>  <MOLECULAR_WEIGHT>
275.3859

>  <EXACT_MASS>
275.188529049

>  <IUPAC_NAME>
(3S,4R)-3-ethyl-1-methyl-4-phenylpiperidin-4-yl propanoate

>  <INCHI_IDENTIFIER>
InChI=1S/C17H25NO2/c1-4-14-13-18(3)12-11-17(14,20-16(19)5-2)15-9-7-6-8-10-15/h6-10,14H,4-5,11-13H2,1-3H3/t14-,17+/m0/s1

>  <INCHI_KEY>
InChIKey=ODEGQXRCQDVXSJ-WMLDXEAASA-N

>  <SMILES>
CC[C@H]1CN(C)CC[C@]1(OC(=O)CC)C1=CC=CC=C1

>  <JCHEM_ACCEPTOR_COUNT>
2

>  <JCHEM_DONOR_COUNT>
0

>  <JCHEM_BASIC_PKA>
9.1

>  <JCHEM_PHYSIOLOGICAL_CHARGE>
1

>  <ALOGPS_LOGP>
3.46

>  <JCHEM_LOGP>
3.22

>  <ALOGPS_LOGS>
-3.1

>  <JCHEM_POLARIZABILITY>
31.7

>  <JCHEM_POLAR_SURFACE_AREA>
29.54

>  <JCHEM_REFRACTIVITY>
81.01

>  <JCHEM_ROTATABLE_BOND_COUNT>
5

>  <ALOGPS_SOLUBILITY>
2.11e-01 g/l __

$$$$
DB01500
 OpenBabel03171413512D

 24 27  0  0  1  0  0  0  0  0999 V2000
    7.1353    2.2840    0.0000 O   0  0  0  0  0  0  0  0  0  0  0  0
    3.1440   -2.1320    0.0000 O   0  0  0  0  0  0  0  0  0  0  0  0
    1.6498   -1.2693    0.0000 O   0  0  0  0  0  0  0  0  0  0  0  0
    6.0985    0.4236    0.0000 C   0  0  2  0  0  0  0  0  0  0  0  0
    6.0985    1.2485    0.0000 C   0  0  2  0  0  0  0  0  0  0  0  0
    5.3842    0.0112    0.0000 C   0  0  1  0  0  0  0  0  0  0  0  0
    4.6697    0.4236    0.0000 C   0  0  2  0  0  0  0  0  0  0  0  0
    5.3842    1.6610    0.0000 C   0  0  0  0  0  0  0  0  0  0  0  0
    6.8790    1.4999    0.0000 C   0  0  2  0  0  0  0  0  0  0  0  0
    4.6697    1.2485    0.0000 C   0  0  0  0  0  0  0  0  0  0  0  0
    6.8790    0.1723    0.0000 C   0  0  0  0  0  0  0  0  0  0  0  0
    3.9191    0.0055    0.0000 C   0  0  3  0  0  0  0  0  0  0  0  0
    5.3974   -0.8479    0.0000 C   0  0  0  0  0  0  0  0  0  0  0  0
    7.3604    0.8361    0.0000 C   0  0  0  0  0  0  0  0  0  0  0  0
    6.0985    2.0734    0.0000 C   0  0  0  0  0  0  0  0  0  0  0  0
    4.6566   -1.2833    0.0000 C   0  0  0  0  0  0  0  0  0  0  0  0
    3.9125   -0.8537    0.0000 C   0  0  0  0  0  0  0  0  0  0  0  0
    3.1546    0.4708    0.0000 C   0  0  0  0  0  0  0  0  0  0  0  0
    2.3726    0.0354    0.0000 C   0  0  0  0  0  0  0  0  0  0  0  0
    3.1409   -1.3071    0.0000 C   0  0  0  0  0  0  0  0  0  0  0  0
    2.3657   -0.8596    0.0000 C   0  0  0  0  0  0  0  0  0  0  0  0
    6.1683   -0.2326    0.0000 H   0  0  0  0  0  0  0  0  0  0  0  0
    5.9581   -0.3144    0.0000 H   0  0  0  0  0  0  0  0  0  0  0  0
    5.2413    0.7536    0.0000 H   0  0  0  0  0  0  0  0  0  0  0  0
  2 20  1  0  0  0  0
  3 21  2  0  0  0  0
  4  5  1  0  0  0  0
  4  6  1  0  0  0  0
  4 11  1  0  0  0  0
  4 22  1  6  0  0  0
  5  8  1  0  0  0  0
  5  9  1  0  0  0  0
  5 15  1  1  0  0  0
  6  7  1  0  0  0  0
  6 13  1  0  0  0  0
  6 23  1  1  0  0  0
  7 10  1  0  0  0  0
  7 12  1  0  0  0  0
  7 24  1  6  0  0  0
  8 10  1  0  0  0  0
  9  1  1  1  0  0  0
  9 14  1  0  0  0  0
 11 14  1  0  0  0  0
 12 17  1  0  0  0  0
 12 18  1  0  0  0  0
 13 16  1  0  0  0  0
 16 17  1  0  0  0  0
 17 20  2  0  0  0  0
 18 19  1  0  0  0  0
 19 21  1  0  0  0  0
 20 21  1  0  0  0  0
M  END
>  <DRUGBANK_ID>
DB01500

>  <DRUG_GROUPS>
illicit; experimental

>  <GENERIC_NAME>
4-Hydroxy-19-nortestosterone

>  <CHEMICAL_FORMULA>
C18H26O3

>  <MOLECULAR_WEIGHT>
290.3972

>  <EXACT_MASS>
290.188194698

>  <IUPAC_NAME>
(1S,10R,11S,14S,15S)-6,14-dihydroxy-15-methyltetracyclo[8.7.0.0^{2,7}.0^{11,15}]heptadec-6-en-5-one

>  <INCHI_IDENTIFIER>
InChI=1S/C18H26O3/c1-18-9-8-11-10-4-6-15(19)17(21)13(10)3-2-12(11)14(18)5-7-16(18)20/h10-12,14,16,20-21H,2-9H2,1H3/t10?,11-,12-,14+,16+,18+/m1/s1

>  <INCHI_KEY>
InChIKey=GXHBCWCMYVTJOW-FHUHANJTSA-N

>  <SMILES>
[H][C@@]12CC[C@H](O)[C@@]1(C)CC[C@]1([H])C3CCC(=O)C(O)=C3CC[C@@]21[H]

>  <JCHEM_ACCEPTOR_COUNT>
3

>  <JCHEM_DONOR_COUNT>
2

>  <JCHEM_ACIDIC_PKA>
9.3

>  <JCHEM_BASIC_PKA>
-0.88

>  <JCHEM_PHYSIOLOGICAL_CHARGE>
0

>  <ALOGPS_LOGP>
1.95

>  <JCHEM_LOGP>
2.55

>  <ALOGPS_LOGS>
-3.5

>  <JCHEM_POLARIZABILITY>
33.26

>  <JCHEM_POLAR_SURFACE_AREA>
57.53

>  <JCHEM_REFRACTIVITY>
81.92

>  <JCHEM_ROTATABLE_BOND_COUNT>
0

>  <ALOGPS_SOLUBILITY>
8.83e-02 g/l __

$$$$
DB01501
 OpenBabel03171413512D

 32 35  0  0  0  0  0  0  0  0999 V2000
    3.6020    2.8717    0.0000 O   0  0  0  0  0  0  0  0  0  0  0  0
    4.5704    3.6842    0.0000 O   0  0  0  0  0  0  0  0  0  0  0  0
    4.8396    0.5072    0.0000 N   0  0  0  0  0  0  0  0  0  0  0  0
    5.7751   -1.5553    0.0000 N   0  0  0  0  0  0  0  0  0  0  0  0
    4.8396    2.1573    0.0000 C   0  0  0  0  0  0  0  0  0  0  0  0
    5.5541    1.7447    0.0000 C   0  0  0  0  0  0  0  0  0  0  0  0
    4.1251    1.7447    0.0000 C   0  0  0  0  0  0  0  0  0  0  0  0
    5.5541    0.9197    0.0000 C   0  0  0  0  0  0  0  0  0  0  0  0
    4.1251    0.9197    0.0000 C   0  0  0  0  0  0  0  0  0  0  0  0
    4.8396   -0.3178    0.0000 C   0  0  0  0  0  0  0  0  0  0  0  0
    5.4716    2.6876    0.0000 C   0  0  0  0  0  0  0  0  0  0  0  0
    4.1251   -0.7303    0.0000 C   0  0  0  0  0  0  0  0  0  0  0  0
    4.4270    2.8717    0.0000 C   0  0  0  0  0  0  0  0  0  0  0  0
    4.1251   -1.5553    0.0000 C   0  0  0  0  0  0  0  0  0  0  0  0
    5.3283    3.5001    0.0000 C   0  0  0  0  0  0  0  0  0  0  0  0
    6.2469    2.4054    0.0000 C   0  0  0  0  0  0  0  0  0  0  0  0
    4.1251   -2.3803    0.0000 C   0  0  0  0  0  0  0  0  0  0  0  0
    3.3001   -1.5553    0.0000 C   0  0  0  0  0  0  0  0  0  0  0  0
    5.9603    4.0304    0.0000 C   0  0  0  0  0  0  0  0  0  0  0  0
    6.8788    2.9357    0.0000 C   0  0  0  0  0  0  0  0  0  0  0  0
    4.9501   -1.5553    0.0000 C   0  0  0  0  0  0  0  0  0  0  0  0
    6.7356    3.7482    0.0000 C   0  0  0  0  0  0  0  0  0  0  0  0
    4.8396   -2.7929    0.0000 C   0  0  0  0  0  0  0  0  0  0  0  0
    2.8876   -2.2698    0.0000 C   0  0  0  0  0  0  0  0  0  0  0  0
    3.4106   -2.7929    0.0000 C   0  0  0  0  0  0  0  0  0  0  0  0
    2.8876   -0.8409    0.0000 C   0  0  0  0  0  0  0  0  0  0  0  0
    4.8396   -3.6179    0.0000 C   0  0  0  0  0  0  0  0  0  0  0  0
    2.0625   -2.2698    0.0000 C   0  0  0  0  0  0  0  0  0  0  0  0
    3.4106   -3.6179    0.0000 C   0  0  0  0  0  0  0  0  0  0  0  0
    2.0625   -0.8409    0.0000 C   0  0  0  0  0  0  0  0  0  0  0  0
    4.1251   -4.0304    0.0000 C   0  0  0  0  0  0  0  0  0  0  0  0
    1.6500   -1.5553    0.0000 C   0  0  0  0  0  0  0  0  0  0  0  0
  1 13  1  0  0  0  0
  2 13  2  0  0  0  0
  3  8  1  0  0  0  0
  3  9  1  0  0  0  0
  3 10  1  0  0  0  0
  4 21  3  0  0  0  0
  5  6  1  0  0  0  0
  5  7  1  0  0  0  0
  5 11  1  0  0  0  0
  5 13  1  0  0  0  0
  6  8  1  0  0  0  0
  7  9  1  0  0  0  0
 10 12  1  0  0  0  0
 11 15  2  0  0  0  0
 11 16  1  0  0  0  0
 12 14  1  0  0  0  0
 14 17  1  0  0  0  0
 14 18  1  0  0  0  0
 14 21  1  0  0  0  0
 15 19  1  0  0  0  0
 16 20  2  0  0  0  0
 17 23  2  0  0  0  0
 17 25  1  0  0  0  0
 18 24  2  0  0  0  0
 18 26  1  0  0  0  0
 19 22  2  0  0  0  0
 20 22  1  0  0  0  0
 23 27  1  0  0  0  0
 24 28  1  0  0  0  0
 25 29  2  0  0  0  0
 26 30  2  0  0  0  0
 27 31  2  0  0  0  0
 28 32  2  0  0  0  0
 29 31  1  0  0  0  0
 30 32  1  0  0  0  0
M  END
>  <DRUGBANK_ID>
DB01501

>  <DRUG_GROUPS>
illicit; experimental

>  <GENERIC_NAME>
Difenoxin

>  <CHEMICAL_FORMULA>
C28H28N2O2

>  <MOLECULAR_WEIGHT>
424.5341

>  <EXACT_MASS>
424.21507815

>  <IUPAC_NAME>
1-(3-cyano-3,3-diphenylpropyl)-4-phenylpiperidine-4-carboxylic acid

>  <INCHI_IDENTIFIER>
InChI=1S/C28H28N2O2/c29-22-28(24-12-6-2-7-13-24,25-14-8-3-9-15-25)18-21-30-19-16-27(17-20-30,26(31)32)23-10-4-1-5-11-23/h1-15H,16-21H2,(H,31,32)

>  <INCHI_KEY>
InChIKey=UFIVBRCCIRTJTN-UHFFFAOYSA-N

>  <SMILES>
OC(=O)C1(CCN(CCC(C#N)(C2=CC=CC=C2)C2=CC=CC=C2)CC1)C1=CC=CC=C1

>  <JCHEM_ACCEPTOR_COUNT>
4

>  <JCHEM_DONOR_COUNT>
1

>  <JCHEM_ACIDIC_PKA>
3.38

>  <JCHEM_BASIC_PKA>
9.41

>  <JCHEM_PHYSIOLOGICAL_CHARGE>
0

>  <ALOGPS_LOGP>
4.39

>  <JCHEM_LOGP>
2.65

>  <ALOGPS_LOGS>
-5.3

>  <JCHEM_POLARIZABILITY>
47.56

>  <JCHEM_POLAR_SURFACE_AREA>
64.33

>  <JCHEM_REFRACTIVITY>
137.24

>  <JCHEM_ROTATABLE_BOND_COUNT>
7

>  <ALOGPS_SOLUBILITY>
2.08e-03 g/l __

$$$$
DB01502
 OpenBabel03171413512D

 24 25  0  0  1  0  0  0  0  0999 V2000
    5.9370   -1.4438    0.0000 O   0  0  0  0  0  0  0  0  0  0  0  0
    3.0791    0.2063    0.0000 N   0  0  0  0  0  0  0  0  0  0  0  0
    4.5080   -1.4438    0.0000 N   0  0  0  0  0  0  0  0  0  0  0  0
    3.7935   -0.2063    0.0000 C   0  0  3  0  0  0  0  0  0  0  0  0
    3.7935   -1.0313    0.0000 C   0  0  0  0  0  0  0  0  0  0  0  0
    3.0791    1.0313    0.0000 C   0  0  0  0  0  0  0  0  0  0  0  0
    4.5080    0.2063    0.0000 C   0  0  0  0  0  0  0  0  0  0  0  0
    2.3645    1.4438    0.0000 C   0  0  0  0  0  0  0  0  0  0  0  0
    2.3645   -0.2063    0.0000 C   0  0  0  0  0  0  0  0  0  0  0  0
    4.5080   -2.2688    0.0000 C   0  0  0  0  0  0  0  0  0  0  0  0
    2.3645    2.2688    0.0000 C   0  0  0  0  0  0  0  0  0  0  0  0
    5.2224   -1.0313    0.0000 C   0  0  0  0  0  0  0  0  0  0  0  0
    5.2224   -0.2063    0.0000 C   0  0  0  0  0  0  0  0  0  0  0  0
    5.2224   -2.6813    0.0000 C   0  0  0  0  0  0  0  0  0  0  0  0
    3.7935   -2.6813    0.0000 C   0  0  0  0  0  0  0  0  0  0  0  0
    1.6500    2.6813    0.0000 C   0  0  0  0  0  0  0  0  0  0  0  0
    3.0791    2.6813    0.0000 C   0  0  0  0  0  0  0  0  0  0  0  0
    5.9370    0.2063    0.0000 C   0  0  0  0  0  0  0  0  0  0  0  0
    5.2224   -3.5063    0.0000 C   0  0  0  0  0  0  0  0  0  0  0  0
    3.7935   -3.5063    0.0000 C   0  0  0  0  0  0  0  0  0  0  0  0
    1.6500    3.5063    0.0000 C   0  0  0  0  0  0  0  0  0  0  0  0
    3.0791    3.5063    0.0000 C   0  0  0  0  0  0  0  0  0  0  0  0
    4.5080   -3.9188    0.0000 C   0  0  0  0  0  0  0  0  0  0  0  0
    2.3645    3.9188    0.0000 C   0  0  0  0  0  0  0  0  0  0  0  0
  1 12  2  0  0  0  0
  2  4  1  0  0  0  0
  2  6  1  0  0  0  0
  2  9  1  0  0  0  0
  3  5  1  0  0  0  0
  3 10  1  0  0  0  0
  3 12  1  0  0  0  0
  4  5  1  0  0  0  0
  4  7  1  0  0  0  0
  6  8  1  0  0  0  0
  8 11  1  0  0  0  0
 10 14  2  0  0  0  0
 10 15  1  0  0  0  0
 11 16  2  0  0  0  0
 11 17  1  0  0  0  0
 12 13  1  0  0  0  0
 13 18  1  0  0  0  0
 14 19  1  0  0  0  0
 15 20  2  0  0  0  0
 16 21  1  0  0  0  0
 17 22  2  0  0  0  0
 19 23  2  0  0  0  0
 20 23  1  0  0  0  0
 21 24  2  0  0  0  0
 22 24  1  0  0  0  0
M  END
>  <DRUGBANK_ID>
DB01502

>  <DRUG_GROUPS>
illicit; experimental

>  <GENERIC_NAME>
Diampromide

>  <CHEMICAL_FORMULA>
C21H28N2O

>  <MOLECULAR_WEIGHT>
324.4598

>  <EXACT_MASS>
324.220163528

>  <IUPAC_NAME>
N-{2-[methyl(2-phenylethyl)amino]propyl}-N-phenylpropanamide

>  <INCHI_IDENTIFIER>
InChI=1S/C21H28N2O/c1-4-21(24)23(20-13-9-6-10-14-20)17-18(2)22(3)16-15-19-11-7-5-8-12-19/h5-14,18H,4,15-17H2,1-3H3

>  <INCHI_KEY>
InChIKey=RXTHKWVSXOIHJS-UHFFFAOYSA-N

>  <SMILES>
CCC(=O)N(CC(C)N(C)CCC1=CC=CC=C1)C1=CC=CC=C1

>  <JCHEM_ACCEPTOR_COUNT>
2

>  <JCHEM_DONOR_COUNT>
0

>  <JCHEM_BASIC_PKA>
8.74

>  <JCHEM_PHYSIOLOGICAL_CHARGE>
1

>  <ALOGPS_LOGP>
3.95

>  <JCHEM_LOGP>
4.22

>  <ALOGPS_LOGS>
-4.1

>  <JCHEM_POLARIZABILITY>
38.34

>  <JCHEM_POLAR_SURFACE_AREA>
23.55

>  <JCHEM_REFRACTIVITY>
100.47

>  <JCHEM_ROTATABLE_BOND_COUNT>
8

>  <ALOGPS_SOLUBILITY>
2.76e-02 g/l __

$$$$
DB01505
 OpenBabel03171413512D

 23 24  0  0  0  0  0  0  0  0999 V2000
    2.8876    2.7150    0.0000 O   0  0  0  0  0  0  0  0  0  0  0  0
    3.8558    3.5274    0.0000 O   0  0  0  0  0  0  0  0  0  0  0  0
    3.4106   -1.7121    0.0000 O   0  0  0  0  0  0  0  0  0  0  0  0
    1.9816   -3.3621    0.0000 O   0  0  0  0  0  0  0  0  0  0  0  0
    4.1251    0.3505    0.0000 N   0  0  0  0  0  0  0  0  0  0  0  0
    4.1251    2.0005    0.0000 C   0  0  0  0  0  0  0  0  0  0  0  0
    4.8396    1.5880    0.0000 C   0  0  0  0  0  0  0  0  0  0  0  0
    3.4106    1.5880    0.0000 C   0  0  0  0  0  0  0  0  0  0  0  0
    4.8396    0.7630    0.0000 C   0  0  0  0  0  0  0  0  0  0  0  0
    3.4106    0.7630    0.0000 C   0  0  0  0  0  0  0  0  0  0  0  0
    4.7571    2.5308    0.0000 C   0  0  0  0  0  0  0  0  0  0  0  0
    3.7126    2.7150    0.0000 C   0  0  0  0  0  0  0  0  0  0  0  0
    4.1251   -0.4746    0.0000 C   0  0  0  0  0  0  0  0  0  0  0  0
    4.6138    3.3433    0.0000 C   0  0  0  0  0  0  0  0  0  0  0  0
    5.5323    2.2487    0.0000 C   0  0  0  0  0  0  0  0  0  0  0  0
    3.4106   -0.8871    0.0000 C   0  0  0  0  0  0  0  0  0  0  0  0
    5.2458    3.8736    0.0000 C   0  0  0  0  0  0  0  0  0  0  0  0
    6.1644    2.7790    0.0000 C   0  0  0  0  0  0  0  0  0  0  0  0
    6.0211    3.5915    0.0000 C   0  0  0  0  0  0  0  0  0  0  0  0
    2.4751    3.4295    0.0000 C   0  0  0  0  0  0  0  0  0  0  0  0
    2.6961   -2.1246    0.0000 C   0  0  0  0  0  0  0  0  0  0  0  0
    1.6500    3.4295    0.0000 C   0  0  0  0  0  0  0  0  0  0  0  0
    2.6961   -2.9496    0.0000 C   0  0  0  0  0  0  0  0  0  0  0  0
  1 12  1  0  0  0  0
  1 20  1  0  0  0  0
  2 12  2  0  0  0  0
  3 16  1  0  0  0  0
  3 21  1  0  0  0  0
  4 23  1  0  0  0  0
  5  9  1  0  0  0  0
  5 10  1  0  0  0  0
  5 13  1  0  0  0  0
  6  7  1  0  0  0  0
  6  8  1  0  0  0  0
  6 11  1  0  0  0  0
  6 12  1  0  0  0  0
  7  9  1  0  0  0  0
  8 10  1  0  0  0  0
 11 14  2  0  0  0  0
 11 15  1  0  0  0  0
 13 16  1  0  0  0  0
 14 17  1  0  0  0  0
 15 18  2  0  0  0  0
 17 19  2  0  0  0  0
 18 19  1  0  0  0  0
 20 22  1  0  0  0  0
 21 23  1  0  0  0  0
M  END
>  <DRUGBANK_ID>
DB01505

>  <DRUG_GROUPS>
illicit; experimental

>  <GENERIC_NAME>
Etoxeridine

>  <CHEMICAL_FORMULA>
C18H27NO4

>  <MOLECULAR_WEIGHT>
321.4113

>  <EXACT_MASS>
321.194008357

>  <IUPAC_NAME>
ethyl 1-[2-(2-hydroxyethoxy)ethyl]-4-phenylpiperidine-4-carboxylate

>  <INCHI_IDENTIFIER>
InChI=1S/C18H27NO4/c1-2-23-17(21)18(16-6-4-3-5-7-16)8-10-19(11-9-18)12-14-22-15-13-20/h3-7,20H,2,8-15H2,1H3

>  <INCHI_KEY>
InChIKey=KJTKYGFGPQSRRA-UHFFFAOYSA-N

>  <SMILES>
CCOC(=O)C1(CCN(CCOCCO)CC1)C1=CC=CC=C1

>  <JCHEM_ACCEPTOR_COUNT>
4

>  <JCHEM_DONOR_COUNT>
1

>  <JCHEM_ACIDIC_PKA>
15.12

>  <JCHEM_BASIC_PKA>
8.02

>  <JCHEM_PHYSIOLOGICAL_CHARGE>
1

>  <ALOGPS_LOGP>
2

>  <JCHEM_LOGP>
1.72

>  <ALOGPS_LOGS>
-2.4

>  <JCHEM_POLARIZABILITY>
36.24

>  <JCHEM_POLAR_SURFACE_AREA>
59

>  <JCHEM_REFRACTIVITY>
89.82

>  <JCHEM_ROTATABLE_BOND_COUNT>
9

>  <ALOGPS_SOLUBILITY>
1.37e+00 g/l __

$$$$
DB01506
 OpenBabel03171413512D

 13 14  0  0  0  0  0  0  0  0999 V2000
    2.1615    0.7145    0.0000 N   0  0  0  0  0  0  0  0  0  0  0  0
    2.5741    0.0000    0.0000 C   0  0  0  0  0  0  0  0  0  0  0  0
    3.2885   -0.4125    0.0000 C   0  0  0  0  0  0  0  0  0  0  0  0
    1.8596   -0.4125    0.0000 C   0  0  0  0  0  0  0  0  0  0  0  0
    3.2885   -1.2375    0.0000 C   0  0  0  0  0  0  0  0  0  0  0  0
    1.8596   -1.2375    0.0000 C   0  0  0  0  0  0  0  0  0  0  0  0
    2.5741   -1.6500    0.0000 C   0  0  0  0  0  0  0  0  0  0  0  0
    3.2885    0.4125    0.0000 C   0  0  0  0  0  0  0  0  0  0  0  0
    4.0031    0.0000    0.0000 C   0  0  0  0  0  0  0  0  0  0  0  0
    3.2885    1.2375    0.0000 C   0  0  0  0  0  0  0  0  0  0  0  0
    4.7175    0.4125    0.0000 C   0  0  0  0  0  0  0  0  0  0  0  0
    4.0031    1.6500    0.0000 C   0  0  0  0  0  0  0  0  0  0  0  0
    4.7175    1.2375    0.0000 C   0  0  0  0  0  0  0  0  0  0  0  0
  1  2  1  0  0  0  0
  2  3  1  0  0  0  0
  2  4  1  0  0  0  0
  2  8  1  0  0  0  0
  3  5  1  0  0  0  0
  4  6  1  0  0  0  0
  5  7  1  0  0  0  0
  6  7  1  0  0  0  0
  8  9  2  0  0  0  0
  8 10  1  0  0  0  0
  9 11  1  0  0  0  0
 10 12  2  0  0  0  0
 11 13  2  0  0  0  0
 12 13  1  0  0  0  0
M  END
>  <DRUGBANK_ID>
DB01506

>  <DRUG_GROUPS>
illicit; experimental

>  <GENERIC_NAME>
1-Phenylcyclohexylamine

>  <CHEMICAL_FORMULA>
C12H17N

>  <MOLECULAR_WEIGHT>
175.2701

>  <EXACT_MASS>
175.136099549

>  <IUPAC_NAME>
1-phenylcyclohexan-1-amine

>  <INCHI_IDENTIFIER>
InChI=1S/C12H17N/c13-12(9-5-2-6-10-12)11-7-3-1-4-8-11/h1,3-4,7-8H,2,5-6,9-10,13H2

>  <INCHI_KEY>
InChIKey=RGZGRPPQZUQUCR-UHFFFAOYSA-N

>  <SMILES>
NC1(CCCCC1)C1=CC=CC=C1

>  <JCHEM_ACCEPTOR_COUNT>
1

>  <JCHEM_DONOR_COUNT>
1

>  <JCHEM_BASIC_PKA>
10.05

>  <JCHEM_PHYSIOLOGICAL_CHARGE>
1

>  <ALOGPS_LOGP>
2.87

>  <JCHEM_LOGP>
2.82

>  <ALOGPS_LOGS>
-3.5

>  <JCHEM_POLARIZABILITY>
20.69

>  <JCHEM_POLAR_SURFACE_AREA>
26.02

>  <JCHEM_REFRACTIVITY>
55.44

>  <JCHEM_ROTATABLE_BOND_COUNT>
1

>  <ALOGPS_SOLUBILITY>
5.73e-02 g/l __

$$$$
DB01509
 OpenBabel03171413512D

 13 14  0  0  1  0  0  0  0  0999 V2000
    6.4461    0.4081    0.0000 O   0  0  0  0  0  0  0  0  0  0  0  0
    6.4461   -0.9196    0.0000 O   0  0  0  0  0  0  0  0  0  0  0  0
    2.0930    0.5693    0.0000 N   0  0  0  0  0  0  0  0  0  0  0  0
    3.5220    0.5693    0.0000 C   0  0  0  0  0  0  0  0  0  0  0  0
    2.8075    0.1568    0.0000 C   0  0  3  0  0  0  0  0  0  0  0  0
    4.2365    0.1568    0.0000 C   0  0  0  0  0  0  0  0  0  0  0  0
    4.9509    0.5693    0.0000 C   0  0  0  0  0  0  0  0  0  0  0  0
    5.6655    0.1568    0.0000 C   0  0  0  0  0  0  0  0  0  0  0  0
    4.2365   -0.6683    0.0000 C   0  0  0  0  0  0  0  0  0  0  0  0
    5.6655   -0.6683    0.0000 C   0  0  0  0  0  0  0  0  0  0  0  0
    2.8075   -0.6683    0.0000 C   0  0  0  0  0  0  0  0  0  0  0  0
    4.9509   -1.0808    0.0000 C   0  0  0  0  0  0  0  0  0  0  0  0
    6.9276   -0.2558    0.0000 C   0  0  0  0  0  0  0  0  0  0  0  0
  1  8  1  0  0  0  0
  1 13  1  0  0  0  0
  2 10  1  0  0  0  0
  2 13  1  0  0  0  0
  3  5  1  0  0  0  0
  4  5  1  0  0  0  0
  4  6  1  0  0  0  0
  5 11  1  0  0  0  0
  6  7  2  0  0  0  0
  6  9  1  0  0  0  0
  7  8  1  0  0  0  0
  8 10  2  0  0  0  0
  9 12  2  0  0  0  0
 10 12  1  0  0  0  0
M  END
>  <DRUGBANK_ID>
DB01509

>  <DRUG_GROUPS>
illicit; experimental

>  <GENERIC_NAME>
3,4-Methylenedioxyamphetamine

>  <SYNONYMS>
Tenamfetamine

>  <CHEMICAL_FORMULA>
C10H13NO2

>  <MOLECULAR_WEIGHT>
179.2157

>  <EXACT_MASS>
179.094628665

>  <IUPAC_NAME>
1-(2H-1,3-benzodioxol-5-yl)propan-2-amine

>  <INCHI_IDENTIFIER>
InChI=1S/C10H13NO2/c1-7(11)4-8-2-3-9-10(5-8)13-6-12-9/h2-3,5,7H,4,6,11H2,1H3

>  <INCHI_KEY>
InChIKey=NGBBVGZWCFBOGO-UHFFFAOYSA-N

>  <SMILES>
CC(N)CC1=CC2=C(OCO2)C=C1

>  <JCHEM_ACCEPTOR_COUNT>
3

>  <JCHEM_DONOR_COUNT>
1

>  <JCHEM_BASIC_PKA>
10.01

>  <JCHEM_PHYSIOLOGICAL_CHARGE>
1

>  <ALOGPS_LOGP>
1.15

>  <JCHEM_LOGP>
1.43

>  <ALOGPS_LOGS>
-1.8

>  <JCHEM_POLARIZABILITY>
19.51

>  <JCHEM_POLAR_SURFACE_AREA>
44.48

>  <JCHEM_REFRACTIVITY>
49.47

>  <JCHEM_ROTATABLE_BOND_COUNT>
2

>  <ALOGPS_SOLUBILITY>
2.83e+00 g/l __

$$$$
DB01511
 OpenBabel03171413512D

 20 22  0  0  0  0  0  0  0  0999 V2000
    2.5466   -2.3592    0.0000 Cl  0  0  0  0  0  0  0  0  0  0  0  0
    3.6079   -1.4649    0.0000 Cl  0  0  0  0  0  0  0  0  0  0  0  0
    2.3402    2.3592    0.0000 O   0  0  0  0  0  0  0  0  0  0  0  0
    2.1838    0.9709    0.0000 N   0  0  0  0  0  0  0  0  0  0  0  0
    4.0374    0.9709    0.0000 N   0  0  0  0  0  0  0  0  0  0  0  0
    3.1106   -0.1914    0.0000 C   0  0  0  0  0  0  0  0  0  0  0  0
    3.8539    0.1666    0.0000 C   0  0  0  0  0  0  0  0  0  0  0  0
    2.3673    0.1666    0.0000 C   0  0  0  0  0  0  0  0  0  0  0  0
    4.4988   -0.3478    0.0000 C   0  0  0  0  0  0  0  0  0  0  0  0
    3.1880   -1.0472    0.0000 C   0  0  0  0  0  0  0  0  0  0  0  0
    3.5230    1.6159    0.0000 C   0  0  0  0  0  0  0  0  0  0  0  0
    1.6499   -0.3065    0.0000 C   0  0  0  0  0  0  0  0  0  0  0  0
    2.6981    1.6159    0.0000 C   0  0  0  0  0  0  0  0  0  0  0  0
    2.4818   -1.5367    0.0000 C   0  0  0  0  0  0  0  0  0  0  0  0
    1.7075   -1.1639    0.0000 C   0  0  0  0  0  0  0  0  0  0  0  0
    4.3759   -1.1635    0.0000 C   0  0  0  0  0  0  0  0  0  0  0  0
    5.2668   -0.0464    0.0000 C   0  0  0  0  0  0  0  0  0  0  0  0
    5.0209   -1.6779    0.0000 C   0  0  0  0  0  0  0  0  0  0  0  0
    5.9118   -0.5607    0.0000 C   0  0  0  0  0  0  0  0  0  0  0  0
    5.7888   -1.3765    0.0000 C   0  0  0  0  0  0  0  0  0  0  0  0
  1 14  1  0  0  0  0
  2 16  1  0  0  0  0
  3 13  2  0  0  0  0
  4  8  1  0  0  0  0
  4 13  1  0  0  0  0
  5  7  2  0  0  0  0
  5 11  1  0  0  0  0
  6  7  1  0  0  0  0
  6  8  2  0  0  0  0
  6 10  1  0  0  0  0
  7  9  1  0  0  0  0
  8 12  1  0  0  0  0
  9 16  1  0  0  0  0
  9 17  2  0  0  0  0
 10 14  2  0  0  0  0
 11 13  1  0  0  0  0
 12 15  2  0  0  0  0
 14 15  1  0  0  0  0
 16 18  2  0  0  0  0
 17 19  1  0  0  0  0
 18 20  1  0  0  0  0
 19 20  2  0  0  0  0
M  END
>  <DRUGBANK_ID>
DB01511

>  <DRUG_GROUPS>
illicit; experimental

>  <GENERIC_NAME>
Delorazepam

>  <CHEMICAL_FORMULA>
C15H10Cl2N2O

>  <MOLECULAR_WEIGHT>
305.159

>  <EXACT_MASS>
304.017018366

>  <IUPAC_NAME>
7-chloro-5-(2-chlorophenyl)-2,3-dihydro-1H-1,4-benzodiazepin-2-one

>  <INCHI_IDENTIFIER>
InChI=1S/C15H10Cl2N2O/c16-9-5-6-13-11(7-9)15(18-8-14(20)19-13)10-3-1-2-4-12(10)17/h1-7H,8H2,(H,19,20)

>  <INCHI_KEY>
InChIKey=CHIFCDOIPRCHCF-UHFFFAOYSA-N

>  <SMILES>
ClC1=CC2=C(NC(=O)CN=C2C2=CC=CC=C2Cl)C=C1

>  <JCHEM_ACCEPTOR_COUNT>
2

>  <JCHEM_DONOR_COUNT>
1

>  <JCHEM_ACIDIC_PKA>
12.29

>  <JCHEM_BASIC_PKA>
2.05

>  <JCHEM_PHYSIOLOGICAL_CHARGE>
0

>  <ALOGPS_LOGP>
3.46

>  <JCHEM_LOGP>
3.82

>  <ALOGPS_LOGS>
-4.7

>  <JCHEM_POLARIZABILITY>
29.44

>  <JCHEM_POLAR_SURFACE_AREA>
41.46

>  <JCHEM_REFRACTIVITY>
81.5

>  <JCHEM_ROTATABLE_BOND_COUNT>
1

>  <ALOGPS_SOLUBILITY>
6.42e-03 g/l __

$$$$
DB01512
 OpenBabel03171413512D

 24 28  0  0  1  0  0  0  0  0999 V2000
    1.9356    0.0458    0.0000 O   0  0  0  0  0  0  0  0  0  0  0  0
    4.4727   -1.4895    0.0000 O   0  0  0  0  0  0  0  0  0  0  0  0
    1.7349   -2.0838    0.0000 O   0  0  0  0  0  0  0  0  0  0  0  0
    1.7349    2.0838    0.0000 O   0  0  0  0  0  0  0  0  0  0  0  0
    5.3440   -0.8250    0.0000 N   0  0  0  0  0  0  0  0  0  0  0  0
    3.2006   -0.4125    0.0000 C   0  0  1  0  0  0  0  0  0  0  0  0
    3.9151   -0.8250    0.0000 C   0  0  1  0  0  0  0  0  0  0  0  0
    4.6296   -0.4125    0.0000 C   0  0  1  0  0  0  0  0  0  0  0  0
    2.4861   -0.8250    0.0000 C   0  0  2  0  0  0  0  0  0  0  0  0
    3.6773    0.1925    0.0000 C   0  0  0  0  0  0  0  0  0  0  0  0
    3.2006    0.4125    0.0000 C   0  0  0  0  0  0  0  0  0  0  0  0
    3.9151   -1.6501    0.0000 C   0  0  0  0  0  0  0  0  0  0  0  0
    2.4861   -1.6501    0.0000 C   0  0  2  0  0  0  0  0  0  0  0  0
    4.6296    0.4125    0.0000 C   0  0  0  0  0  0  0  0  0  0  0  0
    3.2006   -2.0625    0.0000 C   0  0  0  0  0  0  0  0  0  0  0  0
    4.8506    0.1925    0.0000 C   0  0  0  0  0  0  0  0  0  0  0  0
    3.9151    0.8250    0.0000 C   0  0  0  0  0  0  0  0  0  0  0  0
    2.4861    0.8250    0.0000 C   0  0  0  0  0  0  0  0  0  0  0  0
    5.9350   -1.4601    0.0000 C   0  0  0  0  0  0  0  0  0  0  0  0
    3.9151    1.6500    0.0000 C   0  0  0  0  0  0  0  0  0  0  0  0
    2.4861    1.6500    0.0000 C   0  0  0  0  0  0  0  0  0  0  0  0
    3.2006    2.0625    0.0000 C   0  0  0  0  0  0  0  0  0  0  0  0
    4.8675   -1.0645    0.0000 H   0  0  0  0  0  0  0  0  0  0  0  0
    1.8196   -1.0180    0.0000 H   0  0  0  0  0  0  0  0  0  0  0  0
  1  9  1  0  0  0  0
  1 18  1  0  0  0  0
  4 21  1  0  0  0  0
  5  8  1  0  0  0  0
  5 16  1  0  0  0  0
  5 19  1  0  0  0  0
  6  7  1  0  0  0  0
  6  9  1  0  0  0  0
  6 10  1  1  0  0  0
  6 11  1  0  0  0  0
  7  2  1  1  0  0  0
  7  8  1  0  0  0  0
  7 12  1  0  0  0  0
  8 14  1  0  0  0  0
  8 23  1  6  0  0  0
  9 13  1  0  0  0  0
  9 24  1  1  0  0  0
 10 16  1  0  0  0  0
 11 17  2  0  0  0  0
 11 18  1  0  0  0  0
 12 15  1  0  0  0  0
 13  3  1  6  0  0  0
 13 15  1  0  0  0  0
 14 17  1  0  0  0  0
 17 20  1  0  0  0  0
 18 21  2  0  0  0  0
 20 22  2  0  0  0  0
 21 22  1  0  0  0  0
M  END
>  <DRUGBANK_ID>
DB01512

>  <DRUG_GROUPS>
illicit; experimental

>  <GENERIC_NAME>
Hydromorphinol

>  <CHEMICAL_FORMULA>
C17H21NO4

>  <MOLECULAR_WEIGHT>
303.3529

>  <EXACT_MASS>
303.147058165

>  <IUPAC_NAME>
(1S,5R,13R,14S,17S)-4-methyl-12-oxa-4-azapentacyclo[9.6.1.0^{1,13}.0^{5,17}.0^{7,18}]octadeca-7(18),8,10-triene-10,14,17-triol

>  <INCHI_IDENTIFIER>
InChI=1S/C17H21NO4/c1-18-7-6-16-13-9-2-3-10(19)14(13)22-15(16)11(20)4-5-17(16,21)12(18)8-9/h2-3,11-12,15,19-21H,4-8H2,1H3/t11-,12+,15-,16-,17+/m0/s1

>  <INCHI_KEY>
InChIKey=AABLHGPVOULICI-BRJGLHKUSA-N

>  <SMILES>
[H][C@@]12OC3=C(O)C=CC4=C3[C@@]11CCN(C)[C@]([H])(C4)[C@]1(O)CC[C@@H]2O

>  <JCHEM_ACCEPTOR_COUNT>
5

>  <JCHEM_DONOR_COUNT>
3

>  <JCHEM_ACIDIC_PKA>
7.44

>  <JCHEM_BASIC_PKA>
11.56

>  <JCHEM_PHYSIOLOGICAL_CHARGE>
1

>  <ALOGPS_LOGP>
0.53

>  <JCHEM_LOGP>
0.2

>  <ALOGPS_LOGS>
-1.2

>  <JCHEM_POLARIZABILITY>
31.43

>  <JCHEM_POLAR_SURFACE_AREA>
73.16

>  <JCHEM_REFRACTIVITY>
80.46

>  <JCHEM_ROTATABLE_BOND_COUNT>
0

>  <ALOGPS_SOLUBILITY>
2.06e+01 g/l __

$$$$
DB01514
 OpenBabel03171413512D

 28 32  0  0  1  0  0  0  0  0999 V2000
    7.8449   -1.4339    0.0000 O   0  0  0  0  0  0  0  0  0  0  0  0
    1.5935    0.9073    0.0000 O   0  0  0  0  0  0  0  0  0  0  0  0
    2.0779    0.2394    0.0000 N   0  0  0  0  0  0  0  0  0  0  0  0
    2.0779    1.5752    0.0000 N   0  0  0  0  0  0  0  0  0  0  0  0
    6.4023    0.1051    0.0000 C   0  0  2  0  0  0  0  0  0  0  0  0
    6.4087   -0.7248    0.0000 C   0  0  1  0  0  0  0  0  0  0  0  0
    5.6773    0.5090    0.0000 C   0  0  1  0  0  0  0  0  0  0  0  0
    4.9873    0.1106    0.0000 C   0  0  1  0  0  0  0  0  0  0  0  0
    4.2973    0.5090    0.0000 C   0  0  2  0  0  0  0  0  0  0  0  0
    7.1959   -0.9716    0.0000 C   0  0  2  0  0  0  0  0  0  0  0  0
    5.6900   -1.1398    0.0000 C   0  0  0  0  0  0  0  0  0  0  0  0
    4.9745   -0.7192    0.0000 C   0  0  0  0  0  0  0  0  0  0  0  0
    4.2973    1.3057    0.0000 C   0  0  1  0  0  0  0  0  0  0  0  0
    7.1856    0.3640    0.0000 C   0  0  0  0  0  0  0  0  0  0  0  0
    5.6773    1.3057    0.0000 C   0  0  0  0  0  0  0  0  0  0  0  0
    7.6752   -0.3001    0.0000 C   0  0  0  0  0  0  0  0  0  0  0  0
    4.9873    1.7041    0.0000 C   0  0  0  0  0  0  0  0  0  0  0  0
    3.5850    0.0830    0.0000 C   0  0  0  0  0  0  0  0  0  0  0  0
    6.4149   -1.5215    0.0000 C   0  0  0  0  0  0  0  0  0  0  0  0
    4.2973   -0.2878    0.0000 C   0  0  0  0  0  0  0  0  0  0  0  0
    3.5850    1.7316    0.0000 C   0  0  0  0  0  0  0  0  0  0  0  0
    6.9569   -1.7316    0.0000 C   0  0  0  0  0  0  0  0  0  0  0  0
    2.8631    0.4923    0.0000 C   0  0  0  0  0  0  0  0  0  0  0  0
    2.8631    1.3223    0.0000 C   0  0  0  0  0  0  0  0  0  0  0  0
    6.4624    0.7397    0.0000 H   0  0  0  0  0  0  0  0  0  0  0  0
    6.2268    0.8319    0.0000 H   0  0  0  0  0  0  0  0  0  0  0  0
    4.4329   -0.2039    0.0000 H   0  0  0  0  0  0  0  0  0  0  0  0
    4.3022    1.9430    0.0000 H   0  0  0  0  0  0  0  0  0  0  0  0
  2  3  1  0  0  0  0
  2  4  1  0  0  0  0
  3 23  2  0  0  0  0
  4 24  2  0  0  0  0
  5  6  1  0  0  0  0
  5  7  1  0  0  0  0
  5 14  1  0  0  0  0
  5 25  1  1  0  0  0
  6 10  1  0  0  0  0
  6 11  1  0  0  0  0
  6 19  1  6  0  0  0
  7  8  1  0  0  0  0
  7 15  1  0  0  0  0
  7 26  1  6  0  0  0
  8  9  1  0  0  0  0
  8 12  1  0  0  0  0
  8 27  1  1  0  0  0
  9 13  1  0  0  0  0
  9 18  1  0  0  0  0
  9 20  1  6  0  0  0
 10  1  1  6  0  0  0
 10 16  1  0  0  0  0
 10 22  1  0  0  0  0
 11 12  1  0  0  0  0
 13 17  1  0  0  0  0
 13 21  1  0  0  0  0
 13 28  1  1  0  0  0
 14 16  1  0  0  0  0
 15 17  1  0  0  0  0
 18 23  1  0  0  0  0
 21 24  1  0  0  0  0
 23 24  1  0  0  0  0
M  END
>  <DRUGBANK_ID>
DB01514

>  <DRUG_GROUPS>
illicit; experimental

>  <GENERIC_NAME>
Furazabol

>  <CHEMICAL_FORMULA>
C20H30N2O2

>  <MOLECULAR_WEIGHT>
330.4644

>  <EXACT_MASS>
330.230728214

>  <IUPAC_NAME>
(1S,2S,10S,13R,14S,17S,18S)-2,17,18-trimethyl-6-oxa-5,7-diazapentacyclo[11.7.0.0^{2,10}.0^{4,8}.0^{14,18}]icosa-4,7-dien-17-ol

>  <INCHI_IDENTIFIER>
InChI=1S/C20H30N2O2/c1-18-11-17-16(21-24-22-17)10-12(18)4-5-13-14(18)6-8-19(2)15(13)7-9-20(19,3)23/h12-15,23H,4-11H2,1-3H3/t12-,13+,14-,15-,18-,19-,20-/m0/s1

>  <INCHI_KEY>
InChIKey=RGLLOUBXMOGLDQ-IVEVATEUSA-N

>  <SMILES>
[H][C@@]12CC[C@](C)(O)[C@@]1(C)CC[C@@]1([H])[C@@]2([H])CC[C@@]2([H])CC3=NON=C3C[C@]12C

>  <JCHEM_ACCEPTOR_COUNT>
3

>  <JCHEM_DONOR_COUNT>
1

>  <JCHEM_BASIC_PKA>
-0.51

>  <JCHEM_PHYSIOLOGICAL_CHARGE>
0

>  <ALOGPS_LOGP>
4.3

>  <JCHEM_LOGP>
2.97

>  <ALOGPS_LOGS>
-4.1

>  <JCHEM_POLARIZABILITY>
37.94

>  <JCHEM_POLAR_SURFACE_AREA>
59.15

>  <JCHEM_REFRACTIVITY>
93.06

>  <JCHEM_ROTATABLE_BOND_COUNT>
0

>  <ALOGPS_SOLUBILITY>
2.77e-02 g/l __

$$$$
DB01515
 OpenBabel03171413512D

 23 25  0  0  1  0  0  0  0  0999 V2000
    4.5079   -0.8211    0.0000 O   0  0  0  0  0  0  0  0  0  0  0  0
    5.5344   -2.1032    0.0000 O   0  0  0  0  0  0  0  0  0  0  0  0
    6.9321   -1.8061    0.0000 O   0  0  0  0  0  0  0  0  0  0  0  0
    3.7934    0.4164    0.0000 O   0  0  0  0  0  0  0  0  0  0  0  0
    6.8483    1.8890    0.0000 N   0  0  0  0  0  0  0  0  0  0  0  0
    7.2425    0.2815    0.0000 C   0  0  1  0  0  0  0  0  0  0  0  0
    7.4560    1.0784    0.0000 C   0  0  1  0  0  0  0  0  0  0  0  0
    5.9761   -0.7442    0.0000 C   0  0  2  0  0  0  0  0  0  0  0  0
    8.7539   -0.3446    0.0000 C   0  0  0  0  0  0  0  0  0  0  0  0
    8.9674    0.4523    0.0000 C   0  0  0  0  0  0  0  0  0  0  0  0
    5.3086    0.4119    0.0000 C   0  0  0  0  0  0  0  0  0  0  0  0
    5.2223   -0.4086    0.0000 C   0  0  2  0  0  0  0  0  0  0  0  0
    6.4358    2.6035    0.0000 C   0  0  0  0  0  0  0  0  0  0  0  0
    6.1476   -1.5511    0.0000 C   0  0  0  0  0  0  0  0  0  0  0  0
    3.7934   -0.4086    0.0000 C   0  0  0  0  0  0  0  0  0  0  0  0
    3.0790   -0.8211    0.0000 C   0  0  0  0  0  0  0  0  0  0  0  0
    3.0790   -1.6461    0.0000 C   0  0  0  0  0  0  0  0  0  0  0  0
    2.3644   -0.4086    0.0000 C   0  0  0  0  0  0  0  0  0  0  0  0
    2.3644   -2.0586    0.0000 C   0  0  0  0  0  0  0  0  0  0  0  0
    1.6500   -0.8211    0.0000 C   0  0  0  0  0  0  0  0  0  0  0  0
    1.6500   -1.6461    0.0000 C   0  0  0  0  0  0  0  0  0  0  0  0
    7.0717   -0.3561    0.0000 H   0  0  0  0  0  0  0  0  0  0  0  0
    7.6269    1.7158    0.0000 H   0  0  0  0  0  0  0  0  0  0  0  0
  1 15  1  0  0  0  0
  2 14  1  0  0  0  0
  3 14  2  0  0  0  0
  4 15  2  0  0  0  0
  5  6  1  0  0  0  0
  5  7  1  0  0  0  0
  5 13  1  0  0  0  0
  6  8  1  0  0  0  0
  6  9  1  0  0  0  0
  6 22  1  1  0  0  0
  7 10  1  0  0  0  0
  7 11  1  0  0  0  0
  7 23  1  6  0  0  0
  8 12  1  0  0  0  0
  8 14  1  1  0  0  0
  9 10  1  0  0  0  0
 11 12  1  0  0  0  0
 12  1  1  1  0  0  0
 15 16  1  0  0  0  0
 16 17  2  0  0  0  0
 16 18  1  0  0  0  0
 17 19  1  0  0  0  0
 18 20  2  0  0  0  0
 19 21  2  0  0  0  0
 20 21  1  0  0  0  0
M  END
>  <DRUGBANK_ID>
DB01515

>  <DRUG_GROUPS>
illicit; experimental

>  <GENERIC_NAME>
Benzoylecgonine

>  <SYNONYMS>
(-)-benzoylecgonine; Benzoylecgonine hydrate; Benzoylecgonine solution; Benzoylecogonine; Ecgonine benzoate; O-benzoyl-(-)-ecgonine; O-benzoylecgonine

>  <CHEMICAL_FORMULA>
C16H19NO4

>  <MOLECULAR_WEIGHT>
289.3264

>  <EXACT_MASS>
289.131408101

>  <IUPAC_NAME>
(1R,2R,3S,5S)-3-(benzoyloxy)-8-methyl-8-azabicyclo[3.2.1]octane-2-carboxylic acid

>  <INCHI_IDENTIFIER>
InChI=1S/C16H19NO4/c1-17-11-7-8-12(17)14(15(18)19)13(9-11)21-16(20)10-5-3-2-4-6-10/h2-6,11-14H,7-9H2,1H3,(H,18,19)/t11-,12+,13-,14+/m0/s1

>  <INCHI_KEY>
InChIKey=GVGYEFKIHJTNQZ-RFQIPJPRSA-N

>  <SMILES>
[H][C@]12CC[C@]([H])([C@H]([C@H](C1)OC(=O)C1=CC=CC=C1)C(O)=O)N2C

>  <JCHEM_ACCEPTOR_COUNT>
4

>  <JCHEM_DONOR_COUNT>
1

>  <JCHEM_ACIDIC_PKA>
3.15

>  <JCHEM_BASIC_PKA>
9.54

>  <JCHEM_PHYSIOLOGICAL_CHARGE>
0

>  <ALOGPS_LOGP>
1.71

>  <JCHEM_LOGP>
-0.59

>  <ALOGPS_LOGS>
-1.9

>  <JCHEM_POLARIZABILITY>
29.93

>  <JCHEM_POLAR_SURFACE_AREA>
66.84

>  <JCHEM_REFRACTIVITY>
76.39

>  <JCHEM_ROTATABLE_BOND_COUNT>
4

>  <ALOGPS_SOLUBILITY>
3.82e+00 g/l __

$$$$
DB01516
 OpenBabel03171413512D

 16 16  0  0  1  0  0  0  0  0999 V2000
    5.2224    1.3654    0.0000 O   0  0  0  0  0  0  0  0  0  0  0  0
    2.3645    1.3654    0.0000 O   0  0  0  0  0  0  0  0  0  0  0  0
    3.7935    2.1904    0.0000 O   0  0  0  0  0  0  0  0  0  0  0  0
    3.0791   -2.3472    0.0000 N   0  0  0  0  0  0  0  0  0  0  0  0
    3.7935   -1.1096    0.0000 C   0  0  0  0  0  0  0  0  0  0  0  0
    3.0791   -1.5222    0.0000 C   0  0  3  0  0  0  0  0  0  0  0  0
    3.7935   -0.2846    0.0000 C   0  0  0  0  0  0  0  0  0  0  0  0
    3.0791    0.1279    0.0000 C   0  0  0  0  0  0  0  0  0  0  0  0
    4.5080    0.1279    0.0000 C   0  0  0  0  0  0  0  0  0  0  0  0
    2.3645   -1.1096    0.0000 C   0  0  0  0  0  0  0  0  0  0  0  0
    4.5080    0.9529    0.0000 C   0  0  0  0  0  0  0  0  0  0  0  0
    3.0791    0.9529    0.0000 C   0  0  0  0  0  0  0  0  0  0  0  0
    3.7935    1.3654    0.0000 C   0  0  0  0  0  0  0  0  0  0  0  0
    5.9370    0.9529    0.0000 C   0  0  0  0  0  0  0  0  0  0  0  0
    1.6500    0.9529    0.0000 C   0  0  0  0  0  0  0  0  0  0  0  0
    4.5080    2.6029    0.0000 C   0  0  0  0  0  0  0  0  0  0  0  0
  1 11  1  0  0  0  0
  1 14  1  0  0  0  0
  2 12  1  0  0  0  0
  2 15  1  0  0  0  0
  3 13  1  0  0  0  0
  3 16  1  0  0  0  0
  4  6  1  0  0  0  0
  5  6  1  0  0  0  0
  5  7  1  0  0  0  0
  6 10  1  0  0  0  0
  7  8  2  0  0  0  0
  7  9  1  0  0  0  0
  8 12  1  0  0  0  0
  9 11  2  0  0  0  0
 11 13  1  0  0  0  0
 12 13  2  0  0  0  0
M  END
>  <DRUGBANK_ID>
DB01516

>  <DRUG_GROUPS>
illicit; experimental

>  <GENERIC_NAME>
3,4,5-Trimethoxyamphetamine

>  <CHEMICAL_FORMULA>
C12H19NO3

>  <MOLECULAR_WEIGHT>
225.2842

>  <EXACT_MASS>
225.136493479

>  <IUPAC_NAME>
1-(3,4,5-trimethoxyphenyl)propan-2-amine

>  <INCHI_IDENTIFIER>
InChI=1S/C12H19NO3/c1-8(13)5-9-6-10(14-2)12(16-4)11(7-9)15-3/h6-8H,5,13H2,1-4H3

>  <INCHI_KEY>
InChIKey=WGTASENVNYJZBK-UHFFFAOYSA-N

>  <SMILES>
COC1=CC(CC(C)N)=CC(OC)=C1OC

>  <JCHEM_ACCEPTOR_COUNT>
4

>  <JCHEM_DONOR_COUNT>
1

>  <JCHEM_BASIC_PKA>
10

>  <JCHEM_PHYSIOLOGICAL_CHARGE>
1

>  <ALOGPS_LOGP>
1.54

>  <JCHEM_LOGP>
1.33

>  <ALOGPS_LOGS>
-2.7

>  <JCHEM_POLARIZABILITY>
24.93

>  <JCHEM_POLAR_SURFACE_AREA>
53.71

>  <JCHEM_REFRACTIVITY>
63.09

>  <JCHEM_ROTATABLE_BOND_COUNT>
5

>  <ALOGPS_SOLUBILITY>
4.79e-01 g/l __

$$$$
DB01518
 OpenBabel03171413512D

 27 29  0  0  0  0  0  0  0  0999 V2000
    2.8876    3.0780    0.0000 O   0  0  0  0  0  0  0  0  0  0  0  0
    3.8558    3.8905    0.0000 O   0  0  0  0  0  0  0  0  0  0  0  0
    3.4106   -1.3491    0.0000 O   0  0  0  0  0  0  0  0  0  0  0  0
    4.1251    0.7135    0.0000 N   0  0  0  0  0  0  0  0  0  0  0  0
    4.1251    2.3635    0.0000 C   0  0  0  0  0  0  0  0  0  0  0  0
    3.4106    1.9510    0.0000 C   0  0  0  0  0  0  0  0  0  0  0  0
    4.8396    1.9510    0.0000 C   0  0  0  0  0  0  0  0  0  0  0  0
    3.4106    1.1260    0.0000 C   0  0  0  0  0  0  0  0  0  0  0  0
    4.8396    1.1260    0.0000 C   0  0  0  0  0  0  0  0  0  0  0  0
    4.7571    2.8938    0.0000 C   0  0  0  0  0  0  0  0  0  0  0  0
    3.7126    3.0780    0.0000 C   0  0  0  0  0  0  0  0  0  0  0  0
    4.1251   -0.1115    0.0000 C   0  0  0  0  0  0  0  0  0  0  0  0
    4.6138    3.7063    0.0000 C   0  0  0  0  0  0  0  0  0  0  0  0
    5.5323    2.6117    0.0000 C   0  0  0  0  0  0  0  0  0  0  0  0
    3.4106   -0.5241    0.0000 C   0  0  0  0  0  0  0  0  0  0  0  0
    5.2458    4.2366    0.0000 C   0  0  0  0  0  0  0  0  0  0  0  0
    6.1644    3.1420    0.0000 C   0  0  0  0  0  0  0  0  0  0  0  0
    6.0211    3.9545    0.0000 C   0  0  0  0  0  0  0  0  0  0  0  0
    2.4751    3.7925    0.0000 C   0  0  0  0  0  0  0  0  0  0  0  0
    2.6961   -1.7616    0.0000 C   0  0  0  0  0  0  0  0  0  0  0  0
    1.6500    3.7925    0.0000 C   0  0  0  0  0  0  0  0  0  0  0  0
    2.6961   -2.5866    0.0000 C   0  0  0  0  0  0  0  0  0  0  0  0
    3.4106   -2.9991    0.0000 C   0  0  0  0  0  0  0  0  0  0  0  0
    1.9816   -2.9991    0.0000 C   0  0  0  0  0  0  0  0  0  0  0  0
    3.4106   -3.8241    0.0000 C   0  0  0  0  0  0  0  0  0  0  0  0
    1.9816   -3.8241    0.0000 C   0  0  0  0  0  0  0  0  0  0  0  0
    2.6961   -4.2366    0.0000 C   0  0  0  0  0  0  0  0  0  0  0  0
  1 11  1  0  0  0  0
  1 19  1  0  0  0  0
  2 11  2  0  0  0  0
  3 15  1  0  0  0  0
  3 20  1  0  0  0  0
  4  8  1  0  0  0  0
  4  9  1  0  0  0  0
  4 12  1  0  0  0  0
  5  6  1  0  0  0  0
  5  7  1  0  0  0  0
  5 10  1  0  0  0  0
  5 11  1  0  0  0  0
  6  8  1  0  0  0  0
  7  9  1  0  0  0  0
 10 13  2  0  0  0  0
 10 14  1  0  0  0  0
 12 15  1  0  0  0  0
 13 16  1  0  0  0  0
 14 17  2  0  0  0  0
 16 18  2  0  0  0  0
 17 18  1  0  0  0  0
 19 21  1  0  0  0  0
 20 22  1  0  0  0  0
 22 23  2  0  0  0  0
 22 24  1  0  0  0  0
 23 25  1  0  0  0  0
 24 26  2  0  0  0  0
 25 27  2  0  0  0  0
 26 27  1  0  0  0  0
M  END
>  <DRUGBANK_ID>
DB01518

>  <DRUG_GROUPS>
illicit; experimental

>  <GENERIC_NAME>
Benzethidine

>  <CHEMICAL_FORMULA>
C23H29NO3

>  <MOLECULAR_WEIGHT>
367.4813

>  <EXACT_MASS>
367.214743799

>  <IUPAC_NAME>
ethyl 1-[2-(benzyloxy)ethyl]-4-phenylpiperidine-4-carboxylate

>  <INCHI_IDENTIFIER>
InChI=1S/C23H29NO3/c1-2-27-22(25)23(21-11-7-4-8-12-21)13-15-24(16-14-23)17-18-26-19-20-9-5-3-6-10-20/h3-12H,2,13-19H2,1H3

>  <INCHI_KEY>
InChIKey=UVTBZAWTRVBTMK-UHFFFAOYSA-N

>  <SMILES>
CCOC(=O)C1(CCN(CCOCC2=CC=CC=C2)CC1)C1=CC=CC=C1

>  <JCHEM_ACCEPTOR_COUNT>
3

>  <JCHEM_DONOR_COUNT>
0

>  <JCHEM_BASIC_PKA>
8.11

>  <JCHEM_PHYSIOLOGICAL_CHARGE>
1

>  <ALOGPS_LOGP>
3.98

>  <JCHEM_LOGP>
4.13

>  <ALOGPS_LOGS>
-4.7

>  <JCHEM_POLARIZABILITY>
41.89

>  <JCHEM_POLAR_SURFACE_AREA>
38.77

>  <JCHEM_REFRACTIVITY>
108.14

>  <JCHEM_ROTATABLE_BOND_COUNT>
9

>  <ALOGPS_SOLUBILITY>
6.73e-03 g/l __

$$$$
DB01520
 OpenBabel03171413512D

 17 19  0  0  0  0  0  0  0  0999 V2000
    4.7593   -0.4259    0.0000 S   0  0  0  0  0  0  0  0  0  0  0  0
    2.8876    0.4678    0.0000 N   0  0  0  0  0  0  0  0  0  0  0  0
    3.3001   -0.2467    0.0000 C   0  0  0  0  0  0  0  0  0  0  0  0
    4.0145   -0.6592    0.0000 C   0  0  0  0  0  0  0  0  0  0  0  0
    2.5856   -0.6592    0.0000 C   0  0  0  0  0  0  0  0  0  0  0  0
    4.0145   -1.4842    0.0000 C   0  0  0  0  0  0  0  0  0  0  0  0
    2.5856   -1.4842    0.0000 C   0  0  0  0  0  0  0  0  0  0  0  0
    2.0625    0.4678    0.0000 C   0  0  0  0  0  0  0  0  0  0  0  0
    3.3001    1.1823    0.0000 C   0  0  0  0  0  0  0  0  0  0  0  0
    3.3001   -1.8967    0.0000 C   0  0  0  0  0  0  0  0  0  0  0  0
    4.0753    0.0355    0.0000 C   0  0  0  0  0  0  0  0  0  0  0  0
    1.6500    1.1823    0.0000 C   0  0  0  0  0  0  0  0  0  0  0  0
    2.8876    1.8967    0.0000 C   0  0  0  0  0  0  0  0  0  0  0  0
    2.0625    1.8967    0.0000 C   0  0  0  0  0  0  0  0  0  0  0  0
    4.3027    0.8285    0.0000 C   0  0  0  0  0  0  0  0  0  0  0  0
    5.1272    0.8573    0.0000 C   0  0  0  0  0  0  0  0  0  0  0  0
    5.4094    0.0821    0.0000 C   0  0  0  0  0  0  0  0  0  0  0  0
  1 11  1  0  0  0  0
  1 17  1  0  0  0  0
  2  3  1  0  0  0  0
  2  8  1  0  0  0  0
  2  9  1  0  0  0  0
  3  4  1  0  0  0  0
  3  5  1  0  0  0  0
  3 11  1  0  0  0  0
  4  6  1  0  0  0  0
  5  7  1  0  0  0  0
  6 10  1  0  0  0  0
  7 10  1  0  0  0  0
  8 12  1  0  0  0  0
  9 13  1  0  0  0  0
 11 15  2  0  0  0  0
 12 14  1  0  0  0  0
 13 14  1  0  0  0  0
 15 16  1  0  0  0  0
 16 17  2  0  0  0  0
M  END
>  <DRUGBANK_ID>
DB01520

>  <DRUG_GROUPS>
illicit; experimental

>  <GENERIC_NAME>
Tenocyclidine

>  <SYNONYMS>
TCP

>  <CHEMICAL_FORMULA>
C15H23NS

>  <MOLECULAR_WEIGHT>
249.415

>  <EXACT_MASS>
249.155120431

>  <IUPAC_NAME>
1-[1-(thiophen-2-yl)cyclohexyl]piperidine

>  <INCHI_IDENTIFIER>
InChI=1S/C15H23NS/c1-3-9-15(10-4-1,14-8-7-13-17-14)16-11-5-2-6-12-16/h7-8,13H,1-6,9-12H2

>  <INCHI_KEY>
InChIKey=JUZZEWSCNBCFRL-UHFFFAOYSA-N

>  <SMILES>
C1CCN(CC1)C1(CCCCC1)C1=CC=CS1

>  <JCHEM_ACCEPTOR_COUNT>
1

>  <JCHEM_DONOR_COUNT>
0

>  <JCHEM_BASIC_PKA>
10.44

>  <JCHEM_PHYSIOLOGICAL_CHARGE>
1

>  <ALOGPS_LOGP>
5.04

>  <JCHEM_LOGP>
4.4

>  <ALOGPS_LOGS>
-3.9

>  <JCHEM_POLARIZABILITY>
29.28

>  <JCHEM_POLAR_SURFACE_AREA>
3.24

>  <JCHEM_REFRACTIVITY>
74.54

>  <JCHEM_ROTATABLE_BOND_COUNT>
2

>  <ALOGPS_SOLUBILITY>
3.13e-02 g/l __

$$$$
DB01521
 OpenBabel03171413512D

 25 28  0  0  1  0  0  0  0  0999 V2000
    3.1440   -2.2607    0.0000 Cl  0  0  0  0  0  0  0  0  0  0  0  0
    7.1353    2.1553    0.0000 O   0  0  0  0  0  0  0  0  0  0  0  0
    1.6498   -1.3980    0.0000 O   0  0  0  0  0  0  0  0  0  0  0  0
    6.0985    0.2949    0.0000 C   0  0  2  0  0  0  0  0  0  0  0  0
    6.0985    1.1197    0.0000 C   0  0  2  0  0  0  0  0  0  0  0  0
    5.3842   -0.1176    0.0000 C   0  0  1  0  0  0  0  0  0  0  0  0
    4.6697    0.2949    0.0000 C   0  0  1  0  0  0  0  0  0  0  0  0
    3.9191   -0.1232    0.0000 C   0  0  2  0  0  0  0  0  0  0  0  0
    5.3842    1.5322    0.0000 C   0  0  0  0  0  0  0  0  0  0  0  0
    4.6697    1.1197    0.0000 C   0  0  0  0  0  0  0  0  0  0  0  0
    6.8790    1.3712    0.0000 C   0  0  2  0  0  0  0  0  0  0  0  0
    6.8790    0.0436    0.0000 C   0  0  0  0  0  0  0  0  0  0  0  0
    5.3974   -0.9767    0.0000 C   0  0  0  0  0  0  0  0  0  0  0  0
    7.3604    0.7073    0.0000 C   0  0  0  0  0  0  0  0  0  0  0  0
    3.9125   -0.9824    0.0000 C   0  0  0  0  0  0  0  0  0  0  0  0
    4.6566   -1.4120    0.0000 C   0  0  0  0  0  0  0  0  0  0  0  0
    6.0985    1.9446    0.0000 C   0  0  0  0  0  0  0  0  0  0  0  0
    3.1546    0.3422    0.0000 C   0  0  0  0  0  0  0  0  0  0  0  0
    3.9254    0.7017    0.0000 C   0  0  0  0  0  0  0  0  0  0  0  0
    2.3726   -0.0934    0.0000 C   0  0  0  0  0  0  0  0  0  0  0  0
    3.1409   -1.4358    0.0000 C   0  0  0  0  0  0  0  0  0  0  0  0
    2.3657   -0.9883    0.0000 C   0  0  0  0  0  0  0  0  0  0  0  0
    6.1683   -0.3614    0.0000 H   0  0  0  0  0  0  0  0  0  0  0  0
    5.9581   -0.4430    0.0000 H   0  0  0  0  0  0  0  0  0  0  0  0
    5.2413    0.6248    0.0000 H   0  0  0  0  0  0  0  0  0  0  0  0
  1 21  1  0  0  0  0
  3 22  2  0  0  0  0
  4  5  1  0  0  0  0
  4  6  1  0  0  0  0
  4 12  1  0  0  0  0
  4 23  1  6  0  0  0
  5  9  1  0  0  0  0
  5 11  1  0  0  0  0
  5 17  1  1  0  0  0
  6  7  1  0  0  0  0
  6 13  1  0  0  0  0
  6 24  1  1  0  0  0
  7  8  1  0  0  0  0
  7 10  1  0  0  0  0
  7 25  1  6  0  0  0
  8 15  1  0  0  0  0
  8 18  1  0  0  0  0
  8 19  1  1  0  0  0
  9 10  1  0  0  0  0
 11  2  1  1  0  0  0
 11 14  1  0  0  0  0
 12 14  1  0  0  0  0
 13 16  1  0  0  0  0
 15 16  1  0  0  0  0
 15 21  2  0  0  0  0
 18 20  1  0  0  0  0
 20 22  1  0  0  0  0
 21 22  1  0  0  0  0
M  END
>  <DRUGBANK_ID>
DB01521

>  <DRUG_GROUPS>
illicit; experimental

>  <GENERIC_NAME>
Clostebol

>  <CHEMICAL_FORMULA>
C19H27ClO2

>  <MOLECULAR_WEIGHT>
322.869

>  <EXACT_MASS>
322.169957815

>  <IUPAC_NAME>
(1S,2R,10R,11S,14S,15S)-6-chloro-14-hydroxy-2,15-dimethyltetracyclo[8.7.0.0^{2,7}.0^{11,15}]heptadec-6-en-5-one

>  <INCHI_IDENTIFIER>
InChI=1S/C19H27ClO2/c1-18-10-8-15(21)17(20)14(18)4-3-11-12-5-6-16(22)19(12,2)9-7-13(11)18/h11-13,16,22H,3-10H2,1-2H3/t11-,12-,13-,16-,18+,19-/m0/s1

>  <INCHI_KEY>
InChIKey=KCZCIYZKSLLNNH-FBPKJDBXSA-N

>  <SMILES>
[H][C@@]12CC[C@H](O)[C@@]1(C)CC[C@@]1([H])[C@@]2([H])CCC2=C(Cl)C(=O)CC[C@]12C

>  <JCHEM_ACCEPTOR_COUNT>
2

>  <JCHEM_DONOR_COUNT>
1

>  <JCHEM_ACIDIC_PKA>
19.31

>  <JCHEM_BASIC_PKA>
-0.88

>  <JCHEM_PHYSIOLOGICAL_CHARGE>
0

>  <ALOGPS_LOGP>
3.57

>  <JCHEM_LOGP>
3.75

>  <ALOGPS_LOGS>
-4.3

>  <JCHEM_POLARIZABILITY>
36.16

>  <JCHEM_POLAR_SURFACE_AREA>
37.3

>  <JCHEM_REFRACTIVITY>
89.22

>  <JCHEM_ROTATABLE_BOND_COUNT>
0

>  <ALOGPS_SOLUBILITY>
1.53e-02 g/l __

$$$$
DB01522
 OpenBabel03171413512D

 26 27  0  0  1  0  0  0  0  0999 V2000
    5.8950   -0.7144    0.0000 O   0  0  0  0  0  0  0  0  0  0  0  0
    7.1325    0.0000    0.0000 O   0  0  0  0  0  0  0  0  0  0  0  0
    2.4253   -0.2482    0.0000 N   0  0  0  0  0  0  0  0  0  0  0  0
    4.6575    0.0000    0.0000 C   0  0  0  0  0  0  0  0  0  0  0  0
    3.8325    0.0000    0.0000 C   0  0  0  0  0  0  0  0  0  0  0  0
    5.4825    0.0000    0.0000 C   0  0  2  0  0  0  0  0  0  0  0  0
    3.0572    0.2822    0.0000 C   0  0  1  0  0  0  0  0  0  0  0  0
    4.6575    0.8250    0.0000 C   0  0  0  0  0  0  0  0  0  0  0  0
    4.6575   -0.8250    0.0000 C   0  0  0  0  0  0  0  0  0  0  0  0
    5.8950    0.7144    0.0000 C   0  0  0  0  0  0  0  0  0  0  0  0
    2.9140    1.0946    0.0000 C   0  0  0  0  0  0  0  0  0  0  0  0
    3.9430    1.2375    0.0000 C   0  0  0  0  0  0  0  0  0  0  0  0
    5.3720   -1.2375    0.0000 C   0  0  0  0  0  0  0  0  0  0  0  0
    5.3720    1.2375    0.0000 C   0  0  0  0  0  0  0  0  0  0  0  0
    3.9430   -1.2375    0.0000 C   0  0  0  0  0  0  0  0  0  0  0  0
    6.7200    0.7144    0.0000 C   0  0  0  0  0  0  0  0  0  0  0  0
    1.6500    0.0341    0.0000 C   0  0  0  0  0  0  0  0  0  0  0  0
    2.5685   -1.0605    0.0000 C   0  0  0  0  0  0  0  0  0  0  0  0
    3.9430    2.0625    0.0000 C   0  0  0  0  0  0  0  0  0  0  0  0
    5.3720   -2.0625    0.0000 C   0  0  0  0  0  0  0  0  0  0  0  0
    5.3720    2.0625    0.0000 C   0  0  0  0  0  0  0  0  0  0  0  0
    3.9430   -2.0625    0.0000 C   0  0  0  0  0  0  0  0  0  0  0  0
    6.7200   -0.7144    0.0000 C   0  0  0  0  0  0  0  0  0  0  0  0
    4.6575    2.4750    0.0000 C   0  0  0  0  0  0  0  0  0  0  0  0
    4.6575   -2.4750    0.0000 C   0  0  0  0  0  0  0  0  0  0  0  0
    7.1325   -1.4290    0.0000 C   0  0  0  0  0  0  0  0  0  0  0  0
  1 23  1  0  0  0  0
  2 23  2  0  0  0  0
  3 17  1  0  0  0  0
  3 18  1  0  0  0  0
  4  5  1  0  0  0  0
  4  6  1  0  0  0  0
  4  8  1  0  0  0  0
  4  9  1  0  0  0  0
  5  7  1  0  0  0  0
  6  1  1  6  0  0  0
  6 10  1  0  0  0  0
  7  3  1  6  0  0  0
  7 11  1  0  0  0  0
  8 12  2  0  0  0  0
  8 14  1  0  0  0  0
  9 13  2  0  0  0  0
  9 15  1  0  0  0  0
 10 16  1  0  0  0  0
 12 19  1  0  0  0  0
 13 20  1  0  0  0  0
 14 21  2  0  0  0  0
 15 22  2  0  0  0  0
 19 24  2  0  0  0  0
 20 25  2  0  0  0  0
 21 24  1  0  0  0  0
 22 25  1  0  0  0  0
 23 26  1  0  0  0  0
M  END
>  <DRUGBANK_ID>
DB01522

>  <DRUG_GROUPS>
illicit; experimental

>  <GENERIC_NAME>
Betacetylmethadol

>  <CHEMICAL_FORMULA>
C23H31NO2

>  <MOLECULAR_WEIGHT>
353.4977

>  <EXACT_MASS>
353.235479241

>  <IUPAC_NAME>
(3S,6R)-6-(dimethylamino)-4,4-diphenylheptan-3-yl acetate

>  <INCHI_IDENTIFIER>
InChI=1S/C23H31NO2/c1-6-22(26-19(3)25)23(17-18(2)24(4)5,20-13-9-7-10-14-20)21-15-11-8-12-16-21/h7-16,18,22H,6,17H2,1-5H3/t18-,22+/m1/s1

>  <INCHI_KEY>
InChIKey=XBMIVRRWGCYBTQ-GCJKJVERSA-N

>  <SMILES>
CC[C@H](OC(C)=O)C(C[C@@H](C)N(C)C)(C1=CC=CC=C1)C1=CC=CC=C1

>  <JCHEM_ACCEPTOR_COUNT>
2

>  <JCHEM_DONOR_COUNT>
0

>  <JCHEM_BASIC_PKA>
9.87

>  <JCHEM_PHYSIOLOGICAL_CHARGE>
1

>  <ALOGPS_LOGP>
4.78

>  <JCHEM_LOGP>
4.88

>  <ALOGPS_LOGS>
-5.3

>  <JCHEM_POLARIZABILITY>
40.93

>  <JCHEM_POLAR_SURFACE_AREA>
29.54

>  <JCHEM_REFRACTIVITY>
117.86

>  <JCHEM_ROTATABLE_BOND_COUNT>
9

>  <ALOGPS_SOLUBILITY>
1.79e-03 g/l __

$$$$
DB01523
 OpenBabel03171413512D

 27 29  0  0  0  0  0  0  0  0999 V2000
    8.2451   -3.3294    0.0000 Cl  0  0  0  0  0  0  0  0  0  0  0  0
    1.6500   -0.8839    0.0000 O   0  0  0  0  0  0  0  0  0  0  0  0
    2.3645   -2.1215    0.0000 O   0  0  0  0  0  0  0  0  0  0  0  0
    5.2886    0.1926    0.0000 N   0  0  0  0  0  0  0  0  0  0  0  0
    6.6086    1.9310    0.0000 N   0  0  0  0  0  0  0  0  0  0  0  0
    5.2886   -1.1353    0.0000 N   0  0  0  0  0  0  0  0  0  0  0  0
    2.3645   -1.2964    0.0000 N   0  0  0  0  0  0  0  0  0  0  0  0
    5.5449    0.9767    0.0000 C   0  0  0  0  0  0  0  0  0  0  0  0
    6.3522    1.1469    0.0000 C   0  0  0  0  0  0  0  0  0  0  0  0
    5.7701   -0.4714    0.0000 C   0  0  0  0  0  0  0  0  0  0  0  0
    4.5080   -0.0589    0.0000 C   0  0  0  0  0  0  0  0  0  0  0  0
    4.5080   -0.8839    0.0000 C   0  0  0  0  0  0  0  0  0  0  0  0
    6.5951   -0.4714    0.0000 C   0  0  0  0  0  0  0  0  0  0  0  0
    7.4158    2.1012    0.0000 C   0  0  0  0  0  0  0  0  0  0  0  0
    6.0575    2.5451    0.0000 C   0  0  0  0  0  0  0  0  0  0  0  0
    3.7935    0.3536    0.0000 C   0  0  0  0  0  0  0  0  0  0  0  0
    3.7935   -1.2964    0.0000 C   0  0  0  0  0  0  0  0  0  0  0  0
    7.0076   -1.1859    0.0000 C   0  0  0  0  0  0  0  0  0  0  0  0
    7.6721    2.8854    0.0000 C   0  0  0  0  0  0  0  0  0  0  0  0
    6.3139    3.3294    0.0000 C   0  0  0  0  0  0  0  0  0  0  0  0
    3.0791   -0.8839    0.0000 C   0  0  0  0  0  0  0  0  0  0  0  0
    3.0791   -0.0589    0.0000 C   0  0  0  0  0  0  0  0  0  0  0  0
    7.8326   -1.1859    0.0000 C   0  0  0  0  0  0  0  0  0  0  0  0
    6.5951   -1.9003    0.0000 C   0  0  0  0  0  0  0  0  0  0  0  0
    8.2451   -1.9003    0.0000 C   0  0  0  0  0  0  0  0  0  0  0  0
    7.0076   -2.6148    0.0000 C   0  0  0  0  0  0  0  0  0  0  0  0
    7.8326   -2.6148    0.0000 C   0  0  0  0  0  0  0  0  0  0  0  0
  1 27  1  0  0  0  0
  2  7  1  0  0  0  0
  3  7  2  0  0  0  0
  4  8  1  0  0  0  0
  4 10  1  0  0  0  0
  4 11  1  0  0  0  0
  5  9  1  0  0  0  0
  5 14  1  0  0  0  0
  5 15  1  0  0  0  0
  6 10  2  0  0  0  0
  6 12  1  0  0  0  0
  7 21  1  0  0  0  0
  8  9  1  0  0  0  0
 10 13  1  0  0  0  0
 11 12  2  0  0  0  0
 11 16  1  0  0  0  0
 12 17  1  0  0  0  0
 13 18  1  0  0  0  0
 14 19  1  0  0  0  0
 15 20  1  0  0  0  0
 16 22  2  0  0  0  0
 17 21  2  0  0  0  0
 18 23  2  0  0  0  0
 18 24  1  0  0  0  0
 21 22  1  0  0  0  0
 23 25  1  0  0  0  0
 24 26  2  0  0  0  0
 25 27  2  0  0  0  0
 26 27  1  0  0  0  0
M  END
>  <DRUGBANK_ID>
DB01523

>  <DRUG_GROUPS>
illicit; experimental

>  <GENERIC_NAME>
Clonitazene

>  <CHEMICAL_FORMULA>
C20H23ClN4O2

>  <MOLECULAR_WEIGHT>
386.875

>  <EXACT_MASS>
386.150953707

>  <IUPAC_NAME>
(2-{2-[(4-chlorophenyl)methyl]-5-nitro-1H-1,3-benzodiazol-1-yl}ethyl)diethylamine

>  <INCHI_IDENTIFIER>
InChI=1S/C20H23ClN4O2/c1-3-23(4-2)11-12-24-19-10-9-17(25(26)27)14-18(19)22-20(24)13-15-5-7-16(21)8-6-15/h5-10,14H,3-4,11-13H2,1-2H3

>  <INCHI_KEY>
InChIKey=GPZLDQAEBHTMPG-UHFFFAOYSA-N

>  <SMILES>
CCN(CC)CCN1C(CC2=CC=C(Cl)C=C2)=NC2=C1C=CC(=C2)[N+]([O-])=O

>  <JCHEM_ACCEPTOR_COUNT>
4

>  <JCHEM_DONOR_COUNT>
0

>  <JCHEM_BASIC_PKA>
9.63

>  <JCHEM_PHYSIOLOGICAL_CHARGE>
1

>  <ALOGPS_LOGP>
4.95

>  <JCHEM_LOGP>
4.72

>  <ALOGPS_LOGS>
-4.5

>  <JCHEM_POLARIZABILITY>
41.85

>  <JCHEM_POLAR_SURFACE_AREA>
66.88

>  <JCHEM_REFRACTIVITY>
108.67

>  <JCHEM_ROTATABLE_BOND_COUNT>
8

>  <ALOGPS_SOLUBILITY>
1.11e-02 g/l __

$$$$
DB01524
 OpenBabel03171413512D

 21 24  0  0  1  0  0  0  0  0999 V2000
    7.5775    1.7429    0.0000 O   0  0  0  0  0  0  0  0  0  0  0  0
    2.0917   -1.8105    0.0000 O   0  0  0  0  0  0  0  0  0  0  0  0
    6.5406   -0.1176    0.0000 C   0  0  3  0  0  0  0  0  0  0  0  0
    6.5406    0.7074    0.0000 C   0  0  3  0  0  0  0  0  0  0  0  0
    5.8262   -0.5300    0.0000 C   0  0  3  0  0  0  0  0  0  0  0  0
    5.1119   -0.1176    0.0000 C   0  0  3  0  0  0  0  0  0  0  0  0
    4.3612   -0.5356    0.0000 C   0  0  3  0  0  0  0  0  0  0  0  0
    5.8262    1.1199    0.0000 C   0  0  0  0  0  0  0  0  0  0  0  0
    5.1119    0.7074    0.0000 C   0  0  0  0  0  0  0  0  0  0  0  0
    7.3211    0.9588    0.0000 C   0  0  3  0  0  0  0  0  0  0  0  0
    7.3211   -0.3689    0.0000 C   0  0  0  0  0  0  0  0  0  0  0  0
    5.8395   -1.3891    0.0000 C   0  0  0  0  0  0  0  0  0  0  0  0
    7.8026    0.2949    0.0000 C   0  0  0  0  0  0  0  0  0  0  0  0
    4.3545   -1.3948    0.0000 C   0  0  0  0  0  0  0  0  0  0  0  0
    3.5966   -0.0703    0.0000 C   0  0  0  0  0  0  0  0  0  0  0  0
    6.5406    1.5323    0.0000 C   0  0  0  0  0  0  0  0  0  0  0  0
    5.0987   -1.8245    0.0000 C   0  0  0  0  0  0  0  0  0  0  0  0
    4.3676    0.2893    0.0000 C   0  0  0  0  0  0  0  0  0  0  0  0
    3.5829   -1.8483    0.0000 C   0  0  0  0  0  0  0  0  0  0  0  0
    2.8147   -0.5058    0.0000 C   0  0  0  0  0  0  0  0  0  0  0  0
    2.8078   -1.4008    0.0000 C   0  0  3  0  0  0  0  0  0  0  0  0
  1 10  1  0  0  0  0
  2 21  1  0  0  0  0
  3  4  1  0  0  0  0
  3  5  1  0  0  0  0
  3 11  1  0  0  0  0
  4  8  1  0  0  0  0
  4 10  1  0  0  0  0
  4 16  1  0  0  0  0
  5  6  1  0  0  0  0
  5 12  1  0  0  0  0
  6  7  1  0  0  0  0
  6  9  1  0  0  0  0
  7 14  1  0  0  0  0
  7 15  1  0  0  0  0
  7 18  1  0  0  0  0
  8  9  1  0  0  0  0
 10 13  1  0  0  0  0
 11 13  1  0  0  0  0
 12 17  1  0  0  0  0
 14 17  2  0  0  0  0
 14 19  1  0  0  0  0
 15 20  1  0  0  0  0
 19 21  1  0  0  0  0
 20 21  1  0  0  0  0
M  END
>  <DRUGBANK_ID>
DB01524

>  <DRUG_GROUPS>
illicit; experimental

>  <GENERIC_NAME>
5-Androstenediol

>  <CHEMICAL_FORMULA>
C19H30O2

>  <MOLECULAR_WEIGHT>
290.4403

>  <EXACT_MASS>
290.224580204

>  <IUPAC_NAME>
2,15-dimethyltetracyclo[8.7.0.0^{2,7}.0^{11,15}]heptadec-7-ene-5,14-diol

>  <INCHI_IDENTIFIER>
InChI=1S/C19H30O2/c1-18-9-7-13(20)11-12(18)3-4-14-15-5-6-17(21)19(15,2)10-8-16(14)18/h3,13-17,20-21H,4-11H2,1-2H3

>  <INCHI_KEY>
InChIKey=QADHLRWLCPCEKT-UHFFFAOYSA-N

>  <SMILES>
CC12CCC3C(CC=C4CC(O)CCC34C)C1CCC2O

>  <JCHEM_ACCEPTOR_COUNT>
2

>  <JCHEM_DONOR_COUNT>
2

>  <JCHEM_ACIDIC_PKA>
18.2

>  <JCHEM_BASIC_PKA>
-0.77

>  <JCHEM_PHYSIOLOGICAL_CHARGE>
0

>  <ALOGPS_LOGP>
3.42

>  <JCHEM_LOGP>
2.8

>  <ALOGPS_LOGS>
-3.7

>  <JCHEM_POLARIZABILITY>
34.73

>  <JCHEM_POLAR_SURFACE_AREA>
40.46

>  <JCHEM_REFRACTIVITY>
85.48

>  <JCHEM_ROTATABLE_BOND_COUNT>
0

>  <ALOGPS_SOLUBILITY>
5.50e-02 g/l __

$$$$
DB01525
 OpenBabel03171413512D

 15 16  0  0  1  0  0  0  0  0999 V2000
    2.0928   -0.8211    0.0000 O   0  0  0  0  0  0  0  0  0  0  0  0
    3.1194   -2.1030    0.0000 O   0  0  0  0  0  0  0  0  0  0  0  0
    4.5170   -1.8060    0.0000 O   0  0  0  0  0  0  0  0  0  0  0  0
    4.4332    1.8889    0.0000 N   0  0  0  0  0  0  0  0  0  0  0  0
    4.8273    0.2815    0.0000 C   0  0  1  0  0  0  0  0  0  0  0  0
    5.0408    1.0783    0.0000 C   0  0  1  0  0  0  0  0  0  0  0  0
    3.5609   -0.7441    0.0000 C   0  0  2  0  0  0  0  0  0  0  0  0
    6.3385   -0.3446    0.0000 C   0  0  0  0  0  0  0  0  0  0  0  0
    6.5520    0.4523    0.0000 C   0  0  0  0  0  0  0  0  0  0  0  0
    2.8935    0.4119    0.0000 C   0  0  0  0  0  0  0  0  0  0  0  0
    2.8073   -0.4086    0.0000 C   0  0  2  0  0  0  0  0  0  0  0  0
    4.0207    2.6033    0.0000 C   0  0  0  0  0  0  0  0  0  0  0  0
    3.7324   -1.5510    0.0000 C   0  0  0  0  0  0  0  0  0  0  0  0
    4.6565   -0.3560    0.0000 H   0  0  0  0  0  0  0  0  0  0  0  0
    5.2116    1.7157    0.0000 H   0  0  0  0  0  0  0  0  0  0  0  0
  2 13  1  0  0  0  0
  3 13  2  0  0  0  0
  4  5  1  0  0  0  0
  4  6  1  0  0  0  0
  4 12  1  0  0  0  0
  5  7  1  0  0  0  0
  5  8  1  0  0  0  0
  5 14  1  1  0  0  0
  6  9  1  0  0  0  0
  6 10  1  0  0  0  0
  6 15  1  6  0  0  0
  7 11  1  0  0  0  0
  7 13  1  1  0  0  0
  8  9  1  0  0  0  0
 10 11  1  0  0  0  0
 11  1  1  1  0  0  0
M  END
>  <DRUGBANK_ID>
DB01525

>  <DRUG_GROUPS>
illicit; experimental

>  <GENERIC_NAME>
Ecgonine

>  <CHEMICAL_FORMULA>
C9H15NO3

>  <MOLECULAR_WEIGHT>
185.2203

>  <EXACT_MASS>
185.105193351

>  <IUPAC_NAME>
(1R,2R,3S,5S)-3-hydroxy-8-methyl-8-azabicyclo[3.2.1]octane-2-carboxylic acid

>  <INCHI_IDENTIFIER>
InChI=1S/C9H15NO3/c1-10-5-2-3-6(10)8(9(12)13)7(11)4-5/h5-8,11H,2-4H2,1H3,(H,12,13)/t5-,6+,7-,8+/m0/s1

>  <INCHI_KEY>
InChIKey=PHMBVCPLDPDESM-FKSUSPILSA-N

>  <SMILES>
[H][C@]12CC[C@]([H])([C@H]([C@@H](O)C1)C(O)=O)N2C

>  <JCHEM_ACCEPTOR_COUNT>
4

>  <JCHEM_DONOR_COUNT>
2

>  <JCHEM_ACIDIC_PKA>
3.48

>  <JCHEM_BASIC_PKA>
9.69

>  <JCHEM_PHYSIOLOGICAL_CHARGE>
0

>  <ALOGPS_LOGP>
-0.69

>  <JCHEM_LOGP>
-3.1

>  <ALOGPS_LOGS>
0.75

>  <JCHEM_POLARIZABILITY>
18.7

>  <JCHEM_POLAR_SURFACE_AREA>
60.77

>  <JCHEM_REFRACTIVITY>
46.57

>  <JCHEM_ROTATABLE_BOND_COUNT>
1

>  <ALOGPS_SOLUBILITY>
1.05e+03 g/l __

$$$$
DB01526
 OpenBabel03171413512D

 24 27  0  0  1  0  0  0  0  0999 V2000
    7.5775    1.7429    0.0000 O   0  0  0  0  0  0  0  0  0  0  0  0
    2.0917   -1.8105    0.0000 O   0  0  0  0  0  0  0  0  0  0  0  0
    6.5406   -0.1176    0.0000 C   0  0  1  0  0  0  0  0  0  0  0  0
    5.8262   -0.5300    0.0000 C   0  0  1  0  0  0  0  0  0  0  0  0
    6.5406    0.7074    0.0000 C   0  0  2  0  0  0  0  0  0  0  0  0
    5.1119   -0.1176    0.0000 C   0  0  1  0  0  0  0  0  0  0  0  0
    4.3612   -0.5356    0.0000 C   0  0  2  0  0  0  0  0  0  0  0  0
    5.8262    1.1199    0.0000 C   0  0  0  0  0  0  0  0  0  0  0  0
    5.1119    0.7074    0.0000 C   0  0  0  0  0  0  0  0  0  0  0  0
    7.3211    0.9588    0.0000 C   0  0  2  0  0  0  0  0  0  0  0  0
    7.3211   -0.3689    0.0000 C   0  0  0  0  0  0  0  0  0  0  0  0
    5.8395   -1.3891    0.0000 C   0  0  0  0  0  0  0  0  0  0  0  0
    7.8026    0.2949    0.0000 C   0  0  0  0  0  0  0  0  0  0  0  0
    4.3545   -1.3948    0.0000 C   0  0  0  0  0  0  0  0  0  0  0  0
    5.0987   -1.8245    0.0000 C   0  0  0  0  0  0  0  0  0  0  0  0
    3.5966   -0.0703    0.0000 C   0  0  0  0  0  0  0  0  0  0  0  0
    6.5406    1.5323    0.0000 C   0  0  0  0  0  0  0  0  0  0  0  0
    4.3676    0.2893    0.0000 C   0  0  0  0  0  0  0  0  0  0  0  0
    2.8147   -0.5058    0.0000 C   0  0  0  0  0  0  0  0  0  0  0  0
    3.5829   -1.8483    0.0000 C   0  0  0  0  0  0  0  0  0  0  0  0
    2.8078   -1.4008    0.0000 C   0  0  1  0  0  0  0  0  0  0  0  0
    6.6105   -0.7738    0.0000 H   0  0  0  0  0  0  0  0  0  0  0  0
    6.4003   -0.8555    0.0000 H   0  0  0  0  0  0  0  0  0  0  0  0
    5.6833    0.2124    0.0000 H   0  0  0  0  0  0  0  0  0  0  0  0
  3  4  1  0  0  0  0
  3  5  1  0  0  0  0
  3 11  1  0  0  0  0
  3 22  1  6  0  0  0
  4  6  1  0  0  0  0
  4 12  1  0  0  0  0
  4 23  1  1  0  0  0
  5  8  1  0  0  0  0
  5 10  1  0  0  0  0
  5 17  1  1  0  0  0
  6  7  1  0  0  0  0
  6  9  1  0  0  0  0
  6 24  1  6  0  0  0
  7 14  1  0  0  0  0
  7 16  1  0  0  0  0
  7 18  1  1  0  0  0
  8  9  1  0  0  0  0
 10  1  1  1  0  0  0
 10 13  1  0  0  0  0
 11 13  1  0  0  0  0
 12 15  1  0  0  0  0
 14 15  1  0  0  0  0
 14 20  2  0  0  0  0
 16 19  1  0  0  0  0
 19 21  1  0  0  0  0
 20 21  1  0  0  0  0
 21  2  1  1  0  0  0
M  END
>  <DRUGBANK_ID>
DB01526

>  <DRUG_GROUPS>
illicit; experimental

>  <GENERIC_NAME>
4-Androstenediol

>  <CHEMICAL_FORMULA>
C19H30O2

>  <MOLECULAR_WEIGHT>
290.4403

>  <EXACT_MASS>
290.224580204

>  <IUPAC_NAME>
(1S,2R,5S,10R,11S,14S,15S)-2,15-dimethyltetracyclo[8.7.0.0^{2,7}.0^{11,15}]heptadec-6-ene-5,14-diol

>  <INCHI_IDENTIFIER>
InChI=1S/C19H30O2/c1-18-9-7-13(20)11-12(18)3-4-14-15-5-6-17(21)19(15,2)10-8-16(14)18/h11,13-17,20-21H,3-10H2,1-2H3/t13-,14-,15-,16-,17-,18-,19-/m0/s1

>  <INCHI_KEY>
InChIKey=BTTWKVFKBPAFDK-LOVVWNRFSA-N

>  <SMILES>
[H][C@@]12CC[C@H](O)[C@@]1(C)CC[C@@]1([H])[C@@]2([H])CCC2=C[C@@H](O)CC[C@]12C

>  <JCHEM_ACCEPTOR_COUNT>
2

>  <JCHEM_DONOR_COUNT>
2

>  <JCHEM_ACIDIC_PKA>
17.5

>  <JCHEM_BASIC_PKA>
-0.82

>  <JCHEM_PHYSIOLOGICAL_CHARGE>
0

>  <ALOGPS_LOGP>
3.1

>  <JCHEM_LOGP>
2.95

>  <ALOGPS_LOGS>
-3.8

>  <JCHEM_POLARIZABILITY>
34.52

>  <JCHEM_POLAR_SURFACE_AREA>
40.46

>  <JCHEM_REFRACTIVITY>
85.33

>  <JCHEM_ROTATABLE_BOND_COUNT>
0

>  <ALOGPS_SOLUBILITY>
4.81e-02 g/l __

$$$$
DB01527
 OpenBabel03171413512D

 12 12  0  0  0  0  0  0  0  0999 V2000
    1.6500   -0.2558    0.0000 Cl  0  0  0  0  0  0  0  0  0  0  0  0
    4.5080    1.3943    0.0000 N   0  0  0  0  0  0  0  0  0  0  0  0
    3.7935    0.9818    0.0000 C   0  0  0  0  0  0  0  0  0  0  0  0
    3.0791    0.5693    0.0000 C   0  0  0  0  0  0  0  0  0  0  0  0
    3.3810    1.6962    0.0000 C   0  0  0  0  0  0  0  0  0  0  0  0
    4.2060    0.2673    0.0000 C   0  0  0  0  0  0  0  0  0  0  0  0
    3.0791   -0.2558    0.0000 C   0  0  0  0  0  0  0  0  0  0  0  0
    2.3645   -0.6683    0.0000 C   0  0  0  0  0  0  0  0  0  0  0  0
    3.7935   -0.6683    0.0000 C   0  0  0  0  0  0  0  0  0  0  0  0
    2.3645   -1.4933    0.0000 C   0  0  0  0  0  0  0  0  0  0  0  0
    3.7935   -1.4933    0.0000 C   0  0  0  0  0  0  0  0  0  0  0  0
    3.0791   -1.9058    0.0000 C   0  0  0  0  0  0  0  0  0  0  0  0
  1  8  1  0  0  0  0
  2  3  1  0  0  0  0
  3  4  1  0  0  0  0
  3  5  1  0  0  0  0
  3  6  1  0  0  0  0
  4  7  1  0  0  0  0
  7  8  1  0  0  0  0
  7  9  2  0  0  0  0
  8 10  2  0  0  0  0
  9 11  1  0  0  0  0
 10 12  1  0  0  0  0
 11 12  2  0  0  0  0
M  END
>  <DRUGBANK_ID>
DB01527

>  <DRUG_GROUPS>
illicit; experimental

>  <GENERIC_NAME>
Clortermine

>  <CHEMICAL_FORMULA>
C10H14ClN

>  <MOLECULAR_WEIGHT>
183.678

>  <EXACT_MASS>
183.08147716

>  <IUPAC_NAME>
1-(2-chlorophenyl)-2-methylpropan-2-amine

>  <INCHI_IDENTIFIER>
InChI=1S/C10H14ClN/c1-10(2,12)7-8-5-3-4-6-9(8)11/h3-6H,7,12H2,1-2H3

>  <INCHI_KEY>
InChIKey=HXCXASJHZQXCKK-UHFFFAOYSA-N

>  <SMILES>
CC(C)(N)CC1=CC=CC=C1Cl

>  <JCHEM_ACCEPTOR_COUNT>
1

>  <JCHEM_DONOR_COUNT>
1

>  <JCHEM_BASIC_PKA>
10.16

>  <JCHEM_PHYSIOLOGICAL_CHARGE>
1

>  <ALOGPS_LOGP>
2.67

>  <JCHEM_LOGP>
2.69

>  <ALOGPS_LOGS>
-3.2

>  <JCHEM_POLARIZABILITY>
19.86

>  <JCHEM_POLAR_SURFACE_AREA>
26.02

>  <JCHEM_REFRACTIVITY>
53.15

>  <JCHEM_ROTATABLE_BOND_COUNT>
2

>  <ALOGPS_SOLUBILITY>
1.04e-01 g/l __

$$$$
DB01528
 OpenBabel03171413512D

 15 15  0  0  1  0  0  0  0  0999 V2000
    2.3645    0.0784    0.0000 O   0  0  0  0  0  0  0  0  0  0  0  0
    5.2224   -1.5717    0.0000 O   0  0  0  0  0  0  0  0  0  0  0  0
    4.5080    2.1409    0.0000 N   0  0  0  0  0  0  0  0  0  0  0  0
    3.7935    0.9034    0.0000 C   0  0  0  0  0  0  0  0  0  0  0  0
    4.5080    1.3159    0.0000 C   0  0  3  0  0  0  0  0  0  0  0  0
    3.7935    0.0784    0.0000 C   0  0  0  0  0  0  0  0  0  0  0  0
    3.0791   -0.3341    0.0000 C   0  0  0  0  0  0  0  0  0  0  0  0
    4.5080   -0.3341    0.0000 C   0  0  0  0  0  0  0  0  0  0  0  0
    5.2224    0.9034    0.0000 C   0  0  0  0  0  0  0  0  0  0  0  0
    3.7935   -1.5717    0.0000 C   0  0  0  0  0  0  0  0  0  0  0  0
    4.5080   -1.1592    0.0000 C   0  0  0  0  0  0  0  0  0  0  0  0
    3.0791   -1.1592    0.0000 C   0  0  0  0  0  0  0  0  0  0  0  0
    3.7935   -2.3967    0.0000 C   0  0  0  0  0  0  0  0  0  0  0  0
    1.6500   -0.3341    0.0000 C   0  0  0  0  0  0  0  0  0  0  0  0
    5.9370   -1.1592    0.0000 C   0  0  0  0  0  0  0  0  0  0  0  0
  1  7  1  0  0  0  0
  1 14  1  0  0  0  0
  2 11  1  0  0  0  0
  2 15  1  0  0  0  0
  3  5  1  0  0  0  0
  4  5  1  0  0  0  0
  4  6  1  0  0  0  0
  5  9  1  0  0  0  0
  6  7  2  0  0  0  0
  6  8  1  0  0  0  0
  7 12  1  0  0  0  0
  8 11  2  0  0  0  0
 10 11  1  0  0  0  0
 10 12  2  0  0  0  0
 10 13  1  0  0  0  0
M  END
>  <DRUGBANK_ID>
DB01528

>  <DRUG_GROUPS>
illicit; experimental

>  <GENERIC_NAME>
4-Methyl-2,5-dimethoxyamphetamine

>  <CHEMICAL_FORMULA>
C12H19NO2

>  <MOLECULAR_WEIGHT>
209.2848

>  <EXACT_MASS>
209.141578857

>  <IUPAC_NAME>
1-(2,5-dimethoxy-4-methylphenyl)propan-2-amine

>  <INCHI_IDENTIFIER>
InChI=1S/C12H19NO2/c1-8-5-12(15-4)10(6-9(2)13)7-11(8)14-3/h5,7,9H,6,13H2,1-4H3

>  <INCHI_KEY>
InChIKey=NTJQREUGJKIARY-UHFFFAOYSA-N

>  <SMILES>
COC1=CC(CC(C)N)=C(OC)C=C1C

>  <JCHEM_ACCEPTOR_COUNT>
3

>  <JCHEM_DONOR_COUNT>
1

>  <JCHEM_BASIC_PKA>
9.94

>  <JCHEM_PHYSIOLOGICAL_CHARGE>
1

>  <ALOGPS_LOGP>
2.02

>  <JCHEM_LOGP>
2

>  <ALOGPS_LOGS>
-2.3

>  <JCHEM_POLARIZABILITY>
24.09

>  <JCHEM_POLAR_SURFACE_AREA>
44.48

>  <JCHEM_REFRACTIVITY>
61.67

>  <JCHEM_ROTATABLE_BOND_COUNT>
4

>  <ALOGPS_SOLUBILITY>
9.69e-01 g/l __

$$$$
DB01529
 OpenBabel03171413512D

 29 32  0  0  1  0  0  0  0  0999 V2000
    6.6001    0.7145    0.0000 O   0  0  0  0  0  0  0  0  0  0  0  0
    1.6500    0.7145    0.0000 O   0  0  0  0  0  0  0  0  0  0  0  0
    6.9021   -0.4125    0.0000 N   0  0  0  0  0  0  0  0  0  0  0  0
    3.3001    0.7145    0.0000 N   0  0  0  0  0  0  0  0  0  0  0  0
    5.3626    0.0000    0.0000 C   0  0  0  0  0  0  0  0  0  0  0  0
    4.5376    0.0000    0.0000 C   0  0  3  0  0  0  0  0  0  0  0  0
    4.1251    0.7145    0.0000 C   0  0  0  0  0  0  0  0  0  0  0  0
    6.1876    0.0000    0.0000 C   0  0  0  0  0  0  0  0  0  0  0  0
    5.3626    0.8250    0.0000 C   0  0  0  0  0  0  0  0  0  0  0  0
    5.3626   -0.8250    0.0000 C   0  0  0  0  0  0  0  0  0  0  0  0
    6.9884   -1.2330    0.0000 C   0  0  0  0  0  0  0  0  0  0  0  0
    7.6558   -0.0770    0.0000 C   0  0  0  0  0  0  0  0  0  0  0  0
    4.1251   -0.7145    0.0000 C   0  0  0  0  0  0  0  0  0  0  0  0
    7.7953   -1.4045    0.0000 C   0  0  0  0  0  0  0  0  0  0  0  0
    8.2079   -0.6900    0.0000 C   0  0  0  0  0  0  0  0  0  0  0  0
    2.8876    0.0000    0.0000 C   0  0  0  0  0  0  0  0  0  0  0  0
    2.8876    1.4290    0.0000 C   0  0  0  0  0  0  0  0  0  0  0  0
    4.6482    1.2375    0.0000 C   0  0  0  0  0  0  0  0  0  0  0  0
    6.0771   -1.2375    0.0000 C   0  0  0  0  0  0  0  0  0  0  0  0
    6.0771    1.2375    0.0000 C   0  0  0  0  0  0  0  0  0  0  0  0
    4.6482   -1.2375    0.0000 C   0  0  0  0  0  0  0  0  0  0  0  0
    2.0625    0.0000    0.0000 C   0  0  0  0  0  0  0  0  0  0  0  0
    2.0625    1.4290    0.0000 C   0  0  0  0  0  0  0  0  0  0  0  0
    4.6482    2.0625    0.0000 C   0  0  0  0  0  0  0  0  0  0  0  0
    6.0771   -2.0625    0.0000 C   0  0  0  0  0  0  0  0  0  0  0  0
    6.0771    2.0625    0.0000 C   0  0  0  0  0  0  0  0  0  0  0  0
    4.6482   -2.0625    0.0000 C   0  0  0  0  0  0  0  0  0  0  0  0
    5.3626    2.4751    0.0000 C   0  0  0  0  0  0  0  0  0  0  0  0
    5.3626   -2.4751    0.0000 C   0  0  0  0  0  0  0  0  0  0  0  0
  1  8  2  0  0  0  0
  2 22  1  0  0  0  0
  2 23  1  0  0  0  0
  3  8  1  0  0  0  0
  3 11  1  0  0  0  0
  3 12  1  0  0  0  0
  4  7  1  0  0  0  0
  4 16  1  0  0  0  0
  4 17  1  0  0  0  0
  5  6  1  0  0  0  0
  5  8  1  0  0  0  0
  5  9  1  0  0  0  0
  5 10  1  0  0  0  0
  6  7  1  0  0  0  0
  6 13  1  0  0  0  0
  9 18  2  0  0  0  0
  9 20  1  0  0  0  0
 10 19  2  0  0  0  0
 10 21  1  0  0  0  0
 11 14  1  0  0  0  0
 12 15  1  0  0  0  0
 14 15  1  0  0  0  0
 16 22  1  0  0  0  0
 17 23  1  0  0  0  0
 18 24  1  0  0  0  0
 19 25  1  0  0  0  0
 20 26  2  0  0  0  0
 21 27  2  0  0  0  0
 24 28  2  0  0  0  0
 25 29  2  0  0  0  0
 26 28  1  0  0  0  0
 27 29  1  0  0  0  0
M  END
>  <DRUGBANK_ID>
DB01529

>  <DRUG_GROUPS>
illicit; experimental

>  <GENERIC_NAME>
Dextromoramide

>  <CHEMICAL_FORMULA>
C25H32N2O2

>  <MOLECULAR_WEIGHT>
392.5338

>  <EXACT_MASS>
392.246378278

>  <IUPAC_NAME>
3-methyl-4-(morpholin-4-yl)-2,2-diphenyl-1-(pyrrolidin-1-yl)butan-1-one

>  <INCHI_IDENTIFIER>
InChI=1S/C25H32N2O2/c1-21(20-26-16-18-29-19-17-26)25(22-10-4-2-5-11-22,23-12-6-3-7-13-23)24(28)27-14-8-9-15-27/h2-7,10-13,21H,8-9,14-20H2,1H3

>  <INCHI_KEY>
InChIKey=INUNXTSAACVKJS-UHFFFAOYSA-N

>  <SMILES>
CC(CN1CCOCC1)C(C(=O)N1CCCC1)(C1=CC=CC=C1)C1=CC=CC=C1

>  <JCHEM_ACCEPTOR_COUNT>
3

>  <JCHEM_DONOR_COUNT>
0

>  <JCHEM_BASIC_PKA>
7.77

>  <JCHEM_PHYSIOLOGICAL_CHARGE>
1

>  <ALOGPS_LOGP>
4.18

>  <JCHEM_LOGP>
3.75

>  <ALOGPS_LOGS>
-4.3

>  <JCHEM_POLARIZABILITY>
44.84

>  <JCHEM_POLAR_SURFACE_AREA>
32.78

>  <JCHEM_REFRACTIVITY>
117.37

>  <JCHEM_ROTATABLE_BOND_COUNT>
6

>  <ALOGPS_SOLUBILITY>
1.75e-02 g/l __

$$$$
DB01530
 OpenBabel03171413512D

 24 27  0  0  1  0  0  0  0  0999 V2000
    7.5775    1.7429    0.0000 O   0  0  0  0  0  0  0  0  0  0  0  0
    2.0917   -1.8105    0.0000 O   0  0  0  0  0  0  0  0  0  0  0  0
    5.1119   -0.1176    0.0000 C   0  0  1  0  0  0  0  0  0  0  0  0
    5.8262   -0.5300    0.0000 C   0  0  2  0  0  0  0  0  0  0  0  0
    6.5406   -0.1176    0.0000 C   0  0  1  0  0  0  0  0  0  0  0  0
    4.3612   -0.5356    0.0000 C   0  0  2  0  0  0  0  0  0  0  0  0
    6.5406    0.7074    0.0000 C   0  0  2  0  0  0  0  0  0  0  0  0
    4.3545   -1.3948    0.0000 C   0  0  3  0  0  0  0  0  0  0  0  0
    5.1119    0.7074    0.0000 C   0  0  0  0  0  0  0  0  0  0  0  0
    5.8262    1.1199    0.0000 C   0  0  0  0  0  0  0  0  0  0  0  0
    5.8395   -1.3891    0.0000 C   0  0  0  0  0  0  0  0  0  0  0  0
    7.3211   -0.3689    0.0000 C   0  0  0  0  0  0  0  0  0  0  0  0
    7.3211    0.9588    0.0000 C   0  0  2  0  0  0  0  0  0  0  0  0
    5.0987   -1.8245    0.0000 C   0  0  0  0  0  0  0  0  0  0  0  0
    3.5966   -0.0703    0.0000 C   0  0  0  0  0  0  0  0  0  0  0  0
    7.8026    0.2949    0.0000 C   0  0  0  0  0  0  0  0  0  0  0  0
    3.5829   -1.8483    0.0000 C   0  0  0  0  0  0  0  0  0  0  0  0
    4.3676    0.2893    0.0000 C   0  0  0  0  0  0  0  0  0  0  0  0
    6.5406    1.5323    0.0000 C   0  0  0  0  0  0  0  0  0  0  0  0
    2.8147   -0.5058    0.0000 C   0  0  0  0  0  0  0  0  0  0  0  0
    2.8078   -1.4008    0.0000 C   0  0  1  0  0  0  0  0  0  0  0  0
    5.6833    0.2124    0.0000 H   0  0  0  0  0  0  0  0  0  0  0  0
    6.4003   -0.8555    0.0000 H   0  0  0  0  0  0  0  0  0  0  0  0
    6.6105   -0.7738    0.0000 H   0  0  0  0  0  0  0  0  0  0  0  0
  3  4  1  0  0  0  0
  3  6  1  0  0  0  0
  3  9  1  0  0  0  0
  3 22  1  6  0  0  0
  4  5  1  0  0  0  0
  4 11  1  0  0  0  0
  4 23  1  1  0  0  0
  5  7  1  0  0  0  0
  5 12  1  0  0  0  0
  5 24  1  6  0  0  0
  6  8  1  0  0  0  0
  6 15  1  0  0  0  0
  6 18  1  1  0  0  0
  7 10  1  0  0  0  0
  7 13  1  0  0  0  0
  7 19  1  1  0  0  0
  8 14  1  0  0  0  0
  8 17  1  0  0  0  0
  9 10  1  0  0  0  0
 11 14  1  0  0  0  0
 12 16  1  0  0  0  0
 13  1  1  1  0  0  0
 13 16  1  0  0  0  0
 15 20  1  0  0  0  0
 17 21  1  0  0  0  0
 20 21  1  0  0  0  0
 21  2  1  6  0  0  0
M  END
>  <DRUGBANK_ID>
DB01530

>  <DRUG_GROUPS>
illicit; experimental

>  <GENERIC_NAME>
3Alpha,17beta-dihydroxy-5alpha-androstane

>  <CHEMICAL_FORMULA>
C19H32O2

>  <MOLECULAR_WEIGHT>
292.4562

>  <EXACT_MASS>
292.240230268

>  <IUPAC_NAME>
(1S,2S,5R,10R,11S,14S,15S)-2,15-dimethyltetracyclo[8.7.0.0^{2,7}.0^{11,15}]heptadecane-5,14-diol

>  <INCHI_IDENTIFIER>
InChI=1S/C19H32O2/c1-18-9-7-13(20)11-12(18)3-4-14-15-5-6-17(21)19(15,2)10-8-16(14)18/h12-17,20-21H,3-11H2,1-2H3/t12?,13-,14+,15+,16+,17+,18+,19+/m1/s1

>  <INCHI_KEY>
InChIKey=CBMYJHIOYJEBSB-JBDJBKRMSA-N

>  <SMILES>
[H][C@@]12CC[C@H](O)[C@@]1(C)CC[C@@]1([H])[C@@]2([H])CCC2C[C@H](O)CC[C@]12C

>  <JCHEM_ACCEPTOR_COUNT>
2

>  <JCHEM_DONOR_COUNT>
2

>  <JCHEM_ACIDIC_PKA>
18.3

>  <JCHEM_BASIC_PKA>
-0.76

>  <JCHEM_PHYSIOLOGICAL_CHARGE>
0

>  <ALOGPS_LOGP>
3.56

>  <JCHEM_LOGP>
3.2

>  <ALOGPS_LOGS>
-4.2

>  <JCHEM_POLARIZABILITY>
35.41

>  <JCHEM_POLAR_SURFACE_AREA>
40.46

>  <JCHEM_REFRACTIVITY>
84.63

>  <JCHEM_ROTATABLE_BOND_COUNT>
0

>  <ALOGPS_SOLUBILITY>
1.93e-02 g/l __

$$$$
DB01531
 OpenBabel03171413512D

 20 24  0  0  1  0  0  0  0  0999 V2000
    1.9356   -0.2337    0.0000 O   0  0  0  0  0  0  0  0  0  0  0  0
    1.7348    1.8041    0.0000 O   0  0  0  0  0  0  0  0  0  0  0  0
    5.3438   -1.1045    0.0000 N   0  0  0  0  0  0  0  0  0  0  0  0
    3.2005   -0.6920    0.0000 C   0  0  3  0  0  0  0  0  0  0  0  0
    3.9149   -1.1045    0.0000 C   0  0  3  0  0  0  0  0  0  0  0  0
    4.6294   -0.6920    0.0000 C   0  0  3  0  0  0  0  0  0  0  0  0
    2.4860   -1.1045    0.0000 C   0  0  3  0  0  0  0  0  0  0  0  0
    3.6772   -0.0870    0.0000 C   0  0  0  0  0  0  0  0  0  0  0  0
    3.2005    0.1330    0.0000 C   0  0  0  0  0  0  0  0  0  0  0  0
    3.9149   -1.9295    0.0000 C   0  0  0  0  0  0  0  0  0  0  0  0
    2.4860   -1.9295    0.0000 C   0  0  0  0  0  0  0  0  0  0  0  0
    4.6294    0.1330    0.0000 C   0  0  0  0  0  0  0  0  0  0  0  0
    4.8504   -0.0870    0.0000 C   0  0  0  0  0  0  0  0  0  0  0  0
    3.2005   -2.3420    0.0000 C   0  0  0  0  0  0  0  0  0  0  0  0
    3.9149    0.5454    0.0000 C   0  0  0  0  0  0  0  0  0  0  0  0
    2.4860    0.5454    0.0000 C   0  0  0  0  0  0  0  0  0  0  0  0
    5.9347   -1.7395    0.0000 C   0  0  0  0  0  0  0  0  0  0  0  0
    3.9149    1.3704    0.0000 C   0  0  0  0  0  0  0  0  0  0  0  0
    2.4860    1.3704    0.0000 C   0  0  0  0  0  0  0  0  0  0  0  0
    3.2005    1.7829    0.0000 C   0  0  0  0  0  0  0  0  0  0  0  0
  1  7  1  0  0  0  0
  1 16  1  0  0  0  0
  2 19  1  0  0  0  0
  3  6  1  0  0  0  0
  3 13  1  0  0  0  0
  3 17  1  0  0  0  0
  4  5  1  0  0  0  0
  4  7  1  0  0  0  0
  4  8  1  0  0  0  0
  4  9  1  0  0  0  0
  5  6  1  0  0  0  0
  5 10  1  0  0  0  0
  6 12  1  0  0  0  0
  7 11  1  0  0  0  0
  8 13  1  0  0  0  0
  9 15  2  0  0  0  0
  9 16  1  0  0  0  0
 10 14  1  0  0  0  0
 11 14  1  0  0  0  0
 12 15  1  0  0  0  0
 15 18  1  0  0  0  0
 16 19  2  0  0  0  0
 18 20  2  0  0  0  0
 19 20  1  0  0  0  0
M  END
>  <DRUGBANK_ID>
DB01531

>  <DRUG_GROUPS>
illicit; experimental

>  <GENERIC_NAME>
Desomorphine

>  <CHEMICAL_FORMULA>
C17H21NO2

>  <MOLECULAR_WEIGHT>
271.3541

>  <EXACT_MASS>
271.157228921

>  <IUPAC_NAME>
4-methyl-12-oxa-4-azapentacyclo[9.6.1.0^{1,13}.0^{5,17}.0^{7,18}]octadeca-7(18),8,10-trien-10-ol

>  <INCHI_IDENTIFIER>
InChI=1S/C17H21NO2/c1-18-8-7-17-11-3-2-4-14(17)20-16-13(19)6-5-10(15(16)17)9-12(11)18/h5-6,11-12,14,19H,2-4,7-9H2,1H3

>  <INCHI_KEY>
InChIKey=LNNWVNGFPYWNQE-UHFFFAOYSA-N

>  <SMILES>
CN1CCC23C4CCCC2C1CC1=C3C(O4)=C(O)C=C1

>  <JCHEM_ACCEPTOR_COUNT>
3

>  <JCHEM_DONOR_COUNT>
1

>  <JCHEM_ACIDIC_PKA>
10.35

>  <JCHEM_BASIC_PKA>
9.38

>  <JCHEM_PHYSIOLOGICAL_CHARGE>
1

>  <ALOGPS_LOGP>
2.5

>  <JCHEM_LOGP>
2.11

>  <ALOGPS_LOGS>
-2.5

>  <JCHEM_POLARIZABILITY>
29.89

>  <JCHEM_POLAR_SURFACE_AREA>
32.7

>  <JCHEM_REFRACTIVITY>
77.8

>  <JCHEM_ROTATABLE_BOND_COUNT>
0

>  <ALOGPS_SOLUBILITY>
8.60e-01 g/l __

$$$$
DB01532
 OpenBabel03171413512D

 25 27  0  0  1  0  0  0  0  0999 V2000
    1.6500    2.2688    0.0000 O   0  0  0  0  0  0  0  0  0  0  0  0
    3.0791   -0.2063    0.0000 N   0  0  0  0  0  0  0  0  0  0  0  0
    3.0791    2.2688    0.0000 N   0  0  0  0  0  0  0  0  0  0  0  0
    3.0791    1.4438    0.0000 C   0  0  3  0  0  0  0  0  0  0  0  0
    2.3645    1.0313    0.0000 C   0  0  0  0  0  0  0  0  0  0  0  0
    3.7935    1.0313    0.0000 C   0  0  0  0  0  0  0  0  0  0  0  0
    2.3645    0.2063    0.0000 C   0  0  0  0  0  0  0  0  0  0  0  0
    3.7935    0.2063    0.0000 C   0  0  0  0  0  0  0  0  0  0  0  0
    3.0791   -1.0313    0.0000 C   0  0  3  0  0  0  0  0  0  0  0  0
    2.3645   -1.4438    0.0000 C   0  0  0  0  0  0  0  0  0  0  0  0
    3.7935   -1.4438    0.0000 C   0  0  0  0  0  0  0  0  0  0  0  0
    3.7935    2.6813    0.0000 C   0  0  0  0  0  0  0  0  0  0  0  0
    2.3645    2.6813    0.0000 C   0  0  0  0  0  0  0  0  0  0  0  0
    2.3645   -2.2688    0.0000 C   0  0  0  0  0  0  0  0  0  0  0  0
    3.7935    3.5063    0.0000 C   0  0  0  0  0  0  0  0  0  0  0  0
    4.5080    2.2688    0.0000 C   0  0  0  0  0  0  0  0  0  0  0  0
    2.3645    3.5063    0.0000 C   0  0  0  0  0  0  0  0  0  0  0  0
    3.0791   -2.6813    0.0000 C   0  0  0  0  0  0  0  0  0  0  0  0
    1.6500   -2.6813    0.0000 C   0  0  0  0  0  0  0  0  0  0  0  0
    4.5080    3.9188    0.0000 C   0  0  0  0  0  0  0  0  0  0  0  0
    5.2224    2.6813    0.0000 C   0  0  0  0  0  0  0  0  0  0  0  0
    3.0791   -3.5063    0.0000 C   0  0  0  0  0  0  0  0  0  0  0  0
    1.6500   -3.5063    0.0000 C   0  0  0  0  0  0  0  0  0  0  0  0
    5.2224    3.5063    0.0000 C   0  0  0  0  0  0  0  0  0  0  0  0
    2.3645   -3.9188    0.0000 C   0  0  0  0  0  0  0  0  0  0  0  0
  1 13  2  0  0  0  0
  2  7  1  0  0  0  0
  2  8  1  0  0  0  0
  2  9  1  0  0  0  0
  3  4  1  0  0  0  0
  3 12  1  0  0  0  0
  3 13  1  0  0  0  0
  4  5  1  0  0  0  0
  4  6  1  0  0  0  0
  5  7  1  0  0  0  0
  6  8  1  0  0  0  0
  9 10  1  0  0  0  0
  9 11  1  0  0  0  0
 10 14  1  0  0  0  0
 12 15  2  0  0  0  0
 12 16  1  0  0  0  0
 13 17  1  0  0  0  0
 14 18  2  0  0  0  0
 14 19  1  0  0  0  0
 15 20  1  0  0  0  0
 16 21  2  0  0  0  0
 18 22  1  0  0  0  0
 19 23  2  0  0  0  0
 20 24  2  0  0  0  0
 21 24  1  0  0  0  0
 22 25  2  0  0  0  0
 23 25  1  0  0  0  0
M  END
>  <DRUGBANK_ID>
DB01532

>  <DRUG_GROUPS>
illicit; experimental

>  <GENERIC_NAME>
Acetyl-alpha-methylfentanyl

>  <CHEMICAL_FORMULA>
C22H28N2O

>  <MOLECULAR_WEIGHT>
336.4705

>  <EXACT_MASS>
336.220163528

>  <IUPAC_NAME>
N-phenyl-N-[1-(1-phenylpropan-2-yl)piperidin-4-yl]acetamide

>  <INCHI_IDENTIFIER>
InChI=1S/C22H28N2O/c1-18(17-20-9-5-3-6-10-20)23-15-13-22(14-16-23)24(19(2)25)21-11-7-4-8-12-21/h3-12,18,22H,13-17H2,1-2H3

>  <INCHI_KEY>
InChIKey=OKTLVZBUKMRPLL-UHFFFAOYSA-N

>  <SMILES>
CC(CC1=CC=CC=C1)N1CCC(CC1)N(C(C)=O)C1=CC=CC=C1

>  <JCHEM_ACCEPTOR_COUNT>
2

>  <JCHEM_DONOR_COUNT>
0

>  <JCHEM_BASIC_PKA>
9.01

>  <JCHEM_PHYSIOLOGICAL_CHARGE>
1

>  <ALOGPS_LOGP>
4.09

>  <JCHEM_LOGP>
3.53

>  <ALOGPS_LOGS>
-4.2

>  <JCHEM_POLARIZABILITY>
39.94

>  <JCHEM_POLAR_SURFACE_AREA>
23.55

>  <JCHEM_REFRACTIVITY>
103.27

>  <JCHEM_ROTATABLE_BOND_COUNT>
5

>  <ALOGPS_SOLUBILITY>
2.20e-02 g/l __

$$$$
DB01533
 OpenBabel03171413512D

 19 20  0  0  1  0  0  0  0  0999 V2000
    5.9762   -0.3195    0.0000 S   0  0  0  0  0  0  0  0  0  0  0  0
    3.8405   -1.7065    0.0000 S   0  0  0  0  0  0  0  0  0  0  0  0
    3.0791    1.2535    0.0000 N   0  0  0  0  0  0  0  0  0  0  0  0
    3.7935    0.8410    0.0000 C   0  0  3  0  0  0  0  0  0  0  0  0
    2.3645    0.8410    0.0000 C   0  0  0  0  0  0  0  0  0  0  0  0
    3.0791    2.0786    0.0000 C   0  0  0  0  0  0  0  0  0  0  0  0
    3.7935    0.0160    0.0000 C   0  0  0  0  0  0  0  0  0  0  0  0
    4.5080    1.2535    0.0000 C   0  0  0  0  0  0  0  0  0  0  0  0
    4.5080   -0.3965    0.0000 C   0  0  0  0  0  0  0  0  0  0  0  0
    1.6500    1.2535    0.0000 C   0  0  0  0  0  0  0  0  0  0  0  0
    2.3645    2.4911    0.0000 C   0  0  0  0  0  0  0  0  0  0  0  0
    5.2224    0.0160    0.0000 C   0  0  0  0  0  0  0  0  0  0  0  0
    4.5080   -1.2215    0.0000 C   0  0  0  0  0  0  0  0  0  0  0  0
    5.3087    0.8365    0.0000 C   0  0  0  0  0  0  0  0  0  0  0  0
    5.1754   -1.7065    0.0000 C   0  0  0  0  0  0  0  0  0  0  0  0
    6.1157    1.0081    0.0000 C   0  0  0  0  0  0  0  0  0  0  0  0
    4.9205   -2.4911    0.0000 C   0  0  0  0  0  0  0  0  0  0  0  0
    6.5282    0.2935    0.0000 C   0  0  0  0  0  0  0  0  0  0  0  0
    4.0955   -2.4911    0.0000 C   0  0  0  0  0  0  0  0  0  0  0  0
  1 12  1  0  0  0  0
  1 18  1  0  0  0  0
  2 13  1  0  0  0  0
  2 19  1  0  0  0  0
  3  4  1  0  0  0  0
  3  5  1  0  0  0  0
  3  6  1  0  0  0  0
  4  7  1  0  0  0  0
  4  8  1  0  0  0  0
  5 10  1  0  0  0  0
  6 11  1  0  0  0  0
  7  9  2  0  0  0  0
  9 12  1  0  0  0  0
  9 13  1  0  0  0  0
 12 14  2  0  0  0  0
 13 15  2  0  0  0  0
 14 16  1  0  0  0  0
 15 17  1  0  0  0  0
 16 18  2  0  0  0  0
 17 19  2  0  0  0  0
M  END
>  <DRUGBANK_ID>
DB01533

>  <DRUG_GROUPS>
illicit; experimental

>  <GENERIC_NAME>
Diethylthiambutene

>  <CHEMICAL_FORMULA>
C16H21NS2

>  <MOLECULAR_WEIGHT>
291.475

>  <EXACT_MASS>
291.111541057

>  <IUPAC_NAME>
[4,4-bis(thiophen-2-yl)but-3-en-2-yl]diethylamine

>  <INCHI_IDENTIFIER>
InChI=1S/C16H21NS2/c1-4-17(5-2)13(3)12-14(15-8-6-10-18-15)16-9-7-11-19-16/h6-13H,4-5H2,1-3H3

>  <INCHI_KEY>
InChIKey=CBYWMRHUUVRIAF-UHFFFAOYSA-N

>  <SMILES>
CCN(CC)C(C)C=C(C1=CC=CS1)C1=CC=CS1

>  <JCHEM_ACCEPTOR_COUNT>
1

>  <JCHEM_DONOR_COUNT>
0

>  <JCHEM_BASIC_PKA>
9.22

>  <JCHEM_PHYSIOLOGICAL_CHARGE>
1

>  <ALOGPS_LOGP>
5.15

>  <JCHEM_LOGP>
4.91

>  <ALOGPS_LOGS>
-3.7

>  <JCHEM_POLARIZABILITY>
33.69

>  <JCHEM_POLAR_SURFACE_AREA>
3.24

>  <JCHEM_REFRACTIVITY>
96.17

>  <JCHEM_ROTATABLE_BOND_COUNT>
6

>  <ALOGPS_SOLUBILITY>
5.39e-02 g/l __

$$$$
DB01534
 OpenBabel03171413512D

 14 13  0  0  1  0  0  0  0  0999 V2000
    7.0944    0.8019    0.0000 Cl  0  0  0  0  0  0  0  0  0  0  0  0
    6.7925   -0.3251    0.0000 Cl  0  0  0  0  0  0  0  0  0  0  0  0
    5.9674    1.1039    0.0000 Cl  0  0  0  0  0  0  0  0  0  0  0  0
    4.9509    0.3894    0.0000 O   0  0  0  0  0  0  0  0  0  0  0  0
    2.0930   -0.4356    0.0000 O   0  0  0  0  0  0  0  0  0  0  0  0
    5.6655   -0.8481    0.0000 O   0  0  0  0  0  0  0  0  0  0  0  0
    2.8075   -0.0231    0.0000 C   0  0  0  0  0  0  0  0  0  0  0  0
    3.5220    0.3894    0.0000 C   0  0  0  0  0  0  0  0  0  0  0  0
    4.2365   -0.0231    0.0000 C   0  0  3  0  0  0  0  0  0  0  0  0
    2.3950    0.6914    0.0000 C   0  0  0  0  0  0  0  0  0  0  0  0
    3.2200   -0.7376    0.0000 C   0  0  0  0  0  0  0  0  0  0  0  0
    4.2365   -0.8481    0.0000 C   0  0  0  0  0  0  0  0  0  0  0  0
    5.6655   -0.0231    0.0000 C   0  0  3  0  0  0  0  0  0  0  0  0
    6.3799    0.3894    0.0000 C   0  0  0  0  0  0  0  0  0  0  0  0
  1 14  1  0  0  0  0
  2 14  1  0  0  0  0
  3 14  1  0  0  0  0
  4  9  1  0  0  0  0
  4 13  1  0  0  0  0
  5  7  1  0  0  0  0
  6 13  1  0  0  0  0
  7  8  1  0  0  0  0
  7 10  1  0  0  0  0
  7 11  1  0  0  0  0
  8  9  1  0  0  0  0
  9 12  1  0  0  0  0
 13 14  1  0  0  0  0
M  END
>  <DRUGBANK_ID>
DB01534

>  <DRUG_GROUPS>
illicit; experimental

>  <GENERIC_NAME>
Chlorhexadol

>  <CHEMICAL_FORMULA>
C8H15Cl3O3

>  <MOLECULAR_WEIGHT>
265.562

>  <EXACT_MASS>
264.008677467

>  <IUPAC_NAME>
2-methyl-4-(2,2,2-trichloro-1-hydroxyethoxy)pentan-2-ol

>  <INCHI_IDENTIFIER>
InChI=1S/C8H15Cl3O3/c1-5(4-7(2,3)13)14-6(12)8(9,10)11/h5-6,12-13H,4H2,1-3H3

>  <INCHI_KEY>
InChIKey=QVFWZNCVPCJQOP-UHFFFAOYSA-N

>  <SMILES>
CC(CC(C)(C)O)OC(O)C(Cl)(Cl)Cl

>  <JCHEM_ACCEPTOR_COUNT>
3

>  <JCHEM_DONOR_COUNT>
2

>  <JCHEM_ACIDIC_PKA>
9.67

>  <JCHEM_BASIC_PKA>
-2.7

>  <JCHEM_PHYSIOLOGICAL_CHARGE>
0

>  <ALOGPS_LOGP>
2.34

>  <JCHEM_LOGP>
1.82

>  <ALOGPS_LOGS>
-2.3

>  <JCHEM_POLARIZABILITY>
24.4

>  <JCHEM_POLAR_SURFACE_AREA>
49.69

>  <JCHEM_REFRACTIVITY>
58.63

>  <JCHEM_ROTATABLE_BOND_COUNT>
5

>  <ALOGPS_SOLUBILITY>
1.24e+00 g/l __

$$$$
DB01535
 OpenBabel03171413512D

 29 31  0  0  0  0  0  0  0  0999 V2000
    2.2820    1.4946    0.0000 O   0  0  0  0  0  0  0  0  0  0  0  0
    2.7751    2.5520    0.0000 O   0  0  0  0  0  0  0  0  0  0  0  0
    3.4282    3.4054    0.0000 O   0  0  0  0  0  0  0  0  0  0  0  0
    3.6893   -0.4036    0.0000 N   0  0  0  0  0  0  0  0  0  0  0  0
    4.1018    1.9609    0.0000 N   0  0  0  0  0  0  0  0  0  0  0  0
    3.6893    1.2464    0.0000 C   0  0  0  0  0  0  0  0  0  0  0  0
    4.4038    0.8339    0.0000 C   0  0  0  0  0  0  0  0  0  0  0  0
    2.9749    0.8339    0.0000 C   0  0  0  0  0  0  0  0  0  0  0  0
    4.4038    0.0089    0.0000 C   0  0  0  0  0  0  0  0  0  0  0  0
    2.9749    0.0089    0.0000 C   0  0  0  0  0  0  0  0  0  0  0  0
    3.6893   -1.2286    0.0000 C   0  0  0  0  0  0  0  0  0  0  0  0
    3.0573    1.7768    0.0000 C   0  0  0  0  0  0  0  0  0  0  0  0
    4.9268    1.9609    0.0000 C   0  0  0  0  0  0  0  0  0  0  0  0
    2.9749   -1.6411    0.0000 C   0  0  0  0  0  0  0  0  0  0  0  0
    3.9585    2.7734    0.0000 C   0  0  0  0  0  0  0  0  0  0  0  0
    4.5906    3.3037    0.0000 C   0  0  0  0  0  0  0  0  0  0  0  0
    2.9749   -2.4661    0.0000 C   0  0  0  0  0  0  0  0  0  0  0  0
    5.3394    2.6754    0.0000 C   0  0  0  0  0  0  0  0  0  0  0  0
    5.3394    1.2464    0.0000 C   0  0  0  0  0  0  0  0  0  0  0  0
    4.4473    4.1162    0.0000 C   0  0  0  0  0  0  0  0  0  0  0  0
    1.6500    2.0248    0.0000 C   0  0  0  0  0  0  0  0  0  0  0  0
    6.1644    2.6754    0.0000 C   0  0  0  0  0  0  0  0  0  0  0  0
    6.1644    1.2464    0.0000 C   0  0  0  0  0  0  0  0  0  0  0  0
    3.6893   -2.8787    0.0000 C   0  0  0  0  0  0  0  0  0  0  0  0
    2.2603   -2.8787    0.0000 C   0  0  0  0  0  0  0  0  0  0  0  0
    6.5769    1.9609    0.0000 C   0  0  0  0  0  0  0  0  0  0  0  0
    3.6893   -3.7037    0.0000 C   0  0  0  0  0  0  0  0  0  0  0  0
    2.2603   -3.7037    0.0000 C   0  0  0  0  0  0  0  0  0  0  0  0
    2.9749   -4.1162    0.0000 C   0  0  0  0  0  0  0  0  0  0  0  0
  1 12  1  0  0  0  0
  1 21  1  0  0  0  0
  2 12  2  0  0  0  0
  3 15  2  0  0  0  0
  4  9  1  0  0  0  0
  4 10  1  0  0  0  0
  4 11  1  0  0  0  0
  5  6  1  0  0  0  0
  5 13  1  0  0  0  0
  5 15  1  0  0  0  0
  6  7  1  0  0  0  0
  6  8  1  0  0  0  0
  6 12  1  0  0  0  0
  7  9  1  0  0  0  0
  8 10  1  0  0  0  0
 11 14  1  0  0  0  0
 13 18  2  0  0  0  0
 13 19  1  0  0  0  0
 14 17  1  0  0  0  0
 15 16  1  0  0  0  0
 16 20  1  0  0  0  0
 17 24  2  0  0  0  0
 17 25  1  0  0  0  0
 18 22  1  0  0  0  0
 19 23  2  0  0  0  0
 22 26  2  0  0  0  0
 23 26  1  0  0  0  0
 24 27  1  0  0  0  0
 25 28  2  0  0  0  0
 27 29  2  0  0  0  0
 28 29  1  0  0  0  0
M  END
>  <DRUGBANK_ID>
DB01535

>  <DRUG_GROUPS>
illicit; experimental

>  <GENERIC_NAME>
Carfentanil

>  <CHEMICAL_FORMULA>
C24H30N2O3

>  <MOLECULAR_WEIGHT>
394.5066

>  <EXACT_MASS>
394.225642836

>  <IUPAC_NAME>
methyl 1-(2-phenylethyl)-4-(N-phenylpropanamido)piperidine-4-carboxylate

>  <INCHI_IDENTIFIER>
InChI=1S/C24H30N2O3/c1-3-22(27)26(21-12-8-5-9-13-21)24(23(28)29-2)15-18-25(19-16-24)17-14-20-10-6-4-7-11-20/h4-13H,3,14-19H2,1-2H3

>  <INCHI_KEY>
InChIKey=YDSDEBIZUNNPOB-UHFFFAOYSA-N

>  <SMILES>
CCC(=O)N(C1=CC=CC=C1)C1(CCN(CCC2=CC=CC=C2)CC1)C(=O)OC

>  <JCHEM_ACCEPTOR_COUNT>
3

>  <JCHEM_DONOR_COUNT>
0

>  <JCHEM_BASIC_PKA>
8.05

>  <JCHEM_PHYSIOLOGICAL_CHARGE>
1

>  <ALOGPS_LOGP>
3.7

>  <JCHEM_LOGP>
3.67

>  <ALOGPS_LOGS>
-4.2

>  <JCHEM_POLARIZABILITY>
44.6

>  <JCHEM_POLAR_SURFACE_AREA>
49.85

>  <JCHEM_REFRACTIVITY>
114.38

>  <JCHEM_ROTATABLE_BOND_COUNT>
8

>  <ALOGPS_SOLUBILITY>
2.59e-02 g/l __

$$$$
DB01536
 OpenBabel03171413512D

 24 27  0  0  1  0  0  0  0  0999 V2000
    7.1353    1.7956    0.0000 O   0  0  0  0  0  0  0  0  0  0  0  0
    1.6498   -1.7578    0.0000 O   0  0  0  0  0  0  0  0  0  0  0  0
    5.3842   -0.4772    0.0000 C   0  0  2  0  0  0  0  0  0  0  0  0
    4.6697   -0.0648    0.0000 C   0  0  1  0  0  0  0  0  0  0  0  0
    6.0985   -0.0648    0.0000 C   0  0  1  0  0  0  0  0  0  0  0  0
    6.0985    0.7601    0.0000 C   0  0  2  0  0  0  0  0  0  0  0  0
    3.9191   -0.4829    0.0000 C   0  0  2  0  0  0  0  0  0  0  0  0
    4.6697    0.7601    0.0000 C   0  0  0  0  0  0  0  0  0  0  0  0
    5.3842    1.1725    0.0000 C   0  0  0  0  0  0  0  0  0  0  0  0
    5.3974   -1.3363    0.0000 C   0  0  0  0  0  0  0  0  0  0  0  0
    6.8790   -0.3162    0.0000 C   0  0  0  0  0  0  0  0  0  0  0  0
    3.9125   -1.3421    0.0000 C   0  0  0  0  0  0  0  0  0  0  0  0
    6.8790    1.0115    0.0000 C   0  0  0  0  0  0  0  0  0  0  0  0
    4.6566   -1.7717    0.0000 C   0  0  0  0  0  0  0  0  0  0  0  0
    7.3604    0.3477    0.0000 C   0  0  0  0  0  0  0  0  0  0  0  0
    3.1546   -0.0176    0.0000 C   0  0  0  0  0  0  0  0  0  0  0  0
    6.0985    1.5850    0.0000 C   0  0  0  0  0  0  0  0  0  0  0  0
    3.9254    0.3420    0.0000 C   0  0  0  0  0  0  0  0  0  0  0  0
    2.3726   -0.4531    0.0000 C   0  0  0  0  0  0  0  0  0  0  0  0
    3.1409   -1.7956    0.0000 C   0  0  0  0  0  0  0  0  0  0  0  0
    2.3657   -1.3480    0.0000 C   0  0  0  0  0  0  0  0  0  0  0  0
    5.9581   -0.8028    0.0000 H   0  0  0  0  0  0  0  0  0  0  0  0
    5.2413    0.2652    0.0000 H   0  0  0  0  0  0  0  0  0  0  0  0
    6.1683   -0.7210    0.0000 H   0  0  0  0  0  0  0  0  0  0  0  0
  1 13  2  0  0  0  0
  2 21  2  0  0  0  0
  3  4  1  0  0  0  0
  3  5  1  0  0  0  0
  3 10  1  0  0  0  0
  3 22  1  1  0  0  0
  4  7  1  0  0  0  0
  4  8  1  0  0  0  0
  4 23  1  6  0  0  0
  5  6  1  0  0  0  0
  5 11  1  0  0  0  0
  5 24  1  6  0  0  0
  6  9  1  0  0  0  0
  6 13  1  0  0  0  0
  6 17  1  1  0  0  0
  7 12  1  0  0  0  0
  7 16  1  0  0  0  0
  7 18  1  1  0  0  0
  8  9  1  0  0  0  0
 10 14  1  0  0  0  0
 11 15  1  0  0  0  0
 12 14  1  0  0  0  0
 12 20  2  0  0  0  0
 13 15  1  0  0  0  0
 16 19  1  0  0  0  0
 19 21  1  0  0  0  0
 20 21  1  0  0  0  0
M  END
>  <DRUGBANK_ID>
DB01536

>  <DRUG_GROUPS>
illicit; experimental

>  <GENERIC_NAME>
4-Androstenedione

>  <SYNONYMS>
4-Androstene-3,17-dione

>  <CHEMICAL_FORMULA>
C19H26O2

>  <MOLECULAR_WEIGHT>
286.4085

>  <EXACT_MASS>
286.193280076

>  <IUPAC_NAME>
(1S,2R,10R,11S,15S)-2,15-dimethyltetracyclo[8.7.0.0^{2,7}.0^{11,15}]heptadec-6-ene-5,14-dione

>  <INCHI_IDENTIFIER>
InChI=1S/C19H26O2/c1-18-9-7-13(20)11-12(18)3-4-14-15-5-6-17(21)19(15,2)10-8-16(14)18/h11,14-16H,3-10H2,1-2H3/t14-,15-,16-,18-,19-/m0/s1

>  <INCHI_KEY>
InChIKey=AEMFNILZOJDQLW-QAGGRKNESA-N

>  <SMILES>
[H][C@@]12CCC(=O)[C@@]1(C)CC[C@@]1([H])[C@@]2([H])CCC2=CC(=O)CC[C@]12C

>  <JCHEM_ACCEPTOR_COUNT>
2

>  <JCHEM_DONOR_COUNT>
0

>  <JCHEM_ACIDIC_PKA>
19.03

>  <JCHEM_BASIC_PKA>
-4.8

>  <JCHEM_PHYSIOLOGICAL_CHARGE>
0

>  <ALOGPS_LOGP>
2.93

>  <JCHEM_LOGP>
3.93

>  <ALOGPS_LOGS>
-4

>  <JCHEM_POLARIZABILITY>
33.2

>  <JCHEM_POLAR_SURFACE_AREA>
34.14

>  <JCHEM_REFRACTIVITY>
83.61

>  <JCHEM_ROTATABLE_BOND_COUNT>
0

>  <ALOGPS_SOLUBILITY>
2.70e-02 g/l __

$$$$
DB01537
 OpenBabel03171413512D

 14 14  0  0  0  0  0  0  0  0999 V2000
    3.7935   -2.3967    0.0000 Br  0  0  0  0  0  0  0  0  0  0  0  0
    2.3645    0.0784    0.0000 O   0  0  0  0  0  0  0  0  0  0  0  0
    5.2224   -1.5717    0.0000 O   0  0  0  0  0  0  0  0  0  0  0  0
    4.5080    2.1409    0.0000 N   0  0  0  0  0  0  0  0  0  0  0  0
    3.7935    0.0784    0.0000 C   0  0  0  0  0  0  0  0  0  0  0  0
    3.7935    0.9034    0.0000 C   0  0  0  0  0  0  0  0  0  0  0  0
    3.0791   -0.3341    0.0000 C   0  0  0  0  0  0  0  0  0  0  0  0
    4.5080    1.3159    0.0000 C   0  0  0  0  0  0  0  0  0  0  0  0
    4.5080   -0.3341    0.0000 C   0  0  0  0  0  0  0  0  0  0  0  0
    4.5080   -1.1592    0.0000 C   0  0  0  0  0  0  0  0  0  0  0  0
    3.0791   -1.1592    0.0000 C   0  0  0  0  0  0  0  0  0  0  0  0
    3.7935   -1.5717    0.0000 C   0  0  0  0  0  0  0  0  0  0  0  0
    1.6500   -0.3341    0.0000 C   0  0  0  0  0  0  0  0  0  0  0  0
    5.9370   -1.1592    0.0000 C   0  0  0  0  0  0  0  0  0  0  0  0
  1 12  1  0  0  0  0
  2  7  1  0  0  0  0
  2 13  1  0  0  0  0
  3 10  1  0  0  0  0
  3 14  1  0  0  0  0
  4  8  1  0  0  0  0
  5  6  1  0  0  0  0
  5  7  1  0  0  0  0
  5  9  2  0  0  0  0
  6  8  1  0  0  0  0
  7 11  2  0  0  0  0
  9 10  1  0  0  0  0
 10 12  2  0  0  0  0
 11 12  1  0  0  0  0
M  END
>  <DRUGBANK_ID>
DB01537

>  <DRUG_GROUPS>
illicit; experimental

>  <GENERIC_NAME>
4-Bromo-2,5-dimethoxyphenethylamine

>  <CHEMICAL_FORMULA>
C10H14BrNO2

>  <MOLECULAR_WEIGHT>
260.128

>  <EXACT_MASS>
259.020791344

>  <IUPAC_NAME>
2-(4-bromo-2,5-dimethoxyphenyl)ethan-1-amine

>  <INCHI_IDENTIFIER>
InChI=1S/C10H14BrNO2/c1-13-9-6-8(11)10(14-2)5-7(9)3-4-12/h5-6H,3-4,12H2,1-2H3

>  <INCHI_KEY>
InChIKey=YMHOBZXQZVXHBM-UHFFFAOYSA-N

>  <SMILES>
COC1=CC(Br)=C(OC)C=C1CCN

>  <JCHEM_ACCEPTOR_COUNT>
3

>  <JCHEM_DONOR_COUNT>
1

>  <JCHEM_BASIC_PKA>
9.68

>  <JCHEM_PHYSIOLOGICAL_CHARGE>
1

>  <ALOGPS_LOGP>
1.99

>  <JCHEM_LOGP>
1.84

>  <ALOGPS_LOGS>
-3.1

>  <JCHEM_POLARIZABILITY>
23.54

>  <JCHEM_POLAR_SURFACE_AREA>
44.48

>  <JCHEM_REFRACTIVITY>
59.84

>  <JCHEM_ROTATABLE_BOND_COUNT>
4

>  <ALOGPS_SOLUBILITY>
1.99e-01 g/l __

$$$$
DB01538
 OpenBabel03171413512D

 28 32  0  0  1  0  0  0  0  0999 V2000
    2.6869    0.2627    0.0000 O   0  0  0  0  0  0  0  0  0  0  0  0
    2.4861   -1.8669    0.0000 O   0  0  0  0  0  0  0  0  0  0  0  0
    2.4861    2.3007    0.0000 O   0  0  0  0  0  0  0  0  0  0  0  0
    3.2374   -3.1681    0.0000 O   0  0  0  0  0  0  0  0  0  0  0  0
    6.0953   -0.6082    0.0000 N   0  0  0  0  0  0  0  0  0  0  0  0
    3.9519   -0.1956    0.0000 C   0  0  1  0  0  0  0  0  0  0  0  0
    4.6664   -0.6082    0.0000 C   0  0  2  0  0  0  0  0  0  0  0  0
    3.2374   -0.6082    0.0000 C   0  0  2  0  0  0  0  0  0  0  0  0
    5.3808   -0.1956    0.0000 C   0  0  1  0  0  0  0  0  0  0  0  0
    4.4285    0.4094    0.0000 C   0  0  0  0  0  0  0  0  0  0  0  0
    3.9519    0.6293    0.0000 C   0  0  0  0  0  0  0  0  0  0  0  0
    4.6664   -1.4332    0.0000 C   0  0  0  0  0  0  0  0  0  0  0  0
    3.2374   -1.4332    0.0000 C   0  0  2  0  0  0  0  0  0  0  0  0
    5.3808    0.6293    0.0000 C   0  0  0  0  0  0  0  0  0  0  0  0
    3.9519   -1.8457    0.0000 C   0  0  0  0  0  0  0  0  0  0  0  0
    5.6019    0.4094    0.0000 C   0  0  0  0  0  0  0  0  0  0  0  0
    4.6664    1.0419    0.0000 C   0  0  0  0  0  0  0  0  0  0  0  0
    3.2374    1.0419    0.0000 C   0  0  0  0  0  0  0  0  0  0  0  0
    6.6862   -1.2432    0.0000 C   0  0  0  0  0  0  0  0  0  0  0  0
    4.6664    1.8668    0.0000 C   0  0  0  0  0  0  0  0  0  0  0  0
    3.2374    1.8668    0.0000 C   0  0  0  0  0  0  0  0  0  0  0  0
    3.9519    2.2794    0.0000 C   0  0  0  0  0  0  0  0  0  0  0  0
    2.4861   -2.7344    0.0000 C   0  0  0  0  0  0  0  0  0  0  0  0
    1.7349   -3.1680    0.0000 C   0  0  0  0  0  0  0  0  0  0  0  0
    2.4861    3.1681    0.0000 C   0  0  0  0  0  0  0  0  0  0  0  0
    5.1124   -1.1397    0.0000 H   0  0  0  0  0  0  0  0  0  0  0  0
    2.5708   -0.8012    0.0000 H   0  0  0  0  0  0  0  0  0  0  0  0
    5.6188   -0.8476    0.0000 H   0  0  0  0  0  0  0  0  0  0  0  0
  1  8  1  0  0  0  0
  1 18  1  0  0  0  0
  2 23  1  0  0  0  0
  3 21  1  0  0  0  0
  3 25  1  0  0  0  0
  4 23  2  0  0  0  0
  5  9  1  0  0  0  0
  5 16  1  0  0  0  0
  5 19  1  0  0  0  0
  6  7  1  0  0  0  0
  6  8  1  0  0  0  0
  6 10  1  1  0  0  0
  6 11  1  0  0  0  0
  7  9  1  0  0  0  0
  7 12  1  0  0  0  0
  7 26  1  1  0  0  0
  8 13  1  0  0  0  0
  8 27  1  1  0  0  0
  9 14  1  0  0  0  0
  9 28  1  6  0  0  0
 10 16  1  0  0  0  0
 11 17  2  0  0  0  0
 11 18  1  0  0  0  0
 12 15  1  0  0  0  0
 13  2  1  6  0  0  0
 13 15  1  0  0  0  0
 14 17  1  0  0  0  0
 17 20  1  0  0  0  0
 18 21  2  0  0  0  0
 20 22  2  0  0  0  0
 21 22  1  0  0  0  0
 23 24  1  0  0  0  0
M  END
>  <DRUGBANK_ID>
DB01538

>  <DRUG_GROUPS>
illicit; experimental

>  <GENERIC_NAME>
Acetyldihydrocodeine

>  <CHEMICAL_FORMULA>
C20H25NO4

>  <MOLECULAR_WEIGHT>
343.4168

>  <EXACT_MASS>
343.178358293

>  <IUPAC_NAME>
(1S,5R,13R,14S,17R)-10-methoxy-4-methyl-12-oxa-4-azapentacyclo[9.6.1.0^{1,13}.0^{5,17}.0^{7,18}]octadeca-7(18),8,10-trien-14-yl acetate

>  <INCHI_IDENTIFIER>
InChI=1S/C20H25NO4/c1-11(22)24-16-7-5-13-14-10-12-4-6-15(23-3)18-17(12)20(13,19(16)25-18)8-9-21(14)2/h4,6,13-14,16,19H,5,7-10H2,1-3H3/t13-,14+,16-,19-,20-/m0/s1

>  <INCHI_KEY>
InChIKey=LGGDXXJAGWBUSL-BKRJIHRRSA-N

>  <SMILES>
[H][C@@]12OC3=C(OC)C=CC4=C3[C@@]11CCN(C)[C@]([H])(C4)[C@]1([H])CC[C@@H]2OC(C)=O

>  <JCHEM_ACCEPTOR_COUNT>
4

>  <JCHEM_DONOR_COUNT>
0

>  <JCHEM_BASIC_PKA>
9.3

>  <JCHEM_PHYSIOLOGICAL_CHARGE>
1

>  <ALOGPS_LOGP>
2.37

>  <JCHEM_LOGP>
1.99

>  <ALOGPS_LOGS>
-3.4

>  <JCHEM_POLARIZABILITY>
36.79

>  <JCHEM_POLAR_SURFACE_AREA>
48

>  <JCHEM_REFRACTIVITY>
92.79

>  <JCHEM_ROTATABLE_BOND_COUNT>
3

>  <ALOGPS_SOLUBILITY>
1.34e-01 g/l __

$$$$
DB01539
 OpenBabel03171413512D

 14 15  0  0  0  0  0  0  0  0999 V2000
    2.8876    0.4678    0.0000 N   0  0  0  0  0  0  0  0  0  0  0  0
    1.6500    1.1823    0.0000 N   0  0  0  0  0  0  0  0  0  0  0  0
    2.4751   -0.2467    0.0000 C   0  0  0  0  0  0  0  0  0  0  0  0
    3.1895   -0.6592    0.0000 C   0  0  0  0  0  0  0  0  0  0  0  0
    1.7606   -0.6592    0.0000 C   0  0  0  0  0  0  0  0  0  0  0  0
    3.1895   -1.4842    0.0000 C   0  0  0  0  0  0  0  0  0  0  0  0
    1.7606   -1.4842    0.0000 C   0  0  0  0  0  0  0  0  0  0  0  0
    2.4751    1.1823    0.0000 C   0  0  0  0  0  0  0  0  0  0  0  0
    3.7126    0.4678    0.0000 C   0  0  0  0  0  0  0  0  0  0  0  0
    2.4751   -1.8967    0.0000 C   0  0  0  0  0  0  0  0  0  0  0  0
    2.8876    1.8967    0.0000 C   0  0  0  0  0  0  0  0  0  0  0  0
    4.1251    1.1823    0.0000 C   0  0  0  0  0  0  0  0  0  0  0  0
    3.7126    1.8967    0.0000 C   0  0  0  0  0  0  0  0  0  0  0  0
    2.0625    0.4678    0.0000 C   0  0  0  0  0  0  0  0  0  0  0  0
  1  3  1  0  0  0  0
  1  8  1  0  0  0  0
  1  9  1  0  0  0  0
  2 14  3  0  0  0  0
  3  4  1  0  0  0  0
  3  5  1  0  0  0  0
  3 14  1  0  0  0  0
  4  6  1  0  0  0  0
  5  7  1  0  0  0  0
  6 10  1  0  0  0  0
  7 10  1  0  0  0  0
  8 11  1  0  0  0  0
  9 12  1  0  0  0  0
 11 13  1  0  0  0  0
 12 13  1  0  0  0  0
M  END
>  <DRUGBANK_ID>
DB01539

>  <DRUG_GROUPS>
illicit; experimental

>  <GENERIC_NAME>
1-Piperidinocyclohexanecarbonitrile

>  <CHEMICAL_FORMULA>
C12H20N2

>  <MOLECULAR_WEIGHT>
192.3006

>  <EXACT_MASS>
192.16264865

>  <IUPAC_NAME>
1-(piperidin-1-yl)cyclohexane-1-carbonitrile

>  <INCHI_IDENTIFIER>
InChI=1S/C12H20N2/c13-11-12(7-3-1-4-8-12)14-9-5-2-6-10-14/h1-10H2

>  <INCHI_KEY>
InChIKey=WWSAYKJWUZJLRT-UHFFFAOYSA-N

>  <SMILES>
N#CC1(CCCCC1)N1CCCCC1

>  <JCHEM_ACCEPTOR_COUNT>
2

>  <JCHEM_DONOR_COUNT>
0

>  <JCHEM_BASIC_PKA>
6.98

>  <JCHEM_PHYSIOLOGICAL_CHARGE>
0

>  <ALOGPS_LOGP>
2.73

>  <JCHEM_LOGP>
2.6

>  <ALOGPS_LOGS>
-2.6

>  <JCHEM_POLARIZABILITY>
22.81

>  <JCHEM_POLAR_SURFACE_AREA>
27.03

>  <JCHEM_REFRACTIVITY>
58.25

>  <JCHEM_ROTATABLE_BOND_COUNT>
1

>  <ALOGPS_SOLUBILITY>
5.22e-01 g/l __

$$$$
DB01541
 OpenBabel03171413512D

 24 27  0  0  1  0  0  0  0  0999 V2000
    7.1353    1.7429    0.0000 O   0  0  0  0  0  0  0  0  0  0  0  0
    1.6498   -1.8105    0.0000 O   0  0  0  0  0  0  0  0  0  0  0  0
    6.0985   -0.1176    0.0000 C   0  0  2  0  0  0  0  0  0  0  0  0
    6.0985    0.7073    0.0000 C   0  0  2  0  0  0  0  0  0  0  0  0
    5.3842   -0.5300    0.0000 C   0  0  1  0  0  0  0  0  0  0  0  0
    4.6697   -0.1176    0.0000 C   0  0  2  0  0  0  0  0  0  0  0  0
    5.3842    1.1197    0.0000 C   0  0  0  0  0  0  0  0  0  0  0  0
    6.8790    0.9588    0.0000 C   0  0  2  0  0  0  0  0  0  0  0  0
    4.6697    0.7073    0.0000 C   0  0  0  0  0  0  0  0  0  0  0  0
    6.8790   -0.3689    0.0000 C   0  0  0  0  0  0  0  0  0  0  0  0
    3.9191   -0.5356    0.0000 C   0  0  1  0  0  0  0  0  0  0  0  0
    5.3974   -1.3891    0.0000 C   0  0  0  0  0  0  0  0  0  0  0  0
    7.3604    0.2949    0.0000 C   0  0  0  0  0  0  0  0  0  0  0  0
    6.0985    1.5322    0.0000 C   0  0  0  0  0  0  0  0  0  0  0  0
    4.6566   -1.8245    0.0000 C   0  0  0  0  0  0  0  0  0  0  0  0
    3.9125   -1.3948    0.0000 C   0  0  0  0  0  0  0  0  0  0  0  0
    3.9254    0.2893    0.0000 C   0  0  0  0  0  0  0  0  0  0  0  0
    3.1546   -0.0703    0.0000 C   0  0  0  0  0  0  0  0  0  0  0  0
    3.1409   -1.8482    0.0000 C   0  0  0  0  0  0  0  0  0  0  0  0
    2.3726   -0.5058    0.0000 C   0  0  0  0  0  0  0  0  0  0  0  0
    2.3657   -1.4007    0.0000 C   0  0  0  0  0  0  0  0  0  0  0  0
    6.1683   -0.7738    0.0000 H   0  0  0  0  0  0  0  0  0  0  0  0
    5.9581   -0.8555    0.0000 H   0  0  0  0  0  0  0  0  0  0  0  0
    5.2413    0.2124    0.0000 H   0  0  0  0  0  0  0  0  0  0  0  0
  2 21  2  0  0  0  0
  3  4  1  0  0  0  0
  3  5  1  0  0  0  0
  3 10  1  0  0  0  0
  3 22  1  6  0  0  0
  4  7  1  0  0  0  0
  4  8  1  0  0  0  0
  4 14  1  1  0  0  0
  5  6  1  0  0  0  0
  5 12  1  0  0  0  0
  5 23  1  1  0  0  0
  6  9  1  0  0  0  0
  6 11  1  0  0  0  0
  6 24  1  6  0  0  0
  7  9  1  0  0  0  0
  8  1  1  1  0  0  0
  8 13  1  0  0  0  0
 10 13  1  0  0  0  0
 11 16  1  0  0  0  0
 11 17  1  1  0  0  0
 11 18  1  0  0  0  0
 12 15  1  0  0  0  0
 15 16  1  0  0  0  0
 16 19  2  0  0  0  0
 18 20  2  0  0  0  0
 19 21  1  0  0  0  0
 20 21  1  0  0  0  0
M  END
>  <DRUGBANK_ID>
DB01541

>  <DRUG_GROUPS>
illicit; experimental

>  <GENERIC_NAME>
Boldenone

>  <SYNONYMS>
1-Dehydrotestosterone; 1,2-Dehydrotestosterone; 1,2-Didehydrotestosterone; 1,4-Androstadien-17beta-ol-3-one; 1,4-androstadiene-3-one-17beta-ol; 17-beta-Hydroxy-17-alpha-1,4-androstadien-3-one; 17-beta-Hydroxyandrosta-1,4-dien-3-one; 17beta-Boldenone; 17beta-Hydroxyandrosta-1,4-dien-3-one; 17beta-Hydroxyandrosta-1,4-diene-3-one; Boldenona [INN-Spanish]; Boldenonum [INN-Latin]; dehydrotestosterone; delta1-Testosterone

>  <BRANDS>
Equigan; Ganabol; Ultragan

>  <CHEMICAL_FORMULA>
C19H26O2

>  <MOLECULAR_WEIGHT>
286.4085

>  <EXACT_MASS>
286.193280076

>  <IUPAC_NAME>
(1S,2R,10R,11S,14S,15S)-14-hydroxy-2,15-dimethyltetracyclo[8.7.0.0^{2,7}.0^{11,15}]heptadeca-3,6-dien-5-one

>  <INCHI_IDENTIFIER>
InChI=1S/C19H26O2/c1-18-9-7-13(20)11-12(18)3-4-14-15-5-6-17(21)19(15,2)10-8-16(14)18/h7,9,11,14-17,21H,3-6,8,10H2,1-2H3/t14-,15-,16-,17-,18-,19-/m0/s1

>  <INCHI_KEY>
InChIKey=RSIHSRDYCUFFLA-DYKIIFRCSA-N

>  <SMILES>
[H][C@@]12CC[C@H](O)[C@@]1(C)CC[C@@]1([H])[C@@]2([H])CCC2=CC(=O)C=C[C@]12C

>  <JCHEM_ACCEPTOR_COUNT>
2

>  <JCHEM_DONOR_COUNT>
1

>  <JCHEM_ACIDIC_PKA>
18.86

>  <JCHEM_BASIC_PKA>
-0.88

>  <JCHEM_PHYSIOLOGICAL_CHARGE>
0

>  <ALOGPS_LOGP>
3.08

>  <JCHEM_LOGP>
3.36

>  <ALOGPS_LOGS>
-4

>  <JCHEM_POLARIZABILITY>
33.26

>  <JCHEM_POLAR_SURFACE_AREA>
37.3

>  <JCHEM_REFRACTIVITY>
85.52

>  <JCHEM_ROTATABLE_BOND_COUNT>
0

>  <ALOGPS_SOLUBILITY>
2.59e-02 g/l __

$$$$
DB01542
 OpenBabel03171413512D

 21 22  0  0  1  0  0  0  0  0999 V2000
    3.8592    0.6582    0.0000 O   0  0  0  0  0  0  0  0  0  0  0  0
    2.4519    0.9064    0.0000 O   0  0  0  0  0  0  0  0  0  0  0  0
    4.2717   -1.7063    0.0000 N   0  0  0  0  0  0  0  0  0  0  0  0
    4.2717   -0.0563    0.0000 C   0  0  3  0  0  0  0  0  0  0  0  0
    3.5571   -0.4688    0.0000 C   0  0  3  0  0  0  0  0  0  0  0  0
    4.9862   -0.4688    0.0000 C   0  0  0  0  0  0  0  0  0  0  0  0
    3.5571   -1.2938    0.0000 C   0  0  0  0  0  0  0  0  0  0  0  0
    4.9862   -1.2938    0.0000 C   0  0  0  0  0  0  0  0  0  0  0  0
    2.7447   -0.6121    0.0000 C   0  0  0  0  0  0  0  0  0  0  0  0
    4.6842    0.6582    0.0000 C   0  0  0  0  0  0  0  0  0  0  0  0
    4.2717   -2.5313    0.0000 C   0  0  0  0  0  0  0  0  0  0  0  0
    4.2717    1.3727    0.0000 C   0  0  0  0  0  0  0  0  0  0  0  0
    5.5092    0.6582    0.0000 C   0  0  0  0  0  0  0  0  0  0  0  0
    2.4624   -1.3873    0.0000 C   0  0  0  0  0  0  0  0  0  0  0  0
    3.2272    1.1886    0.0000 C   0  0  0  0  0  0  0  0  0  0  0  0
    4.6842    2.0872    0.0000 C   0  0  0  0  0  0  0  0  0  0  0  0
    5.9217    1.3727    0.0000 C   0  0  0  0  0  0  0  0  0  0  0  0
    3.3704    2.0010    0.0000 C   0  0  0  0  0  0  0  0  0  0  0  0
    5.5092    2.0872    0.0000 C   0  0  0  0  0  0  0  0  0  0  0  0
    1.6500   -1.5306    0.0000 C   0  0  0  0  0  0  0  0  0  0  0  0
    2.7384    2.5313    0.0000 C   0  0  0  0  0  0  0  0  0  0  0  0
  1  4  1  0  0  0  0
  1 15  1  0  0  0  0
  2 15  2  0  0  0  0
  3  7  1  0  0  0  0
  3  8  1  0  0  0  0
  3 11  1  0  0  0  0
  4  5  1  0  0  0  0
  4  6  1  0  0  0  0
  4 10  1  0  0  0  0
  5  7  1  0  0  0  0
  5  9  1  0  0  0  0
  6  8  1  0  0  0  0
  9 14  1  0  0  0  0
 10 12  2  0  0  0  0
 10 13  1  0  0  0  0
 12 16  1  0  0  0  0
 13 17  2  0  0  0  0
 14 20  2  0  0  0  0
 15 18  1  0  0  0  0
 16 19  2  0  0  0  0
 17 19  1  0  0  0  0
 18 21  1  0  0  0  0
M  END
>  <DRUGBANK_ID>
DB01542

>  <DRUG_GROUPS>
illicit; experimental

>  <GENERIC_NAME>
Allylprodine

>  <CHEMICAL_FORMULA>
C18H25NO2

>  <MOLECULAR_WEIGHT>
287.3966

>  <EXACT_MASS>
287.188529049

>  <IUPAC_NAME>
1-methyl-4-phenyl-3-(prop-2-en-1-yl)piperidin-4-yl propanoate

>  <INCHI_IDENTIFIER>
InChI=1S/C18H25NO2/c1-4-9-16-14-19(3)13-12-18(16,21-17(20)5-2)15-10-7-6-8-11-15/h4,6-8,10-11,16H,1,5,9,12-14H2,2-3H3

>  <INCHI_KEY>
InChIKey=KGYFOSCXVAXULR-UHFFFAOYSA-N

>  <SMILES>
CCC(=O)OC1(CCN(C)CC1CC=C)C1=CC=CC=C1

>  <JCHEM_ACCEPTOR_COUNT>
2

>  <JCHEM_DONOR_COUNT>
0

>  <JCHEM_BASIC_PKA>
9.19

>  <JCHEM_PHYSIOLOGICAL_CHARGE>
1

>  <ALOGPS_LOGP>
3.82

>  <JCHEM_LOGP>
3.36

>  <ALOGPS_LOGS>
-3.8

>  <JCHEM_POLARIZABILITY>
32.99

>  <JCHEM_POLAR_SURFACE_AREA>
29.54

>  <JCHEM_REFRACTIVITY>
85.66

>  <JCHEM_ROTATABLE_BOND_COUNT>
6

>  <ALOGPS_SOLUBILITY>
4.62e-02 g/l __

$$$$
DB01544
 OpenBabel03171413512D

 23 25  0  0  0  0  0  0  0  0999 V2000
    3.8786   -1.2313    0.0000 F   0  0  0  0  0  0  0  0  0  0  0  0
    2.6107    2.5929    0.0000 O   0  0  0  0  0  0  0  0  0  0  0  0
    2.1373   -2.5929    0.0000 O   0  5  0  0  0  0  0  0  0  0  0  0
    3.5619   -2.4806    0.0000 O   0  0  0  0  0  0  0  0  0  0  0  0
    2.4543    1.2046    0.0000 N   0  0  0  0  0  0  0  0  0  0  0  0
    4.3081    1.2046    0.0000 N   0  0  0  0  0  0  0  0  0  0  0  0
    2.8172   -2.1255    0.0000 N   0  3  0  0  0  0  0  0  0  0  0  0
    3.3812    0.0423    0.0000 C   0  0  0  0  0  0  0  0  0  0  0  0
    2.6379    0.4003    0.0000 C   0  0  0  0  0  0  0  0  0  0  0  0
    4.1245    0.4003    0.0000 C   0  0  0  0  0  0  0  0  0  0  0  0
    3.4586   -0.8135    0.0000 C   0  0  0  0  0  0  0  0  0  0  0  0
    3.7937    1.8496    0.0000 C   0  0  0  0  0  0  0  0  0  0  0  0
    1.9205   -0.0728    0.0000 C   0  0  0  0  0  0  0  0  0  0  0  0
    2.9687    1.8496    0.0000 C   0  0  0  0  0  0  0  0  0  0  0  0
    4.7695   -0.1141    0.0000 C   0  0  0  0  0  0  0  0  0  0  0  0
    2.7524   -1.3031    0.0000 C   0  0  0  0  0  0  0  0  0  0  0  0
    1.9781   -0.9302    0.0000 C   0  0  0  0  0  0  0  0  0  0  0  0
    1.6500    1.3881    0.0000 C   0  0  0  0  0  0  0  0  0  0  0  0
    4.6466   -0.9299    0.0000 C   0  0  0  0  0  0  0  0  0  0  0  0
    5.5375    0.1873    0.0000 C   0  0  0  0  0  0  0  0  0  0  0  0
    5.2915   -1.4442    0.0000 C   0  0  0  0  0  0  0  0  0  0  0  0
    6.1825   -0.3271    0.0000 C   0  0  0  0  0  0  0  0  0  0  0  0
    6.0595   -1.1429    0.0000 C   0  0  0  0  0  0  0  0  0  0  0  0
  1 19  1  0  0  0  0
  2 14  2  0  0  0  0
  3  7  1  0  0  0  0
  4  7  2  0  0  0  0
  5  9  1  0  0  0  0
  5 14  1  0  0  0  0
  5 18  1  0  0  0  0
  6 10  2  0  0  0  0
  6 12  1  0  0  0  0
  7 16  1  0  0  0  0
  8  9  2  0  0  0  0
  8 10  1  0  0  0  0
  8 11  1  0  0  0  0
  9 13  1  0  0  0  0
 10 15  1  0  0  0  0
 11 16  2  0  0  0  0
 12 14  1  0  0  0  0
 13 17  2  0  0  0  0
 15 19  1  0  0  0  0
 15 20  2  0  0  0  0
 16 17  1  0  0  0  0
 19 21  2  0  0  0  0
 20 22  1  0  0  0  0
 21 23  1  0  0  0  0
 22 23  2  0  0  0  0
M  CHG  2   3  -1   7   1
M  END
>  <DRUGBANK_ID>
DB01544

>  <DRUG_GROUPS>
illicit; approved

>  <GENERIC_NAME>
Flunitrazepam

>  <SYNONYMS>
Flunitrazepamum [inn-latin]

>  <BRANDS>
Narcozep; Primun; Rohypnol; Roipnol

>  <CHEMICAL_FORMULA>
C16H12FN3O3

>  <MOLECULAR_WEIGHT>
313.2832

>  <EXACT_MASS>
313.08626947

>  <IUPAC_NAME>
5-(2-fluorophenyl)-1-methyl-7-nitro-2,3-dihydro-1H-1,4-benzodiazepin-2-one

>  <INCHI_IDENTIFIER>
InChI=1S/C16H12FN3O3/c1-19-14-7-6-10(20(22)23)8-12(14)16(18-9-15(19)21)11-4-2-3-5-13(11)17/h2-8H,9H2,1H3

>  <INCHI_KEY>
InChIKey=PPTYJKAXVCCBDU-UHFFFAOYSA-N

>  <SMILES>
CN1C2=C(C=C(C=C2)[N+]([O-])=O)C(=NCC1=O)C1=CC=CC=C1F

>  <JCHEM_ACCEPTOR_COUNT>
4

>  <JCHEM_DONOR_COUNT>
0

>  <JCHEM_BASIC_PKA>
1.7

>  <JCHEM_PHYSIOLOGICAL_CHARGE>
0

>  <ALOGPS_LOGP>
2.2

>  <JCHEM_LOGP>
2.55

>  <ALOGPS_LOGS>
-4.6

>  <JCHEM_POLARIZABILITY>
29.6

>  <JCHEM_POLAR_SURFACE_AREA>
78.49

>  <JCHEM_REFRACTIVITY>
82.55

>  <JCHEM_ROTATABLE_BOND_COUNT>
2

>  <ALOGPS_SOLUBILITY>
8.58e-03 g/l __

$$$$
DB01545
 OpenBabel03171413512D

 25 27  0  0  1  0  0  0  0  0999 V2000
    2.5467   -2.7925    0.0000 Cl  0  0  0  0  0  0  0  0  0  0  0  0
    3.6080   -1.8983    0.0000 F   0  0  0  0  0  0  0  0  0  0  0  0
    4.7038    1.9876    0.0000 O   0  0  0  0  0  0  0  0  0  0  0  0
    2.3403    1.9259    0.0000 O   0  0  0  0  0  0  0  0  0  0  0  0
    3.4164    2.6076    0.0000 O   0  0  0  0  0  0  0  0  0  0  0  0
    2.1839    0.5376    0.0000 N   0  0  0  0  0  0  0  0  0  0  0  0
    4.0375    0.5376    0.0000 N   0  0  0  0  0  0  0  0  0  0  0  0
    3.1107   -0.6247    0.0000 C   0  0  0  0  0  0  0  0  0  0  0  0
    3.8540   -0.2667    0.0000 C   0  0  0  0  0  0  0  0  0  0  0  0
    3.5232    1.1826    0.0000 C   0  0  3  0  0  0  0  0  0  0  0  0
    2.3674   -0.2667    0.0000 C   0  0  0  0  0  0  0  0  0  0  0  0
    4.4990   -0.7811    0.0000 C   0  0  0  0  0  0  0  0  0  0  0  0
    2.6982    1.1826    0.0000 C   0  0  0  0  0  0  0  0  0  0  0  0
    3.1881   -1.4805    0.0000 C   0  0  0  0  0  0  0  0  0  0  0  0
    1.6500   -0.7398    0.0000 C   0  0  0  0  0  0  0  0  0  0  0  0
    3.8811    1.9259    0.0000 C   0  0  0  0  0  0  0  0  0  0  0  0
    2.4818   -1.9701    0.0000 C   0  0  0  0  0  0  0  0  0  0  0  0
    1.7076   -1.5972    0.0000 C   0  0  0  0  0  0  0  0  0  0  0  0
    4.3760   -1.5969    0.0000 C   0  0  0  0  0  0  0  0  0  0  0  0
    5.2670   -0.4797    0.0000 C   0  0  0  0  0  0  0  0  0  0  0  0
    5.0210   -2.1113    0.0000 C   0  0  0  0  0  0  0  0  0  0  0  0
    5.9120   -0.9940    0.0000 C   0  0  0  0  0  0  0  0  0  0  0  0
    5.7890   -1.8099    0.0000 C   0  0  0  0  0  0  0  0  0  0  0  0
    5.0618    2.7308    0.0000 C   0  0  0  0  0  0  0  0  0  0  0  0
    5.8845    2.7925    0.0000 C   0  0  0  0  0  0  0  0  0  0  0  0
  1 17  1  0  0  0  0
  2 19  1  0  0  0  0
  3 16  1  0  0  0  0
  3 24  1  0  0  0  0
  4 13  2  0  0  0  0
  5 16  2  0  0  0  0
  6 11  1  0  0  0  0
  6 13  1  0  0  0  0
  7  9  2  0  0  0  0
  7 10  1  0  0  0  0
  8  9  1  0  0  0  0
  8 11  2  0  0  0  0
  8 14  1  0  0  0  0
  9 12  1  0  0  0  0
 10 13  1  0  0  0  0
 10 16  1  0  0  0  0
 11 15  1  0  0  0  0
 12 19  1  0  0  0  0
 12 20  2  0  0  0  0
 14 17  2  0  0  0  0
 15 18  2  0  0  0  0
 17 18  1  0  0  0  0
 19 21  2  0  0  0  0
 20 22  1  0  0  0  0
 21 23  1  0  0  0  0
 22 23  2  0  0  0  0
 24 25  1  0  0  0  0
M  END
>  <DRUGBANK_ID>
DB01545

>  <DRUG_GROUPS>
illicit; experimental

>  <GENERIC_NAME>
Ethyl loflazepate

>  <CHEMICAL_FORMULA>
C18H14ClFN2O3

>  <MOLECULAR_WEIGHT>
360.767

>  <EXACT_MASS>
360.067698236

>  <IUPAC_NAME>
ethyl 7-chloro-5-(2-fluorophenyl)-2-oxo-2,3-dihydro-1H-1,4-benzodiazepine-3-carboxylate

>  <INCHI_IDENTIFIER>
InChI=1S/C18H14ClFN2O3/c1-2-25-18(24)16-17(23)21-14-8-7-10(19)9-12(14)15(22-16)11-5-3-4-6-13(11)20/h3-9,16H,2H2,1H3,(H,21,23)

>  <INCHI_KEY>
InChIKey=CUCHJCMWNFEYOM-UHFFFAOYSA-N

>  <SMILES>
CCOC(=O)C1N=C(C2=CC=CC=C2F)C2=C(NC1=O)C=CC(Cl)=C2

>  <JCHEM_ACCEPTOR_COUNT>
3

>  <JCHEM_DONOR_COUNT>
1

>  <JCHEM_ACIDIC_PKA>
9.51

>  <JCHEM_BASIC_PKA>
-1.4

>  <JCHEM_PHYSIOLOGICAL_CHARGE>
0

>  <ALOGPS_LOGP>
3.36

>  <JCHEM_LOGP>
3.85

>  <ALOGPS_LOGS>
-4.8

>  <JCHEM_POLARIZABILITY>
35.03

>  <JCHEM_POLAR_SURFACE_AREA>
67.76

>  <JCHEM_REFRACTIVITY>
92.41

>  <JCHEM_ROTATABLE_BOND_COUNT>
4

>  <ALOGPS_SOLUBILITY>
5.25e-03 g/l __

$$$$
DB01546
 OpenBabel03171413512D

 14 15  0  0  1  0  0  0  0  0999 V2000
    3.8597   -1.4804    0.0000 N   0  0  0  0  0  0  0  0  0  0  0  0
    5.1795    1.5859    0.0000 N   0  0  0  0  0  0  0  0  0  0  0  0
    4.9232    0.8018    0.0000 C   0  0  3  0  0  0  0  0  0  0  0  0
    4.1159    0.6316    0.0000 C   0  0  0  0  0  0  0  0  0  0  0  0
    3.8597   -0.1526    0.0000 C   0  0  0  0  0  0  0  0  0  0  0  0
    5.4742    0.1877    0.0000 C   0  0  0  0  0  0  0  0  0  0  0  0
    3.0791   -0.4040    0.0000 C   0  0  0  0  0  0  0  0  0  0  0  0
    3.0791   -1.2290    0.0000 C   0  0  0  0  0  0  0  0  0  0  0  0
    4.3412   -0.8165    0.0000 C   0  0  0  0  0  0  0  0  0  0  0  0
    6.2815    0.3578    0.0000 C   0  0  0  0  0  0  0  0  0  0  0  0
    2.3645    0.0085    0.0000 C   0  0  0  0  0  0  0  0  0  0  0  0
    2.3645   -1.6415    0.0000 C   0  0  0  0  0  0  0  0  0  0  0  0
    1.6500   -0.4040    0.0000 C   0  0  0  0  0  0  0  0  0  0  0  0
    1.6500   -1.2290    0.0000 C   0  0  0  0  0  0  0  0  0  0  0  0
  1  8  1  0  0  0  0
  1  9  1  0  0  0  0
  2  3  1  0  0  0  0
  3  4  1  0  0  0  0
  3  6  1  0  0  0  0
  4  5  1  0  0  0  0
  5  7  1  0  0  0  0
  5  9  2  0  0  0  0
  6 10  1  0  0  0  0
  7  8  1  0  0  0  0
  7 11  2  0  0  0  0
  8 12  2  0  0  0  0
 11 13  1  0  0  0  0
 12 14  1  0  0  0  0
 13 14  2  0  0  0  0
M  END
>  <DRUGBANK_ID>
DB01546

>  <DRUG_GROUPS>
illicit; experimental

>  <GENERIC_NAME>
Alpha-ethyltryptamine

>  <CHEMICAL_FORMULA>
C12H16N2

>  <MOLECULAR_WEIGHT>
188.2688

>  <EXACT_MASS>
188.131348522

>  <IUPAC_NAME>
1-(1H-indol-3-yl)butan-2-amine

>  <INCHI_IDENTIFIER>
InChI=1S/C12H16N2/c1-2-10(13)7-9-8-14-12-6-4-3-5-11(9)12/h3-6,8,10,14H,2,7,13H2,1H3

>  <INCHI_KEY>
InChIKey=ZXUMUPVQYAFTLF-UHFFFAOYSA-N

>  <SMILES>
CCC(N)CC1=CNC2=CC=CC=C12

>  <JCHEM_ACCEPTOR_COUNT>
1

>  <JCHEM_DONOR_COUNT>
2

>  <JCHEM_ACIDIC_PKA>
17.13

>  <JCHEM_BASIC_PKA>
9.99

>  <JCHEM_PHYSIOLOGICAL_CHARGE>
1

>  <ALOGPS_LOGP>
2.55

>  <JCHEM_LOGP>
2.43

>  <ALOGPS_LOGS>
-2.6

>  <JCHEM_POLARIZABILITY>
22.14

>  <JCHEM_POLAR_SURFACE_AREA>
41.81

>  <JCHEM_REFRACTIVITY>
59.32

>  <JCHEM_ROTATABLE_BOND_COUNT>
3

>  <ALOGPS_SOLUBILITY>
4.81e-01 g/l __

$$$$
DB01547
 OpenBabel03171413512D

 25 28  0  0  1  0  0  0  0  0999 V2000
    6.7068    0.9949    0.0000 O   0  0  0  0  0  0  0  0  0  0  0  0
    6.0024   -1.9494    0.0000 O   0  0  0  0  0  0  0  0  0  0  0  0
    3.8357   -0.6834    0.0000 O   0  0  0  0  0  0  0  0  0  0  0  0
    2.3658    0.1501    0.0000 O   0  0  0  0  0  0  0  0  0  0  0  0
    5.6444    1.3999    0.0000 N   0  0  0  0  0  0  0  0  0  0  0  0
    5.2780    0.1700    0.0000 C   0  0  2  0  0  0  0  0  0  0  0  0
    5.9924    0.5825    0.0000 C   0  0  1  0  0  0  0  0  0  0  0  0
    5.9924    1.4074    0.0000 C   0  0  2  0  0  0  0  0  0  0  0  0
    5.2647   -0.6891    0.0000 C   0  0  0  0  0  0  0  0  0  0  0  0
    5.1105    0.4752    0.0000 C   0  0  0  0  0  0  0  0  0  0  0  0
    6.7431    0.1644    0.0000 C   0  0  0  0  0  0  0  0  0  0  0  0
    4.5635    0.5825    0.0000 C   0  0  0  0  0  0  0  0  0  0  0  0
    5.2780    1.8199    0.0000 C   0  0  0  0  0  0  0  0  0  0  0  0
    6.0055   -1.1245    0.0000 C   0  0  1  0  0  0  0  0  0  0  0  0
    5.0415    1.1316    0.0000 C   0  0  0  0  0  0  0  0  0  0  0  0
    6.7497   -0.6948    0.0000 C   0  0  0  0  0  0  0  0  0  0  0  0
    4.5635    1.4074    0.0000 C   0  0  0  0  0  0  0  0  0  0  0  0
    3.8261    0.1415    0.0000 C   0  0  0  0  0  0  0  0  0  0  0  0
    5.8158    2.2068    0.0000 C   0  0  0  0  0  0  0  0  0  0  0  0
    3.8261    1.8486    0.0000 C   0  0  0  0  0  0  0  0  0  0  0  0
    3.0787    0.5654    0.0000 C   0  0  0  0  0  0  0  0  0  0  0  0
    3.0787    1.4246    0.0000 C   0  0  0  0  0  0  0  0  0  0  0  0
    3.1261   -1.1042    0.0000 C   0  0  0  0  0  0  0  0  0  0  0  0
    1.6499    0.5598    0.0000 C   0  0  0  0  0  0  0  0  0  0  0  0
    6.3224    1.9789    0.0000 H   0  0  0  0  0  0  0  0  0  0  0  0
  3 18  1  0  0  0  0
  3 23  1  0  0  0  0
  4 21  1  0  0  0  0
  4 24  1  0  0  0  0
  5  8  1  0  0  0  0
  5 15  1  0  0  0  0
  5 19  1  0  0  0  0
  6  7  1  0  0  0  0
  6  9  1  6  0  0  0
  6 10  1  0  0  0  0
  6 12  1  0  0  0  0
  7  1  1  1  0  0  0
  7  8  1  0  0  0  0
  7 11  1  0  0  0  0
  8 13  1  0  0  0  0
  8 25  1  6  0  0  0
  9 14  1  0  0  0  0
 10 15  1  0  0  0  0
 11 16  1  0  0  0  0
 12 17  2  0  0  0  0
 12 18  1  0  0  0  0
 13 17  1  0  0  0  0
 14  2  1  1  0  0  0
 14 16  1  0  0  0  0
 17 20  1  0  0  0  0
 18 21  2  0  0  0  0
 20 22  2  0  0  0  0
 21 22  1  0  0  0  0
M  END
>  <DRUGBANK_ID>
DB01547

>  <DRUG_GROUPS>
illicit; experimental

>  <GENERIC_NAME>
Drotebanol

>  <CHEMICAL_FORMULA>
C19H27NO4

>  <MOLECULAR_WEIGHT>
333.422

>  <EXACT_MASS>
333.194008357

>  <IUPAC_NAME>
(1R,9R,10S,13R)-3,4-dimethoxy-17-methyl-17-azatetracyclo[7.5.3.0^{1,10}.0^{2,7}]heptadeca-2(7),3,5-triene-10,13-diol

>  <INCHI_IDENTIFIER>
InChI=1S/C19H27NO4/c1-20-9-8-18-11-13(21)6-7-19(18,22)15(20)10-12-4-5-14(23-2)17(24-3)16(12)18/h4-5,13,15,21-22H,6-11H2,1-3H3/t13-,15-,18-,19-/m1/s1

>  <INCHI_KEY>
InChIKey=LCAHPIFLPICNRW-SVYNMNNPSA-N

>  <SMILES>
[H][C@]12CC3=C(C(OC)=C(OC)C=C3)[C@@]3(CCN1C)C[C@H](O)CC[C@@]23O

>  <JCHEM_ACCEPTOR_COUNT>
5

>  <JCHEM_DONOR_COUNT>
2

>  <JCHEM_ACIDIC_PKA>
13.64

>  <JCHEM_BASIC_PKA>
8.9

>  <JCHEM_PHYSIOLOGICAL_CHARGE>
1

>  <ALOGPS_LOGP>
1.61

>  <JCHEM_LOGP>
1.02

>  <ALOGPS_LOGS>
-2.2

>  <JCHEM_POLARIZABILITY>
36.19

>  <JCHEM_POLAR_SURFACE_AREA>
62.16

>  <JCHEM_REFRACTIVITY>
91.99

>  <JCHEM_ROTATABLE_BOND_COUNT>
2

>  <ALOGPS_SOLUBILITY>
2.15e+00 g/l __

$$$$
DB01548
 OpenBabel03171413512D

 32 38  0  0  1  0  0  0  0  0999 V2000
    4.3078   -2.2511    0.0000 O   0  0  0  0  0  0  0  0  0  0  0  0
    6.3944   -2.4225    0.0000 O   0  0  0  0  0  0  0  0  0  0  0  0
    8.0892   -0.9678    0.0000 O   0  0  0  0  0  0  0  0  0  0  0  0
    2.2396   -2.4225    0.0000 O   0  0  0  0  0  0  0  0  0  0  0  0
    5.1420    1.1756    0.0000 N   0  0  0  0  0  0  0  0  0  0  0  0
    5.1420   -0.2533    0.0000 C   0  0  1  0  0  0  0  0  0  0  0  0
    4.7295   -0.9678    0.0000 C   0  0  1  0  0  0  0  0  0  0  0  0
    5.9670   -1.6823    0.0000 C   0  0  3  0  0  0  0  0  0  0  0  0
    5.1420   -1.6823    0.0000 C   0  0  3  0  0  0  0  0  0  0  0  0
    4.7295    0.4612    0.0000 C   0  0  1  0  0  0  0  0  0  0  0  0
    5.9670   -0.2533    0.0000 C   0  0  0  0  0  0  0  0  0  0  0  0
    6.3796   -0.9678    0.0000 C   0  0  3  0  0  0  0  0  0  0  0  0
    5.7378   -0.6378    0.0000 C   0  0  0  0  0  0  0  0  0  0  0  0
    5.4262   -1.2611    0.0000 C   0  0  0  0  0  0  0  0  0  0  0  0
    4.3171   -0.2533    0.0000 C   0  0  0  0  0  0  0  0  0  0  0  0
    3.9045   -0.9678    0.0000 C   0  0  0  0  0  0  0  0  0  0  0  0
    3.9045    0.4612    0.0000 C   0  0  0  0  0  0  0  0  0  0  0  0
    4.3078    1.3238    0.0000 C   0  0  0  0  0  0  0  0  0  0  0  0
    3.4920   -0.2533    0.0000 C   0  0  0  0  0  0  0  0  0  0  0  0
    7.2344   -0.9678    0.0000 C   0  0  0  0  0  0  0  0  0  0  0  0
    3.4920   -1.6823    0.0000 C   0  0  0  0  0  0  0  0  0  0  0  0
    5.9170    1.5364    0.0000 C   0  0  0  0  0  0  0  0  0  0  0  0
    5.9921    2.3878    0.0000 C   0  0  0  0  0  0  0  0  0  0  0  0
    2.6670   -0.2533    0.0000 C   0  0  0  0  0  0  0  0  0  0  0  0
    7.2344   -0.1130    0.0000 C   0  0  0  0  0  0  0  0  0  0  0  0
    7.2344   -1.8226    0.0000 C   0  0  0  0  0  0  0  0  0  0  0  0
    2.6670   -1.6823    0.0000 C   0  0  0  0  0  0  0  0  0  0  0  0
    6.4829    3.0878    0.0000 C   0  0  0  0  0  0  0  0  0  0  0  0
    5.6313    3.1628    0.0000 C   0  0  0  0  0  0  0  0  0  0  0  0
    5.9670   -3.1628    0.0000 C   0  0  0  0  0  0  0  0  0  0  0  0
    2.2545   -0.9678    0.0000 C   0  0  0  0  0  0  0  0  0  0  0  0
    5.3701    0.2217    0.0000 H   0  0  0  0  0  0  0  0  0  0  0  0
  1  9  1  0  0  0  0
  1 21  1  0  0  0  0
  2  8  1  0  0  0  0
  2 30  1  0  0  0  0
  3 20  1  0  0  0  0
  4 27  1  0  0  0  0
  5 10  1  0  0  0  0
  5 18  1  0  0  0  0
  5 22  1  0  0  0  0
  6  7  1  0  0  0  0
  6 10  1  0  0  0  0
  6 11  1  1  0  0  0
  6 13  1  0  0  0  0
  7  9  1  0  0  0  0
  7 15  1  1  0  0  0
  7 16  1  0  0  0  0
  8  9  1  0  0  0  0
  8 12  1  0  0  0  0
  8 14  1  0  0  0  0
 10 17  1  0  0  0  0
 10 32  1  6  0  0  0
 11 12  1  0  0  0  0
 12 20  1  0  0  0  0
 13 14  1  0  0  0  0
 15 18  1  0  0  0  0
 16 19  2  0  0  0  0
 16 21  1  0  0  0  0
 17 19  1  0  0  0  0
 19 24  1  0  0  0  0
 20 25  1  0  0  0  0
 20 26  1  0  0  0  0
 21 27  2  0  0  0  0
 22 23  1  0  0  0  0
 23 28  1  0  0  0  0
 23 29  1  0  0  0  0
 24 31  2  0  0  0  0
 27 31  1  0  0  0  0
 28 29  1  0  0  0  0
M  END
>  <DRUGBANK_ID>
DB01548

>  <DRUG_GROUPS>
illicit; experimental

>  <GENERIC_NAME>
Diprenorphine

>  <CHEMICAL_FORMULA>
C26H35NO4

>  <MOLECULAR_WEIGHT>
425.5604

>  <EXACT_MASS>
425.256608613

>  <IUPAC_NAME>
(1S,2R,6S)-3-(cyclopropylmethyl)-16-(2-hydroxypropan-2-yl)-15-methoxy-13-oxa-3-azahexacyclo[13.2.2.1^{2,8}.0^{1,6}.0^{6,14}.0^{7,12}]icosa-7,9,11-trien-11-ol

>  <INCHI_IDENTIFIER>
InChI=1S/C26H35NO4/c1-23(2,29)18-13-24-8-9-26(18,30-3)22-25(24)10-11-27(14-15-4-5-15)19(24)12-16-6-7-17(28)21(31-22)20(16)25/h6-7,15,18-19,22,28-29H,4-5,8-14H2,1-3H3/t18?,19-,22?,24-,25+,26?/m1/s1

>  <INCHI_KEY>
InChIKey=OIJXLIIMXHRJJH-USQHPYHMSA-N

>  <SMILES>
[H][C@]12CC3=C4C(OC5[C@@]4(CCN1CC1CC1)[C@@]21CCC5(OC)C(C1)C(C)(C)O)=C(O)C=C3

>  <JCHEM_ACCEPTOR_COUNT>
5

>  <JCHEM_DONOR_COUNT>
2

>  <JCHEM_ACIDIC_PKA>
7.5

>  <JCHEM_BASIC_PKA>
12.54

>  <JCHEM_PHYSIOLOGICAL_CHARGE>
1

>  <ALOGPS_LOGP>
3.52

>  <JCHEM_LOGP>
2.28

>  <ALOGPS_LOGS>
-3.6

>  <JCHEM_POLARIZABILITY>
47.44

>  <JCHEM_POLAR_SURFACE_AREA>
62.16

>  <JCHEM_REFRACTIVITY>
118.37

>  <JCHEM_ROTATABLE_BOND_COUNT>
4

>  <ALOGPS_SOLUBILITY>
1.04e-01 g/l __

$$$$
DB01549
 OpenBabel03171413512D

 17 19  0  0  0  0  0  0  0  0999 V2000
    4.0753    0.0355    0.0000 N   0  0  0  0  0  0  0  0  0  0  0  0
    3.3001   -0.2467    0.0000 C   0  0  0  0  0  0  0  0  0  0  0  0
    4.0145   -0.6592    0.0000 C   0  0  0  0  0  0  0  0  0  0  0  0
    2.5856   -0.6592    0.0000 C   0  0  0  0  0  0  0  0  0  0  0  0
    4.0145   -1.4842    0.0000 C   0  0  0  0  0  0  0  0  0  0  0  0
    2.5856   -1.4842    0.0000 C   0  0  0  0  0  0  0  0  0  0  0  0
    4.7593   -0.4259    0.0000 C   0  0  0  0  0  0  0  0  0  0  0  0
    4.3027    0.8285    0.0000 C   0  0  0  0  0  0  0  0  0  0  0  0
    3.3001   -1.8967    0.0000 C   0  0  0  0  0  0  0  0  0  0  0  0
    2.8876    0.4678    0.0000 C   0  0  0  0  0  0  0  0  0  0  0  0
    5.4094    0.0821    0.0000 C   0  0  0  0  0  0  0  0  0  0  0  0
    5.1272    0.8573    0.0000 C   0  0  0  0  0  0  0  0  0  0  0  0
    2.0625    0.4678    0.0000 C   0  0  0  0  0  0  0  0  0  0  0  0
    3.3001    1.1823    0.0000 C   0  0  0  0  0  0  0  0  0  0  0  0
    1.6500    1.1823    0.0000 C   0  0  0  0  0  0  0  0  0  0  0  0
    2.8876    1.8967    0.0000 C   0  0  0  0  0  0  0  0  0  0  0  0
    2.0625    1.8967    0.0000 C   0  0  0  0  0  0  0  0  0  0  0  0
  1  2  1  0  0  0  0
  1  7  1  0  0  0  0
  1  8  1  0  0  0  0
  2  3  1  0  0  0  0
  2  4  1  0  0  0  0
  2 10  1  0  0  0  0
  3  5  1  0  0  0  0
  4  6  1  0  0  0  0
  5  9  1  0  0  0  0
  6  9  1  0  0  0  0
  7 11  1  0  0  0  0
  8 12  1  0  0  0  0
 10 13  2  0  0  0  0
 10 14  1  0  0  0  0
 11 12  1  0  0  0  0
 13 15  1  0  0  0  0
 14 16  2  0  0  0  0
 15 17  2  0  0  0  0
 16 17  1  0  0  0  0
M  END
>  <DRUGBANK_ID>
DB01549

>  <DRUG_GROUPS>
illicit; experimental

>  <GENERIC_NAME>
Rolicyclidine

>  <SYNONYMS>
1-(1-phenylcyclohexyl)pyrrolidine; DEA No. 7458; PCPy; Pyrrolidine analog of phencyclidine; Roliciclidina [INN-Spanish]; Rolicyclidinum [INN-Latin]

>  <CHEMICAL_FORMULA>
C16H23N

>  <MOLECULAR_WEIGHT>
229.3605

>  <EXACT_MASS>
229.183049741

>  <IUPAC_NAME>
1-(1-phenylcyclohexyl)pyrrolidine

>  <INCHI_IDENTIFIER>
InChI=1S/C16H23N/c1-3-9-15(10-4-1)16(11-5-2-6-12-16)17-13-7-8-14-17/h1,3-4,9-10H,2,5-8,11-14H2

>  <INCHI_KEY>
InChIKey=FYOWWXMGDATDQY-UHFFFAOYSA-N

>  <SMILES>
C1CCN(C1)C1(CCCCC1)C1=CC=CC=C1

>  <JCHEM_ACCEPTOR_COUNT>
1

>  <JCHEM_DONOR_COUNT>
0

>  <JCHEM_BASIC_PKA>
10.78

>  <JCHEM_PHYSIOLOGICAL_CHARGE>
1

>  <ALOGPS_LOGP>
4.54

>  <JCHEM_LOGP>
4.04

>  <ALOGPS_LOGS>
-4

>  <JCHEM_POLARIZABILITY>
27.69

>  <JCHEM_POLAR_SURFACE_AREA>
3.24

>  <JCHEM_REFRACTIVITY>
73.05

>  <JCHEM_ROTATABLE_BOND_COUNT>
2

>  <ALOGPS_SOLUBILITY>
2.39e-02 g/l __

$$$$
DB01550
 OpenBabel03171413512D

 14 14  0  0  1  0  0  0  0  0999 V2000
    3.0788    0.8249    0.0000 N   0  0  0  0  0  0  0  0  0  0  0  0
    5.2219    2.8873    0.0000 N   0  0  0  0  0  0  0  0  0  0  0  0
    3.0788    0.0000    0.0000 C   0  0  3  0  0  0  0  0  0  0  0  0
    2.3643   -0.4125    0.0000 C   0  0  0  0  0  0  0  0  0  0  0  0
    2.3643   -1.2374    0.0000 C   0  0  0  0  0  0  0  0  0  0  0  0
    3.7932   -0.4125    0.0000 C   0  0  0  0  0  0  0  0  0  0  0  0
    3.7932    1.2374    0.0000 C   0  0  0  0  0  0  0  0  0  0  0  0
    3.0788   -1.6498    0.0000 C   0  0  0  0  0  0  0  0  0  0  0  0
    1.6498   -1.6498    0.0000 C   0  0  0  0  0  0  0  0  0  0  0  0
    3.7932    2.0623    0.0000 C   0  0  0  0  0  0  0  0  0  0  0  0
    3.0788   -2.4749    0.0000 C   0  0  0  0  0  0  0  0  0  0  0  0
    1.6498   -2.4749    0.0000 C   0  0  0  0  0  0  0  0  0  0  0  0
    2.3643   -2.8873    0.0000 C   0  0  0  0  0  0  0  0  0  0  0  0
    4.5076    2.4749    0.0000 C   0  0  0  0  0  0  0  0  0  0  0  0
  1  3  1  0  0  0  0
  1  7  1  0  0  0  0
  2 14  3  0  0  0  0
  3  4  1  0  0  0  0
  3  6  1  0  0  0  0
  4  5  1  0  0  0  0
  5  8  2  0  0  0  0
  5  9  1  0  0  0  0
  7 10  1  0  0  0  0
  8 11  1  0  0  0  0
  9 12  2  0  0  0  0
 10 14  1  0  0  0  0
 11 13  2  0  0  0  0
 12 13  1  0  0  0  0
M  END
>  <DRUGBANK_ID>
DB01550

>  <DRUG_GROUPS>
illicit; experimental

>  <GENERIC_NAME>
Fenproporex

>  <CHEMICAL_FORMULA>
C12H16N2

>  <MOLECULAR_WEIGHT>
188.2688

>  <EXACT_MASS>
188.131348522

>  <IUPAC_NAME>
3-[(1-phenylpropan-2-yl)amino]propanenitrile

>  <INCHI_IDENTIFIER>
InChI=1S/C12H16N2/c1-11(14-9-5-8-13)10-12-6-3-2-4-7-12/h2-4,6-7,11,14H,5,9-10H2,1H3

>  <INCHI_KEY>
InChIKey=IQUFSXIQAFPIMR-UHFFFAOYSA-N

>  <SMILES>
CC(CC1=CC=CC=C1)NCCC#N

>  <JCHEM_ACCEPTOR_COUNT>
2

>  <JCHEM_DONOR_COUNT>
1

>  <JCHEM_BASIC_PKA>
7.88

>  <JCHEM_PHYSIOLOGICAL_CHARGE>
1

>  <ALOGPS_LOGP>
2.14

>  <JCHEM_LOGP>
2.01

>  <ALOGPS_LOGS>
-3

>  <JCHEM_POLARIZABILITY>
22.04

>  <JCHEM_POLAR_SURFACE_AREA>
35.82

>  <JCHEM_REFRACTIVITY>
58.24

>  <JCHEM_ROTATABLE_BOND_COUNT>
5

>  <ALOGPS_SOLUBILITY>
1.84e-01 g/l __

$$$$
DB01551
 OpenBabel03171413512D

 25 29  0  0  1  0  0  0  0  0999 V2000
    1.9356   -0.1190    0.0000 O   0  0  0  0  0  0  0  0  0  0  0  0
    1.7349   -2.2486    0.0000 O   0  0  0  0  0  0  0  0  0  0  0  0
    1.7349    1.9190    0.0000 O   0  0  0  0  0  0  0  0  0  0  0  0
    5.3440   -0.9899    0.0000 N   0  0  0  0  0  0  0  0  0  0  0  0
    3.2006   -0.5773    0.0000 C   0  0  1  0  0  0  0  0  0  0  0  0
    3.9151   -0.9899    0.0000 C   0  0  2  0  0  0  0  0  0  0  0  0
    2.4861   -0.9899    0.0000 C   0  0  2  0  0  0  0  0  0  0  0  0
    4.6296   -0.5773    0.0000 C   0  0  1  0  0  0  0  0  0  0  0  0
    3.6773    0.0277    0.0000 C   0  0  0  0  0  0  0  0  0  0  0  0
    3.2006    0.2477    0.0000 C   0  0  0  0  0  0  0  0  0  0  0  0
    3.9151   -1.8149    0.0000 C   0  0  0  0  0  0  0  0  0  0  0  0
    2.4861   -1.8149    0.0000 C   0  0  2  0  0  0  0  0  0  0  0  0
    4.6296    0.2477    0.0000 C   0  0  0  0  0  0  0  0  0  0  0  0
    3.2006   -2.2274    0.0000 C   0  0  0  0  0  0  0  0  0  0  0  0
    4.8506    0.0277    0.0000 C   0  0  0  0  0  0  0  0  0  0  0  0
    3.9151    0.6602    0.0000 C   0  0  0  0  0  0  0  0  0  0  0  0
    2.4861    0.6602    0.0000 C   0  0  0  0  0  0  0  0  0  0  0  0
    5.9350   -1.6249    0.0000 C   0  0  0  0  0  0  0  0  0  0  0  0
    3.9151    1.4852    0.0000 C   0  0  0  0  0  0  0  0  0  0  0  0
    2.4861    1.4852    0.0000 C   0  0  0  0  0  0  0  0  0  0  0  0
    3.2006    1.8977    0.0000 C   0  0  0  0  0  0  0  0  0  0  0  0
    1.7349    2.7864    0.0000 C   0  0  0  0  0  0  0  0  0  0  0  0
    4.3612   -1.5214    0.0000 H   0  0  0  0  0  0  0  0  0  0  0  0
    1.8196   -1.1829    0.0000 H   0  0  0  0  0  0  0  0  0  0  0  0
    4.8675   -1.2293    0.0000 H   0  0  0  0  0  0  0  0  0  0  0  0
  1  7  1  0  0  0  0
  1 17  1  0  0  0  0
  3 20  1  0  0  0  0
  3 22  1  0  0  0  0
  4  8  1  0  0  0  0
  4 15  1  0  0  0  0
  4 18  1  0  0  0  0
  5  6  1  0  0  0  0
  5  7  1  0  0  0  0
  5  9  1  1  0  0  0
  5 10  1  0  0  0  0
  6  8  1  0  0  0  0
  6 11  1  0  0  0  0
  6 23  1  1  0  0  0
  7 12  1  0  0  0  0
  7 24  1  1  0  0  0
  8 13  1  0  0  0  0
  8 25  1  6  0  0  0
  9 15  1  0  0  0  0
 10 16  2  0  0  0  0
 10 17  1  0  0  0  0
 11 14  1  0  0  0  0
 12  2  1  6  0  0  0
 12 14  1  0  0  0  0
 13 16  1  0  0  0  0
 16 19  1  0  0  0  0
 17 20  2  0  0  0  0
 19 21  2  0  0  0  0
 20 21  1  0  0  0  0
M  END
>  <DRUGBANK_ID>
DB01551

>  <DRUG_GROUPS>
illicit; experimental

>  <GENERIC_NAME>
Dihydrocodeine

>  <CHEMICAL_FORMULA>
C18H23NO3

>  <MOLECULAR_WEIGHT>
301.3801

>  <EXACT_MASS>
301.167793607

>  <IUPAC_NAME>
(1S,5R,13R,14S,17R)-10-methoxy-4-methyl-12-oxa-4-azapentacyclo[9.6.1.0^{1,13}.0^{5,17}.0^{7,18}]octadeca-7(18),8,10-trien-14-ol

>  <INCHI_IDENTIFIER>
InChI=1S/C18H23NO3/c1-19-8-7-18-11-4-5-13(20)17(18)22-16-14(21-2)6-3-10(15(16)18)9-12(11)19/h3,6,11-13,17,20H,4-5,7-9H2,1-2H3/t11-,12+,13-,17-,18-/m0/s1

>  <INCHI_KEY>
InChIKey=RBOXVHNMENFORY-DNJOTXNNSA-N

>  <SMILES>
[H][C@@]12OC3=C(OC)C=CC4=C3[C@@]11CCN(C)[C@]([H])(C4)[C@]1([H])CC[C@@H]2O

>  <JCHEM_ACCEPTOR_COUNT>
4

>  <JCHEM_DONOR_COUNT>
1

>  <JCHEM_ACIDIC_PKA>
14.15

>  <JCHEM_BASIC_PKA>
9.33

>  <JCHEM_PHYSIOLOGICAL_CHARGE>
1

>  <ALOGPS_LOGP>
1.58

>  <JCHEM_LOGP>
1.55

>  <ALOGPS_LOGS>
-2.1

>  <JCHEM_POLARIZABILITY>
32.82

>  <JCHEM_POLAR_SURFACE_AREA>
41.93

>  <JCHEM_REFRACTIVITY>
83.64

>  <JCHEM_ROTATABLE_BOND_COUNT>
1

>  <ALOGPS_SOLUBILITY>
2.38e+00 g/l __

$$$$
DB01552
 OpenBabel03171413512D

 20 21  0  0  1  0  0  0  0  0999 V2000
    3.0573    0.6582    0.0000 O   0  0  0  0  0  0  0  0  0  0  0  0
    1.6500    0.9064    0.0000 O   0  0  0  0  0  0  0  0  0  0  0  0
    3.4698   -1.7063    0.0000 N   0  0  0  0  0  0  0  0  0  0  0  0
    3.4698   -0.0563    0.0000 C   0  0  3  0  0  0  0  0  0  0  0  0
    2.7553   -0.4688    0.0000 C   0  0  3  0  0  0  0  0  0  0  0  0
    4.1843   -0.4688    0.0000 C   0  0  0  0  0  0  0  0  0  0  0  0
    2.7553   -1.2938    0.0000 C   0  0  0  0  0  0  0  0  0  0  0  0
    4.1843   -1.2938    0.0000 C   0  0  0  0  0  0  0  0  0  0  0  0
    1.9428   -0.6121    0.0000 C   0  0  0  0  0  0  0  0  0  0  0  0
    3.8823    0.6582    0.0000 C   0  0  0  0  0  0  0  0  0  0  0  0
    3.4698   -2.5313    0.0000 C   0  0  0  0  0  0  0  0  0  0  0  0
    1.6606   -1.3873    0.0000 C   0  0  0  0  0  0  0  0  0  0  0  0
    3.4698    1.3727    0.0000 C   0  0  0  0  0  0  0  0  0  0  0  0
    4.7073    0.6582    0.0000 C   0  0  0  0  0  0  0  0  0  0  0  0
    2.4254    1.1886    0.0000 C   0  0  0  0  0  0  0  0  0  0  0  0
    3.8823    2.0872    0.0000 C   0  0  0  0  0  0  0  0  0  0  0  0
    5.1198    1.3727    0.0000 C   0  0  0  0  0  0  0  0  0  0  0  0
    2.5685    2.0010    0.0000 C   0  0  0  0  0  0  0  0  0  0  0  0
    4.7073    2.0872    0.0000 C   0  0  0  0  0  0  0  0  0  0  0  0
    1.9366    2.5313    0.0000 C   0  0  0  0  0  0  0  0  0  0  0  0
  1  4  1  0  0  0  0
  1 15  1  0  0  0  0
  2 15  2  0  0  0  0
  3  7  1  0  0  0  0
  3  8  1  0  0  0  0
  3 11  1  0  0  0  0
  4  5  1  0  0  0  0
  4  6  1  0  0  0  0
  4 10  1  0  0  0  0
  5  7  1  0  0  0  0
  5  9  1  0  0  0  0
  6  8  1  0  0  0  0
  9 12  1  0  0  0  0
 10 13  2  0  0  0  0
 10 14  1  0  0  0  0
 13 16  1  0  0  0  0
 14 17  2  0  0  0  0
 15 18  1  0  0  0  0
 16 19  2  0  0  0  0
 17 19  1  0  0  0  0
 18 20  1  0  0  0  0
M  END
>  <DRUGBANK_ID>
DB01552

>  <DRUG_GROUPS>
illicit; experimental

>  <GENERIC_NAME>
Betameprodine

>  <CHEMICAL_FORMULA>
C17H25NO2

>  <MOLECULAR_WEIGHT>
275.3859

>  <EXACT_MASS>
275.188529049

>  <IUPAC_NAME>
3-ethyl-1-methyl-4-phenylpiperidin-4-yl propanoate

>  <INCHI_IDENTIFIER>
InChI=1S/C17H25NO2/c1-4-14-13-18(3)12-11-17(14,20-16(19)5-2)15-9-7-6-8-10-15/h6-10,14H,4-5,11-13H2,1-3H3

>  <INCHI_KEY>
InChIKey=ODEGQXRCQDVXSJ-UHFFFAOYSA-N

>  <SMILES>
CCC1CN(C)CCC1(OC(=O)CC)C1=CC=CC=C1

>  <JCHEM_ACCEPTOR_COUNT>
2

>  <JCHEM_DONOR_COUNT>
0

>  <JCHEM_BASIC_PKA>
9.1

>  <JCHEM_PHYSIOLOGICAL_CHARGE>
1

>  <ALOGPS_LOGP>
3.46

>  <JCHEM_LOGP>
3.22

>  <ALOGPS_LOGS>
-3.1

>  <JCHEM_POLARIZABILITY>
31.8

>  <JCHEM_POLAR_SURFACE_AREA>
29.54

>  <JCHEM_REFRACTIVITY>
81.01

>  <JCHEM_ROTATABLE_BOND_COUNT>
5

>  <ALOGPS_SOLUBILITY>
2.11e-01 g/l __

$$$$
DB01553
 OpenBabel03171413512D

 23 26  0  0  1  0  0  0  0  0999 V2000
    5.1559   -1.7086    0.0000 Cl  0  0  0  0  0  0  0  0  0  0  0  0
    1.6500   -0.7747    0.0000 Cl  0  0  0  0  0  0  0  0  0  0  0  0
    4.5520   -1.0344    0.0000 O   0  0  0  0  0  0  0  0  0  0  0  0
    5.2103    2.3286    0.0000 O   0  0  0  0  0  0  0  0  0  0  0  0
    5.1832    0.1360    0.0000 N   0  0  3  0  0  0  0  0  0  0  0  0
    4.0273    1.5853    0.0000 N   0  0  0  0  0  0  0  0  0  0  0  0
    4.4398   -0.2220    0.0000 C   0  0  3  0  0  0  0  0  0  0  0  0
    5.7484   -0.4583    0.0000 C   0  0  0  0  0  0  0  0  0  0  0  0
    3.6966    0.1360    0.0000 C   0  0  0  0  0  0  0  0  0  0  0  0
    5.3591   -1.1802    0.0000 C   0  0  0  0  0  0  0  0  0  0  0  0
    5.3667    0.9403    0.0000 C   0  0  0  0  0  0  0  0  0  0  0  0
    3.9751   -0.9036    0.0000 C   0  0  0  0  0  0  0  0  0  0  0  0
    3.5130    0.9403    0.0000 C   0  0  0  0  0  0  0  0  0  0  0  0
    4.8523    1.5853    0.0000 C   0  0  0  0  0  0  0  0  0  0  0  0
    3.0757   -0.4582    0.0000 C   0  0  0  0  0  0  0  0  0  0  0  0
    4.3331   -1.6470    0.0000 C   0  0  0  0  0  0  0  0  0  0  0  0
    3.1524   -0.8420    0.0000 C   0  0  0  0  0  0  0  0  0  0  0  0
    2.6958    1.2062    0.0000 C   0  0  0  0  0  0  0  0  0  0  0  0
    2.2526   -0.2112    0.0000 C   0  0  0  0  0  0  0  0  0  0  0  0
    2.0614    0.6266    0.0000 C   0  0  0  0  0  0  0  0  0  0  0  0
    3.8684   -2.3286    0.0000 C   0  0  0  0  0  0  0  0  0  0  0  0
    2.6876   -1.5236    0.0000 C   0  0  0  0  0  0  0  0  0  0  0  0
    3.0456   -2.2669    0.0000 C   0  0  0  0  0  0  0  0  0  0  0  0
  1 16  1  0  0  0  0
  2 19  1  0  0  0  0
  3  7  1  0  0  0  0
  3 10  1  0  0  0  0
  4 14  2  0  0  0  0
  5  7  1  0  0  0  0
  5  8  1  0  0  0  0
  5 11  1  0  0  0  0
  6 13  1  0  0  0  0
  6 14  1  0  0  0  0
  7  9  1  0  0  0  0
  7 12  1  0  0  0  0
  8 10  1  0  0  0  0
  9 13  2  0  0  0  0
  9 15  1  0  0  0  0
 11 14  1  0  0  0  0
 12 16  1  0  0  0  0
 12 17  2  0  0  0  0
 13 18  1  0  0  0  0
 15 19  2  0  0  0  0
 16 21  2  0  0  0  0
 17 22  1  0  0  0  0
 18 20  2  0  0  0  0
 19 20  1  0  0  0  0
 21 23  1  0  0  0  0
 22 23  2  0  0  0  0
M  END
>  <DRUGBANK_ID>
DB01553

>  <DRUG_GROUPS>
illicit; experimental

>  <GENERIC_NAME>
Cloxazolam

>  <CHEMICAL_FORMULA>
C17H14Cl2N2O2

>  <MOLECULAR_WEIGHT>
349.211

>  <EXACT_MASS>
348.043233116

>  <IUPAC_NAME>
13-chloro-2-(2-chlorophenyl)-3-oxa-6,9-diazatricyclo[8.4.0.0^{2,6}]tetradeca-1(10),11,13-trien-8-one

>  <INCHI_IDENTIFIER>
InChI=1S/C17H14Cl2N2O2/c18-11-5-6-15-13(9-11)17(12-3-1-2-4-14(12)19)21(7-8-23-17)10-16(22)20-15/h1-6,9H,7-8,10H2,(H,20,22)

>  <INCHI_KEY>
InChIKey=ZIXNZOBDFKSQTC-UHFFFAOYSA-N

>  <SMILES>
ClC1=CC2=C(NC(=O)CN3CCOC23C2=CC=CC=C2Cl)C=C1

>  <JCHEM_ACCEPTOR_COUNT>
3

>  <JCHEM_DONOR_COUNT>
1

>  <JCHEM_ACIDIC_PKA>
12.69

>  <JCHEM_BASIC_PKA>
2.6

>  <JCHEM_PHYSIOLOGICAL_CHARGE>
0

>  <ALOGPS_LOGP>
3.56

>  <JCHEM_LOGP>
4.13

>  <ALOGPS_LOGS>
-4.1

>  <JCHEM_POLARIZABILITY>
33.62

>  <JCHEM_POLAR_SURFACE_AREA>
41.57

>  <JCHEM_REFRACTIVITY>
91.05

>  <JCHEM_ROTATABLE_BOND_COUNT>
1

>  <ALOGPS_SOLUBILITY>
2.66e-02 g/l __

$$$$
DB01555
 OpenBabel03171413512D

 26 27  0  0  1  0  0  0  0  0999 V2000
    5.8950   -0.7144    0.0000 O   0  0  0  0  0  0  0  0  0  0  0  0
    7.1325    0.0000    0.0000 O   0  0  0  0  0  0  0  0  0  0  0  0
    2.4253   -0.2482    0.0000 N   0  0  0  0  0  0  0  0  0  0  0  0
    4.6575    0.0000    0.0000 C   0  0  0  0  0  0  0  0  0  0  0  0
    3.8325    0.0000    0.0000 C   0  0  0  0  0  0  0  0  0  0  0  0
    5.4825    0.0000    0.0000 C   0  0  1  0  0  0  0  0  0  0  0  0
    3.0572    0.2822    0.0000 C   0  0  1  0  0  0  0  0  0  0  0  0
    4.6575    0.8250    0.0000 C   0  0  0  0  0  0  0  0  0  0  0  0
    4.6575   -0.8250    0.0000 C   0  0  0  0  0  0  0  0  0  0  0  0
    5.8950    0.7144    0.0000 C   0  0  0  0  0  0  0  0  0  0  0  0
    2.9140    1.0946    0.0000 C   0  0  0  0  0  0  0  0  0  0  0  0
    3.9430    1.2375    0.0000 C   0  0  0  0  0  0  0  0  0  0  0  0
    5.3720   -1.2375    0.0000 C   0  0  0  0  0  0  0  0  0  0  0  0
    5.3720    1.2375    0.0000 C   0  0  0  0  0  0  0  0  0  0  0  0
    3.9430   -1.2375    0.0000 C   0  0  0  0  0  0  0  0  0  0  0  0
    6.7200    0.7144    0.0000 C   0  0  0  0  0  0  0  0  0  0  0  0
    1.6500    0.0341    0.0000 C   0  0  0  0  0  0  0  0  0  0  0  0
    2.5685   -1.0605    0.0000 C   0  0  0  0  0  0  0  0  0  0  0  0
    3.9430    2.0625    0.0000 C   0  0  0  0  0  0  0  0  0  0  0  0
    5.3720   -2.0625    0.0000 C   0  0  0  0  0  0  0  0  0  0  0  0
    5.3720    2.0625    0.0000 C   0  0  0  0  0  0  0  0  0  0  0  0
    3.9430   -2.0625    0.0000 C   0  0  0  0  0  0  0  0  0  0  0  0
    6.7200   -0.7144    0.0000 C   0  0  0  0  0  0  0  0  0  0  0  0
    4.6575    2.4750    0.0000 C   0  0  0  0  0  0  0  0  0  0  0  0
    4.6575   -2.4750    0.0000 C   0  0  0  0  0  0  0  0  0  0  0  0
    7.1325   -1.4290    0.0000 C   0  0  0  0  0  0  0  0  0  0  0  0
  1 23  1  0  0  0  0
  2 23  2  0  0  0  0
  3 17  1  0  0  0  0
  3 18  1  0  0  0  0
  4  5  1  0  0  0  0
  4  6  1  0  0  0  0
  4  8  1  0  0  0  0
  4  9  1  0  0  0  0
  5  7  1  0  0  0  0
  6  1  1  1  0  0  0
  6 10  1  0  0  0  0
  7  3  1  6  0  0  0
  7 11  1  0  0  0  0
  8 12  2  0  0  0  0
  8 14  1  0  0  0  0
  9 13  2  0  0  0  0
  9 15  1  0  0  0  0
 10 16  1  0  0  0  0
 12 19  1  0  0  0  0
 13 20  1  0  0  0  0
 14 21  2  0  0  0  0
 15 22  2  0  0  0  0
 19 24  2  0  0  0  0
 20 25  2  0  0  0  0
 21 24  1  0  0  0  0
 22 25  1  0  0  0  0
 23 26  1  0  0  0  0
M  END
>  <DRUGBANK_ID>
DB01555

>  <DRUG_GROUPS>
illicit; experimental

>  <GENERIC_NAME>
Alphacetylmethadol

>  <CHEMICAL_FORMULA>
C23H31NO2

>  <MOLECULAR_WEIGHT>
353.4977

>  <EXACT_MASS>
353.235479241

>  <IUPAC_NAME>
(3R,6R)-6-(dimethylamino)-4,4-diphenylheptan-3-yl acetate

>  <INCHI_IDENTIFIER>
InChI=1S/C23H31NO2/c1-6-22(26-19(3)25)23(17-18(2)24(4)5,20-13-9-7-10-14-20)21-15-11-8-12-16-21/h7-16,18,22H,6,17H2,1-5H3/t18-,22-/m1/s1

>  <INCHI_KEY>
InChIKey=XBMIVRRWGCYBTQ-XMSQKQJNSA-N

>  <SMILES>
CC[C@@H](OC(C)=O)C(C[C@@H](C)N(C)C)(C1=CC=CC=C1)C1=CC=CC=C1

>  <JCHEM_ACCEPTOR_COUNT>
2

>  <JCHEM_DONOR_COUNT>
0

>  <JCHEM_BASIC_PKA>
9.87

>  <JCHEM_PHYSIOLOGICAL_CHARGE>
1

>  <ALOGPS_LOGP>
4.78

>  <JCHEM_LOGP>
4.88

>  <ALOGPS_LOGS>
-5.3

>  <JCHEM_POLARIZABILITY>
40.82

>  <JCHEM_POLAR_SURFACE_AREA>
29.54

>  <JCHEM_REFRACTIVITY>
117.86

>  <JCHEM_ROTATABLE_BOND_COUNT>
9

>  <ALOGPS_SOLUBILITY>
1.79e-03 g/l __

$$$$
DB01556
 OpenBabel03171413512D

 12 12  0  0  0  0  0  0  0  0999 V2000
    2.3645   -2.3183    0.0000 Cl  0  0  0  0  0  0  0  0  0  0  0  0
    3.7935    1.8068    0.0000 N   0  0  0  0  0  0  0  0  0  0  0  0
    3.0791    1.3943    0.0000 C   0  0  0  0  0  0  0  0  0  0  0  0
    2.3645    0.9818    0.0000 C   0  0  0  0  0  0  0  0  0  0  0  0
    2.6665    2.1087    0.0000 C   0  0  0  0  0  0  0  0  0  0  0  0
    3.4916    0.6798    0.0000 C   0  0  0  0  0  0  0  0  0  0  0  0
    2.3645    0.1568    0.0000 C   0  0  0  0  0  0  0  0  0  0  0  0
    3.0791   -0.2558    0.0000 C   0  0  0  0  0  0  0  0  0  0  0  0
    1.6500   -0.2558    0.0000 C   0  0  0  0  0  0  0  0  0  0  0  0
    3.0791   -1.0808    0.0000 C   0  0  0  0  0  0  0  0  0  0  0  0
    1.6500   -1.0808    0.0000 C   0  0  0  0  0  0  0  0  0  0  0  0
    2.3645   -1.4933    0.0000 C   0  0  0  0  0  0  0  0  0  0  0  0
  1 12  1  0  0  0  0
  2  3  1  0  0  0  0
  3  4  1  0  0  0  0
  3  5  1  0  0  0  0
  3  6  1  0  0  0  0
  4  7  1  0  0  0  0
  7  8  2  0  0  0  0
  7  9  1  0  0  0  0
  8 10  1  0  0  0  0
  9 11  2  0  0  0  0
 10 12  2  0  0  0  0
 11 12  1  0  0  0  0
M  END
>  <DRUGBANK_ID>
DB01556

>  <DRUG_GROUPS>
illicit; experimental; withdrawn

>  <GENERIC_NAME>
Chlorphentermine

>  <SYNONYMS>
1-(4-Chlorophenyl)-2-methyl-2-propanamine; 1-(p-Chlorophenyl)-2-methyl-2-aminopropane; 1-(p-Chlorophenyl)-2-methyl-2-aminopropane hydrochloride; 4-Chloro-alpha,alpha-dimethylbenzeneethanamine; 4-Chloro-alpha,alpha-dimethylphenethylamine; alpha,alpha-dimethyl-p-chlorophenethylamine; Beta-(p-chlorophenyl)-alpha,alpha-dimethylethylamine; Chlorophentermine; Chlorophentermine hydrochloride; Chlorpentermine; Chlorphenteramine; Chlorphentermine hydrochloride; Chlorphenterminum [inn-latin]; Chlorphenterminum hydrochloride; Clorfentermina [inn-spanish]; P-chloro-alpha,alpha-dimethylphenethylamine; P-chlorphentermine hydrochloride

>  <BRANDS>
Apsedon; Clomina; Desopimon; Dezopimon; Effox; Lucofen; Lucofene; Nilgana

>  <CHEMICAL_FORMULA>
C10H14ClN

>  <MOLECULAR_WEIGHT>
183.678

>  <EXACT_MASS>
183.08147716

>  <IUPAC_NAME>
1-(4-chlorophenyl)-2-methylpropan-2-amine

>  <INCHI_IDENTIFIER>
InChI=1S/C10H14ClN/c1-10(2,12)7-8-3-5-9(11)6-4-8/h3-6H,7,12H2,1-2H3

>  <INCHI_KEY>
InChIKey=ZCKAMNXUHHNZLN-UHFFFAOYSA-N

>  <SMILES>
CC(C)(N)CC1=CC=C(Cl)C=C1

>  <JCHEM_ACCEPTOR_COUNT>
1

>  <JCHEM_DONOR_COUNT>
1

>  <JCHEM_BASIC_PKA>
10.24

>  <JCHEM_PHYSIOLOGICAL_CHARGE>
1

>  <ALOGPS_LOGP>
2.81

>  <JCHEM_LOGP>
2.69

>  <ALOGPS_LOGS>
-3.2

>  <JCHEM_POLARIZABILITY>
20.19

>  <JCHEM_POLAR_SURFACE_AREA>
26.02

>  <JCHEM_REFRACTIVITY>
53.15

>  <JCHEM_ROTATABLE_BOND_COUNT>
2

>  <ALOGPS_SOLUBILITY>
1.05e-01 g/l __

$$$$
DB01557
 OpenBabel03171413512D

 26 28  0  0  1  0  0  0  0  0999 V2000
    1.6500    2.2688    0.0000 O   0  0  0  0  0  0  0  0  0  0  0  0
    3.0791   -0.2063    0.0000 N   0  0  0  0  0  0  0  0  0  0  0  0
    3.0791    2.2688    0.0000 N   0  0  0  0  0  0  0  0  0  0  0  0
    3.0791    1.4438    0.0000 C   0  0  3  0  0  0  0  0  0  0  0  0
    2.3645    1.0313    0.0000 C   0  0  0  0  0  0  0  0  0  0  0  0
    3.7935    1.0313    0.0000 C   0  0  0  0  0  0  0  0  0  0  0  0
    2.3645    0.2063    0.0000 C   0  0  0  0  0  0  0  0  0  0  0  0
    3.7935    0.2063    0.0000 C   0  0  0  0  0  0  0  0  0  0  0  0
    3.0791   -1.0313    0.0000 C   0  0  3  0  0  0  0  0  0  0  0  0
    2.3645   -1.4438    0.0000 C   0  0  0  0  0  0  0  0  0  0  0  0
    3.7935   -1.4438    0.0000 C   0  0  0  0  0  0  0  0  0  0  0  0
    3.7935    2.6813    0.0000 C   0  0  0  0  0  0  0  0  0  0  0  0
    2.3645    2.6813    0.0000 C   0  0  0  0  0  0  0  0  0  0  0  0
    2.3645   -2.2688    0.0000 C   0  0  0  0  0  0  0  0  0  0  0  0
    2.3645    3.5063    0.0000 C   0  0  0  0  0  0  0  0  0  0  0  0
    3.7935    3.5063    0.0000 C   0  0  0  0  0  0  0  0  0  0  0  0
    4.5080    2.2688    0.0000 C   0  0  0  0  0  0  0  0  0  0  0  0
    3.0791   -2.6813    0.0000 C   0  0  0  0  0  0  0  0  0  0  0  0
    1.6500   -2.6813    0.0000 C   0  0  0  0  0  0  0  0  0  0  0  0
    1.6500    3.9188    0.0000 C   0  0  0  0  0  0  0  0  0  0  0  0
    4.5080    3.9188    0.0000 C   0  0  0  0  0  0  0  0  0  0  0  0
    5.2224    2.6813    0.0000 C   0  0  0  0  0  0  0  0  0  0  0  0
    3.0791   -3.5063    0.0000 C   0  0  0  0  0  0  0  0  0  0  0  0
    1.6500   -3.5063    0.0000 C   0  0  0  0  0  0  0  0  0  0  0  0
    5.2224    3.5063    0.0000 C   0  0  0  0  0  0  0  0  0  0  0  0
    2.3645   -3.9188    0.0000 C   0  0  0  0  0  0  0  0  0  0  0  0
  1 13  2  0  0  0  0
  2  7  1  0  0  0  0
  2  8  1  0  0  0  0
  2  9  1  0  0  0  0
  3  4  1  0  0  0  0
  3 12  1  0  0  0  0
  3 13  1  0  0  0  0
  4  5  1  0  0  0  0
  4  6  1  0  0  0  0
  5  7  1  0  0  0  0
  6  8  1  0  0  0  0
  9 10  1  0  0  0  0
  9 11  1  0  0  0  0
 10 14  1  0  0  0  0
 12 16  2  0  0  0  0
 12 17  1  0  0  0  0
 13 15  1  0  0  0  0
 14 18  2  0  0  0  0
 14 19  1  0  0  0  0
 15 20  1  0  0  0  0
 16 21  1  0  0  0  0
 17 22  2  0  0  0  0
 18 23  1  0  0  0  0
 19 24  2  0  0  0  0
 21 25  2  0  0  0  0
 22 25  1  0  0  0  0
 23 26  2  0  0  0  0
 24 26  1  0  0  0  0
M  END
>  <DRUGBANK_ID>
DB01557

>  <DRUG_GROUPS>
illicit; experimental

>  <GENERIC_NAME>
Alpha-methylfentanyl

>  <CHEMICAL_FORMULA>
C23H30N2O

>  <MOLECULAR_WEIGHT>
350.4971

>  <EXACT_MASS>
350.235813592

>  <IUPAC_NAME>
N-phenyl-N-[1-(1-phenylpropan-2-yl)piperidin-4-yl]propanamide

>  <INCHI_IDENTIFIER>
InChI=1S/C23H30N2O/c1-3-23(26)25(21-12-8-5-9-13-21)22-14-16-24(17-15-22)19(2)18-20-10-6-4-7-11-20/h4-13,19,22H,3,14-18H2,1-2H3

>  <INCHI_KEY>
InChIKey=NGTVDHYUFBKWID-UHFFFAOYSA-N

>  <SMILES>
CCC(=O)N(C1CCN(CC1)C(C)CC1=CC=CC=C1)C1=CC=CC=C1

>  <JCHEM_ACCEPTOR_COUNT>
2

>  <JCHEM_DONOR_COUNT>
0

>  <JCHEM_BASIC_PKA>
9

>  <JCHEM_PHYSIOLOGICAL_CHARGE>
1

>  <ALOGPS_LOGP>
4.49

>  <JCHEM_LOGP>
4.23

>  <ALOGPS_LOGS>
-4.4

>  <JCHEM_POLARIZABILITY>
41.91

>  <JCHEM_POLAR_SURFACE_AREA>
23.55

>  <JCHEM_REFRACTIVITY>
107.9

>  <JCHEM_ROTATABLE_BOND_COUNT>
6

>  <ALOGPS_SOLUBILITY>
1.40e-02 g/l __

$$$$
DB01558
 OpenBabel03171413512D

 19 21  0  0  0  0  0  0  0  0999 V2000
    2.5467   -2.3593    0.0000 Br  0  0  0  0  0  0  0  0  0  0  0  0
    2.3403    2.3593    0.0000 O   0  0  0  0  0  0  0  0  0  0  0  0
    2.1839    0.9709    0.0000 N   0  0  0  0  0  0  0  0  0  0  0  0
    4.0375    0.9709    0.0000 N   0  0  0  0  0  0  0  0  0  0  0  0
    5.2670   -0.0464    0.0000 N   0  0  0  0  0  0  0  0  0  0  0  0
    3.1107   -0.1914    0.0000 C   0  0  0  0  0  0  0  0  0  0  0  0
    2.3674    0.1666    0.0000 C   0  0  0  0  0  0  0  0  0  0  0  0
    3.8540    0.1666    0.0000 C   0  0  0  0  0  0  0  0  0  0  0  0
    3.1881   -1.0473    0.0000 C   0  0  0  0  0  0  0  0  0  0  0  0
    3.5232    1.6159    0.0000 C   0  0  0  0  0  0  0  0  0  0  0  0
    4.4990   -0.3478    0.0000 C   0  0  0  0  0  0  0  0  0  0  0  0
    1.6500   -0.3065    0.0000 C   0  0  0  0  0  0  0  0  0  0  0  0
    2.6982    1.6159    0.0000 C   0  0  0  0  0  0  0  0  0  0  0  0
    2.4818   -1.5367    0.0000 C   0  0  0  0  0  0  0  0  0  0  0  0
    1.7076   -1.1639    0.0000 C   0  0  0  0  0  0  0  0  0  0  0  0
    4.3760   -1.1636    0.0000 C   0  0  0  0  0  0  0  0  0  0  0  0
    5.0210   -1.6780    0.0000 C   0  0  0  0  0  0  0  0  0  0  0  0
    5.9120   -0.5608    0.0000 C   0  0  0  0  0  0  0  0  0  0  0  0
    5.7890   -1.3765    0.0000 C   0  0  0  0  0  0  0  0  0  0  0  0
  1 14  1  0  0  0  0
  2 13  2  0  0  0  0
  3  7  1  0  0  0  0
  3 13  1  0  0  0  0
  4  8  2  0  0  0  0
  4 10  1  0  0  0  0
  5 11  1  0  0  0  0
  5 18  2  0  0  0  0
  6  7  2  0  0  0  0
  6  8  1  0  0  0  0
  6  9  1  0  0  0  0
  7 12  1  0  0  0  0
  8 11  1  0  0  0  0
  9 14  2  0  0  0  0
 10 13  1  0  0  0  0
 11 16  2  0  0  0  0
 12 15  2  0  0  0  0
 14 15  1  0  0  0  0
 16 17  1  0  0  0  0
 17 19  2  0  0  0  0
 18 19  1  0  0  0  0
M  END
>  <DRUGBANK_ID>
DB01558

>  <DRUG_GROUPS>
illicit; approved

>  <GENERIC_NAME>
Bromazepam

>  <SYNONYMS>
7-Bromo-5-(2-pyridyl)-3H-1,4-benzodiaxepin-2(1H)-one; 7-Bromo-5-(2-pyridyl)-3H-1,4-benzodiazepin-2(1H)-one; Bromazepamum [inn-latin]

>  <BRANDS>
Apo-Bromazepam; Calmepam; Compedium; Compendium; Creosedin; Durazanil; Gen-Bromazepam; Lectopam; Lekotam; Lexaurin; Lexilium; Lexomil; Lexotan; Lexotanil; Normoc; Novo-bromazepam; Nu-Bromazepam; Somalium; Ultramidol

>  <CHEMICAL_FORMULA>
C14H10BrN3O

>  <MOLECULAR_WEIGHT>
316.153

>  <EXACT_MASS>
315.000724604

>  <IUPAC_NAME>
7-bromo-5-(pyridin-2-yl)-2,3-dihydro-1H-1,4-benzodiazepin-2-one

>  <INCHI_IDENTIFIER>
InChI=1S/C14H10BrN3O/c15-9-4-5-11-10(7-9)14(17-8-13(19)18-11)12-3-1-2-6-16-12/h1-7H,8H2,(H,18,19)

>  <INCHI_KEY>
InChIKey=VMIYHDSEFNYJSL-UHFFFAOYSA-N

>  <SMILES>
BrC1=CC2=C(NC(=O)CN=C2C2=CC=CC=N2)C=C1

>  <JCHEM_ACCEPTOR_COUNT>
3

>  <JCHEM_DONOR_COUNT>
1

>  <JCHEM_ACIDIC_PKA>
12.24

>  <JCHEM_BASIC_PKA>
2.68

>  <JCHEM_PHYSIOLOGICAL_CHARGE>
0

>  <ALOGPS_LOGP>
2.09

>  <JCHEM_LOGP>
2.54

>  <ALOGPS_LOGS>
-3.9

>  <JCHEM_POLARIZABILITY>
28.11

>  <JCHEM_POLAR_SURFACE_AREA>
54.35

>  <JCHEM_REFRACTIVITY>
76.99

>  <JCHEM_ROTATABLE_BOND_COUNT>
1

>  <ALOGPS_SOLUBILITY>
3.99e-02 g/l __

$$$$
DB01559
 OpenBabel03171413512D

 21 23  0  0  0  0  0  0  0  0999 V2000
    4.5315    0.6150    0.0000 Cl  0  0  0  0  0  0  0  0  0  0  0  0
    4.3908   -1.4629    0.0000 S   0  0  0  0  0  0  0  0  0  0  0  0
    1.6500   -2.2011    0.0000 O   0  0  0  0  0  0  0  0  0  0  0  0
    2.9664   -1.7330    0.0000 N   0  0  0  0  0  0  0  0  0  0  0  0
    2.1538   -0.0668    0.0000 N   0  0  0  0  0  0  0  0  0  0  0  0
    3.6048   -0.3904    0.0000 C   0  0  0  0  0  0  0  0  0  0  0  0
    3.6089   -1.2154    0.0000 C   0  0  0  0  0  0  0  0  0  0  0  0
    2.9572    0.1207    0.0000 C   0  0  0  0  0  0  0  0  0  0  0  0
    4.8689   -0.7966    0.0000 C   0  0  0  0  0  0  0  0  0  0  0  0
    4.3842   -0.1351    0.0000 C   0  0  0  0  0  0  0  0  0  0  0  0
    5.6940   -0.7925    0.0000 C   0  0  0  0  0  0  0  0  0  0  0  0
    1.7995   -0.8120    0.0000 C   0  0  0  0  0  0  0  0  0  0  0  0
    2.1612   -1.5535    0.0000 C   0  0  0  0  0  0  0  0  0  0  0  0
    3.1368    0.9260    0.0000 C   0  0  0  0  0  0  0  0  0  0  0  0
    3.1541   -2.5364    0.0000 C   0  0  0  0  0  0  0  0  0  0  0  0
    6.1100   -1.5049    0.0000 C   0  0  0  0  0  0  0  0  0  0  0  0
    3.9240    1.1731    0.0000 C   0  0  0  0  0  0  0  0  0  0  0  0
    2.5292    1.4841    0.0000 C   0  0  0  0  0  0  0  0  0  0  0  0
    4.1035    1.9783    0.0000 C   0  0  0  0  0  0  0  0  0  0  0  0
    2.7088    2.2893    0.0000 C   0  0  0  0  0  0  0  0  0  0  0  0
    3.4959    2.5364    0.0000 C   0  0  0  0  0  0  0  0  0  0  0  0
  1 17  1  0  0  0  0
  2  7  1  0  0  0  0
  2  9  1  0  0  0  0
  3 13  2  0  0  0  0
  4  7  1  0  0  0  0
  4 13  1  0  0  0  0
  4 15  1  0  0  0  0
  5  8  2  0  0  0  0
  5 12  1  0  0  0  0
  6  7  2  0  0  0  0
  6  8  1  0  0  0  0
  6 10  1  0  0  0  0
  8 14  1  0  0  0  0
  9 10  2  0  0  0  0
  9 11  1  0  0  0  0
 11 16  1  0  0  0  0
 12 13  1  0  0  0  0
 14 17  1  0  0  0  0
 14 18  2  0  0  0  0
 17 19  2  0  0  0  0
 18 20  1  0  0  0  0
 19 21  1  0  0  0  0
 20 21  2  0  0  0  0
M  END
>  <DRUGBANK_ID>
DB01559

>  <DRUG_GROUPS>
illicit; approved

>  <GENERIC_NAME>
Clotiazepam

>  <SYNONYMS>
Clotiazepamum [inn-latin]

>  <BRANDS>
Clozan; Distensan; Rize; Rizen; Tienor; Trecalmo; Veratran

>  <CHEMICAL_FORMULA>
C16H15ClN2OS

>  <MOLECULAR_WEIGHT>
318.821

>  <EXACT_MASS>
318.059361509

>  <IUPAC_NAME>
5-(2-chlorophenyl)-7-ethyl-1-methyl-1H,2H,3H-thieno[2,3-e][1,4]diazepin-2-one

>  <INCHI_IDENTIFIER>
InChI=1S/C16H15ClN2OS/c1-3-10-8-12-15(11-6-4-5-7-13(11)17)18-9-14(20)19(2)16(12)21-10/h4-8H,3,9H2,1-2H3

>  <INCHI_KEY>
InChIKey=CHBRHODLKOZEPZ-UHFFFAOYSA-N

>  <SMILES>
CCC1=CC2=C(S1)N(C)C(=O)CN=C2C1=CC=CC=C1Cl

>  <JCHEM_ACCEPTOR_COUNT>
2

>  <JCHEM_DONOR_COUNT>
0

>  <JCHEM_BASIC_PKA>
2.39

>  <JCHEM_PHYSIOLOGICAL_CHARGE>
0

>  <ALOGPS_LOGP>
3.58

>  <JCHEM_LOGP>
4.11

>  <ALOGPS_LOGS>
-4.8

>  <JCHEM_POLARIZABILITY>
33.01

>  <JCHEM_POLAR_SURFACE_AREA>
32.67

>  <JCHEM_REFRACTIVITY>
85.66

>  <JCHEM_ROTATABLE_BOND_COUNT>
2

>  <ALOGPS_SOLUBILITY>
5.37e-03 g/l __

$$$$
DB01560
 OpenBabel03171413512D

 11 11  0  0  1  0  0  0  0  0999 V2000
    1.6500    0.9034    0.0000 O   0  0  0  0  0  0  0  0  0  0  0  0
    3.0790    1.7284    0.0000 N   0  0  0  0  0  0  0  0  0  0  0  0
    3.0790    0.9034    0.0000 C   0  0  2  0  0  0  0  0  0  0  0  0
    2.3644    0.4909    0.0000 C   0  0  0  0  0  0  0  0  0  0  0  0
    2.3644   -0.3341    0.0000 C   0  0  0  0  0  0  0  0  0  0  0  0
    3.7934    0.4909    0.0000 C   0  0  0  0  0  0  0  0  0  0  0  0
    3.0790   -0.7466    0.0000 C   0  0  0  0  0  0  0  0  0  0  0  0
    1.6500   -0.7466    0.0000 C   0  0  0  0  0  0  0  0  0  0  0  0
    3.0790   -1.5716    0.0000 C   0  0  0  0  0  0  0  0  0  0  0  0
    1.6500   -1.5716    0.0000 C   0  0  0  0  0  0  0  0  0  0  0  0
    2.3644   -1.9841    0.0000 C   0  0  0  0  0  0  0  0  0  0  0  0
  1  4  2  0  0  0  0
  3  2  1  1  0  0  0
  3  4  1  0  0  0  0
  3  6  1  0  0  0  0
  4  5  1  0  0  0  0
  5  7  2  0  0  0  0
  5  8  1  0  0  0  0
  7  9  1  0  0  0  0
  8 10  2  0  0  0  0
  9 11  2  0  0  0  0
 10 11  1  0  0  0  0
M  END
>  <DRUGBANK_ID>
DB01560

>  <DRUG_GROUPS>
illicit; experimental

>  <GENERIC_NAME>
Cathinone

>  <SYNONYMS>
D-Cathinone; β-ketoamphetamine

>  <CHEMICAL_FORMULA>
C9H11NO

>  <MOLECULAR_WEIGHT>
149.1897

>  <EXACT_MASS>
149.084063979

>  <IUPAC_NAME>
(2S)-2-amino-1-phenylpropan-1-one

>  <INCHI_IDENTIFIER>
InChI=1S/C9H11NO/c1-7(10)9(11)8-5-3-2-4-6-8/h2-7H,10H2,1H3/t7-/m0/s1

>  <INCHI_KEY>
InChIKey=PUAQLLVFLMYYJJ-ZETCQYMHSA-N

>  <SMILES>
C[C@H](N)C(=O)C1=CC=CC=C1

>  <JCHEM_ACCEPTOR_COUNT>
2

>  <JCHEM_DONOR_COUNT>
1

>  <JCHEM_ACIDIC_PKA>
18.65

>  <JCHEM_BASIC_PKA>
7.55

>  <JCHEM_PHYSIOLOGICAL_CHARGE>
1

>  <ALOGPS_LOGP>
0.51

>  <JCHEM_LOGP>
1.18

>  <ALOGPS_LOGS>
-1.8

>  <JCHEM_POLARIZABILITY>
16.28

>  <JCHEM_POLAR_SURFACE_AREA>
43.09

>  <JCHEM_REFRACTIVITY>
44.31

>  <JCHEM_ROTATABLE_BOND_COUNT>
2

>  <ALOGPS_SOLUBILITY>
2.46e+00 g/l __

$$$$
DB01561
 OpenBabel03171413512D

 25 28  0  0  1  0  0  0  0  0999 V2000
    7.1353    1.7956    0.0000 O   0  0  0  0  0  0  0  0  0  0  0  0
    1.6498   -1.7578    0.0000 O   0  0  0  0  0  0  0  0  0  0  0  0
    4.6697   -0.0648    0.0000 C   0  0  1  0  0  0  0  0  0  0  0  0
    5.3842   -0.4772    0.0000 C   0  0  2  0  0  0  0  0  0  0  0  0
    3.9191   -0.4829    0.0000 C   0  0  2  0  0  0  0  0  0  0  0  0
    6.0985   -0.0648    0.0000 C   0  0  1  0  0  0  0  0  0  0  0  0
    6.0985    0.7601    0.0000 C   0  0  2  0  0  0  0  0  0  0  0  0
    3.9125   -1.3421    0.0000 C   0  0  1  0  0  0  0  0  0  0  0  0
    4.6697    0.7601    0.0000 C   0  0  0  0  0  0  0  0  0  0  0  0
    5.3974   -1.3363    0.0000 C   0  0  0  0  0  0  0  0  0  0  0  0
    5.3842    1.1725    0.0000 C   0  0  0  0  0  0  0  0  0  0  0  0
    4.6566   -1.7717    0.0000 C   0  0  0  0  0  0  0  0  0  0  0  0
    6.8790   -0.3162    0.0000 C   0  0  0  0  0  0  0  0  0  0  0  0
    3.1546   -0.0176    0.0000 C   0  0  0  0  0  0  0  0  0  0  0  0
    6.8790    1.0115    0.0000 C   0  0  0  0  0  0  0  0  0  0  0  0
    3.9254    0.3420    0.0000 C   0  0  0  0  0  0  0  0  0  0  0  0
    3.1409   -1.7956    0.0000 C   0  0  0  0  0  0  0  0  0  0  0  0
    7.3604    0.3477    0.0000 C   0  0  0  0  0  0  0  0  0  0  0  0
    6.0985    1.5850    0.0000 C   0  0  0  0  0  0  0  0  0  0  0  0
    2.3726   -0.4531    0.0000 C   0  0  0  0  0  0  0  0  0  0  0  0
    2.3657   -1.3480    0.0000 C   0  0  0  0  0  0  0  0  0  0  0  0
    5.2413    0.2652    0.0000 H   0  0  0  0  0  0  0  0  0  0  0  0
    5.9581   -0.8028    0.0000 H   0  0  0  0  0  0  0  0  0  0  0  0
    6.1683   -0.7210    0.0000 H   0  0  0  0  0  0  0  0  0  0  0  0
    3.9150   -2.0020    0.0000 H   0  0  0  0  0  0  0  0  0  0  0  0
  1 15  2  0  0  0  0
  2 21  2  0  0  0  0
  3  4  1  0  0  0  0
  3  5  1  0  0  0  0
  3  9  1  0  0  0  0
  3 22  1  6  0  0  0
  4  6  1  0  0  0  0
  4 10  1  0  0  0  0
  4 23  1  1  0  0  0
  5  8  1  0  0  0  0
  5 14  1  0  0  0  0
  5 16  1  1  0  0  0
  6  7  1  0  0  0  0
  6 13  1  0  0  0  0
  6 24  1  6  0  0  0
  7 11  1  0  0  0  0
  7 15  1  0  0  0  0
  7 19  1  1  0  0  0
  8 12  1  0  0  0  0
  8 17  1  0  0  0  0
  8 25  1  6  0  0  0
  9 11  1  0  0  0  0
 10 12  1  0  0  0  0
 13 18  1  0  0  0  0
 14 20  1  0  0  0  0
 15 18  1  0  0  0  0
 17 21  1  0  0  0  0
 20 21  1  0  0  0  0
M  END
>  <DRUGBANK_ID>
DB01561

>  <DRUG_GROUPS>
illicit; experimental

>  <GENERIC_NAME>
Androstanedione

>  <SYNONYMS>
5alpha-Androstan-3,17-dione

>  <CHEMICAL_FORMULA>
C19H28O2

>  <MOLECULAR_WEIGHT>
288.4244

>  <EXACT_MASS>
288.20893014

>  <IUPAC_NAME>
(1S,2S,7S,10R,11S,15S)-2,15-dimethyltetracyclo[8.7.0.0^{2,7}.0^{11,15}]heptadecane-5,14-dione

>  <INCHI_IDENTIFIER>
InChI=1S/C19H28O2/c1-18-9-7-13(20)11-12(18)3-4-14-15-5-6-17(21)19(15,2)10-8-16(14)18/h12,14-16H,3-11H2,1-2H3/t12-,14-,15-,16-,18-,19-/m0/s1

>  <INCHI_KEY>
InChIKey=RAJWOBJTTGJROA-WZNAKSSCSA-N

>  <SMILES>
[H][C@@]12CCC(=O)[C@@]1(C)CC[C@@]1([H])[C@@]2([H])CC[C@@]2([H])CC(=O)CC[C@]12C

>  <JCHEM_ACCEPTOR_COUNT>
2

>  <JCHEM_DONOR_COUNT>
0

>  <JCHEM_ACIDIC_PKA>
19.78

>  <JCHEM_BASIC_PKA>
-7.1

>  <JCHEM_PHYSIOLOGICAL_CHARGE>
0

>  <ALOGPS_LOGP>
3.4

>  <JCHEM_LOGP>
3.97

>  <ALOGPS_LOGS>
-4.6

>  <JCHEM_POLARIZABILITY>
33.84

>  <JCHEM_POLAR_SURFACE_AREA>
34.14

>  <JCHEM_REFRACTIVITY>
82.78

>  <JCHEM_ROTATABLE_BOND_COUNT>
0

>  <ALOGPS_SOLUBILITY>
7.39e-03 g/l __

$$$$
DB01562
 OpenBabel03171413512D

 24 26  0  0  0  0  0  0  0  0999 V2000
    2.8876    2.3241    0.0000 O   0  0  0  0  0  0  0  0  0  0  0  0
    1.6500    1.6096    0.0000 O   0  0  0  0  0  0  0  0  0  0  0  0
    3.3001   -0.0404    0.0000 N   0  0  0  0  0  0  0  0  0  0  0  0
    3.3001    1.6096    0.0000 C   0  0  0  0  0  0  0  0  0  0  0  0
    2.5856    1.1971    0.0000 C   0  0  0  0  0  0  0  0  0  0  0  0
    4.0145    1.1971    0.0000 C   0  0  0  0  0  0  0  0  0  0  0  0
    2.5856    0.3721    0.0000 C   0  0  0  0  0  0  0  0  0  0  0  0
    4.0145    0.3721    0.0000 C   0  0  0  0  0  0  0  0  0  0  0  0
    3.7126    2.3241    0.0000 C   0  0  0  0  0  0  0  0  0  0  0  0
    3.3001   -0.8654    0.0000 C   0  0  0  0  0  0  0  0  0  0  0  0
    2.5856   -1.2780    0.0000 C   0  0  0  0  0  0  0  0  0  0  0  0
    3.3001    3.0385    0.0000 C   0  0  0  0  0  0  0  0  0  0  0  0
    4.5376    2.3241    0.0000 C   0  0  0  0  0  0  0  0  0  0  0  0
    2.0625    2.3241    0.0000 C   0  0  0  0  0  0  0  0  0  0  0  0
    2.5856   -2.1030    0.0000 C   0  0  0  0  0  0  0  0  0  0  0  0
    3.7126    3.7530    0.0000 C   0  0  0  0  0  0  0  0  0  0  0  0
    4.9501    3.0385    0.0000 C   0  0  0  0  0  0  0  0  0  0  0  0
    4.5376    3.7530    0.0000 C   0  0  0  0  0  0  0  0  0  0  0  0
    1.6500    3.0385    0.0000 C   0  0  0  0  0  0  0  0  0  0  0  0
    3.3001   -2.5155    0.0000 C   0  0  0  0  0  0  0  0  0  0  0  0
    1.8711   -2.5155    0.0000 C   0  0  0  0  0  0  0  0  0  0  0  0
    3.3001   -3.3405    0.0000 C   0  0  0  0  0  0  0  0  0  0  0  0
    1.8711   -3.3405    0.0000 C   0  0  0  0  0  0  0  0  0  0  0  0
    2.5856   -3.7530    0.0000 C   0  0  0  0  0  0  0  0  0  0  0  0
  1  4  1  0  0  0  0
  1 14  1  0  0  0  0
  2 14  2  0  0  0  0
  3  7  1  0  0  0  0
  3  8  1  0  0  0  0
  3 10  1  0  0  0  0
  4  5  1  0  0  0  0
  4  6  1  0  0  0  0
  4  9  1  0  0  0  0
  5  7  1  0  0  0  0
  6  8  1  0  0  0  0
  9 12  2  0  0  0  0
  9 13  1  0  0  0  0
 10 11  1  0  0  0  0
 11 15  1  0  0  0  0
 12 16  1  0  0  0  0
 13 17  2  0  0  0  0
 14 19  1  0  0  0  0
 15 20  2  0  0  0  0
 15 21  1  0  0  0  0
 16 18  2  0  0  0  0
 17 18  1  0  0  0  0
 20 22  1  0  0  0  0
 21 23  2  0  0  0  0
 22 24  2  0  0  0  0
 23 24  1  0  0  0  0
M  END
>  <DRUGBANK_ID>
DB01562

>  <DRUG_GROUPS>
illicit; experimental

>  <GENERIC_NAME>
1-(2-Phenylethyl)-4-phenyl-4-acetoxypiperidine

>  <SYNONYMS>
1-(2-Phenethyl)-4-phenyl-4-acetoxypiperidine; 1-phenethyl-4-phenyl-4-piperidinol acetate; DEA No. 9663; PEPAP

>  <CHEMICAL_FORMULA>
C21H25NO2

>  <MOLECULAR_WEIGHT>
323.4287

>  <EXACT_MASS>
323.188529049

>  <IUPAC_NAME>
4-phenyl-1-(2-phenylethyl)piperidin-4-yl acetate

>  <INCHI_IDENTIFIER>
InChI=1S/C21H25NO2/c1-18(23)24-21(20-10-6-3-7-11-20)13-16-22(17-14-21)15-12-19-8-4-2-5-9-19/h2-11H,12-17H2,1H3

>  <INCHI_KEY>
InChIKey=BVURVTVDNWSNFN-UHFFFAOYSA-N

>  <SMILES>
CC(=O)OC1(CCN(CCC2=CC=CC=C2)CC1)C1=CC=CC=C1

>  <JCHEM_ACCEPTOR_COUNT>
2

>  <JCHEM_DONOR_COUNT>
0

>  <JCHEM_BASIC_PKA>
9.24

>  <JCHEM_PHYSIOLOGICAL_CHARGE>
1

>  <ALOGPS_LOGP>
4.18

>  <JCHEM_LOGP>
3.61

>  <ALOGPS_LOGS>
-4.7

>  <JCHEM_POLARIZABILITY>
37.55

>  <JCHEM_POLAR_SURFACE_AREA>
29.54

>  <JCHEM_REFRACTIVITY>
96.73

>  <JCHEM_ROTATABLE_BOND_COUNT>
6

>  <ALOGPS_SOLUBILITY>
5.92e-03 g/l __

$$$$
DB01563
 OpenBabel03171413512D

  7  6  0  0  0  0  0  0  0  0999 V2000
    1.6500   -0.8019    0.0000 Cl  0  0  0  0  0  0  0  0  0  0  0  0
    1.9520    0.3251    0.0000 Cl  0  0  0  0  0  0  0  0  0  0  0  0
    2.7770   -1.1039    0.0000 Cl  0  0  0  0  0  0  0  0  0  0  0  0
    3.7935   -0.3894    0.0000 O   0  0  0  0  0  0  0  0  0  0  0  0
    3.0791    0.8481    0.0000 O   0  0  0  0  0  0  0  0  0  0  0  0
    3.0791    0.0231    0.0000 C   0  0  0  0  0  0  0  0  0  0  0  0
    2.3645   -0.3894    0.0000 C   0  0  0  0  0  0  0  0  0  0  0  0
  1  7  1  0  0  0  0
  2  7  1  0  0  0  0
  3  7  1  0  0  0  0
  4  6  1  0  0  0  0
  5  6  1  0  0  0  0
  6  7  1  0  0  0  0
M  END
>  <DRUGBANK_ID>
DB01563

>  <DRUG_GROUPS>
illicit; experimental

>  <GENERIC_NAME>
Chloral hydrate

>  <BRANDS>
Aquachloral Supprettes; Somnote

>  <CHEMICAL_FORMULA>
C2H3Cl3O2

>  <MOLECULAR_WEIGHT>
165.403

>  <EXACT_MASS>
163.919862461

>  <IUPAC_NAME>
2,2,2-trichloroethane-1,1-diol

>  <INCHI_IDENTIFIER>
InChI=1S/C2H3Cl3O2/c3-2(4,5)1(6)7/h1,6-7H

>  <INCHI_KEY>
InChIKey=RNFNDJAIBTYOQL-UHFFFAOYSA-N

>  <SMILES>
OC(O)C(Cl)(Cl)Cl

>  <JCHEM_ACCEPTOR_COUNT>
2

>  <JCHEM_DONOR_COUNT>
2

>  <JCHEM_ACIDIC_PKA>
9.51

>  <JCHEM_BASIC_PKA>
-5.1

>  <JCHEM_PHYSIOLOGICAL_CHARGE>
0

>  <ALOGPS_LOGP>
0.88

>  <JCHEM_LOGP>
0.69

>  <ALOGPS_LOGS>
-0.58

>  <JCHEM_POLARIZABILITY>
11.88

>  <JCHEM_POLAR_SURFACE_AREA>
40.46

>  <JCHEM_REFRACTIVITY>
29.25

>  <JCHEM_ROTATABLE_BOND_COUNT>
1

>  <ALOGPS_SOLUBILITY>
4.34e+01 g/l __

$$$$
DB01564
 OpenBabel03171413512D

 26 29  0  0  1  0  0  0  0  0999 V2000
    7.5474    1.4947    0.0000 O   0  0  0  0  0  0  0  0  0  0  0  0
    1.6498   -1.7582    0.0000 O   0  0  0  0  0  0  0  0  0  0  0  0
    6.0987   -0.0653    0.0000 C   0  0  2  0  0  0  0  0  0  0  0  0
    6.0987    0.7597    0.0000 C   0  0  1  0  0  0  0  0  0  0  0  0
    5.3843   -0.4777    0.0000 C   0  0  1  0  0  0  0  0  0  0  0  0
    4.6698   -0.0653    0.0000 C   0  0  1  0  0  0  0  0  0  0  0  0
    6.8793    1.0111    0.0000 C   0  0  2  0  0  0  0  0  0  0  0  0
    3.9192   -0.4833    0.0000 C   0  0  2  0  0  0  0  0  0  0  0  0
    5.3843    1.1722    0.0000 C   0  0  0  0  0  0  0  0  0  0  0  0
    4.6698    0.7597    0.0000 C   0  0  0  0  0  0  0  0  0  0  0  0
    6.8793   -0.3166    0.0000 C   0  0  0  0  0  0  0  0  0  0  0  0
    5.3975   -1.3368    0.0000 C   0  0  2  0  0  0  0  0  0  0  0  0
    7.3606    0.3472    0.0000 C   0  0  0  0  0  0  0  0  0  0  0  0
    4.6567   -1.7722    0.0000 C   0  0  0  0  0  0  0  0  0  0  0  0
    3.9126   -1.3425    0.0000 C   0  0  0  0  0  0  0  0  0  0  0  0
    6.0987    1.5846    0.0000 C   0  0  0  0  0  0  0  0  0  0  0  0
    3.1546   -0.0180    0.0000 C   0  0  0  0  0  0  0  0  0  0  0  0
    6.6257    1.7960    0.0000 C   0  0  0  0  0  0  0  0  0  0  0  0
    3.9255    0.3416    0.0000 C   0  0  0  0  0  0  0  0  0  0  0  0
    6.1167   -1.7410    0.0000 C   0  0  0  0  0  0  0  0  0  0  0  0
    2.3727   -0.4535    0.0000 C   0  0  0  0  0  0  0  0  0  0  0  0
    3.1409   -1.7960    0.0000 C   0  0  0  0  0  0  0  0  0  0  0  0
    2.3658   -1.3485    0.0000 C   0  0  0  0  0  0  0  0  0  0  0  0
    6.1685   -0.7215    0.0000 H   0  0  0  0  0  0  0  0  0  0  0  0
    5.9583   -0.8032    0.0000 H   0  0  0  0  0  0  0  0  0  0  0  0
    5.2415    0.2647    0.0000 H   0  0  0  0  0  0  0  0  0  0  0  0
  2 23  2  0  0  0  0
  3  4  1  0  0  0  0
  3  5  1  0  0  0  0
  3 11  1  0  0  0  0
  3 24  1  6  0  0  0
  4  7  1  0  0  0  0
  4  9  1  0  0  0  0
  4 16  1  1  0  0  0
  5  6  1  0  0  0  0
  5 12  1  0  0  0  0
  5 25  1  1  0  0  0
  6  8  1  0  0  0  0
  6 10  1  0  0  0  0
  6 26  1  6  0  0  0
  7  1  1  1  0  0  0
  7 13  1  0  0  0  0
  7 18  1  0  0  0  0
  8 15  1  0  0  0  0
  8 17  1  0  0  0  0
  8 19  1  1  0  0  0
  9 10  1  0  0  0  0
 11 13  1  0  0  0  0
 12 14  1  0  0  0  0
 12 20  1  1  0  0  0
 14 15  1  0  0  0  0
 15 22  2  0  0  0  0
 17 21  1  0  0  0  0
 21 23  1  0  0  0  0
 22 23  1  0  0  0  0
M  END
>  <DRUGBANK_ID>
DB01564

>  <DRUG_GROUPS>
illicit; experimental

>  <GENERIC_NAME>
Calusterone

>  <SYNONYMS>
17-beta-Hydroxy-7-beta,17-alpha-dimethylandrost-4-ene-3-one; 17beta-Hydroxy-7beta,17-dimethylandrost-4-en-3-one; 17beta-Hydroxy-7beta,17alpha-dimethylandrost-4-ene-3-one; 7-beta,17-alpha-Dimethyl testosterone; 7-beta,17-Dimethyltestosterone; 7beta,17-Dimethyltestosterone; 7beta,17alpha-Dimethyltestosterone; Calusteron; Calusterona [inn-spanish]; Calusteronum [inn-latin]; CLS

>  <BRANDS>
Methosarb

>  <CHEMICAL_FORMULA>
C21H32O2

>  <MOLECULAR_WEIGHT>
316.4776

>  <EXACT_MASS>
316.240230268

>  <IUPAC_NAME>
(1S,2R,9S,10R,11S,14S,15S)-14-hydroxy-2,9,14,15-tetramethyltetracyclo[8.7.0.0^{2,7}.0^{11,15}]heptadec-6-en-5-one

>  <INCHI_IDENTIFIER>
InChI=1S/C21H32O2/c1-13-11-14-12-15(22)5-8-19(14,2)16-6-9-20(3)17(18(13)16)7-10-21(20,4)23/h12-13,16-18,23H,5-11H2,1-4H3/t13-,16-,17-,18+,19-,20-,21-/m0/s1

>  <INCHI_KEY>
InChIKey=IVFYLRMMHVYGJH-PVPPCFLZSA-N

>  <SMILES>
[H][C@@]12CC[C@](C)(O)[C@@]1(C)CC[C@@]1([H])[C@@]2([H])[C@@H](C)CC2=CC(=O)CC[C@]12C

>  <JCHEM_ACCEPTOR_COUNT>
2

>  <JCHEM_DONOR_COUNT>
1

>  <JCHEM_ACIDIC_PKA>
19.56

>  <JCHEM_BASIC_PKA>
-0.53

>  <JCHEM_PHYSIOLOGICAL_CHARGE>
0

>  <ALOGPS_LOGP>
3.55

>  <JCHEM_LOGP>
3.93

>  <ALOGPS_LOGS>
-4.5

>  <JCHEM_POLARIZABILITY>
37.77

>  <JCHEM_POLAR_SURFACE_AREA>
37.3

>  <JCHEM_REFRACTIVITY>
93.62

>  <JCHEM_ROTATABLE_BOND_COUNT>
0

>  <ALOGPS_SOLUBILITY>
1.12e-02 g/l __

$$$$
DB01565
 OpenBabel03171413512D

 24 28  0  0  1  0  0  0  0  0999 V2000
    1.9356    0.0458    0.0000 O   0  0  0  0  0  0  0  0  0  0  0  0
    1.7349   -2.0838    0.0000 O   0  0  0  0  0  0  0  0  0  0  0  0
    1.7349    2.0838    0.0000 O   0  0  0  0  0  0  0  0  0  0  0  0
    5.3440   -0.8250    0.0000 N   0  0  0  0  0  0  0  0  0  0  0  0
    3.2006   -0.4125    0.0000 C   0  0  1  0  0  0  0  0  0  0  0  0
    3.9151   -0.8250    0.0000 C   0  0  2  0  0  0  0  0  0  0  0  0
    2.4861   -0.8250    0.0000 C   0  0  2  0  0  0  0  0  0  0  0  0
    4.6296   -0.4125    0.0000 C   0  0  1  0  0  0  0  0  0  0  0  0
    3.6773    0.1925    0.0000 C   0  0  0  0  0  0  0  0  0  0  0  0
    3.2006    0.4125    0.0000 C   0  0  0  0  0  0  0  0  0  0  0  0
    3.9151   -1.6501    0.0000 C   0  0  0  0  0  0  0  0  0  0  0  0
    2.4861   -1.6501    0.0000 C   0  0  2  0  0  0  0  0  0  0  0  0
    4.6296    0.4125    0.0000 C   0  0  0  0  0  0  0  0  0  0  0  0
    3.2006   -2.0625    0.0000 C   0  0  0  0  0  0  0  0  0  0  0  0
    4.8506    0.1925    0.0000 C   0  0  0  0  0  0  0  0  0  0  0  0
    3.9151    0.8250    0.0000 C   0  0  0  0  0  0  0  0  0  0  0  0
    2.4861    0.8250    0.0000 C   0  0  0  0  0  0  0  0  0  0  0  0
    5.9350   -1.4601    0.0000 C   0  0  0  0  0  0  0  0  0  0  0  0
    3.9151    1.6500    0.0000 C   0  0  0  0  0  0  0  0  0  0  0  0
    2.4861    1.6500    0.0000 C   0  0  0  0  0  0  0  0  0  0  0  0
    3.2006    2.0625    0.0000 C   0  0  0  0  0  0  0  0  0  0  0  0
    4.3612   -1.3566    0.0000 H   0  0  0  0  0  0  0  0  0  0  0  0
    1.8196   -1.0180    0.0000 H   0  0  0  0  0  0  0  0  0  0  0  0
    4.8675   -1.0645    0.0000 H   0  0  0  0  0  0  0  0  0  0  0  0
  1  7  1  0  0  0  0
  1 17  1  0  0  0  0
  3 20  1  0  0  0  0
  4  8  1  0  0  0  0
  4 15  1  0  0  0  0
  4 18  1  0  0  0  0
  5  6  1  0  0  0  0
  5  7  1  0  0  0  0
  5  9  1  1  0  0  0
  5 10  1  0  0  0  0
  6  8  1  0  0  0  0
  6 11  1  0  0  0  0
  6 22  1  1  0  0  0
  7 12  1  0  0  0  0
  7 23  1  1  0  0  0
  8 13  1  0  0  0  0
  8 24  1  6  0  0  0
  9 15  1  0  0  0  0
 10 16  2  0  0  0  0
 10 17  1  0  0  0  0
 11 14  1  0  0  0  0
 12  2  1  6  0  0  0
 12 14  1  0  0  0  0
 13 16  1  0  0  0  0
 16 19  1  0  0  0  0
 17 20  2  0  0  0  0
 19 21  2  0  0  0  0
 20 21  1  0  0  0  0
M  END
>  <DRUGBANK_ID>
DB01565

>  <DRUG_GROUPS>
illicit; experimental

>  <GENERIC_NAME>
Dihydromorphine

>  <CHEMICAL_FORMULA>
C17H21NO3

>  <MOLECULAR_WEIGHT>
287.3535

>  <EXACT_MASS>
287.152143543

>  <IUPAC_NAME>
(1S,5R,13R,14S,17R)-4-methyl-12-oxa-4-azapentacyclo[9.6.1.0^{1,13}.0^{5,17}.0^{7,18}]octadeca-7(18),8,10-triene-10,14-diol

>  <INCHI_IDENTIFIER>
InChI=1S/C17H21NO3/c1-18-7-6-17-10-3-5-13(20)16(17)21-15-12(19)4-2-9(14(15)17)8-11(10)18/h2,4,10-11,13,16,19-20H,3,5-8H2,1H3/t10-,11+,13-,16-,17-/m0/s1

>  <INCHI_KEY>
InChIKey=IJVCSMSMFSCRME-KBQPJGBKSA-N

>  <SMILES>
[H][C@@]12OC3=C(O)C=CC4=C3[C@@]11CCN(C)[C@]([H])(C4)[C@]1([H])CC[C@@H]2O

>  <JCHEM_ACCEPTOR_COUNT>
4

>  <JCHEM_DONOR_COUNT>
2

>  <JCHEM_ACIDIC_PKA>
10.29

>  <JCHEM_BASIC_PKA>
9.24

>  <JCHEM_PHYSIOLOGICAL_CHARGE>
1

>  <ALOGPS_LOGP>
1.26

>  <JCHEM_LOGP>
1.08

>  <ALOGPS_LOGS>
-2.2

>  <JCHEM_POLARIZABILITY>
30.66

>  <JCHEM_POLAR_SURFACE_AREA>
52.93

>  <JCHEM_REFRACTIVITY>
79.16

>  <JCHEM_ROTATABLE_BOND_COUNT>
0

>  <ALOGPS_SOLUBILITY>
1.82e+00 g/l __

$$$$
DB01566
 OpenBabel03171413512D

 15 16  0  0  1  0  0  0  0  0999 V2000
    7.4321    0.4081    0.0000 O   0  0  0  0  0  0  0  0  0  0  0  0
    7.4321   -0.9196    0.0000 O   0  0  0  0  0  0  0  0  0  0  0  0
    3.0791    0.5693    0.0000 N   0  0  0  0  0  0  0  0  0  0  0  0
    3.7935    0.1568    0.0000 C   0  0  3  0  0  0  0  0  0  0  0  0
    4.5080    0.5693    0.0000 C   0  0  0  0  0  0  0  0  0  0  0  0
    5.2224    0.1568    0.0000 C   0  0  0  0  0  0  0  0  0  0  0  0
    3.7935   -0.6683    0.0000 C   0  0  0  0  0  0  0  0  0  0  0  0
    5.9370    0.5693    0.0000 C   0  0  0  0  0  0  0  0  0  0  0  0
    2.3645    0.1568    0.0000 C   0  0  0  0  0  0  0  0  0  0  0  0
    5.2224   -0.6683    0.0000 C   0  0  0  0  0  0  0  0  0  0  0  0
    6.6515    0.1568    0.0000 C   0  0  0  0  0  0  0  0  0  0  0  0
    6.6515   -0.6683    0.0000 C   0  0  0  0  0  0  0  0  0  0  0  0
    5.9370   -1.0808    0.0000 C   0  0  0  0  0  0  0  0  0  0  0  0
    1.6500    0.5693    0.0000 C   0  0  0  0  0  0  0  0  0  0  0  0
    7.9136   -0.2558    0.0000 C   0  0  0  0  0  0  0  0  0  0  0  0
  1 11  1  0  0  0  0
  1 15  1  0  0  0  0
  2 12  1  0  0  0  0
  2 15  1  0  0  0  0
  3  4  1  0  0  0  0
  3  9  1  0  0  0  0
  4  5  1  0  0  0  0
  4  7  1  0  0  0  0
  5  6  1  0  0  0  0
  6  8  2  0  0  0  0
  6 10  1  0  0  0  0
  8 11  1  0  0  0  0
  9 14  1  0  0  0  0
 10 13  2  0  0  0  0
 11 12  2  0  0  0  0
 12 13  1  0  0  0  0
M  END
>  <DRUGBANK_ID>
DB01566

>  <DRUG_GROUPS>
illicit; experimental

>  <GENERIC_NAME>
3,4-Methylenedioxy-N-ethylamphetamine

>  <CHEMICAL_FORMULA>
C12H17NO2

>  <MOLECULAR_WEIGHT>
207.2689

>  <EXACT_MASS>
207.125928793

>  <IUPAC_NAME>
[1-(2H-1,3-benzodioxol-5-yl)propan-2-yl](ethyl)amine

>  <INCHI_IDENTIFIER>
InChI=1S/C12H17NO2/c1-3-13-9(2)6-10-4-5-11-12(7-10)15-8-14-11/h4-5,7,9,13H,3,6,8H2,1-2H3

>  <INCHI_KEY>
InChIKey=PVXVWWANJIWJOO-UHFFFAOYSA-N

>  <SMILES>
CCNC(C)CC1=CC2=C(OCO2)C=C1

>  <JCHEM_ACCEPTOR_COUNT>
3

>  <JCHEM_DONOR_COUNT>
1

>  <JCHEM_BASIC_PKA>
10.22

>  <JCHEM_PHYSIOLOGICAL_CHARGE>
1

>  <ALOGPS_LOGP>
2.25

>  <JCHEM_LOGP>
2.22

>  <ALOGPS_LOGS>
-2.1

>  <JCHEM_POLARIZABILITY>
23.41

>  <JCHEM_POLAR_SURFACE_AREA>
30.49

>  <JCHEM_REFRACTIVITY>
59

>  <JCHEM_ROTATABLE_BOND_COUNT>
4

>  <ALOGPS_SOLUBILITY>
1.46e+00 g/l __

$$$$
DB01567
 OpenBabel03171413512D

 21 23  0  0  0  0  0  0  0  0999 V2000
    2.8171   -2.3592    0.0000 Cl  0  0  0  0  0  0  0  0  0  0  0  0
    3.8785   -1.4649    0.0000 F   0  0  0  0  0  0  0  0  0  0  0  0
    2.6107    2.3592    0.0000 O   0  0  0  0  0  0  0  0  0  0  0  0
    2.4542    0.9709    0.0000 N   0  0  0  0  0  0  0  0  0  0  0  0
    4.3080    0.9709    0.0000 N   0  0  0  0  0  0  0  0  0  0  0  0
    3.3811   -0.1914    0.0000 C   0  0  0  0  0  0  0  0  0  0  0  0
    2.6378    0.1666    0.0000 C   0  0  0  0  0  0  0  0  0  0  0  0
    4.1244    0.1666    0.0000 C   0  0  0  0  0  0  0  0  0  0  0  0
    3.7936    1.6159    0.0000 C   0  0  0  0  0  0  0  0  0  0  0  0
    4.7694   -0.3478    0.0000 C   0  0  0  0  0  0  0  0  0  0  0  0
    2.9686    1.6159    0.0000 C   0  0  0  0  0  0  0  0  0  0  0  0
    3.4586   -1.0472    0.0000 C   0  0  0  0  0  0  0  0  0  0  0  0
    1.9205   -0.3065    0.0000 C   0  0  0  0  0  0  0  0  0  0  0  0
    1.6500    1.1545    0.0000 C   0  0  0  0  0  0  0  0  0  0  0  0
    2.7523   -1.5367    0.0000 C   0  0  0  0  0  0  0  0  0  0  0  0
    1.9781   -1.1639    0.0000 C   0  0  0  0  0  0  0  0  0  0  0  0
    4.6465   -1.1636    0.0000 C   0  0  0  0  0  0  0  0  0  0  0  0
    5.5374   -0.0464    0.0000 C   0  0  0  0  0  0  0  0  0  0  0  0
    5.2914   -1.6779    0.0000 C   0  0  0  0  0  0  0  0  0  0  0  0
    6.1823   -0.5607    0.0000 C   0  0  0  0  0  0  0  0  0  0  0  0
    6.0594   -1.3765    0.0000 C   0  0  0  0  0  0  0  0  0  0  0  0
  1 15  1  0  0  0  0
  2 17  1  0  0  0  0
  3 11  2  0  0  0  0
  4  7  1  0  0  0  0
  4 11  1  0  0  0  0
  4 14  1  0  0  0  0
  5  8  2  0  0  0  0
  5  9  1  0  0  0  0
  6  7  2  0  0  0  0
  6  8  1  0  0  0  0
  6 12  1  0  0  0  0
  7 13  1  0  0  0  0
  8 10  1  0  0  0  0
  9 11  1  0  0  0  0
 10 17  1  0  0  0  0
 10 18  2  0  0  0  0
 12 15  2  0  0  0  0
 13 16  2  0  0  0  0
 15 16  1  0  0  0  0
 17 19  2  0  0  0  0
 18 20  1  0  0  0  0
 19 21  1  0  0  0  0
 20 21  2  0  0  0  0
M  END
>  <DRUGBANK_ID>
DB01567

>  <DRUG_GROUPS>
illicit; approved

>  <GENERIC_NAME>
Fludiazepam

>  <SYNONYMS>
Fludiazepamum [inn-latin]

>  <BRANDS>
Erispan

>  <CHEMICAL_FORMULA>
C16H12ClFN2O

>  <MOLECULAR_WEIGHT>
302.731

>  <EXACT_MASS>
302.062218928

>  <IUPAC_NAME>
7-chloro-5-(2-fluorophenyl)-1-methyl-2,3-dihydro-1H-1,4-benzodiazepin-2-one

>  <INCHI_IDENTIFIER>
InChI=1S/C16H12ClFN2O/c1-20-14-7-6-10(17)8-12(14)16(19-9-15(20)21)11-4-2-3-5-13(11)18/h2-8H,9H2,1H3

>  <INCHI_KEY>
InChIKey=ROYOYTLGDLIGBX-UHFFFAOYSA-N

>  <SMILES>
CN1C2=C(C=C(Cl)C=C2)C(=NCC1=O)C1=CC=CC=C1F

>  <JCHEM_ACCEPTOR_COUNT>
2

>  <JCHEM_DONOR_COUNT>
0

>  <JCHEM_BASIC_PKA>
1.89

>  <JCHEM_PHYSIOLOGICAL_CHARGE>
0

>  <ALOGPS_LOGP>
2.83

>  <JCHEM_LOGP>
3.22

>  <ALOGPS_LOGS>
-4.3

>  <JCHEM_POLARIZABILITY>
29.45

>  <JCHEM_POLAR_SURFACE_AREA>
32.67

>  <JCHEM_REFRACTIVITY>
80.03

>  <JCHEM_ROTATABLE_BOND_COUNT>
1

>  <ALOGPS_SOLUBILITY>
1.44e-02 g/l __

$$$$
DB01568
 OpenBabel03171413512D

 26 30  0  0  1  0  0  0  0  0999 V2000
    1.9356   -0.1190    0.0000 O   0  0  0  0  0  0  0  0  0  0  0  0
    5.5383   -1.8353    0.0000 O   0  5  0  0  0  0  0  0  0  0  0  0
    1.7349   -2.2486    0.0000 O   0  0  0  0  0  0  0  0  0  0  0  0
    1.7349    1.9190    0.0000 O   0  0  0  0  0  0  0  0  0  0  0  0
    5.3440   -0.9899    0.0000 N   0  3  2  0  0  0  0  0  0  0  0  0
    3.2006   -0.5773    0.0000 C   0  0  1  0  0  0  0  0  0  0  0  0
    3.9151   -0.9899    0.0000 C   0  0  2  0  0  0  0  0  0  0  0  0
    4.6296   -0.5773    0.0000 C   0  0  1  0  0  0  0  0  0  0  0  0
    2.4861   -0.9899    0.0000 C   0  0  2  0  0  0  0  0  0  0  0  0
    3.6773    0.0277    0.0000 C   0  0  0  0  0  0  0  0  0  0  0  0
    3.2006    0.2477    0.0000 C   0  0  0  0  0  0  0  0  0  0  0  0
    4.8506    0.0277    0.0000 C   0  0  0  0  0  0  0  0  0  0  0  0
    4.6296    0.2477    0.0000 C   0  0  0  0  0  0  0  0  0  0  0  0
    3.9151    0.6602    0.0000 C   0  0  0  0  0  0  0  0  0  0  0  0
    2.4861   -1.8149    0.0000 C   0  0  2  0  0  0  0  0  0  0  0  0
    3.9151   -1.8149    0.0000 C   0  0  0  0  0  0  0  0  0  0  0  0
    2.4861    0.6602    0.0000 C   0  0  0  0  0  0  0  0  0  0  0  0
    3.2006   -2.2274    0.0000 C   0  0  0  0  0  0  0  0  0  0  0  0
    6.1733   -1.2444    0.0000 C   0  0  0  0  0  0  0  0  0  0  0  0
    3.9151    1.4852    0.0000 C   0  0  0  0  0  0  0  0  0  0  0  0
    2.4861    1.4852    0.0000 C   0  0  0  0  0  0  0  0  0  0  0  0
    3.2006    1.8977    0.0000 C   0  0  0  0  0  0  0  0  0  0  0  0
    1.7349    2.7864    0.0000 C   0  0  0  0  0  0  0  0  0  0  0  0
    4.3612   -1.5214    0.0000 H   0  0  0  0  0  0  0  0  0  0  0  0
    4.8675   -1.2293    0.0000 H   0  0  0  0  0  0  0  0  0  0  0  0
    1.8196   -1.1829    0.0000 H   0  0  0  0  0  0  0  0  0  0  0  0
  1  9  1  0  0  0  0
  1 17  1  0  0  0  0
  4 21  1  0  0  0  0
  4 23  1  0  0  0  0
  5  2  1  6  0  0  0
  5  8  1  0  0  0  0
  5 12  1  0  0  0  0
  5 19  1  0  0  0  0
  6  7  1  0  0  0  0
  6  9  1  0  0  0  0
  6 10  1  1  0  0  0
  6 11  1  0  0  0  0
  7  8  1  0  0  0  0
  7 16  1  0  0  0  0
  7 24  1  1  0  0  0
  8 13  1  0  0  0  0
  8 25  1  6  0  0  0
  9 15  1  0  0  0  0
  9 26  1  1  0  0  0
 10 12  1  0  0  0  0
 11 14  2  0  0  0  0
 11 17  1  0  0  0  0
 13 14  1  0  0  0  0
 14 20  1  0  0  0  0
 15  3  1  6  0  0  0
 15 18  1  0  0  0  0
 16 18  2  0  0  0  0
 17 21  2  0  0  0  0
 20 22  2  0  0  0  0
 21 22  1  0  0  0  0
M  CHG  2   2  -1   5   1
M  END
>  <DRUGBANK_ID>
DB01568

>  <DRUG_GROUPS>
illicit; experimental

>  <GENERIC_NAME>
Codeine-N-oxide

>  <CHEMICAL_FORMULA>
C18H21NO4

>  <MOLECULAR_WEIGHT>
315.3636

>  <EXACT_MASS>
315.147058165

>  <IUPAC_NAME>
(1S,4S,5R,13R,14S,17R)-14-hydroxy-10-methoxy-4-methyl-12-oxa-4-azapentacyclo[9.6.1.0^{1,13}.0^{5,17}.0^{7,18}]octadeca-7(18),8,10,15-tetraen-4-ium-4-olate

>  <INCHI_IDENTIFIER>
InChI=1S/C18H21NO4/c1-19(21)8-7-18-11-4-5-13(20)17(18)23-16-14(22-2)6-3-10(15(16)18)9-12(11)19/h3-6,11-13,17,20H,7-9H2,1-2H3/t11-,12+,13-,17-,18-,19-/m0/s1

>  <INCHI_KEY>
InChIKey=BDLSDHWCOJPHIE-KFUGMXNISA-N

>  <SMILES>
[H][C@@]12OC3=C(OC)C=CC4=C3[C@@]11CC[N@+](C)([O-])[C@]([H])(C4)[C@]1([H])C=C[C@@H]2O

>  <JCHEM_ACCEPTOR_COUNT>
4

>  <JCHEM_DONOR_COUNT>
1

>  <JCHEM_ACIDIC_PKA>
13.78

>  <JCHEM_BASIC_PKA>
2.75

>  <JCHEM_PHYSIOLOGICAL_CHARGE>
0

>  <ALOGPS_LOGP>
-0.48

>  <JCHEM_LOGP>
0.22

>  <ALOGPS_LOGS>
-3.4

>  <JCHEM_POLARIZABILITY>
32.51

>  <JCHEM_POLAR_SURFACE_AREA>
65.57

>  <JCHEM_REFRACTIVITY>
86.65

>  <JCHEM_ROTATABLE_BOND_COUNT>
1

>  <ALOGPS_SOLUBILITY>
1.38e-01 g/l __

$$$$
DB01569
 OpenBabel03171413512D

 28 31  0  0  1  0  0  0  0  0999 V2000
    7.9810    1.4949    0.0000 O   0  0  0  0  0  0  0  0  0  0  0  0
    4.3886    1.1723    0.0000 O   0  0  0  0  0  0  0  0  0  0  0  0
    2.0827   -1.7584    0.0000 O   0  0  0  0  0  0  0  0  0  0  0  0
    2.1054    0.7921    0.0000 O   0  0  0  0  0  0  0  0  0  0  0  0
    6.5320    0.7598    0.0000 C   0  0  1  0  0  0  0  0  0  0  0  0
    6.5320   -0.0653    0.0000 C   0  0  2  0  0  0  0  0  0  0  0  0
    5.8175   -0.4778    0.0000 C   0  0  1  0  0  0  0  0  0  0  0  0
    5.1031   -0.0653    0.0000 C   0  0  2  0  0  0  0  0  0  0  0  0
    7.3127    1.0112    0.0000 C   0  0  2  0  0  0  0  0  0  0  0  0
    5.8175    1.1723    0.0000 C   0  0  0  0  0  0  0  0  0  0  0  0
    7.3127   -0.3166    0.0000 C   0  0  0  0  0  0  0  0  0  0  0  0
    5.1031    0.7598    0.0000 C   0  0  1  0  0  0  0  0  0  0  0  0
    4.3523   -0.4834    0.0000 C   0  0  1  0  0  0  0  0  0  0  0  0
    7.7942    0.3473    0.0000 C   0  0  0  0  0  0  0  0  0  0  0  0
    5.8308   -1.3370    0.0000 C   0  0  0  0  0  0  0  0  0  0  0  0
    6.5320    1.5848    0.0000 C   0  0  0  0  0  0  0  0  0  0  0  0
    5.0899   -1.7724    0.0000 C   0  0  0  0  0  0  0  0  0  0  0  0
    4.3457   -1.3427    0.0000 C   0  0  0  0  0  0  0  0  0  0  0  0
    7.0591    1.7962    0.0000 C   0  0  0  0  0  0  0  0  0  0  0  0
    4.3587    0.3416    0.0000 C   0  0  0  0  0  0  0  0  0  0  0  0
    3.5877   -0.0180    0.0000 C   0  0  0  0  0  0  0  0  0  0  0  0
    3.5739   -1.7962    0.0000 C   0  0  0  0  0  0  0  0  0  0  0  0
    2.8056   -0.4536    0.0000 C   0  0  0  0  0  0  0  0  0  0  0  0
    2.7987   -1.3487    0.0000 C   0  0  0  0  0  0  0  0  0  0  0  0
    2.0960   -0.0328    0.0000 C   0  0  0  0  0  0  0  0  0  0  0  0
    6.6019   -0.7216    0.0000 H   0  0  0  0  0  0  0  0  0  0  0  0
    6.3917   -0.8033    0.0000 H   0  0  0  0  0  0  0  0  0  0  0  0
    5.6746    0.2647    0.0000 H   0  0  0  0  0  0  0  0  0  0  0  0
  3 24  2  0  0  0  0
  4 25  2  0  0  0  0
  5  6  1  0  0  0  0
  5  9  1  0  0  0  0
  5 10  1  0  0  0  0
  5 16  1  1  0  0  0
  6  7  1  0  0  0  0
  6 11  1  0  0  0  0
  6 26  1  6  0  0  0
  7  8  1  0  0  0  0
  7 15  1  0  0  0  0
  7 27  1  1  0  0  0
  8 12  1  0  0  0  0
  8 13  1  0  0  0  0
  8 28  1  6  0  0  0
  9  1  1  1  0  0  0
  9 14  1  0  0  0  0
  9 19  1  0  0  0  0
 10 12  1  0  0  0  0
 11 14  1  0  0  0  0
 12  2  1  6  0  0  0
 13 18  1  0  0  0  0
 13 20  1  1  0  0  0
 13 21  1  0  0  0  0
 15 17  1  0  0  0  0
 17 18  1  0  0  0  0
 18 22  2  0  0  0  0
 21 23  2  0  0  0  0
 22 24  1  0  0  0  0
 23 24  1  0  0  0  0
 23 25  1  0  0  0  0
M  END
>  <DRUGBANK_ID>
DB01569

>  <DRUG_GROUPS>
illicit; experimental

>  <GENERIC_NAME>
Formebolone

>  <CHEMICAL_FORMULA>
C21H28O4

>  <MOLECULAR_WEIGHT>
344.4446

>  <EXACT_MASS>
344.198759384

>  <IUPAC_NAME>
(1S,2R,10S,11S,14S,15S,17R)-14,17-dihydroxy-2,14,15-trimethyl-5-oxotetracyclo[8.7.0.0^{2,7}.0^{11,15}]heptadeca-3,6-diene-4-carbaldehyde

>  <INCHI_IDENTIFIER>
InChI=1S/C21H28O4/c1-19-9-12(11-22)16(23)8-13(19)4-5-14-15-6-7-21(3,25)20(15,2)10-17(24)18(14)19/h8-9,11,14-15,17-18,24-25H,4-7,10H2,1-3H3/t14-,15-,17+,18+,19-,20-,21-/m0/s1

>  <INCHI_KEY>
InChIKey=AMVODTGMYSRMNP-GNIMZFFESA-N

>  <SMILES>
[H][C@@]12CC[C@](C)(O)[C@@]1(C)C[C@@H](O)[C@@]1([H])[C@@]2([H])CCC2=CC(=O)C(C=O)=C[C@]12C

>  <JCHEM_ACCEPTOR_COUNT>
4

>  <JCHEM_DONOR_COUNT>
2

>  <JCHEM_ACIDIC_PKA>
14.39

>  <JCHEM_BASIC_PKA>
-2.9

>  <JCHEM_PHYSIOLOGICAL_CHARGE>
0

>  <ALOGPS_LOGP>
2.59

>  <JCHEM_LOGP>
1.76

>  <ALOGPS_LOGS>
-3.8

>  <JCHEM_POLARIZABILITY>
38.13

>  <JCHEM_POLAR_SURFACE_AREA>
74.6

>  <JCHEM_REFRACTIVITY>
96.9

>  <JCHEM_ROTATABLE_BOND_COUNT>
1

>  <ALOGPS_SOLUBILITY>
6.05e-02 g/l __

$$$$
DB01570
 OpenBabel03171413512D

 27 29  0  0  1  0  0  0  0  0999 V2000
    2.0930   -1.0313    0.0000 O   0  0  0  0  0  0  0  0  0  0  0  0
    2.0930    2.2688    0.0000 O   0  0  0  0  0  0  0  0  0  0  0  0
    3.5220   -0.2063    0.0000 N   0  0  0  0  0  0  0  0  0  0  0  0
    3.5220    2.2688    0.0000 N   0  0  0  0  0  0  0  0  0  0  0  0
    3.5220    1.4438    0.0000 C   0  0  3  0  0  0  0  0  0  0  0  0
    2.8075    1.0313    0.0000 C   0  0  3  0  0  0  0  0  0  0  0  0
    4.2365    1.0313    0.0000 C   0  0  0  0  0  0  0  0  0  0  0  0
    2.8075    0.2063    0.0000 C   0  0  0  0  0  0  0  0  0  0  0  0
    4.2365    0.2063    0.0000 C   0  0  0  0  0  0  0  0  0  0  0  0
    2.0930    1.4438    0.0000 C   0  0  0  0  0  0  0  0  0  0  0  0
    3.5220   -1.0313    0.0000 C   0  0  0  0  0  0  0  0  0  0  0  0
    2.8075   -1.4438    0.0000 C   0  0  3  0  0  0  0  0  0  0  0  0
    4.2365    2.6813    0.0000 C   0  0  0  0  0  0  0  0  0  0  0  0
    2.8075    2.6813    0.0000 C   0  0  0  0  0  0  0  0  0  0  0  0
    2.8075   -2.2688    0.0000 C   0  0  0  0  0  0  0  0  0  0  0  0
    2.8075    3.5063    0.0000 C   0  0  0  0  0  0  0  0  0  0  0  0
    4.2365    3.5063    0.0000 C   0  0  0  0  0  0  0  0  0  0  0  0
    4.9509    2.2688    0.0000 C   0  0  0  0  0  0  0  0  0  0  0  0
    2.0930    3.9188    0.0000 C   0  0  0  0  0  0  0  0  0  0  0  0
    3.5220   -2.6813    0.0000 C   0  0  0  0  0  0  0  0  0  0  0  0
    2.0930   -2.6813    0.0000 C   0  0  0  0  0  0  0  0  0  0  0  0
    4.9509    3.9188    0.0000 C   0  0  0  0  0  0  0  0  0  0  0  0
    5.6655    2.6813    0.0000 C   0  0  0  0  0  0  0  0  0  0  0  0
    5.6655    3.5063    0.0000 C   0  0  0  0  0  0  0  0  0  0  0  0
    3.5220   -3.5063    0.0000 C   0  0  0  0  0  0  0  0  0  0  0  0
    2.0930   -3.5063    0.0000 C   0  0  0  0  0  0  0  0  0  0  0  0
    2.8075   -3.9188    0.0000 C   0  0  0  0  0  0  0  0  0  0  0  0
  1 12  1  0  0  0  0
  2 14  2  0  0  0  0
  3  8  1  0  0  0  0
  3  9  1  0  0  0  0
  3 11  1  0  0  0  0
  4  5  1  0  0  0  0
  4 13  1  0  0  0  0
  4 14  1  0  0  0  0
  5  6  1  0  0  0  0
  5  7  1  0  0  0  0
  6  8  1  0  0  0  0
  6 10  1  0  0  0  0
  7  9  1  0  0  0  0
 11 12  1  0  0  0  0
 12 15  1  0  0  0  0
 13 17  2  0  0  0  0
 13 18  1  0  0  0  0
 14 16  1  0  0  0  0
 15 20  2  0  0  0  0
 15 21  1  0  0  0  0
 16 19  1  0  0  0  0
 17 22  1  0  0  0  0
 18 23  2  0  0  0  0
 20 25  1  0  0  0  0
 21 26  2  0  0  0  0
 22 24  2  0  0  0  0
 23 24  1  0  0  0  0
 25 27  2  0  0  0  0
 26 27  1  0  0  0  0
M  END
>  <DRUGBANK_ID>
DB01570

>  <DRUG_GROUPS>
illicit; experimental

>  <GENERIC_NAME>
Beta-hydroxy-3-methylfentanyl

>  <CHEMICAL_FORMULA>
C23H30N2O2

>  <MOLECULAR_WEIGHT>
366.4965

>  <EXACT_MASS>
366.230728214

>  <IUPAC_NAME>
N-[1-(2-hydroxy-2-phenylethyl)-3-methylpiperidin-4-yl]-N-phenylpropanamide

>  <INCHI_IDENTIFIER>
InChI=1S/C23H30N2O2/c1-3-23(27)25(20-12-8-5-9-13-20)21-14-15-24(16-18(21)2)17-22(26)19-10-6-4-7-11-19/h4-13,18,21-22,26H,3,14-17H2,1-2H3

>  <INCHI_KEY>
InChIKey=FRPRNNRJTCONEC-UHFFFAOYSA-N

>  <SMILES>
CCC(=O)N(C1CCN(CC(O)C2=CC=CC=C2)CC1C)C1=CC=CC=C1

>  <JCHEM_ACCEPTOR_COUNT>
3

>  <JCHEM_DONOR_COUNT>
1

>  <JCHEM_ACIDIC_PKA>
14.11

>  <JCHEM_BASIC_PKA>
8.59

>  <JCHEM_PHYSIOLOGICAL_CHARGE>
1

>  <ALOGPS_LOGP>
3.12

>  <JCHEM_LOGP>
3.38

>  <ALOGPS_LOGS>
-3.6

>  <JCHEM_POLARIZABILITY>
41.14

>  <JCHEM_POLAR_SURFACE_AREA>
43.78

>  <JCHEM_REFRACTIVITY>
109.11

>  <JCHEM_ROTATABLE_BOND_COUNT>
6

>  <ALOGPS_SOLUBILITY>
8.65e-02 g/l __

$$$$
DB01571
 OpenBabel03171413512D

 26 28  0  0  1  0  0  0  0  0999 V2000
    1.6500    2.2688    0.0000 O   0  0  0  0  0  0  0  0  0  0  0  0
    3.0791   -0.2063    0.0000 N   0  0  0  0  0  0  0  0  0  0  0  0
    3.0791    2.2688    0.0000 N   0  0  0  0  0  0  0  0  0  0  0  0
    3.0791    1.4438    0.0000 C   0  0  3  0  0  0  0  0  0  0  0  0
    2.3645    1.0313    0.0000 C   0  0  3  0  0  0  0  0  0  0  0  0
    3.7935    1.0313    0.0000 C   0  0  0  0  0  0  0  0  0  0  0  0
    2.3645    0.2063    0.0000 C   0  0  0  0  0  0  0  0  0  0  0  0
    3.7935    0.2063    0.0000 C   0  0  0  0  0  0  0  0  0  0  0  0
    1.6500    1.4438    0.0000 C   0  0  0  0  0  0  0  0  0  0  0  0
    3.0791   -1.0313    0.0000 C   0  0  0  0  0  0  0  0  0  0  0  0
    2.3645   -1.4438    0.0000 C   0  0  0  0  0  0  0  0  0  0  0  0
    3.7935    2.6813    0.0000 C   0  0  0  0  0  0  0  0  0  0  0  0
    2.3645    2.6813    0.0000 C   0  0  0  0  0  0  0  0  0  0  0  0
    2.3645    3.5063    0.0000 C   0  0  0  0  0  0  0  0  0  0  0  0
    2.3645   -2.2688    0.0000 C   0  0  0  0  0  0  0  0  0  0  0  0
    3.7935    3.5063    0.0000 C   0  0  0  0  0  0  0  0  0  0  0  0
    4.5080    2.2688    0.0000 C   0  0  0  0  0  0  0  0  0  0  0  0
    1.6500    3.9188    0.0000 C   0  0  0  0  0  0  0  0  0  0  0  0
    4.5080    3.9188    0.0000 C   0  0  0  0  0  0  0  0  0  0  0  0
    5.2224    2.6813    0.0000 C   0  0  0  0  0  0  0  0  0  0  0  0
    3.0791   -2.6813    0.0000 C   0  0  0  0  0  0  0  0  0  0  0  0
    1.6500   -2.6813    0.0000 C   0  0  0  0  0  0  0  0  0  0  0  0
    5.2224    3.5063    0.0000 C   0  0  0  0  0  0  0  0  0  0  0  0
    3.0791   -3.5063    0.0000 C   0  0  0  0  0  0  0  0  0  0  0  0
    1.6500   -3.5063    0.0000 C   0  0  0  0  0  0  0  0  0  0  0  0
    2.3645   -3.9188    0.0000 C   0  0  0  0  0  0  0  0  0  0  0  0
  1 13  2  0  0  0  0
  2  7  1  0  0  0  0
  2  8  1  0  0  0  0
  2 10  1  0  0  0  0
  3  4  1  0  0  0  0
  3 12  1  0  0  0  0
  3 13  1  0  0  0  0
  4  5  1  0  0  0  0
  4  6  1  0  0  0  0
  5  7  1  0  0  0  0
  5  9  1  0  0  0  0
  6  8  1  0  0  0  0
 10 11  1  0  0  0  0
 11 15  1  0  0  0  0
 12 16  2  0  0  0  0
 12 17  1  0  0  0  0
 13 14  1  0  0  0  0
 14 18  1  0  0  0  0
 15 21  2  0  0  0  0
 15 22  1  0  0  0  0
 16 19  1  0  0  0  0
 17 20  2  0  0  0  0
 19 23  2  0  0  0  0
 20 23  1  0  0  0  0
 21 24  1  0  0  0  0
 22 25  2  0  0  0  0
 24 26  2  0  0  0  0
 25 26  1  0  0  0  0
M  END
>  <DRUGBANK_ID>
DB01571

>  <DRUG_GROUPS>
illicit; experimental

>  <GENERIC_NAME>
3-Methylfentanyl

>  <SYNONYMS>
3-MF; DEA No. 9813; mefentanyl

>  <CHEMICAL_FORMULA>
C23H30N2O

>  <MOLECULAR_WEIGHT>
350.4971

>  <EXACT_MASS>
350.235813592

>  <IUPAC_NAME>
N-[3-methyl-1-(2-phenylethyl)piperidin-4-yl]-N-phenylpropanamide

>  <INCHI_IDENTIFIER>
InChI=1S/C23H30N2O/c1-3-23(26)25(21-12-8-5-9-13-21)22-15-17-24(18-19(22)2)16-14-20-10-6-4-7-11-20/h4-13,19,22H,3,14-18H2,1-2H3

>  <INCHI_KEY>
InChIKey=MLQRZXNZHAOCHQ-UHFFFAOYSA-N

>  <SMILES>
CCC(=O)N(C1CCN(CCC2=CC=CC=C2)CC1C)C1=CC=CC=C1

>  <JCHEM_ACCEPTOR_COUNT>
2

>  <JCHEM_DONOR_COUNT>
0

>  <JCHEM_BASIC_PKA>
9.08

>  <JCHEM_PHYSIOLOGICAL_CHARGE>
1

>  <ALOGPS_LOGP>
4.29

>  <JCHEM_LOGP>
4.29

>  <ALOGPS_LOGS>
-4.4

>  <JCHEM_POLARIZABILITY>
41.64

>  <JCHEM_POLAR_SURFACE_AREA>
23.55

>  <JCHEM_REFRACTIVITY>
107.9

>  <JCHEM_ROTATABLE_BOND_COUNT>
6

>  <ALOGPS_SOLUBILITY>
1.50e-02 g/l __

$$$$
DB01573
 OpenBabel03171413512D

 31 36  0  0  1  0  0  0  0  0999 V2000
    4.1891   -0.9864    0.0000 O   0  0  0  0  0  0  0  0  0  0  0  0
    3.9885   -3.1159    0.0000 O   0  0  0  0  0  0  0  0  0  0  0  0
    3.9885    1.0514    0.0000 O   0  0  0  0  0  0  0  0  0  0  0  0
    7.5974   -1.8572    0.0000 N   0  0  0  0  0  0  0  0  0  0  0  0
    5.4541   -1.4447    0.0000 C   0  0  1  0  0  0  0  0  0  0  0  0
    6.1685   -1.8572    0.0000 C   0  0  2  0  0  0  0  0  0  0  0  0
    6.8830   -1.4447    0.0000 C   0  0  1  0  0  0  0  0  0  0  0  0
    4.7397   -1.8572    0.0000 C   0  0  2  0  0  0  0  0  0  0  0  0
    5.9308   -0.8397    0.0000 C   0  0  0  0  0  0  0  0  0  0  0  0
    5.4541   -0.6198    0.0000 C   0  0  0  0  0  0  0  0  0  0  0  0
    6.8830   -0.6198    0.0000 C   0  0  0  0  0  0  0  0  0  0  0  0
    7.1041   -0.8397    0.0000 C   0  0  0  0  0  0  0  0  0  0  0  0
    6.1685   -0.2072    0.0000 C   0  0  0  0  0  0  0  0  0  0  0  0
    4.7397   -2.6822    0.0000 C   0  0  2  0  0  0  0  0  0  0  0  0
    6.1685   -2.6822    0.0000 C   0  0  0  0  0  0  0  0  0  0  0  0
    4.7397   -0.2072    0.0000 C   0  0  0  0  0  0  0  0  0  0  0  0
    5.4541   -3.0947    0.0000 C   0  0  0  0  0  0  0  0  0  0  0  0
    6.1685    0.6177    0.0000 C   0  0  0  0  0  0  0  0  0  0  0  0
    8.1883   -2.4923    0.0000 C   0  0  0  0  0  0  0  0  0  0  0  0
    4.7397    0.6177    0.0000 C   0  0  0  0  0  0  0  0  0  0  0  0
    5.4541    1.0302    0.0000 C   0  0  0  0  0  0  0  0  0  0  0  0
    3.9885    1.9188    0.0000 C   0  0  0  0  0  0  0  0  0  0  0  0
    3.2373    2.3526    0.0000 C   0  0  0  0  0  0  0  0  0  0  0  0
    2.4860    1.9189    0.0000 C   0  0  0  0  0  0  0  0  0  0  0  0
    3.2373    3.2200    0.0000 C   0  0  0  0  0  0  0  0  0  0  0  0
    1.7348    2.3526    0.0000 C   0  0  0  0  0  0  0  0  0  0  0  0
    2.4860    3.6537    0.0000 C   0  0  0  0  0  0  0  0  0  0  0  0
    1.7348    3.2200    0.0000 C   0  0  0  0  0  0  0  0  0  0  0  0
    6.6146   -2.3888    0.0000 H   0  0  0  0  0  0  0  0  0  0  0  0
    7.1209   -2.0966    0.0000 H   0  0  0  0  0  0  0  0  0  0  0  0
    4.0731   -2.0502    0.0000 H   0  0  0  0  0  0  0  0  0  0  0  0
  1  8  1  0  0  0  0
  1 16  1  0  0  0  0
  3 20  1  0  0  0  0
  3 22  1  0  0  0  0
  4  7  1  0  0  0  0
  4 12  1  0  0  0  0
  4 19  1  0  0  0  0
  5  6  1  0  0  0  0
  5  8  1  0  0  0  0
  5  9  1  1  0  0  0
  5 10  1  0  0  0  0
  6  7  1  0  0  0  0
  6 15  1  0  0  0  0
  6 29  1  1  0  0  0
  7 11  1  0  0  0  0
  7 30  1  6  0  0  0
  8 14  1  0  0  0  0
  8 31  1  1  0  0  0
  9 12  1  0  0  0  0
 10 13  2  0  0  0  0
 10 16  1  0  0  0  0
 11 13  1  0  0  0  0
 13 18  1  0  0  0  0
 14  2  1  6  0  0  0
 14 17  1  0  0  0  0
 15 17  2  0  0  0  0
 16 20  2  0  0  0  0
 18 21  2  0  0  0  0
 20 21  1  0  0  0  0
 22 23  1  0  0  0  0
 23 24  2  0  0  0  0
 23 25  1  0  0  0  0
 24 26  1  0  0  0  0
 25 27  2  0  0  0  0
 26 28  2  0  0  0  0
 27 28  1  0  0  0  0
M  END
>  <DRUGBANK_ID>
DB01573

>  <DRUG_GROUPS>
illicit; experimental

>  <GENERIC_NAME>
Benzylmorphine

>  <CHEMICAL_FORMULA>
C24H25NO3

>  <MOLECULAR_WEIGHT>
375.4602

>  <EXACT_MASS>
375.183443671

>  <IUPAC_NAME>
(1S,5R,13R,14S,17R)-10-(benzyloxy)-4-methyl-12-oxa-4-azapentacyclo[9.6.1.0^{1,13}.0^{5,17}.0^{7,18}]octadeca-7(18),8,10,15-tetraen-14-ol

>  <INCHI_IDENTIFIER>
InChI=1S/C24H25NO3/c1-25-12-11-24-17-8-9-19(26)23(24)28-22-20(27-14-15-5-3-2-4-6-15)10-7-16(21(22)24)13-18(17)25/h2-10,17-19,23,26H,11-14H2,1H3/t17-,18+,19-,23-,24-/m0/s1

>  <INCHI_KEY>
InChIKey=RDJGWRFTDZZXSM-RNWLQCGYSA-N

>  <SMILES>
[H][C@@]12OC3=C(OCC4=CC=CC=C4)C=CC4=C3[C@@]11CCN(C)[C@]([H])(C4)[C@]1([H])C=C[C@@H]2O

>  <JCHEM_ACCEPTOR_COUNT>
4

>  <JCHEM_DONOR_COUNT>
1

>  <JCHEM_ACIDIC_PKA>
13.78

>  <JCHEM_BASIC_PKA>
9.19

>  <JCHEM_PHYSIOLOGICAL_CHARGE>
1

>  <ALOGPS_LOGP>
2.71

>  <JCHEM_LOGP>
3.07

>  <ALOGPS_LOGS>
-3.9

>  <JCHEM_POLARIZABILITY>
41.37

>  <JCHEM_POLAR_SURFACE_AREA>
41.93

>  <JCHEM_REFRACTIVITY>
109.22

>  <JCHEM_ROTATABLE_BOND_COUNT>
3

>  <ALOGPS_SOLUBILITY>
4.56e-02 g/l __

$$$$
DB01576
 OpenBabel03171413512D

 10 10  0  0  1  0  0  0  0  0999 V2000
    3.0790    1.7284    0.0000 N   0  0  0  0  0  0  0  0  0  0  0  0
    3.0790    0.9034    0.0000 C   0  0  2  0  0  0  0  0  0  0  0  0
    2.3645    0.4909    0.0000 C   0  0  0  0  0  0  0  0  0  0  0  0
    2.3645   -0.3341    0.0000 C   0  0  0  0  0  0  0  0  0  0  0  0
    3.7935    0.4909    0.0000 C   0  0  0  0  0  0  0  0  0  0  0  0
    3.0790   -0.7466    0.0000 C   0  0  0  0  0  0  0  0  0  0  0  0
    1.6500   -0.7466    0.0000 C   0  0  0  0  0  0  0  0  0  0  0  0
    3.0790   -1.5716    0.0000 C   0  0  0  0  0  0  0  0  0  0  0  0
    1.6500   -1.5716    0.0000 C   0  0  0  0  0  0  0  0  0  0  0  0
    2.3645   -1.9841    0.0000 C   0  0  0  0  0  0  0  0  0  0  0  0
  2  1  1  1  0  0  0
  2  3  1  0  0  0  0
  2  5  1  0  0  0  0
  3  4  1  0  0  0  0
  4  6  2  0  0  0  0
  4  7  1  0  0  0  0
  6  8  1  0  0  0  0
  7  9  2  0  0  0  0
  8 10  2  0  0  0  0
  9 10  1  0  0  0  0
M  END
>  <DRUGBANK_ID>
DB01576

>  <DRUG_GROUPS>
illicit; approved

>  <GENERIC_NAME>
Dextroamphetamine

>  <SYNONYMS>
(+)-(S)-amphetamine; (S)-amphetamine; d-amphetamine; dexamphetamine; Dextroamphetamine

>  <SALTS>
Dextroamphetamine sulfate

>  <BRANDS>
Amsustain; Dephadren; Dexacaps; Dexadrine; Dexedrine; Dexidrine; Dextrostat

>  <CHEMICAL_FORMULA>
C9H13N

>  <MOLECULAR_WEIGHT>
135.2062

>  <EXACT_MASS>
135.104799421

>  <IUPAC_NAME>
(2S)-1-phenylpropan-2-amine

>  <INCHI_IDENTIFIER>
InChI=1S/C9H13N/c1-8(10)7-9-5-3-2-4-6-9/h2-6,8H,7,10H2,1H3/t8-/m0/s1

>  <INCHI_KEY>
InChIKey=KWTSXDURSIMDCE-QMMMGPOBSA-N

>  <SMILES>
C[C@H](N)CC1=CC=CC=C1

>  <JCHEM_ACCEPTOR_COUNT>
1

>  <JCHEM_DONOR_COUNT>
1

>  <JCHEM_BASIC_PKA>
10.01

>  <JCHEM_PHYSIOLOGICAL_CHARGE>
1

>  <ALOGPS_LOGP>
1.85

>  <JCHEM_LOGP>
1.8

>  <ALOGPS_LOGS>
-1.9

>  <JCHEM_POLARIZABILITY>
16.08

>  <JCHEM_POLAR_SURFACE_AREA>
26.02

>  <JCHEM_REFRACTIVITY>
43.71

>  <JCHEM_ROTATABLE_BOND_COUNT>
2

>  <ALOGPS_SOLUBILITY>
1.74e+00 g/l __

$$$$
DB01577
 OpenBabel03171413512D

 11 11  0  0  1  0  0  0  0  0999 V2000
    3.0791    1.6500    0.0000 N   0  0  0  0  0  0  0  0  0  0  0  0
    3.0791    0.8250    0.0000 C   0  0  2  0  0  0  0  0  0  0  0  0
    2.3645    0.4125    0.0000 C   0  0  0  0  0  0  0  0  0  0  0  0
    2.3645   -0.4125    0.0000 C   0  0  0  0  0  0  0  0  0  0  0  0
    3.7935    0.4125    0.0000 C   0  0  0  0  0  0  0  0  0  0  0  0
    3.0791   -0.8250    0.0000 C   0  0  0  0  0  0  0  0  0  0  0  0
    1.6500   -0.8250    0.0000 C   0  0  0  0  0  0  0  0  0  0  0  0
    3.7935    2.0625    0.0000 C   0  0  0  0  0  0  0  0  0  0  0  0
    3.0791   -1.6500    0.0000 C   0  0  0  0  0  0  0  0  0  0  0  0
    1.6500   -1.6500    0.0000 C   0  0  0  0  0  0  0  0  0  0  0  0
    2.3645   -2.0625    0.0000 C   0  0  0  0  0  0  0  0  0  0  0  0
  1  8  1  0  0  0  0
  2  1  1  1  0  0  0
  2  3  1  0  0  0  0
  2  5  1  0  0  0  0
  3  4  1  0  0  0  0
  4  6  2  0  0  0  0
  4  7  1  0  0  0  0
  6  9  1  0  0  0  0
  7 10  2  0  0  0  0
  9 11  2  0  0  0  0
 10 11  1  0  0  0  0
M  END
>  <DRUGBANK_ID>
DB01577

>  <DRUG_GROUPS>
illicit; approved

>  <GENERIC_NAME>
Methamphetamine

>  <SYNONYMS>
(+ )-methylamphetamine; (+)-(s)-deoxyephedrine; (+)-(s)-n-alpha-dimethylphenethylamine; (+)-2-(N-Methylamino)-1-phenylpropane; (+)-methamphetamine; (+)-methylamphetamine; (+)-n-methylamphetamine; (+)-n,alpha-dimethyl-beta-phenylethylamine; (+)-n,alpha-dimethylphenethylamine; (2S)-N-methyl-1-phenylpropan-2-amine; (s)-(+)-deoxyephedrine; (s)-(+)-methamphetamine; (s)-(+)-n,alpha,dimethylphenethylamine; (s)-methamphetamine; (s)-methylamphetamine; (s)-n,alpha-dimethylbenzeneethanamine; (s)-n,alpha-dimethylbenzeneethanoamine; 1-Phenyl-2-methylamino-propan [German]; 1-Phenyl-2-methylaminopropane; 2S-(+)-Methamphetamine; D-(s)-methamphetamine; d-1-Phenyl-2-methylaminopropan [German]; D-1-Phenyl-2-methylaminopropane; D-deoxyephedrine; D-desoxyephedrine; D-methamphetamine; D-methylamphetamine; D-n-methylamphetamine; D-n,alpha-dimethylphenethylamine; D-phenylisopropylmethylamine; Desoxyephedrine hydrochloride; Ice; L-methamphetamine; Metamfetamina [inn-spanish]; Metamfetaminum [inn-latin]; Metamphetamine; Metanfetamina [inn-spanish]; Meth; Methamphetaminum [inn-latin]; Methyl-beta-phenylisopropylamine; Methylamphetamine; N-Methyl-1-phenyl-2-propanamine; N-methyl-beta-phenylisopropylamin [german]; N-methyl-beta-phenylisopropylamine; N-methylamphetamine; S-(+)-methamphetamine

>  <BRANDS>
Desoxyn; Desyphed; Desyphed hydrochloride; Metamfetamine; Metamfetamine-m; Norodin; Speed; Stimulex

>  <CHEMICAL_FORMULA>
C10H15N

>  <MOLECULAR_WEIGHT>
149.2328

>  <EXACT_MASS>
149.120449485

>  <IUPAC_NAME>
methyl[(2S)-1-phenylpropan-2-yl]amine

>  <INCHI_IDENTIFIER>
InChI=1S/C10H15N/c1-9(11-2)8-10-6-4-3-5-7-10/h3-7,9,11H,8H2,1-2H3/t9-/m0/s1

>  <INCHI_KEY>
InChIKey=MYWUZJCMWCOHBA-VIFPVBQESA-N

>  <SMILES>
CN[C@@H](C)CC1=CC=CC=C1

>  <JCHEM_ACCEPTOR_COUNT>
1

>  <JCHEM_DONOR_COUNT>
1

>  <JCHEM_BASIC_PKA>
10.21

>  <JCHEM_PHYSIOLOGICAL_CHARGE>
1

>  <ALOGPS_LOGP>
2.23

>  <JCHEM_LOGP>
2.24

>  <ALOGPS_LOGS>
-2.2

>  <JCHEM_POLARIZABILITY>
18.04

>  <JCHEM_POLAR_SURFACE_AREA>
12.03

>  <JCHEM_REFRACTIVITY>
48.48

>  <JCHEM_ROTATABLE_BOND_COUNT>
3

>  <ALOGPS_SOLUBILITY>
9.28e-01 g/l __

$$$$
DB01579
 OpenBabel03171413512D

 14 15  0  0  1  0  0  0  0  0999 V2000
    4.5080    0.6188    0.0000 O   0  0  0  0  0  0  0  0  0  0  0  0
    4.5080   -1.0313    0.0000 N   0  0  0  0  0  0  0  0  0  0  0  0
    3.7935   -0.6188    0.0000 C   0  0  3  0  0  0  0  0  0  0  0  0
    3.7935    0.2063    0.0000 C   0  0  3  0  0  0  0  0  0  0  0  0
    5.2224   -0.6188    0.0000 C   0  0  0  0  0  0  0  0  0  0  0  0
    5.2224    0.2063    0.0000 C   0  0  0  0  0  0  0  0  0  0  0  0
    3.0791   -1.0313    0.0000 C   0  0  0  0  0  0  0  0  0  0  0  0
    3.0791    0.6188    0.0000 C   0  0  0  0  0  0  0  0  0  0  0  0
    4.5080   -1.8563    0.0000 C   0  0  0  0  0  0  0  0  0  0  0  0
    2.3645    0.2063    0.0000 C   0  0  0  0  0  0  0  0  0  0  0  0
    3.0791    1.4438    0.0000 C   0  0  0  0  0  0  0  0  0  0  0  0
    1.6500    0.6188    0.0000 C   0  0  0  0  0  0  0  0  0  0  0  0
    2.3645    1.8563    0.0000 C   0  0  0  0  0  0  0  0  0  0  0  0
    1.6500    1.4438    0.0000 C   0  0  0  0  0  0  0  0  0  0  0  0
  1  4  1  0  0  0  0
  1  6  1  0  0  0  0
  2  3  1  0  0  0  0
  2  5  1  0  0  0  0
  2  9  1  0  0  0  0
  3  4  1  0  0  0  0
  3  7  1  0  0  0  0
  4  8  1  0  0  0  0
  5  6  1  0  0  0  0
  8 10  2  0  0  0  0
  8 11  1  0  0  0  0
 10 12  1  0  0  0  0
 11 13  2  0  0  0  0
 12 14  2  0  0  0  0
 13 14  1  0  0  0  0
M  END
>  <DRUGBANK_ID>
DB01579

>  <DRUG_GROUPS>
illicit; approved

>  <GENERIC_NAME>
Phendimetrazine

>  <SYNONYMS>
(+)-3,4-Dimethyl-2-phenylmorpholine; (+)-phendimetrazine; (2S,3S)-3,4-Dimethyl-2-phenylmorpholine; 3-Phenyl-2-methylmorpholine; 3,4-Dimethyl-2-phenylmorpholine; d-2-Phenyl-3,4-dimethylmorpholine

>  <BRANDS>
Adphen; Antapentan; Bacarate; Dyrexan; Hyrex; Mephenmetrazine; Prelu-2; Sedafamen; Wehless; X-trozine

>  <CHEMICAL_FORMULA>
C12H17NO

>  <MOLECULAR_WEIGHT>
191.2695

>  <EXACT_MASS>
191.131014171

>  <IUPAC_NAME>
3,4-dimethyl-2-phenylmorpholine

>  <INCHI_IDENTIFIER>
InChI=1S/C12H17NO/c1-10-12(14-9-8-13(10)2)11-6-4-3-5-7-11/h3-7,10,12H,8-9H2,1-2H3

>  <INCHI_KEY>
InChIKey=MFOCDFTXLCYLKU-UHFFFAOYSA-N

>  <SMILES>
CC1C(OCCN1C)C1=CC=CC=C1

>  <JCHEM_ACCEPTOR_COUNT>
2

>  <JCHEM_DONOR_COUNT>
0

>  <JCHEM_BASIC_PKA>
7.28

>  <JCHEM_PHYSIOLOGICAL_CHARGE>
1

>  <ALOGPS_LOGP>
2.01

>  <JCHEM_LOGP>
2.17

>  <ALOGPS_LOGS>
-1.9

>  <JCHEM_POLARIZABILITY>
21.99

>  <JCHEM_POLAR_SURFACE_AREA>
12.47

>  <JCHEM_REFRACTIVITY>
57.76

>  <JCHEM_ROTATABLE_BOND_COUNT>
1

>  <ALOGPS_SOLUBILITY>
2.43e+00 g/l __

$$$$
DB01588
 OpenBabel03171413512D

 23 26  0  0  0  0  0  0  0  0999 V2000
    3.6651   -2.5532    0.0000 Cl  0  0  0  0  0  0  0  0  0  0  0  0
    3.4586    2.1652    0.0000 O   0  0  0  0  0  0  0  0  0  0  0  0
    3.3022    0.7769    0.0000 N   0  0  0  0  0  0  0  0  0  0  0  0
    5.1560    0.7769    0.0000 N   0  0  0  0  0  0  0  0  0  0  0  0
    2.2548    1.7488    0.0000 C   0  0  0  0  0  0  0  0  0  0  0  0
    2.4384    2.5532    0.0000 C   0  0  0  0  0  0  0  0  0  0  0  0
    1.6500    2.3100    0.0000 C   0  0  0  0  0  0  0  0  0  0  0  0
    2.4979    0.9605    0.0000 C   0  0  0  0  0  0  0  0  0  0  0  0
    3.4859   -0.0274    0.0000 C   0  0  0  0  0  0  0  0  0  0  0  0
    3.8166    1.4220    0.0000 C   0  0  0  0  0  0  0  0  0  0  0  0
    4.2291   -0.3854    0.0000 C   0  0  0  0  0  0  0  0  0  0  0  0
    4.6416    1.4220    0.0000 C   0  0  0  0  0  0  0  0  0  0  0  0
    2.7684   -0.5004    0.0000 C   0  0  0  0  0  0  0  0  0  0  0  0
    4.9724   -0.0274    0.0000 C   0  0  0  0  0  0  0  0  0  0  0  0
    4.3066   -1.2412    0.0000 C   0  0  0  0  0  0  0  0  0  0  0  0
    2.8260   -1.3579    0.0000 C   0  0  0  0  0  0  0  0  0  0  0  0
    5.6174   -0.5418    0.0000 C   0  0  0  0  0  0  0  0  0  0  0  0
    3.6003   -1.7308    0.0000 C   0  0  0  0  0  0  0  0  0  0  0  0
    6.3854   -0.2403    0.0000 C   0  0  0  0  0  0  0  0  0  0  0  0
    5.4945   -1.3575    0.0000 C   0  0  0  0  0  0  0  0  0  0  0  0
    7.0304   -0.7547    0.0000 C   0  0  0  0  0  0  0  0  0  0  0  0
    6.1395   -1.8719    0.0000 C   0  0  0  0  0  0  0  0  0  0  0  0
    6.9074   -1.5705    0.0000 C   0  0  0  0  0  0  0  0  0  0  0  0
  1 18  1  0  0  0  0
  2 10  2  0  0  0  0
  3  8  1  0  0  0  0
  3  9  1  0  0  0  0
  3 10  1  0  0  0  0
  4 12  1  0  0  0  0
  4 14  2  0  0  0  0
  5  6  1  0  0  0  0
  5  7  1  0  0  0  0
  5  8  1  0  0  0  0
  6  7  1  0  0  0  0
  9 11  2  0  0  0  0
  9 13  1  0  0  0  0
 10 12  1  0  0  0  0
 11 14  1  0  0  0  0
 11 15  1  0  0  0  0
 13 16  2  0  0  0  0
 14 17  1  0  0  0  0
 15 18  2  0  0  0  0
 16 18  1  0  0  0  0
 17 19  2  0  0  0  0
 17 20  1  0  0  0  0
 19 21  1  0  0  0  0
 20 22  2  0  0  0  0
 21 23  2  0  0  0  0
 22 23  1  0  0  0  0
M  END
>  <DRUGBANK_ID>
DB01588

>  <DRUG_GROUPS>
illicit; approved

>  <GENERIC_NAME>
Prazepam

>  <SYNONYMS>
Prazepamum [inn-latin]

>  <BRANDS>
Centrax; Demetrin; Lysanxia; Prazeene; Prazene; Sedapran; Settima; Trepidan; Verstran

>  <CHEMICAL_FORMULA>
C19H17ClN2O

>  <MOLECULAR_WEIGHT>
324.804

>  <EXACT_MASS>
324.102940883

>  <IUPAC_NAME>
7-chloro-1-(cyclopropylmethyl)-5-phenyl-2,3-dihydro-1H-1,4-benzodiazepin-2-one

>  <INCHI_IDENTIFIER>
InChI=1S/C19H17ClN2O/c20-15-8-9-17-16(10-15)19(14-4-2-1-3-5-14)21-11-18(23)22(17)12-13-6-7-13/h1-5,8-10,13H,6-7,11-12H2

>  <INCHI_KEY>
InChIKey=MWQCHHACWWAQLJ-UHFFFAOYSA-N

>  <SMILES>
ClC1=CC2=C(C=C1)N(CC1CC1)C(=O)CN=C2C1=CC=CC=C1

>  <JCHEM_ACCEPTOR_COUNT>
2

>  <JCHEM_DONOR_COUNT>
0

>  <JCHEM_BASIC_PKA>
3.06

>  <JCHEM_PHYSIOLOGICAL_CHARGE>
0

>  <ALOGPS_LOGP>
3.68

>  <JCHEM_LOGP>
3.86

>  <ALOGPS_LOGS>
-4.9

>  <JCHEM_POLARIZABILITY>
34.77

>  <JCHEM_POLAR_SURFACE_AREA>
32.67

>  <JCHEM_REFRACTIVITY>
91.75

>  <JCHEM_ROTATABLE_BOND_COUNT>
3

>  <ALOGPS_SOLUBILITY>
3.99e-03 g/l __

$$$$
DB01589
 OpenBabel03171413512D

 25 27  0  0  0  0  0  0  0  0999 V2000
    4.0267   -2.3989    0.0000 Cl  0  0  0  0  0  0  0  0  0  0  0  0
    4.2399    2.3989    0.0000 S   0  0  0  0  0  0  0  0  0  0  0  0
    1.6936    1.0712    0.0000 F   0  0  0  0  0  0  0  0  0  0  0  0
    1.6500    2.2371    0.0000 F   0  0  0  0  0  0  0  0  0  0  0  0
    2.8159    2.2807    0.0000 F   0  0  0  0  0  0  0  0  0  0  0  0
    6.8699    0.7297    0.0000 F   0  0  0  0  0  0  0  0  0  0  0  0
    3.6638    0.9312    0.0000 N   0  0  0  0  0  0  0  0  0  0  0  0
    5.5176    0.9312    0.0000 N   0  0  0  0  0  0  0  0  0  0  0  0
    3.8475    0.1269    0.0000 C   0  0  0  0  0  0  0  0  0  0  0  0
    4.5907   -0.2311    0.0000 C   0  0  0  0  0  0  0  0  0  0  0  0
    5.3340    0.1269    0.0000 C   0  0  0  0  0  0  0  0  0  0  0  0
    2.8595    1.1148    0.0000 C   0  0  0  0  0  0  0  0  0  0  0  0
    4.1782    1.5762    0.0000 C   0  0  0  0  0  0  0  0  0  0  0  0
    5.0032    1.5762    0.0000 C   0  0  0  0  0  0  0  0  0  0  0  0
    3.1301   -0.3462    0.0000 C   0  0  0  0  0  0  0  0  0  0  0  0
    4.6682   -1.0869    0.0000 C   0  0  0  0  0  0  0  0  0  0  0  0
    5.9790   -0.3875    0.0000 C   0  0  0  0  0  0  0  0  0  0  0  0
    2.2548    1.6759    0.0000 C   0  0  0  0  0  0  0  0  0  0  0  0
    3.1876   -1.2036    0.0000 C   0  0  0  0  0  0  0  0  0  0  0  0
    3.9619   -1.5765    0.0000 C   0  0  0  0  0  0  0  0  0  0  0  0
    6.7470   -0.0860    0.0000 C   0  0  0  0  0  0  0  0  0  0  0  0
    5.8561   -1.2033    0.0000 C   0  0  0  0  0  0  0  0  0  0  0  0
    7.3920   -0.6004    0.0000 C   0  0  0  0  0  0  0  0  0  0  0  0
    6.5011   -1.7176    0.0000 C   0  0  0  0  0  0  0  0  0  0  0  0
    7.2691   -1.4163    0.0000 C   0  0  0  0  0  0  0  0  0  0  0  0
  1 20  1  0  0  0  0
  2 13  2  0  0  0  0
  3 18  1  0  0  0  0
  4 18  1  0  0  0  0
  5 18  1  0  0  0  0
  6 21  1  0  0  0  0
  7  9  1  0  0  0  0
  7 12  1  0  0  0  0
  7 13  1  0  0  0  0
  8 11  2  0  0  0  0
  8 14  1  0  0  0  0
  9 10  2  0  0  0  0
  9 15  1  0  0  0  0
 10 11  1  0  0  0  0
 10 16  1  0  0  0  0
 11 17  1  0  0  0  0
 12 18  1  0  0  0  0
 13 14  1  0  0  0  0
 15 19  2  0  0  0  0
 16 20  2  0  0  0  0
 17 21  1  0  0  0  0
 17 22  2  0  0  0  0
 19 20  1  0  0  0  0
 21 23  2  0  0  0  0
 22 24  1  0  0  0  0
 23 25  1  0  0  0  0
 24 25  2  0  0  0  0
M  END
>  <DRUGBANK_ID>
DB01589

>  <DRUG_GROUPS>
illicit; approved

>  <GENERIC_NAME>
Quazepam

>  <SYNONYMS>
Quazepamum [inn-latin]

>  <BRANDS>
Cetrane; Doral; Dormalin; Oniria; Prosedar; Quazium; Selepam

>  <CHEMICAL_FORMULA>
C17H11ClF4N2S

>  <MOLECULAR_WEIGHT>
386.794

>  <EXACT_MASS>
386.026759579

>  <IUPAC_NAME>
7-chloro-5-(2-fluorophenyl)-1-(2,2,2-trifluoroethyl)-2,3-dihydro-1H-1,4-benzodiazepine-2-thione

>  <INCHI_IDENTIFIER>
InChI=1S/C17H11ClF4N2S/c18-10-5-6-14-12(7-10)16(11-3-1-2-4-13(11)19)23-8-15(25)24(14)9-17(20,21)22/h1-7H,8-9H2

>  <INCHI_KEY>
InChIKey=IKMPWMZBZSAONZ-UHFFFAOYSA-N

>  <SMILES>
FC1=CC=CC=C1C1=NCC(=S)N(CC(F)(F)F)C2=C1C=C(Cl)C=C2

>  <JCHEM_ACCEPTOR_COUNT>
1

>  <JCHEM_DONOR_COUNT>
0

>  <JCHEM_ACIDIC_PKA>
18.93

>  <JCHEM_BASIC_PKA>
2.59

>  <JCHEM_PHYSIOLOGICAL_CHARGE>
0

>  <ALOGPS_LOGP>
4.76

>  <JCHEM_LOGP>
5.06

>  <ALOGPS_LOGS>
-5.2

>  <JCHEM_POLARIZABILITY>
33.99

>  <JCHEM_POLAR_SURFACE_AREA>
15.6

>  <JCHEM_REFRACTIVITY>
93.47

>  <JCHEM_ROTATABLE_BOND_COUNT>
3

>  <ALOGPS_SOLUBILITY>
2.31e-03 g/l __

$$$$
DB02901
 OpenBabel03171413512D

 21 24  0  0  0  0  0  0  0  0999 V2000
    1.1883    1.7360    0.0000 C   0  0  0  0  0  0  0  0  0  0  0  0
    1.2471    0.9131    0.0000 C   0  0  3  0  0  0  0  0  0  0  0  0
    0.5326    1.3256    0.0000 C   0  0  0  0  0  0  0  0  0  0  0  0
   -0.1819    0.9131    0.0000 C   0  0  0  0  0  0  0  0  0  0  0  0
   -0.1819    0.0881    0.0000 C   0  0  3  0  0  0  0  0  0  0  0  0
    0.5326   -0.3244    0.0000 C   0  0  3  0  0  0  0  0  0  0  0  0
    0.5326   -1.1494    0.0000 C   0  0  0  0  0  0  0  0  0  0  0  0
   -0.1819   -1.5619    0.0000 C   0  0  0  0  0  0  0  0  0  0  0  0
   -0.8964   -1.1494    0.0000 C   0  0  3  0  0  0  0  0  0  0  0  0
   -1.6108   -1.5619    0.0000 C   0  0  0  0  0  0  0  0  0  0  0  0
   -2.3253   -1.1494    0.0000 C   0  0  0  0  0  0  0  0  0  0  0  0
   -3.0398   -1.5619    0.0000 O   0  0  0  0  0  0  0  0  0  0  0  0
   -2.3253   -0.3244    0.0000 C   0  0  0  0  0  0  0  0  0  0  0  0
   -1.6108    0.0881    0.0000 C   0  0  0  0  0  0  0  0  0  0  0  0
   -0.8964   -0.3244    0.0000 C   0  0  3  0  0  0  0  0  0  0  0  0
   -0.8964    0.5006    0.0000 C   0  0  0  0  0  0  0  0  0  0  0  0
    1.2471    0.0881    0.0000 C   0  0  3  0  0  0  0  0  0  0  0  0
    2.0317   -0.1668    0.0000 C   0  0  0  0  0  0  0  0  0  0  0  0
    2.5166    0.5006    0.0000 C   0  0  0  0  0  0  0  0  0  0  0  0
    2.0317    1.1680    0.0000 C   0  0  3  0  0  0  0  0  0  0  0  0
    2.2866    1.9527    0.0000 O   0  0  0  0  0  0  0  0  0  0  0  0
  1  2  1  0  0  0  0
  2  3  1  0  0  0  0
  2 17  1  0  0  0  0
  2 20  1  0  0  0  0
  3  4  1  0  0  0  0
  4  5  1  0  0  0  0
  5  6  1  0  0  0  0
  5 15  1  0  0  0  0
  6  7  1  0  0  0  0
  6 17  1  0  0  0  0
  7  8  1  0  0  0  0
  8  9  1  0  0  0  0
  9 10  1  0  0  0  0
  9 15  1  0  0  0  0
 10 11  1  0  0  0  0
 11 12  2  0  0  0  0
 11 13  1  0  0  0  0
 13 14  1  0  0  0  0
 14 15  1  0  0  0  0
 15 16  1  0  0  0  0
 17 18  1  0  0  0  0
 18 19  1  0  0  0  0
 19 20  1  0  0  0  0
 20 21  1  0  0  0  0
M  END
>  <DRUGBANK_ID>
DB02901

>  <DRUG_GROUPS>
illicit; experimental

>  <GENERIC_NAME>
Dihydrotestosterone

>  <SYNONYMS>
(5a,17b)-17-Hydroxyandrostan-3-one; (5alpha,17beta)-17-hydroxyandrostan-3-one; 17beta-Hydroxy-5alpha-androstan-3-one; 17beta-Hydroxy-5alpha-androstane-3-one; 17beta-Hydroxyandrostan-3-one; 4-Dihydrotestosterone; 5.alpha.-Dihydrotestosterone; 5a-Dihydrotestosterone; 5alpha dihydrotestosterone; 5alpha-Dihydrotestosterone; Anaboleen; Androlone; Androstan-17b-ol-3-one; Androstan-17beta-ol-3-one; Androstanolone; Stanaprol; Stanolone

>  <BRANDS>
Anabolex; Anaprotin; Andractim; Cristerona MB; Neodrol; Proteina; Protona

>  <CHEMICAL_FORMULA>
C19H30O2

>  <MOLECULAR_WEIGHT>
290.4403

>  <EXACT_MASS>
290.224580204

>  <IUPAC_NAME>
14-hydroxy-2,15-dimethyltetracyclo[8.7.0.0^{2,7}.0^{11,15}]heptadecan-5-one

>  <INCHI_IDENTIFIER>
InChI=1S/C19H30O2/c1-18-9-7-13(20)11-12(18)3-4-14-15-5-6-17(21)19(15,2)10-8-16(14)18/h12,14-17,21H,3-11H2,1-2H3

>  <INCHI_KEY>
InChIKey=NVKAWKQGWWIWPM-UHFFFAOYSA-N

>  <SMILES>
CC12CCC3C(CCC4CC(=O)CCC34C)C1CCC2O

>  <JCHEM_ACCEPTOR_COUNT>
2

>  <JCHEM_DONOR_COUNT>
1

>  <JCHEM_ACIDIC_PKA>
19.38

>  <JCHEM_BASIC_PKA>
-0.88

>  <JCHEM_PHYSIOLOGICAL_CHARGE>
0

>  <ALOGPS_LOGP>
3.37

>  <JCHEM_LOGP>
3.41

>  <ALOGPS_LOGS>
-4.5

>  <JCHEM_POLARIZABILITY>
34.17

>  <JCHEM_POLAR_SURFACE_AREA>
37.3

>  <JCHEM_REFRACTIVITY>
83.6

>  <JCHEM_ROTATABLE_BOND_COUNT>
0

>  <ALOGPS_SOLUBILITY>
9.98e-03 g/l __

$$$$
DB03575
 OpenBabel03171413512D

 18 20  0  0  0  0  0  0  0  0999 V2000
    3.2006    0.0355    0.0000 N   0  0  0  0  0  0  0  0  0  0  0  0
    3.9758   -0.2467    0.0000 C   0  0  0  0  0  0  0  0  0  0  0  0
    4.6903   -0.6592    0.0000 C   0  0  0  0  0  0  0  0  0  0  0  0
    3.2614   -0.6592    0.0000 C   0  0  0  0  0  0  0  0  0  0  0  0
    4.6903   -1.4842    0.0000 C   0  0  0  0  0  0  0  0  0  0  0  0
    3.2614   -1.4842    0.0000 C   0  0  0  0  0  0  0  0  0  0  0  0
    2.5685   -0.4948    0.0000 C   0  0  0  0  0  0  0  0  0  0  0  0
    3.0573    0.8480    0.0000 C   0  0  0  0  0  0  0  0  0  0  0  0
    3.9758   -1.8967    0.0000 C   0  0  0  0  0  0  0  0  0  0  0  0
    4.3884    0.4678    0.0000 C   0  0  0  0  0  0  0  0  0  0  0  0
    1.7933   -0.2127    0.0000 C   0  0  0  0  0  0  0  0  0  0  0  0
    2.2820    1.1301    0.0000 C   0  0  0  0  0  0  0  0  0  0  0  0
    1.6500    0.5998    0.0000 C   0  0  0  0  0  0  0  0  0  0  0  0
    3.9758    1.1823    0.0000 C   0  0  0  0  0  0  0  0  0  0  0  0
    5.2134    0.4678    0.0000 C   0  0  0  0  0  0  0  0  0  0  0  0
    4.3884    1.8967    0.0000 C   0  0  0  0  0  0  0  0  0  0  0  0
    5.6259    1.1823    0.0000 C   0  0  0  0  0  0  0  0  0  0  0  0
    5.2134    1.8967    0.0000 C   0  0  0  0  0  0  0  0  0  0  0  0
  1  2  1  0  0  0  0
  1  7  1  0  0  0  0
  1  8  1  0  0  0  0
  2  3  1  0  0  0  0
  2  4  1  0  0  0  0
  2 10  1  0  0  0  0
  3  5  1  0  0  0  0
  4  6  1  0  0  0  0
  5  9  1  0  0  0  0
  6  9  1  0  0  0  0
  7 11  1  0  0  0  0
  8 12  1  0  0  0  0
 10 14  2  0  0  0  0
 10 15  1  0  0  0  0
 11 13  1  0  0  0  0
 12 13  1  0  0  0  0
 14 16  1  0  0  0  0
 15 17  2  0  0  0  0
 16 18  2  0  0  0  0
 17 18  1  0  0  0  0
M  END
>  <DRUGBANK_ID>
DB03575

>  <DRUG_GROUPS>
illicit; experimental

>  <GENERIC_NAME>
Phencyclidine

>  <SYNONYMS>
1-(1-Phenylcyclohexyl)piperidine; 1-(1-Phenylcyclohexyl)piperidine hydrochloride; Angel dust; Busy bee; Cadillac; CJS; Crystal; DUST; Elephant tranquilizer; Fenciclidina [inn-spanish]; Magic mist; Phencyclidine hydrochloride; Phencyclidinum [inn-latin]; Phenylcyclidine hydrochloride; Rocket fuel; Sernyl; Sernylan; Stardust; Supergrass; Surfer; TIC; Trank; Tranks; Whack; Zombie dust

>  <CHEMICAL_FORMULA>
C17H25N

>  <MOLECULAR_WEIGHT>
243.3871

>  <EXACT_MASS>
243.198699805

>  <IUPAC_NAME>
1-(1-phenylcyclohexyl)piperidine

>  <INCHI_IDENTIFIER>
InChI=1S/C17H25N/c1-4-10-16(11-5-1)17(12-6-2-7-13-17)18-14-8-3-9-15-18/h1,4-5,10-11H,2-3,6-9,12-15H2

>  <INCHI_KEY>
InChIKey=JTJMJGYZQZDUJJ-UHFFFAOYSA-N

>  <SMILES>
C1CCN(CC1)C1(CCCCC1)C1=CC=CC=C1

>  <JCHEM_ACCEPTOR_COUNT>
1

>  <JCHEM_DONOR_COUNT>
0

>  <JCHEM_BASIC_PKA>
10.64

>  <JCHEM_PHYSIOLOGICAL_CHARGE>
1

>  <ALOGPS_LOGP>
5.31

>  <JCHEM_LOGP>
4.49

>  <ALOGPS_LOGS>
-4.9

>  <JCHEM_POLARIZABILITY>
29.66

>  <JCHEM_POLAR_SURFACE_AREA>
3.24

>  <JCHEM_REFRACTIVITY>
77.65

>  <JCHEM_ROTATABLE_BOND_COUNT>
2

>  <ALOGPS_SOLUBILITY>
3.25e-03 g/l __

$$$$
DB04829
 OpenBabel03171413512D

 25 28  0  0  1  0  0  0  0  0999 V2000
    1.6596    0.6794    0.0000 O   0  0  0  0  0  0  0  0  0  0  0  0
    4.5735    0.6791    0.0000 N   0  0  0  0  0  0  0  0  0  0  0  0
    5.5486   -2.7169    0.0000 N   0  0  0  0  0  0  0  0  0  0  0  0
    2.3692    1.9196    0.0000 N   0  0  0  0  0  0  0  0  0  0  0  0
    4.5603   -0.1801    0.0000 C   0  0  1  0  0  0  0  0  0  0  0  0
    3.8458   -0.5926    0.0000 C   0  0  0  0  0  0  0  0  0  0  0  0
    5.2748   -0.5926    0.0000 C   0  0  0  0  0  0  0  0  0  0  0  0
    3.0885    0.6848    0.0000 C   0  0  1  0  0  0  0  0  0  0  0  0
    3.8327    1.1146    0.0000 C   0  0  0  0  0  0  0  0  0  0  0  0
    5.2748   -1.4176    0.0000 C   0  0  0  0  0  0  0  0  0  0  0  0
    3.8458   -1.4176    0.0000 C   0  0  0  0  0  0  0  0  0  0  0  0
    4.5603   -1.8301    0.0000 C   0  0  0  0  0  0  0  0  0  0  0  0
    3.0951   -0.1745    0.0000 C   0  0  0  0  0  0  0  0  0  0  0  0
    4.5735   -2.6893    0.0000 C   0  0  0  0  0  0  0  0  0  0  0  0
    5.2928    1.0834    0.0000 C   0  0  0  0  0  0  0  0  0  0  0  0
    2.3724    1.0946    0.0000 C   0  0  0  0  0  0  0  0  0  0  0  0
    5.8828   -1.9679    0.0000 C   0  0  0  0  0  0  0  0  0  0  0  0
    3.0951   -1.8358    0.0000 C   0  0  0  0  0  0  0  0  0  0  0  0
    3.8327   -3.1248    0.0000 C   0  0  0  0  0  0  0  0  0  0  0  0
    3.0885   -2.6951    0.0000 C   0  0  0  0  0  0  0  0  0  0  0  0
    3.0821    2.3348    0.0000 C   0  0  0  0  0  0  0  0  0  0  0  0
    1.6532    2.3293    0.0000 C   0  0  0  0  0  0  0  0  0  0  0  0
    3.0789    3.1598    0.0000 C   0  0  0  0  0  0  0  0  0  0  0  0
    1.6500    3.1543    0.0000 C   0  0  0  0  0  0  0  0  0  0  0  0
    5.1344    0.1454    0.0000 H   0  0  0  0  0  0  0  0  0  0  0  0
  1 16  2  0  0  0  0
  2  5  1  0  0  0  0
  2  9  1  0  0  0  0
  2 15  1  0  0  0  0
  3 14  1  0  0  0  0
  3 17  1  0  0  0  0
  4 16  1  0  0  0  0
  4 21  1  0  0  0  0
  4 22  1  0  0  0  0
  5  6  1  0  0  0  0
  5  7  1  0  0  0  0
  5 25  1  1  0  0  0
  6 11  1  0  0  0  0
  6 13  2  0  0  0  0
  7 10  1  0  0  0  0
  8  9  1  0  0  0  0
  8 13  1  0  0  0  0
  8 16  1  1  0  0  0
 10 12  1  0  0  0  0
 10 17  2  0  0  0  0
 11 12  2  0  0  0  0
 11 18  1  0  0  0  0
 12 14  1  0  0  0  0
 14 19  2  0  0  0  0
 18 20  2  0  0  0  0
 19 20  1  0  0  0  0
 21 23  1  0  0  0  0
 22 24  1  0  0  0  0
M  END
>  <DRUGBANK_ID>
DB04829

>  <DRUG_GROUPS>
illicit; withdrawn

>  <GENERIC_NAME>
Lysergic Acid Diethylamide

>  <SYNONYMS>
(+)-LSD; (+)-lysergic acid diethylamide; 9,10-Didehydro-N,N-diethyl-6-methylergoline-8b-carboxamide; Acid; Barrels; Bart simpson; Bartman; Beast; Big f; Blotter acid; Blue acid; Blue cheer; Blue mist; Blue star; Brown dots; California sunshine; Cherry top; Chief; Chocolate chips; Clearlight; Coffeinum; Contact lens; Cubes; Cupcakes; D-LSD; D-LSD-25; D-lysergic acid dethylamide; D-lysergic acid diethylamide; D-lysergic acid n,n-diethylamide; Delysid; Dextrolysergic acid diethylamide; Diethylamid kyseliny lysergove [czech]; Domes; Ergine; Fifty; Flats; Frogs; Gelatin chips; Greenies; Heavenly blue; LSD; LSD-25; Lucy in the sky with diamonds; Lysergamid; Lysergamide; Lysergaure diethylamid; Lysergic acid amide; Lysergic acid diethylamide-25; Lysergide; Lysergidum [inn-latin]; Mean green; Mellow yellow; Microdots; n,n-diethyl-(+)-lysergamide; N,N-Diethyl-6-methyl-9,10-didehydroergoline-8-carboxamide; N,n-diethyl-d-lysergamide; N,n-diethyllysergamide; Orange mushroom; Orange sunshine; Orange wedges; Owsley; Paper acid; Pearly gates; Purple haze; Purple microdot; Royal blue; Scapes; Spoonies; Strawberry fields; Sugar; Sugar lump; Sunshine; TABS; The hawk; Trippers; Ubergluben; Wedding bells; Wedges; White light; Window pane; Yellows; ZEN

>  <CHEMICAL_FORMULA>
C20H25N3O

>  <MOLECULAR_WEIGHT>
323.432

>  <EXACT_MASS>
323.199762437

>  <IUPAC_NAME>
(4R,7R)-N,N-diethyl-6-methyl-6,11-diazatetracyclo[7.6.1.0^{2,7}.0^{12,16}]hexadeca-1(16),2,9,12,14-pentaene-4-carboxamide

>  <INCHI_IDENTIFIER>
InChI=1S/C20H25N3O/c1-4-23(5-2)20(24)14-9-16-15-7-6-8-17-19(15)13(11-21-17)10-18(16)22(3)12-14/h6-9,11,14,18,21H,4-5,10,12H2,1-3H3/t14-,18-/m1/s1

>  <INCHI_KEY>
InChIKey=VAYOSLLFUXYJDT-RDTXWAMCSA-N

>  <SMILES>
[H][C@@]12CC3=CNC4=CC=CC(=C34)C1=C[C@H](CN2C)C(=O)N(CC)CC

>  <JCHEM_ACCEPTOR_COUNT>
2

>  <JCHEM_DONOR_COUNT>
1

>  <JCHEM_ACIDIC_PKA>
17.02

>  <JCHEM_BASIC_PKA>
7.98

>  <JCHEM_PHYSIOLOGICAL_CHARGE>
1

>  <ALOGPS_LOGP>
3.3

>  <JCHEM_LOGP>
2.28

>  <ALOGPS_LOGS>
-3.1

>  <JCHEM_POLARIZABILITY>
37.54

>  <JCHEM_POLAR_SURFACE_AREA>
39.34

>  <JCHEM_REFRACTIVITY>
98.73

>  <JCHEM_ROTATABLE_BOND_COUNT>
3

>  <ALOGPS_SOLUBILITY>
2.70e-01 g/l __

$$$$
DB04833
 OpenBabel03171413512D

 19 21  0  0  0  0  0  0  0  0999 V2000
    4.5079   -1.0455    0.0000 O   0  0  0  0  0  0  0  0  0  0  0  0
    3.7934    0.1920    0.0000 N   0  0  0  0  0  0  0  0  0  0  0  0
    4.5079    1.4295    0.0000 N   0  0  0  0  0  0  0  0  0  0  0  0
    3.0790   -0.2205    0.0000 C   0  0  0  0  0  0  0  0  0  0  0  0
    3.7934    1.0170    0.0000 C   0  0  0  0  0  0  0  0  0  0  0  0
    5.2223    0.1920    0.0000 C   0  0  0  0  0  0  0  0  0  0  0  0
    4.5079   -0.2205    0.0000 C   0  0  0  0  0  0  0  0  0  0  0  0
    2.3645    0.1920    0.0000 C   0  0  0  0  0  0  0  0  0  0  0  0
    5.2223    1.0170    0.0000 C   0  0  0  0  0  0  0  0  0  0  0  0
    3.0790   -1.0455    0.0000 C   0  0  0  0  0  0  0  0  0  0  0  0
    5.9599   -0.2492    0.0000 C   0  0  0  0  0  0  0  0  0  0  0  0
    3.0790    1.4295    0.0000 C   0  0  0  0  0  0  0  0  0  0  0  0
    1.6500   -0.2205    0.0000 C   0  0  0  0  0  0  0  0  0  0  0  0
    5.9599    1.4580    0.0000 C   0  0  0  0  0  0  0  0  0  0  0  0
    2.3645    1.0170    0.0000 C   0  0  0  0  0  0  0  0  0  0  0  0
    2.3645   -1.4580    0.0000 C   0  0  0  0  0  0  0  0  0  0  0  0
    1.6500   -1.0455    0.0000 C   0  0  0  0  0  0  0  0  0  0  0  0
    6.7073    0.1748    0.0000 C   0  0  0  0  0  0  0  0  0  0  0  0
    6.7073    1.0341    0.0000 C   0  0  0  0  0  0  0  0  0  0  0  0
  1  7  2  0  0  0  0
  2  4  1  0  0  0  0
  2  5  1  0  0  0  0
  2  7  1  0  0  0  0
  3  5  2  0  0  0  0
  3  9  1  0  0  0  0
  4  8  1  0  0  0  0
  4 10  2  0  0  0  0
  5 12  1  0  0  0  0
  6  7  1  0  0  0  0
  6  9  1  0  0  0  0
  6 11  2  0  0  0  0
  8 13  2  0  0  0  0
  8 15  1  0  0  0  0
  9 14  2  0  0  0  0
 10 16  1  0  0  0  0
 11 18  1  0  0  0  0
 13 17  1  0  0  0  0
 14 19  1  0  0  0  0
 16 17  2  0  0  0  0
 18 19  2  0  0  0  0
M  END
>  <DRUGBANK_ID>
DB04833

>  <DRUG_GROUPS>
illicit; withdrawn

>  <GENERIC_NAME>
Methaqualone

>  <BRANDS>
Quaalude

>  <CHEMICAL_FORMULA>
C16H14N2O

>  <MOLECULAR_WEIGHT>
250.2952

>  <EXACT_MASS>
250.11061308

>  <IUPAC_NAME>
2-methyl-3-(2-methylphenyl)-3,4-dihydroquinazolin-4-one

>  <INCHI_IDENTIFIER>
InChI=1S/C16H14N2O/c1-11-7-3-6-10-15(11)18-12(2)17-14-9-5-4-8-13(14)16(18)19/h3-10H,1-2H3

>  <INCHI_KEY>
InChIKey=JEYCTXHKTXCGPB-UHFFFAOYSA-N

>  <SMILES>
CC1=CC=CC=C1N1C(C)=NC2=CC=CC=C2C1=O

>  <JCHEM_ACCEPTOR_COUNT>
2

>  <JCHEM_DONOR_COUNT>
0

>  <JCHEM_BASIC_PKA>
-1.2

>  <JCHEM_PHYSIOLOGICAL_CHARGE>
0

>  <ALOGPS_LOGP>
2.54

>  <JCHEM_LOGP>
3.17

>  <ALOGPS_LOGS>
-3.8

>  <JCHEM_POLARIZABILITY>
27.32

>  <JCHEM_POLAR_SURFACE_AREA>
32.67

>  <JCHEM_REFRACTIVITY>
77.11

>  <JCHEM_ROTATABLE_BOND_COUNT>
0

>  <ALOGPS_SOLUBILITY>
4.07e-02 g/l __

$$$$
DB04836
 OpenBabel03171413512D

 26 27  0  0  0  0  0  0  0  0999 V2000
    0.0000    4.0865    0.0000 Cl  0  0  0  0  0  0  0  0  0  0  0  0
    2.1028    0.5115    0.0000 O   0  0  0  0  0  0  0  0  0  0  0  0
    3.5317    0.5115    0.0000 O   0  0  0  0  0  0  0  0  0  0  0  0
    4.9606    5.4611    0.0000 N   0  0  0  0  0  0  0  0  0  0  0  0
    4.9606    6.2860    0.0000 C   0  0  0  0  0  0  0  0  0  0  0  0
    5.7038    6.6440    0.0000 C   0  0  0  0  0  0  0  0  0  0  0  0
    4.2173    6.6440    0.0000 C   0  0  0  0  0  0  0  0  0  0  0  0
    4.9606    4.6361    0.0000 C   0  0  0  0  0  0  0  0  0  0  0  0
    5.8874    7.4482    0.0000 C   0  0  0  0  0  0  0  0  0  0  0  0
    4.0338    7.4482    0.0000 C   0  0  0  0  0  0  0  0  0  0  0  0
    5.3731    8.0930    0.0000 C   0  0  0  0  0  0  0  0  0  0  0  0
    4.5481    8.0930    0.0000 C   0  0  0  0  0  0  0  0  0  0  0  0
    4.2461    4.2237    0.0000 C   0  0  0  0  0  0  0  0  0  0  0  0
    4.2461    3.3987    0.0000 C   0  0  0  0  0  0  0  0  0  0  0  0
    6.3246    6.0498    0.0000 C   0  0  0  0  0  0  0  0  0  0  0  0
    3.5965    6.0498    0.0000 C   0  0  0  0  0  0  0  0  0  0  0  0
    3.5317    2.9863    0.0000 C   0  0  0  0  0  0  0  0  0  0  0  0
    6.7044    7.7141    0.0000 C   0  0  0  0  0  0  0  0  0  0  0  0
    3.2166    7.7141    0.0000 C   0  0  0  0  0  0  0  0  0  0  0  0
    3.5317    2.1613    0.0000 C   0  0  0  0  0  0  0  0  0  0  0  0
    7.1476    6.2967    0.0000 C   0  0  0  0  0  0  0  0  0  0  0  0
    2.7735    6.2967    0.0000 C   0  0  0  0  0  0  0  0  0  0  0  0
    7.3388    7.1344    0.0000 C   0  0  0  0  0  0  0  0  0  0  0  0
    2.5823    7.1345    0.0000 C   0  0  0  0  0  0  0  0  0  0  0  0
    2.8173    1.7489    0.0000 C   0  0  0  0  0  0  0  0  0  0  0  0
    2.8173    0.9239    0.0000 C   0  0  0  0  0  0  0  0  0  0  0  0
  2 26  1  0  0  0  0
  3 26  2  0  0  0  0
  4  5  1  0  0  0  0
  4  8  1  0  0  0  0
  5  6  1  0  0  0  0
  5  7  1  0  0  0  0
  6  9  1  0  0  0  0
  6 15  2  0  0  0  0
  7 10  1  0  0  0  0
  7 16  2  0  0  0  0
  8 13  1  0  0  0  0
  9 11  1  0  0  0  0
  9 18  2  0  0  0  0
 10 12  1  0  0  0  0
 10 19  2  0  0  0  0
 11 12  1  0  0  0  0
 13 14  1  0  0  0  0
 14 17  1  0  0  0  0
 15 21  1  0  0  0  0
 16 22  1  0  0  0  0
 17 20  1  0  0  0  0
 18 23  1  0  0  0  0
 19 24  1  0  0  0  0
 20 25  1  0  0  0  0
 21 23  2  0  0  0  0
 22 24  2  0  0  0  0
 25 26  1  0  0  0  0
M  END
>  <DRUGBANK_ID>
DB04836

>  <DRUG_GROUPS>
illicit; withdrawn

>  <GENERIC_NAME>
Amineptine

>  <SYNONYMS>
Amineptine hydrochloride

>  <BRANDS>
Maneon; Survector

>  <CHEMICAL_FORMULA>
C22H28ClNO2

>  <MOLECULAR_WEIGHT>
373.916

>  <EXACT_MASS>
373.180856852

>  <IUPAC_NAME>
N-(6-carboxyhexyl)tricyclo[9.4.0.0^{3,8}]pentadeca-1(11),3(8),4,6,12,14-hexaen-2-aminium chloride

>  <INCHI_IDENTIFIER>
InChI=1S/C22H27NO2.ClH/c24-21(25)13-3-1-2-8-16-23-22-19-11-6-4-9-17(19)14-15-18-10-5-7-12-20(18)22;/h4-7,9-12,22-23H,1-3,8,13-16H2,(H,24,25);1H

>  <INCHI_KEY>
InChIKey=VDPUXONTAVMIKZ-UHFFFAOYSA-N

>  <SMILES>
[Cl-].OC(=O)CCCCCC[NH2+]C1C2=CC=CC=C2CCC2=CC=CC=C12

>  <JCHEM_ACCEPTOR_COUNT>
2

>  <JCHEM_DONOR_COUNT>
2

>  <JCHEM_ACIDIC_PKA>
4.41

>  <JCHEM_BASIC_PKA>
9.46

>  <JCHEM_PHYSIOLOGICAL_CHARGE>
0

>  <ALOGPS_LOGP>
0.99

>  <JCHEM_LOGP>
2.74

>  <ALOGPS_LOGS>
-7.3

>  <JCHEM_POLARIZABILITY>
39.95

>  <JCHEM_POLAR_SURFACE_AREA>
53.91

>  <JCHEM_REFRACTIVITY>
112.63

>  <JCHEM_ROTATABLE_BOND_COUNT>
8

>  <ALOGPS_SOLUBILITY>
1.84e-05 g/l __

$$$$
DB06716
 OpenBabel03171413512D

 19 19  0  0  0  0  0  0  0  0999 V2000
    5.2224    1.6005    0.0000 P   0  0  0  0  0  0  0  0  0  0  0  0
    3.7935   -0.0495    0.0000 O   0  0  0  0  0  0  0  0  0  0  0  0
    4.5080    1.1880    0.0000 O   0  0  0  0  0  0  0  0  0  0  0  0
    4.8099    2.3150    0.0000 O   0  0  0  0  0  0  0  0  0  0  0  0
    5.9370    2.0130    0.0000 O   0  0  0  0  0  0  0  0  0  0  0  0
    5.6350    0.8861    0.0000 O   0  0  0  0  0  0  0  0  0  0  0  0
    5.2224   -0.8745    0.0000 C   0  0  0  0  0  0  0  0  0  0  0  0
    2.3645   -0.8745    0.0000 C   0  0  0  0  0  0  0  0  0  0  0  0
    4.5080   -1.2870    0.0000 C   0  0  0  0  0  0  0  0  0  0  0  0
    3.0791   -1.2870    0.0000 C   0  0  0  0  0  0  0  0  0  0  0  0
    3.7935   -0.8745    0.0000 C   0  0  0  0  0  0  0  0  0  0  0  0
    4.5080   -2.1120    0.0000 C   0  0  0  0  0  0  0  0  0  0  0  0
    3.0791   -2.1120    0.0000 C   0  0  0  0  0  0  0  0  0  0  0  0
    5.9370   -1.2870    0.0000 C   0  0  0  0  0  0  0  0  0  0  0  0
    5.2224   -0.0495    0.0000 C   0  0  0  0  0  0  0  0  0  0  0  0
    1.6500   -1.2870    0.0000 C   0  0  0  0  0  0  0  0  0  0  0  0
    2.3645   -0.0495    0.0000 C   0  0  0  0  0  0  0  0  0  0  0  0
    3.7935   -2.5246    0.0000 C   0  0  0  0  0  0  0  0  0  0  0  0
    4.5080    0.3630    0.0000 C   0  0  0  0  0  0  0  0  0  0  0  0
  1  3  1  0  0  0  0
  1  4  1  0  0  0  0
  1  5  1  0  0  0  0
  1  6  2  0  0  0  0
  2 11  1  0  0  0  0
  2 19  1  0  0  0  0
  3 19  1  0  0  0  0
  7  9  1  0  0  0  0
  7 14  1  0  0  0  0
  7 15  1  0  0  0  0
  8 10  1  0  0  0  0
  8 16  1  0  0  0  0
  8 17  1  0  0  0  0
  9 11  2  0  0  0  0
  9 12  1  0  0  0  0
 10 11  1  0  0  0  0
 10 13  2  0  0  0  0
 12 18  2  0  0  0  0
 13 18  1  0  0  0  0
M  END
>  <DRUGBANK_ID>
DB06716

>  <DRUG_GROUPS>
illicit; approved

>  <GENERIC_NAME>
Fospropofol

>  <SYNONYMS>
GPI 15715

>  <SALTS>
Fospropofol Disodium

>  <BRANDS>
Aquavan; Lusedra

>  <CHEMICAL_FORMULA>
C13H21O5P

>  <MOLECULAR_WEIGHT>
288.2766

>  <EXACT_MASS>
288.112660294

>  <IUPAC_NAME>
[2,6-bis(propan-2-yl)phenoxymethoxy]phosphonic acid

>  <INCHI_IDENTIFIER>
InChI=1/C13H21O5P/c1-9(2)11-6-5-7-12(10(3)4)13(11)17-8-18-19(14,15)16/h5-7,9-10H,8H2,1-4H3,(H2,14,15,16)

>  <INCHI_KEY>
InChIKey=QVNNONOFASOXQV-UHFFFAOYNA-N

>  <SMILES>
CC(C)C1=CC=CC(C(C)C)=C1OCOP(O)(O)=O

>  <JCHEM_ACCEPTOR_COUNT>
4

>  <JCHEM_DONOR_COUNT>
2

>  <JCHEM_ACIDIC_PKA>
1.44

>  <JCHEM_BASIC_PKA>
-5

>  <JCHEM_PHYSIOLOGICAL_CHARGE>
-2

>  <ALOGPS_LOGP>
2.23

>  <JCHEM_LOGP>
3.6

>  <ALOGPS_LOGS>
-3

>  <JCHEM_POLARIZABILITY>
29

>  <JCHEM_POLAR_SURFACE_AREA>
75.99

>  <JCHEM_REFRACTIVITY>
72.88

>  <JCHEM_ROTATABLE_BOND_COUNT>
6

>  <ALOGPS_SOLUBILITY>
3.02e-01 g/l __

$$$$
DB08804
 OpenBabel03171413512D

 31 34  0  0  1  0  0  0  0  0999 V2000
    7.1363   -0.5900    0.0000 O   0  0  0  0  0  0  0  0  0  0  0  0
    1.6500   -4.1438    0.0000 O   0  0  0  0  0  0  0  0  0  0  0  0
    8.4945   -1.0339    0.0000 O   0  0  0  0  0  0  0  0  0  0  0  0
    6.0994   -2.4506    0.0000 C   0  0  2  0  0  0  0  0  0  0  0  0
    6.0994   -1.6256    0.0000 C   0  0  2  0  0  0  0  0  0  0  0  0
    5.3849   -2.8631    0.0000 C   0  0  1  0  0  0  0  0  0  0  0  0
    4.6704   -2.4506    0.0000 C   0  0  2  0  0  0  0  0  0  0  0  0
    5.3849   -1.2131    0.0000 C   0  0  0  0  0  0  0  0  0  0  0  0
    6.8800   -1.3742    0.0000 C   0  0  2  0  0  0  0  0  0  0  0  0
    6.8800   -2.7020    0.0000 C   0  0  0  0  0  0  0  0  0  0  0  0
    4.6704   -1.6256    0.0000 C   0  0  0  0  0  0  0  0  0  0  0  0
    3.9196   -2.8687    0.0000 C   0  0  2  0  0  0  0  0  0  0  0  0
    7.3615   -2.0381    0.0000 C   0  0  0  0  0  0  0  0  0  0  0  0
    5.3981   -3.7224    0.0000 C   0  0  0  0  0  0  0  0  0  0  0  0
    6.0994   -0.8006    0.0000 C   0  0  0  0  0  0  0  0  0  0  0  0
    4.6573   -4.1577    0.0000 C   0  0  0  0  0  0  0  0  0  0  0  0
    3.9130   -3.7280    0.0000 C   0  0  0  0  0  0  0  0  0  0  0  0
    3.1550   -2.4034    0.0000 C   0  0  0  0  0  0  0  0  0  0  0  0
    2.3730   -2.8389    0.0000 C   0  0  0  0  0  0  0  0  0  0  0  0
    3.1413   -4.1816    0.0000 C   0  0  0  0  0  0  0  0  0  0  0  0
    2.3661   -3.7341    0.0000 C   0  0  0  0  0  0  0  0  0  0  0  0
    7.9436   -0.4198    0.0000 C   0  0  0  0  0  0  0  0  0  0  0  0
    8.1998    0.3643    0.0000 C   0  0  0  0  0  0  0  0  0  0  0  0
    9.0071    0.5344    0.0000 C   0  0  0  0  0  0  0  0  0  0  0  0
    9.2634    1.3186    0.0000 C   0  0  0  0  0  0  0  0  0  0  0  0
   10.0707    1.4888    0.0000 C   0  0  0  0  0  0  0  0  0  0  0  0
   10.3270    2.2730    0.0000 C   0  0  0  0  0  0  0  0  0  0  0  0
   11.1343    2.4431    0.0000 C   0  0  0  0  0  0  0  0  0  0  0  0
   11.3906    3.2273    0.0000 C   0  0  0  0  0  0  0  0  0  0  0  0
   12.1978    3.3974    0.0000 C   0  0  0  0  0  0  0  0  0  0  0  0
   12.4542    4.1816    0.0000 C   0  0  0  0  0  0  0  0  0  0  0  0
  1 22  1  0  0  0  0
  2 21  2  0  0  0  0
  3 22  2  0  0  0  0
  4  5  1  0  0  0  0
  4  6  1  0  0  0  0
  4 10  1  1  0  0  0
  5  8  1  0  0  0  0
  5  9  1  0  0  0  0
  5 15  1  1  0  0  0
  6  7  1  0  0  0  0
  6 14  1  6  0  0  0
  7 11  1  1  0  0  0
  7 12  1  0  0  0  0
  8 11  1  0  0  0  0
  9  1  1  1  0  0  0
  9 13  1  0  0  0  0
 10 13  1  0  0  0  0
 12 17  1  6  0  0  0
 12 18  1  0  0  0  0
 14 16  1  0  0  0  0
 16 17  1  0  0  0  0
 17 20  2  0  0  0  0
 18 19  1  0  0  0  0
 19 21  1  0  0  0  0
 20 21  1  0  0  0  0
 22 23  1  0  0  0  0
 23 24  1  0  0  0  0
 24 25  1  0  0  0  0
 25 26  1  0  0  0  0
 26 27  1  0  0  0  0
 27 28  1  0  0  0  0
 28 29  1  0  0  0  0
 29 30  1  0  0  0  0
 30 31  1  0  0  0  0
M  END
>  <DRUGBANK_ID>
DB08804

>  <DRUG_GROUPS>
illicit; approved

>  <GENERIC_NAME>
Nandrolone decanoate

>  <SYNONYMS>
Norandrostenolone decanoate; Nortestosterone decanoate

>  <BRANDS>
Deca Durabolin; Deca-Durabol; Deca-durabolin; Retabolil

>  <CHEMICAL_FORMULA>
C28H44O3

>  <MOLECULAR_WEIGHT>
428.6472

>  <EXACT_MASS>
428.329045274

>  <IUPAC_NAME>
(1S,2R,10R,11S,14S,15S)-15-methyl-5-oxotetracyclo[8.7.0.0^{2,7}.0^{11,15}]heptadec-6-en-14-yl decanoate

>  <INCHI_IDENTIFIER>
InChI=1S/C28H44O3/c1-3-4-5-6-7-8-9-10-27(30)31-26-16-15-25-24-13-11-20-19-21(29)12-14-22(20)23(24)17-18-28(25,26)2/h19,22-26H,3-18H2,1-2H3/t22-,23+,24+,25-,26-,28-/m0/s1

>  <INCHI_KEY>
InChIKey=JKWKMORAXJQQSR-MOPIKTETSA-N

>  <SMILES>
CCCCCCCCCC(=O)O[C@H]1CC[C@H]2[C@@H]3CCC4=CC(=O)CC[C@@H]4[C@H]3CC[C@]12C

>  <JCHEM_ACCEPTOR_COUNT>
2

>  <JCHEM_DONOR_COUNT>
0

>  <JCHEM_ACIDIC_PKA>
19.28

>  <JCHEM_BASIC_PKA>
-4.7

>  <JCHEM_PHYSIOLOGICAL_CHARGE>
0

>  <ALOGPS_LOGP>
5.96

>  <JCHEM_LOGP>
7.32

>  <ALOGPS_LOGS>
-6.4

>  <JCHEM_POLARIZABILITY>
53.65

>  <JCHEM_POLAR_SURFACE_AREA>
43.37

>  <JCHEM_REFRACTIVITY>
125.94

>  <JCHEM_ROTATABLE_BOND_COUNT>
10

>  <ALOGPS_SOLUBILITY>
1.57e-04 g/l __

$$$$
CLK001B04 __  __  __
 OpenBabel03171413512D

 24 26  0  0  0  0  0  0  0  0999 V2000
   -1.5258    0.0076    0.0000 C   0  0  0  0  0  0  0  0  0  0  0  0
   -0.7155    0.1514    0.0000 C   0  0  3  0  0  0  0  0  0  0  0  0
   -1.6393   -0.8026    0.0000 C   0  0  0  0  0  0  0  0  0  0  0  0
   -2.1731    0.5301    0.0000 C   0  0  0  0  0  0  0  0  0  0  0  0
   -0.3331   -0.5793    0.0000 C   0  0  0  0  0  0  0  0  0  0  0  0
    0.2120    0.7761    0.0000 C   0  0  0  0  0  0  0  0  0  0  0  0
   -0.9768    1.0903    0.0000 O   0  0  0  0  0  0  0  0  0  0  0  0
   -0.9086   -1.1661    0.0000 N   0  0  0  0  0  0  0  0  0  0  0  0
   -2.4041   -1.1131    0.0000 C   0  0  0  0  0  0  0  0  0  0  0  0
   -2.9416    0.2120    0.0000 C   0  0  0  0  0  0  0  0  0  0  0  0
    0.4846   -0.6928    0.0000 O   0  0  0  0  0  0  0  0  0  0  0  0
    0.9994    0.3634    0.0000 C   0  0  0  0  0  0  0  0  0  0  0  0
   -0.7610   -1.9762    0.0000 C   0  0  0  0  0  0  0  0  0  0  0  0
   -3.0553   -0.6057    0.0000 C   0  0  0  0  0  0  0  0  0  0  0  0
    1.6999    0.8101    0.0000 C   0  0  0  0  0  0  0  0  0  0  0  0
    1.0336   -0.3218    0.0000 O   0  0  0  0  0  0  0  0  0  0  0  0
   -1.3933   -2.5025    0.0000 C   0  0  0  0  0  0  0  0  0  0  0  0
    2.4267    0.4316    0.0000 C   0  0  0  0  0  0  0  0  0  0  0  0
    1.6582    1.6317    0.0000 C   0  0  0  0  0  0  0  0  0  0  0  0
   -2.0254   -3.0325    0.0000 C   0  0  0  0  0  0  0  0  0  0  0  0
    3.1196    0.8708    0.0000 C   0  0  0  0  0  0  0  0  0  0  0  0
    2.3511    2.0785    0.0000 C   0  0  0  0  0  0  0  0  0  0  0  0
    3.0855    1.6961    0.0000 C   0  0  0  0  0  0  0  0  0  0  0  0
    3.7784    2.1391    0.0000 C   0  0  0  0  0  0  0  0  0  0  0  0
  1  2  1  0  0  0  0
  1  3  2  0  0  0  0
  1  4  1  0  0  0  0
  2  5  1  0  0  0  0
  2  6  1  0  0  0  0
  2  7  1  0  0  0  0
  3  8  1  0  0  0  0
  3  9  1  0  0  0  0
  4 10  2  0  0  0  0
  5 11  2  0  0  0  0
  5  8  1  0  0  0  0
  6 12  1  0  0  0  0
  8 13  1  0  0  0  0
  9 14  2  0  0  0  0
 10 14  1  0  0  0  0
 12 15  1  0  0  0  0
 12 16  2  0  0  0  0
 13 17  1  0  0  0  0
 15 18  1  0  0  0  0
 15 19  2  0  0  0  0
 17 20  3  0  0  0  0
 18 21  2  0  0  0  0
 19 22  1  0  0  0  0
 21 23  1  0  0  0  0
 22 23  2  0  0  0  0
 23 24  1  0  0  0  0
M  END
>  <CdId>
13

>  <Mol Weight>
319.3539

>  <Formula>
C20H17NO3

>  <Click_ID>
CLK001B04 __  __  __

$$$$
CLK001B06 __  __  __
 OpenBabel03171413512D

 14 14  0  0  0  0  0  0  0  0999 V2000
    0.1038   -0.4751    0.0000 C   0  0  0  0  0  0  0  0  0  0  0  0
    0.8117   -0.0567    0.0000 C   0  0  0  0  0  0  0  0  0  0  0  0
   -0.6072   -0.0567    0.0000 C   0  0  0  0  0  0  0  0  0  0  0  0
    0.1038   -1.3119    0.0000 N   0  3  0  0  0  0  0  0  0  0  0  0
    0.8117    0.7645    0.0000 C   0  0  0  0  0  0  0  0  0  0  0  0
    1.5417   -0.4908    0.0000 C   0  0  0  0  0  0  0  0  0  0  0  0
   -0.6072    0.7645    0.0000 C   0  0  0  0  0  0  0  0  0  0  0  0
    0.8117   -1.7178    0.0000 O   0  0  0  0  0  0  0  0  0  0  0  0
   -0.6072   -1.7178    0.0000 O   0  5  0  0  0  0  0  0  0  0  0  0
    0.1038    1.1861    0.0000 C   0  0  0  0  0  0  0  0  0  0  0  0
    2.2716   -0.9313    0.0000 C   0  0  0  0  0  0  0  0  0  0  0  0
   -1.3371    1.2018    0.0000 N   0  3  0  0  0  0  0  0  0  0  0  0
   -2.0670    0.7866    0.0000 O   0  0  0  0  0  0  0  0  0  0  0  0
   -1.3371    2.0418    0.0000 O   0  5  0  0  0  0  0  0  0  0  0  0
  1  2  1  0  0  0  0
  1  3  2  0  0  0  0
  1  4  1  0  0  0  0
  2  5  2  0  0  0  0
  2  6  1  0  0  0  0
  3  7  1  0  0  0  0
  4  8  2  0  0  0  0
  4  9  1  0  0  0  0
  5 10  1  0  0  0  0
  6 11  3  0  0  0  0
  7 12  1  0  0  0  0
  7 10  2  0  0  0  0
 12 13  2  0  0  0  0
 12 14  1  0  0  0  0
M  CHG  4   4   1   9  -1  12   1  14  -1
M  END
>  <CdId>
15

>  <Mol Weight>
192.1284

>  <Formula>
C8H4N2O4

>  <Click_ID>
CLK001B06 __  __  __

$$$$
CLK001C05 __  __  __
 OpenBabel03171413512D

 13 13  0  0  0  0  0  0  0  0999 V2000
   -1.1703    0.1692    0.0000 C   0  0  0  0  0  0  0  0  0  0  0  0
   -0.7663   -0.5523    0.0000 C   0  0  0  0  0  0  0  0  0  0  0  0
   -0.7525    0.8733    0.0000 C   0  0  0  0  0  0  0  0  0  0  0  0
   -1.9953    0.1692    0.0000 N   0  3  0  0  0  0  0  0  0  0  0  0
    0.0587   -0.5558    0.0000 C   0  0  0  0  0  0  0  0  0  0  0  0
    0.0587    0.8733    0.0000 C   0  0  0  0  0  0  0  0  0  0  0  0
   -2.4164   -0.5454    0.0000 O   0  0  0  0  0  0  0  0  0  0  0  0
   -2.4060    0.8838    0.0000 O   0  5  0  0  0  0  0  0  0  0  0  0
    0.4729    0.1623    0.0000 C   0  0  0  0  0  0  0  0  0  0  0  0
    1.2980    0.1623    0.0000 O   0  0  0  0  0  0  0  0  0  0  0  0
    1.7122   -0.5523    0.0000 C   0  0  0  0  0  0  0  0  0  0  0  0
    2.5372   -0.5454    0.0000 C   0  0  0  0  0  0  0  0  0  0  0  0
    3.3622   -0.5454    0.0000 C   0  0  0  0  0  0  0  0  0  0  0  0
  1  2  1  0  0  0  0
  1  3  2  0  0  0  0
  1  4  1  0  0  0  0
  2  5  2  0  0  0  0
  3  6  1  0  0  0  0
  4  7  2  0  0  0  0
  4  8  1  0  0  0  0
  5  9  1  0  0  0  0
  6  9  2  0  0  0  0
  9 10  1  0  0  0  0
 10 11  1  0  0  0  0
 11 12  1  0  0  0  0
 12 13  3  0  0  0  0
M  CHG  2   4   1   8  -1
M  END
>  <CdId>
24

>  <Mol Weight>
177.1568

>  <Formula>
C9H7NO3

>  <Click_ID>
CLK001C05 __  __  __

$$$$
CLK001C06 __  __  __
 OpenBabel03171413512D

 15 15  0  0  0  0  0  0  0  0999 V2000
   -0.0584   -0.0097    0.0000 C   0  0  0  0  0  0  0  0  0  0  0  0
   -0.0584    0.8139    0.0000 C   0  0  0  0  0  0  0  0  0  0  0  0
    0.6778   -0.4443    0.0000 C   0  0  0  0  0  0  0  0  0  0  0  0
   -0.7685   -0.4313    0.0000 C   0  0  0  0  0  0  0  0  0  0  0  0
   -0.7685    1.2226    0.0000 C   0  0  0  0  0  0  0  0  0  0  0  0
    0.6778   -1.2777    0.0000 O   0  0  0  0  0  0  0  0  0  0  0  0
    1.3945   -0.0324    0.0000 O   0  0  0  0  0  0  0  0  0  0  0  0
   -1.4852   -0.0097    0.0000 C   0  0  0  0  0  0  0  0  0  0  0  0
   -1.4852    0.8139    0.0000 C   0  0  0  0  0  0  0  0  0  0  0  0
   -0.7685    2.0463    0.0000 N   0  3  0  0  0  0  0  0  0  0  0  0
    1.3945   -1.6928    0.0000 C   0  0  0  0  0  0  0  0  0  0  0  0
   -1.4755    2.4256    0.0000 O   0  0  0  0  0  0  0  0  0  0  0  0
   -0.0649    2.4451    0.0000 O   0  5  0  0  0  0  0  0  0  0  0  0
    1.3945   -2.5132    0.0000 C   0  0  0  0  0  0  0  0  0  0  0  0
    1.3977   -3.3564    0.0000 C   0  0  0  0  0  0  0  0  0  0  0  0
  1  2  2  0  0  0  0
  1  3  1  0  0  0  0
  1  4  1  0  0  0  0
  2  5  1  0  0  0  0
  3  6  1  0  0  0  0
  3  7  2  0  0  0  0
  4  8  2  0  0  0  0
  5  9  2  0  0  0  0
  5 10  1  0  0  0  0
  6 11  1  0  0  0  0
  8  9  1  0  0  0  0
 10 12  2  0  0  0  0
 10 13  1  0  0  0  0
 11 14  1  0  0  0  0
 14 15  3  0  0  0  0
M  CHG  2  10   1  13  -1
M  END
>  <CdId>
25

>  <Mol Weight>
205.1669

>  <Formula>
C10H7NO4

>  <Click_ID>
CLK001C06 __  __  __

$$$$
CLK001D05 __  __  __
 OpenBabel03171413512D

 29 32  0  0  0  0  0  0  0  0999 V2000
    0.4004    0.1968    0.0000 C   0  0  3  0  0  0  0  0  0  0  0  0
    0.8111   -0.5246    0.0000 C   0  0  0  0  0  0  0  0  0  0  0  0
    0.8111    0.9077    0.0000 C   0  0  0  0  0  0  0  0  0  0  0  0
   -0.4280    0.1968    0.0000 C   0  0  0  0  0  0  0  0  0  0  0  0
    1.6360   -0.5177    0.0000 C   0  0  0  0  0  0  0  0  0  0  0  0
    0.5626   -1.3046    0.0000 C   0  0  0  0  0  0  0  0  0  0  0  0
    1.6360    0.9077    0.0000 C   0  0  0  0  0  0  0  0  0  0  0  0
    0.4004    1.6222    0.0000 C   0  0  0  0  0  0  0  0  0  0  0  0
   -0.8456   -0.5177    0.0000 C   0  0  0  0  0  0  0  0  0  0  0  0
   -0.8387    0.9077    0.0000 C   0  0  0  0  0  0  0  0  0  0  0  0
    1.9018   -1.3046    0.0000 C   0  0  0  0  0  0  0  0  0  0  0  0
    2.0502    0.1968    0.0000 N   0  0  0  0  0  0  0  0  0  0  0  0
    1.2322   -1.7879    0.0000 C   0  0  0  0  0  0  0  0  0  0  0  0
   -0.2174   -1.5670    0.0000 O   0  0  0  0  0  0  0  0  0  0  0  0
    2.0502    1.6222    0.0000 C   0  0  0  0  0  0  0  0  0  0  0  0
    0.8215    2.3367    0.0000 O   0  0  0  0  0  0  0  0  0  0  0  0
   -0.4280    1.6222    0.0000 O   0  0  0  0  0  0  0  0  0  0  0  0
   -1.6706   -0.5177    0.0000 C   0  0  0  0  0  0  0  0  0  0  0  0
   -1.6671    0.9077    0.0000 C   0  0  0  0  0  0  0  0  0  0  0  0
    2.6508   -1.6325    0.0000 C   0  0  0  0  0  0  0  0  0  0  0  0
    1.3219   -2.6058    0.0000 C   0  0  0  0  0  0  0  0  0  0  0  0
    0.4073    3.0512    0.0000 C   0  0  0  0  0  0  0  0  0  0  0  0
   -2.0778    0.2002    0.0000 C   0  0  0  0  0  0  0  0  0  0  0  0
    2.7371   -2.4575    0.0000 C   0  0  0  0  0  0  0  0  0  0  0  0
    2.0743   -2.9442    0.0000 C   0  0  0  0  0  0  0  0  0  0  0  0
   -2.9027    0.2071    0.0000 O   0  0  0  0  0  0  0  0  0  0  0  0
   -3.3169    0.9250    0.0000 C   0  0  0  0  0  0  0  0  0  0  0  0
   -4.1418    0.9354    0.0000 C   0  0  0  0  0  0  0  0  0  0  0  0
   -4.9701    0.9388    0.0000 C   0  0  0  0  0  0  0  0  0  0  0  0
  1  2  1  0  0  0  0
  1  3  1  0  0  0  0
  1  4  1  0  0  0  0
  2  5  2  0  0  0  0
  2  6  1  0  0  0  0
  3  7  2  0  0  0  0
  3  8  1  0  0  0  0
  4  9  2  0  0  0  0
  4 10  1  0  0  0  0
  5 11  1  0  0  0  0
  5 12  1  0  0  0  0
  6 13  1  0  0  0  0
  6 14  2  0  0  0  0
  7 15  1  0  0  0  0
  7 12  1  0  0  0  0
  8 16  1  0  0  0  0
  8 17  2  0  0  0  0
  9 18  1  0  0  0  0
 10 19  2  0  0  0  0
 11 20  1  0  0  0  0
 11 13  2  0  0  0  0
 13 21  1  0  0  0  0
 16 22  1  0  0  0  0
 18 23  2  0  0  0  0
 19 23  1  0  0  0  0
 20 24  2  0  0  0  0
 21 25  2  0  0  0  0
 23 26  1  0  0  0  0
 24 25  1  0  0  0  0
 26 27  1  0  0  0  0
 27 28  1  0  0  0  0
 28 29  3  0  0  0  0
M  END
>  <CdId>
34

>  <Mol Weight>
385.412

>  <Formula>
C24H19NO4

>  <Click_ID>
CLK001D05 __  __  __

$$$$
CLK001D06 __  __  __
 OpenBabel03171413512D

 22 24  0  0  0  0  0  0  0  0999 V2000
   -0.1586   -0.0552    0.0000 N   0  0  0  0  0  0  0  0  0  0  0  0
   -0.1586    0.7723    0.0000 C   0  0  0  0  0  0  0  0  0  0  0  0
    0.5552   -0.4759    0.0000 C   0  0  0  0  0  0  0  0  0  0  0  0
   -0.8827   -0.4690    0.0000 C   0  0  0  0  0  0  0  0  0  0  0  0
   -0.8758    1.1930    0.0000 N   0  0  0  0  0  0  0  0  0  0  0  0
    0.5621    1.1827    0.0000 S   0  0  0  0  0  0  0  0  0  0  0  0
    0.5483   -1.2999    0.0000 C   0  0  0  0  0  0  0  0  0  0  0  0
    1.2654   -0.0621    0.0000 C   0  0  0  0  0  0  0  0  0  0  0  0
   -1.5965   -0.0552    0.0000 C   0  0  0  0  0  0  0  0  0  0  0  0
   -0.8827   -1.2930    0.0000 O   0  0  0  0  0  0  0  0  0  0  0  0
   -1.5965    0.7723    0.0000 C   0  0  0  0  0  0  0  0  0  0  0  0
    1.2758    0.7689    0.0000 C   0  0  0  0  0  0  0  0  0  0  0  0
    1.2620   -1.7137    0.0000 C   0  0  0  0  0  0  0  0  0  0  0  0
    1.9791   -0.4759    0.0000 C   0  0  0  0  0  0  0  0  0  0  0  0
   -2.3067   -0.4690    0.0000 C   0  0  0  0  0  0  0  0  0  0  0  0
   -2.3067    1.1861    0.0000 C   0  0  0  0  0  0  0  0  0  0  0  0
    1.9860    1.1861    0.0000 C   0  0  0  0  0  0  0  0  0  0  0  0
    1.9791   -1.3068    0.0000 C   0  0  0  0  0  0  0  0  0  0  0  0
   -3.0204   -0.0552    0.0000 C   0  0  0  0  0  0  0  0  0  0  0  0
   -3.0204    0.7723    0.0000 C   0  0  0  0  0  0  0  0  0  0  0  0
    2.6998    1.6068    0.0000 C   0  0  0  0  0  0  0  0  0  0  0  0
    2.6929   -1.7171    0.0000 C   0  0  0  0  0  0  0  0  0  0  0  0
  1  2  1  0  0  0  0
  1  3  1  0  0  0  0
  1  4  1  0  0  0  0
  2  5  2  0  0  0  0
  2  6  1  0  0  0  0
  3  7  2  0  0  0  0
  3  8  1  0  0  0  0
  4  9  1  0  0  0  0
  4 10  2  0  0  0  0
  5 11  1  0  0  0  0
  6 12  1  0  0  0  0
  7 13  1  0  0  0  0
  8 14  2  0  0  0  0
  9 15  2  0  0  0  0
  9 11  1  0  0  0  0
 11 16  2  0  0  0  0
 12 17  1  0  0  0  0
 13 18  2  0  0  0  0
 14 18  1  0  0  0  0
 15 19  1  0  0  0  0
 16 20  1  0  0  0  0
 17 21  3  0  0  0  0
 18 22  1  0  0  0  0
 19 20  2  0  0  0  0
M  END
>  <CdId>
35

>  <Mol Weight>
306.382

>  <Formula>
C18H14N2OS

>  <Click_ID>
CLK001D06 __  __  __

$$$$
CLK001D07 __  __  __
 OpenBabel03171413512D

 11 11  0  0  0  0  0  0  0  0999 V2000
    6.9542  -21.1875    0.0000 C   0  0  0  0  0  0  0  0  0  0  0  0
    3.6500  -21.1875    0.0000 C   0  0  0  0  0  0  0  0  0  0  0  0
    2.8250  -21.1875    0.0000 C   0  0  0  0  0  0  0  0  0  0  0  0
    6.1292  -21.1875    0.0000 C   0  0  0  0  0  0  0  0  0  0  0  0
    7.3667  -21.9000    0.0000 O   0  0  0  0  0  0  0  0  0  0  0  0
    4.4750  -21.1875    0.0000 C   0  0  0  0  0  0  0  0  0  0  0  0
    5.7167  -21.9042    0.0000 C   0  0  0  0  0  0  0  0  0  0  0  0
    5.7167  -20.4750    0.0000 C   0  0  0  0  0  0  0  0  0  0  0  0
    7.3667  -20.4667    0.0000 O   0  0  0  0  0  0  0  0  0  0  0  0
    4.8875  -21.9042    0.0000 C   0  0  0  0  0  0  0  0  0  0  0  0
    4.8875  -20.4750    0.0000 C   0  0  0  0  0  0  0  0  0  0  0  0
  2  6  1  0  0  0  0
  3  2  3  0  0  0  0
  4  1  1  0  0  0  0
  5  1  2  0  0  0  0
  6 11  1  0  0  0  0
  6 10  2  0  0  0  0
  7  4  2  0  0  0  0
  8  4  1  0  0  0  0
  9  1  1  0  0  0  0
 10  7  1  0  0  0  0
 11  8  2  0  0  0  0
M  END
>  <CdId>
36

>  <Mol Weight>
146.1427

>  <Formula>
C9H6O2

>  <Click_ID>
CLK001D07 __  __  __

$$$$
CLK001D09 __  __  __
 OpenBabel03171413512D

 31 35  0  0  0  0  0  0  0  0999 V2000
   -1.3837   -0.8832    0.0000 C   0  0  0  0  0  0  0  0  0  0  0  0
   -0.6956   -0.4904    0.0000 C   0  0  0  0  0  0  0  0  0  0  0  0
   -2.1193   -0.4904    0.0000 C   0  0  0  0  0  0  0  0  0  0  0  0
   -0.6956   -1.3086    0.0000 C   0  0  0  0  0  0  0  0  0  0  0  0
   -2.0818   -1.3086    0.0000 C   0  0  0  0  0  0  0  0  0  0  0  0
   -0.6956    0.3803    0.0000 C   0  0  0  0  0  0  0  0  0  0  0  0
    0.0300   -0.8832    0.0000 C   0  0  0  0  0  0  0  0  0  0  0  0
   -2.1193    0.3803    0.0000 C   0  0  0  0  0  0  0  0  0  0  0  0
   -0.6956   -2.1518    0.0000 C   0  0  0  0  0  0  0  0  0  0  0  0
   -2.0818   -2.1518    0.0000 C   0  0  0  0  0  0  0  0  0  0  0  0
   -1.3937    0.7681    0.0000 C   0  0  0  0  0  0  0  0  0  0  0  0
    0.0300    0.7681    0.0000 N   0  0  0  0  0  0  0  0  0  0  0  0
    0.7807   -0.4904    0.0000 N   0  0  0  0  0  0  0  0  0  0  0  0
    0.0300   -1.7315    0.0000 O   0  0  0  0  0  0  0  0  0  0  0  0
   -2.8174    0.7681    0.0000 C   0  0  0  0  0  0  0  0  0  0  0  0
   -1.3311   -2.5071    0.0000 C   0  0  0  0  0  0  0  0  0  0  0  0
   -1.3937    1.5939    0.0000 C   0  0  0  0  0  0  0  0  0  0  0  0
    0.7807    0.3803    0.0000 C   0  0  0  0  0  0  0  0  0  0  0  0
    1.4913   -0.8982    0.0000 C   0  0  0  0  0  0  0  0  0  0  0  0
   -2.8174    1.5939    0.0000 C   0  0  0  0  0  0  0  0  0  0  0  0
   -2.1193    2.0142    0.0000 C   0  0  0  0  0  0  0  0  0  0  0  0
    1.4913    0.8307    0.0000 S   0  0  0  0  0  0  0  0  0  0  0  0
    2.1969   -0.4904    0.0000 C   0  0  0  0  0  0  0  0  0  0  0  0
    1.4913    1.6939    0.0000 C   0  0  0  0  0  0  0  0  0  0  0  0
    2.1969    0.3353    0.0000 C   0  0  0  0  0  0  0  0  0  0  0  0
    2.9125   -0.9008    0.0000 C   0  0  0  0  0  0  0  0  0  0  0  0
    0.7731    2.0868    0.0000 C   0  0  0  0  0  0  0  0  0  0  0  0
    2.9125    0.7506    0.0000 C   0  0  0  0  0  0  0  0  0  0  0  0
    3.6231   -0.4904    0.0000 C   0  0  0  0  0  0  0  0  0  0  0  0
    0.0676    2.4921    0.0000 C   0  0  0  0  0  0  0  0  0  0  0  0
    3.6231    0.3353    0.0000 C   0  0  0  0  0  0  0  0  0  0  0  0
  1  2  1  0  0  0  0
  1  3  1  0  0  0  0
  1  4  1  0  0  0  0
  1  5  1  0  0  0  0
  2  6  2  0  0  0  0
  2  7  1  0  0  0  0
  3  8  1  0  0  0  0
  4  9  1  0  0  0  0
  5 10  1  0  0  0  0
  6 11  1  0  0  0  0
  6 12  1  0  0  0  0
  7 13  1  0  0  0  0
  7 14  2  0  0  0  0
  8 15  2  0  0  0  0
  8 11  1  0  0  0  0
  9 16  1  0  0  0  0
 10 16  1  0  0  0  0
 11 17  2  0  0  0  0
 12 18  2  0  0  0  0
 13 19  1  0  0  0  0
 13 18  1  0  0  0  0
 15 20  1  0  0  0  0
 17 21  1  0  0  0  0
 18 22  1  0  0  0  0
 19 23  1  0  0  0  0
 20 21  2  0  0  0  0
 22 24  1  0  0  0  0
 23 25  2  0  0  0  0
 23 26  1  0  0  0  0
 24 27  1  0  0  0  0
 25 28  1  0  0  0  0
 26 29  2  0  0  0  0
 27 30  3  0  0  0  0
 28 31  2  0  0  0  0
 29 31  1  0  0  0  0
M  END
>  <CdId>
38

>  <Mol Weight>
426.573

>  <Formula>
C27H26N2OS

>  <Click_ID>
CLK001D09 __  __  __

$$$$
CLK001D10 __  __  __
 OpenBabel03171413512D

 28 31  0  0  0  0  0  0  0  0999 V2000
    1.5975   -0.3529    0.0000 C   0  0  0  0  0  0  0  0  0  0  0  0
    2.1478   -0.9639    0.0000 C   0  0  0  0  0  0  0  0  0  0  0  0
    0.8500   -0.6868    0.0000 C   0  0  0  0  0  0  0  0  0  0  0  0
    1.8594    0.4288    0.0000 C   0  0  0  0  0  0  0  0  0  0  0  0
    1.7342   -1.6772    0.0000 N   0  0  0  0  0  0  0  0  0  0  0  0
    2.9599   -0.7968    0.0000 C   0  0  0  0  0  0  0  0  0  0  0  0
    0.9335   -1.5103    0.0000 C   0  0  0  0  0  0  0  0  0  0  0  0
    0.1366   -0.2770    0.0000 N   0  0  0  0  0  0  0  0  0  0  0  0
    2.6676    0.6034    0.0000 C   0  0  0  0  0  0  0  0  0  0  0  0
    2.0757   -2.4362    0.0000 C   0  0  0  0  0  0  0  0  0  0  0  0
    3.2178   -0.0113    0.0000 C   0  0  0  0  0  0  0  0  0  0  0  0
    0.3188   -2.0605    0.0000 O   0  0  0  0  0  0  0  0  0  0  0  0
    0.1366    0.5502    0.0000 N   0  0  0  0  0  0  0  0  0  0  0  0
    1.5862   -3.1041    0.0000 C   0  0  0  0  0  0  0  0  0  0  0  0
   -0.5806    0.9639    0.0000 C   0  0  0  0  0  0  0  0  0  0  0  0
    1.1042   -3.7681    0.0000 C   0  0  0  0  0  0  0  0  0  0  0  0
   -1.2940    0.5502    0.0000 C   0  0  0  0  0  0  0  0  0  0  0  0
   -0.5806    1.7873    0.0000 O   0  0  0  0  0  0  0  0  0  0  0  0
   -2.0188    0.9676    0.0000 C   0  0  0  0  0  0  0  0  0  0  0  0
   -1.2940   -0.2770    0.0000 C   0  0  0  0  0  0  0  0  0  0  0  0
   -2.0188    1.7911    0.0000 N   0  0  0  0  0  0  0  0  0  0  0  0
   -2.7246    0.5502    0.0000 C   0  0  0  0  0  0  0  0  0  0  0  0
   -2.0188   -0.6868    0.0000 C   0  0  0  0  0  0  0  0  0  0  0  0
   -1.3471    2.2844    0.0000 C   0  0  0  0  0  0  0  0  0  0  0  0
   -2.6828    2.2844    0.0000 C   0  0  0  0  0  0  0  0  0  0  0  0
   -2.7246   -0.2770    0.0000 C   0  0  0  0  0  0  0  0  0  0  0  0
   -1.6051    3.0661    0.0000 C   0  0  0  0  0  0  0  0  0  0  0  0
   -2.4323    3.0661    0.0000 C   0  0  0  0  0  0  0  0  0  0  0  0
  1  2  2  0  0  0  0
  1  3  1  0  0  0  0
  1  4  1  0  0  0  0
  2  5  1  0  0  0  0
  2  6  1  0  0  0  0
  3  7  1  0  0  0  0
  3  8  2  0  0  0  0
  4  9  2  0  0  0  0
  5 10  1  0  0  0  0
  5  7  1  0  0  0  0
  6 11  2  0  0  0  0
  7 12  2  0  0  0  0
  8 13  1  0  0  0  0
  9 11  1  0  0  0  0
 10 14  1  0  0  0  0
 13 15  1  0  0  0  0
 14 16  3  0  0  0  0
 15 17  1  0  0  0  0
 15 18  2  0  0  0  0
 17 19  1  0  0  0  0
 17 20  2  0  0  0  0
 19 21  1  0  0  0  0
 19 22  2  0  0  0  0
 20 23  1  0  0  0  0
 21 24  1  0  0  0  0
 21 25  1  0  0  0  0
 22 26  1  0  0  0  0
 23 26  2  0  0  0  0
 24 27  2  0  0  0  0
 25 28  2  0  0  0  0
 27 28  1  0  0  0  0
M  END
>  <CdId>
39

>  <Mol Weight>
368.388

>  <Formula>
C22H16N4O2

>  <Click_ID>
CLK001D10 __  __  __

$$$$
CLK001E05 __  __  __
 OpenBabel03171413512D

 19 19  0  0  0  0  0  0  0  0999 V2000
    1.6879   -0.4676    0.0000 C   0  0  0  0  0  0  0  0  0  0  0  0
    1.6879    0.3612    0.0000 N   0  0  0  0  0  0  0  0  0  0  0  0
    0.9733   -0.8783    0.0000 C   0  0  0  0  0  0  0  0  0  0  0  0
    2.4065   -0.8783    0.0000 C   0  0  0  0  0  0  0  0  0  0  0  0
    0.9733    0.7755    0.0000 C   0  0  0  0  0  0  0  0  0  0  0  0
    0.9733   -1.7070    0.0000 C   0  0  0  0  0  0  0  0  0  0  0  0
    2.4065   -1.7070    0.0000 C   0  0  0  0  0  0  0  0  0  0  0  0
    0.2547    0.3688    0.0000 C   0  0  0  0  0  0  0  0  0  0  0  0
    0.9733    1.6005    0.0000 O   0  0  0  0  0  0  0  0  0  0  0  0
    1.6879   -2.1213    0.0000 C   0  0  0  0  0  0  0  0  0  0  0  0
   -0.4524    0.7870    0.0000 C   0  0  0  0  0  0  0  0  0  0  0  0
   -0.4486    1.6120    0.0000 C   0  0  0  0  0  0  0  0  0  0  0  0
   -1.1595    2.0225    0.0000 C   0  0  0  0  0  0  0  0  0  0  0  0
   -1.8742    1.6157    0.0000 C   0  0  0  0  0  0  0  0  0  0  0  0
   -1.8742    0.7907    0.0000 C   0  0  0  0  0  0  0  0  0  0  0  0
   -2.5890    0.3801    0.0000 C   0  0  0  0  0  0  0  0  0  0  0  0
   -2.5890   -0.4447    0.0000 C   0  0  0  0  0  0  0  0  0  0  0  0
   -1.8742   -0.8516    0.0000 C   0  0  0  0  0  0  0  0  0  0  0  0
   -1.1595   -1.2621    0.0000 C   0  0  0  0  0  0  0  0  0  0  0  0
  1  2  1  0  0  0  0
  1  3  1  0  0  0  0
  1  4  1  0  0  0  0
  2  5  1  0  0  0  0
  3  6  1  0  0  0  0
  4  7  1  0  0  0  0
  5  8  1  0  0  0  0
  5  9  2  0  0  0  0
  6 10  1  0  0  0  0
  7 10  1  0  0  0  0
  8 11  1  0  0  0  0
 11 12  1  0  0  0  0
 12 13  1  0  0  0  0
 13 14  1  0  0  0  0
 14 15  1  0  0  0  0
 15 16  1  0  0  0  0
 16 17  1  0  0  0  0
 17 18  1  0  0  0  0
 18 19  3  0  0  0  0
M  END
>  <CdId>
44

>  <Mol Weight>
263.4183

>  <Formula>
C17H29NO

>  <Click_ID>
CLK001E05 __  __  __

$$$$
CLK001E07 __  __  __
 OpenBabel03171413512D

 26 28  0  0  0  0  0  0  0  0999 V2000
    1.6310    0.9276    0.0000 C   0  0  0  0  0  0  0  0  0  0  0  0
    1.1793    1.6138    0.0000 C   0  0  0  0  0  0  0  0  0  0  0  0
    1.1172    0.2828    0.0000 C   0  0  0  0  0  0  0  0  0  0  0  0
    2.4552    0.9655    0.0000 C   0  0  0  0  0  0  0  0  0  0  0  0
    0.3897    1.4034    0.0000 N   0  0  0  0  0  0  0  0  0  0  0  0
    1.5552    2.3448    0.0000 C   0  0  0  0  0  0  0  0  0  0  0  0
    0.3414    0.5759    0.0000 C   0  0  0  0  0  0  0  0  0  0  0  0
    1.3310   -0.5103    0.0000 C   0  0  0  0  0  0  0  0  0  0  0  0
    2.8310    1.7034    0.0000 C   0  0  0  0  0  0  0  0  0  0  0  0
   -0.2586    1.9172    0.0000 C   0  0  0  0  0  0  0  0  0  0  0  0
    2.3793    2.3897    0.0000 C   0  0  0  0  0  0  0  0  0  0  0  0
    0.7517   -1.0966    0.0000 C   0  0  0  0  0  0  0  0  0  0  0  0
   -0.1207    2.7310    0.0000 C   0  0  0  0  0  0  0  0  0  0  0  0
   -0.0448   -0.8931    0.0000 C   0  0  0  0  0  0  0  0  0  0  0  0
    0.9621   -1.8966    0.0000 C   0  0  0  0  0  0  0  0  0  0  0  0
    0.0552    3.5345    0.0000 C   0  0  0  0  0  0  0  0  0  0  0  0
   -0.6310   -1.4828    0.0000 N   0  0  0  0  0  0  0  0  0  0  0  0
   -0.2690   -0.0966    0.0000 O   0  0  0  0  0  0  0  0  0  0  0  0
    1.1759   -2.6931    0.0000 N   0  0  0  0  0  0  0  0  0  0  0  0
   -1.4586   -1.4724    0.0000 C   0  0  0  0  0  0  0  0  0  0  0  0
   -1.8690   -2.1931    0.0000 C   0  0  0  0  0  0  0  0  0  0  0  0
   -1.8621   -0.7552    0.0000 C   0  0  0  0  0  0  0  0  0  0  0  0
   -2.7069   -2.1862    0.0000 C   0  0  0  0  0  0  0  0  0  0  0  0
   -2.6966   -0.7483    0.0000 C   0  0  0  0  0  0  0  0  0  0  0  0
   -3.1103   -1.4621    0.0000 C   0  0  0  0  0  0  0  0  0  0  0  0
   -3.1207   -2.8966    0.0000 C   0  0  0  0  0  0  0  0  0  0  0  0
  1  2  1  0  0  0  0
  1  3  1  0  0  0  0
  1  4  2  0  0  0  0
  2  5  1  0  0  0  0
  2  6  2  0  0  0  0
  3  7  2  0  0  0  0
  3  8  1  0  0  0  0
  4  9  1  0  0  0  0
  5 10  1  0  0  0  0
  5  7  1  0  0  0  0
  6 11  1  0  0  0  0
  8 12  2  0  0  0  0
  9 11  2  0  0  0  0
 10 13  1  0  0  0  0
 12 14  1  0  0  0  0
 12 15  1  0  0  0  0
 13 16  3  0  0  0  0
 14 17  1  0  0  0  0
 14 18  2  0  0  0  0
 15 19  3  0  0  0  0
 17 20  1  0  0  0  0
 20 21  2  0  0  0  0
 20 22  1  0  0  0  0
 21 23  1  0  0  0  0
 22 24  2  0  0  0  0
 23 25  2  0  0  0  0
 23 26  1  0  0  0  0
 24 25  1  0  0  0  0
M  END
>  <CdId>
46

>  <Mol Weight>
339.3899

>  <Formula>
C22H17N3O

>  <Click_ID>
CLK001E07 __  __  __

$$$$
CLK001F05 __  __  __
 OpenBabel03171413512D

 18 18  0  0  0  0  0  0  0  0999 V2000
    3.0085   -0.0458    0.0000 C   0  0  0  0  0  0  0  0  0  0  0  0
    3.0936   -0.8894    0.0000 N   0  0  0  0  0  0  0  0  0  0  0  0
    3.7639    0.2845    0.0000 S   0  0  0  0  0  0  0  0  0  0  0  0
    2.2891    0.3728    0.0000 N   0  0  0  0  0  0  0  0  0  0  0  0
    3.8947   -1.0595    0.0000 C   0  0  0  0  0  0  0  0  0  0  0  0
    4.3165   -0.3401    0.0000 C   0  0  0  0  0  0  0  0  0  0  0  0
    1.5729   -0.0425    0.0000 C   0  0  0  0  0  0  0  0  0  0  0  0
    0.8600    0.3728    0.0000 C   0  0  0  0  0  0  0  0  0  0  0  0
    1.5729   -0.8633    0.0000 O   0  0  0  0  0  0  0  0  0  0  0  0
    0.1472   -0.0393    0.0000 C   0  0  0  0  0  0  0  0  0  0  0  0
   -0.5690    0.3793    0.0000 C   0  0  0  0  0  0  0  0  0  0  0  0
   -1.2819   -0.0327    0.0000 C   0  0  0  0  0  0  0  0  0  0  0  0
   -1.9947    0.3826    0.0000 C   0  0  0  0  0  0  0  0  0  0  0  0
   -2.7044   -0.0294    0.0000 C   0  0  0  0  0  0  0  0  0  0  0  0
   -3.4238    0.3859    0.0000 C   0  0  0  0  0  0  0  0  0  0  0  0
   -4.1334   -0.0262    0.0000 C   0  0  0  0  0  0  0  0  0  0  0  0
   -4.8463    0.3891    0.0000 C   0  0  0  0  0  0  0  0  0  0  0  0
   -5.5624    0.8045    0.0000 C   0  0  0  0  0  0  0  0  0  0  0  0
  1  2  2  0  0  0  0
  1  3  1  0  0  0  0
  1  4  1  0  0  0  0
  2  5  1  0  0  0  0
  3  6  1  0  0  0  0
  4  7  1  0  0  0  0
  5  6  2  0  0  0  0
  7  8  1  0  0  0  0
  7  9  2  0  0  0  0
  8 10  1  0  0  0  0
 10 11  1  0  0  0  0
 11 12  1  0  0  0  0
 12 13  1  0  0  0  0
 13 14  1  0  0  0  0
 14 15  1  0  0  0  0
 15 16  1  0  0  0  0
 16 17  1  0  0  0  0
 17 18  3  0  0  0  0
M  END
>  <CdId>
54

>  <Mol Weight>
264.386

>  <Formula>
C14H20N2OS

>  <Click_ID>
CLK001F05 __  __  __

$$$$
CLK001G05 __  __  __
 OpenBabel03171413512D

 22 23  0  0  0  0  0  0  0  0999 V2000
   -0.2953    0.1266    0.0000 C   0  0  0  0  0  0  0  0  0  0  0  0
    0.4284   -0.2694    0.0000 C   0  0  0  0  0  0  0  0  0  0  0  0
   -0.2953    0.9639    0.0000 C   0  0  0  0  0  0  0  0  0  0  0  0
   -1.0126   -0.2694    0.0000 C   0  0  0  0  0  0  0  0  0  0  0  0
    0.4284   -1.1067    0.0000 C   0  0  0  0  0  0  0  0  0  0  0  0
    1.1424    0.1428    0.0000 C   0  0  0  0  0  0  0  0  0  0  0  0
   -1.0126    1.3598    0.0000 C   0  0  0  0  0  0  0  0  0  0  0  0
    0.4284    1.3598    0.0000 C   0  0  0  0  0  0  0  0  0  0  0  0
   -1.0126   -1.1067    0.0000 C   0  0  0  0  0  0  0  0  0  0  0  0
   -1.7168    0.1428    0.0000 C   0  0  0  0  0  0  0  0  0  0  0  0
   -0.2953   -1.5221    0.0000 N   0  0  0  0  0  0  0  0  0  0  0  0
    1.1424   -1.5221    0.0000 S   0  0  0  0  0  0  0  0  0  0  0  0
    1.8499    0.5582    0.0000 N   0  0  0  0  0  0  0  0  0  0  0  0
   -1.0126    2.1874    0.0000 C   0  0  0  0  0  0  0  0  0  0  0  0
    0.4284    2.1874    0.0000 C   0  0  0  0  0  0  0  0  0  0  0  0
   -1.7168   -1.5221    0.0000 N   0  0  0  0  0  0  0  0  0  0  0  0
   -2.4341    0.5582    0.0000 N   0  0  0  0  0  0  0  0  0  0  0  0
    1.1424   -2.3498    0.0000 C   0  0  0  0  0  0  0  0  0  0  0  0
   -0.2953    2.5899    0.0000 C   0  0  0  0  0  0  0  0  0  0  0  0
    1.8499   -2.7554    0.0000 C   0  0  0  0  0  0  0  0  0  0  0  0
   -0.2953    3.4207    0.0000 O   0  0  0  0  0  0  0  0  0  0  0  0
    2.5639   -3.1676    0.0000 C   0  0  0  0  0  0  0  0  0  0  0  0
  1  2  1  0  0  0  0
  1  3  1  0  0  0  0
  1  4  2  0  0  0  0
  2  5  2  0  0  0  0
  2  6  1  0  0  0  0
  3  7  1  0  0  0  0
  3  8  2  0  0  0  0
  4  9  1  0  0  0  0
  4 10  1  0  0  0  0
  5 11  1  0  0  0  0
  5 12  1  0  0  0  0
  6 13  3  0  0  0  0
  7 14  2  0  0  0  0
  8 15  1  0  0  0  0
  9 16  1  0  0  0  0
  9 11  2  0  0  0  0
 10 17  3  0  0  0  0
 12 18  1  0  0  0  0
 14 19  1  0  0  0  0
 15 19  2  0  0  0  0
 18 20  1  0  0  0  0
 19 21  1  0  0  0  0
 20 22  3  0  0  0  0
M  END
>  <CdId>
64

>  <Mol Weight>
306.342

>  <Formula>
C16H10N4OS

>  <Click_ID>
CLK001G05 __  __  __

$$$$
CLK001G07 __  __  __
 OpenBabel03171413512D

 18 20  0  0  0  0  0  0  0  0999 V2000
   -1.0406    0.7654    0.0000 C   0  0  0  0  0  0  0  0  0  0  0  0
   -0.3356    0.3544    0.0000 C   0  0  0  0  0  0  0  0  0  0  0  0
   -1.7569    0.3544    0.0000 C   0  0  0  0  0  0  0  0  0  0  0  0
   -1.2027    1.5760    0.0000 C   0  0  0  0  0  0  0  0  0  0  0  0
   -0.3393   -0.4712    0.0000 C   0  0  0  0  0  0  0  0  0  0  0  0
    0.3657    0.7654    0.0000 C   0  0  0  0  0  0  0  0  0  0  0  0
   -1.7607   -0.4600    0.0000 C   0  0  0  0  0  0  0  0  0  0  0  0
   -2.3677    0.9161    0.0000 C   0  0  0  0  0  0  0  0  0  0  0  0
   -2.0246    1.6664    0.0000 C   0  0  0  0  0  0  0  0  0  0  0  0
    0.3657   -0.8784    0.0000 C   0  0  0  0  0  0  0  0  0  0  0  0
   -1.0481   -0.8747    0.0000 O   0  0  0  0  0  0  0  0  0  0  0  0
    1.0821    0.3544    0.0000 C   0  0  0  0  0  0  0  0  0  0  0  0
   -2.4770   -0.8672    0.0000 O   0  0  0  0  0  0  0  0  0  0  0  0
    1.0821   -0.4712    0.0000 C   0  0  0  0  0  0  0  0  0  0  0  0
    1.7984   -0.8860    0.0000 O   0  0  0  0  0  0  0  0  0  0  0  0
    2.5072   -0.4751    0.0000 C   0  0  0  0  0  0  0  0  0  0  0  0
    3.2160   -0.8898    0.0000 C   0  0  0  0  0  0  0  0  0  0  0  0
    3.9249   -0.4788    0.0000 C   0  0  0  0  0  0  0  0  0  0  0  0
  1  2  1  0  0  0  0
  1  3  2  0  0  0  0
  1  4  1  0  0  0  0
  2  5  2  0  0  0  0
  2  6  1  0  0  0  0
  3  7  1  0  0  0  0
  3  8  1  0  0  0  0
  4  9  1  0  0  0  0
  5 10  1  0  0  0  0
  5 11  1  0  0  0  0
  6 12  2  0  0  0  0
  7 13  2  0  0  0  0
  7 11  1  0  0  0  0
  8  9  1  0  0  0  0
 10 14  2  0  0  0  0
 12 14  1  0  0  0  0
 14 15  1  0  0  0  0
 15 16  1  0  0  0  0
 16 17  1  0  0  0  0
 17 18  3  0  0  0  0
M  END
>  <CdId>
66

>  <Mol Weight>
240.254

>  <Formula>
C15H12O3

>  <Click_ID>
CLK001G07 __  __  __

$$$$
CLK001G08 __  __  __
 OpenBabel03171413512D

 17 16  0  0  0  0  0  0  0  0999 V2000
    0.2018   -0.0723    0.0000 C   0  0  0  0  0  0  0  0  0  0  0  0
    0.9214    0.3312    0.0000 C   0  0  0  0  0  0  0  0  0  0  0  0
   -0.5064    0.3426    0.0000 C   0  0  0  0  0  0  0  0  0  0  0  0
    1.6372   -0.0838    0.0000 N   0  0  0  0  0  0  0  0  0  0  0  0
    0.9175    1.1575    0.0000 O   0  0  0  0  0  0  0  0  0  0  0  0
   -0.5026    1.1688    0.0000 C   0  0  0  0  0  0  0  0  0  0  0  0
    2.3529    0.3312    0.0000 C   0  0  0  0  0  0  0  0  0  0  0  0
   -1.2145    1.5839    0.0000 C   0  0  0  0  0  0  0  0  0  0  0  0
    3.0726   -0.0838    0.0000 C   0  0  0  0  0  0  0  0  0  0  0  0
   -1.9341    1.1727    0.0000 C   0  0  0  0  0  0  0  0  0  0  0  0
    3.0726   -0.9099    0.0000 C   0  0  0  0  0  0  0  0  0  0  0  0
   -1.9341    0.3502    0.0000 C   0  0  0  0  0  0  0  0  0  0  0  0
    2.3529   -1.3250    0.0000 C   0  0  0  0  0  0  0  0  0  0  0  0
   -2.6462   -0.0647    0.0000 C   0  0  0  0  0  0  0  0  0  0  0  0
   -2.6462   -0.8871    0.0000 C   0  0  0  0  0  0  0  0  0  0  0  0
   -1.9341   -1.2983    0.0000 C   0  0  0  0  0  0  0  0  0  0  0  0
   -1.2145   -1.7057    0.0000 C   0  0  0  0  0  0  0  0  0  0  0  0
  1  2  1  0  0  0  0
  1  3  1  0  0  0  0
  2  4  1  0  0  0  0
  2  5  2  0  0  0  0
  3  6  1  0  0  0  0
  4  7  1  0  0  0  0
  6  8  1  0  0  0  0
  7  9  1  0  0  0  0
  8 10  1  0  0  0  0
  9 11  1  0  0  0  0
 10 12  1  0  0  0  0
 11 13  1  0  0  0  0
 12 14  1  0  0  0  0
 14 15  1  0  0  0  0
 15 16  1  0  0  0  0
 16 17  3  0  0  0  0
M  END
>  <CdId>
67

>  <Mol Weight>
237.381

>  <Formula>
C15H27NO

>  <Click_ID>
CLK001G08 __  __  __

$$$$
CLK001G09 __  __  __
 OpenBabel03171413512D

 14 14  0  0  0  0  0  0  0  0999 V2000
   -0.1563    0.4391    0.0000 C   0  0  0  0  0  0  0  0  0  0  0  0
   -0.1563   -0.3859    0.0000 C   0  0  0  0  0  0  0  0  0  0  0  0
   -0.8699    0.8500    0.0000 C   0  0  0  0  0  0  0  0  0  0  0  0
    0.5672    0.8600    0.0000 C   0  0  0  0  0  0  0  0  0  0  0  0
   -0.8699   -0.7951    0.0000 N   0  0  0  0  0  0  0  0  0  0  0  0
    0.5672   -0.7951    0.0000 S   0  0  0  0  0  0  0  0  0  0  0  0
   -1.5802    0.4391    0.0000 C   0  0  0  0  0  0  0  0  0  0  0  0
   -0.8699    1.6850    0.0000 C   0  0  0  0  0  0  0  0  0  0  0  0
    1.2808    1.2841    0.0000 N   0  0  0  0  0  0  0  0  0  0  0  0
   -1.5802   -0.3859    0.0000 C   0  0  0  0  0  0  0  0  0  0  0  0
    1.2808   -0.3859    0.0000 C   0  0  0  0  0  0  0  0  0  0  0  0
   -2.3038   -0.7951    0.0000 O   0  0  0  0  0  0  0  0  0  0  0  0
    1.9893   -0.7951    0.0000 C   0  0  0  0  0  0  0  0  0  0  0  0
    2.7029   -1.2192    0.0000 C   0  0  0  0  0  0  0  0  0  0  0  0
  1  2  2  0  0  0  0
  1  3  1  0  0  0  0
  1  4  1  0  0  0  0
  2  5  1  0  0  0  0
  2  6  1  0  0  0  0
  3  7  2  0  0  0  0
  3  8  1  0  0  0  0
  4  9  3  0  0  0  0
  5 10  1  0  0  0  0
  6 11  1  0  0  0  0
  7 10  1  0  0  0  0
 10 12  2  0  0  0  0
 11 13  1  0  0  0  0
 13 14  3  0  0  0  0
M  END
>  <CdId>
68

>  <Mol Weight>
204.248

>  <Formula>
C10H8N2OS

>  <Click_ID>
CLK001G09 __  __  __

$$$$
CLK002B07 __  __  __
 OpenBabel03171413512D

 19 19  0  0  0  0  0  0  0  0999 V2000
    2.5498   -0.0915    0.0000 C   0  0  0  0  0  0  0  0  0  0  0  0
    1.8332    0.3240    0.0000 C   0  0  0  0  0  0  0  0  0  0  0  0
    3.3159    0.2439    0.0000 C   0  0  0  0  0  0  0  0  0  0  0  0
    2.6413   -0.9147    0.0000 O   0  0  0  0  0  0  0  0  0  0  0  0
    1.1167   -0.0915    0.0000 N   0  0  0  0  0  0  0  0  0  0  0  0
    3.8685   -0.3735    0.0000 C   0  0  0  0  0  0  0  0  0  0  0  0
    3.4531   -1.0900    0.0000 C   0  0  0  0  0  0  0  0  0  0  0  0
    0.3964    0.3240    0.0000 C   0  0  0  0  0  0  0  0  0  0  0  0
   -0.3202   -0.0800    0.0000 C   0  0  0  0  0  0  0  0  0  0  0  0
    0.3964    1.1548    0.0000 O   0  0  0  0  0  0  0  0  0  0  0  0
   -1.0290    0.3392    0.0000 C   0  0  0  0  0  0  0  0  0  0  0  0
   -1.0253    1.1624    0.0000 C   0  0  0  0  0  0  0  0  0  0  0  0
   -1.7380    1.5779    0.0000 C   0  0  0  0  0  0  0  0  0  0  0  0
   -2.4583    1.1663    0.0000 C   0  0  0  0  0  0  0  0  0  0  0  0
   -2.4583    0.3430    0.0000 C   0  0  0  0  0  0  0  0  0  0  0  0
   -3.1711   -0.0724    0.0000 C   0  0  0  0  0  0  0  0  0  0  0  0
   -3.1711   -0.8956    0.0000 C   0  0  0  0  0  0  0  0  0  0  0  0
   -2.4583   -1.3073    0.0000 C   0  0  0  0  0  0  0  0  0  0  0  0
   -1.7380   -1.7151    0.0000 C   0  0  0  0  0  0  0  0  0  0  0  0
  1  2  1  0  0  0  0
  1  3  2  0  0  0  0
  1  4  1  0  0  0  0
  2  5  1  0  0  0  0
  3  6  1  0  0  0  0
  4  7  1  0  0  0  0
  5  8  1  0  0  0  0
  6  7  2  0  0  0  0
  8  9  1  0  0  0  0
  8 10  2  0  0  0  0
  9 11  1  0  0  0  0
 11 12  1  0  0  0  0
 12 13  1  0  0  0  0
 13 14  1  0  0  0  0
 14 15  1  0  0  0  0
 15 16  1  0  0  0  0
 16 17  1  0  0  0  0
 17 18  1  0  0  0  0
 18 19  3  0  0  0  0
M  END
>  <CdId>
96

>  <Mol Weight>
261.3593

>  <Formula>
C16H23NO2

>  <Click_ID>
CLK002B07 __  __  __

$$$$
CLK002C03 __  __  __
 OpenBabel03171413512D

 20 20  0  0  0  0  0  0  0  0999 V2000
    2.3591   -0.0494    0.0000 C   0  0  0  0  0  0  0  0  0  0  0  0
    1.6438    0.3652    0.0000 C   0  0  0  0  0  0  0  0  0  0  0  0
    2.3553   -0.8790    0.0000 C   0  0  0  0  0  0  0  0  0  0  0  0
    3.0707    0.3652    0.0000 C   0  0  0  0  0  0  0  0  0  0  0  0
    0.9246   -0.0494    0.0000 N   0  0  0  0  0  0  0  0  0  0  0  0
    3.0707   -1.2899    0.0000 C   0  0  0  0  0  0  0  0  0  0  0  0
    3.7898   -0.0494    0.0000 C   0  0  0  0  0  0  0  0  0  0  0  0
    0.2093    0.3652    0.0000 C   0  0  0  0  0  0  0  0  0  0  0  0
    3.7898   -0.8790    0.0000 C   0  0  0  0  0  0  0  0  0  0  0  0
   -0.5099   -0.0418    0.0000 C   0  0  0  0  0  0  0  0  0  0  0  0
    0.2093    1.1910    0.0000 O   0  0  0  0  0  0  0  0  0  0  0  0
   -1.2176    0.3767    0.0000 C   0  0  0  0  0  0  0  0  0  0  0  0
   -1.2138    1.1986    0.0000 C   0  0  0  0  0  0  0  0  0  0  0  0
   -1.9253    1.6134    0.0000 C   0  0  0  0  0  0  0  0  0  0  0  0
   -2.6407    1.2062    0.0000 C   0  0  0  0  0  0  0  0  0  0  0  0
   -2.6407    0.3805    0.0000 C   0  0  0  0  0  0  0  0  0  0  0  0
   -3.3561   -0.0305    0.0000 C   0  0  0  0  0  0  0  0  0  0  0  0
   -3.3561   -0.8562    0.0000 C   0  0  0  0  0  0  0  0  0  0  0  0
   -2.6407   -1.2632    0.0000 C   0  0  0  0  0  0  0  0  0  0  0  0
   -1.9253   -1.6742    0.0000 C   0  0  0  0  0  0  0  0  0  0  0  0
  1  2  1  0  0  0  0
  1  3  1  0  0  0  0
  1  4  2  0  0  0  0
  2  5  1  0  0  0  0
  3  6  2  0  0  0  0
  4  7  1  0  0  0  0
  5  8  1  0  0  0  0
  6  9  1  0  0  0  0
  7  9  2  0  0  0  0
  8 10  1  0  0  0  0
  8 11  2  0  0  0  0
 10 12  1  0  0  0  0
 12 13  1  0  0  0  0
 13 14  1  0  0  0  0
 14 15  1  0  0  0  0
 15 16  1  0  0  0  0
 16 17  1  0  0  0  0
 17 18  1  0  0  0  0
 18 19  1  0  0  0  0
 19 20  3  0  0  0  0
M  END
>  <CdId>
102

>  <Mol Weight>
271.3972

>  <Formula>
C18H25NO

>  <Click_ID>
CLK002C03 __  __  __

$$$$
CLK002D03 __  __  __
 OpenBabel03171413512D

 20 20  0  0  0  0  0  0  0  0999 V2000
    1.7488   -0.0685    0.0000 C   0  0  0  0  0  0  0  0  0  0  0  0
    2.4635   -0.4866    0.0000 C   0  0  0  0  0  0  0  0  0  0  0  0
    1.7450    0.7528    0.0000 C   0  0  0  0  0  0  0  0  0  0  0  0
    1.0303   -0.4828    0.0000 N   0  0  0  0  0  0  0  0  0  0  0  0
    3.1783   -0.0722    0.0000 C   0  0  0  0  0  0  0  0  0  0  0  0
    2.4635    1.1671    0.0000 C   0  0  0  0  0  0  0  0  0  0  0  0
    0.3155   -0.0685    0.0000 C   0  0  0  0  0  0  0  0  0  0  0  0
    3.1783    0.7528    0.0000 C   0  0  0  0  0  0  0  0  0  0  0  0
   -0.4030   -0.4752    0.0000 C   0  0  0  0  0  0  0  0  0  0  0  0
    0.3155    0.7565    0.0000 O   0  0  0  0  0  0  0  0  0  0  0  0
    3.8929    1.1671    0.0000 C   0  0  0  0  0  0  0  0  0  0  0  0
   -1.1101   -0.0570    0.0000 C   0  0  0  0  0  0  0  0  0  0  0  0
   -1.1025    0.7680    0.0000 C   0  0  0  0  0  0  0  0  0  0  0  0
   -1.8172    1.1786    0.0000 C   0  0  0  0  0  0  0  0  0  0  0  0
   -2.5320    0.7717    0.0000 C   0  0  0  0  0  0  0  0  0  0  0  0
   -2.5320   -0.0533    0.0000 C   0  0  0  0  0  0  0  0  0  0  0  0
   -3.2429   -0.4638    0.0000 C   0  0  0  0  0  0  0  0  0  0  0  0
   -3.2429   -1.2888    0.0000 C   0  0  0  0  0  0  0  0  0  0  0  0
   -2.5320   -1.6955    0.0000 C   0  0  0  0  0  0  0  0  0  0  0  0
   -1.8172   -2.1061    0.0000 C   0  0  0  0  0  0  0  0  0  0  0  0
  1  2  1  0  0  0  0
  1  3  2  0  0  0  0
  1  4  1  0  0  0  0
  2  5  2  0  0  0  0
  3  6  1  0  0  0  0
  4  7  1  0  0  0  0
  5  8  1  0  0  0  0
  6  8  2  0  0  0  0
  7  9  1  0  0  0  0
  7 10  2  0  0  0  0
  8 11  1  0  0  0  0
  9 12  1  0  0  0  0
 12 13  1  0  0  0  0
 13 14  1  0  0  0  0
 14 15  1  0  0  0  0
 15 16  1  0  0  0  0
 16 17  1  0  0  0  0
 17 18  1  0  0  0  0
 18 19  1  0  0  0  0
 19 20  3  0  0  0  0
M  END
>  <CdId>
112

>  <Mol Weight>
271.3972

>  <Formula>
C18H25NO

>  <Click_ID>
CLK002D03 __  __  __

$$$$
CLK002D05 __  __  __
 OpenBabel03171413512D

 21 21  0  0  0  0  0  0  0  0999 V2000
    1.5627   -0.1673    0.0000 C   0  0  0  0  0  0  0  0  0  0  0  0
    0.8479   -0.5779    0.0000 C   0  0  0  0  0  0  0  0  0  0  0  0
    2.2775   -0.5779    0.0000 C   0  0  0  0  0  0  0  0  0  0  0  0
    1.5627    0.6616    0.0000 N   0  0  0  0  0  0  0  0  0  0  0  0
    0.8479   -1.4069    0.0000 C   0  0  0  0  0  0  0  0  0  0  0  0
    2.2775   -1.4069    0.0000 C   0  0  0  0  0  0  0  0  0  0  0  0
    0.8479    1.0761    0.0000 C   0  0  0  0  0  0  0  0  0  0  0  0
    1.5627   -1.8212    0.0000 C   0  0  0  0  0  0  0  0  0  0  0  0
    0.1292    0.6692    0.0000 C   0  0  0  0  0  0  0  0  0  0  0  0
    0.8441    1.9011    0.0000 O   0  0  0  0  0  0  0  0  0  0  0  0
    1.5589   -2.6426    0.0000 O   0  0  0  0  0  0  0  0  0  0  0  0
   -0.5779    1.0874    0.0000 C   0  0  0  0  0  0  0  0  0  0  0  0
    0.8479   -3.0608    0.0000 C   0  0  0  0  0  0  0  0  0  0  0  0
   -0.5741    1.9087    0.0000 C   0  0  0  0  0  0  0  0  0  0  0  0
   -1.2851    2.3232    0.0000 C   0  0  0  0  0  0  0  0  0  0  0  0
   -2.0037    1.9163    0.0000 C   0  0  0  0  0  0  0  0  0  0  0  0
   -2.0037    1.0913    0.0000 C   0  0  0  0  0  0  0  0  0  0  0  0
   -2.7148    0.6806    0.0000 C   0  0  0  0  0  0  0  0  0  0  0  0
   -2.7148   -0.1444    0.0000 C   0  0  0  0  0  0  0  0  0  0  0  0
   -2.0037   -0.5513    0.0000 C   0  0  0  0  0  0  0  0  0  0  0  0
   -1.2851   -0.9619    0.0000 C   0  0  0  0  0  0  0  0  0  0  0  0
  1  2  1  0  0  0  0
  1  3  2  0  0  0  0
  1  4  1  0  0  0  0
  2  5  2  0  0  0  0
  3  6  1  0  0  0  0
  4  7  1  0  0  0  0
  5  8  1  0  0  0  0
  6  8  2  0  0  0  0
  7  9  1  0  0  0  0
  7 10  2  0  0  0  0
  8 11  1  0  0  0  0
  9 12  1  0  0  0  0
 11 13  1  0  0  0  0
 12 14  1  0  0  0  0
 14 15  1  0  0  0  0
 15 16  1  0  0  0  0
 16 17  1  0  0  0  0
 17 18  1  0  0  0  0
 18 19  1  0  0  0  0
 19 20  1  0  0  0  0
 20 21  3  0  0  0  0
M  END
>  <CdId>
114

>  <Mol Weight>
287.3966

>  <Formula>
C18H25NO2

>  <Click_ID>
CLK002D05 __  __  __

$$$$
CLK002F05 __  __  __
 OpenBabel03171413512D

 32 32  0  0  0  0  0  0  0  0999 V2000
   -2.8562   -0.4219    0.0000 C   0  0  3  0  0  0  0  0  0  0  0  0
   -2.8562    0.4045    0.0000 C   0  0  3  0  0  0  0  0  0  0  0  0
   -2.1438   -0.8368    0.0000 O   0  0  0  0  0  0  0  0  0  0  0  0
   -3.5719   -0.8264    0.0000 O   0  0  0  0  0  0  0  0  0  0  0  0
   -2.1438    0.8195    0.0000 O   0  0  0  0  0  0  0  0  0  0  0  0
   -3.5719    0.8264    0.0000 O   0  0  0  0  0  0  0  0  0  0  0  0
   -2.1438   -1.6632    0.0000 C   0  0  0  0  0  0  0  0  0  0  0  0
   -4.2877   -0.4219    0.0000 C   0  0  0  0  0  0  0  0  0  0  0  0
   -2.1438    1.6459    0.0000 C   0  0  0  0  0  0  0  0  0  0  0  0
   -4.2877    0.4045    0.0000 C   0  0  0  0  0  0  0  0  0  0  0  0
   -1.4280   -2.0678    0.0000 C   0  0  0  0  0  0  0  0  0  0  0  0
   -2.8562   -2.0781    0.0000 O   0  0  0  0  0  0  0  0  0  0  0  0
   -1.4280    2.0609    0.0000 C   0  0  0  0  0  0  0  0  0  0  0  0
   -2.8631    2.0609    0.0000 O   0  0  0  0  0  0  0  0  0  0  0  0
   -0.7158   -1.6563    0.0000 C   0  0  0  0  0  0  0  0  0  0  0  0
   -0.7158    1.6529    0.0000 C   0  0  0  0  0  0  0  0  0  0  0  0
    0.0000   -2.0678    0.0000 C   0  0  0  0  0  0  0  0  0  0  0  0
    0.0000    2.0678    0.0000 C   0  0  0  0  0  0  0  0  0  0  0  0
    0.7158   -1.6563    0.0000 C   0  0  0  0  0  0  0  0  0  0  0  0
    0.7158    1.6529    0.0000 C   0  0  0  0  0  0  0  0  0  0  0  0
    1.4280   -2.0643    0.0000 C   0  0  0  0  0  0  0  0  0  0  0  0
    1.4280    2.0678    0.0000 C   0  0  0  0  0  0  0  0  0  0  0  0
    2.1438   -1.6493    0.0000 C   0  0  0  0  0  0  0  0  0  0  0  0
    2.1438    1.6598    0.0000 C   0  0  0  0  0  0  0  0  0  0  0  0
    2.8596   -2.0574    0.0000 C   0  0  0  0  0  0  0  0  0  0  0  0
    2.8596    2.0712    0.0000 C   0  0  0  0  0  0  0  0  0  0  0  0
    3.5719   -1.6424    0.0000 C   0  0  0  0  0  0  0  0  0  0  0  0
    3.5719    1.6667    0.0000 C   0  0  0  0  0  0  0  0  0  0  0  0
    4.2877   -2.0574    0.0000 C   0  0  0  0  0  0  0  0  0  0  0  0
    4.2877    2.0816    0.0000 C   0  0  0  0  0  0  0  0  0  0  0  0
    5.0000   -1.6424    0.0000 C   0  0  0  0  0  0  0  0  0  0  0  0
    5.0000    1.6667    0.0000 C   0  0  0  0  0  0  0  0  0  0  0  0
  1  2  1  0  0  0  0
  1  3  1  0  0  0  0
  1  4  1  0  0  0  0
  2  5  1  0  0  0  0
  2  6  1  0  0  0  0
  3  7  1  0  0  0  0
  4  8  1  0  0  0  0
  5  9  1  0  0  0  0
  6 10  1  0  0  0  0
  7 11  1  0  0  0  0
  7 12  2  0  0  0  0
  8 10  1  0  0  0  0
  9 13  1  0  0  0  0
  9 14  2  0  0  0  0
 11 15  1  0  0  0  0
 13 16  1  0  0  0  0
 15 17  1  0  0  0  0
 16 18  1  0  0  0  0
 17 19  1  0  0  0  0
 18 20  1  0  0  0  0
 19 21  1  0  0  0  0
 20 22  1  0  0  0  0
 21 23  1  0  0  0  0
 22 24  1  0  0  0  0
 23 25  1  0  0  0  0
 24 26  1  0  0  0  0
 25 27  1  0  0  0  0
 26 28  1  0  0  0  0
 27 29  1  0  0  0  0
 28 30  1  0  0  0  0
 29 31  3  0  0  0  0
 30 32  3  0  0  0  0
M  END
>  <CdId>
134

>  <Mol Weight>
448.5922

>  <Formula>
C26H40O6

>  <Click_ID>
CLK002F05 __  __  __

$$$$
CLK003B06 __  __  __
 OpenBabel03171413512D

 24 26  0  0  0  0  0  0  0  0999 V2000
   -0.7955    0.9173    0.0000 C   0  0  0  0  0  0  0  0  0  0  0  0
   -0.2589    1.5225    0.0000 C   0  0  0  0  0  0  0  0  0  0  0  0
   -1.5987    1.0011    0.0000 N   0  0  0  0  0  0  0  0  0  0  0  0
   -0.6205    0.1294    0.0000 N   0  0  0  0  0  0  0  0  0  0  0  0
    0.5367    1.3588    0.0000 C   0  0  0  0  0  0  0  0  0  0  0  0
   -0.5519    2.3980    0.0000 C   0  0  0  0  0  0  0  0  0  0  0  0
   -1.9260    0.2550    0.0000 C   0  0  0  0  0  0  0  0  0  0  0  0
   -1.3209   -0.2817    0.0000 C   0  0  0  0  0  0  0  0  0  0  0  0
    0.7993    0.5824    0.0000 C   0  0  0  0  0  0  0  0  0  0  0  0
   -0.8412    3.2773    0.0000 N   0  0  0  0  0  0  0  0  0  0  0  0
   -2.6987   -0.0076    0.0000 C   0  0  0  0  0  0  0  0  0  0  0  0
   -1.4768   -1.0849    0.0000 C   0  0  0  0  0  0  0  0  0  0  0  0
    1.6063    0.4111    0.0000 C   0  0  0  0  0  0  0  0  0  0  0  0
    0.2474   -0.0457    0.0000 C   0  0  0  0  0  0  0  0  0  0  0  0
   -2.8547   -0.8032    0.0000 C   0  0  0  0  0  0  0  0  0  0  0  0
   -2.2571   -1.3398    0.0000 C   0  0  0  0  0  0  0  0  0  0  0  0
    1.8689   -0.3769    0.0000 C   0  0  0  0  0  0  0  0  0  0  0  0
    0.5101   -0.8298    0.0000 C   0  0  0  0  0  0  0  0  0  0  0  0
   -3.6427   -1.0696    0.0000 C   0  0  0  0  0  0  0  0  0  0  0  0
    1.3246   -0.9972    0.0000 C   0  0  0  0  0  0  0  0  0  0  0  0
    2.6834   -0.5405    0.0000 O   0  0  0  0  0  0  0  0  0  0  0  0
    2.9423   -1.3284    0.0000 C   0  0  0  0  0  0  0  0  0  0  0  0
    3.7568   -1.4921    0.0000 C   0  0  0  0  0  0  0  0  0  0  0  0
    4.5676   -1.6595    0.0000 C   0  0  0  0  0  0  0  0  0  0  0  0
  1  2  1  0  0  0  0
  1  3  1  0  0  0  0
  1  4  2  0  0  0  0
  2  5  2  0  0  0  0
  2  6  1  0  0  0  0
  3  7  1  0  0  0  0
  4  8  1  0  0  0  0
  5  9  1  0  0  0  0
  6 10  3  0  0  0  0
  7 11  1  0  0  0  0
  7  8  2  0  0  0  0
  8 12  1  0  0  0  0
  9 13  2  0  0  0  0
  9 14  1  0  0  0  0
 11 15  2  0  0  0  0
 12 16  2  0  0  0  0
 13 17  1  0  0  0  0
 14 18  2  0  0  0  0
 15 19  1  0  0  0  0
 15 16  1  0  0  0  0
 17 20  2  0  0  0  0
 17 21  1  0  0  0  0
 18 20  1  0  0  0  0
 21 22  1  0  0  0  0
 22 23  1  0  0  0  0
 23 24  3  0  0  0  0
M  END
>  <CdId>
175

>  <Mol Weight>
313.3526

>  <Formula>
C20H15N3O

>  <Click_ID>
CLK003B06 __  __  __

$$$$
CLK003D03 __  __  __
 OpenBabel03171413512D

 19 19  0  0  0  0  0  0  0  0999 V2000
    1.6879   -0.4676    0.0000 C   0  0  0  0  0  0  0  0  0  0  0  0
    1.6879    0.3612    0.0000 N   0  0  0  0  0  0  0  0  0  0  0  0
    0.9733   -0.8783    0.0000 C   0  0  0  0  0  0  0  0  0  0  0  0
    2.4065   -0.8783    0.0000 C   0  0  0  0  0  0  0  0  0  0  0  0
    0.9733    0.7755    0.0000 C   0  0  0  0  0  0  0  0  0  0  0  0
    0.9733   -1.7070    0.0000 C   0  0  0  0  0  0  0  0  0  0  0  0
    2.4065   -1.7070    0.0000 C   0  0  0  0  0  0  0  0  0  0  0  0
    0.2547    0.3688    0.0000 C   0  0  0  0  0  0  0  0  0  0  0  0
    0.9733    1.6005    0.0000 O   0  0  0  0  0  0  0  0  0  0  0  0
    1.6879   -2.1213    0.0000 C   0  0  0  0  0  0  0  0  0  0  0  0
   -0.4524    0.7870    0.0000 C   0  0  0  0  0  0  0  0  0  0  0  0
   -0.4486    1.6120    0.0000 C   0  0  0  0  0  0  0  0  0  0  0  0
   -1.1595    2.0225    0.0000 C   0  0  0  0  0  0  0  0  0  0  0  0
   -1.8742    1.6157    0.0000 C   0  0  0  0  0  0  0  0  0  0  0  0
   -1.8742    0.7907    0.0000 C   0  0  0  0  0  0  0  0  0  0  0  0
   -2.5890    0.3801    0.0000 C   0  0  0  0  0  0  0  0  0  0  0  0
   -2.5890   -0.4447    0.0000 C   0  0  0  0  0  0  0  0  0  0  0  0
   -1.8742   -0.8516    0.0000 C   0  0  0  0  0  0  0  0  0  0  0  0
   -1.1595   -1.2621    0.0000 C   0  0  0  0  0  0  0  0  0  0  0  0
  1  2  1  0  0  0  0
  1  3  1  0  0  0  0
  1  4  2  0  0  0  0
  2  5  1  0  0  0  0
  3  6  2  0  0  0  0
  4  7  1  0  0  0  0
  5  8  1  0  0  0  0
  5  9  2  0  0  0  0
  6 10  1  0  0  0  0
  7 10  2  0  0  0  0
  8 11  1  0  0  0  0
 11 12  1  0  0  0  0
 12 13  1  0  0  0  0
 13 14  1  0  0  0  0
 14 15  1  0  0  0  0
 15 16  1  0  0  0  0
 16 17  1  0  0  0  0
 17 18  1  0  0  0  0
 18 19  3  0  0  0  0
M  END
>  <CdId>
192

>  <Mol Weight>
257.3706

>  <Formula>
C17H23NO

>  <Click_ID>
CLK003D03 __  __  __

$$$$
CLK003D07 __  __  __
 OpenBabel03171413512D

 16 17  0  0  0  0  0  0  0  0999 V2000
   -0.7328   -0.3353    0.0000 C   0  0  0  0  0  0  0  0  0  0  0  0
   -0.7328    0.4834    0.0000 C   0  0  0  0  0  0  0  0  0  0  0  0
   -0.0156   -0.7407    0.0000 N   0  0  0  0  0  0  0  0  0  0  0  0
   -1.4579   -0.7407    0.0000 C   0  0  0  0  0  0  0  0  0  0  0  0
   -0.0156    0.9044    0.0000 C   0  0  0  0  0  0  0  0  0  0  0  0
   -1.4579    0.9044    0.0000 C   0  0  0  0  0  0  0  0  0  0  0  0
    0.7251   -0.3353    0.0000 C   0  0  0  0  0  0  0  0  0  0  0  0
   -2.1362   -0.3353    0.0000 C   0  0  0  0  0  0  0  0  0  0  0  0
    0.7251    0.4834    0.0000 N   0  0  0  0  0  0  0  0  0  0  0  0
    0.0468    1.7464    0.0000 C   0  0  0  0  0  0  0  0  0  0  0  0
   -2.1362    0.4834    0.0000 C   0  0  0  0  0  0  0  0  0  0  0  0
    1.4502   -0.7875    0.0000 S   0  0  0  0  0  0  0  0  0  0  0  0
   -2.8457    0.9044    0.0000 C   0  0  0  0  0  0  0  0  0  0  0  0
    2.1597   -0.4210    0.0000 C   0  0  0  0  0  0  0  0  0  0  0  0
    2.8380   -0.8732    0.0000 C   0  0  0  0  0  0  0  0  0  0  0  0
    3.5631   -1.3566    0.0000 C   0  0  0  0  0  0  0  0  0  0  0  0
  1  2  2  0  0  0  0
  1  3  1  0  0  0  0
  1  4  1  0  0  0  0
  2  5  1  0  0  0  0
  2  6  1  0  0  0  0
  3  7  2  0  0  0  0
  4  8  2  0  0  0  0
  5  9  2  0  0  0  0
  5 10  1  0  0  0  0
  6 11  2  0  0  0  0
  7 12  1  0  0  0  0
  7  9  1  0  0  0  0
  8 11  1  0  0  0  0
 11 13  1  0  0  0  0
 12 14  1  0  0  0  0
 14 15  1  0  0  0  0
 15 16  3  0  0  0  0
M  END
>  <CdId>
196

>  <Mol Weight>
228.313

>  <Formula>
C13H12N2S

>  <Click_ID>
CLK003D07 __  __  __

$$$$
CLK004D09 __  __  __
 OpenBabel03171413512D

 17 18  0  0  0  0  0  0  0  0999 V2000
    0.5734    0.0622    0.0000 C   0  0  0  0  0  0  0  0  0  0  0  0
    0.3144    0.8429    0.0000 C   0  0  0  0  0  0  0  0  0  0  0  0
   -0.1105   -0.4318    0.0000 C   0  0  0  0  0  0  0  0  0  0  0  0
    1.3784   -0.1243    0.0000 C   0  0  0  0  0  0  0  0  0  0  0  0
   -0.5112    0.8532    0.0000 N   0  0  0  0  0  0  0  0  0  0  0  0
    0.8740    1.4543    0.0000 C   0  0  0  0  0  0  0  0  0  0  0  0
   -0.7669    0.0622    0.0000 C   0  0  0  0  0  0  0  0  0  0  0  0
   -0.1105   -1.2644    0.0000 C   0  0  0  0  0  0  0  0  0  0  0  0
    1.9276    0.4906    0.0000 C   0  0  0  0  0  0  0  0  0  0  0  0
   -1.0018    1.5304    0.0000 C   0  0  0  0  0  0  0  0  0  0  0  0
    1.6754    1.2782    0.0000 C   0  0  0  0  0  0  0  0  0  0  0  0
   -0.8256   -1.6754    0.0000 C   0  0  0  0  0  0  0  0  0  0  0  0
   -0.6495    2.2627    0.0000 C   0  0  0  0  0  0  0  0  0  0  0  0
   -0.8256   -2.5045    0.0000 N   0  3  0  0  0  0  0  0  0  0  0  0
   -0.2764    2.9985    0.0000 C   0  0  0  0  0  0  0  0  0  0  0  0
   -0.1105   -2.9156    0.0000 O   0  0  0  0  0  0  0  0  0  0  0  0
   -1.5442   -2.9156    0.0000 O   0  5  0  0  0  0  0  0  0  0  0  0
  1  2  1  0  0  0  0
  1  3  1  0  0  0  0
  1  4  2  0  0  0  0
  2  5  1  0  0  0  0
  2  6  2  0  0  0  0
  3  7  2  0  0  0  0
  3  8  1  0  0  0  0
  4  9  1  0  0  0  0
  5 10  1  0  0  0  0
  5  7  1  0  0  0  0
  6 11  1  0  0  0  0
  8 12  2  0  0  0  0
  9 11  2  0  0  0  0
 10 13  1  0  0  0  0
 12 14  1  0  0  0  0
 13 15  3  0  0  0  0
 14 16  2  0  0  0  0
 14 17  1  0  0  0  0
M  CHG  2  14   1  17  -1
M  END
>  <CdId>
278

>  <Mol Weight>
226.2307

>  <Formula>
C13H10N2O2

>  <Click_ID>
CLK004D09 __  __  __

$$$$
CLK005A06 __  __  __
 OpenBabel03171413512D

 25 27  0  0  0  0  0  0  0  0999 V2000
   -1.5777    0.2433    0.0000 C   0  0  0  0  0  0  0  0  0  0  0  0
   -0.7755    0.2509    0.0000 C   0  0  0  0  0  0  0  0  0  0  0  0
   -2.0567    0.8896    0.0000 N   0  0  0  0  0  0  0  0  0  0  0  0
   -2.0567   -0.4106    0.0000 N   0  0  0  0  0  0  0  0  0  0  0  0
   -0.3725   -0.4600    0.0000 C   0  0  0  0  0  0  0  0  0  0  0  0
   -0.3194    1.0379    0.0000 C   0  0  0  0  0  0  0  0  0  0  0  0
   -2.8285    0.6425    0.0000 C   0  0  0  0  0  0  0  0  0  0  0  0
   -2.8285   -0.1596    0.0000 C   0  0  0  0  0  0  0  0  0  0  0  0
    0.4524   -0.4600    0.0000 C   0  0  0  0  0  0  0  0  0  0  0  0
    0.1444    1.8362    0.0000 N   0  0  0  0  0  0  0  0  0  0  0  0
   -3.5317    1.0531    0.0000 C   0  0  0  0  0  0  0  0  0  0  0  0
   -3.5317   -0.5702    0.0000 C   0  0  0  0  0  0  0  0  0  0  0  0
    0.8668    0.2585    0.0000 C   0  0  0  0  0  0  0  0  0  0  0  0
    0.8668   -1.1747    0.0000 C   0  0  0  0  0  0  0  0  0  0  0  0
   -4.2313    0.6425    0.0000 C   0  0  0  0  0  0  0  0  0  0  0  0
   -4.2313   -0.1596    0.0000 C   0  0  0  0  0  0  0  0  0  0  0  0
    1.6918    0.2509    0.0000 C   0  0  0  0  0  0  0  0  0  0  0  0
    1.6918   -1.1823    0.0000 C   0  0  0  0  0  0  0  0  0  0  0  0
    2.1061   -0.4638    0.0000 C   0  0  0  0  0  0  0  0  0  0  0  0
    2.1176    0.9694    0.0000 O   0  0  0  0  0  0  0  0  0  0  0  0
    2.9350   -0.4638    0.0000 O   0  0  0  0  0  0  0  0  0  0  0  0
    2.9426    0.9694    0.0000 C   0  0  0  0  0  0  0  0  0  0  0  0
    3.3455   -1.1823    0.0000 C   0  0  0  0  0  0  0  0  0  0  0  0
    4.1743   -1.1823    0.0000 C   0  0  0  0  0  0  0  0  0  0  0  0
    4.9993   -1.1823    0.0000 C   0  0  0  0  0  0  0  0  0  0  0  0
  1  2  1  0  0  0  0
  1  3  1  0  0  0  0
  1  4  2  0  0  0  0
  2  5  2  0  0  0  0
  2  6  1  0  0  0  0
  3  7  1  0  0  0  0
  4  8  1  0  0  0  0
  5  9  1  0  0  0  0
  6 10  3  0  0  0  0
  7 11  1  0  0  0  0
  7  8  2  0  0  0  0
  8 12  1  0  0  0  0
  9 13  2  0  0  0  0
  9 14  1  0  0  0  0
 11 15  2  0  0  0  0
 12 16  2  0  0  0  0
 13 17  1  0  0  0  0
 14 18  2  0  0  0  0
 15 16  1  0  0  0  0
 17 19  2  0  0  0  0
 17 20  1  0  0  0  0
 18 19  1  0  0  0  0
 19 21  1  0  0  0  0
 20 22  1  0  0  0  0
 21 23  1  0  0  0  0
 23 24  1  0  0  0  0
 24 25  3  0  0  0  0
M  END
>  <CdId>
325

>  <Mol Weight>
329.352

>  <Formula>
C20H15N3O2

>  <Click_ID>
CLK005A06 __  __  __

$$$$
CLK005C05 __  __  __
 OpenBabel03171413512D

 23 25  0  0  0  0  0  0  0  0999 V2000
   -0.9654    0.8811    0.0000 C   0  0  0  0  0  0  0  0  0  0  0  0
   -0.4253    1.4902    0.0000 C   0  0  0  0  0  0  0  0  0  0  0  0
   -1.7698    0.9538    0.0000 N   0  0  0  0  0  0  0  0  0  0  0  0
   -0.7853    0.0804    0.0000 N   0  0  0  0  0  0  0  0  0  0  0  0
    0.3830    1.3254    0.0000 C   0  0  0  0  0  0  0  0  0  0  0  0
   -0.7163    2.3673    0.0000 C   0  0  0  0  0  0  0  0  0  0  0  0
   -2.0954    0.2031    0.0000 C   0  0  0  0  0  0  0  0  0  0  0  0
   -1.4825   -0.3370    0.0000 C   0  0  0  0  0  0  0  0  0  0  0  0
    0.6474    0.5325    0.0000 C   0  0  0  0  0  0  0  0  0  0  0  0
   -1.0075    3.2561    0.0000 N   0  0  0  0  0  0  0  0  0  0  0  0
   -2.8807   -0.0498    0.0000 C   0  0  0  0  0  0  0  0  0  0  0  0
   -1.6473   -1.1339    0.0000 C   0  0  0  0  0  0  0  0  0  0  0  0
    1.4595    0.3677    0.0000 C   0  0  0  0  0  0  0  0  0  0  0  0
    0.0920   -0.0920    0.0000 C   0  0  0  0  0  0  0  0  0  0  0  0
   -3.0339   -0.8543    0.0000 C   0  0  0  0  0  0  0  0  0  0  0  0
   -2.4287   -1.3982    0.0000 C   0  0  0  0  0  0  0  0  0  0  0  0
    1.7238   -0.4253    0.0000 C   0  0  0  0  0  0  0  0  0  0  0  0
    0.3524   -0.8811    0.0000 C   0  0  0  0  0  0  0  0  0  0  0  0
    1.1722   -1.0496    0.0000 C   0  0  0  0  0  0  0  0  0  0  0  0
    2.5436   -0.5899    0.0000 O   0  0  0  0  0  0  0  0  0  0  0  0
    2.8079   -1.3829    0.0000 C   0  0  0  0  0  0  0  0  0  0  0  0
    3.6162   -1.5476    0.0000 C   0  0  0  0  0  0  0  0  0  0  0  0
    4.4360   -1.7161    0.0000 C   0  0  0  0  0  0  0  0  0  0  0  0
  1  2  1  0  0  0  0
  1  3  1  0  0  0  0
  1  4  2  0  0  0  0
  2  5  2  0  0  0  0
  2  6  1  0  0  0  0
  3  7  1  0  0  0  0
  4  8  1  0  0  0  0
  5  9  1  0  0  0  0
  6 10  3  0  0  0  0
  7 11  1  0  0  0  0
  7  8  2  0  0  0  0
  8 12  1  0  0  0  0
  9 13  2  0  0  0  0
  9 14  1  0  0  0  0
 11 15  2  0  0  0  0
 12 16  2  0  0  0  0
 13 17  1  0  0  0  0
 14 18  2  0  0  0  0
 15 16  1  0  0  0  0
 17 19  2  0  0  0  0
 17 20  1  0  0  0  0
 18 19  1  0  0  0  0
 20 21  1  0  0  0  0
 21 22  1  0  0  0  0
 22 23  3  0  0  0  0
M  END
>  <CdId>
344

>  <Mol Weight>
299.326

>  <Formula>
C19H13N3O

>  <Click_ID>
CLK005C05 __  __  __

$$$$
CLK005C07 __  __  __
 OpenBabel03171413512D

 26 28  0  0  0  0  0  0  0  0999 V2000
   -1.2188    1.0094    0.0000 C   0  0  0  0  0  0  0  0  0  0  0  0
   -0.8227    1.7217    0.0000 C   0  0  0  0  0  0  0  0  0  0  0  0
   -2.0264    0.9066    0.0000 N   0  0  0  0  0  0  0  0  0  0  0  0
   -0.8761    0.2704    0.0000 N   0  0  0  0  0  0  0  0  0  0  0  0
   -0.0190    1.7369    0.0000 C   0  0  0  0  0  0  0  0  0  0  0  0
   -1.3027    2.5101    0.0000 C   0  0  0  0  0  0  0  0  0  0  0  0
   -2.1788    0.1105    0.0000 C   0  0  0  0  0  0  0  0  0  0  0  0
   -1.4665   -0.2819    0.0000 C   0  0  0  0  0  0  0  0  0  0  0  0
    0.4114    1.0208    0.0000 C   0  0  0  0  0  0  0  0  0  0  0  0
   -1.7864    3.2986    0.0000 N   0  0  0  0  0  0  0  0  0  0  0  0
   -2.8758   -0.3085    0.0000 C   0  0  0  0  0  0  0  0  0  0  0  0
   -1.4550   -1.0970    0.0000 C   0  0  0  0  0  0  0  0  0  0  0  0
    1.2380    1.0360    0.0000 C   0  0  0  0  0  0  0  0  0  0  0  0
    0.0076    0.3009    0.0000 C   0  0  0  0  0  0  0  0  0  0  0  0
   -2.8644   -1.1236    0.0000 C   0  0  0  0  0  0  0  0  0  0  0  0
   -2.1598   -1.5084    0.0000 C   0  0  0  0  0  0  0  0  0  0  0  0
    1.6646    0.3276    0.0000 C   0  0  0  0  0  0  0  0  0  0  0  0
    0.4381   -0.4152    0.0000 C   0  0  0  0  0  0  0  0  0  0  0  0
    1.2646   -0.4000    0.0000 C   0  0  0  0  0  0  0  0  0  0  0  0
    2.4949    0.3390    0.0000 O   0  0  0  0  0  0  0  0  0  0  0  0
    1.6950   -1.1084    0.0000 O   0  0  0  0  0  0  0  0  0  0  0  0
    2.9215   -0.3619    0.0000 C   0  0  0  0  0  0  0  0  0  0  0  0
    1.2951   -1.8360    0.0000 C   0  0  0  0  0  0  0  0  0  0  0  0
    3.7520   -0.3504    0.0000 C   0  0  0  0  0  0  0  0  0  0  0  0
    1.7179   -2.5444    0.0000 C   0  0  0  0  0  0  0  0  0  0  0  0
    2.1445   -3.2491    0.0000 C   0  0  0  0  0  0  0  0  0  0  0  0
  1  2  1  0  0  0  0
  1  3  1  0  0  0  0
  1  4  2  0  0  0  0
  2  5  2  0  0  0  0
  2  6  1  0  0  0  0
  3  7  1  0  0  0  0
  4  8  1  0  0  0  0
  5  9  1  0  0  0  0
  6 10  3  0  0  0  0
  7 11  1  0  0  0  0
  7  8  2  0  0  0  0
  8 12  1  0  0  0  0
  9 13  2  0  0  0  0
  9 14  1  0  0  0  0
 11 15  2  0  0  0  0
 12 16  2  0  0  0  0
 13 17  1  0  0  0  0
 14 18  2  0  0  0  0
 15 16  1  0  0  0  0
 17 19  2  0  0  0  0
 17 20  1  0  0  0  0
 18 19  1  0  0  0  0
 19 21  1  0  0  0  0
 20 22  1  0  0  0  0
 21 23  1  0  0  0  0
 22 24  1  0  0  0  0
 23 25  1  0  0  0  0
 25 26  3  0  0  0  0
M  END
>  <CdId>
346

>  <Mol Weight>
343.3786

>  <Formula>
C21H17N3O2

>  <Click_ID>
CLK005C07 __  __  __

$$$$
CLK005E07 __  __  __
 OpenBabel03171413512D

 25 27  0  0  0  0  0  0  0  0999 V2000
   -0.8421    0.7562    0.0000 C   0  0  0  0  0  0  0  0  0  0  0  0
   -0.1203    1.1722    0.0000 C   0  0  0  0  0  0  0  0  0  0  0  0
   -1.6396    1.0071    0.0000 N   0  0  0  0  0  0  0  0  0  0  0  0
   -0.8353   -0.0653    0.0000 N   0  0  0  0  0  0  0  0  0  0  0  0
    0.5912    0.7666    0.0000 C   0  0  0  0  0  0  0  0  0  0  0  0
   -0.1237    2.0006    0.0000 C   0  0  0  0  0  0  0  0  0  0  0  0
   -2.1140    0.3437    0.0000 C   0  0  0  0  0  0  0  0  0  0  0  0
   -1.6190   -0.3300    0.0000 C   0  0  0  0  0  0  0  0  0  0  0  0
    0.5981   -0.0550    0.0000 C   0  0  0  0  0  0  0  0  0  0  0  0
   -0.1341    2.8290    0.0000 N   0  0  0  0  0  0  0  0  0  0  0  0
   -2.9355    0.2578    0.0000 C   0  0  0  0  0  0  0  0  0  0  0  0
   -1.9559   -1.0759    0.0000 C   0  0  0  0  0  0  0  0  0  0  0  0
    1.3097   -0.4640    0.0000 C   0  0  0  0  0  0  0  0  0  0  0  0
   -0.1203   -0.4640    0.0000 C   0  0  0  0  0  0  0  0  0  0  0  0
   -3.2656   -0.5018    0.0000 C   0  0  0  0  0  0  0  0  0  0  0  0
   -2.7774   -1.1722    0.0000 C   0  0  0  0  0  0  0  0  0  0  0  0
    1.3097   -1.2890    0.0000 C   0  0  0  0  0  0  0  0  0  0  0  0
    2.0109   -0.0550    0.0000 O   0  0  0  0  0  0  0  0  0  0  0  0
   -0.1203   -1.2890    0.0000 C   0  0  0  0  0  0  0  0  0  0  0  0
    0.5981   -1.6980    0.0000 C   0  0  0  0  0  0  0  0  0  0  0  0
    2.0212   -1.6947    0.0000 O   0  0  0  0  0  0  0  0  0  0  0  0
    2.0075    0.7666    0.0000 C   0  0  0  0  0  0  0  0  0  0  0  0
    2.0212   -2.5162    0.0000 C   0  0  0  0  0  0  0  0  0  0  0  0
    2.7155    1.1825    0.0000 C   0  0  0  0  0  0  0  0  0  0  0  0
    3.4306    1.5916    0.0000 C   0  0  0  0  0  0  0  0  0  0  0  0
  1  2  1  0  0  0  0
  1  3  1  0  0  0  0
  1  4  2  0  0  0  0
  2  5  2  0  0  0  0
  2  6  1  0  0  0  0
  3  7  1  0  0  0  0
  4  8  1  0  0  0  0
  5  9  1  0  0  0  0
  6 10  3  0  0  0  0
  7 11  1  0  0  0  0
  7  8  2  0  0  0  0
  8 12  1  0  0  0  0
  9 13  2  0  0  0  0
  9 14  1  0  0  0  0
 11 15  2  0  0  0  0
 12 16  2  0  0  0  0
 13 17  1  0  0  0  0
 13 18  1  0  0  0  0
 14 19  2  0  0  0  0
 15 16  1  0  0  0  0
 17 20  2  0  0  0  0
 17 21  1  0  0  0  0
 18 22  1  0  0  0  0
 19 20  1  0  0  0  0
 21 23  1  0  0  0  0
 22 24  1  0  0  0  0
 24 25  3  0  0  0  0
M  END
>  <CdId>
366

>  <Mol Weight>
329.352

>  <Formula>
C20H15N3O2

>  <Click_ID>
CLK005E07 __  __  __

$$$$
CLK005F04 __  __  __
 OpenBabel03171413512D

 16 17  0  0  0  0  0  0  0  0999 V2000
   -0.9794   -0.1033    0.0000 C   0  0  0  0  0  0  0  0  0  0  0  0
   -0.9794    0.7314    0.0000 C   0  0  0  0  0  0  0  0  0  0  0  0
   -0.2645   -0.5145    0.0000 N   0  0  0  0  0  0  0  0  0  0  0  0
   -1.6984   -0.5145    0.0000 C   0  0  0  0  0  0  0  0  0  0  0  0
   -0.2645    1.1385    0.0000 C   0  0  0  0  0  0  0  0  0  0  0  0
   -1.6984    1.1426    0.0000 C   0  0  0  0  0  0  0  0  0  0  0  0
    0.4463   -0.1033    0.0000 C   0  0  0  0  0  0  0  0  0  0  0  0
   -2.4091   -0.1033    0.0000 C   0  0  0  0  0  0  0  0  0  0  0  0
    0.4463    0.7232    0.0000 C   0  0  0  0  0  0  0  0  0  0  0  0
   -2.4091    0.7314    0.0000 C   0  0  0  0  0  0  0  0  0  0  0  0
    1.1653   -0.5227    0.0000 S   0  0  0  0  0  0  0  0  0  0  0  0
    1.1612    1.1385    0.0000 C   0  0  0  0  0  0  0  0  0  0  0  0
    1.1612   -1.3533    0.0000 C   0  0  0  0  0  0  0  0  0  0  0  0
    1.8678    1.5537    0.0000 N   0  0  0  0  0  0  0  0  0  0  0  0
    1.8678   -1.7666    0.0000 C   0  0  0  0  0  0  0  0  0  0  0  0
    2.5806   -2.1819    0.0000 C   0  0  0  0  0  0  0  0  0  0  0  0
  1  2  1  0  0  0  0
  1  3  2  0  0  0  0
  1  4  1  0  0  0  0
  2  5  2  0  0  0  0
  2  6  1  0  0  0  0
  3  7  1  0  0  0  0
  4  8  1  0  0  0  0
  5  9  1  0  0  0  0
  6 10  1  0  0  0  0
  7 11  1  0  0  0  0
  7  9  2  0  0  0  0
  8 10  1  0  0  0  0
  9 12  1  0  0  0  0
 11 13  1  0  0  0  0
 12 14  3  0  0  0  0
 13 15  1  0  0  0  0
 15 16  3  0  0  0  0
M  END
>  <CdId>
373

>  <Mol Weight>
228.313

>  <Formula>
C13H12N2S

>  <Click_ID>
CLK005F04 __  __  __

$$$$
CLK005H02 __  __  __
 OpenBabel03171413512D

 28 30  0  0  0  0  0  0  0  0999 V2000
    1.1469    0.2773    0.0000 C   0  0  0  0  0  0  0  0  0  0  0  0
    0.4279    0.6847    0.0000 C   0  0  3  0  0  0  0  0  0  0  0  0
    1.8624    0.6916    0.0000 C   0  0  0  0  0  0  0  0  0  0  0  0
    1.1469   -0.5409    0.0000 C   0  0  0  0  0  0  0  0  0  0  0  0
   -0.2841    0.2773    0.0000 C   0  0  0  0  0  0  0  0  0  0  0  0
    0.4279    1.5097    0.0000 C   0  0  0  0  0  0  0  0  0  0  0  0
    1.8555    1.5166    0.0000 O   0  0  0  0  0  0  0  0  0  0  0  0
    2.5744    0.2808    0.0000 C   0  0  0  0  0  0  0  0  0  0  0  0
    1.8692   -0.9585    0.0000 C   0  0  0  0  0  0  0  0  0  0  0  0
    0.4347   -0.9654    0.0000 O   0  0  0  0  0  0  0  0  0  0  0  0
   -0.9996    0.6916    0.0000 C   0  0  0  0  0  0  0  0  0  0  0  0
   -0.2841   -0.5409    0.0000 C   0  0  0  0  0  0  0  0  0  0  0  0
    1.1469    1.9274    0.0000 C   0  0  0  0  0  0  0  0  0  0  0  0
   -0.2841    1.9274    0.0000 C   0  0  0  0  0  0  0  0  0  0  0  0
    2.5846   -0.5375    0.0000 C   0  0  0  0  0  0  0  0  0  0  0  0
   -1.7048    0.2808    0.0000 C   0  0  0  0  0  0  0  0  0  0  0  0
   -0.9996   -0.9517    0.0000 C   0  0  0  0  0  0  0  0  0  0  0  0
    1.1469    2.7490    0.0000 N   0  0  0  0  0  0  0  0  0  0  0  0
   -0.9996    2.3382    0.0000 N   0  0  0  0  0  0  0  0  0  0  0  0
    2.5846   -1.3625    0.0000 C   0  0  0  0  0  0  0  0  0  0  0  0
    3.2932   -0.1198    0.0000 C   0  0  0  0  0  0  0  0  0  0  0  0
   -1.7117   -0.5546    0.0000 C   0  0  0  0  0  0  0  0  0  0  0  0
   -2.4134    0.6916    0.0000 Cl  0  0  0  0  0  0  0  0  0  0  0  0
   -0.9996   -1.7699    0.0000 Cl  0  0  0  0  0  0  0  0  0  0  0  0
   -2.4271   -0.9654    0.0000 O   0  0  0  0  0  0  0  0  0  0  0  0
   -2.4271   -1.7802    0.0000 C   0  0  0  0  0  0  0  0  0  0  0  0
   -3.1324   -2.1943    0.0000 C   0  0  0  0  0  0  0  0  0  0  0  0
   -3.8411   -2.6018    0.0000 C   0  0  0  0  0  0  0  0  0  0  0  0
  1  2  1  0  0  0  0
  1  3  2  0  0  0  0
  1  4  1  0  0  0  0
  2  5  1  0  0  0  0
  2  6  1  0  0  0  0
  3  7  1  0  0  0  0
  3  8  1  0  0  0  0
  4  9  1  0  0  0  0
  4 10  2  0  0  0  0
  5 11  2  0  0  0  0
  5 12  1  0  0  0  0
  6 13  2  0  0  0  0
  6 14  1  0  0  0  0
  7 13  1  0  0  0  0
  8 15  1  0  0  0  0
  9 15  1  0  0  0  0
 11 16  1  0  0  0  0
 12 17  2  0  0  0  0
 13 18  1  0  0  0  0
 14 19  3  0  0  0  0
 15 20  1  0  0  0  0
 15 21  1  0  0  0  0
 16 22  2  0  0  0  0
 16 23  1  0  0  0  0
 17 24  1  0  0  0  0
 17 22  1  0  0  0  0
 22 25  1  0  0  0  0
 25 26  1  0  0  0  0
 26 27  1  0  0  0  0
 27 28  3  0  0  0  0
M  END
>  <CdId>
391

>  <Mol Weight>
417.285

>  <Formula>
C21H18Cl2N2O3

>  <Click_ID>
CLK005H02 __  __  __

$$$$
CLK006E10 __  __  __
 OpenBabel03171413512D

 23 24  0  0  0  0  0  0  0  0999 V2000
   -1.3361   -1.4718    0.0000 N   0  0  0  0  0  0  0  0  0  0  0  0
   -0.6681   -0.9882    0.0000 C   0  0  0  0  0  0  0  0  0  0  0  0
   -1.0856   -2.2651    0.0000 C   0  0  0  0  0  0  0  0  0  0  0  0
   -2.1294   -1.2178    0.0000 C   0  0  0  0  0  0  0  0  0  0  0  0
    0.0034   -1.4718    0.0000 C   0  0  0  0  0  0  0  0  0  0  0  0
   -0.6681   -0.1531    0.0000 O   0  0  0  0  0  0  0  0  0  0  0  0
   -0.2540   -2.2651    0.0000 N   0  0  0  0  0  0  0  0  0  0  0  0
   -1.5727   -2.9402    0.0000 O   0  0  0  0  0  0  0  0  0  0  0  0
   -2.3035   -0.4071    0.0000 C   0  0  0  0  0  0  0  0  0  0  0  0
    0.7968   -1.2178    0.0000 C   0  0  0  0  0  0  0  0  0  0  0  0
   -1.6875    0.1496    0.0000 O   0  0  0  0  0  0  0  0  0  0  0  0
   -3.1002   -0.1461    0.0000 O   0  0  0  0  0  0  0  0  0  0  0  0
    0.9742   -0.4175    0.0000 C   0  0  0  0  0  0  0  0  0  0  0  0
   -1.8615    0.9638    0.0000 C   0  0  0  0  0  0  0  0  0  0  0  0
    1.7536   -0.1670    0.0000 C   0  0  0  0  0  0  0  0  0  0  0  0
    0.3654    0.1427    0.0000 C   0  0  0  0  0  0  0  0  0  0  0  0
    1.9415    0.6472    0.0000 C   0  0  0  0  0  0  0  0  0  0  0  0
    0.5463    0.9430    0.0000 C   0  0  0  0  0  0  0  0  0  0  0  0
    1.3291    1.1865    0.0000 C   0  0  0  0  0  0  0  0  0  0  0  0
    1.5136    1.9833    0.0000 O   0  0  0  0  0  0  0  0  0  0  0  0
    2.2999    2.2338    0.0000 C   0  0  0  0  0  0  0  0  0  0  0  0
    2.4844    3.0376    0.0000 C   0  0  0  0  0  0  0  0  0  0  0  0
    2.6653    3.8344    0.0000 C   0  0  0  0  0  0  0  0  0  0  0  0
  1  2  1  0  0  0  0
  1  3  1  0  0  0  0
  1  4  1  0  0  0  0
  2  5  1  0  0  0  0
  2  6  2  0  0  0  0
  3  7  1  0  0  0  0
  3  8  2  0  0  0  0
  4  9  1  0  0  0  0
  5 10  2  0  0  0  0
  5  7  1  0  0  0  0
  9 11  1  0  0  0  0
  9 12  2  0  0  0  0
 10 13  1  0  0  0  0
 11 14  1  0  0  0  0
 13 15  1  0  0  0  0
 13 16  2  0  0  0  0
 15 17  2  0  0  0  0
 16 18  1  0  0  0  0
 17 19  1  0  0  0  0
 18 19  2  0  0  0  0
 19 20  1  0  0  0  0
 20 21  1  0  0  0  0
 21 22  1  0  0  0  0
 22 23  3  0  0  0  0
M  END
>  <CdId>
449

>  <Mol Weight>
314.2928

>  <Formula>
C16H14N2O5

>  <Click_ID>
CLK006E10 __  __  __

$$$$
CLK006G02 __  __  __
 OpenBabel03171413512D

 32 35  0  0  0  0  0  0  0  0999 V2000
   -0.2176   -1.1986    0.0000 C   0  0  0  0  0  0  0  0  0  0  0  0
   -0.3558   -0.4110    0.0000 C   0  0  0  0  0  0  0  0  0  0  0  0
   -0.9325   -1.5750    0.0000 N   0  0  0  0  0  0  0  0  0  0  0  0
    0.5319   -1.5888    0.0000 N   0  0  0  0  0  0  0  0  0  0  0  0
    0.1312    0.0760    0.0000 C   0  0  3  0  0  0  0  0  0  0  0  0
   -1.1536   -0.2971    0.0000 C   0  0  0  0  0  0  0  0  0  0  0  0
   -1.0534   -2.3901    0.0000 C   0  0  0  0  0  0  0  0  0  0  0  0
   -1.5024   -1.0258    0.0000 N   0  0  0  0  0  0  0  0  0  0  0  0
    1.3090   -1.2261    0.0000 C   0  0  0  0  0  0  0  0  0  0  0  0
    0.1312    0.9049    0.0000 C   0  0  0  0  0  0  0  0  0  0  0  0
    0.9602    0.0898    0.0000 S   0  0  0  0  0  0  0  0  0  0  0  0
   -1.8720    0.1140    0.0000 C   0  0  0  0  0  0  0  0  0  0  0  0
   -1.8202   -2.6941    0.0000 C   0  0  0  0  0  0  0  0  0  0  0  0
   -0.4041   -2.8944    0.0000 C   0  0  0  0  0  0  0  0  0  0  0  0
    1.4507   -0.4248    0.0000 C   0  0  3  0  0  0  0  0  0  0  0  0
    1.9618   -1.7269    0.0000 O   0  0  0  0  0  0  0  0  0  0  0  0
    0.8462    1.3298    0.0000 C   0  0  0  0  0  0  0  0  0  0  0  0
   -0.5907    1.3159    0.0000 C   0  0  0  0  0  0  0  0  0  0  0  0
   -1.9411   -3.5091    0.0000 C   0  0  0  0  0  0  0  0  0  0  0  0
   -0.5180   -3.7163    0.0000 C   0  0  0  0  0  0  0  0  0  0  0  0
    2.2415   -0.1900    0.0000 C   0  0  0  0  0  0  0  0  0  0  0  0
    0.8393    2.1552    0.0000 C   0  0  0  0  0  0  0  0  0  0  0  0
   -0.5941    2.1449    0.0000 C   0  0  0  0  0  0  0  0  0  0  0  0
   -1.2918   -4.0203    0.0000 C   0  0  0  0  0  0  0  0  0  0  0  0
   -2.7044   -3.8165    0.0000 C   0  0  0  0  0  0  0  0  0  0  0  0
    0.1209    2.5559    0.0000 C   0  0  0  0  0  0  0  0  0  0  0  0
    1.5508    2.5697    0.0000 O   0  0  0  0  0  0  0  0  0  0  0  0
    0.1209    3.3814    0.0000 O   0  0  0  0  0  0  0  0  0  0  0  0
    2.2727    2.1552    0.0000 C   0  0  0  0  0  0  0  0  0  0  0  0
    0.8324    3.8096    0.0000 C   0  0  0  0  0  0  0  0  0  0  0  0
    0.8220    4.6351    0.0000 C   0  0  0  0  0  0  0  0  0  0  0  0
    0.8220    5.4606    0.0000 C   0  0  0  0  0  0  0  0  0  0  0  0
  1  2  2  0  0  0  0
  1  3  1  0  0  0  0
  1  4  1  0  0  0  0
  2  5  1  0  0  0  0
  2  6  1  0  0  0  0
  3  7  1  0  0  0  0
  3  8  1  0  0  0  0
  4  9  1  0  0  0  0
  5 10  1  0  0  0  0
  5 11  1  0  0  0  0
  6 12  1  0  0  0  0
  6  8  2  0  0  0  0
  7 13  2  0  0  0  0
  7 14  1  0  0  0  0
  9 15  1  0  0  0  0
  9 16  2  0  0  0  0
 10 17  2  0  0  0  0
 10 18  1  0  0  0  0
 11 15  1  0  0  0  0
 13 19  1  0  0  0  0
 14 20  2  0  0  0  0
 15 21  1  0  0  0  0
 17 22  1  0  0  0  0
 18 23  2  0  0  0  0
 19 24  2  0  0  0  0
 19 25  1  0  0  0  0
 20 24  1  0  0  0  0
 22 26  2  0  0  0  0
 22 27  1  0  0  0  0
 23 26  1  0  0  0  0
 26 28  1  0  0  0  0
 27 29  1  0  0  0  0
 28 30  1  0  0  0  0
 30 31  1  0  0  0  0
 31 32  3  0  0  0  0
M  END
>  <CdId>
461

>  <Mol Weight>
447.549

>  <Formula>
C25H25N3O3S

>  <Click_ID>
CLK006G02 __  __  __

$$$$
CLK007A08 __  __  __
 OpenBabel03171413512D

 24 26  0  0  0  0  0  0  0  0999 V2000
    0.8319   -0.1381    0.0000 C   0  0  3  0  0  0  0  0  0  0  0  0
    0.1208   -0.5523    0.0000 C   0  0  0  0  0  0  0  0  0  0  0  0
    0.8319    0.6869    0.0000 C   0  0  0  0  0  0  0  0  0  0  0  0
    1.5465   -0.5420    0.0000 C   0  0  0  0  0  0  0  0  0  0  0  0
    0.1208   -1.3705    0.0000 C   0  0  0  0  0  0  0  0  0  0  0  0
   -0.5937   -0.1311    0.0000 C   0  0  0  0  0  0  0  0  0  0  0  0
    1.5465    1.0943    0.0000 C   0  0  0  0  0  0  0  0  0  0  0  0
    0.1208    1.0943    0.0000 C   0  0  0  0  0  0  0  0  0  0  0  0
    1.5465   -1.3705    0.0000 C   0  0  0  0  0  0  0  0  0  0  0  0
   -0.5937   -1.7812    0.0000 N   0  0  0  0  0  0  0  0  0  0  0  0
    0.8319   -1.7812    0.0000 N   0  0  0  0  0  0  0  0  0  0  0  0
   -1.2980   -0.5523    0.0000 N   0  0  0  0  0  0  0  0  0  0  0  0
   -0.5937    0.6939    0.0000 O   0  0  0  0  0  0  0  0  0  0  0  0
    1.5465    1.9228    0.0000 C   0  0  0  0  0  0  0  0  0  0  0  0
    0.1070    1.9124    0.0000 C   0  0  0  0  0  0  0  0  0  0  0  0
    2.2577   -1.7812    0.0000 O   0  0  0  0  0  0  0  0  0  0  0  0
   -1.2980   -1.3774    0.0000 C   0  0  0  0  0  0  0  0  0  0  0  0
    0.8285    2.3335    0.0000 C   0  0  0  0  0  0  0  0  0  0  0  0
    2.2577    2.3370    0.0000 Cl  0  0  0  0  0  0  0  0  0  0  0  0
   -2.0194   -1.7917    0.0000 S   0  0  0  0  0  0  0  0  0  0  0  0
    0.8216    3.1620    0.0000 Cl  0  0  0  0  0  0  0  0  0  0  0  0
   -2.7340   -1.3774    0.0000 C   0  0  0  0  0  0  0  0  0  0  0  0
   -2.7340   -0.5523    0.0000 C   0  0  0  0  0  0  0  0  0  0  0  0
   -3.4486   -0.1381    0.0000 C   0  0  0  0  0  0  0  0  0  0  0  0
  1  2  1  0  0  0  0
  1  3  1  0  0  0  0
  1  4  1  0  0  0  0
  2  5  2  0  0  0  0
  2  6  1  0  0  0  0
  3  7  2  0  0  0  0
  3  8  1  0  0  0  0
  4  9  1  0  0  0  0
  5 10  1  0  0  0  0
  5 11  1  0  0  0  0
  6 12  1  0  0  0  0
  6 13  2  0  0  0  0
  7 14  1  0  0  0  0
  8 15  2  0  0  0  0
  9 16  2  0  0  0  0
  9 11  1  0  0  0  0
 10 17  2  0  0  0  0
 12 17  1  0  0  0  0
 14 18  2  0  0  0  0
 14 19  1  0  0  0  0
 15 18  1  0  0  0  0
 17 20  1  0  0  0  0
 18 21  1  0  0  0  0
 20 22  1  0  0  0  0
 22 23  1  0  0  0  0
 23 24  3  0  0  0  0
M  END
>  <CdId>
487

>  <Mol Weight>
380.248

>  <Formula>
C16H11Cl2N3O2S

>  <Click_ID>
CLK007A08 __  __  __

$$$$
CLK007C04 __  __  __
 OpenBabel03171413512D

 26 28  0  0  0  0  0  0  0  0999 V2000
    0.7940   -0.4384    0.0000 C   0  0  3  0  0  0  0  0  0  0  0  0
    0.0794   -0.8492    0.0000 C   0  0  0  0  0  0  0  0  0  0  0  0
    0.7940    0.3866    0.0000 C   0  0  0  0  0  0  0  0  0  0  0  0
    1.5085   -0.8423    0.0000 C   0  0  0  0  0  0  0  0  0  0  0  0
    0.0794   -1.6673    0.0000 C   0  0  0  0  0  0  0  0  0  0  0  0
   -0.6317   -0.4281    0.0000 C   0  0  0  0  0  0  0  0  0  0  0  0
    1.5085    0.8009    0.0000 C   0  0  0  0  0  0  0  0  0  0  0  0
    0.0794    0.7975    0.0000 C   0  0  0  0  0  0  0  0  0  0  0  0
    1.5085   -1.6673    0.0000 C   0  0  0  0  0  0  0  0  0  0  0  0
   -0.6317   -2.0816    0.0000 N   0  0  0  0  0  0  0  0  0  0  0  0
    0.7940   -2.0816    0.0000 N   0  0  0  0  0  0  0  0  0  0  0  0
   -1.3360   -0.8492    0.0000 N   0  0  0  0  0  0  0  0  0  0  0  0
   -0.6317    0.3970    0.0000 O   0  0  0  0  0  0  0  0  0  0  0  0
    1.5016    1.6259    0.0000 C   0  0  0  0  0  0  0  0  0  0  0  0
    0.0691    1.6156    0.0000 C   0  0  0  0  0  0  0  0  0  0  0  0
    2.2196   -2.0816    0.0000 O   0  0  0  0  0  0  0  0  0  0  0  0
   -1.3360   -1.6777    0.0000 C   0  0  0  0  0  0  0  0  0  0  0  0
    0.7906    2.0367    0.0000 C   0  0  0  0  0  0  0  0  0  0  0  0
   -2.0574   -2.0885    0.0000 S   0  0  0  0  0  0  0  0  0  0  0  0
    0.7802    2.8617    0.0000 C   0  0  0  0  0  0  0  0  0  0  0  0
   -2.7720   -1.6777    0.0000 C   0  0  0  0  0  0  0  0  0  0  0  0
    1.5016    3.2760    0.0000 F   0  0  0  0  0  0  0  0  0  0  0  0
    0.0691    3.2760    0.0000 F   0  0  0  0  0  0  0  0  0  0  0  0
    1.5810    2.6477    0.0000 F   0  0  0  0  0  0  0  0  0  0  0  0
   -2.7720   -0.8492    0.0000 C   0  0  0  0  0  0  0  0  0  0  0  0
   -3.4866   -0.4384    0.0000 C   0  0  0  0  0  0  0  0  0  0  0  0
  1  2  1  0  0  0  0
  1  3  1  0  0  0  0
  1  4  1  0  0  0  0
  2  5  2  0  0  0  0
  2  6  1  0  0  0  0
  3  7  2  0  0  0  0
  3  8  1  0  0  0  0
  4  9  1  0  0  0  0
  5 10  1  0  0  0  0
  5 11  1  0  0  0  0
  6 12  1  0  0  0  0
  6 13  2  0  0  0  0
  7 14  1  0  0  0  0
  8 15  2  0  0  0  0
  9 16  2  0  0  0  0
  9 11  1  0  0  0  0
 10 17  2  0  0  0  0
 12 17  1  0  0  0  0
 14 18  2  0  0  0  0
 15 18  1  0  0  0  0
 17 19  1  0  0  0  0
 18 20  1  0  0  0  0
 19 21  1  0  0  0  0
 20 22  1  0  0  0  0
 20 23  1  0  0  0  0
 20 24  1  0  0  0  0
 21 25  1  0  0  0  0
 25 26  3  0  0  0  0
M  END
>  <CdId>
503

>  <Mol Weight>
379.356

>  <Formula>
C17H12F3N3O2S

>  <Click_ID>
CLK007C04 __  __  __

$$$$
CLK007E10 __  __  __
 OpenBabel03171413512D

 26 28  0  0  0  0  0  0  0  0999 V2000
    0.0034   -0.9562    0.0000 C   0  0  0  0  0  0  0  0  0  0  0  0
    0.7145   -0.5420    0.0000 C   0  0  3  0  0  0  0  0  0  0  0  0
    0.0034   -1.7708    0.0000 C   0  0  0  0  0  0  0  0  0  0  0  0
   -0.7110   -0.5350    0.0000 C   0  0  0  0  0  0  0  0  0  0  0  0
    0.7145    0.2831    0.0000 C   0  0  0  0  0  0  0  0  0  0  0  0
    1.4291   -0.9458    0.0000 C   0  0  0  0  0  0  0  0  0  0  0  0
   -0.7110   -2.1850    0.0000 N   0  0  0  0  0  0  0  0  0  0  0  0
    0.7145   -2.1850    0.0000 N   0  0  0  0  0  0  0  0  0  0  0  0
   -1.4153   -0.9562    0.0000 N   0  0  0  0  0  0  0  0  0  0  0  0
   -0.7110    0.2934    0.0000 O   0  0  0  0  0  0  0  0  0  0  0  0
    1.4291    0.6973    0.0000 C   0  0  0  0  0  0  0  0  0  0  0  0
    0.0034    0.6938    0.0000 C   0  0  0  0  0  0  0  0  0  0  0  0
    1.4291   -1.7708    0.0000 C   0  0  0  0  0  0  0  0  0  0  0  0
   -1.4153   -1.7811    0.0000 C   0  0  0  0  0  0  0  0  0  0  0  0
    1.4256    1.5223    0.0000 C   0  0  0  0  0  0  0  0  0  0  0  0
   -0.0103    1.5119    0.0000 C   0  0  0  0  0  0  0  0  0  0  0  0
    2.1401   -2.1850    0.0000 O   0  0  0  0  0  0  0  0  0  0  0  0
   -2.1367   -2.1919    0.0000 S   0  0  0  0  0  0  0  0  0  0  0  0
    0.7110    1.9330    0.0000 C   0  0  0  0  0  0  0  0  0  0  0  0
   -2.8512   -1.7811    0.0000 C   0  0  0  0  0  0  0  0  0  0  0  0
    0.7041    2.7580    0.0000 O   0  0  0  0  0  0  0  0  0  0  0  0
   -2.8512   -0.9562    0.0000 C   0  0  0  0  0  0  0  0  0  0  0  0
    1.4256    3.1688    0.0000 C   0  0  0  0  0  0  0  0  0  0  0  0
   -3.5658   -0.5420    0.0000 C   0  0  0  0  0  0  0  0  0  0  0  0
    1.4153    4.0007    0.0000 C   0  0  0  0  0  0  0  0  0  0  0  0
    2.1298    4.4217    0.0000 C   0  0  0  0  0  0  0  0  0  0  0  0
  1  2  1  0  0  0  0
  1  3  2  0  0  0  0
  1  4  1  0  0  0  0
  2  5  1  0  0  0  0
  2  6  1  0  0  0  0
  3  7  1  0  0  0  0
  3  8  1  0  0  0  0
  4  9  1  0  0  0  0
  4 10  2  0  0  0  0
  5 11  2  0  0  0  0
  5 12  1  0  0  0  0
  6 13  1  0  0  0  0
  7 14  2  0  0  0  0
  8 13  1  0  0  0  0
  9 14  1  0  0  0  0
 11 15  1  0  0  0  0
 12 16  2  0  0  0  0
 13 17  2  0  0  0  0
 14 18  1  0  0  0  0
 15 19  2  0  0  0  0
 16 19  1  0  0  0  0
 18 20  1  0  0  0  0
 19 21  1  0  0  0  0
 20 22  1  0  0  0  0
 21 23  1  0  0  0  0
 22 24  3  0  0  0  0
 23 25  1  0  0  0  0
 25 26  2  0  0  0  0
M  END
>  <CdId>
529

>  <Mol Weight>
367.422

>  <Formula>
C19H17N3O3S

>  <Click_ID>
CLK007E10 __  __  __

$$$$
CLK008C05 __  __  __
 OpenBabel03171413512D

 24 26  0  0  0  0  0  0  0  0999 V2000
   -1.8120   -0.5484    0.0000 C   0  0  0  0  0  0  0  0  0  0  0  0
   -1.4040    0.1711    0.0000 C   0  0  0  0  0  0  0  0  0  0  0  0
   -1.4040   -1.2505    0.0000 C   0  0  0  0  0  0  0  0  0  0  0  0
   -2.6545   -0.5484    0.0000 C   0  0  0  0  0  0  0  0  0  0  0  0
   -0.5923    0.1711    0.0000 C   0  0  0  0  0  0  0  0  0  0  0  0
   -1.8428    0.9126    0.0000 C   0  0  0  0  0  0  0  0  0  0  0  0
   -0.5923   -1.2505    0.0000 C   0  0  0  0  0  0  0  0  0  0  0  0
   -1.8120   -1.9656    0.0000 C   0  0  0  0  0  0  0  0  0  0  0  0
   -3.0581    0.1711    0.0000 C   0  0  0  0  0  0  0  0  0  0  0  0
   -3.0581   -1.2505    0.0000 C   0  0  0  0  0  0  0  0  0  0  0  0
   -0.1887   -0.5484    0.0000 N   0  0  0  0  0  0  0  0  0  0  0  0
   -0.1579    0.9126    0.0000 O   0  0  0  0  0  0  0  0  0  0  0  0
   -2.6545    0.9126    0.0000 C   0  0  0  0  0  0  0  0  0  0  0  0
   -0.1579   -1.9919    0.0000 O   0  0  0  0  0  0  0  0  0  0  0  0
   -2.6281   -1.9656    0.0000 C   0  0  0  0  0  0  0  0  0  0  0  0
    0.6538   -0.5484    0.0000 C   0  0  0  0  0  0  0  0  0  0  0  0
    1.0618    0.1711    0.0000 C   0  0  0  0  0  0  0  0  0  0  0  0
    1.9043    0.1711    0.0000 C   0  0  0  0  0  0  0  0  0  0  0  0
    2.3079    0.9126    0.0000 C   0  0  0  0  0  0  0  0  0  0  0  0
    3.1195    0.9126    0.0000 O   0  0  0  0  0  0  0  0  0  0  0  0
    1.8779    1.6147    0.0000 O   0  0  0  0  0  0  0  0  0  0  0  0
    3.5320    1.6147    0.0000 C   0  0  0  0  0  0  0  0  0  0  0  0
    4.3437    1.6147    0.0000 C   0  0  0  0  0  0  0  0  0  0  0  0
    5.1861    1.6147    0.0000 C   0  0  0  0  0  0  0  0  0  0  0  0
  1  2  1  0  0  0  0
  1  3  1  0  0  0  0
  1  4  2  0  0  0  0
  2  5  1  0  0  0  0
  2  6  2  0  0  0  0
  3  7  1  0  0  0  0
  3  8  2  0  0  0  0
  4  9  1  0  0  0  0
  4 10  1  0  0  0  0
  5 11  1  0  0  0  0
  5 12  2  0  0  0  0
  6 13  1  0  0  0  0
  7 14  2  0  0  0  0
  7 11  1  0  0  0  0
  8 15  1  0  0  0  0
  9 13  2  0  0  0  0
 10 15  2  0  0  0  0
 11 16  1  0  0  0  0
 16 17  1  0  0  0  0
 17 18  1  0  0  0  0
 18 19  1  0  0  0  0
 19 20  1  0  0  0  0
 19 21  2  0  0  0  0
 20 22  1  0  0  0  0
 22 23  1  0  0  0  0
 23 24  3  0  0  0  0
M  END
>  <CdId>
574

>  <Mol Weight>
321.3267

>  <Formula>
C19H15NO4

>  <Click_ID>
CLK008C05 __  __  __

$$$$
CLK009A05 __  __  __
 OpenBabel03171413512D

 22 22  0  0  0  0  0  0  0  0999 V2000
   -3.5470    1.2026    0.0000 C   0  0  0  0  0  0  0  0  0  0  0  0
    3.5964   -1.2899    0.0000 C   0  0  0  0  0  0  0  0  0  0  0  0
    4.3247   -1.7110    0.0000 C   0  0  0  0  0  0  0  0  0  0  0  0
   -3.5470    0.3831    0.0000 C   0  0  0  0  0  0  0  0  0  0  0  0
   -1.3771   -0.8688    0.0000 C   0  0  0  0  0  0  0  0  0  0  0  0
   -2.1055   -1.2899    0.0000 N   0  0  0  0  0  0  0  0  0  0  0  0
    1.4606   -0.8688    0.0000 C   0  0  0  0  0  0  0  0  0  0  0  0
   -2.8338   -0.0266    0.0000 C   0  0  0  0  0  0  0  0  0  0  0  0
   -2.8338   -0.8688    0.0000 C   0  0  0  0  0  0  0  0  0  0  0  0
   -4.2526    1.6236    0.0000 O   0  0  0  0  0  0  0  0  0  0  0  0
   -1.3771   -0.0266    0.0000 O   0  0  0  0  0  0  0  0  0  0  0  0
    1.4606   -0.0266    0.0000 O   0  0  0  0  0  0  0  0  0  0  0  0
   -2.8338    1.6236    0.0000 O   0  0  0  0  0  0  0  0  0  0  0  0
    2.1662   -1.2899    0.0000 O   0  0  0  0  0  0  0  0  0  0  0  0
    2.8832   -0.8688    0.0000 C   0  0  0  0  0  0  0  0  0  0  0  0
   -0.6676   -1.2899    0.0000 C   0  0  0  0  0  0  0  0  0  0  0  0
    0.7550   -1.2899    0.0000 C   0  0  0  0  0  0  0  0  0  0  0  0
    0.0455   -0.8688    0.0000 C   0  0  0  0  0  0  0  0  0  0  0  0
   -4.2526   -0.0266    0.0000 C   0  0  0  0  0  0  0  0  0  0  0  0
   -4.2526   -0.8688    0.0000 C   0  0  0  0  0  0  0  0  0  0  0  0
   -3.5470   -1.2747    0.0000 C   0  0  0  0  0  0  0  0  0  0  0  0
   -2.1244    1.2026    0.0000 C   0  0  0  0  0  0  0  0  0  0  0  0
  2 15  1  0  0  0  0
  3  2  3  0  0  0  0
  4  1  1  0  0  0  0
  5  6  1  0  0  0  0
  6  9  1  0  0  0  0
  7 17  1  0  0  0  0
  8  4  1  0  0  0  0
  9  8  2  0  0  0  0
  9 21  1  0  0  0  0
 10  1  2  0  0  0  0
 11  5  2  0  0  0  0
 12  7  2  0  0  0  0
 13  1  1  0  0  0  0
 14  7  1  0  0  0  0
 15 14  1  0  0  0  0
 16  5  1  0  0  0  0
 17 18  1  0  0  0  0
 18 16  1  0  0  0  0
 19  4  2  0  0  0  0
 20 19  1  0  0  0  0
 21 20  2  0  0  0  0
 22 13  1  0  0  0  0
M  END
>  <CdId>
600

>  <Mol Weight>
303.3099

>  <Formula>
C16H17NO5

>  <Click_ID>
CLK009A05 __  __  __

$$$$
CLK009B08 __  __  __
 OpenBabel03171413512D

 15 13  0  0  0  0  0  0  0  0999 V2000
    1.1603    1.2489    0.0000 Cl  0  0  0  0  0  0  0  0  0  0  0  0
    2.1624    0.1118    0.0000 C   0  0  0  0  0  0  0  0  0  0  0  0
    2.8678    0.5396    0.0000 C   0  0  0  0  0  0  0  0  0  0  0  0
   -1.4300    0.5049    0.0000 C   0  0  0  0  0  0  0  0  0  0  0  0
   -0.7054    0.9251    0.0000 C   0  0  0  0  0  0  0  0  0  0  0  0
    1.4378   -0.3122    0.0000 C   0  0  0  0  0  0  0  0  0  0  0  0
   -0.7054    1.7422    0.0000 O   0  0  0  0  0  0  0  0  0  0  0  0
   -1.4300   -0.3122    0.0000 C   0  0  0  0  0  0  0  0  0  0  0  0
    0.7401   -0.7208    0.0000 N   0  0  0  0  0  0  0  0  0  0  0  0
    0.0154    0.5204    0.0000 C   0  0  0  0  0  0  0  0  0  0  0  0
    0.0154   -0.3122    0.0000 C   0  0  0  0  0  0  0  0  0  0  0  0
   -2.1277    0.9096    0.0000 C   0  0  0  0  0  0  0  0  0  0  0  0
    1.0331    0.4124    0.0000 C   0  0  0  0  0  0  0  0  0  0  0  0
    1.8656   -1.0176    0.0000 C   0  0  0  0  0  0  0  0  0  0  0  0
   -2.1277   -0.7208    0.0000 C   0  0  0  0  0  0  0  0  0  0  0  0
  3  2  3  0  0  0  0
  4  5  1  0  0  0  0
  5 10  1  0  0  0  0
  6  2  1  0  0  0  0
  7  5  2  0  0  0  0
  8  4  2  0  0  0  0
  9  6  1  0  0  0  0
 10 11  1  0  0  0  0
 11  9  1  0  0  0  0
 12  4  1  0  0  0  0
 13  6  1  0  0  0  0
 14  6  1  0  0  0  0
 15  8  1  0  0  0  0
M  END
>  <CdId>
613

>  <Mol Weight>
229.746

>  <Formula>
C12H20ClNO

>  <Click_ID>
CLK009B08 __  __  __

$$$$
CLK009D05 __  __  __
 OpenBabel03171413512D

 26 27  0  0  0  0  0  0  0  0999 V2000
   -1.6648    3.4709    0.0000 C   0  0  0  0  0  0  0  0  0  0  0  0
   -1.2709    2.7574    0.0000 C   0  0  0  0  0  0  0  0  0  0  0  0
   -0.4162    2.7574    0.0000 C   0  0  0  0  0  0  0  0  0  0  0  0
    0.0075    3.4709    0.0000 C   0  0  0  0  0  0  0  0  0  0  0  0
   -2.5196    3.4709    0.0000 N   0  0  0  0  0  0  0  0  0  0  0  0
   -4.1919    0.6168    0.0000 C   0  0  0  0  0  0  0  0  0  0  0  0
    2.0811    2.7574    0.0000 C   0  0  0  0  0  0  0  0  0  0  0  0
    2.9432    2.7574    0.0000 C   0  0  0  0  0  0  0  0  0  0  0  0
   -3.7682    1.3303    0.0000 C   0  0  0  0  0  0  0  0  0  0  0  0
   -1.2412    4.1844    0.0000 O   0  0  0  0  0  0  0  0  0  0  0  0
   -0.3791    4.1844    0.0000 O   0  0  0  0  0  0  0  0  0  0  0  0
   -3.8053   -0.0967    0.0000 O   0  0  0  0  0  0  0  0  0  0  0  0
   -2.9135    2.7574    0.0000 C   0  0  0  0  0  0  0  0  0  0  0  0
   -4.1621    2.0439    0.0000 C   0  0  0  0  0  0  0  0  0  0  0  0
   -2.9135    1.3303    0.0000 C   0  0  0  0  0  0  0  0  0  0  0  0
    0.8325    3.4709    0.0000 O   0  0  0  0  0  0  0  0  0  0  0  0
   -5.0169    0.6466    0.0000 O   0  0  0  0  0  0  0  0  0  0  0  0
   -2.5196    2.0439    0.0000 C   0  0  0  0  0  0  0  0  0  0  0  0
   -3.7682    2.7574    0.0000 C   0  0  0  0  0  0  0  0  0  0  0  0
    1.2561    2.7574    0.0000 C   0  0  0  0  0  0  0  0  0  0  0  0
   -1.6648    2.0439    0.0000 C   0  0  0  0  0  0  0  0  0  0  0  0
   -0.0223    2.0439    0.0000 C   0  0  0  0  0  0  0  0  0  0  0  0
   -5.4108   -0.0967    0.0000 C   0  0  0  0  0  0  0  0  0  0  0  0
   -1.2709    1.3303    0.0000 C   0  0  0  0  0  0  0  0  0  0  0  0
   -0.4162    1.3303    0.0000 C   0  0  0  0  0  0  0  0  0  0  0  0
   -6.2655   -0.0967    0.0000 C   0  0  0  0  0  0  0  0  0  0  0  0
  2  1  1  0  0  0  0
  3  2  1  0  0  0  0
  4  3  1  0  0  0  0
  5  1  1  0  0  0  0
  6  9  1  0  0  0  0
  7 20  1  0  0  0  0
  8  7  3  0  0  0  0
  9 14  1  0  0  0  0
  9 15  2  0  0  0  0
 10  1  2  0  0  0  0
 11  4  2  0  0  0  0
 12  6  2  0  0  0  0
 13  5  1  0  0  0  0
 14 19  2  0  0  0  0
 15 18  1  0  0  0  0
 16  4  1  0  0  0  0
 17  6  1  0  0  0  0
 18 13  2  0  0  0  0
 19 13  1  0  0  0  0
 20 16  1  0  0  0  0
 21  2  2  0  0  0  0
 22  3  2  0  0  0  0
 22 25  1  0  0  0  0
 23 17  1  0  0  0  0
 24 21  1  0  0  0  0
 25 24  2  0  0  0  0
 26 23  1  0  0  0  0
M  END
>  <CdId>
630

>  <Mol Weight>
351.3527

>  <Formula>
C20H17NO5

>  <Click_ID>
CLK009D05 __  __  __

$$$$
CLK010A11 __  __  __
 OpenBabel03171413512D

 29 32  0  0  0  0  0  0  0  0999 V2000
    2.4927   -0.6764    0.0000 N   0  0  0  0  0  0  0  0  0  0  0  0
    3.1983   -1.9081    0.0000 C   0  0  0  0  0  0  0  0  0  0  0  0
    3.1983   -0.2547    0.0000 C   0  0  0  0  0  0  0  0  0  0  0  0
    2.4927   -1.5031    0.0000 C   0  0  0  0  0  0  0  0  0  0  0  0
    3.9123   -0.6764    0.0000 N   0  0  0  0  0  0  0  0  0  0  0  0
    3.9123   -1.5031    0.0000 C   0  0  0  0  0  0  0  0  0  0  0  0
    3.9206   -3.1482    0.0000 C   0  0  0  0  0  0  0  0  0  0  0  0
    3.1983   -2.7349    0.0000 C   0  0  0  0  0  0  0  0  0  0  0  0
    5.2275   -3.4238    0.0000 N   0  0  0  0  0  0  0  0  0  0  0  0
    4.6764   -2.8100    0.0000 C   0  0  0  0  0  0  0  0  0  0  0  0
    4.0083   -3.9707    0.0000 C   0  0  0  0  0  0  0  0  0  0  0  0
    4.8142   -4.1378    0.0000 C   0  0  0  0  0  0  0  0  0  0  0  0
    1.7704   -0.2630    0.0000 C   0  0  0  0  0  0  0  0  0  0  0  0
    3.1983    0.5720    0.0000 S   0  0  0  0  0  0  0  0  0  0  0  0
    6.5302   -4.0125    0.0000 C   0  0  0  0  0  0  0  0  0  0  0  0
    6.9811   -4.7097    0.0000 C   0  0  0  0  0  0  0  0  0  0  0  0
    1.7704   -1.9165    0.0000 O   0  0  0  0  0  0  0  0  0  0  0  0
    4.6346   -1.9165    0.0000 O   0  0  0  0  0  0  0  0  0  0  0  0
    6.0542   -3.3444    0.0000 C   0  0  0  0  0  0  0  0  0  0  0  0
    1.0564   -0.6764    0.0000 C   0  0  0  0  0  0  0  0  0  0  0  0
    1.7704    0.5720    0.0000 C   0  0  0  0  0  0  0  0  0  0  0  0
    0.3424    0.5720    0.0000 C   0  0  0  0  0  0  0  0  0  0  0  0
    0.3424   -0.2630    0.0000 C   0  0  0  0  0  0  0  0  0  0  0  0
    1.0564    0.9770    0.0000 C   0  0  0  0  0  0  0  0  0  0  0  0
   -0.3716    0.9853    0.0000 Br  0  0  0  0  0  0  0  0  0  0  0  0
    5.0647   -4.9269    0.0000 C   0  0  0  0  0  0  0  0  0  0  0  0
    3.4488   -4.5845    0.0000 C   0  0  0  0  0  0  0  0  0  0  0  0
    4.5135   -5.5407    0.0000 C   0  0  0  0  0  0  0  0  0  0  0  0
    3.7077   -5.3653    0.0000 C   0  0  0  0  0  0  0  0  0  0  0  0
  2  4  1  0  0  0  0
  3  1  1  0  0  0  0
  4  1  1  0  0  0  0
  5  3  1  0  0  0  0
  6  2  1  0  0  0  0
  6  5  1  0  0  0  0
  7  8  1  0  0  0  0
  8  2  2  0  0  0  0
  9 10  1  0  0  0  0
 10  7  2  0  0  0  0
 11  7  1  0  0  0  0
 12 11  1  0  0  0  0
 12  9  1  0  0  0  0
 13  1  1  0  0  0  0
 14  3  2  0  0  0  0
 15 19  1  0  0  0  0
 16 15  3  0  0  0  0
 17  4  2  0  0  0  0
 18  6  2  0  0  0  0
 19  9  1  0  0  0  0
 20 13  1  0  0  0  0
 21 13  2  0  0  0  0
 22 24  2  0  0  0  0
 23 20  2  0  0  0  0
 23 22  1  0  0  0  0
 24 21  1  0  0  0  0
 25 22  1  0  0  0  0
 26 12  2  0  0  0  0
 27 11  2  0  0  0  0
 28 29  2  0  0  0  0
 28 26  1  0  0  0  0
 29 27  1  0  0  0  0
M  END
>  <CdId>
686

>  <Mol Weight>
464.334

>  <Formula>
C22H14BrN3O2S

>  <Click_ID>
CLK010A11 __  __  __

$$$$
CLK010D11 __  __  __
 OpenBabel03171413512D

 26 27  0  0  0  0  0  0  0  0999 V2000
    2.8500   -1.9125    0.0000 C   0  0  0  0  0  0  0  0  0  0  0  0
    2.8500   -0.2542    0.0000 C   0  0  0  0  0  0  0  0  0  0  0  0
    3.5667   -0.6750    0.0000 N   0  0  0  0  0  0  0  0  0  0  0  0
    2.1417   -0.6750    0.0000 N   0  0  0  0  0  0  0  0  0  0  0  0
    2.1417   -1.5042    0.0000 C   0  0  0  0  0  0  0  0  0  0  0  0
    3.5667   -1.5042    0.0000 C   0  0  0  0  0  0  0  0  0  0  0  0
    2.8500   -2.7417    0.0000 C   0  0  0  0  0  0  0  0  0  0  0  0
    5.0000   -3.9667    0.0000 C   0  0  0  0  0  0  0  0  0  0  0  0
    4.2792   -4.3750    0.0000 C   0  0  0  0  0  0  0  0  0  0  0  0
    5.0000   -3.1417    0.0000 C   0  0  0  0  0  0  0  0  0  0  0  0
    3.5667   -3.1417    0.0000 C   0  0  0  0  0  0  0  0  0  0  0  0
    2.8500    0.5750    0.0000 S   0  0  0  0  0  0  0  0  0  0  0  0
    6.4167   -5.6250    0.0000 C   0  0  0  0  0  0  0  0  0  0  0  0
    7.1292   -6.0417    0.0000 C   0  0  0  0  0  0  0  0  0  0  0  0
    4.2875   -1.9167    0.0000 O   0  0  0  0  0  0  0  0  0  0  0  0
    1.4167   -1.9167    0.0000 O   0  0  0  0  0  0  0  0  0  0  0  0
    3.5667   -3.9625    0.0000 C   0  0  0  0  0  0  0  0  0  0  0  0
    4.2875   -2.7292    0.0000 C   0  0  0  0  0  0  0  0  0  0  0  0
    4.2792   -0.2625    0.0000 C   0  0  0  0  0  0  0  0  0  0  0  0
    1.4250   -0.2625    0.0000 C   0  0  0  0  0  0  0  0  0  0  0  0
    4.2792   -5.2000    0.0000 I   0  0  0  0  0  0  0  0  0  0  0  0
    5.7042   -4.3792    0.0000 O   0  0  0  0  0  0  0  0  0  0  0  0
    5.7042   -2.7417    0.0000 O   0  0  0  0  0  0  0  0  0  0  0  0
    5.7042   -5.2042    0.0000 C   0  0  0  0  0  0  0  0  0  0  0  0
    5.7042   -1.9167    0.0000 C   0  0  0  0  0  0  0  0  0  0  0  0
    6.4167   -1.5042    0.0000 C   0  0  0  0  0  0  0  0  0  0  0  0
  2  3  1  0  0  0  0
  3  6  1  0  0  0  0
  4  5  1  0  0  0  0
  4  2  1  0  0  0  0
  5  1  1  0  0  0  0
  6  1  1  0  0  0  0
  7  1  2  0  0  0  0
  8 10  2  0  0  0  0
  9 17  2  0  0  0  0
  9  8  1  0  0  0  0
 10 18  1  0  0  0  0
 11  7  1  0  0  0  0
 12  2  2  0  0  0  0
 13 24  1  0  0  0  0
 14 13  3  0  0  0  0
 15  6  2  0  0  0  0
 16  5  2  0  0  0  0
 17 11  1  0  0  0  0
 18 11  2  0  0  0  0
 19  3  1  0  0  0  0
 20  4  1  0  0  0  0
 21  9  1  0  0  0  0
 22  8  1  0  0  0  0
 23 10  1  0  0  0  0
 24 22  1  0  0  0  0
 25 23  1  0  0  0  0
 26 25  1  0  0  0  0
M  END
>  <CdId>
716

>  <Mol Weight>
484.308

>  <Formula>
C18H17IN2O4S

>  <Click_ID>
CLK010D11 __  __  __

$$$$
CLK011A06 __  __  __
 OpenBabel03171413512D

 23 24  0  0  0  0  0  0  0  0999 V2000
    2.8500   -1.9125    0.0000 C   0  0  0  0  0  0  0  0  0  0  0  0
    2.8500   -0.2542    0.0000 C   0  0  0  0  0  0  0  0  0  0  0  0
    3.5667   -0.6750    0.0000 N   0  0  0  0  0  0  0  0  0  0  0  0
    2.1417   -0.6750    0.0000 N   0  0  0  0  0  0  0  0  0  0  0  0
    2.1417   -1.5042    0.0000 C   0  0  0  0  0  0  0  0  0  0  0  0
    3.5667   -1.5042    0.0000 C   0  0  0  0  0  0  0  0  0  0  0  0
    2.8500   -2.7417    0.0000 C   0  0  0  0  0  0  0  0  0  0  0  0
    2.8500    0.5750    0.0000 S   0  0  0  0  0  0  0  0  0  0  0  0
    6.4167   -5.6250    0.0000 C   0  0  0  0  0  0  0  0  0  0  0  0
    7.1292   -6.0417    0.0000 C   0  0  0  0  0  0  0  0  0  0  0  0
    4.2792   -4.3750    0.0000 C   0  0  0  0  0  0  0  0  0  0  0  0
    1.4167   -1.9167    0.0000 O   0  0  0  0  0  0  0  0  0  0  0  0
    4.2875   -1.9167    0.0000 O   0  0  0  0  0  0  0  0  0  0  0  0
    3.5667   -3.1417    0.0000 C   0  0  0  0  0  0  0  0  0  0  0  0
    3.5667   -3.9625    0.0000 C   0  0  0  0  0  0  0  0  0  0  0  0
    5.0000   -3.9667    0.0000 C   0  0  0  0  0  0  0  0  0  0  0  0
    4.2792   -0.2625    0.0000 C   0  0  0  0  0  0  0  0  0  0  0  0
    1.4250   -0.2625    0.0000 C   0  0  0  0  0  0  0  0  0  0  0  0
    5.0000   -3.1417    0.0000 C   0  0  0  0  0  0  0  0  0  0  0  0
    4.2792   -5.2000    0.0000 Br  0  0  0  0  0  0  0  0  0  0  0  0
    4.2792   -2.7292    0.0000 C   0  0  0  0  0  0  0  0  0  0  0  0
    5.7042   -4.3792    0.0000 O   0  0  0  0  0  0  0  0  0  0  0  0
    5.7042   -5.2042    0.0000 C   0  0  0  0  0  0  0  0  0  0  0  0
  2  3  1  0  0  0  0
  3  6  1  0  0  0  0
  4  5  1  0  0  0  0
  4  2  1  0  0  0  0
  5  1  1  0  0  0  0
  6  1  1  0  0  0  0
  7  1  2  0  0  0  0
  8  2  2  0  0  0  0
  9 23  1  0  0  0  0
 10  9  3  0  0  0  0
 11 15  2  0  0  0  0
 11 16  1  0  0  0  0
 12  5  2  0  0  0  0
 13  6  2  0  0  0  0
 14  7  1  0  0  0  0
 15 14  1  0  0  0  0
 16 19  2  0  0  0  0
 17  3  1  0  0  0  0
 18  4  1  0  0  0  0
 19 21  1  0  0  0  0
 20 11  1  0  0  0  0
 21 14  2  0  0  0  0
 22 16  1  0  0  0  0
 23 22  1  0  0  0  0
M  END
>  <CdId>
761

>  <Mol Weight>
393.255

>  <Formula>
C16H13BrN2O3S

>  <Click_ID>
CLK011A06 __  __  __

$$$$
CLK011A10 __  __  __
 OpenBabel03171413512D

 13 13  0  0  0  0  0  0  0  0999 V2000
    2.2451    4.6202    0.0000 C   0  0  0  0  0  0  0  0  0  0  0  0
    2.2577    5.4427    0.0000 C   0  0  0  0  0  0  0  0  0  0  0  0
    2.2325    2.1485    0.0000 C   0  0  0  0  0  0  0  0  0  0  0  0
    1.5149    2.5556    0.0000 C   0  0  0  0  0  0  0  0  0  0  0  0
    2.2325    1.3176    0.0000 C   0  0  0  0  0  0  0  0  0  0  0  0
    0.8099    2.1485    0.0000 C   0  0  0  0  0  0  0  0  0  0  0  0
    0.8099   -0.3399    0.0000 O   0  0  0  0  0  0  0  0  0  0  0  0
    1.5275    0.9064    0.0000 C   0  0  0  0  0  0  0  0  0  0  0  0
    2.9458    2.5556    0.0000 Br  0  0  0  0  0  0  0  0  0  0  0  0
    1.5275    0.0755    0.0000 C   0  0  0  0  0  0  0  0  0  0  0  0
    0.8099    1.3176    0.0000 C   0  0  0  0  0  0  0  0  0  0  0  0
    1.5275    3.3864    0.0000 O   0  0  0  0  0  0  0  0  0  0  0  0
    2.2408    3.7977    0.0000 C   0  0  0  0  0  0  0  0  0  0  0  0
  2  1  3  0  0  0  0
  3  4  1  0  0  0  0
  4 12  1  0  0  0  0
  5  3  2  0  0  0  0
  6  4  2  0  0  0  0
  7 10  2  0  0  0  0
  8 11  2  0  0  0  0
  8  5  1  0  0  0  0
  9  3  1  0  0  0  0
 10  8  1  0  0  0  0
 11  6  1  0  0  0  0
 12 13  1  0  0  0  0
 13  1  1  0  0  0  0
M  END
>  <CdId>
765

>  <Mol Weight>
239.065

>  <Formula>
C10H7BrO2

>  <Click_ID>
CLK011A10 __  __  __

$$$$
CLK011C06 __  __  __
 OpenBabel03171413512D

 22 23  0  0  0  0  0  0  0  0999 V2000
    5.9450   -0.4321    0.0000 N   0  3  0  0  0  0  0  0  0  0  0  0
    5.2335   -0.0226    0.0000 C   0  0  0  0  0  0  0  0  0  0  0  0
   -1.1904   -1.2824    0.0000 C   0  0  0  0  0  0  0  0  0  0  0  0
   -1.1904   -0.4581    0.0000 C   0  0  0  0  0  0  0  0  0  0  0  0
    1.6624   -0.4442    0.0000 C   0  0  0  0  0  0  0  0  0  0  0  0
    4.5204   -0.4373    0.0000 C   0  0  0  0  0  0  0  0  0  0  0  0
    5.9519   -1.2563    0.0000 O   0  5  0  0  0  0  0  0  0  0  0  0
    6.6634   -0.0122    0.0000 O   0  0  0  0  0  0  0  0  0  0  0  0
    1.6658   -1.2702    0.0000 N   0  0  0  0  0  0  0  0  0  0  0  0
    0.9527   -1.6919    0.0000 C   0  0  0  0  0  0  0  0  0  0  0  0
    0.9440   -0.0364    0.0000 O   0  0  0  0  0  0  0  0  0  0  0  0
   -0.4772   -1.6919    0.0000 C   0  0  0  0  0  0  0  0  0  0  0  0
    3.8020   -0.0278    0.0000 C   0  0  0  0  0  0  0  0  0  0  0  0
    3.0888   -0.4390    0.0000 O   0  0  0  0  0  0  0  0  0  0  0  0
    2.3738   -0.0330    0.0000 C   0  0  0  0  0  0  0  0  0  0  0  0
    0.2360   -1.2772    0.0000 C   0  0  0  0  0  0  0  0  0  0  0  0
    5.2283    0.8017    0.0000 C   0  0  0  0  0  0  0  0  0  0  0  0
    4.5082    1.2129    0.0000 C   0  0  0  0  0  0  0  0  0  0  0  0
    0.2360   -2.9326    0.0000 C   0  0  0  0  0  0  0  0  0  0  0  0
    0.9527   -2.5196    0.0000 C   0  0  0  0  0  0  0  0  0  0  0  0
   -0.4772   -2.5196    0.0000 C   0  0  0  0  0  0  0  0  0  0  0  0
    3.8002    0.7965    0.0000 C   0  0  0  0  0  0  0  0  0  0  0  0
  2  1  1  0  0  0  0
  3 12  1  0  0  0  0
  4  3  3  0  0  0  0
  5 15  1  0  0  0  0
  6  2  1  0  0  0  0
  7  1  1  0  0  0  0
  8  1  2  0  0  0  0
  9  5  1  0  0  0  0
 10  9  1  0  0  0  0
 11  5  2  0  0  0  0
 12 16  1  0  0  0  0
 13  6  2  0  0  0  0
 13 22  1  0  0  0  0
 14 13  1  0  0  0  0
 15 14  1  0  0  0  0
 16 10  2  0  0  0  0
 17  2  2  0  0  0  0
 18 17  1  0  0  0  0
 19 20  2  0  0  0  0
 20 10  1  0  0  0  0
 21 19  1  0  0  0  0
 21 12  2  0  0  0  0
 22 18  2  0  0  0  0
M  CHG  2   1   1   7  -1
M  END
>  <CdId>
781

>  <Mol Weight>
296.2775

>  <Formula>
C16H12N2O4

>  <Click_ID>
CLK011C06 __  __  __

$$$$
CLK013A04 __  __  __
 OpenBabel03171413512D

 20 21  0  0  0  0  0  0  0  0999 V2000
    3.6000   -1.1500    0.0000 C   0  0  0  0  0  0  0  0  0  0  0  0
    0.7500   -1.9875    0.0000 C   0  0  0  0  0  0  0  0  0  0  0  0
    0.7500   -1.1625    0.0000 C   0  0  0  0  0  0  0  0  0  0  0  0
    3.6042   -1.9750    0.0000 N   0  0  0  0  0  0  0  0  0  0  0  0
    2.8792   -0.7417    0.0000 O   0  0  0  0  0  0  0  0  0  0  0  0
    2.8917   -2.3917    0.0000 C   0  0  0  0  0  0  0  0  0  0  0  0
    4.3125   -0.7375    0.0000 C   0  0  0  0  0  0  0  0  0  0  0  0
    1.4625   -2.3917    0.0000 C   0  0  0  0  0  0  0  0  0  0  0  0
    2.1750   -1.9792    0.0000 C   0  0  0  0  0  0  0  0  0  0  0  0
    4.3042    0.0875    0.0000 C   0  0  0  0  0  0  0  0  0  0  0  0
    4.3042    1.7375    0.0000 C   0  0  0  0  0  0  0  0  0  0  0  0
    5.0250    0.5000    0.0000 C   0  0  0  0  0  0  0  0  0  0  0  0
    3.5917    0.5000    0.0000 C   0  0  0  0  0  0  0  0  0  0  0  0
    3.5917    1.3208    0.0000 C   0  0  0  0  0  0  0  0  0  0  0  0
    5.0250    1.3250    0.0000 C   0  0  0  0  0  0  0  0  0  0  0  0
    4.3042    2.5625    0.0000 O   0  0  0  0  0  0  0  0  0  0  0  0
    2.1750   -3.6375    0.0000 C   0  0  0  0  0  0  0  0  0  0  0  0
    2.8917   -3.2250    0.0000 C   0  0  0  0  0  0  0  0  0  0  0  0
    1.4625   -3.2250    0.0000 C   0  0  0  0  0  0  0  0  0  0  0  0
    5.0167    2.9833    0.0000 C   0  0  0  0  0  0  0  0  0  0  0  0
  2  8  1  0  0  0  0
  3  2  3  0  0  0  0
  4  1  1  0  0  0  0
  5  1  2  0  0  0  0
  6  4  1  0  0  0  0
  7  1  1  0  0  0  0
  8  9  1  0  0  0  0
  8 19  2  0  0  0  0
  9  6  2  0  0  0  0
 10  7  1  0  0  0  0
 11 14  1  0  0  0  0
 12 10  2  0  0  0  0
 13 10  1  0  0  0  0
 14 13  2  0  0  0  0
 15 12  1  0  0  0  0
 15 11  2  0  0  0  0
 16 11  1  0  0  0  0
 17 18  2  0  0  0  0
 18  6  1  0  0  0  0
 19 17  1  0  0  0  0
 20 16  1  0  0  0  0
M  END
>  <CdId>
919

>  <Mol Weight>
265.3065

>  <Formula>
C17H15NO2

>  <Click_ID>
CLK013A04 __  __  __

$$$$
CLK013D04 __  __  __
 OpenBabel03171413512D

 19 20  0  0  0  0  0  0  0  0999 V2000
    2.8875   -0.7250    0.0000 C   0  0  0  0  0  0  0  0  0  0  0  0
    0.0375   -1.5625    0.0000 C   0  0  0  0  0  0  0  0  0  0  0  0
    0.0375   -0.7375    0.0000 C   0  0  0  0  0  0  0  0  0  0  0  0
    2.8917   -1.5500    0.0000 N   0  0  0  0  0  0  0  0  0  0  0  0
    2.1667   -0.3167    0.0000 O   0  0  0  0  0  0  0  0  0  0  0  0
    2.1792   -1.9667    0.0000 C   0  0  0  0  0  0  0  0  0  0  0  0
    3.6000   -0.3125    0.0000 C   0  0  0  0  0  0  0  0  0  0  0  0
    0.7500   -1.9667    0.0000 C   0  0  0  0  0  0  0  0  0  0  0  0
    1.4625   -1.5542    0.0000 C   0  0  0  0  0  0  0  0  0  0  0  0
    3.5917    0.5125    0.0000 C   0  0  0  0  0  0  0  0  0  0  0  0
    3.5917    2.1625    0.0000 C   0  0  0  0  0  0  0  0  0  0  0  0
    3.5917    2.9875    0.0000 Cl  0  0  0  0  0  0  0  0  0  0  0  0
    2.8792    1.7458    0.0000 C   0  0  0  0  0  0  0  0  0  0  0  0
    4.3125    1.7500    0.0000 C   0  0  0  0  0  0  0  0  0  0  0  0
    2.8792    0.9250    0.0000 C   0  0  0  0  0  0  0  0  0  0  0  0
    4.3125    0.9250    0.0000 C   0  0  0  0  0  0  0  0  0  0  0  0
    1.4625   -3.2125    0.0000 C   0  0  0  0  0  0  0  0  0  0  0  0
    2.1792   -2.8000    0.0000 C   0  0  0  0  0  0  0  0  0  0  0  0
    0.7500   -2.8000    0.0000 C   0  0  0  0  0  0  0  0  0  0  0  0
  2  8  1  0  0  0  0
  3  2  3  0  0  0  0
  4  1  1  0  0  0  0
  5  1  2  0  0  0  0
  6  4  1  0  0  0  0
  7  1  1  0  0  0  0
  8  9  1  0  0  0  0
  8 19  2  0  0  0  0
  9  6  2  0  0  0  0
 10  7  1  0  0  0  0
 11 14  2  0  0  0  0
 12 11  1  0  0  0  0
 13 15  2  0  0  0  0
 13 11  1  0  0  0  0
 14 16  1  0  0  0  0
 15 10  1  0  0  0  0
 16 10  2  0  0  0  0
 17 18  2  0  0  0  0
 18  6  1  0  0  0  0
 19 17  1  0  0  0  0
M  END
>  <CdId>
949

>  <Mol Weight>
269.726

>  <Formula>
C16H12ClNO

>  <Click_ID>
CLK013D04 __  __  __

$$$$
CLK013F06 __  __  __
 OpenBabel03171413512D

 32 35  0  0  0  0  0  0  0  0999 V2000
    1.5701   -0.8185    0.0000 N   0  0  0  0  0  0  0  0  0  0  0  0
    1.8290   -1.6077    0.0000 C   0  0  0  0  0  0  0  0  0  0  0  0
    2.9106   -0.8185    0.0000 C   0  0  0  0  0  0  0  0  0  0  0  0
    2.2424   -0.3299    0.0000 C   0  0  0  0  0  0  0  0  0  0  0  0
    2.6558   -1.6077    0.0000 S   0  0  0  0  0  0  0  0  0  0  0  0
    3.9837   -0.4677    0.0000 C   0  0  0  0  0  0  0  0  0  0  0  0
    4.1591    0.3340    0.0000 C   0  0  0  0  0  0  0  0  0  0  0  0
    4.9400    0.5846    0.0000 C   0  0  0  0  0  0  0  0  0  0  0  0
    2.8688    4.4096    0.0000 C   0  0  0  0  0  0  0  0  0  0  0  0
    0.6138    0.2463    0.0000 C   0  0  0  0  0  0  0  0  0  0  0  0
    0.3926    1.0481    0.0000 C   0  0  0  0  0  0  0  0  0  0  0  0
    3.5494    0.8894    0.0000 C   0  0  0  0  0  0  0  0  0  0  0  0
    1.3404   -2.2717    0.0000 O   0  0  0  0  0  0  0  0  0  0  0  0
    2.2341    0.4969    0.0000 O   0  0  0  0  0  0  0  0  0  0  0  0
    2.6851    3.6162    0.0000 C   0  0  0  0  0  0  0  0  0  0  0  0
    0.7892   -0.5637    0.0000 C   0  0  0  0  0  0  0  0  0  0  0  0
    2.7602    0.6389    0.0000 O   0  0  0  0  0  0  0  0  0  0  0  0
    2.2591    4.9650    0.0000 O   0  0  0  0  0  0  0  0  0  0  0  0
    5.1154    1.3905    0.0000 C   0  0  0  0  0  0  0  0  0  0  0  0
    3.7206    1.6995    0.0000 C   0  0  0  0  0  0  0  0  0  0  0  0
    4.5015    1.9501    0.0000 C   0  0  0  0  0  0  0  0  0  0  0  0
    1.8958    3.3656    0.0000 C   0  0  0  0  0  0  0  0  0  0  0  0
    3.2947    3.0525    0.0000 C   0  0  0  0  0  0  0  0  0  0  0  0
    3.6580    4.6519    0.0000 O   0  0  0  0  0  0  0  0  0  0  0  0
    2.1547    1.1984    0.0000 C   0  0  0  0  0  0  0  0  0  0  0  0
    2.3218    2.0002    0.0000 C   0  0  0  0  0  0  0  0  0  0  0  0
    1.7205    2.5514    0.0000 C   0  0  0  0  0  0  0  0  0  0  0  0
    3.1193    2.2507    0.0000 C   0  0  0  0  0  0  0  0  0  0  0  0
    5.5538    0.0334    0.0000 C   0  0  0  0  0  0  0  0  0  0  0  0
    5.8921    1.6494    0.0000 C   0  0  0  0  0  0  0  0  0  0  0  0
    6.3305    0.2881    0.0000 C   0  0  0  0  0  0  0  0  0  0  0  0
    6.5059    1.0982    0.0000 C   0  0  0  0  0  0  0  0  0  0  0  0
  2  1  1  0  0  0  0
  3  4  1  0  0  0  0
  3  5  1  0  0  0  0
  4  1  1  0  0  0  0
  5  2  1  0  0  0  0
  6  3  2  0  0  0  0
  7  6  1  0  0  0  0
  8  7  1  0  0  0  0
  9 15  1  0  0  0  0
 10 16  1  0  0  0  0
 11 10  3  0  0  0  0
 12  7  2  0  0  0  0
 13  2  2  0  0  0  0
 14  4  2  0  0  0  0
 15 23  2  0  0  0  0
 16  1  1  0  0  0  0
 17 12  1  0  0  0  0
 18  9  2  0  0  0  0
 19  8  1  0  0  0  0
 19 21  1  0  0  0  0
 20 12  1  0  0  0  0
 21 20  2  0  0  0  0
 22 27  2  0  0  0  0
 22 15  1  0  0  0  0
 23 28  1  0  0  0  0
 24  9  1  0  0  0  0
 25 17  1  0  0  0  0
 26 25  1  0  0  0  0
 27 26  1  0  0  0  0
 28 26  2  0  0  0  0
 29  8  2  0  0  0  0
 30 19  2  0  0  0  0
 30 32  1  0  0  0  0
 31 29  1  0  0  0  0
 32 31  2  0  0  0  0
M  END
>  <CdId>
971

>  <Mol Weight>
443.471

>  <Formula>
C25H17NO5S

>  <Click_ID>
CLK013F06 __  __  __

$$$$
CLK014D06 __  __  __
 OpenBabel03171413512D

 28 30  0  0  0  0  0  0  0  0999 V2000
    2.4095   -1.9973    0.0000 N   0  0  0  0  0  0  0  0  0  0  0  0
    0.9803   -1.9973    0.0000 C   0  0  0  0  0  0  0  0  0  0  0  0
    1.6949   -1.5850    0.0000 C   0  0  0  0  0  0  0  0  0  0  0  0
    2.4095   -2.8218    0.0000 C   0  0  0  0  0  0  0  0  0  0  0  0
    1.6949   -3.2341    0.0000 N   0  0  0  0  0  0  0  0  0  0  0  0
    0.9803   -2.8218    0.0000 C   0  0  0  0  0  0  0  0  0  0  0  0
    3.1241   -1.5850    0.0000 C   0  0  0  0  0  0  0  0  0  0  0  0
    0.2657   -1.5850    0.0000 C   0  0  0  0  0  0  0  0  0  0  0  0
    3.1241   -0.7604    0.0000 C   0  0  0  0  0  0  0  0  0  0  0  0
    3.8387   -0.3482    0.0000 C   0  0  0  0  0  0  0  0  0  0  0  0
   -2.5927    0.8886    0.0000 C   0  0  0  0  0  0  0  0  0  0  0  0
    3.1241   -3.2341    0.0000 O   0  0  0  0  0  0  0  0  0  0  0  0
   -3.3073    0.4764    0.0000 C   0  0  0  0  0  0  0  0  0  0  0  0
    1.6949   -0.7604    0.0000 O   0  0  0  0  0  0  0  0  0  0  0  0
    0.2657   -3.2341    0.0000 O   0  0  0  0  0  0  0  0  0  0  0  0
    3.8387   -1.9973    0.0000 C   0  0  0  0  0  0  0  0  0  0  0  0
    4.5533   -0.7604    0.0000 C   0  0  0  0  0  0  0  0  0  0  0  0
    0.2657   -0.7604    0.0000 C   0  0  0  0  0  0  0  0  0  0  0  0
    4.5533   -1.5850    0.0000 C   0  0  0  0  0  0  0  0  0  0  0  0
    3.8387    0.4764    0.0000 Cl  0  0  0  0  0  0  0  0  0  0  0  0
   -0.4489   -0.3482    0.0000 C   0  0  0  0  0  0  0  0  0  0  0  0
    5.2679   -0.3482    0.0000 Cl  0  0  0  0  0  0  0  0  0  0  0  0
   -0.4489    0.4764    0.0000 C   0  0  0  0  0  0  0  0  0  0  0  0
   -1.8781    0.4764    0.0000 C   0  0  0  0  0  0  0  0  0  0  0  0
   -1.1635    0.8886    0.0000 O   0  0  0  0  0  0  0  0  0  0  0  0
    0.9803    0.4764    0.0000 C   0  0  0  0  0  0  0  0  0  0  0  0
    0.9803   -0.3482    0.0000 C   0  0  0  0  0  0  0  0  0  0  0  0
    0.2657    0.8886    0.0000 C   0  0  0  0  0  0  0  0  0  0  0  0
  2  3  1  0  0  0  0
  3  1  1  0  0  0  0
  4  1  1  0  0  0  0
  5  4  1  0  0  0  0
  6  5  1  0  0  0  0
  6  2  1  0  0  0  0
  7  1  1  0  0  0  0
  8  2  2  0  0  0  0
  9  7  2  0  0  0  0
 10  9  1  0  0  0  0
 11 24  1  0  0  0  0
 12  4  2  0  0  0  0
 13 11  3  0  0  0  0
 14  3  2  0  0  0  0
 15  6  2  0  0  0  0
 16  7  1  0  0  0  0
 17 19  1  0  0  0  0
 17 10  2  0  0  0  0
 18  8  1  0  0  0  0
 19 16  2  0  0  0  0
 20 10  1  0  0  0  0
 21 18  2  0  0  0  0
 22 17  1  0  0  0  0
 23 21  1  0  0  0  0
 24 25  1  0  0  0  0
 25 23  1  0  0  0  0
 26 27  2  0  0  0  0
 27 18  1  0  0  0  0
 28 26  1  0  0  0  0
 28 23  2  0  0  0  0
M  END
>  <CdId>
1031

>  <Mol Weight>
415.226

>  <Formula>
C20H12Cl2N2O4

>  <Click_ID>
CLK014D06 __  __  __

$$$$
CLK015A08 __  __  __
 OpenBabel03171413512D

 24 26  0  0  0  0  0  0  0  0999 V2000
    1.5659   -0.8163    0.0000 N   0  0  0  0  0  0  0  0  0  0  0  0
    1.8241   -1.6034    0.0000 C   0  0  0  0  0  0  0  0  0  0  0  0
    2.9028   -0.8163    0.0000 C   0  0  0  0  0  0  0  0  0  0  0  0
    2.2364   -0.3290    0.0000 C   0  0  0  0  0  0  0  0  0  0  0  0
    4.5270    1.3951    0.0000 N   0  0  0  0  0  0  0  0  0  0  0  0
    3.8606    0.2457    0.0000 C   0  0  0  0  0  0  0  0  0  0  0  0
    2.6487   -1.6034    0.0000 S   0  0  0  0  0  0  0  0  0  0  0  0
    3.7274    1.5700    0.0000 C   0  0  0  0  0  0  0  0  0  0  0  0
    4.6144    0.5747    0.0000 C   0  0  0  0  0  0  0  0  0  0  0  0
    3.6899   -0.5622    0.0000 C   0  0  0  0  0  0  0  0  0  0  0  0
    3.3109    0.8579    0.0000 C   0  0  0  0  0  0  0  0  0  0  0  0
    0.6122    0.2457    0.0000 C   0  0  0  0  0  0  0  0  0  0  0  0
    0.3915    1.0453    0.0000 C   0  0  0  0  0  0  0  0  0  0  0  0
    1.3368   -2.2656    0.0000 O   0  0  0  0  0  0  0  0  0  0  0  0
    5.1475    1.9448    0.0000 C   0  0  0  0  0  0  0  0  0  0  0  0
    2.2281    0.4956    0.0000 O   0  0  0  0  0  0  0  0  0  0  0  0
    0.7871   -0.5622    0.0000 C   0  0  0  0  0  0  0  0  0  0  0  0
    5.5889    3.2984    0.0000 N   0  0  0  0  0  0  0  0  0  0  0  0
    3.3983    2.3322    0.0000 C   0  0  0  0  0  0  0  0  0  0  0  0
    5.3266    0.1582    0.0000 C   0  0  0  0  0  0  0  0  0  0  0  0
    4.9768    2.7486    0.0000 C   0  0  0  0  0  0  0  0  0  0  0  0
    6.3761    3.0443    0.0000 C   0  0  0  0  0  0  0  0  0  0  0  0
    5.9263    1.6867    0.0000 C   0  0  0  0  0  0  0  0  0  0  0  0
    6.5385    2.2364    0.0000 C   0  0  0  0  0  0  0  0  0  0  0  0
  2  1  1  0  0  0  0
  3  4  1  0  0  0  0
  3  7  1  0  0  0  0
  4  1  1  0  0  0  0
  5  9  1  0  0  0  0
  6 10  1  0  0  0  0
  7  2  1  0  0  0  0
  8 11  2  0  0  0  0
  8  5  1  0  0  0  0
  9  6  2  0  0  0  0
 10  3  2  0  0  0  0
 11  6  1  0  0  0  0
 12 17  1  0  0  0  0
 13 12  3  0  0  0  0
 14  2  2  0  0  0  0
 15  5  1  0  0  0  0
 16  4  2  0  0  0  0
 17  1  1  0  0  0  0
 18 21  2  0  0  0  0
 19  8  1  0  0  0  0
 20  9  1  0  0  0  0
 21 15  1  0  0  0  0
 22 24  2  0  0  0  0
 22 18  1  0  0  0  0
 23 15  2  0  0  0  0
 24 23  1  0  0  0  0
M  END
>  <CdId>
1083

>  <Mol Weight>
337.396

>  <Formula>
C18H15N3O2S

>  <Click_ID>
CLK015A08 __  __  __

$$$$
CLK015D05 __  __  __
 OpenBabel03171413512D

 24 26  0  0  0  0  0  0  0  0999 V2000
    2.1093   -0.2288    0.0000 N   0  0  0  0  0  0  0  0  0  0  0  0
    2.3589   -1.0151    0.0000 C   0  0  0  0  0  0  0  0  0  0  0  0
    3.4364   -0.2288    0.0000 C   0  0  0  0  0  0  0  0  0  0  0  0
    5.0672    1.9802    0.0000 N   0  0  0  0  0  0  0  0  0  0  0  0
    2.7707    0.2579    0.0000 C   0  0  0  0  0  0  0  0  0  0  0  0
    4.3974    0.8320    0.0000 C   0  0  0  0  0  0  0  0  0  0  0  0
    3.1826   -1.0151    0.0000 S   0  0  0  0  0  0  0  0  0  0  0  0
    4.2601    2.1550    0.0000 C   0  0  0  0  0  0  0  0  0  0  0  0
    5.1463    1.1690    0.0000 C   0  0  0  0  0  0  0  0  0  0  0  0
    4.2227    0.0250    0.0000 C   0  0  0  0  0  0  0  0  0  0  0  0
    3.8483    1.4436    0.0000 C   0  0  0  0  0  0  0  0  0  0  0  0
    5.6788    2.5294    0.0000 C   0  0  0  0  0  0  0  0  0  0  0  0
    0.7114   -0.5284    0.0000 C   0  0  0  0  0  0  0  0  0  0  0  0
    0.1248   -1.1108    0.0000 C   0  0  0  0  0  0  0  0  0  0  0  0
    1.8763   -1.6766    0.0000 O   0  0  0  0  0  0  0  0  0  0  0  0
    2.7707    1.0816    0.0000 O   0  0  0  0  0  0  0  0  0  0  0  0
    5.5082    3.3407    0.0000 N   0  0  0  0  0  0  0  0  0  0  0  0
    1.3272    0.0250    0.0000 C   0  0  0  0  0  0  0  0  0  0  0  0
    3.9232    2.9080    0.0000 C   0  0  0  0  0  0  0  0  0  0  0  0
    5.8577    0.7488    0.0000 C   0  0  0  0  0  0  0  0  0  0  0  0
    6.4650    2.2715    0.0000 C   0  0  0  0  0  0  0  0  0  0  0  0
    6.1281    3.8898    0.0000 C   0  0  0  0  0  0  0  0  0  0  0  0
    7.0766    2.8289    0.0000 C   0  0  0  0  0  0  0  0  0  0  0  0
    6.9061    3.6277    0.0000 C   0  0  0  0  0  0  0  0  0  0  0  0
  2  1  1  0  0  0  0
  3  5  1  0  0  0  0
  3  7  1  0  0  0  0
  4  9  1  0  0  0  0
  5  1  1  0  0  0  0
  6 10  1  0  0  0  0
  7  2  1  0  0  0  0
  8 11  2  0  0  0  0
  8  4  1  0  0  0  0
  9  6  2  0  0  0  0
 10  3  2  0  0  0  0
 11  6  1  0  0  0  0
 12  4  1  0  0  0  0
 13 18  1  0  0  0  0
 14 13  3  0  0  0  0
 15  2  2  0  0  0  0
 16  5  2  0  0  0  0
 17 12  1  0  0  0  0
 18  1  1  0  0  0  0
 19  8  1  0  0  0  0
 20  9  1  0  0  0  0
 21 12  2  0  0  0  0
 22 17  2  0  0  0  0
 23 21  1  0  0  0  0
 24 23  2  0  0  0  0
 24 22  1  0  0  0  0
M  END
>  <CdId>
1110

>  <Mol Weight>
337.396

>  <Formula>
C18H15N3O2S

>  <Click_ID>
CLK015D05 __  __  __

$$$$
CLK015F04 __  __  __
 OpenBabel03171413512D

 25 27  0  0  0  0  0  0  0  0999 V2000
    2.1097   -0.2289    0.0000 N   0  0  0  0  0  0  0  0  0  0  0  0
    2.3593   -1.0153    0.0000 C   0  0  0  0  0  0  0  0  0  0  0  0
    3.4371   -0.2289    0.0000 C   0  0  0  0  0  0  0  0  0  0  0  0
    5.0682    1.9848    0.0000 N   0  0  0  0  0  0  0  0  0  0  0  0
    2.7713    0.2580    0.0000 C   0  0  0  0  0  0  0  0  0  0  0  0
    4.3983    0.8322    0.0000 C   0  0  0  0  0  0  0  0  0  0  0  0
    3.1832   -1.0153    0.0000 S   0  0  0  0  0  0  0  0  0  0  0  0
    4.2609    2.1554    0.0000 C   0  0  0  0  0  0  0  0  0  0  0  0
    5.1472    1.1692    0.0000 C   0  0  0  0  0  0  0  0  0  0  0  0
    4.2235    0.0250    0.0000 C   0  0  0  0  0  0  0  0  0  0  0  0
    3.8490    1.4438    0.0000 C   0  0  0  0  0  0  0  0  0  0  0  0
    5.6715    2.5424    0.0000 C   0  0  0  0  0  0  0  0  0  0  0  0
    5.5051    3.3413    0.0000 N   0  0  0  0  0  0  0  0  0  0  0  0
    0.7115   -0.5285    0.0000 C   0  0  0  0  0  0  0  0  0  0  0  0
    0.1248   -1.1110    0.0000 C   0  0  0  0  0  0  0  0  0  0  0  0
    1.8767   -1.6769    0.0000 O   0  0  0  0  0  0  0  0  0  0  0  0
    2.7713    1.0818    0.0000 O   0  0  0  0  0  0  0  0  0  0  0  0
    1.3274    0.0250    0.0000 C   0  0  0  0  0  0  0  0  0  0  0  0
    6.4538    2.2802    0.0000 C   0  0  0  0  0  0  0  0  0  0  0  0
    6.1167    3.8905    0.0000 C   0  0  0  0  0  0  0  0  0  0  0  0
    3.9239    2.9086    0.0000 C   0  0  0  0  0  0  0  0  0  0  0  0
    5.8588    0.7490    0.0000 C   0  0  0  0  0  0  0  0  0  0  0  0
    7.0696    2.8337    0.0000 C   0  0  0  0  0  0  0  0  0  0  0  0
    6.9032    3.6409    0.0000 C   0  0  0  0  0  0  0  0  0  0  0  0
    7.5148    4.1860    0.0000 C   0  0  0  0  0  0  0  0  0  0  0  0
  2  1  1  0  0  0  0
  3  5  1  0  0  0  0
  3  7  1  0  0  0  0
  4  9  1  0  0  0  0
  5  1  1  0  0  0  0
  6 10  1  0  0  0  0
  7  2  1  0  0  0  0
  8 11  2  0  0  0  0
  8  4  1  0  0  0  0
  9  6  2  0  0  0  0
 10  3  2  0  0  0  0
 11  6  1  0  0  0  0
 12  4  1  0  0  0  0
 13 12  1  0  0  0  0
 14 18  1  0  0  0  0
 15 14  3  0  0  0  0
 16  2  2  0  0  0  0
 17  5  2  0  0  0  0
 18  1  1  0  0  0  0
 19 12  2  0  0  0  0
 20 13  2  0  0  0  0
 21  8  1  0  0  0  0
 22  9  1  0  0  0  0
 23 19  1  0  0  0  0
 24 23  2  0  0  0  0
 24 20  1  0  0  0  0
 25 24  1  0  0  0  0
M  END
>  <CdId>
1129

>  <Mol Weight>
351.422

>  <Formula>
C19H17N3O2S

>  <Click_ID>
CLK015F04 __  __  __

$$$$
CLK015F05 __  __  __
 OpenBabel03171413512D

 15 15  0  0  0  0  0  0  0  0999 V2000
   -0.3922    0.0724    0.0000 N   0  3  0  0  0  0  0  0  0  0  0  0
    0.3454   -0.3497    0.0000 C   0  0  0  0  0  0  0  0  0  0  0  0
    1.0745    0.0724    0.0000 C   0  0  0  0  0  0  0  0  0  0  0  0
    3.7606    1.5946    0.0000 C   0  0  0  0  0  0  0  0  0  0  0  0
    4.1827    2.3237    0.0000 C   0  0  0  0  0  0  0  0  0  0  0  0
   -0.3922    0.9167    0.0000 O   0  5  0  0  0  0  0  0  0  0  0  0
   -1.1213   -0.3497    0.0000 O   0  0  0  0  0  0  0  0  0  0  0  0
    1.8078   -0.3497    0.0000 C   0  0  0  0  0  0  0  0  0  0  0  0
    2.5198    0.0597    0.0000 C   0  0  0  0  0  0  0  0  0  0  0  0
    2.5241    0.8783    0.0000 O   0  0  0  0  0  0  0  0  0  0  0  0
    2.9335    1.5946    0.0000 C   0  0  0  0  0  0  0  0  0  0  0  0
    1.8078   -1.1640    0.0000 C   0  0  0  0  0  0  0  0  0  0  0  0
    3.2277   -0.3497    0.0000 C   0  0  0  0  0  0  0  0  0  0  0  0
    3.2277   -1.1640    0.0000 C   0  0  0  0  0  0  0  0  0  0  0  0
    2.5241   -1.5733    0.0000 C   0  0  0  0  0  0  0  0  0  0  0  0
  2  1  1  0  0  0  0
  3  2  2  0  0  0  0
  4 11  1  0  0  0  0
  5  4  3  0  0  0  0
  6  1  1  0  0  0  0
  7  1  2  0  0  0  0
  8  3  1  0  0  0  0
  9  8  2  0  0  0  0
 10  9  1  0  0  0  0
 11 10  1  0  0  0  0
 12  8  1  0  0  0  0
 13  9  1  0  0  0  0
 13 14  2  0  0  0  0
 14 15  1  0  0  0  0
 15 12  2  0  0  0  0
M  CHG  2   1   1   6  -1
M  END
>  <CdId>
1130

>  <Mol Weight>
203.1941

>  <Formula>
C11H9NO3

>  <Click_ID>
CLK015F05 __  __  __

$$$$
CLK016E03 __  __  __
 OpenBabel03171413512D

 21 23  0  0  0  0  0  0  0  0999 V2000
    1.5674   -0.8171    0.0000 N   0  0  0  0  0  0  0  0  0  0  0  0
    1.8259   -1.6050    0.0000 C   0  0  0  0  0  0  0  0  0  0  0  0
    2.9056   -0.8171    0.0000 C   0  0  0  0  0  0  0  0  0  0  0  0
    2.2386   -0.3294    0.0000 C   0  0  0  0  0  0  0  0  0  0  0  0
    4.1436    0.3335    0.0000 C   0  0  0  0  0  0  0  0  0  0  0  0
    2.6512   -1.6050    0.0000 S   0  0  0  0  0  0  0  0  0  0  0  0
    3.9769   -0.4669    0.0000 C   0  0  0  0  0  0  0  0  0  0  0  0
    3.6017    0.9379    0.0000 C   0  0  0  0  0  0  0  0  0  0  0  0
    4.0061    1.6591    0.0000 N   0  0  0  0  0  0  0  0  0  0  0  0
    4.8940    0.6628    0.0000 C   0  0  0  0  0  0  0  0  0  0  0  0
    4.8148    1.4840    0.0000 C   0  0  0  0  0  0  0  0  0  0  0  0
    0.6128    0.2459    0.0000 C   0  0  0  0  0  0  0  0  0  0  0  0
    0.3919    1.0463    0.0000 C   0  0  0  0  0  0  0  0  0  0  0  0
    1.3381   -2.2678    0.0000 O   0  0  0  0  0  0  0  0  0  0  0  0
    2.2302    0.4960    0.0000 O   0  0  0  0  0  0  0  0  0  0  0  0
    0.7879   -0.5628    0.0000 C   0  0  0  0  0  0  0  0  0  0  0  0
    2.7805    0.8587    0.0000 C   0  0  0  0  0  0  0  0  0  0  0  0
    5.6318    0.2876    0.0000 C   0  0  0  0  0  0  0  0  0  0  0  0
    5.5068    1.9259    0.0000 C   0  0  0  0  0  0  0  0  0  0  0  0
    6.3072    0.7587    0.0000 C   0  0  0  0  0  0  0  0  0  0  0  0
    6.2446    1.5757    0.0000 C   0  0  0  0  0  0  0  0  0  0  0  0
  2  1  1  0  0  0  0
  3  4  1  0  0  0  0
  3  6  1  0  0  0  0
  4  1  1  0  0  0  0
  5  7  1  0  0  0  0
  6  2  1  0  0  0  0
  7  3  2  0  0  0  0
  8  5  2  0  0  0  0
  9  8  1  0  0  0  0
 10  5  1  0  0  0  0
 11 10  1  0  0  0  0
 11  9  1  0  0  0  0
 12 16  1  0  0  0  0
 13 12  3  0  0  0  0
 14  2  2  0  0  0  0
 15  4  2  0  0  0  0
 16  1  1  0  0  0  0
 17  8  1  0  0  0  0
 18 10  2  0  0  0  0
 19 11  2  0  0  0  0
 19 21  1  0  0  0  0
 20 18  1  0  0  0  0
 21 20  2  0  0  0  0
M  END
>  <CdId>
1198

>  <Mol Weight>
296.344

>  <Formula>
C16H12N2O2S

>  <Click_ID>
CLK016E03 __  __  __

$$$$
CLK017A03 __  __  __
 OpenBabel03171413512D

 33 36  0  0  0  0  0  0  0  0999 V2000
    2.4521   -2.5208    0.0000 C   0  0  0  0  0  0  0  0  0  0  0  0
    1.7233   -1.2971    0.0000 C   0  0  0  0  0  0  0  0  0  0  0  0
    1.7325   -2.1175    0.0000 C   0  0  3  0  0  0  0  0  0  0  0  0
    2.4246   -0.8800    0.0000 C   0  0  0  0  0  0  0  0  0  0  0  0
    3.1533   -2.0946    0.0000 C   0  0  0  0  0  0  0  0  0  0  0  0
    3.1396   -1.2787    0.0000 O   0  0  0  0  0  0  0  0  0  0  0  0
    2.4521   -3.3321    0.0000 C   0  0  0  0  0  0  0  0  0  0  0  0
    1.0037   -0.8937    0.0000 C   0  0  0  0  0  0  0  0  0  0  0  0
    1.0221   -2.5346    0.0000 C   0  0  0  0  0  0  0  0  0  0  0  0
    0.3025   -2.1358    0.0000 C   0  0  0  0  0  0  0  0  0  0  0  0
    2.4108   -0.0459    0.0000 C   0  0  0  0  0  0  0  0  0  0  0  0
    3.8774   -2.5025    0.0000 C   0  0  0  0  0  0  0  0  0  0  0  0
    3.8821   -3.3274    0.0000 C   0  0  0  0  0  0  0  0  0  0  0  0
    1.6958    0.3437    0.0000 C   0  0  0  0  0  0  0  0  0  0  0  0
   -1.8012   -5.0599    0.0000 C   0  0  0  0  0  0  0  0  0  0  0  0
    3.1808   -3.7446    0.0000 C   0  0  0  0  0  0  0  0  0  0  0  0
    0.9946   -0.0734    0.0000 C   0  0  0  0  0  0  0  0  0  0  0  0
   -1.7875   -5.8849    0.0000 C   0  0  0  0  0  0  0  0  0  0  0  0
   -0.4079   -2.5621    0.0000 C   0  0  0  0  0  0  0  0  0  0  0  0
    1.7371   -3.7674    0.0000 O   0  0  0  0  0  0  0  0  0  0  0  0
    0.2887   -1.3108    0.0000 O   0  0  0  0  0  0  0  0  0  0  0  0
    1.0359   -3.3596    0.0000 C   0  0  0  0  0  0  0  0  0  0  0  0
   -0.3941   -3.3871    0.0000 C   0  0  0  0  0  0  0  0  0  0  0  0
    0.3209   -3.7858    0.0000 C   0  0  0  0  0  0  0  0  0  0  0  0
   -1.1275   -2.1587    0.0000 O   0  0  0  0  0  0  0  0  0  0  0  0
   -1.1091   -3.8087    0.0000 O   0  0  0  0  0  0  0  0  0  0  0  0
   -1.0954   -4.6383    0.0000 C   0  0  0  0  0  0  0  0  0  0  0  0
    1.6821    1.1825    0.0000 C   0  0  0  0  0  0  0  0  0  0  0  0
    0.8662    0.3300    0.0000 C   0  0  0  0  0  0  0  0  0  0  0  0
    4.6108   -3.7308    0.0000 C   0  0  0  0  0  0  0  0  0  0  0  0
    3.4787   -4.0562    0.0000 C   0  0  0  0  0  0  0  0  0  0  0  0
   -1.1412   -1.3337    0.0000 C   0  0  0  0  0  0  0  0  0  0  0  0
   -1.8654   -0.9259    0.0000 C   0  0  0  0  0  0  0  0  0  0  0  0
  2  3  1  0  0  0  0
  2  4  2  0  0  0  0
  3  1  1  0  0  0  0
  4  6  1  0  0  0  0
  5  1  2  0  0  0  0
  6  5  1  0  0  0  0
  7  1  1  0  0  0  0
  8  2  1  0  0  0  0
  9  3  1  0  0  0  0
 10  9  1  0  0  0  0
 11  4  1  0  0  0  0
 12  5  1  0  0  0  0
 13 16  1  0  0  0  0
 13 12  1  0  0  0  0
 14 11  1  0  0  0  0
 14 17  1  0  0  0  0
 15 27  1  0  0  0  0
 16  7  1  0  0  0  0
 17  8  1  0  0  0  0
 18 15  3  0  0  0  0
 19 10  2  0  0  0  0
 20  7  2  0  0  0  0
 21  8  2  0  0  0  0
 22  9  2  0  0  0  0
 23 24  2  0  0  0  0
 23 19  1  0  0  0  0
 24 22  1  0  0  0  0
 25 19  1  0  0  0  0
 26 23  1  0  0  0  0
 27 26  1  0  0  0  0
 28 14  1  0  0  0  0
 29 14  1  0  0  0  0
 30 13  1  0  0  0  0
 31 13  1  0  0  0  0
 32 25  1  0  0  0  0
 33 32  1  0  0  0  0
M  END
>  <CdId>
1238

>  <Mol Weight>
448.5507

>  <Formula>
C28H32O5

>  <Click_ID>
CLK017A03 __  __  __

$$$$
CLK017A04 __  __  __
 OpenBabel03171413512D

 30 33  0  0  0  0  0  0  0  0999 V2000
    2.4522   -2.5210    0.0000 C   0  0  0  0  0  0  0  0  0  0  0  0
    1.7235   -1.2972    0.0000 C   0  0  0  0  0  0  0  0  0  0  0  0
    2.4247   -0.8800    0.0000 C   0  0  0  0  0  0  0  0  0  0  0  0
    3.1535   -2.0947    0.0000 C   0  0  0  0  0  0  0  0  0  0  0  0
    1.7326   -2.1176    0.0000 C   0  0  3  0  0  0  0  0  0  0  0  0
    3.1398   -1.2788    0.0000 O   0  0  0  0  0  0  0  0  0  0  0  0
    2.4522   -3.3323    0.0000 C   0  0  0  0  0  0  0  0  0  0  0  0
    1.0038   -0.8938    0.0000 C   0  0  0  0  0  0  0  0  0  0  0  0
    2.4110   -0.0459    0.0000 C   0  0  0  0  0  0  0  0  0  0  0  0
    3.8777   -2.5026    0.0000 C   0  0  0  0  0  0  0  0  0  0  0  0
    3.8823   -3.3277    0.0000 C   0  0  0  0  0  0  0  0  0  0  0  0
    1.6960    0.3438    0.0000 C   0  0  0  0  0  0  0  0  0  0  0  0
   -1.8013   -5.0602    0.0000 C   0  0  0  0  0  0  0  0  0  0  0  0
    3.1810   -3.7448    0.0000 C   0  0  0  0  0  0  0  0  0  0  0  0
    0.9947   -0.0734    0.0000 C   0  0  0  0  0  0  0  0  0  0  0  0
    1.0222   -2.5347    0.0000 C   0  0  0  0  0  0  0  0  0  0  0  0
   -1.7876   -5.8853    0.0000 C   0  0  0  0  0  0  0  0  0  0  0  0
    1.7372   -3.7677    0.0000 O   0  0  0  0  0  0  0  0  0  0  0  0
    0.2888   -1.3109    0.0000 O   0  0  0  0  0  0  0  0  0  0  0  0
    1.0359   -3.3598    0.0000 C   0  0  0  0  0  0  0  0  0  0  0  0
    0.3025   -2.1360    0.0000 C   0  0  0  0  0  0  0  0  0  0  0  0
   -0.3941   -3.3873    0.0000 C   0  0  0  0  0  0  0  0  0  0  0  0
   -0.4079   -2.5622    0.0000 C   0  0  0  0  0  0  0  0  0  0  0  0
    0.3209   -3.7860    0.0000 C   0  0  0  0  0  0  0  0  0  0  0  0
   -1.0954   -4.6386    0.0000 C   0  0  0  0  0  0  0  0  0  0  0  0
   -1.1092   -3.8089    0.0000 O   0  0  0  0  0  0  0  0  0  0  0  0
    3.4789   -4.0564    0.0000 C   0  0  0  0  0  0  0  0  0  0  0  0
    1.6822    1.1826    0.0000 C   0  0  0  0  0  0  0  0  0  0  0  0
    0.8663    0.3300    0.0000 C   0  0  0  0  0  0  0  0  0  0  0  0
    4.6111   -3.7310    0.0000 C   0  0  0  0  0  0  0  0  0  0  0  0
  2  5  1  0  0  0  0
  3  2  2  0  0  0  0
  3  6  1  0  0  0  0
  4  1  2  0  0  0  0
  5  1  1  0  0  0  0
  6  4  1  0  0  0  0
  7  1  1  0  0  0  0
  8  2  1  0  0  0  0
  9  3  1  0  0  0  0
  9 12  1  0  0  0  0
 10  4  1  0  0  0  0
 11 14  1  0  0  0  0
 11 10  1  0  0  0  0
 12 15  1  0  0  0  0
 13 25  1  0  0  0  0
 14  7  1  0  0  0  0
 15  8  1  0  0  0  0
 16  5  1  0  0  0  0
 17 13  3  0  0  0  0
 18  7  2  0  0  0  0
 19  8  2  0  0  0  0
 20 16  2  0  0  0  0
 21 16  1  0  0  0  0
 22 23  1  0  0  0  0
 23 21  2  0  0  0  0
 24 20  1  0  0  0  0
 24 22  2  0  0  0  0
 25 26  1  0  0  0  0
 26 22  1  0  0  0  0
 27 11  1  0  0  0  0
 28 12  1  0  0  0  0
 29 12  1  0  0  0  0
 30 11  1  0  0  0  0
M  END
>  <CdId>
1239

>  <Mol Weight>
404.4981

>  <Formula>
C26H28O4

>  <Click_ID>
CLK017A04 __  __  __

$$$$
CLK017B10 __  __  __
 OpenBabel03171413512D

 30 34  0  0  0  0  0  0  0  0999 V2000
   -0.6119   -2.2125    0.0000 N   0  0  0  0  0  0  0  0  0  0  0  0
   -1.2924   -1.7460    0.0000 C   0  0  0  0  0  0  0  0  0  0  0  0
   -0.8559   -3.0170    0.0000 C   0  0  0  0  0  0  0  0  0  0  0  0
   -2.5120   -1.6476    0.0000 C   0  0  3  0  0  0  0  0  0  0  0  0
   -2.8630   -1.0442    0.0000 C   0  0  3  0  0  0  0  0  0  0  0  0
   -1.9343   -2.2510    0.0000 C   0  0  3  0  0  0  0  0  0  0  0  0
   -1.6647   -3.0342    0.0000 C   0  0  3  0  0  0  0  0  0  0  0  0
   -2.7731   -2.0071    0.0000 C   0  0  3  0  0  0  0  0  0  0  0  0
   -2.5120   -2.7774    0.0000 C   0  0  3  0  0  0  0  0  0  0  0  0
   -2.1654   -1.0442    0.0000 C   0  0  0  0  0  0  0  0  0  0  0  0
    0.1712   -1.9386    0.0000 N   0  0  0  0  0  0  0  0  0  0  0  0
   -3.5776   -2.4950    0.0000 C   0  0  0  0  0  0  0  0  0  0  0  0
   -3.3508   -3.2866    0.0000 C   0  0  0  0  0  0  0  0  0  0  0  0
    3.1454   -1.6733    0.0000 C   0  0  0  0  0  0  0  0  0  0  0  0
    2.9828   -2.4821    0.0000 C   0  0  0  0  0  0  0  0  0  0  0  0
    2.5078   -1.1298    0.0000 C   0  0  0  0  0  0  0  0  0  0  0  0
    5.3279   -1.6733    0.0000 C   0  0  0  0  0  0  0  0  0  0  0  0
    5.9485   -2.2125    0.0000 C   0  0  0  0  0  0  0  0  0  0  0  0
   -1.3180   -0.9158    0.0000 O   0  0  0  0  0  0  0  0  0  0  0  0
   -0.3552   -3.6889    0.0000 O   0  0  0  0  0  0  0  0  0  0  0  0
    0.8003   -2.4821    0.0000 C   0  0  0  0  0  0  0  0  0  0  0  0
    1.5791   -2.2125    0.0000 C   0  0  0  0  0  0  0  0  0  0  0  0
    2.1997   -2.7517    0.0000 C   0  0  0  0  0  0  0  0  0  0  0  0
    1.7375   -1.3994    0.0000 C   0  0  0  0  0  0  0  0  0  0  0  0
    3.6204   -3.0427    0.0000 Cl  0  0  0  0  0  0  0  0  0  0  0  0
    3.9200   -1.4037    0.0000 O   0  0  0  0  0  0  0  0  0  0  0  0
    2.6704   -0.3210    0.0000 O   0  0  0  0  0  0  0  0  0  0  0  0
    4.5448   -1.9429    0.0000 C   0  0  0  0  0  0  0  0  0  0  0  0
    3.4450   -0.0428    0.0000 C   0  0  0  0  0  0  0  0  0  0  0  0
    3.5991    0.7660    0.0000 C   0  0  0  0  0  0  0  0  0  0  0  0
  2  1  1  0  0  0  0
  3  1  1  0  0  0  0
  4  9  1  0  0  0  0
  5  8  1  0  0  0  0
  5  4  1  0  0  0  0
  5 10  1  0  0  0  0
  6  2  1  0  0  0  0
  6  7  1  0  0  0  0
  7  3  1  0  0  0  0
  8  6  1  0  0  0  0
  9  7  1  0  0  0  0
 10  4  1  0  0  0  0
 11  1  1  0  0  0  0
 12  8  1  0  0  0  0
 13  9  1  0  0  0  0
 13 12  2  0  0  0  0
 14 16  1  0  0  0  0
 15 23  1  0  0  0  0
 15 14  2  0  0  0  0
 16 24  2  0  0  0  0
 17 28  1  0  0  0  0
 18 17  3  0  0  0  0
 19  2  2  0  0  0  0
 20  3  2  0  0  0  0
 21 11  2  0  0  0  0
 22 21  1  0  0  0  0
 23 22  2  0  0  0  0
 24 22  1  0  0  0  0
 25 15  1  0  0  0  0
 26 14  1  0  0  0  0
 27 16  1  0  0  0  0
 28 26  1  0  0  0  0
 29 27  1  0  0  0  0
 30 29  1  0  0  0  0
M  END
>  <CdId>
1255

>  <Mol Weight>
424.877

>  <Formula>
C23H21ClN2O4

>  <Click_ID>
CLK017B10 __  __  __

$$$$
CLK017D04 __  __  __
 OpenBabel03171413512D

 27 30  0  0  0  0  0  0  0  0999 V2000
    2.7819   -2.5207    0.0000 C   0  0  0  0  0  0  0  0  0  0  0  0
    2.0532   -1.2970    0.0000 C   0  0  0  0  0  0  0  0  0  0  0  0
    2.0670   -2.1174    0.0000 C   0  0  3  0  0  0  0  0  0  0  0  0
    2.7545   -0.8799    0.0000 C   0  0  0  0  0  0  0  0  0  0  0  0
    3.4923   -2.0945    0.0000 C   0  0  0  0  0  0  0  0  0  0  0  0
    3.4785   -1.2787    0.0000 O   0  0  0  0  0  0  0  0  0  0  0  0
    1.3520   -2.5345    0.0000 C   0  0  0  0  0  0  0  0  0  0  0  0
    1.3383   -0.8937    0.0000 C   0  0  0  0  0  0  0  0  0  0  0  0
    2.7911   -3.3319    0.0000 C   0  0  0  0  0  0  0  0  0  0  0  0
    1.3658   -3.3594    0.0000 C   0  0  0  0  0  0  0  0  0  0  0  0
   -1.4665   -5.0597    0.0000 C   0  0  0  0  0  0  0  0  0  0  0  0
    0.6600   -3.7856    0.0000 C   0  0  0  0  0  0  0  0  0  0  0  0
   -1.4528   -5.8846    0.0000 C   0  0  0  0  0  0  0  0  0  0  0  0
    0.6371   -2.1357    0.0000 C   0  0  0  0  0  0  0  0  0  0  0  0
   -0.0641   -3.3869    0.0000 C   0  0  0  0  0  0  0  0  0  0  0  0
    0.6233   -1.3108    0.0000 O   0  0  0  0  0  0  0  0  0  0  0  0
    2.0761   -3.7673    0.0000 O   0  0  0  0  0  0  0  0  0  0  0  0
   -0.0779   -2.5620    0.0000 C   0  0  0  0  0  0  0  0  0  0  0  0
    2.7498   -0.0459    0.0000 C   0  0  0  0  0  0  0  0  0  0  0  0
    4.2119   -2.5023    0.0000 C   0  0  0  0  0  0  0  0  0  0  0  0
    0.6737   -4.6106    0.0000 Br  0  0  0  0  0  0  0  0  0  0  0  0
   -0.7700   -3.8085    0.0000 O   0  0  0  0  0  0  0  0  0  0  0  0
   -0.7562   -4.6381    0.0000 C   0  0  0  0  0  0  0  0  0  0  0  0
    1.3245   -0.0734    0.0000 C   0  0  0  0  0  0  0  0  0  0  0  0
    3.5107   -3.7444    0.0000 C   0  0  0  0  0  0  0  0  0  0  0  0
    2.0257    0.3437    0.0000 C   0  0  0  0  0  0  0  0  0  0  0  0
    4.2210   -3.3273    0.0000 C   0  0  0  0  0  0  0  0  0  0  0  0
  2  3  1  0  0  0  0
  2  4  2  0  0  0  0
  3  1  1  0  0  0  0
  4  6  1  0  0  0  0
  5  1  2  0  0  0  0
  6  5  1  0  0  0  0
  7  3  1  0  0  0  0
  8  2  1  0  0  0  0
  9  1  1  0  0  0  0
 10  7  2  0  0  0  0
 11 23  1  0  0  0  0
 12 10  1  0  0  0  0
 12 15  2  0  0  0  0
 13 11  3  0  0  0  0
 14  7  1  0  0  0  0
 15 18  1  0  0  0  0
 16  8  2  0  0  0  0
 17  9  2  0  0  0  0
 18 14  2  0  0  0  0
 19  4  1  0  0  0  0
 20  5  1  0  0  0  0
 21 12  1  0  0  0  0
 22 15  1  0  0  0  0
 23 22  1  0  0  0  0
 24  8  1  0  0  0  0
 25  9  1  0  0  0  0
 26 19  1  0  0  0  0
 26 24  1  0  0  0  0
 27 25  1  0  0  0  0
 27 20  1  0  0  0  0
M  END
>  <CdId>
1269

>  <Mol Weight>
427.288

>  <Formula>
C22H19BrO4

>  <Click_ID>
CLK017D04 __  __  __

$$$$
CLK017E03 __  __  __
 OpenBabel03171413512D

 27 30  0  0  0  0  0  0  0  0999 V2000
    2.0672   -2.1176    0.0000 C   0  0  3  0  0  0  0  0  0  0  0  0
    2.7823   -2.5210    0.0000 C   0  0  0  0  0  0  0  0  0  0  0  0
    2.0535   -1.2972    0.0000 C   0  0  0  0  0  0  0  0  0  0  0  0
    2.7548   -0.8800    0.0000 C   0  0  0  0  0  0  0  0  0  0  0  0
    3.4927   -2.0947    0.0000 C   0  0  0  0  0  0  0  0  0  0  0  0
    3.4789   -1.2788    0.0000 O   0  0  0  0  0  0  0  0  0  0  0  0
    0.7884   -2.8785    0.0000 C   0  0  0  0  0  0  0  0  0  0  0  0
    1.3384   -0.8938    0.0000 C   0  0  0  0  0  0  0  0  0  0  0  0
    2.7914   -3.3323    0.0000 C   0  0  0  0  0  0  0  0  0  0  0  0
   -0.6829   -0.4171    0.0000 C   0  0  0  0  0  0  0  0  0  0  0  0
   -1.3979   -0.0184    0.0000 C   0  0  0  0  0  0  0  0  0  0  0  0
    0.0688   -2.4751    0.0000 C   0  0  0  0  0  0  0  0  0  0  0  0
    0.8022   -3.7035    0.0000 C   0  0  0  0  0  0  0  0  0  0  0  0
    0.6234   -1.3109    0.0000 O   0  0  0  0  0  0  0  0  0  0  0  0
    2.0763   -3.7677    0.0000 O   0  0  0  0  0  0  0  0  0  0  0  0
   -0.6417   -2.8923    0.0000 C   0  0  0  0  0  0  0  0  0  0  0  0
    0.0963   -4.1252    0.0000 C   0  0  0  0  0  0  0  0  0  0  0  0
    4.2123   -2.5026    0.0000 C   0  0  0  0  0  0  0  0  0  0  0  0
    2.7501   -0.0459    0.0000 C   0  0  0  0  0  0  0  0  0  0  0  0
   -0.6279   -3.7264    0.0000 C   0  0  0  0  0  0  0  0  0  0  0  0
    0.1009   -4.9549    0.0000 Cl  0  0  0  0  0  0  0  0  0  0  0  0
    0.0596   -1.6501    0.0000 O   0  0  0  0  0  0  0  0  0  0  0  0
   -0.6692   -1.2422    0.0000 C   0  0  0  0  0  0  0  0  0  0  0  0
    1.3247   -0.0734    0.0000 C   0  0  0  0  0  0  0  0  0  0  0  0
    3.5110   -3.7448    0.0000 C   0  0  0  0  0  0  0  0  0  0  0  0
    2.0260    0.3438    0.0000 C   0  0  0  0  0  0  0  0  0  0  0  0
    4.2215   -3.3277    0.0000 C   0  0  0  0  0  0  0  0  0  0  0  0
  2  1  1  0  0  0  0
  3  1  1  0  0  0  0
  4  3  2  0  0  0  0
  5  2  2  0  0  0  0
  5  6  1  0  0  0  0
  6  4  1  0  0  0  0
  7  1  1  0  0  0  0
  8  3  1  0  0  0  0
  9  2  1  0  0  0  0
 10 23  1  0  0  0  0
 11 10  3  0  0  0  0
 12  7  1  0  0  0  0
 13  7  2  0  0  0  0
 14  8  2  0  0  0  0
 15  9  2  0  0  0  0
 16 12  2  0  0  0  0
 17 13  1  0  0  0  0
 18  5  1  0  0  0  0
 19  4  1  0  0  0  0
 20 17  2  0  0  0  0
 20 16  1  0  0  0  0
 21 17  1  0  0  0  0
 22 12  1  0  0  0  0
 23 22  1  0  0  0  0
 24  8  1  0  0  0  0
 25  9  1  0  0  0  0
 26 24  1  0  0  0  0
 26 19  1  0  0  0  0
 27 25  1  0  0  0  0
 27 18  1  0  0  0  0
M  END
>  <CdId>
1278

>  <Mol Weight>
382.837

>  <Formula>
C22H19ClO4

>  <Click_ID>
CLK017E03 __  __  __

$$$$
CLK017F02 __  __  __
 OpenBabel03171413512D

 30 33  0  0  0  0  0  0  0  0999 V2000
    2.7817   -2.5205    0.0000 C   0  0  0  0  0  0  0  0  0  0  0  0
    2.0531   -1.2969    0.0000 C   0  0  0  0  0  0  0  0  0  0  0  0
    2.0668   -2.1172    0.0000 C   0  0  3  0  0  0  0  0  0  0  0  0
    2.7542   -0.8799    0.0000 C   0  0  0  0  0  0  0  0  0  0  0  0
    3.4920   -2.0943    0.0000 C   0  0  0  0  0  0  0  0  0  0  0  0
    3.4783   -1.2786    0.0000 O   0  0  0  0  0  0  0  0  0  0  0  0
    1.3519   -2.5343    0.0000 C   0  0  0  0  0  0  0  0  0  0  0  0
   -0.0641   -3.3866    0.0000 C   0  0  0  0  0  0  0  0  0  0  0  0
    0.6599   -3.7853    0.0000 C   0  0  0  0  0  0  0  0  0  0  0  0
   -0.0779   -2.5618    0.0000 C   0  0  0  0  0  0  0  0  0  0  0  0
    2.7909   -3.3317    0.0000 C   0  0  0  0  0  0  0  0  0  0  0  0
    1.3382   -0.8936    0.0000 C   0  0  0  0  0  0  0  0  0  0  0  0
    1.3657   -3.3592    0.0000 C   0  0  0  0  0  0  0  0  0  0  0  0
    0.6370   -2.1356    0.0000 C   0  0  0  0  0  0  0  0  0  0  0  0
   -1.4664   -5.0593    0.0000 C   0  0  0  0  0  0  0  0  0  0  0  0
   -1.4527   -5.8888    0.0000 C   0  0  0  0  0  0  0  0  0  0  0  0
    2.0760   -3.7670    0.0000 O   0  0  0  0  0  0  0  0  0  0  0  0
    0.6233   -1.3107    0.0000 O   0  0  0  0  0  0  0  0  0  0  0  0
    0.6737   -4.6102    0.0000 Br  0  0  0  0  0  0  0  0  0  0  0  0
   -0.7699   -3.8128    0.0000 O   0  0  0  0  0  0  0  0  0  0  0  0
    2.7496   -0.0459    0.0000 C   0  0  0  0  0  0  0  0  0  0  0  0
    4.2115   -2.5022    0.0000 C   0  0  0  0  0  0  0  0  0  0  0  0
   -0.7928   -2.1585    0.0000 O   0  0  0  0  0  0  0  0  0  0  0  0
   -0.7561   -4.6377    0.0000 C   0  0  0  0  0  0  0  0  0  0  0  0
    3.5104   -3.7441    0.0000 C   0  0  0  0  0  0  0  0  0  0  0  0
    1.3244   -0.0734    0.0000 C   0  0  0  0  0  0  0  0  0  0  0  0
    4.2207   -3.3270    0.0000 C   0  0  0  0  0  0  0  0  0  0  0  0
    2.0256    0.3437    0.0000 C   0  0  0  0  0  0  0  0  0  0  0  0
   -0.8065   -1.3336    0.0000 C   0  0  0  0  0  0  0  0  0  0  0  0
   -1.5352   -0.9257    0.0000 C   0  0  0  0  0  0  0  0  0  0  0  0
  2  3  1  0  0  0  0
  2  4  2  0  0  0  0
  3  1  1  0  0  0  0
  4  6  1  0  0  0  0
  5  1  2  0  0  0  0
  6  5  1  0  0  0  0
  7  3  1  0  0  0  0
  8 10  1  0  0  0  0
  9 13  1  0  0  0  0
  9  8  2  0  0  0  0
 10 14  2  0  0  0  0
 11  1  1  0  0  0  0
 12  2  1  0  0  0  0
 13  7  2  0  0  0  0
 14  7  1  0  0  0  0
 15 24  1  0  0  0  0
 16 15  3  0  0  0  0
 17 11  2  0  0  0  0
 18 12  2  0  0  0  0
 19  9  1  0  0  0  0
 20  8  1  0  0  0  0
 21  4  1  0  0  0  0
 22  5  1  0  0  0  0
 23 10  1  0  0  0  0
 24 20  1  0  0  0  0
 25 11  1  0  0  0  0
 26 12  1  0  0  0  0
 27 25  1  0  0  0  0
 27 22  1  0  0  0  0
 28 21  1  0  0  0  0
 28 26  1  0  0  0  0
 29 23  1  0  0  0  0
 30 29  1  0  0  0  0
M  END
>  <CdId>
1287

>  <Mol Weight>
471.34

>  <Formula>
C24H23BrO5

>  <Click_ID>
CLK017F02 __  __  __

$$$$
CLK018C03 __  __  __
 OpenBabel03171413512D

 23 24  0  0  0  0  0  0  0  0999 V2000
    2.5005   -2.9581    0.0000 C   0  0  0  0  0  0  0  0  0  0  0  0
    1.9513   -2.3507    0.0000 C   0  0  0  0  0  0  0  0  0  0  0  0
    0.8404   -1.1400    0.0000 C   0  0  0  0  0  0  0  0  0  0  0  0
    1.6475   -0.9611    0.0000 C   0  0  0  0  0  0  0  0  0  0  0  0
    0.5908   -1.9263    0.0000 C   0  0  0  0  0  0  0  0  0  0  0  0
    3.3118   -2.7833    0.0000 N   0  0  0  0  0  0  0  0  0  0  0  0
    2.2009   -1.5644    0.0000 C   0  0  0  0  0  0  0  0  0  0  0  0
    1.1525   -2.5337    0.0000 C   0  0  0  0  0  0  0  0  0  0  0  0
    6.0452   -3.6238    0.0000 C   0  0  0  0  0  0  0  0  0  0  0  0
    6.6068   -4.2312    0.0000 C   0  0  0  0  0  0  0  0  0  0  0  0
    2.2633   -3.7444    0.0000 O   0  0  0  0  0  0  0  0  0  0  0  0
    3.8734   -3.3867    0.0000 C   0  0  0  0  0  0  0  0  0  0  0  0
    5.2464   -3.8110    0.0000 C   0  0  0  0  0  0  0  0  0  0  0  0
    4.6847   -3.2119    0.0000 C   0  0  0  0  0  0  0  0  0  0  0  0
    0.2871   -0.5284    0.0000 O   0  0  0  0  0  0  0  0  0  0  0  0
    1.8972   -0.1747    0.0000 O   0  0  0  0  0  0  0  0  0  0  0  0
   -0.2080   -2.1094    0.0000 O   0  0  0  0  0  0  0  0  0  0  0  0
    4.1855   -4.7929    0.0000 C   0  0  0  0  0  0  0  0  0  0  0  0
    3.6238   -4.1855    0.0000 C   0  0  0  0  0  0  0  0  0  0  0  0
    4.9926   -4.6098    0.0000 C   0  0  0  0  0  0  0  0  0  0  0  0
    0.5284    0.2579    0.0000 C   0  0  0  0  0  0  0  0  0  0  0  0
    2.7002    0.0000    0.0000 C   0  0  0  0  0  0  0  0  0  0  0  0
   -0.7697   -1.5020    0.0000 C   0  0  0  0  0  0  0  0  0  0  0  0
  2  1  1  0  0  0  0
  3  5  1  0  0  0  0
  3  4  2  0  0  0  0
  4  7  1  0  0  0  0
  5  8  2  0  0  0  0
  6  1  1  0  0  0  0
  7  2  2  0  0  0  0
  8  2  1  0  0  0  0
  9 13  1  0  0  0  0
 10  9  3  0  0  0  0
 11  1  2  0  0  0  0
 12  6  1  0  0  0  0
 13 14  1  0  0  0  0
 13 20  2  0  0  0  0
 14 12  2  0  0  0  0
 15  3  1  0  0  0  0
 16  4  1  0  0  0  0
 17  5  1  0  0  0  0
 18 19  2  0  0  0  0
 19 12  1  0  0  0  0
 20 18  1  0  0  0  0
 21 15  1  0  0  0  0
 22 16  1  0  0  0  0
 23 17  1  0  0  0  0
M  END
>  <CdId>
1338

>  <Mol Weight>
311.3319

>  <Formula>
C18H17NO4

>  <Click_ID>
CLK018C03 __  __  __

$$$$
CLK019B05 __  __  __
 OpenBabel03171413512D

 16 16  0  0  0  0  0  0  0  0999 V2000
   -0.5625   -1.0625    0.0000 C   0  0  0  0  0  0  0  0  0  0  0  0
   -0.1500    0.2125    0.0000 C   0  0  0  0  0  0  0  0  0  0  0  0
   -0.5625   -1.8875    0.0000 N   0  0  0  0  0  0  0  0  0  0  0  0
    0.3375    0.8833    0.0000 C   0  0  0  0  0  0  0  0  0  0  0  0
   -1.2250   -0.5750    0.0000 O   0  0  0  0  0  0  0  0  0  0  0  0
   -0.9750    0.2125    0.0000 C   0  0  0  0  0  0  0  0  0  0  0  0
    0.1042   -0.5750    0.0000 O   0  0  0  0  0  0  0  0  0  0  0  0
   -1.2750   -2.2917    0.0000 C   0  0  0  0  0  0  0  0  0  0  0  0
   -1.9875   -1.8792    0.0000 C   0  0  0  0  0  0  0  0  0  0  0  0
   -2.7000   -2.2917    0.0000 C   0  0  0  0  0  0  0  0  0  0  0  0
   -3.4208   -1.8792    0.0000 Cl  0  0  0  0  0  0  0  0  0  0  0  0
   -1.9833   -3.5292    0.0000 C   0  0  0  0  0  0  0  0  0  0  0  0
   -1.2750   -3.1167    0.0000 C   0  0  0  0  0  0  0  0  0  0  0  0
   -1.7833    0.4333    0.0000 C   0  0  0  0  0  0  0  0  0  0  0  0
   -0.9833    1.0375    0.0000 C   0  0  0  0  0  0  0  0  0  0  0  0
   -2.7083   -3.1167    0.0000 C   0  0  0  0  0  0  0  0  0  0  0  0
  2  6  1  0  0  0  0
  3  1  1  0  0  0  0
  4  2  3  0  0  0  0
  5  1  1  0  0  0  0
  6  5  1  0  0  0  0
  7  1  2  0  0  0  0
  8  3  1  0  0  0  0
  9  8  2  0  0  0  0
 10  9  1  0  0  0  0
 11 10  1  0  0  0  0
 12 13  2  0  0  0  0
 13  8  1  0  0  0  0
 14  6  1  0  0  0  0
 15  6  1  0  0  0  0
 16 12  1  0  0  0  0
 16 10  2  0  0  0  0
M  END
>  <CdId>
1410

>  <Mol Weight>
237.682

>  <Formula>
C12H12ClNO2

>  <Click_ID>
CLK019B05 __  __  __

$$$$
CLK019E05 __  __  __
 OpenBabel03171413512D

 17 18  0  0  0  0  0  0  0  0999 V2000
    6.3875   -3.5542    0.0000 N   0  0  0  0  0  0  0  0  0  0  0  0
    4.9625   -3.5625    0.0000 C   0  0  0  0  0  0  0  0  0  0  0  0
    5.6750   -3.1500    0.0000 C   0  0  0  0  0  0  0  0  0  0  0  0
    4.9625   -4.3917    0.0000 N   0  0  0  0  0  0  0  0  0  0  0  0
    6.3917   -4.3792    0.0000 C   0  0  0  0  0  0  0  0  0  0  0  0
    5.6792   -4.8000    0.0000 N   0  0  0  0  0  0  0  0  0  0  0  0
    7.8167   -6.0375    0.0000 C   0  0  0  0  0  0  0  0  0  0  0  0
    8.5375   -6.4500    0.0000 C   0  0  0  0  0  0  0  0  0  0  0  0
    4.2500   -3.1542    0.0000 C   0  0  0  0  0  0  0  0  0  0  0  0
    7.1042   -4.8000    0.0000 S   0  0  0  0  0  0  0  0  0  0  0  0
    5.6667   -2.3250    0.0000 O   0  0  0  0  0  0  0  0  0  0  0  0
    7.1042   -5.6250    0.0000 C   0  0  0  0  0  0  0  0  0  0  0  0
    3.5292   -3.5667    0.0000 C   0  0  0  0  0  0  0  0  0  0  0  0
    4.2500   -2.3250    0.0000 C   0  0  0  0  0  0  0  0  0  0  0  0
    2.8167   -3.1542    0.0000 C   0  0  0  0  0  0  0  0  0  0  0  0
    3.5292   -1.9125    0.0000 C   0  0  0  0  0  0  0  0  0  0  0  0
    2.8167   -2.3250    0.0000 C   0  0  0  0  0  0  0  0  0  0  0  0
  2  3  1  0  0  0  0
  2  4  2  0  0  0  0
  3  1  2  0  0  0  0
  4  6  1  0  0  0  0
  5  1  1  0  0  0  0
  6  5  2  0  0  0  0
  7 12  1  0  0  0  0
  8  7  3  0  0  0  0
  9  2  1  0  0  0  0
 10  5  1  0  0  0  0
 11  3  1  0  0  0  0
 12 10  1  0  0  0  0
 13  9  2  0  0  0  0
 14  9  1  0  0  0  0
 15 13  1  0  0  0  0
 16 14  2  0  0  0  0
 17 16  1  0  0  0  0
 17 15  2  0  0  0  0
M  END
>  <CdId>
1440

>  <Mol Weight>
243.284

>  <Formula>
C12H9N3OS

>  <Click_ID>
CLK019E05 __  __  __

$$$$
CLK019F03 __  __  __
 OpenBabel03171413512D

 27 30  0  0  0  0  0  0  0  0999 V2000
    6.1354   -0.1676    0.0000 C   0  0  0  0  0  0  0  0  0  0  0  0
    5.3062   -0.1676    0.0000 C   0  0  3  0  0  0  0  0  0  0  0  0
    6.5500   -0.8837    0.0000 C   0  0  0  0  0  0  0  0  0  0  0  0
    4.8999   -0.8837    0.0000 C   0  0  0  0  0  0  0  0  0  0  0  0
    5.3062   -1.5998    0.0000 C   0  0  0  0  0  0  0  0  0  0  0  0
    4.8916    0.5528    0.0000 C   0  0  0  0  0  0  0  0  0  0  0  0
    6.1354   -1.5998    0.0000 O   0  0  0  0  0  0  0  0  0  0  0  0
    4.0749   -0.8837    0.0000 C   0  0  0  0  0  0  0  0  0  0  0  0
    4.8999   -2.3160    0.0000 C   0  0  0  0  0  0  0  0  0  0  0  0
    6.5500    0.5486    0.0000 C   0  0  0  0  0  0  0  0  0  0  0  0
    3.6603   -1.5998    0.0000 C   0  0  0  0  0  0  0  0  0  0  0  0
    4.0749   -2.3160    0.0000 C   0  0  0  0  0  0  0  0  0  0  0  0
    6.9647    1.2647    0.0000 N   0  0  0  0  0  0  0  0  0  0  0  0
    7.3541    1.9725    0.0000 C   0  0  0  0  0  0  0  0  0  0  0  0
    8.1708    1.9809    0.0000 C   0  0  0  0  0  0  0  0  0  0  0  0
    5.3062    1.2647    0.0000 C   0  0  0  0  0  0  0  0  0  0  0  0
    4.0707    0.5528    0.0000 C   0  0  0  0  0  0  0  0  0  0  0  0
    2.8520   -1.7757    0.0000 O   0  0  0  0  0  0  0  0  0  0  0  0
    3.5221   -2.9316    0.0000 O   0  0  0  0  0  0  0  0  0  0  0  0
    2.7683   -2.6007    0.0000 C   0  0  0  0  0  0  0  0  0  0  0  0
    7.3793   -0.8920    0.0000 N   0  0  0  0  0  0  0  0  0  0  0  0
    4.8916    1.9809    0.0000 C   0  0  0  0  0  0  0  0  0  0  0  0
    3.6561    1.2690    0.0000 C   0  0  0  0  0  0  0  0  0  0  0  0
    4.0624    1.9851    0.0000 C   0  0  0  0  0  0  0  0  0  0  0  0
    2.8311    1.2690    0.0000 Br  0  0  0  0  0  0  0  0  0  0  0  0
    6.1229    1.2647    0.0000 O   0  0  0  0  0  0  0  0  0  0  0  0
    6.5375    1.9725    0.0000 C   0  0  0  0  0  0  0  0  0  0  0  0
  2  1  1  0  0  0  0
  3  1  2  0  0  0  0
  4  2  1  0  0  0  0
  4  5  2  0  0  0  0
  5  7  1  0  0  0  0
  6  2  1  0  0  0  0
  7  3  1  0  0  0  0
  8  4  1  0  0  0  0
  9  5  1  0  0  0  0
 10  1  1  0  0  0  0
 11  8  2  0  0  0  0
 11 12  1  0  0  0  0
 12  9  2  0  0  0  0
 13 10  3  0  0  0  0
 14 27  1  0  0  0  0
 15 14  3  0  0  0  0
 16  6  2  0  0  0  0
 17  6  1  0  0  0  0
 18 11  1  0  0  0  0
 19 12  1  0  0  0  0
 20 18  1  0  0  0  0
 20 19  1  0  0  0  0
 21  3  1  0  0  0  0
 22 16  1  0  0  0  0
 22 24  2  0  0  0  0
 23 17  2  0  0  0  0
 24 23  1  0  0  0  0
 25 23  1  0  0  0  0
 26 16  1  0  0  0  0
 27 26  1  0  0  0  0
M  END
>  <CdId>
1448

>  <Mol Weight>
425.232

>  <Formula>
C20H13BrN2O4

>  <Click_ID>
CLK019F03 __  __  __

$$$$
CLK019F05 __  __  __
 OpenBabel03171413512D

 25 27  0  0  0  0  0  0  0  0999 V2000
    1.4500   -1.4542    0.0000 C   0  0  0  0  0  0  0  0  0  0  0  0
    1.4500   -0.6250    0.0000 C   0  0  0  0  0  0  0  0  0  0  0  0
    2.2417   -1.7125    0.0000 N   0  0  0  0  0  0  0  0  0  0  0  0
    0.7292   -1.8667    0.0000 N   0  0  0  0  0  0  0  0  0  0  0  0
    0.0167   -0.6250    0.0000 N   0  0  0  0  0  0  0  0  0  0  0  0
    2.2417   -0.3667    0.0000 N   0  0  0  0  0  0  0  0  0  0  0  0
    0.0167   -1.4542    0.0000 C   0  0  0  0  0  0  0  0  0  0  0  0
    0.7292   -0.2042    0.0000 C   0  0  0  0  0  0  0  0  0  0  0  0
    2.7292   -1.0417    0.0000 C   0  0  0  0  0  0  0  0  0  0  0  0
    2.4917    0.4208    0.0000 C   0  0  0  0  0  0  0  0  0  0  0  0
    4.7917   -1.7542    0.0000 C   0  0  0  0  0  0  0  0  0  0  0  0
   -0.6958   -1.8667    0.0000 O   0  0  0  0  0  0  0  0  0  0  0  0
    0.7292    0.6208    0.0000 O   0  0  0  0  0  0  0  0  0  0  0  0
    5.2042   -2.4667    0.0000 C   0  0  0  0  0  0  0  0  0  0  0  0
    3.5542   -1.0417    0.0000 O   0  0  0  0  0  0  0  0  0  0  0  0
    0.7292   -2.6917    0.0000 C   0  0  0  0  0  0  0  0  0  0  0  0
   -0.6958   -0.2125    0.0000 C   0  0  0  0  0  0  0  0  0  0  0  0
    3.3042    0.5958    0.0000 C   0  0  0  0  0  0  0  0  0  0  0  0
    4.9125    0.9375    0.0000 C   0  0  0  0  0  0  0  0  0  0  0  0
    5.7167    1.1083    0.0000 Cl  0  0  0  0  0  0  0  0  0  0  0  0
    3.8542   -0.0167    0.0000 C   0  0  0  0  0  0  0  0  0  0  0  0
    3.5542    1.3750    0.0000 C   0  0  0  0  0  0  0  0  0  0  0  0
    4.3542    1.5500    0.0000 C   0  0  0  0  0  0  0  0  0  0  0  0
    4.6542    0.1500    0.0000 C   0  0  0  0  0  0  0  0  0  0  0  0
    3.9667   -1.7542    0.0000 C   0  0  0  0  0  0  0  0  0  0  0  0
  2  1  2  0  0  0  0
  3  1  1  0  0  0  0
  4  1  1  0  0  0  0
  5  7  1  0  0  0  0
  6  2  1  0  0  0  0
  7  4  1  0  0  0  0
  8  2  1  0  0  0  0
  8  5  1  0  0  0  0
  9  3  2  0  0  0  0
  9  6  1  0  0  0  0
 10  6  1  0  0  0  0
 11 25  1  0  0  0  0
 12  7  2  0  0  0  0
 13  8  2  0  0  0  0
 14 11  3  0  0  0  0
 15  9  1  0  0  0  0
 16  4  1  0  0  0  0
 17  5  1  0  0  0  0
 18 10  1  0  0  0  0
 19 23  1  0  0  0  0
 20 19  1  0  0  0  0
 21 18  2  0  0  0  0
 22 18  1  0  0  0  0
 23 22  2  0  0  0  0
 24 21  1  0  0  0  0
 24 19  2  0  0  0  0
 25 15  1  0  0  0  0
M  END
>  <CdId>
1450

>  <Mol Weight>
358.779

>  <Formula>
C17H15ClN4O3

>  <Click_ID>
CLK019F05 __  __  __

$$$$
CLK020D06 __  __  __
 OpenBabel03171413512D

 25 27  0  0  0  0  0  0  0  0999 V2000
    5.5321    3.2816    0.0000 C   0  0  0  0  0  0  0  0  0  0  0  0
    4.8171    3.6941    0.0000 C   0  0  0  0  0  0  0  0  0  0  0  0
    5.6146    2.4566    0.0000 N   0  0  0  0  0  0  0  0  0  0  0  0
    6.2837    3.6116    0.0000 N   0  0  0  0  0  0  0  0  0  0  0  0
    4.1021    3.2816    0.0000 C   0  0  0  0  0  0  0  0  0  0  0  0
    4.1021    2.4566    0.0000 C   0  0  0  0  0  0  0  0  0  0  0  0
    4.8171    4.5054    0.0000 C   0  0  0  0  0  0  0  0  0  0  0  0
    6.4259    2.2871    0.0000 C   0  0  0  0  0  0  0  0  0  0  0  0
    6.8384    2.9975    0.0000 C   0  0  0  0  0  0  0  0  0  0  0  0
    4.8171    5.3304    0.0000 N   0  0  0  0  0  0  0  0  0  0  0  0
    1.2421    2.4566    0.0000 C   0  0  0  0  0  0  0  0  0  0  0  0
    0.5271    2.8691    0.0000 C   0  0  0  0  0  0  0  0  0  0  0  0
    3.3871    2.0441    0.0000 C   0  0  0  0  0  0  0  0  0  0  0  0
    4.8171    2.0441    0.0000 C   0  0  0  0  0  0  0  0  0  0  0  0
    3.3871    1.2191    0.0000 C   0  0  0  0  0  0  0  0  0  0  0  0
    4.8171    1.2191    0.0000 C   0  0  0  0  0  0  0  0  0  0  0  0
    4.1021    0.8066    0.0000 C   0  0  0  0  0  0  0  0  0  0  0  0
    2.6721    2.4566    0.0000 O   0  0  0  0  0  0  0  0  0  0  0  0
    1.9571    2.0441    0.0000 C   0  0  0  0  0  0  0  0  0  0  0  0
    5.5321    0.8066    0.0000 O   0  0  0  0  0  0  0  0  0  0  0  0
    6.8384    1.5766    0.0000 C   0  0  0  0  0  0  0  0  0  0  0  0
    7.6634    2.9975    0.0000 C   0  0  0  0  0  0  0  0  0  0  0  0
    5.5321   -0.0184    0.0000 C   0  0  0  0  0  0  0  0  0  0  0  0
    8.0759    2.2871    0.0000 C   0  0  0  0  0  0  0  0  0  0  0  0
    7.6634    1.5766    0.0000 C   0  0  0  0  0  0  0  0  0  0  0  0
  2  1  1  0  0  0  0
  3  1  2  0  0  0  0
  4  1  1  0  0  0  0
  5  2  2  0  0  0  0
  6  5  1  0  0  0  0
  7  2  1  0  0  0  0
  8  3  1  0  0  0  0
  8  9  2  0  0  0  0
  9  4  1  0  0  0  0
 10  7  3  0  0  0  0
 11 19  1  0  0  0  0
 12 11  3  0  0  0  0
 13  6  2  0  0  0  0
 14  6  1  0  0  0  0
 15 13  1  0  0  0  0
 15 17  2  0  0  0  0
 16 14  2  0  0  0  0
 17 16  1  0  0  0  0
 18 13  1  0  0  0  0
 19 18  1  0  0  0  0
 20 16  1  0  0  0  0
 21  8  1  0  0  0  0
 22  9  1  0  0  0  0
 23 20  1  0  0  0  0
 24 22  2  0  0  0  0
 24 25  1  0  0  0  0
 25 21  2  0  0  0  0
M  END
>  <CdId>
1511

>  <Mol Weight>
329.352

>  <Formula>
C20H15N3O2

>  <Click_ID>
CLK020D06 __  __  __

$$$$
CLK020G06 __  __  __
 OpenBabel03171413512D

 18 18  0  0  0  0  0  0  0  0999 V2000
    5.5454    1.7277    0.0000 C   0  0  0  0  0  0  0  0  0  0  0  0
    6.3290    1.9752    0.0000 C   0  0  0  0  0  0  0  0  0  0  0  0
    4.8854    2.2089    0.0000 C   0  0  0  0  0  0  0  0  0  0  0  0
    5.2979    0.9349    0.0000 C   0  0  0  0  0  0  0  0  0  0  0  0
    4.4730    0.9349    0.0000 S   0  0  0  0  0  0  0  0  0  0  0  0
    4.2117    1.7277    0.0000 C   0  0  0  0  0  0  0  0  0  0  0  0
    6.9477    1.4253    0.0000 N   0  0  0  0  0  0  0  0  0  0  0  0
    8.1805    0.9853    0.0000 C   0  0  0  0  0  0  0  0  0  0  0  0
    8.6342    0.2979    0.0000 C   0  0  0  0  0  0  0  0  0  0  0  0
    7.7314    1.6773    0.0000 C   0  0  0  0  0  0  0  0  0  0  0  0
    6.5078    2.7864    0.0000 O   0  0  0  0  0  0  0  0  0  0  0  0
    4.8854    3.0339    0.0000 C   0  0  0  0  0  0  0  0  0  0  0  0
    3.4281    1.9752    0.0000 C   0  0  0  0  0  0  0  0  0  0  0  0
    8.4601    2.0714    0.0000 C   0  0  0  0  0  0  0  0  0  0  0  0
    7.4106    2.4427    0.0000 C   0  0  0  0  0  0  0  0  0  0  0  0
    4.1705    3.4463    0.0000 C   0  0  0  0  0  0  0  0  0  0  0  0
    7.9055    3.1026    0.0000 C   0  0  0  0  0  0  0  0  0  0  0  0
    9.1613    1.6315    0.0000 C   0  0  0  0  0  0  0  0  0  0  0  0
  2  1  1  0  0  0  0
  3  1  1  0  0  0  0
  4  1  2  0  0  0  0
  5  4  1  0  0  0  0
  5  6  1  0  0  0  0
  6  3  2  0  0  0  0
  7  2  1  0  0  0  0
  8 10  1  0  0  0  0
  9  8  3  0  0  0  0
 10  7  1  0  0  0  0
 11  2  2  0  0  0  0
 12  3  1  0  0  0  0
 13  6  1  0  0  0  0
 14 10  1  0  0  0  0
 15 10  1  0  0  0  0
 16 12  1  0  0  0  0
 17 15  1  0  0  0  0
 18 14  1  0  0  0  0
M  END
>  <CdId>
1541

>  <Mol Weight>
263.398

>  <Formula>
C15H21NOS

>  <Click_ID>
CLK020G06 __  __  __

$$$$
CLK020H07 __  __  __
 OpenBabel03171413512D

 20 21  0  0  0  0  0  0  0  0999 V2000
    5.7440    1.2264    0.0000 C   0  0  0  0  0  0  0  0  0  0  0  0
    6.4573    1.6477    0.0000 C   0  0  0  0  0  0  0  0  0  0  0  0
    3.6041   -0.8427    0.0000 C   0  0  0  0  0  0  0  0  0  0  0  0
    4.3216   -1.2514    0.0000 N   0  0  0  0  0  0  0  0  0  0  0  0
    5.0349   -0.8384    0.0000 C   0  0  0  0  0  0  0  0  0  0  0  0
    3.5958   -0.0167    0.0000 O   0  0  0  0  0  0  0  0  0  0  0  0
    5.7482    0.4005    0.0000 C   0  0  0  0  0  0  0  0  0  0  0  0
    2.1691   -0.8427    0.0000 O   0  0  0  0  0  0  0  0  0  0  0  0
    2.8908   -1.2556    0.0000 C   0  0  0  0  0  0  0  0  0  0  0  0
    5.0349   -0.0125    0.0000 C   0  0  0  0  0  0  0  0  0  0  0  0
    1.4558   -1.2639    0.0000 C   0  0  0  0  0  0  0  0  0  0  0  0
    0.0292   -2.0941    0.0000 C   0  0  0  0  0  0  0  0  0  0  0  0
   -0.6883   -2.5070    0.0000 Cl  0  0  0  0  0  0  0  0  0  0  0  0
    1.4558   -2.0941    0.0000 C   0  0  0  0  0  0  0  0  0  0  0  0
    0.7425   -0.8510    0.0000 C   0  0  0  0  0  0  0  0  0  0  0  0
    0.7425   -2.5070    0.0000 C   0  0  0  0  0  0  0  0  0  0  0  0
    0.0292   -1.2639    0.0000 C   0  0  0  0  0  0  0  0  0  0  0  0
    6.4615   -0.8384    0.0000 C   0  0  0  0  0  0  0  0  0  0  0  0
    5.7482   -1.2514    0.0000 C   0  0  0  0  0  0  0  0  0  0  0  0
    6.4698   -0.0125    0.0000 C   0  0  0  0  0  0  0  0  0  0  0  0
  2  1  3  0  0  0  0
  3  4  1  0  0  0  0
  4  5  1  0  0  0  0
  5 10  1  0  0  0  0
  6  3  2  0  0  0  0
  7  1  1  0  0  0  0
  8  9  1  0  0  0  0
  9  3  1  0  0  0  0
 10  7  2  0  0  0  0
 11  8  1  0  0  0  0
 12 17  2  0  0  0  0
 13 12  1  0  0  0  0
 14 11  1  0  0  0  0
 15 11  2  0  0  0  0
 16 14  2  0  0  0  0
 16 12  1  0  0  0  0
 17 15  1  0  0  0  0
 18 20  2  0  0  0  0
 19 18  1  0  0  0  0
 19  5  2  0  0  0  0
 20  7  1  0  0  0  0
M  END
>  <CdId>
1552

>  <Mol Weight>
285.725

>  <Formula>
C16H12ClNO2

>  <Click_ID>
CLK020H07 __  __  __

$$$$
CLK020H11 __  __  __
 OpenBabel03171413512D

 18 19  0  0  0  0  0  0  0  0999 V2000
    2.3281   -0.4290    0.0000 C   0  0  0  0  0  0  0  0  0  0  0  0
   -0.5830    0.2999    0.0000 C   0  0  0  0  0  0  0  0  0  0  0  0
   -0.1707    1.0203    0.0000 C   0  0  0  0  0  0  0  0  0  0  0  0
    1.8908   -1.1287    0.0000 N   0  0  0  0  0  0  0  0  0  0  0  0
    1.9366    0.2957    0.0000 O   0  0  0  0  0  0  0  0  0  0  0  0
    1.0662   -1.1287    0.0000 C   0  0  0  0  0  0  0  0  0  0  0  0
    3.1528   -0.4540    0.0000 C   0  0  0  0  0  0  0  0  0  0  0  0
   -0.1707   -0.4123    0.0000 C   0  0  0  0  0  0  0  0  0  0  0  0
    0.6539   -0.4123    0.0000 C   0  0  0  0  0  0  0  0  0  0  0  0
    3.5901    0.2457    0.0000 C   0  0  0  0  0  0  0  0  0  0  0  0
   -0.1624   -1.8409    0.0000 C   0  0  0  0  0  0  0  0  0  0  0  0
    0.6539   -1.8409    0.0000 C   0  0  0  0  0  0  0  0  0  0  0  0
   -0.5830   -1.1287    0.0000 C   0  0  0  0  0  0  0  0  0  0  0  0
    4.4105    0.2207    0.0000 C   0  0  0  0  0  0  0  0  0  0  0  0
    3.1902    0.9704    0.0000 C   0  0  0  0  0  0  0  0  0  0  0  0
    3.6275    1.6700    0.0000 C   0  0  0  0  0  0  0  0  0  0  0  0
    4.8395    0.9204    0.0000 C   0  0  0  0  0  0  0  0  0  0  0  0
    4.4522    1.6450    0.0000 C   0  0  0  0  0  0  0  0  0  0  0  0
  2  8  1  0  0  0  0
  3  2  3  0  0  0  0
  4  1  1  0  0  0  0
  5  1  2  0  0  0  0
  6  4  1  0  0  0  0
  7  1  1  0  0  0  0
  8  9  1  0  0  0  0
  8 13  2  0  0  0  0
  9  6  2  0  0  0  0
 10  7  1  0  0  0  0
 11 12  2  0  0  0  0
 12  6  1  0  0  0  0
 13 11  1  0  0  0  0
 14 10  2  0  0  0  0
 15 10  1  0  0  0  0
 16 15  2  0  0  0  0
 17 14  1  0  0  0  0
 17 18  2  0  0  0  0
 18 16  1  0  0  0  0
M  END
>  <CdId>
1556

>  <Mol Weight>
235.2805

>  <Formula>
C16H13NO

>  <Click_ID>
CLK020H11 __  __  __

$$$$
CLK021C09 __  __  __
 OpenBabel03171413512D

 20 22  0  0  0  0  0  0  0  0999 V2000
    0.4719    1.5254    0.0000 C   0  0  0  0  0  0  0  0  0  0  0  0
    0.5634    2.3453    0.0000 N   0  0  0  0  0  0  0  0  0  0  0  0
    1.2277    1.1910    0.0000 N   0  0  0  0  0  0  0  0  0  0  0  0
    1.7774    1.8003    0.0000 C   0  0  0  0  0  0  0  0  0  0  0  0
    1.3651    2.5149    0.0000 C   0  0  0  0  0  0  0  0  0  0  0  0
    2.1850    0.1328    0.0000 C   0  0  0  0  0  0  0  0  0  0  0  0
    2.9684   -0.1283    0.0000 C   0  0  0  0  0  0  0  0  0  0  0  0
   -0.2427    1.1131    0.0000 C   0  0  0  0  0  0  0  0  0  0  0  0
    1.4017    0.3802    0.0000 C   0  0  0  0  0  0  0  0  0  0  0  0
   -0.9573    1.5254    0.0000 C   0  0  0  0  0  0  0  0  0  0  0  0
   -1.6720    1.1131    0.0000 C   0  0  0  0  0  0  0  0  0  0  0  0
    2.6019    1.8003    0.0000 C   0  0  0  0  0  0  0  0  0  0  0  0
    1.7774    3.2295    0.0000 C   0  0  0  0  0  0  0  0  0  0  0  0
   -2.3866    1.5254    0.0000 C   0  0  0  0  0  0  0  0  0  0  0  0
   -1.6720    0.2886    0.0000 C   0  0  0  0  0  0  0  0  0  0  0  0
    3.0142    2.5149    0.0000 C   0  0  0  0  0  0  0  0  0  0  0  0
    2.6019    3.2295    0.0000 C   0  0  0  0  0  0  0  0  0  0  0  0
   -2.3866   -0.1237    0.0000 C   0  0  0  0  0  0  0  0  0  0  0  0
   -3.0920    1.1131    0.0000 C   0  0  0  0  0  0  0  0  0  0  0  0
   -3.0920    0.2886    0.0000 C   0  0  0  0  0  0  0  0  0  0  0  0
  2  1  2  0  0  0  0
  3  1  1  0  0  0  0
  4  3  1  0  0  0  0
  5  2  1  0  0  0  0
  5  4  1  0  0  0  0
  6  9  1  0  0  0  0
  7  6  3  0  0  0  0
  8  1  1  0  0  0  0
  9  3  1  0  0  0  0
 10  8  1  0  0  0  0
 11 10  1  0  0  0  0
 12  4  2  0  0  0  0
 13  5  2  0  0  0  0
 14 11  2  0  0  0  0
 15 11  1  0  0  0  0
 16 12  1  0  0  0  0
 17 13  1  0  0  0  0
 17 16  2  0  0  0  0
 18 15  2  0  0  0  0
 19 14  1  0  0  0  0
 19 20  2  0  0  0  0
 20 18  1  0  0  0  0
M  END
>  <CdId>
1584

>  <Mol Weight>
260.333

>  <Formula>
C18H16N2

>  <Click_ID>
CLK021C09 __  __  __

$$$$
CLK021D07 __  __  __
 OpenBabel03171413512D

 19 21  0  0  0  0  0  0  0  0999 V2000
    3.6611    2.0207    0.0000 C   0  0  0  0  0  0  0  0  0  0  0  0
    3.1800    1.3563    0.0000 N   0  0  0  0  0  0  0  0  0  0  0  0
    3.1800    2.6896    0.0000 N   0  0  0  0  0  0  0  0  0  0  0  0
    4.4859    2.0207    0.0000 C   0  0  0  0  0  0  0  0  0  0  0  0
    2.3965    2.4331    0.0000 C   0  0  0  0  0  0  0  0  0  0  0  0
    2.3965    1.6083    0.0000 C   0  0  0  0  0  0  0  0  0  0  0  0
    2.8776    4.0826    0.0000 C   0  0  0  0  0  0  0  0  0  0  0  0
    2.3277    4.6921    0.0000 C   0  0  0  0  0  0  0  0  0  0  0  0
    4.8983    1.3059    0.0000 C   0  0  0  0  0  0  0  0  0  0  0  0
    3.4274    3.4732    0.0000 C   0  0  0  0  0  0  0  0  0  0  0  0
    4.4859    0.5911    0.0000 Br  0  0  0  0  0  0  0  0  0  0  0  0
    4.8983    2.7355    0.0000 C   0  0  0  0  0  0  0  0  0  0  0  0
    1.6817    2.8455    0.0000 C   0  0  0  0  0  0  0  0  0  0  0  0
    1.6817    1.1959    0.0000 C   0  0  0  0  0  0  0  0  0  0  0  0
    5.7230    1.3059    0.0000 C   0  0  0  0  0  0  0  0  0  0  0  0
    5.7230    2.7355    0.0000 C   0  0  0  0  0  0  0  0  0  0  0  0
    0.9669    2.4331    0.0000 C   0  0  0  0  0  0  0  0  0  0  0  0
    0.9669    1.6083    0.0000 C   0  0  0  0  0  0  0  0  0  0  0  0
    6.1354    2.0207    0.0000 C   0  0  0  0  0  0  0  0  0  0  0  0
  2  1  2  0  0  0  0
  3  1  1  0  0  0  0
  4  1  1  0  0  0  0
  5  3  1  0  0  0  0
  6  2  1  0  0  0  0
  6  5  1  0  0  0  0
  7 10  1  0  0  0  0
  8  7  3  0  0  0  0
  9  4  2  0  0  0  0
 10  3  1  0  0  0  0
 11  9  1  0  0  0  0
 12  4  1  0  0  0  0
 13  5  2  0  0  0  0
 14  6  2  0  0  0  0
 15  9  1  0  0  0  0
 15 19  2  0  0  0  0
 16 12  2  0  0  0  0
 17 13  1  0  0  0  0
 18 14  1  0  0  0  0
 18 17  2  0  0  0  0
 19 16  1  0  0  0  0
M  END
>  <CdId>
1592

>  <Mol Weight>
311.176

>  <Formula>
C16H11BrN2

>  <Click_ID>
CLK021D07 __  __  __

$$$$
CLK021D08 __  __  __
 OpenBabel03171413512D

 19 21  0  0  0  0  0  0  0  0999 V2000
    7.3934    2.6477    0.0000 C   0  0  0  0  0  0  0  0  0  0  0  0
    7.3109    1.8231    0.0000 N   0  0  0  0  0  0  0  0  0  0  0  0
    6.6422    2.9775    0.0000 N   0  0  0  0  0  0  0  0  0  0  0  0
    6.0879    2.3728    0.0000 C   0  0  0  0  0  0  0  0  0  0  0  0
    6.5001    1.6582    0.0000 C   0  0  0  0  0  0  0  0  0  0  0  0
    8.1080    3.0599    0.0000 C   0  0  0  0  0  0  0  0  0  0  0  0
    5.6802    4.0403    0.0000 C   0  0  0  0  0  0  0  0  0  0  0  0
    4.8969    4.2967    0.0000 C   0  0  0  0  0  0  0  0  0  0  0  0
    8.8226    2.6477    0.0000 C   0  0  0  0  0  0  0  0  0  0  0  0
    6.4727    3.7883    0.0000 C   0  0  0  0  0  0  0  0  0  0  0  0
    9.5372    3.0599    0.0000 C   0  0  0  0  0  0  0  0  0  0  0  0
    8.1080    3.8845    0.0000 C   0  0  0  0  0  0  0  0  0  0  0  0
    5.2633    2.3728    0.0000 C   0  0  0  0  0  0  0  0  0  0  0  0
    6.0879    0.9436    0.0000 C   0  0  0  0  0  0  0  0  0  0  0  0
    8.8226    4.2967    0.0000 C   0  0  0  0  0  0  0  0  0  0  0  0
    9.5372    3.8845    0.0000 C   0  0  0  0  0  0  0  0  0  0  0  0
   10.2518    2.6477    0.0000 C   0  0  0  0  0  0  0  0  0  0  0  0
    4.8511    1.6582    0.0000 C   0  0  0  0  0  0  0  0  0  0  0  0
    5.2633    0.9436    0.0000 C   0  0  0  0  0  0  0  0  0  0  0  0
  2  1  2  0  0  0  0
  3  1  1  0  0  0  0
  4  3  1  0  0  0  0
  5  2  1  0  0  0  0
  5  4  1  0  0  0  0
  6  1  1  0  0  0  0
  7 10  1  0  0  0  0
  8  7  3  0  0  0  0
  9  6  2  0  0  0  0
 10  3  1  0  0  0  0
 11  9  1  0  0  0  0
 11 16  2  0  0  0  0
 12  6  1  0  0  0  0
 13  4  2  0  0  0  0
 14  5  2  0  0  0  0
 15 12  2  0  0  0  0
 16 15  1  0  0  0  0
 17 11  1  0  0  0  0
 18 13  1  0  0  0  0
 19 14  1  0  0  0  0
 19 18  2  0  0  0  0
M  END
>  <CdId>
1593

>  <Mol Weight>
246.3065

>  <Formula>
C17H14N2

>  <Click_ID>
CLK021D08 __  __  __

$$$$
CLK021F09 __  __  __
 OpenBabel03171413512D

 19 21  0  0  0  0  0  0  0  0999 V2000
    3.9371    2.9241    0.0000 C   0  0  0  0  0  0  0  0  0  0  0  0
    3.8546    2.0991    0.0000 N   0  0  0  0  0  0  0  0  0  0  0  0
    3.1900    3.2541    0.0000 N   0  0  0  0  0  0  0  0  0  0  0  0
    2.6309    2.6400    0.0000 C   0  0  0  0  0  0  0  0  0  0  0  0
    3.0434    1.9250    0.0000 C   0  0  0  0  0  0  0  0  0  0  0  0
    4.6521    3.3366    0.0000 C   0  0  0  0  0  0  0  0  0  0  0  0
    2.2321    4.3175    0.0000 C   0  0  0  0  0  0  0  0  0  0  0  0
    1.4484    4.5650    0.0000 C   0  0  0  0  0  0  0  0  0  0  0  0
    3.0159    4.0654    0.0000 C   0  0  0  0  0  0  0  0  0  0  0  0
    5.3671    2.9241    0.0000 C   0  0  0  0  0  0  0  0  0  0  0  0
    1.8059    2.6400    0.0000 C   0  0  0  0  0  0  0  0  0  0  0  0
    4.6521    4.1616    0.0000 C   0  0  0  0  0  0  0  0  0  0  0  0
    2.6309    1.2191    0.0000 C   0  0  0  0  0  0  0  0  0  0  0  0
    5.3671    2.0991    0.0000 C   0  0  0  0  0  0  0  0  0  0  0  0
    6.0821    3.3366    0.0000 C   0  0  0  0  0  0  0  0  0  0  0  0
    1.3934    1.9250    0.0000 C   0  0  0  0  0  0  0  0  0  0  0  0
    5.3671    4.5650    0.0000 C   0  0  0  0  0  0  0  0  0  0  0  0
    1.8059    1.2191    0.0000 C   0  0  0  0  0  0  0  0  0  0  0  0
    6.0821    4.1616    0.0000 C   0  0  0  0  0  0  0  0  0  0  0  0
  2  1  2  0  0  0  0
  3  1  1  0  0  0  0
  4  3  1  0  0  0  0
  5  2  1  0  0  0  0
  5  4  1  0  0  0  0
  6  1  1  0  0  0  0
  7  9  1  0  0  0  0
  8  7  3  0  0  0  0
  9  3  1  0  0  0  0
 10  6  2  0  0  0  0
 11  4  2  0  0  0  0
 12  6  1  0  0  0  0
 13  5  2  0  0  0  0
 14 10  1  0  0  0  0
 15 10  1  0  0  0  0
 15 19  2  0  0  0  0
 16 11  1  0  0  0  0
 17 12  2  0  0  0  0
 18 13  1  0  0  0  0
 18 16  2  0  0  0  0
 19 17  1  0  0  0  0
M  END
>  <CdId>
1614

>  <Mol Weight>
246.3065

>  <Formula>
C17H14N2

>  <Click_ID>
CLK021F09 __  __  __

$$$$
CLK021H07 __  __  __
 OpenBabel03171413512D

 20 22  0  0  0  0  0  0  0  0999 V2000
    0.4719    1.5254    0.0000 C   0  0  0  0  0  0  0  0  0  0  0  0
    0.5634    2.3453    0.0000 N   0  0  0  0  0  0  0  0  0  0  0  0
    1.2277    1.1910    0.0000 N   0  0  0  0  0  0  0  0  0  0  0  0
    1.7774    1.8003    0.0000 C   0  0  0  0  0  0  0  0  0  0  0  0
    1.3651    2.5149    0.0000 C   0  0  0  0  0  0  0  0  0  0  0  0
   -0.2427    1.1131    0.0000 C   0  0  0  0  0  0  0  0  0  0  0  0
    2.1850    0.1328    0.0000 C   0  0  0  0  0  0  0  0  0  0  0  0
    2.9684   -0.1283    0.0000 C   0  0  0  0  0  0  0  0  0  0  0  0
   -0.9573    1.5254    0.0000 C   0  0  0  0  0  0  0  0  0  0  0  0
    1.4017    0.3802    0.0000 C   0  0  0  0  0  0  0  0  0  0  0  0
   -1.6720    1.1131    0.0000 C   0  0  0  0  0  0  0  0  0  0  0  0
    2.6019    1.8003    0.0000 C   0  0  0  0  0  0  0  0  0  0  0  0
    1.7774    3.2295    0.0000 C   0  0  0  0  0  0  0  0  0  0  0  0
   -2.3866    1.5254    0.0000 C   0  0  0  0  0  0  0  0  0  0  0  0
   -1.6720    0.2886    0.0000 C   0  0  0  0  0  0  0  0  0  0  0  0
    3.0142    2.5149    0.0000 C   0  0  0  0  0  0  0  0  0  0  0  0
    2.6019    3.2295    0.0000 C   0  0  0  0  0  0  0  0  0  0  0  0
   -2.3866   -0.1237    0.0000 C   0  0  0  0  0  0  0  0  0  0  0  0
   -3.0920    1.1131    0.0000 C   0  0  0  0  0  0  0  0  0  0  0  0
   -3.0920    0.2886    0.0000 C   0  0  0  0  0  0  0  0  0  0  0  0
  2  1  2  0  0  0  0
  3  1  1  0  0  0  0
  4  3  1  0  0  0  0
  5  2  1  0  0  0  0
  5  4  1  0  0  0  0
  6  1  1  0  0  0  0
  7 10  1  0  0  0  0
  8  7  3  0  0  0  0
  9  6  2  0  0  0  0
 10  3  1  0  0  0  0
 11  9  1  0  0  0  0
 12  4  2  0  0  0  0
 13  5  2  0  0  0  0
 14 11  2  0  0  0  0
 15 11  1  0  0  0  0
 16 12  1  0  0  0  0
 17 13  1  0  0  0  0
 17 16  2  0  0  0  0
 18 15  2  0  0  0  0
 19 14  1  0  0  0  0
 19 20  2  0  0  0  0
 20 18  1  0  0  0  0
M  END
>  <CdId>
1632

>  <Mol Weight>
258.3172

>  <Formula>
C18H14N2

>  <Click_ID>
CLK021H07 __  __  __

$$$$
CLK022B09 __  __  __
 OpenBabel03171413512D

 23 24  0  0  0  0  0  0  0  0999 V2000
    6.1612    1.3009    0.0000 C   0  0  0  0  0  0  0  0  0  0  0  0
    6.5735    2.0155    0.0000 N   0  0  0  0  0  0  0  0  0  0  0  0
    7.3980    2.0155    0.0000 C   0  0  0  0  0  0  0  0  0  0  0  0
    1.6262    2.0155    0.0000 C   0  0  0  0  0  0  0  0  0  0  0  0
    0.8017    2.0155    0.0000 C   0  0  0  0  0  0  0  0  0  0  0  0
    7.8103    1.3009    0.0000 C   0  0  0  0  0  0  0  0  0  0  0  0
    5.3367    1.3009    0.0000 C   0  0  0  0  0  0  0  0  0  0  0  0
    7.8103    2.7301    0.0000 C   0  0  0  0  0  0  0  0  0  0  0  0
    6.5735    0.5863    0.0000 O   0  0  0  0  0  0  0  0  0  0  0  0
    4.9244    2.0155    0.0000 C   0  0  0  0  0  0  0  0  0  0  0  0
    4.9244    0.5863    0.0000 C   0  0  0  0  0  0  0  0  0  0  0  0
    8.6348    2.7301    0.0000 C   0  0  0  0  0  0  0  0  0  0  0  0
    8.6348    1.3009    0.0000 C   0  0  0  0  0  0  0  0  0  0  0  0
    3.6876    1.3009    0.0000 C   0  0  0  0  0  0  0  0  0  0  0  0
    9.0471    2.0155    0.0000 C   0  0  0  0  0  0  0  0  0  0  0  0
    4.0998    0.5863    0.0000 C   0  0  0  0  0  0  0  0  0  0  0  0
    4.0998    2.0155    0.0000 C   0  0  0  0  0  0  0  0  0  0  0  0
    7.3980    3.4447    0.0000 O   0  0  0  0  0  0  0  0  0  0  0  0
    2.4508    2.0155    0.0000 C   0  0  0  0  0  0  0  0  0  0  0  0
    2.8630    1.3009    0.0000 O   0  0  0  0  0  0  0  0  0  0  0  0
    9.0471    0.5863    0.0000 O   0  0  0  0  0  0  0  0  0  0  0  0
    7.8103    4.1593    0.0000 C   0  0  0  0  0  0  0  0  0  0  0  0
    9.8716    0.5863    0.0000 C   0  0  0  0  0  0  0  0  0  0  0  0
  2  1  1  0  0  0  0
  3  2  1  0  0  0  0
  4 19  1  0  0  0  0
  5  4  3  0  0  0  0
  6  3  2  0  0  0  0
  7  1  1  0  0  0  0
  8  3  1  0  0  0  0
  9  1  2  0  0  0  0
 10  7  1  0  0  0  0
 11  7  2  0  0  0  0
 12  8  2  0  0  0  0
 13  6  1  0  0  0  0
 13 15  2  0  0  0  0
 14 16  2  0  0  0  0
 14 17  1  0  0  0  0
 15 12  1  0  0  0  0
 16 11  1  0  0  0  0
 17 10  2  0  0  0  0
 18  8  1  0  0  0  0
 19 20  1  0  0  0  0
 20 14  1  0  0  0  0
 21 13  1  0  0  0  0
 22 18  1  0  0  0  0
 23 21  1  0  0  0  0
M  END
>  <CdId>
1652

>  <Mol Weight>
311.3319

>  <Formula>
C18H17NO4

>  <Click_ID>
CLK022B09 __  __  __

$$$$
CLK022C08 __  __  __
 OpenBabel03171413512D

 21 22  0  0  0  0  0  0  0  0999 V2000
    6.2162    2.7026    0.0000 C   0  0  0  0  0  0  0  0  0  0  0  0
    6.6284    1.9789    0.0000 N   0  0  0  0  0  0  0  0  0  0  0  0
    7.4530    1.9789    0.0000 C   0  0  0  0  0  0  0  0  0  0  0  0
    1.6812    1.9789    0.0000 C   0  0  0  0  0  0  0  0  0  0  0  0
    0.8566    1.9789    0.0000 C   0  0  0  0  0  0  0  0  0  0  0  0
    7.8653    1.2643    0.0000 C   0  0  0  0  0  0  0  0  0  0  0  0
    5.3916    2.7026    0.0000 C   0  0  0  0  0  0  0  0  0  0  0  0
    6.6284    3.4172    0.0000 O   0  0  0  0  0  0  0  0  0  0  0  0
    8.6898    1.2643    0.0000 C   0  0  0  0  0  0  0  0  0  0  0  0
    7.8653    2.7026    0.0000 C   0  0  0  0  0  0  0  0  0  0  0  0
    4.9794    3.4172    0.0000 C   0  0  0  0  0  0  0  0  0  0  0  0
    4.9794    1.9789    0.0000 C   0  0  0  0  0  0  0  0  0  0  0  0
    9.1021    1.9789    0.0000 C   0  0  0  0  0  0  0  0  0  0  0  0
    3.7425    2.7026    0.0000 C   0  0  0  0  0  0  0  0  0  0  0  0
    8.6898    2.7026    0.0000 C   0  0  0  0  0  0  0  0  0  0  0  0
    4.1548    3.4172    0.0000 C   0  0  0  0  0  0  0  0  0  0  0  0
    4.1548    1.9789    0.0000 C   0  0  0  0  0  0  0  0  0  0  0  0
    9.9266    1.9789    0.0000 Cl  0  0  0  0  0  0  0  0  0  0  0  0
    2.5057    1.9789    0.0000 C   0  0  0  0  0  0  0  0  0  0  0  0
    2.9180    2.7026    0.0000 O   0  0  0  0  0  0  0  0  0  0  0  0
    7.4530    0.5497    0.0000 C   0  0  0  0  0  0  0  0  0  0  0  0
  2  1  1  0  0  0  0
  3  2  1  0  0  0  0
  4 19  1  0  0  0  0
  5  4  3  0  0  0  0
  6  3  1  0  0  0  0
  7  1  1  0  0  0  0
  8  1  2  0  0  0  0
  9  6  2  0  0  0  0
  9 13  1  0  0  0  0
 10  3  2  0  0  0  0
 11  7  2  0  0  0  0
 12  7  1  0  0  0  0
 13 15  2  0  0  0  0
 14 17  1  0  0  0  0
 14 16  2  0  0  0  0
 15 10  1  0  0  0  0
 16 11  1  0  0  0  0
 17 12  2  0  0  0  0
 18 13  1  0  0  0  0
 19 20  1  0  0  0  0
 20 14  1  0  0  0  0
 21  6  1  0  0  0  0
M  END
>  <CdId>
1659

>  <Mol Weight>
299.752

>  <Formula>
C17H14ClNO2

>  <Click_ID>
CLK022C08 __  __  __

$$$$
CLK022F05 __  __  __
 OpenBabel03171413512D

 23 25  0  0  0  0  0  0  0  0999 V2000
    4.4846    0.5726    0.0000 C   0  0  0  0  0  0  0  0  0  0  0  0
    4.0724    1.2872    0.0000 N   0  0  0  0  0  0  0  0  0  0  0  0
    2.0110    2.0018    0.0000 C   0  0  0  0  0  0  0  0  0  0  0  0
    9.0196   -0.1420    0.0000 C   0  0  0  0  0  0  0  0  0  0  0  0
    2.8355    2.0018    0.0000 C   0  0  0  0  0  0  0  0  0  0  0  0
    9.8442   -0.1420    0.0000 C   0  0  0  0  0  0  0  0  0  0  0  0
    5.3092    0.5726    0.0000 C   0  0  0  0  0  0  0  0  0  0  0  0
    1.5987    1.2872    0.0000 C   0  0  0  0  0  0  0  0  0  0  0  0
    3.2478    1.2872    0.0000 C   0  0  0  0  0  0  0  0  0  0  0  0
    1.5987    2.7164    0.0000 O   0  0  0  0  0  0  0  0  0  0  0  0
    4.0724   -0.1420    0.0000 O   0  0  0  0  0  0  0  0  0  0  0  0
    0.7742    1.2872    0.0000 O   0  0  0  0  0  0  0  0  0  0  0  0
    2.0110    0.5726    0.0000 C   0  0  0  0  0  0  0  0  0  0  0  0
    5.7214   -0.1420    0.0000 C   0  0  0  0  0  0  0  0  0  0  0  0
    5.7214    1.2872    0.0000 C   0  0  0  0  0  0  0  0  0  0  0  0
    2.8355    0.5726    0.0000 C   0  0  0  0  0  0  0  0  0  0  0  0
    6.9583    0.5726    0.0000 C   0  0  0  0  0  0  0  0  0  0  0  0
    6.5460    1.2872    0.0000 C   0  0  0  0  0  0  0  0  0  0  0  0
    6.5460   -0.1420    0.0000 C   0  0  0  0  0  0  0  0  0  0  0  0
    8.1951   -0.1420    0.0000 C   0  0  0  0  0  0  0  0  0  0  0  0
    7.7828    0.5726    0.0000 O   0  0  0  0  0  0  0  0  0  0  0  0
    0.7742    2.7164    0.0000 C   0  0  0  0  0  0  0  0  0  0  0  0
    0.3619    2.0018    0.0000 C   0  0  0  0  0  0  0  0  0  0  0  0
  2  1  1  0  0  0  0
  3  5  2  0  0  0  0
  3  8  1  0  0  0  0
  4 20  1  0  0  0  0
  5  9  1  0  0  0  0
  6  4  3  0  0  0  0
  7  1  1  0  0  0  0
  8 13  2  0  0  0  0
  9  2  1  0  0  0  0
 10  3  1  0  0  0  0
 11  1  2  0  0  0  0
 12  8  1  0  0  0  0
 13 16  1  0  0  0  0
 14  7  1  0  0  0  0
 15  7  2  0  0  0  0
 16  9  2  0  0  0  0
 17 18  2  0  0  0  0
 17 19  1  0  0  0  0
 18 15  1  0  0  0  0
 19 14  2  0  0  0  0
 20 21  1  0  0  0  0
 21 17  1  0  0  0  0
 22 10  1  0  0  0  0
 22 23  1  0  0  0  0
 23 12  1  0  0  0  0
M  END
>  <CdId>
1679

>  <Mol Weight>
309.316

>  <Formula>
C18H15NO4

>  <Click_ID>
CLK022F05 __  __  __

$$$$
CLK022G05 __  __  __
 OpenBabel03171413512D

 20 21  0  0  0  0  0  0  0  0999 V2000
    9.9770    0.8337    0.0000 C   0  0  0  0  0  0  0  0  0  0  0  0
    9.2624    1.2459    0.0000 N   0  0  0  0  0  0  0  0  0  0  0  0
    8.5478    0.8337    0.0000 C   0  0  0  0  0  0  0  0  0  0  0  0
    7.8331    1.2459    0.0000 N   0  0  0  0  0  0  0  0  0  0  0  0
   14.2555    2.4828    0.0000 C   0  0  0  0  0  0  0  0  0  0  0  0
   14.9701    2.8950    0.0000 C   0  0  0  0  0  0  0  0  0  0  0  0
   10.6824    1.2459    0.0000 C   0  0  0  0  0  0  0  0  0  0  0  0
    9.9770    0.0091    0.0000 O   0  0  0  0  0  0  0  0  0  0  0  0
   11.3970    0.8337    0.0000 C   0  0  0  0  0  0  0  0  0  0  0  0
   10.6824    2.0705    0.0000 C   0  0  0  0  0  0  0  0  0  0  0  0
    7.1185    0.8337    0.0000 C   0  0  0  0  0  0  0  0  0  0  0  0
   12.1116    2.0705    0.0000 C   0  0  0  0  0  0  0  0  0  0  0  0
   11.3970    2.4828    0.0000 C   0  0  0  0  0  0  0  0  0  0  0  0
   12.1116    1.2459    0.0000 C   0  0  0  0  0  0  0  0  0  0  0  0
   13.5408    2.0705    0.0000 C   0  0  0  0  0  0  0  0  0  0  0  0
   12.8262    2.4828    0.0000 O   0  0  0  0  0  0  0  0  0  0  0  0
    8.5478    0.0091    0.0000 C   0  0  0  0  0  0  0  0  0  0  0  0
    7.8331   -0.4031    0.0000 C   0  0  0  0  0  0  0  0  0  0  0  0
    7.1185    0.0091    0.0000 C   0  0  0  0  0  0  0  0  0  0  0  0
    6.4039    1.2459    0.0000 C   0  0  0  0  0  0  0  0  0  0  0  0
  2  1  1  0  0  0  0
  3  2  1  0  0  0  0
  4  3  1  0  0  0  0
  5 15  1  0  0  0  0
  6  5  3  0  0  0  0
  7  1  1  0  0  0  0
  8  1  2  0  0  0  0
  9  7  2  0  0  0  0
 10  7  1  0  0  0  0
 11  4  2  0  0  0  0
 12 13  1  0  0  0  0
 13 10  2  0  0  0  0
 14  9  1  0  0  0  0
 14 12  2  0  0  0  0
 15 16  1  0  0  0  0
 16 12  1  0  0  0  0
 17  3  2  0  0  0  0
 18 17  1  0  0  0  0
 19 18  2  0  0  0  0
 19 11  1  0  0  0  0
 20 11  1  0  0  0  0
M  END
>  <CdId>
1686

>  <Mol Weight>
266.2946

>  <Formula>
C16H14N2O2

>  <Click_ID>
CLK022G05 __  __  __

$$$$
CLK022G06 __  __  __
 OpenBabel03171413512D

 23 24  0  0  0  0  0  0  0  0999 V2000
    4.3221    0.9991    0.0000 C   0  0  0  0  0  0  0  0  0  0  0  0
    3.9096    1.7050    0.0000 N   0  0  0  0  0  0  0  0  0  0  0  0
    3.0846    1.7050    0.0000 C   0  0  0  0  0  0  0  0  0  0  0  0
    2.6721    2.4291    0.0000 C   0  0  0  0  0  0  0  0  0  0  0  0
    8.8596    0.2841    0.0000 C   0  0  0  0  0  0  0  0  0  0  0  0
    9.6846    0.2841    0.0000 C   0  0  0  0  0  0  0  0  0  0  0  0
    1.8471    2.4291    0.0000 C   0  0  0  0  0  0  0  0  0  0  0  0
    5.1471    0.9991    0.0000 C   0  0  0  0  0  0  0  0  0  0  0  0
    3.9096    0.2841    0.0000 O   0  0  0  0  0  0  0  0  0  0  0  0
    2.6721    0.9991    0.0000 C   0  0  0  0  0  0  0  0  0  0  0  0
    5.5596    0.2841    0.0000 C   0  0  0  0  0  0  0  0  0  0  0  0
    5.5596    1.7050    0.0000 C   0  0  0  0  0  0  0  0  0  0  0  0
    1.4346    1.7050    0.0000 C   0  0  0  0  0  0  0  0  0  0  0  0
    6.7971    0.9991    0.0000 C   0  0  0  0  0  0  0  0  0  0  0  0
    1.8471    0.9991    0.0000 C   0  0  0  0  0  0  0  0  0  0  0  0
    3.0846    3.1350    0.0000 O   0  0  0  0  0  0  0  0  0  0  0  0
    6.3846    1.7050    0.0000 C   0  0  0  0  0  0  0  0  0  0  0  0
    6.3846    0.2841    0.0000 C   0  0  0  0  0  0  0  0  0  0  0  0
    8.0346    0.2841    0.0000 C   0  0  0  0  0  0  0  0  0  0  0  0
    7.6221    0.9991    0.0000 O   0  0  0  0  0  0  0  0  0  0  0  0
    0.6096    1.7050    0.0000 O   0  0  0  0  0  0  0  0  0  0  0  0
    2.6721    3.8500    0.0000 C   0  0  0  0  0  0  0  0  0  0  0  0
    0.1971    0.9991    0.0000 C   0  0  0  0  0  0  0  0  0  0  0  0
  2  1  1  0  0  0  0
  3  2  1  0  0  0  0
  4  3  1  0  0  0  0
  5 19  1  0  0  0  0
  6  5  3  0  0  0  0
  7  4  2  0  0  0  0
  7 13  1  0  0  0  0
  8  1  1  0  0  0  0
  9  1  2  0  0  0  0
 10  3  2  0  0  0  0
 11  8  2  0  0  0  0
 12  8  1  0  0  0  0
 13 15  2  0  0  0  0
 14 17  1  0  0  0  0
 14 18  2  0  0  0  0
 15 10  1  0  0  0  0
 16  4  1  0  0  0  0
 17 12  2  0  0  0  0
 18 11  1  0  0  0  0
 19 20  1  0  0  0  0
 20 14  1  0  0  0  0
 21 13  1  0  0  0  0
 22 16  1  0  0  0  0
 23 21  1  0  0  0  0
M  END
>  <CdId>
1687

>  <Mol Weight>
311.3319

>  <Formula>
C18H17NO4

>  <Click_ID>
CLK022G06 __  __  __

$$$$
CLK022H02 __  __  __
 OpenBabel03171413512D

 19 19  0  0  0  0  0  0  0  0999 V2000
    3.7151    2.0018    0.0000 C   0  0  0  0  0  0  0  0  0  0  0  0
    1.7087    1.4108    0.0000 C   0  0  0  0  0  0  0  0  0  0  0  0
    3.0005    1.5895    0.0000 N   0  0  0  0  0  0  0  0  0  0  0  0
    4.4297    1.5895    0.0000 N   0  0  0  0  0  0  0  0  0  0  0  0
    1.1177    0.8337    0.0000 C   0  0  0  0  0  0  0  0  0  0  0  0
    2.2859    2.0018    0.0000 C   0  0  0  0  0  0  0  0  0  0  0  0
    3.7151    2.8263    0.0000 O   0  0  0  0  0  0  0  0  0  0  0  0
    5.1443    2.0018    0.0000 C   0  0  0  0  0  0  0  0  0  0  0  0
    5.8589    1.5895    0.0000 C   0  0  0  0  0  0  0  0  0  0  0  0
    6.5735    2.0018    0.0000 C   0  0  0  0  0  0  0  0  0  0  0  0
    7.2881    1.5895    0.0000 O   0  0  0  0  0  0  0  0  0  0  0  0
    5.8589    3.2386    0.0000 C   0  0  0  0  0  0  0  0  0  0  0  0
    5.1443    2.8263    0.0000 C   0  0  0  0  0  0  0  0  0  0  0  0
    2.7531    2.6751    0.0000 C   0  0  0  0  0  0  0  0  0  0  0  0
    1.6537    2.5240    0.0000 C   0  0  0  0  0  0  0  0  0  0  0  0
    6.5735    2.8263    0.0000 C   0  0  0  0  0  0  0  0  0  0  0  0
    8.0027    2.0018    0.0000 C   0  0  0  0  0  0  0  0  0  0  0  0
    1.8003    3.3485    0.0000 C   0  0  0  0  0  0  0  0  0  0  0  0
    2.4095    3.4172    0.0000 C   0  0  0  0  0  0  0  0  0  0  0  0
  2  6  1  0  0  0  0
  3  1  1  0  0  0  0
  4  1  1  0  0  0  0
  5  2  3  0  0  0  0
  6  3  1  0  0  0  0
  7  1  2  0  0  0  0
  8  4  1  0  0  0  0
  9  8  2  0  0  0  0
 10  9  1  0  0  0  0
 11 10  1  0  0  0  0
 12 13  2  0  0  0  0
 13  8  1  0  0  0  0
 14  6  1  0  0  0  0
 15  6  1  0  0  0  0
 16 12  1  0  0  0  0
 16 10  2  0  0  0  0
 17 11  1  0  0  0  0
 18 15  1  0  0  0  0
 19 14  1  0  0  0  0
M  END
>  <CdId>
1690

>  <Mol Weight>
260.3315

>  <Formula>
C15H20N2O2

>  <Click_ID>
CLK022H02 __  __  __

$$$$
CLK023G04 __  __  __
 OpenBabel03171413512D

 29 32  0  0  0  0  0  0  0  0999 V2000
    1.2602    0.1168    0.0000 N   0  0  0  0  0  0  0  0  0  0  0  0
   -0.1614    0.1030    0.0000 C   0  0  0  0  0  0  0  0  0  0  0  0
    0.5494    0.5219    0.0000 C   0  0  0  0  0  0  0  0  0  0  0  0
    1.2738   -0.7005    0.0000 C   0  0  0  0  0  0  0  0  0  0  0  0
    0.5631   -1.1193    0.0000 N   0  0  0  0  0  0  0  0  0  0  0  0
   -0.1545   -0.7245    0.0000 C   0  0  0  0  0  0  0  0  0  0  0  0
   -1.5898    0.0859    0.0000 C   0  0  0  0  0  0  0  0  0  0  0  0
   -0.8859    0.5116    0.0000 C   0  0  0  0  0  0  0  0  0  0  0  0
   -2.4825   -0.9236    0.0000 N   0  0  0  0  0  0  0  0  0  0  0  0
   -1.6722   -0.7485    0.0000 C   0  0  0  0  0  0  0  0  0  0  0  0
    1.9709    0.5356    0.0000 C   0  0  0  0  0  0  0  0  0  0  0  0
   -2.3383    0.4017    0.0000 C   0  0  0  0  0  0  0  0  0  0  0  0
   -2.8877   -0.2095    0.0000 C   0  0  0  0  0  0  0  0  0  0  0  0
    2.6920    0.1236    0.0000 C   0  0  0  0  0  0  0  0  0  0  0  0
   -3.6327   -1.7683    0.0000 C   0  0  0  0  0  0  0  0  0  0  0  0
    1.9846   -1.1056    0.0000 O   0  0  0  0  0  0  0  0  0  0  0  0
   -4.1169   -1.0987    0.0000 C   0  0  0  0  0  0  0  0  0  0  0  0
    0.5356    1.3459    0.0000 O   0  0  0  0  0  0  0  0  0  0  0  0
   -0.8618   -1.1365    0.0000 O   0  0  0  0  0  0  0  0  0  0  0  0
   -2.8087   -1.6722    0.0000 C   0  0  0  0  0  0  0  0  0  0  0  0
    3.3958    0.5494    0.0000 C   0  0  0  0  0  0  0  0  0  0  0  0
    1.9606    1.3529    0.0000 C   0  0  0  0  0  0  0  0  0  0  0  0
    4.1135    0.1374    0.0000 F   0  0  0  0  0  0  0  0  0  0  0  0
   -3.6945   -0.0377    0.0000 C   0  0  0  0  0  0  0  0  0  0  0  0
   -2.5958    1.1846    0.0000 C   0  0  0  0  0  0  0  0  0  0  0  0
    2.6714    1.7717    0.0000 C   0  0  0  0  0  0  0  0  0  0  0  0
    3.3958    1.3735    0.0000 C   0  0  0  0  0  0  0  0  0  0  0  0
   -3.4061    1.3597    0.0000 C   0  0  0  0  0  0  0  0  0  0  0  0
   -3.9555    0.7417    0.0000 C   0  0  0  0  0  0  0  0  0  0  0  0
  2  3  1  0  0  0  0
  2  6  1  0  0  0  0
  3  1  1  0  0  0  0
  4  1  1  0  0  0  0
  5  4  1  0  0  0  0
  6  5  1  0  0  0  0
  7  8  1  0  0  0  0
  8  2  2  0  0  0  0
  9 10  1  0  0  0  0
 10  7  2  0  0  0  0
 11  1  1  0  0  0  0
 12  7  1  0  0  0  0
 13 12  2  0  0  0  0
 13  9  1  0  0  0  0
 14 11  2  0  0  0  0
 15 20  1  0  0  0  0
 16  4  2  0  0  0  0
 17 15  3  0  0  0  0
 18  3  2  0  0  0  0
 19  6  2  0  0  0  0
 20  9  1  0  0  0  0
 21 14  1  0  0  0  0
 21 27  2  0  0  0  0
 22 11  1  0  0  0  0
 23 21  1  0  0  0  0
 24 13  1  0  0  0  0
 25 12  1  0  0  0  0
 26 22  2  0  0  0  0
 27 26  1  0  0  0  0
 28 25  2  0  0  0  0
 29 28  1  0  0  0  0
 29 24  2  0  0  0  0
M  END
>  <CdId>
1759

>  <Mol Weight>
387.3633

>  <Formula>
C22H14FN3O3

>  <Click_ID>
CLK023G04 __  __  __

$$$$
CLK023G10 __  __  __
 OpenBabel03171413512D

 30 33  0  0  0  0  0  0  0  0999 V2000
    0.3268   -0.5882    0.0000 C   0  0  0  0  0  0  0  0  0  0  0  0
    1.7544   -0.6260    0.0000 C   0  0  0  0  0  0  0  0  0  0  0  0
    2.6729    0.3406    0.0000 N   0  0  0  0  0  0  0  0  0  0  0  0
   -0.4093   -1.0010    0.0000 C   0  0  0  0  0  0  0  0  0  0  0  0
    1.0285   -1.0251    0.0000 C   0  0  0  0  0  0  0  0  0  0  0  0
    1.8611    0.1858    0.0000 C   0  0  0  0  0  0  0  0  0  0  0  0
   -1.1214   -0.5744    0.0000 N   0  0  0  0  0  0  0  0  0  0  0  0
    2.4974   -0.9769    0.0000 C   0  0  0  0  0  0  0  0  0  0  0  0
    3.0650   -0.3853    0.0000 C   0  0  0  0  0  0  0  0  0  0  0  0
   -2.5319    0.2752    0.0000 N   0  0  0  0  0  0  0  0  0  0  0  0
    0.3371    0.2339    0.0000 C   0  0  0  0  0  0  0  0  0  0  0  0
    0.3440    1.0595    0.0000 N   0  0  0  0  0  0  0  0  0  0  0  0
    3.8493    1.1524    0.0000 C   0  0  0  0  0  0  0  0  0  0  0  0
    4.6646    1.2109    0.0000 C   0  0  0  0  0  0  0  0  0  0  0  0
   -0.4197   -1.8266    0.0000 O   0  0  0  0  0  0  0  0  0  0  0  0
   -1.0974    0.2580    0.0000 C   0  0  0  0  0  0  0  0  0  0  0  0
   -1.8438   -0.9769    0.0000 C   0  0  0  0  0  0  0  0  0  0  0  0
   -2.5456   -0.5504    0.0000 C   0  0  0  0  0  0  0  0  0  0  0  0
   -1.8060    0.6776    0.0000 C   0  0  0  0  0  0  0  0  0  0  0  0
   -3.2439    0.7086    0.0000 C   0  0  0  0  0  0  0  0  0  0  0  0
    3.0272    1.0836    0.0000 C   0  0  0  0  0  0  0  0  0  0  0  0
    3.8631   -0.5744    0.0000 C   0  0  0  0  0  0  0  0  0  0  0  0
    2.7279   -1.7647    0.0000 C   0  0  0  0  0  0  0  0  0  0  0  0
   -3.9594    0.3027    0.0000 C   0  0  0  0  0  0  0  0  0  0  0  0
   -3.2233    1.5342    0.0000 C   0  0  0  0  0  0  0  0  0  0  0  0
    3.5294   -1.9608    0.0000 C   0  0  0  0  0  0  0  0  0  0  0  0
    4.0970   -1.3519    0.0000 C   0  0  0  0  0  0  0  0  0  0  0  0
   -4.6681    0.7396    0.0000 C   0  0  0  0  0  0  0  0  0  0  0  0
   -3.9284    1.9643    0.0000 C   0  0  0  0  0  0  0  0  0  0  0  0
   -4.6543    1.5618    0.0000 C   0  0  0  0  0  0  0  0  0  0  0  0
  2  5  1  0  0  0  0
  3  6  1  0  0  0  0
  3  9  1  0  0  0  0
  4  1  1  0  0  0  0
  5  1  2  0  0  0  0
  6  2  2  0  0  0  0
  7  4  1  0  0  0  0
  8  2  1  0  0  0  0
  9  8  2  0  0  0  0
 10 18  1  0  0  0  0
 10 19  1  0  0  0  0
 11  1  1  0  0  0  0
 12 11  3  0  0  0  0
 13 21  1  0  0  0  0
 14 13  3  0  0  0  0
 15  4  2  0  0  0  0
 16  7  1  0  0  0  0
 17  7  1  0  0  0  0
 18 17  1  0  0  0  0
 19 16  1  0  0  0  0
 20 10  1  0  0  0  0
 21  3  1  0  0  0  0
 22  9  1  0  0  0  0
 22 27  2  0  0  0  0
 23  8  1  0  0  0  0
 24 20  1  0  0  0  0
 25 20  2  0  0  0  0
 26 23  2  0  0  0  0
 27 26  1  0  0  0  0
 28 24  2  0  0  0  0
 28 30  1  0  0  0  0
 29 25  1  0  0  0  0
 30 29  2  0  0  0  0
M  END
>  <CdId>
1765

>  <Mol Weight>
394.4684

>  <Formula>
C25H22N4O

>  <Click_ID>
CLK023G10 __  __  __

$$$$
CLK023G11 __  __  __
 OpenBabel03171413512D

 26 27  0  0  0  0  0  0  0  0999 V2000
   -0.9976   -0.4591    0.0000 C   0  0  0  0  0  0  0  0  0  0  0  0
   -1.7776   -0.4660    0.0000 C   0  0  0  0  0  0  0  0  0  0  0  0
   -0.6248    0.3831    0.0000 C   0  0  0  0  0  0  0  0  0  0  0  0
    0.1933    0.3866    0.0000 C   0  0  0  0  0  0  0  0  0  0  0  0
   -0.6110   -1.1425    0.0000 C   0  0  0  0  0  0  0  0  0  0  0  0
    1.4221   -0.3072    0.0000 C   0  0  0  0  0  0  0  0  0  0  0  0
    0.6075   -0.3210    0.0000 C   0  0  0  0  0  0  0  0  0  0  0  0
   -0.2002   -1.7949    0.0000 N   0  0  0  0  0  0  0  0  0  0  0  0
   -2.2298   -1.1736    0.0000 N   0  0  0  0  0  0  0  0  0  0  0  0
    1.8225    0.4073    0.0000 C   0  0  0  0  0  0  0  0  0  0  0  0
    0.5799    1.1011    0.0000 C   0  0  0  0  0  0  0  0  0  0  0  0
    3.8763    1.1598    0.0000 C   0  0  0  0  0  0  0  0  0  0  0  0
    1.4048    1.1115    0.0000 C   0  0  0  0  0  0  0  0  0  0  0  0
    4.7047    1.1633    0.0000 C   0  0  0  0  0  0  0  0  0  0  0  0
   -2.3023    0.3348    0.0000 O   0  0  0  0  0  0  0  0  0  0  0  0
    0.1933   -1.0355    0.0000 Br  0  0  0  0  0  0  0  0  0  0  0  0
   -3.0548   -1.1425    0.0000 C   0  0  0  0  0  0  0  0  0  0  0  0
    2.6474    0.4177    0.0000 O   0  0  0  0  0  0  0  0  0  0  0  0
    1.8087    1.8363    0.0000 O   0  0  0  0  0  0  0  0  0  0  0  0
    3.0513    1.1459    0.0000 C   0  0  0  0  0  0  0  0  0  0  0  0
   -3.5035   -1.8432    0.0000 C   0  0  0  0  0  0  0  0  0  0  0  0
   -3.4414   -0.4073    0.0000 C   0  0  0  0  0  0  0  0  0  0  0  0
    2.6371    1.8467    0.0000 C   0  0  0  0  0  0  0  0  0  0  0  0
   -4.3112   -1.8122    0.0000 C   0  0  0  0  0  0  0  0  0  0  0  0
   -4.2698   -0.3659    0.0000 C   0  0  0  0  0  0  0  0  0  0  0  0
   -4.7081   -1.0735    0.0000 C   0  0  0  0  0  0  0  0  0  0  0  0
  2  1  1  0  0  0  0
  3  1  2  0  0  0  0
  4  3  1  0  0  0  0
  5  1  1  0  0  0  0
  6  7  1  0  0  0  0
  6 10  2  0  0  0  0
  7  4  2  0  0  0  0
  8  5  3  0  0  0  0
  9  2  1  0  0  0  0
 10 13  1  0  0  0  0
 11  4  1  0  0  0  0
 12 20  1  0  0  0  0
 13 11  2  0  0  0  0
 14 12  3  0  0  0  0
 15  2  2  0  0  0  0
 16  7  1  0  0  0  0
 17  9  1  0  0  0  0
 18 10  1  0  0  0  0
 19 13  1  0  0  0  0
 20 18  1  0  0  0  0
 21 17  1  0  0  0  0
 22 17  2  0  0  0  0
 23 19  1  0  0  0  0
 24 21  2  0  0  0  0
 24 26  1  0  0  0  0
 25 22  1  0  0  0  0
 26 25  2  0  0  0  0
M  END
>  <CdId>
1766

>  <Mol Weight>
411.249

>  <Formula>
C20H15BrN2O3

>  <Click_ID>
CLK023G11 __  __  __

$$$$
CLK024B02 __  __  __
 OpenBabel03171413512D

 28 29  0  0  0  0  0  0  0  0999 V2000
   -0.6983   -1.0939    0.0000 C   0  0  0  0  0  0  0  0  0  0  0  0
   -2.1326   -1.1110    0.0000 O   0  0  0  0  0  0  0  0  0  0  0  0
   -2.8619   -0.6983    0.0000 C   0  0  0  0  0  0  0  0  0  0  0  0
   -3.5670   -1.1180    0.0000 C   0  0  0  0  0  0  0  0  0  0  0  0
    2.8550   -0.6123    0.0000 C   0  0  0  0  0  0  0  0  0  0  0  0
    2.1086    1.4447    0.0000 C   0  0  0  0  0  0  0  0  0  0  0  0
    2.1052    2.2703    0.0000 C   0  0  0  0  0  0  0  0  0  0  0  0
    0.7224   -1.0732    0.0000 N   0  0  0  0  0  0  0  0  0  0  0  0
   -1.4206   -0.6879    0.0000 C   0  0  3  0  0  0  0  0  0  0  0  0
    2.1533   -1.0457    0.0000 C   0  0  0  0  0  0  0  0  0  0  0  0
   -4.2825   -0.7086    0.0000 C   0  0  0  0  0  0  0  0  0  0  0  0
    0.0000   -0.6742    0.0000 N   0  0  0  0  0  0  0  0  0  0  0  0
   -0.6914   -1.9159    0.0000 O   0  0  0  0  0  0  0  0  0  0  0  0
    3.5808   -1.0078    0.0000 C   0  0  0  0  0  0  0  0  0  0  0  0
    1.4344   -0.6467    0.0000 C   0  0  0  0  0  0  0  0  0  0  0  0
   -2.8688    0.1238    0.0000 C   0  0  0  0  0  0  0  0  0  0  0  0
   -4.2894    0.1170    0.0000 C   0  0  0  0  0  0  0  0  0  0  0  0
   -3.5670   -1.9469    0.0000 Cl  0  0  0  0  0  0  0  0  0  0  0  0
    2.8310    0.2167    0.0000 O   0  0  0  0  0  0  0  0  0  0  0  0
   -3.5808    0.5366    0.0000 C   0  0  0  0  0  0  0  0  0  0  0  0
   -5.0118    0.5263    0.0000 Cl  0  0  0  0  0  0  0  0  0  0  0  0
    4.2860   -0.5710    0.0000 O   0  0  0  0  0  0  0  0  0  0  0  0
    2.1223    0.6157    0.0000 C   0  0  0  0  0  0  0  0  0  0  0  0
    2.1705   -1.8678    0.0000 C   0  0  0  0  0  0  0  0  0  0  0  0
    2.8929   -2.2668    0.0000 C   0  0  0  0  0  0  0  0  0  0  0  0
    3.6015   -1.8300    0.0000 C   0  0  0  0  0  0  0  0  0  0  0  0
   -1.4344    0.1376    0.0000 C   0  0  0  0  0  0  0  0  0  0  0  0
    5.0118   -0.9597    0.0000 C   0  0  0  0  0  0  0  0  0  0  0  0
  2  9  1  0  0  0  0
  3  2  1  0  0  0  0
  4  3  1  0  0  0  0
  5 10  1  0  0  0  0
  6 23  1  0  0  0  0
  7  6  3  0  0  0  0
  8 12  1  0  0  0  0
  9  1  1  0  0  0  0
 10 15  1  0  0  0  0
 11  4  2  0  0  0  0
 11 17  1  0  0  0  0
 12  1  1  0  0  0  0
 13  1  2  0  0  0  0
 14  5  2  0  0  0  0
 14 26  1  0  0  0  0
 15  8  2  0  0  0  0
 16  3  2  0  0  0  0
 17 20  2  0  0  0  0
 18  4  1  0  0  0  0
 19  5  1  0  0  0  0
 20 16  1  0  0  0  0
 21 17  1  0  0  0  0
 22 14  1  0  0  0  0
 23 19  1  0  0  0  0
 24 10  2  0  0  0  0
 25 24  1  0  0  0  0
 26 25  2  0  0  0  0
 27  9  1  0  0  0  0
 28 22  1  0  0  0  0
M  END
>  <CdId>
1787

>  <Mol Weight>
421.274

>  <Formula>
C20H18Cl2N2O4

>  <Click_ID>
CLK024B02 __  __  __

$$$$
CLK025A05 __  __  __
 OpenBabel03171413512D

 24 26  0  0  0  0  0  0  0  0999 V2000
    0.9586    0.3024    0.0000 C   0  0  0  0  0  0  0  0  0  0  0  0
    1.0410   -0.5119    0.0000 C   0  0  0  0  0  0  0  0  0  0  0  0
    1.8416   -0.6906    0.0000 N   0  0  0  0  0  0  0  0  0  0  0  0
    1.7042    0.6425    0.0000 C   0  0  0  0  0  0  0  0  0  0  0  0
    2.2539    0.0241    0.0000 C   0  0  0  0  0  0  0  0  0  0  0  0
    0.2439    0.7147    0.0000 N   0  0  0  0  0  0  0  0  0  0  0  0
    0.2439    1.5393    0.0000 N   0  0  0  0  0  0  0  0  0  0  0  0
   -0.4673    1.9516    0.0000 C   0  0  0  0  0  0  0  0  0  0  0  0
    1.6904   -2.1027    0.0000 C   0  0  0  0  0  0  0  0  0  0  0  0
    1.2128   -2.7727    0.0000 C   0  0  0  0  0  0  0  0  0  0  0  0
    0.4294   -1.0617    0.0000 O   0  0  0  0  0  0  0  0  0  0  0  0
   -1.1819    1.5393    0.0000 C   0  0  0  0  0  0  0  0  0  0  0  0
    2.1817   -1.4396    0.0000 C   0  0  0  0  0  0  0  0  0  0  0  0
   -0.4673    2.7761    0.0000 O   0  0  0  0  0  0  0  0  0  0  0  0
   -1.9069    1.9619    0.0000 C   0  0  0  0  0  0  0  0  0  0  0  0
   -1.1819    0.7112    0.0000 C   0  0  0  0  0  0  0  0  0  0  0  0
   -2.6112    0.7112    0.0000 C   0  0  0  0  0  0  0  0  0  0  0  0
    1.9652    1.4259    0.0000 C   0  0  0  0  0  0  0  0  0  0  0  0
   -1.9069    0.2989    0.0000 C   0  0  0  0  0  0  0  0  0  0  0  0
   -2.6112    1.5393    0.0000 C   0  0  0  0  0  0  0  0  0  0  0  0
   -3.3258    0.2989    0.0000 F   0  0  0  0  0  0  0  0  0  0  0  0
    3.0648    0.1924    0.0000 C   0  0  0  0  0  0  0  0  0  0  0  0
    2.7727    1.5908    0.0000 C   0  0  0  0  0  0  0  0  0  0  0  0
    3.3224    0.9860    0.0000 C   0  0  0  0  0  0  0  0  0  0  0  0
  2  1  1  0  0  0  0
  3  2  1  0  0  0  0
  4  1  1  0  0  0  0
  5  4  2  0  0  0  0
  5  3  1  0  0  0  0
  6  1  2  0  0  0  0
  7  6  1  0  0  0  0
  8  7  1  0  0  0  0
  9 13  1  0  0  0  0
 10  9  3  0  0  0  0
 11  2  2  0  0  0  0
 12  8  1  0  0  0  0
 13  3  1  0  0  0  0
 14  8  2  0  0  0  0
 15 12  1  0  0  0  0
 16 12  2  0  0  0  0
 17 19  2  0  0  0  0
 17 20  1  0  0  0  0
 18  4  1  0  0  0  0
 19 16  1  0  0  0  0
 20 15  2  0  0  0  0
 21 17  1  0  0  0  0
 22  5  1  0  0  0  0
 23 18  2  0  0  0  0
 24 23  1  0  0  0  0
 24 22  2  0  0  0  0
M  END
>  <CdId>
1860

>  <Mol Weight>
321.3052

>  <Formula>
C18H12FN3O2

>  <Click_ID>
CLK025A05 __  __  __

$$$$
CLK025B05 __  __  __
 OpenBabel03171413512D

 25 27  0  0  0  0  0  0  0  0999 V2000
    1.3149    0.9019    0.0000 C   0  0  0  0  0  0  0  0  0  0  0  0
    1.3975    0.0758    0.0000 C   0  0  0  0  0  0  0  0  0  0  0  0
    2.2099   -0.0998    0.0000 N   0  0  0  0  0  0  0  0  0  0  0  0
    2.0721    1.2288    0.0000 C   0  0  0  0  0  0  0  0  0  0  0  0
    2.6195    0.6161    0.0000 C   0  0  0  0  0  0  0  0  0  0  0  0
    0.5989    1.3115    0.0000 N   0  0  0  0  0  0  0  0  0  0  0  0
   -1.5455    0.9019    0.0000 C   0  0  0  0  0  0  0  0  0  0  0  0
   -0.8330    1.3115    0.0000 C   0  0  0  0  0  0  0  0  0  0  0  0
   -1.5455    0.0654    0.0000 C   0  0  0  0  0  0  0  0  0  0  0  0
   -0.1171    0.9019    0.0000 N   0  0  0  0  0  0  0  0  0  0  0  0
    2.0584   -1.5215    0.0000 C   0  0  0  0  0  0  0  0  0  0  0  0
   -2.2615    1.3115    0.0000 C   0  0  0  0  0  0  0  0  0  0  0  0
    1.5765   -2.1824    0.0000 C   0  0  0  0  0  0  0  0  0  0  0  0
   -2.2615   -0.3476    0.0000 C   0  0  0  0  0  0  0  0  0  0  0  0
    0.7917   -0.4750    0.0000 O   0  0  0  0  0  0  0  0  0  0  0  0
    2.5472   -0.8468    0.0000 C   0  0  0  0  0  0  0  0  0  0  0  0
   -0.8330    2.1376    0.0000 O   0  0  0  0  0  0  0  0  0  0  0  0
   -2.9775    0.0654    0.0000 C   0  0  0  0  0  0  0  0  0  0  0  0
   -0.8330   -0.3476    0.0000 Cl  0  0  0  0  0  0  0  0  0  0  0  0
   -2.9775    0.9019    0.0000 C   0  0  0  0  0  0  0  0  0  0  0  0
    2.3269    2.0137    0.0000 C   0  0  0  0  0  0  0  0  0  0  0  0
   -3.6934   -0.3476    0.0000 Cl  0  0  0  0  0  0  0  0  0  0  0  0
    3.4319    0.7917    0.0000 C   0  0  0  0  0  0  0  0  0  0  0  0
    3.1289    2.1857    0.0000 C   0  0  0  0  0  0  0  0  0  0  0  0
    3.6900    1.5731    0.0000 C   0  0  0  0  0  0  0  0  0  0  0  0
  2  1  1  0  0  0  0
  3  2  1  0  0  0  0
  3  5  1  0  0  0  0
  4  1  1  0  0  0  0
  5  4  2  0  0  0  0
  6  1  2  0  0  0  0
  7  8  1  0  0  0  0
  8 10  1  0  0  0  0
  9  7  2  0  0  0  0
 10  6  1  0  0  0  0
 11 16  1  0  0  0  0
 12  7  1  0  0  0  0
 13 11  3  0  0  0  0
 14  9  1  0  0  0  0
 14 18  2  0  0  0  0
 15  2  2  0  0  0  0
 16  3  1  0  0  0  0
 17  8  2  0  0  0  0
 18 20  1  0  0  0  0
 19  9  1  0  0  0  0
 20 12  2  0  0  0  0
 21  4  1  0  0  0  0
 22 18  1  0  0  0  0
 23  5  1  0  0  0  0
 23 25  2  0  0  0  0
 24 21  2  0  0  0  0
 25 24  1  0  0  0  0
M  END
>  <CdId>
1870

>  <Mol Weight>
372.205

>  <Formula>
C18H11Cl2N3O2

>  <Click_ID>
CLK025B05 __  __  __

$$$$
CLK025C04 __  __  __
 OpenBabel03171413512D

 27 29  0  0  0  0  0  0  0  0999 V2000
    1.1818   -0.7077    0.0000 C   0  0  0  0  0  0  0  0  0  0  0  0
    1.7006   -1.3537    0.0000 C   0  0  0  0  0  0  0  0  0  0  0  0
    1.6319   -0.0206    0.0000 C   0  0  0  0  0  0  0  0  0  0  0  0
    2.4702   -1.0581    0.0000 N   0  0  0  0  0  0  0  0  0  0  0  0
    2.4289   -0.2336    0.0000 C   0  0  0  0  0  0  0  0  0  0  0  0
    0.3573   -0.7559    0.0000 N   0  0  0  0  0  0  0  0  0  0  0  0
   -1.0719   -0.7559    0.0000 C   0  0  0  0  0  0  0  0  0  0  0  0
   -0.3573   -0.3436    0.0000 N   0  0  0  0  0  0  0  0  0  0  0  0
    3.8994   -1.1338    0.0000 C   0  0  0  0  0  0  0  0  0  0  0  0
    3.0096    0.3504    0.0000 C   0  0  0  0  0  0  0  0  0  0  0  0
    4.6312   -0.7559    0.0000 C   0  0  0  0  0  0  0  0  0  0  0  0
    1.4155    0.7765    0.0000 C   0  0  0  0  0  0  0  0  0  0  0  0
    1.4842   -2.1507    0.0000 O   0  0  0  0  0  0  0  0  0  0  0  0
    3.1607   -1.5048    0.0000 C   0  0  0  0  0  0  0  0  0  0  0  0
   -1.0719   -1.5804    0.0000 O   0  0  0  0  0  0  0  0  0  0  0  0
   -3.2157    0.4810    0.0000 C   0  0  0  0  0  0  0  0  0  0  0  0
   -1.7865   -0.3436    0.0000 C   0  0  0  0  0  0  0  0  0  0  0  0
   -1.7865    0.4810    0.0000 O   0  0  0  0  0  0  0  0  0  0  0  0
    1.9927    1.3605    0.0000 C   0  0  0  0  0  0  0  0  0  0  0  0
   -2.5011    0.8932    0.0000 C   0  0  0  0  0  0  0  0  0  0  0  0
    2.7897    1.1509    0.0000 C   0  0  0  0  0  0  0  0  0  0  0  0
   -3.9304    0.8932    0.0000 C   0  0  0  0  0  0  0  0  0  0  0  0
    1.7831    2.1541    0.0000 Br  0  0  0  0  0  0  0  0  0  0  0  0
   -4.6346    0.4913    0.0000 Cl  0  0  0  0  0  0  0  0  0  0  0  0
   -3.2054    2.1300    0.0000 C   0  0  0  0  0  0  0  0  0  0  0  0
   -2.4908    1.7178    0.0000 C   0  0  0  0  0  0  0  0  0  0  0  0
   -3.9304    1.7178    0.0000 C   0  0  0  0  0  0  0  0  0  0  0  0
  2  1  1  0  0  0  0
  3  1  1  0  0  0  0
  4  2  1  0  0  0  0
  4  5  1  0  0  0  0
  5  3  2  0  0  0  0
  6  1  2  0  0  0  0
  7  8  1  0  0  0  0
  8  6  1  0  0  0  0
  9 14  1  0  0  0  0
 10  5  1  0  0  0  0
 10 21  2  0  0  0  0
 11  9  3  0  0  0  0
 12  3  1  0  0  0  0
 13  2  2  0  0  0  0
 14  4  1  0  0  0  0
 15  7  2  0  0  0  0
 16 20  2  0  0  0  0
 17  7  1  0  0  0  0
 18 17  1  0  0  0  0
 19 12  2  0  0  0  0
 20 18  1  0  0  0  0
 21 19  1  0  0  0  0
 22 16  1  0  0  0  0
 23 19  1  0  0  0  0
 24 22  1  0  0  0  0
 25 26  2  0  0  0  0
 26 20  1  0  0  0  0
 27 25  1  0  0  0  0
 27 22  2  0  0  0  0
M  END
>  <CdId>
1879

>  <Mol Weight>
446.682

>  <Formula>
C19H13BrClN3O3

>  <Click_ID>
CLK025C04 __  __  __

$$$$
CLK025D04 __  __  __
 OpenBabel03171413512D

 26 28  0  0  0  0  0  0  0  0999 V2000
    2.0322    0.8975    0.0000 C   0  0  0  0  0  0  0  0  0  0  0  0
    2.1148    0.0825    0.0000 C   0  0  0  0  0  0  0  0  0  0  0  0
    2.9229   -0.0928    0.0000 N   0  0  0  0  0  0  0  0  0  0  0  0
    2.7853    1.2379    0.0000 C   0  0  0  0  0  0  0  0  0  0  0  0
    3.3320    0.6190    0.0000 C   0  0  0  0  0  0  0  0  0  0  0  0
    1.3204    1.3101    0.0000 N   0  0  0  0  0  0  0  0  0  0  0  0
   -0.1100    1.3101    0.0000 C   0  0  0  0  0  0  0  0  0  0  0  0
    0.6052    0.8975    0.0000 N   0  0  0  0  0  0  0  0  0  0  0  0
    2.7715   -1.5096    0.0000 C   0  0  0  0  0  0  0  0  0  0  0  0
    2.2798   -2.1801    0.0000 C   0  0  0  0  0  0  0  0  0  0  0  0
    1.4958   -0.4745    0.0000 O   0  0  0  0  0  0  0  0  0  0  0  0
    3.2564   -0.8494    0.0000 C   0  0  0  0  0  0  0  0  0  0  0  0
   -0.1100    2.1354    0.0000 O   0  0  0  0  0  0  0  0  0  0  0  0
   -2.9710    1.3204    0.0000 C   0  0  0  0  0  0  0  0  0  0  0  0
   -0.8218    0.8975    0.0000 C   0  0  0  0  0  0  0  0  0  0  0  0
   -1.5371    1.3101    0.0000 O   0  0  0  0  0  0  0  0  0  0  0  0
   -2.2523    0.8975    0.0000 C   0  0  0  0  0  0  0  0  0  0  0  0
   -3.6793    0.8975    0.0000 C   0  0  0  0  0  0  0  0  0  0  0  0
    3.0363    2.0219    0.0000 C   0  0  0  0  0  0  0  0  0  0  0  0
   -4.3981    1.3101    0.0000 Cl  0  0  0  0  0  0  0  0  0  0  0  0
    4.1332    0.7909    0.0000 C   0  0  0  0  0  0  0  0  0  0  0  0
   -2.9710   -0.3404    0.0000 C   0  0  0  0  0  0  0  0  0  0  0  0
   -2.2523    0.0687    0.0000 C   0  0  0  0  0  0  0  0  0  0  0  0
   -3.6793    0.0687    0.0000 C   0  0  0  0  0  0  0  0  0  0  0  0
    3.8444    2.1835    0.0000 C   0  0  0  0  0  0  0  0  0  0  0  0
    4.3946    1.5715    0.0000 C   0  0  0  0  0  0  0  0  0  0  0  0
  2  1  1  0  0  0  0
  3  2  1  0  0  0  0
  3  5  1  0  0  0  0
  4  1  1  0  0  0  0
  5  4  2  0  0  0  0
  6  1  2  0  0  0  0
  7  8  1  0  0  0  0
  8  6  1  0  0  0  0
  9 12  1  0  0  0  0
 10  9  3  0  0  0  0
 11  2  2  0  0  0  0
 12  3  1  0  0  0  0
 13  7  2  0  0  0  0
 14 17  1  0  0  0  0
 15  7  1  0  0  0  0
 16 15  1  0  0  0  0
 17 16  1  0  0  0  0
 18 14  2  0  0  0  0
 18 24  1  0  0  0  0
 19  4  1  0  0  0  0
 20 18  1  0  0  0  0
 21  5  1  0  0  0  0
 21 26  2  0  0  0  0
 22 23  1  0  0  0  0
 23 17  2  0  0  0  0
 24 22  2  0  0  0  0
 25 19  2  0  0  0  0
 26 25  1  0  0  0  0
M  END
>  <CdId>
1889

>  <Mol Weight>
367.786

>  <Formula>
C19H14ClN3O3

>  <Click_ID>
CLK025D04 __  __  __

$$$$
CLK025E02 __  __  __
 OpenBabel03171413512D

 22 23  0  0  0  0  0  0  0  0999 V2000
   -3.8678    0.4744    0.0000 C   0  0  0  0  0  0  0  0  0  0  0  0
   -3.2352    1.0108    0.0000 C   0  0  0  0  0  0  0  0  0  0  0  0
   -2.5614    0.5363    0.0000 C   0  0  0  0  0  0  0  0  0  0  0  0
    3.8643    0.3988    0.0000 C   0  0  0  0  0  0  0  0  0  0  0  0
    4.5417   -0.0722    0.0000 C   0  0  0  0  0  0  0  0  0  0  0  0
   -1.1449    0.4126    0.0000 N   0  0  0  0  0  0  0  0  0  0  0  0
   -4.5073   -0.0516    0.0000 O   0  0  0  0  0  0  0  0  0  0  0  0
   -3.1699    0.0378    0.0000 O   0  0  0  0  0  0  0  0  0  0  0  0
   -1.8118    0.8870    0.0000 N   0  0  0  0  0  0  0  0  0  0  0  0
   -2.6369   -0.2888    0.0000 O   0  0  0  0  0  0  0  0  0  0  0  0
   -0.3954    0.7632    0.0000 C   0  0  0  0  0  0  0  0  0  0  0  0
    1.0246    0.6360    0.0000 C   0  0  0  0  0  0  0  0  0  0  0  0
    0.2785    0.2853    0.0000 C   0  0  0  0  0  0  0  0  0  0  0  0
    1.6984    0.1650    0.0000 C   0  0  0  0  0  0  0  0  0  0  0  0
    3.1149    0.0481    0.0000 C   0  0  0  0  0  0  0  0  0  0  0  0
    2.4410    0.5157    0.0000 O   0  0  0  0  0  0  0  0  0  0  0  0
   -4.5451    0.9627    0.0000 C   0  0  0  0  0  0  0  0  0  0  0  0
    0.8802   -1.0073    0.0000 C   0  0  0  0  0  0  0  0  0  0  0  0
   -3.3830   -0.7632    0.0000 C   0  0  0  0  0  0  0  0  0  0  0  0
   -4.1978   -0.8113    0.0000 C   0  0  0  0  0  0  0  0  0  0  0  0
    0.2028   -0.5363    0.0000 C   0  0  0  0  0  0  0  0  0  0  0  0
    1.6296   -0.6636    0.0000 C   0  0  0  0  0  0  0  0  0  0  0  0
  2  1  1  0  0  0  0
  3  2  1  0  0  0  0
  4 15  1  0  0  0  0
  5  4  3  0  0  0  0
  6  9  1  0  0  0  0
  7  1  1  0  0  0  0
  8  1  1  0  0  0  0
  9  3  1  0  0  0  0
 10  3  2  0  0  0  0
 11  6  2  0  0  0  0
 12 13  1  0  0  0  0
 13 11  1  0  0  0  0
 14 12  2  0  0  0  0
 15 16  1  0  0  0  0
 16 14  1  0  0  0  0
 17  1  1  0  0  0  0
 18 21  1  0  0  0  0
 19  8  1  0  0  0  0
 20  7  1  0  0  0  0
 20 19  1  0  0  0  0
 21 13  2  0  0  0  0
 22 18  2  0  0  0  0
 22 14  1  0  0  0  0
M  END
>  <CdId>
1897

>  <Mol Weight>
302.3251

>  <Formula>
C16H18N2O4

>  <Click_ID>
CLK025E02 __  __  __

$$$$
CLK025E03 __  __  __
 OpenBabel03171413512D

 23 25  0  0  0  0  0  0  0  0999 V2000
    1.1963    0.4263    0.0000 C   0  0  0  0  0  0  0  0  0  0  0  0
    1.1756   -0.3884    0.0000 C   0  0  0  0  0  0  0  0  0  0  0  0
    1.9353   -0.6772    0.0000 N   0  0  0  0  0  0  0  0  0  0  0  0
   -1.6362    0.7734    0.0000 C   0  0  0  0  0  0  0  0  0  0  0  0
    1.9868    0.6600    0.0000 C   0  0  0  0  0  0  0  0  0  0  0  0
    2.4475   -0.0138    0.0000 C   0  0  0  0  0  0  0  0  0  0  0  0
    0.5363    0.9213    0.0000 N   0  0  0  0  0  0  0  0  0  0  0  0
   -1.8975   -0.0103    0.0000 N   0  0  0  0  0  0  0  0  0  0  0  0
   -0.8731    1.0966    0.0000 C   0  0  0  0  0  0  0  0  0  0  0  0
   -2.2997    1.2581    0.0000 C   0  0  0  0  0  0  0  0  0  0  0  0
   -2.7225   -0.0035    0.0000 N   0  0  0  0  0  0  0  0  0  0  0  0
   -0.2166    0.6016    0.0000 N   0  0  0  0  0  0  0  0  0  0  0  0
    2.9494   -1.6878    0.0000 C   0  0  0  0  0  0  0  0  0  0  0  0
   -2.9632    0.7838    0.0000 C   0  0  0  0  0  0  0  0  0  0  0  0
    3.7469   -1.9078    0.0000 C   0  0  0  0  0  0  0  0  0  0  0  0
    0.4882   -0.8628    0.0000 O   0  0  0  0  0  0  0  0  0  0  0  0
   -0.7734    1.9113    0.0000 O   0  0  0  0  0  0  0  0  0  0  0  0
    2.1553   -1.4747    0.0000 C   0  0  0  0  0  0  0  0  0  0  0  0
    2.3478    1.4093    0.0000 C   0  0  0  0  0  0  0  0  0  0  0  0
    3.2794    0.0481    0.0000 C   0  0  0  0  0  0  0  0  0  0  0  0
   -3.7503    1.0587    0.0000 C   0  0  0  0  0  0  0  0  0  0  0  0
    3.1728    1.4712    0.0000 C   0  0  0  0  0  0  0  0  0  0  0  0
    3.6335    0.7838    0.0000 C   0  0  0  0  0  0  0  0  0  0  0  0
  2  1  1  0  0  0  0
  3  2  1  0  0  0  0
  4  9  1  0  0  0  0
  5  1  1  0  0  0  0
  6  5  2  0  0  0  0
  6  3  1  0  0  0  0
  7  1  2  0  0  0  0
  8  4  1  0  0  0  0
  9 12  1  0  0  0  0
 10  4  2  0  0  0  0
 11  8  1  0  0  0  0
 11 14  2  0  0  0  0
 12  7  1  0  0  0  0
 13 18  1  0  0  0  0
 14 10  1  0  0  0  0
 15 13  3  0  0  0  0
 16  2  2  0  0  0  0
 17  9  2  0  0  0  0
 18  3  1  0  0  0  0
 19  5  1  0  0  0  0
 20  6  1  0  0  0  0
 21 14  1  0  0  0  0
 22 19  2  0  0  0  0
 23 22  1  0  0  0  0
 23 20  2  0  0  0  0
M  END
>  <CdId>
1898

>  <Mol Weight>
307.3067

>  <Formula>
C16H13N5O2

>  <Click_ID>
CLK025E03 __  __  __

$$$$
CLK025G04 __  __  __
 OpenBabel03171413512D

 19 20  0  0  0  0  0  0  0  0999 V2000
   -2.4818   -1.4850    0.0000 C   0  0  0  0  0  0  0  0  0  0  0  0
   -0.3438    0.6188    0.0000 C   0  0  0  0  0  0  0  0  0  0  0  0
   -2.4818   -2.3100    0.0000 C   0  0  0  0  0  0  0  0  0  0  0  0
    0.3541    1.0519    0.0000 C   0  0  0  0  0  0  0  0  0  0  0  0
   -1.0690    1.0244    0.0000 N   0  0  0  0  0  0  0  0  0  0  0  0
    1.0657    0.6497    0.0000 C   0  0  0  0  0  0  0  0  0  0  0  0
   -1.7806    0.6016    0.0000 C   0  0  0  0  0  0  0  0  0  0  0  0
   -0.3438   -0.1994    0.0000 O   0  0  0  0  0  0  0  0  0  0  0  0
   -2.4818   -0.6565    0.0000 C   0  0  0  0  0  0  0  0  0  0  0  0
   -1.7703   -0.2234    0.0000 C   0  0  0  0  0  0  0  0  0  0  0  0
    1.7738    1.0760    0.0000 C   0  0  0  0  0  0  0  0  0  0  0  0
   -3.2175    0.5775    0.0000 C   0  0  0  0  0  0  0  0  0  0  0  0
   -2.5197    1.0038    0.0000 C   0  0  0  0  0  0  0  0  0  0  0  0
   -3.1934   -0.2475    0.0000 C   0  0  0  0  0  0  0  0  0  0  0  0
    2.4991    0.6635    0.0000 C   0  0  0  0  0  0  0  0  0  0  0  0
    1.7772    1.8907    0.0000 C   0  0  0  0  0  0  0  0  0  0  0  0
    3.2140    1.0897    0.0000 C   0  0  0  0  0  0  0  0  0  0  0  0
    2.4853    2.3135    0.0000 C   0  0  0  0  0  0  0  0  0  0  0  0
    3.1969    1.9043    0.0000 C   0  0  0  0  0  0  0  0  0  0  0  0
  2  5  1  0  0  0  0
  3  1  3  0  0  0  0
  4  2  1  0  0  0  0
  5  7  1  0  0  0  0
  6  4  2  0  0  0  0
  7 10  2  0  0  0  0
  8  2  2  0  0  0  0
  9  1  1  0  0  0  0
 10  9  1  0  0  0  0
 11  6  1  0  0  0  0
 12 14  1  0  0  0  0
 13 12  2  0  0  0  0
 13  7  1  0  0  0  0
 14  9  2  0  0  0  0
 15 11  2  0  0  0  0
 16 11  1  0  0  0  0
 17 15  1  0  0  0  0
 17 19  2  0  0  0  0
 18 16  2  0  0  0  0
 19 18  1  0  0  0  0
M  END
>  <CdId>
1919

>  <Mol Weight>
247.2912

>  <Formula>
C17H13NO

>  <Click_ID>
CLK025G04 __  __  __

$$$$
CLK025H02 __  __  __
 OpenBabel03171413512D

 16 17  0  0  0  0  0  0  0  0999 V2000
   -0.2581    0.0688    0.0000 C   0  0  0  0  0  0  0  0  0  0  0  0
   -0.9738   -0.3475    0.0000 C   0  0  0  0  0  0  0  0  0  0  0  0
    1.9958    0.8878    0.0000 C   0  0  0  0  0  0  0  0  0  0  0  0
    2.3983    1.5966    0.0000 C   0  0  0  0  0  0  0  0  0  0  0  0
    0.4542   -0.3475    0.0000 C   0  0  0  0  0  0  0  0  0  0  0  0
   -0.2581    0.8912    0.0000 C   0  0  0  0  0  0  0  0  0  0  0  0
   -0.9738   -1.1803    0.0000 C   0  0  0  0  0  0  0  0  0  0  0  0
    0.4542   -1.1803    0.0000 C   0  0  0  0  0  0  0  0  0  0  0  0
   -0.2581   -1.5897    0.0000 C   0  0  0  0  0  0  0  0  0  0  0  0
    0.4611    1.3110    0.0000 O   0  0  0  0  0  0  0  0  0  0  0  0
    1.1733    0.0654    0.0000 O   0  0  0  0  0  0  0  0  0  0  0  0
    1.1733    0.8878    0.0000 C   0  0  0  0  0  0  0  0  0  0  0  0
   -1.6826    0.0654    0.0000 C   0  0  0  0  0  0  0  0  0  0  0  0
   -1.6826   -1.5932    0.0000 C   0  0  0  0  0  0  0  0  0  0  0  0
   -2.4017   -0.3475    0.0000 C   0  0  0  0  0  0  0  0  0  0  0  0
   -2.4017   -1.1803    0.0000 C   0  0  0  0  0  0  0  0  0  0  0  0
  2  1  1  0  0  0  0
  3 12  1  0  0  0  0
  4  3  3  0  0  0  0
  5  1  2  0  0  0  0
  6  1  1  0  0  0  0
  7  2  1  0  0  0  0
  8  5  1  0  0  0  0
  9  8  2  0  0  0  0
  9  7  1  0  0  0  0
 10  6  2  0  0  0  0
 11  5  1  0  0  0  0
 12 11  1  0  0  0  0
 13  2  2  0  0  0  0
 14  7  2  0  0  0  0
 15 13  1  0  0  0  0
 16 15  2  0  0  0  0
 16 14  1  0  0  0  0
M  END
>  <CdId>
1927

>  <Mol Weight>
210.228

>  <Formula>
C14H10O2

>  <Click_ID>
CLK025H02 __  __  __

$$$$
CLK025H03 __  __  __
 OpenBabel03171413512D

 28 30  0  0  0  0  0  0  0  0999 V2000
    1.3129   -0.8008    0.0000 C   0  0  0  0  0  0  0  0  0  0  0  0
    2.0621   -1.1342    0.0000 C   0  0  0  0  0  0  0  0  0  0  0  0
    1.3954    0.0206    0.0000 C   0  0  0  0  0  0  0  0  0  0  0  0
    2.6189   -0.5155    0.0000 N   0  0  0  0  0  0  0  0  0  0  0  0
    2.2064    0.1994    0.0000 C   0  0  0  0  0  0  0  0  0  0  0  0
    0.5980   -1.2029    0.0000 N   0  0  0  0  0  0  0  0  0  0  0  0
   -0.8351   -1.2029    0.0000 C   0  0  0  0  0  0  0  0  0  0  0  0
   -0.1203   -0.7904    0.0000 N   0  0  0  0  0  0  0  0  0  0  0  0
    3.9180    0.0619    0.0000 C   0  0  0  0  0  0  0  0  0  0  0  0
    2.4539    0.9830    0.0000 C   0  0  0  0  0  0  0  0  0  0  0  0
   -2.9797    0.0344    0.0000 C   0  0  0  0  0  0  0  0  0  0  0  0
    4.4060    0.7252    0.0000 C   0  0  0  0  0  0  0  0  0  0  0  0
    0.8455    0.6392    0.0000 C   0  0  0  0  0  0  0  0  0  0  0  0
   -3.6946    0.4468    0.0000 C   0  0  0  0  0  0  0  0  0  0  0  0
    2.2339   -1.9418    0.0000 O   0  0  0  0  0  0  0  0  0  0  0  0
   -2.2648    0.4468    0.0000 C   0  0  0  0  0  0  0  0  0  0  0  0
   -1.5500    0.0344    0.0000 O   0  0  0  0  0  0  0  0  0  0  0  0
    3.4368   -0.6083    0.0000 C   0  0  0  0  0  0  0  0  0  0  0  0
   -0.8351   -2.0277    0.0000 O   0  0  0  0  0  0  0  0  0  0  0  0
   -1.5500   -0.7904    0.0000 C   0  0  0  0  0  0  0  0  0  0  0  0
   -2.2648    1.2717    0.0000 C   0  0  0  0  0  0  0  0  0  0  0  0
   -3.6946    1.2717    0.0000 C   0  0  0  0  0  0  0  0  0  0  0  0
    1.0998    1.4228    0.0000 C   0  0  0  0  0  0  0  0  0  0  0  0
   -2.9797   -0.7904    0.0000 Cl  0  0  0  0  0  0  0  0  0  0  0  0
    1.9040    1.5913    0.0000 C   0  0  0  0  0  0  0  0  0  0  0  0
   -2.9797    1.6841    0.0000 C   0  0  0  0  0  0  0  0  0  0  0  0
   -4.4094    1.6841    0.0000 Cl  0  0  0  0  0  0  0  0  0  0  0  0
    0.5499    2.0312    0.0000 Br  0  0  0  0  0  0  0  0  0  0  0  0
  2  1  1  0  0  0  0
  3  1  1  0  0  0  0
  4  2  1  0  0  0  0
  4  5  1  0  0  0  0
  5  3  2  0  0  0  0
  6  1  2  0  0  0  0
  7  8  1  0  0  0  0
  8  6  1  0  0  0  0
  9 18  1  0  0  0  0
 10  5  1  0  0  0  0
 10 25  2  0  0  0  0
 11 16  2  0  0  0  0
 12  9  3  0  0  0  0
 13  3  1  0  0  0  0
 14 11  1  0  0  0  0
 15  2  2  0  0  0  0
 16 17  1  0  0  0  0
 17 20  1  0  0  0  0
 18  4  1  0  0  0  0
 19  7  2  0  0  0  0
 20  7  1  0  0  0  0
 21 16  1  0  0  0  0
 22 26  1  0  0  0  0
 22 14  2  0  0  0  0
 23 13  2  0  0  0  0
 24 11  1  0  0  0  0
 25 23  1  0  0  0  0
 26 21  2  0  0  0  0
 27 22  1  0  0  0  0
 28 23  1  0  0  0  0
M  END
>  <CdId>
1928

>  <Mol Weight>
481.127

>  <Formula>
C19H12BrCl2N3O3

>  <Click_ID>
CLK025H03 __  __  __

$$$$
CLK025H04 __  __  __
 OpenBabel03171413512D

 26 28  0  0  0  0  0  0  0  0999 V2000
    1.3158    0.3024    0.0000 C   0  0  0  0  0  0  0  0  0  0  0  0
    1.3982   -0.5119    0.0000 C   0  0  0  0  0  0  0  0  0  0  0  0
    2.1987   -0.6905    0.0000 N   0  0  0  0  0  0  0  0  0  0  0  0
    2.0613    0.6425    0.0000 C   0  0  0  0  0  0  0  0  0  0  0  0
    2.6110    0.0241    0.0000 C   0  0  0  0  0  0  0  0  0  0  0  0
   -2.9683    0.2989    0.0000 N   0  3  0  0  0  0  0  0  0  0  0  0
    0.6012    0.7146    0.0000 N   0  0  0  0  0  0  0  0  0  0  0  0
    0.6012    1.5391    0.0000 N   0  0  0  0  0  0  0  0  0  0  0  0
   -0.1099    1.9514    0.0000 C   0  0  0  0  0  0  0  0  0  0  0  0
    2.0475   -2.1025    0.0000 C   0  0  0  0  0  0  0  0  0  0  0  0
   -2.2537    0.7111    0.0000 C   0  0  0  0  0  0  0  0  0  0  0  0
    1.5666   -2.7724    0.0000 C   0  0  0  0  0  0  0  0  0  0  0  0
   -3.6829    0.7111    0.0000 O   0  5  0  0  0  0  0  0  0  0  0  0
    0.7868   -1.0616    0.0000 O   0  0  0  0  0  0  0  0  0  0  0  0
   -2.9683   -0.5256    0.0000 O   0  0  0  0  0  0  0  0  0  0  0  0
   -0.8245    1.5391    0.0000 C   0  0  0  0  0  0  0  0  0  0  0  0
    2.5389   -1.4394    0.0000 C   0  0  0  0  0  0  0  0  0  0  0  0
   -0.1099    2.7759    0.0000 O   0  0  0  0  0  0  0  0  0  0  0  0
   -1.5494    0.2989    0.0000 C   0  0  0  0  0  0  0  0  0  0  0  0
   -2.2537    1.5391    0.0000 C   0  0  0  0  0  0  0  0  0  0  0  0
   -0.8245    0.7111    0.0000 C   0  0  0  0  0  0  0  0  0  0  0  0
   -1.5494    1.9617    0.0000 C   0  0  0  0  0  0  0  0  0  0  0  0
    2.3224    1.4258    0.0000 C   0  0  0  0  0  0  0  0  0  0  0  0
    3.4218    0.1924    0.0000 C   0  0  0  0  0  0  0  0  0  0  0  0
    3.1297    1.5907    0.0000 C   0  0  0  0  0  0  0  0  0  0  0  0
    3.6794    0.9860    0.0000 C   0  0  0  0  0  0  0  0  0  0  0  0
  2  1  1  0  0  0  0
  3  2  1  0  0  0  0
  4  1  1  0  0  0  0
  5  4  2  0  0  0  0
  5  3  1  0  0  0  0
  6 11  1  0  0  0  0
  7  1  2  0  0  0  0
  8  7  1  0  0  0  0
  9  8  1  0  0  0  0
 10 17  1  0  0  0  0
 11 20  1  0  0  0  0
 12 10  3  0  0  0  0
 13  6  1  0  0  0  0
 14  2  2  0  0  0  0
 15  6  2  0  0  0  0
 16  9  1  0  0  0  0
 17  3  1  0  0  0  0
 18  9  2  0  0  0  0
 19 21  1  0  0  0  0
 19 11  2  0  0  0  0
 20 22  2  0  0  0  0
 21 16  2  0  0  0  0
 22 16  1  0  0  0  0
 23  4  1  0  0  0  0
 24  5  1  0  0  0  0
 25 23  2  0  0  0  0
 26 25  1  0  0  0  0
 26 24  2  0  0  0  0
M  CHG  2   6   1  13  -1
M  END
>  <CdId>
1929

>  <Mol Weight>
348.3123

>  <Formula>
C18H12N4O4

>  <Click_ID>
CLK025H04 __  __  __

$$$$
CLK025H05 __  __  __
 OpenBabel03171413512D

 25 27  0  0  0  0  0  0  0  0999 V2000
    1.7591   -0.8092    0.0000 C   0  0  0  0  0  0  0  0  0  0  0  0
    1.8928    0.0035    0.0000 C   0  0  0  0  0  0  0  0  0  0  0  0
    2.6883    0.1166    0.0000 N   0  0  0  0  0  0  0  0  0  0  0  0
    2.4826   -1.1864    0.0000 C   0  0  0  0  0  0  0  0  0  0  0  0
    3.0620   -0.6069    0.0000 C   0  0  0  0  0  0  0  0  0  0  0  0
    1.0219   -1.1933    0.0000 N   0  0  0  0  0  0  0  0  0  0  0  0
    2.5957    1.5568    0.0000 C   0  0  0  0  0  0  0  0  0  0  0  0
    0.3223   -0.7441    0.0000 N   0  0  0  0  0  0  0  0  0  0  0  0
    2.1328    2.2528    0.0000 C   0  0  0  0  0  0  0  0  0  0  0  0
   -0.4115   -1.1213    0.0000 C   0  0  0  0  0  0  0  0  0  0  0  0
    1.3338    0.5966    0.0000 O   0  0  0  0  0  0  0  0  0  0  0  0
    3.0587    0.8641    0.0000 C   0  0  0  0  0  0  0  0  0  0  0  0
   -0.4595   -1.9442    0.0000 O   0  0  0  0  0  0  0  0  0  0  0  0
   -1.1042   -0.6721    0.0000 C   0  0  0  0  0  0  0  0  0  0  0  0
   -1.8379   -1.0493    0.0000 C   0  0  0  0  0  0  0  0  0  0  0  0
   -3.3158   -1.7967    0.0000 C   0  0  0  0  0  0  0  0  0  0  0  0
    2.6952   -1.9716    0.0000 C   0  0  0  0  0  0  0  0  0  0  0  0
   -4.0633   -2.1705    0.0000 Cl  0  0  0  0  0  0  0  0  0  0  0  0
    3.8473   -0.8195    0.0000 C   0  0  0  0  0  0  0  0  0  0  0  0
   -3.2644   -0.9738    0.0000 C   0  0  0  0  0  0  0  0  0  0  0  0
   -2.6197   -2.2494    0.0000 C   0  0  0  0  0  0  0  0  0  0  0  0
   -2.5271   -0.6001    0.0000 C   0  0  0  0  0  0  0  0  0  0  0  0
   -1.8893   -1.8757    0.0000 C   0  0  0  0  0  0  0  0  0  0  0  0
    3.4941   -2.1808    0.0000 C   0  0  0  0  0  0  0  0  0  0  0  0
    4.0599   -1.6185    0.0000 C   0  0  0  0  0  0  0  0  0  0  0  0
  2  1  1  0  0  0  0
  3  2  1  0  0  0  0
  4  1  1  0  0  0  0
  5  4  2  0  0  0  0
  5  3  1  0  0  0  0
  6  1  2  0  0  0  0
  7 12  1  0  0  0  0
  8  6  1  0  0  0  0
  9  7  3  0  0  0  0
 10  8  1  0  0  0  0
 11  2  2  0  0  0  0
 12  3  1  0  0  0  0
 13 10  2  0  0  0  0
 14 10  1  0  0  0  0
 15 14  1  0  0  0  0
 16 21  2  0  0  0  0
 17  4  1  0  0  0  0
 18 16  1  0  0  0  0
 19  5  1  0  0  0  0
 20 22  2  0  0  0  0
 20 16  1  0  0  0  0
 21 23  1  0  0  0  0
 22 15  1  0  0  0  0
 23 15  2  0  0  0  0
 24 17  2  0  0  0  0
 25 24  1  0  0  0  0
 25 19  2  0  0  0  0
M  END
>  <CdId>
1930

>  <Mol Weight>
351.786

>  <Formula>
C19H14ClN3O2

>  <Click_ID>
CLK025H05 __  __  __

$$$$
CLK026D11 __  __  __
 OpenBabel03171413512D

 14 15  0  0  0  0  0  0  0  0999 V2000
   -1.3189    0.6744    0.0000 C   0  0  0  0  0  0  0  0  0  0  0  0
    0.0671   -0.6781    0.0000 C   0  0  3  0  0  0  0  0  0  0  0  0
   -1.0245   -0.7377    0.0000 C   0  0  3  0  0  0  0  0  0  0  0  0
   -0.9389    0.0261    0.0000 C   0  0  3  0  0  0  0  0  0  0  0  0
    0.8792   -0.6781    0.0000 C   0  0  0  0  0  0  0  0  0  0  0  0
   -1.7660   -0.7750    0.0000 C   0  0  0  0  0  0  0  0  0  0  0  0
   -0.2310   -0.3838    0.0000 C   0  0  3  0  0  0  0  0  0  0  0  0
    1.2966   -1.3897    0.0000 C   0  0  0  0  0  0  0  0  0  0  0  0
    0.4732    0.0373    0.0000 C   0  0  0  0  0  0  0  0  0  0  0  0
   -0.3539   -1.3897    0.0000 O   0  0  0  0  0  0  0  0  0  0  0  0
    2.1162   -1.3897    0.0000 I   0  0  0  0  0  0  0  0  0  0  0  0
   -0.9128    1.3934    0.0000 C   0  0  0  0  0  0  0  0  0  0  0  0
   -2.1199    0.8904    0.0000 C   0  0  0  0  0  0  0  0  0  0  0  0
   -0.2310    0.4433    0.0000 C   0  0  0  0  0  0  0  0  0  0  0  0
  2  3  1  0  0  0  0
  3  1  1  0  0  0  0
  4  1  1  0  0  0  0
  5  2  1  0  0  0  0
  6  4  1  0  0  0  0
  6  3  1  0  0  0  0
  7  4  1  0  0  0  0
  8  5  3  0  0  0  0
  9  7  1  0  0  0  0
  9  2  1  0  0  0  0
 10  2  1  0  0  0  0
 11  8  1  0  0  0  0
 12  1  1  0  0  0  0
 13  1  1  0  0  0  0
 14  7  1  0  0  0  0
M  END
>  <CdId>
1976

>  <Mol Weight>
304.1673

>  <Formula>
C12H17IO

>  <Click_ID>
CLK026D11 __  __  __

$$$$
CLK026H11 __  __  __
 OpenBabel03171413512D

 14 15  0  0  0  0  0  0  0  0999 V2000
   -0.8084    0.0575    0.0000 C   0  0  3  0  0  0  0  0  0  0  0  0
   -0.0926   -0.3547    0.0000 C   0  0  3  0  0  0  0  0  0  0  0  0
   -0.9266    0.7541    0.0000 C   0  0  0  0  0  0  0  0  0  0  0  0
    0.6294   -0.7636    0.0000 C   0  0  0  0  0  0  0  0  0  0  0  0
   -1.0001   -0.2684    0.0000 C   0  0  3  0  0  0  0  0  0  0  0  0
   -0.2748   -0.6614    0.0000 C   0  0  0  0  0  0  0  0  0  0  0  0
    1.2078   -1.1087    0.0000 C   0  0  0  0  0  0  0  0  0  0  0  0
   -1.6487   -0.2684    0.0000 C   0  0  0  0  0  0  0  0  0  0  0  0
   -1.8692   -0.6199    0.0000 C   0  0  0  0  0  0  0  0  0  0  0  0
    0.6646   -0.0895    0.0000 O   0  0  0  0  0  0  0  0  0  0  0  0
    1.8660   -1.4954    0.0000 I   0  0  0  0  0  0  0  0  0  0  0  0
   -0.0703    0.3291    0.0000 C   0  0  0  0  0  0  0  0  0  0  0  0
   -1.3420    1.4059    0.0000 C   0  0  0  0  0  0  0  0  0  0  0  0
   -0.4569    1.4986    0.0000 C   0  0  0  0  0  0  0  0  0  0  0  0
  2  1  1  0  0  0  0
  3  1  1  0  0  0  0
  4  2  1  0  0  0  0
  5  3  1  0  0  0  0
  5  9  1  0  0  0  0
  6  2  1  0  0  0  0
  6  5  1  0  0  0  0
  7  4  3  0  0  0  0
  8  1  1  0  0  0  0
  9  8  1  0  0  0  0
 10  2  1  0  0  0  0
 11  7  1  0  0  0  0
 12  1  1  0  0  0  0
 13  3  1  0  0  0  0
 14  3  1  0  0  0  0
M  END
>  <CdId>
2016

>  <Mol Weight>
304.1673

>  <Formula>
C12H17IO

>  <Click_ID>
CLK026H11 __  __  __

$$$$
CLK027C10 __  __  __
 OpenBabel03171413512D

 20 21  0  0  0  0  0  0  0  0999 V2000
    1.8150   -0.7184    0.0000 C   0  0  0  0  0  0  0  0  0  0  0  0
    2.5987   -0.4675    0.0000 N   0  0  0  0  0  0  0  0  0  0  0  0
    1.1000   -0.3059    0.0000 N   0  0  0  0  0  0  0  0  0  0  0  0
    1.8150   -1.5503    0.0000 S   0  0  0  0  0  0  0  0  0  0  0  0
    3.0766   -1.1378    0.0000 C   0  0  0  0  0  0  0  0  0  0  0  0
    0.3884   -0.7184    0.0000 C   0  0  0  0  0  0  0  0  0  0  0  0
    2.5987   -1.8047    0.0000 C   0  0  0  0  0  0  0  0  0  0  0  0
   -3.1866    2.1759    0.0000 C   0  0  0  0  0  0  0  0  0  0  0  0
   -3.9050    2.5919    0.0000 C   0  0  0  0  0  0  0  0  0  0  0  0
   -0.3300   -0.3059    0.0000 C   0  0  0  0  0  0  0  0  0  0  0  0
    0.3884   -1.5503    0.0000 O   0  0  0  0  0  0  0  0  0  0  0  0
   -1.0416   -0.7184    0.0000 C   0  0  0  0  0  0  0  0  0  0  0  0
   -0.3300    0.5191    0.0000 C   0  0  0  0  0  0  0  0  0  0  0  0
   -1.7566    0.5191    0.0000 C   0  0  0  0  0  0  0  0  0  0  0  0
   -1.7566   -0.3059    0.0000 C   0  0  0  0  0  0  0  0  0  0  0  0
   -1.0416    0.9281    0.0000 C   0  0  0  0  0  0  0  0  0  0  0  0
    3.9016   -1.1412    0.0000 C   0  0  0  0  0  0  0  0  0  0  0  0
    2.8531   -2.5884    0.0000 C   0  0  0  0  0  0  0  0  0  0  0  0
   -2.4750    1.7669    0.0000 C   0  0  0  0  0  0  0  0  0  0  0  0
   -2.4750    0.9419    0.0000 O   0  0  0  0  0  0  0  0  0  0  0  0
  2  1  2  0  0  0  0
  3  1  1  0  0  0  0
  4  1  1  0  0  0  0
  5  2  1  0  0  0  0
  6  3  1  0  0  0  0
  7  4  1  0  0  0  0
  7  5  2  0  0  0  0
  8 19  1  0  0  0  0
  9  8  3  0  0  0  0
 10  6  1  0  0  0  0
 11  6  2  0  0  0  0
 12 10  1  0  0  0  0
 13 10  2  0  0  0  0
 14 16  2  0  0  0  0
 15 12  2  0  0  0  0
 15 14  1  0  0  0  0
 16 13  1  0  0  0  0
 17  5  1  0  0  0  0
 18  7  1  0  0  0  0
 19 20  1  0  0  0  0
 20 14  1  0  0  0  0
M  END
>  <CdId>
2043

>  <Mol Weight>
286.349

>  <Formula>
C15H14N2O2S

>  <Click_ID>
CLK027C10 __  __  __

$$$$
CLK028C06 __  __  __
 OpenBabel03171413512D

 32 34  0  0  0  0  0  0  0  0999 V2000
   -2.1370   -0.1887    0.0000 C   0  0  0  0  0  0  0  0  0  0  0  0
   -2.8574   -0.6003    0.0000 C   0  0  0  0  0  0  0  0  0  0  0  0
    4.2707    1.0394    0.0000 C   0  0  0  0  0  0  0  0  0  0  0  0
    4.9945    1.4407    0.0000 C   0  0  0  0  0  0  0  0  0  0  0  0
   -0.7101   -0.1887    0.0000 N   0  0  0  0  0  0  0  0  0  0  0  0
    1.4304    1.0428    0.0000 C   0  0  0  0  0  0  0  0  0  0  0  0
   -1.4236   -0.6003    0.0000 N   0  0  0  0  0  0  0  0  0  0  0  0
   -2.1370    0.6380    0.0000 O   0  0  0  0  0  0  0  0  0  0  0  0
    2.1302    0.6380    0.0000 C   0  0  0  0  0  0  0  0  0  0  0  0
    0.7169    0.6380    0.0000 C   0  0  0  0  0  0  0  0  0  0  0  0
   -2.8574   -1.4270    0.0000 C   0  0  0  0  0  0  0  0  0  0  0  0
   -3.5709   -0.1887    0.0000 C   0  0  0  0  0  0  0  0  0  0  0  0
    2.1302   -0.1852    0.0000 C   0  0  0  0  0  0  0  0  0  0  0  0
    0.0035   -0.6003    0.0000 C   0  0  0  0  0  0  0  0  0  0  0  0
    0.7169   -0.1887    0.0000 C   0  0  0  0  0  0  0  0  0  0  0  0
   -3.0701    0.1990    0.0000 O   0  0  0  0  0  0  0  0  0  0  0  0
    1.4167   -0.5900    0.0000 C   0  0  0  0  0  0  0  0  0  0  0  0
    1.4304    1.8661    0.0000 O   0  0  0  0  0  0  0  0  0  0  0  0
    2.8540    1.0394    0.0000 O   0  0  0  0  0  0  0  0  0  0  0  0
    3.5572    0.6312    0.0000 C   0  0  0  0  0  0  0  0  0  0  0  0
   -3.5641    0.6380    0.0000 C   0  0  0  0  0  0  0  0  0  0  0  0
   -4.2845   -0.6003    0.0000 C   0  0  0  0  0  0  0  0  0  0  0  0
   -3.5778   -1.8352    0.0000 C   0  0  0  0  0  0  0  0  0  0  0  0
   -2.1405   -1.8352    0.0000 C   0  0  0  0  0  0  0  0  0  0  0  0
    0.7238    2.2640    0.0000 C   0  0  0  0  0  0  0  0  0  0  0  0
    0.7169    3.0838    0.0000 C   0  0  0  0  0  0  0  0  0  0  0  0
   -3.5778   -2.6619    0.0000 C   0  0  0  0  0  0  0  0  0  0  0  0
   -4.9945   -0.1852    0.0000 C   0  0  0  0  0  0  0  0  0  0  0  0
   -4.2775    1.0497    0.0000 C   0  0  0  0  0  0  0  0  0  0  0  0
   -2.1508   -2.6653    0.0000 C   0  0  0  0  0  0  0  0  0  0  0  0
   -2.8643   -3.0804    0.0000 C   0  0  0  0  0  0  0  0  0  0  0  0
   -4.9945    0.6415    0.0000 C   0  0  0  0  0  0  0  0  0  0  0  0
  2  1  1  0  0  0  0
  3 20  1  0  0  0  0
  4  3  3  0  0  0  0
  5  7  1  0  0  0  0
  6 10  1  0  0  0  0
  7  1  1  0  0  0  0
  8  1  2  0  0  0  0
  9 13  1  0  0  0  0
  9  6  2  0  0  0  0
 10 15  2  0  0  0  0
 11  2  1  0  0  0  0
 12  2  1  0  0  0  0
 13 17  2  0  0  0  0
 14  5  2  0  0  0  0
 15 14  1  0  0  0  0
 16  2  1  0  0  0  0
 17 15  1  0  0  0  0
 18  6  1  0  0  0  0
 19  9  1  0  0  0  0
 20 19  1  0  0  0  0
 21 12  2  0  0  0  0
 22 12  1  0  0  0  0
 23 11  2  0  0  0  0
 24 11  1  0  0  0  0
 25 18  1  0  0  0  0
 26 25  1  0  0  0  0
 27 23  1  0  0  0  0
 28 22  2  0  0  0  0
 29 21  1  0  0  0  0
 30 24  2  0  0  0  0
 31 30  1  0  0  0  0
 31 27  2  0  0  0  0
 32 28  1  0  0  0  0
 32 29  2  0  0  0  0
M  END
>  <CdId>
2110

>  <Mol Weight>
428.4798

>  <Formula>
C26H24N2O4

>  <Click_ID>
CLK028C06 __  __  __

$$$$
CLK028C09 __  __  __
 OpenBabel03171413512D

 28 30  0  0  0  0  0  0  0  0999 V2000
    2.0316    0.8937    0.0000 C   0  0  0  0  0  0  0  0  0  0  0  0
    2.1141    0.0757    0.0000 C   0  0  0  0  0  0  0  0  0  0  0  0
    2.9219   -0.0928    0.0000 N   0  0  0  0  0  0  0  0  0  0  0  0
    2.7844    1.2307    0.0000 C   0  0  0  0  0  0  0  0  0  0  0  0
    3.3344    0.6188    0.0000 C   0  0  0  0  0  0  0  0  0  0  0  0
    1.3165    1.3062    0.0000 N   0  0  0  0  0  0  0  0  0  0  0  0
   -2.2550    0.8937    0.0000 C   0  0  0  0  0  0  0  0  0  0  0  0
   -0.1100    1.3062    0.0000 C   0  0  0  0  0  0  0  0  0  0  0  0
   -2.9735    1.3132    0.0000 C   0  0  0  0  0  0  0  0  0  0  0  0
   -2.2550    0.0687    0.0000 C   0  0  0  0  0  0  0  0  0  0  0  0
    0.6016    0.8937    0.0000 N   0  0  0  0  0  0  0  0  0  0  0  0
   -1.5400    1.3062    0.0000 O   0  0  0  0  0  0  0  0  0  0  0  0
    2.7706   -1.5194    0.0000 C   0  0  0  0  0  0  0  0  0  0  0  0
    2.2791   -2.1828    0.0000 C   0  0  0  0  0  0  0  0  0  0  0  0
    1.4953   -0.4778    0.0000 O   0  0  0  0  0  0  0  0  0  0  0  0
   -2.9735   -0.3403    0.0000 C   0  0  0  0  0  0  0  0  0  0  0  0
   -3.6850    0.8937    0.0000 C   0  0  0  0  0  0  0  0  0  0  0  0
   -3.6850    0.0687    0.0000 C   0  0  0  0  0  0  0  0  0  0  0  0
    3.2553   -0.8491    0.0000 C   0  0  0  0  0  0  0  0  0  0  0  0
   -0.1100    2.1312    0.0000 O   0  0  0  0  0  0  0  0  0  0  0  0
   -0.8250    0.8937    0.0000 C   0  0  0  0  0  0  0  0  0  0  0  0
   -4.4000   -0.3403    0.0000 Br  0  0  0  0  0  0  0  0  0  0  0  0
    3.0353    2.0109    0.0000 C   0  0  0  0  0  0  0  0  0  0  0  0
    4.1353    0.7837    0.0000 C   0  0  0  0  0  0  0  0  0  0  0  0
   -2.9735    2.1347    0.0000 C   0  0  0  0  0  0  0  0  0  0  0  0
   -1.5400   -0.3403    0.0000 C   0  0  0  0  0  0  0  0  0  0  0  0
    3.8466    2.1862    0.0000 C   0  0  0  0  0  0  0  0  0  0  0  0
    4.3966    1.5675    0.0000 C   0  0  0  0  0  0  0  0  0  0  0  0
  2  1  1  0  0  0  0
  3  2  1  0  0  0  0
  4  1  1  0  0  0  0
  5  4  2  0  0  0  0
  5  3  1  0  0  0  0
  6  1  2  0  0  0  0
  7 12  1  0  0  0  0
  8 11  1  0  0  0  0
  9  7  1  0  0  0  0
 10  7  2  0  0  0  0
 11  6  1  0  0  0  0
 12 21  1  0  0  0  0
 13 19  1  0  0  0  0
 14 13  3  0  0  0  0
 15  2  2  0  0  0  0
 16 10  1  0  0  0  0
 17  9  2  0  0  0  0
 18 16  2  0  0  0  0
 18 17  1  0  0  0  0
 19  3  1  0  0  0  0
 20  8  2  0  0  0  0
 21  8  1  0  0  0  0
 22 18  1  0  0  0  0
 23  4  1  0  0  0  0
 24  5  1  0  0  0  0
 25  9  1  0  0  0  0
 26 10  1  0  0  0  0
 27 23  2  0  0  0  0
 28 27  1  0  0  0  0
 28 24  2  0  0  0  0
M  END
>  <CdId>
2113

>  <Mol Weight>
440.29

>  <Formula>
C21H18BrN3O3

>  <Click_ID>
CLK028C09 __  __  __

$$$$
CLK028D09 __  __  __
 OpenBabel03171413512D

 27 29  0  0  0  0  0  0  0  0999 V2000
    1.3131    0.3025    0.0000 C   0  0  0  0  0  0  0  0  0  0  0  0
    1.3989   -0.5190    0.0000 C   0  0  0  0  0  0  0  0  0  0  0  0
    2.2067   -0.6943    0.0000 N   0  0  0  0  0  0  0  0  0  0  0  0
    2.0692    0.6325    0.0000 C   0  0  0  0  0  0  0  0  0  0  0  0
    2.6192    0.0206    0.0000 C   0  0  0  0  0  0  0  0  0  0  0  0
    0.6015    0.7150    0.0000 N   0  0  0  0  0  0  0  0  0  0  0  0
   -0.1134    1.9524    0.0000 C   0  0  0  0  0  0  0  0  0  0  0  0
    0.6015    1.5399    0.0000 N   0  0  0  0  0  0  0  0  0  0  0  0
    2.0555   -2.1139    0.0000 C   0  0  0  0  0  0  0  0  0  0  0  0
    1.5639   -2.7738    0.0000 C   0  0  0  0  0  0  0  0  0  0  0  0
   -2.2548    0.7080    0.0000 C   0  0  0  0  0  0  0  0  0  0  0  0
    0.7802   -1.0690    0.0000 O   0  0  0  0  0  0  0  0  0  0  0  0
   -2.2548    1.5399    0.0000 C   0  0  0  0  0  0  0  0  0  0  0  0
   -1.5399    1.9524    0.0000 O   0  0  0  0  0  0  0  0  0  0  0  0
    2.5401   -1.4402    0.0000 C   0  0  0  0  0  0  0  0  0  0  0  0
   -0.1134    2.7773    0.0000 O   0  0  0  0  0  0  0  0  0  0  0  0
   -2.9732    0.2956    0.0000 C   0  0  0  0  0  0  0  0  0  0  0  0
   -0.8249    1.5399    0.0000 C   0  0  0  0  0  0  0  0  0  0  0  0
    2.3201    1.4162    0.0000 C   0  0  0  0  0  0  0  0  0  0  0  0
    3.4200    0.1925    0.0000 C   0  0  0  0  0  0  0  0  0  0  0  0
   -3.6847    1.5399    0.0000 C   0  0  0  0  0  0  0  0  0  0  0  0
   -1.5399    0.2956    0.0000 C   0  0  0  0  0  0  0  0  0  0  0  0
   -2.9732    1.9524    0.0000 C   0  0  0  0  0  0  0  0  0  0  0  0
   -3.6847    0.7080    0.0000 C   0  0  0  0  0  0  0  0  0  0  0  0
   -2.9732   -0.5190    0.0000 C   0  0  0  0  0  0  0  0  0  0  0  0
    3.1313    1.5880    0.0000 C   0  0  0  0  0  0  0  0  0  0  0  0
    3.6813    0.9761    0.0000 C   0  0  0  0  0  0  0  0  0  0  0  0
  2  1  1  0  0  0  0
  3  2  1  0  0  0  0
  4  1  1  0  0  0  0
  5  4  2  0  0  0  0
  5  3  1  0  0  0  0
  6  1  2  0  0  0  0
  7  8  1  0  0  0  0
  8  6  1  0  0  0  0
  9 15  1  0  0  0  0
 10  9  3  0  0  0  0
 11 13  2  0  0  0  0
 12  2  2  0  0  0  0
 13 14  1  0  0  0  0
 14 18  1  0  0  0  0
 15  3  1  0  0  0  0
 16  7  2  0  0  0  0
 17 11  1  0  0  0  0
 17 24  2  0  0  0  0
 18  7  1  0  0  0  0
 19  4  1  0  0  0  0
 20  5  1  0  0  0  0
 21 23  2  0  0  0  0
 22 11  1  0  0  0  0
 23 13  1  0  0  0  0
 24 21  1  0  0  0  0
 25 17  1  0  0  0  0
 26 19  2  0  0  0  0
 27 26  1  0  0  0  0
 27 20  2  0  0  0  0
M  END
>  <CdId>
2123

>  <Mol Weight>
361.3939

>  <Formula>
C21H19N3O3

>  <Click_ID>
CLK028D09 __  __  __

$$$$
CLK028F06 __  __  __
 OpenBabel03171413512D

 27 30  0  0  0  0  0  0  0  0999 V2000
    1.4064    0.8391    0.0000 C   0  0  0  0  0  0  0  0  0  0  0  0
    2.1354   -0.3852    0.0000 C   0  0  0  0  0  0  0  0  0  0  0  0
    1.4167    0.0138    0.0000 C   0  0  3  0  0  0  0  0  0  0  0  0
    2.8472    0.0378    0.0000 C   0  0  0  0  0  0  0  0  0  0  0  0
    2.1148    1.2620    0.0000 C   0  0  0  0  0  0  0  0  0  0  0  0
    2.8266    0.8597    0.0000 O   0  0  0  0  0  0  0  0  0  0  0  0
    0.7049   -0.3955    0.0000 C   0  0  0  0  0  0  0  0  0  0  0  0
    0.6912    1.2482    0.0000 C   0  0  0  0  0  0  0  0  0  0  0  0
    2.1389   -1.2035    0.0000 C   0  0  0  0  0  0  0  0  0  0  0  0
    0.7221   -1.2311    0.0000 C   0  0  0  0  0  0  0  0  0  0  0  0
   -2.8575   -1.7056    0.0000 C   0  0  0  0  0  0  0  0  0  0  0  0
    0.0068   -1.6540    0.0000 C   0  0  0  0  0  0  0  0  0  0  0  0
   -3.5762   -2.1148    0.0000 C   0  0  0  0  0  0  0  0  0  0  0  0
   -0.0172    0.0000    0.0000 C   0  0  0  0  0  0  0  0  0  0  0  0
   -0.7118   -1.2517    0.0000 C   0  0  0  0  0  0  0  0  0  0  0  0
   -0.0275    0.8253    0.0000 O   0  0  0  0  0  0  0  0  0  0  0  0
    1.4271   -1.6368    0.0000 O   0  0  0  0  0  0  0  0  0  0  0  0
   -0.7290   -0.4230    0.0000 C   0  0  0  0  0  0  0  0  0  0  0  0
    3.5590   -0.3611    0.0000 C   0  0  0  0  0  0  0  0  0  0  0  0
    2.1044    2.0941    0.0000 C   0  0  0  0  0  0  0  0  0  0  0  0
    0.0241   -2.4758    0.0000 Cl  0  0  0  0  0  0  0  0  0  0  0  0
   -1.4271   -1.6780    0.0000 O   0  0  0  0  0  0  0  0  0  0  0  0
   -2.1492   -1.2826    0.0000 C   0  0  0  0  0  0  0  0  0  0  0  0
    0.6774    2.0700    0.0000 C   0  0  0  0  0  0  0  0  0  0  0  0
    2.8610   -1.6058    0.0000 C   0  0  0  0  0  0  0  0  0  0  0  0
    3.5728   -1.1932    0.0000 C   0  0  0  0  0  0  0  0  0  0  0  0
    1.3789    2.4793    0.0000 C   0  0  0  0  0  0  0  0  0  0  0  0
  2  3  1  0  0  0  0
  2  4  2  0  0  0  0
  3  1  1  0  0  0  0
  4  6  1  0  0  0  0
  5  1  2  0  0  0  0
  6  5  1  0  0  0  0
  7  3  1  0  0  0  0
  8  1  1  0  0  0  0
  9  2  1  0  0  0  0
 10  7  2  0  0  0  0
 11 23  1  0  0  0  0
 12 10  1  0  0  0  0
 13 11  3  0  0  0  0
 14  7  1  0  0  0  0
 15 18  1  0  0  0  0
 15 12  2  0  0  0  0
 16  8  2  0  0  0  0
 17  9  2  0  0  0  0
 18 14  2  0  0  0  0
 19  4  1  0  0  0  0
 20  5  1  0  0  0  0
 20 27  1  0  0  0  0
 21 12  1  0  0  0  0
 22 15  1  0  0  0  0
 23 22  1  0  0  0  0
 24  8  1  0  0  0  0
 25  9  1  0  0  0  0
 25 26  1  0  0  0  0
 26 19  1  0  0  0  0
 27 24  1  0  0  0  0
M  END
>  <CdId>
2140

>  <Mol Weight>
382.837

>  <Formula>
C22H19ClO4

>  <Click_ID>
CLK028F06 __  __  __

$$$$
CLK029A05 __  __  __
 OpenBabel03171413512D

 27 30  0  0  0  0  0  0  0  0999 V2000
    1.4064    0.8391    0.0000 C   0  0  0  0  0  0  0  0  0  0  0  0
    2.1354   -0.3852    0.0000 C   0  0  0  0  0  0  0  0  0  0  0  0
    1.4167    0.0138    0.0000 C   0  0  3  0  0  0  0  0  0  0  0  0
    2.8472    0.0378    0.0000 C   0  0  0  0  0  0  0  0  0  0  0  0
    2.1148    1.2620    0.0000 C   0  0  0  0  0  0  0  0  0  0  0  0
    2.8266    0.8597    0.0000 O   0  0  0  0  0  0  0  0  0  0  0  0
    0.7049   -0.3955    0.0000 C   0  0  0  0  0  0  0  0  0  0  0  0
    0.6912    1.2482    0.0000 C   0  0  0  0  0  0  0  0  0  0  0  0
    2.1389   -1.2035    0.0000 C   0  0  0  0  0  0  0  0  0  0  0  0
    0.7221   -1.2311    0.0000 C   0  0  0  0  0  0  0  0  0  0  0  0
   -2.8575   -1.7056    0.0000 C   0  0  0  0  0  0  0  0  0  0  0  0
    0.0068   -1.6540    0.0000 C   0  0  0  0  0  0  0  0  0  0  0  0
   -3.5762   -2.1148    0.0000 C   0  0  0  0  0  0  0  0  0  0  0  0
   -0.0172    0.0000    0.0000 C   0  0  0  0  0  0  0  0  0  0  0  0
   -0.7118   -1.2517    0.0000 C   0  0  0  0  0  0  0  0  0  0  0  0
   -0.0275    0.8253    0.0000 O   0  0  0  0  0  0  0  0  0  0  0  0
    1.4271   -1.6368    0.0000 O   0  0  0  0  0  0  0  0  0  0  0  0
   -0.7290   -0.4230    0.0000 C   0  0  0  0  0  0  0  0  0  0  0  0
    3.5590   -0.3611    0.0000 C   0  0  0  0  0  0  0  0  0  0  0  0
    2.1044    2.0941    0.0000 C   0  0  0  0  0  0  0  0  0  0  0  0
    0.0241   -2.4758    0.0000 Cl  0  0  0  0  0  0  0  0  0  0  0  0
   -1.4271   -1.6780    0.0000 O   0  0  0  0  0  0  0  0  0  0  0  0
   -2.1492   -1.2826    0.0000 C   0  0  0  0  0  0  0  0  0  0  0  0
    0.6774    2.0700    0.0000 C   0  0  0  0  0  0  0  0  0  0  0  0
    2.8610   -1.6058    0.0000 C   0  0  0  0  0  0  0  0  0  0  0  0
    3.5728   -1.1932    0.0000 C   0  0  0  0  0  0  0  0  0  0  0  0
    1.3789    2.4793    0.0000 C   0  0  0  0  0  0  0  0  0  0  0  0
  2  3  1  0  0  0  0
  2  4  2  0  0  0  0
  3  1  1  0  0  0  0
  4  6  1  0  0  0  0
  5  1  2  0  0  0  0
  6  5  1  0  0  0  0
  7  3  1  0  0  0  0
  8  1  1  0  0  0  0
  9  2  1  0  0  0  0
 10  7  2  0  0  0  0
 11 23  1  0  0  0  0
 12 10  1  0  0  0  0
 13 11  3  0  0  0  0
 14  7  1  0  0  0  0
 15 18  1  0  0  0  0
 15 12  2  0  0  0  0
 16  8  2  0  0  0  0
 17  9  2  0  0  0  0
 18 14  2  0  0  0  0
 19  4  1  0  0  0  0
 20  5  1  0  0  0  0
 20 27  1  0  0  0  0
 21 12  1  0  0  0  0
 22 15  1  0  0  0  0
 23 22  1  0  0  0  0
 24  8  1  0  0  0  0
 25  9  1  0  0  0  0
 25 26  1  0  0  0  0
 26 19  1  0  0  0  0
 27 24  1  0  0  0  0
M  END
>  <CdId>
2169

>  <Mol Weight>
382.837

>  <Formula>
C22H19ClO4

>  <Click_ID>
CLK029A05 __  __  __

$$$$
CLK029B05 __  __  __
 OpenBabel03171413512D

 26 29  0  0  0  0  0  0  0  0999 V2000
   -4.7353    5.0318    0.0000 C   0  0  0  0  0  0  0  0  0  0  0  0
   -5.2048    5.6742    0.0000 N   0  0  0  0  0  0  0  0  0  0  0  0
   -5.2048    4.3647    0.0000 N   0  0  0  0  0  0  0  0  0  0  0  0
   -2.6436    5.4024    0.0000 N   0  0  0  0  0  0  0  0  0  0  0  0
   -3.9200    4.9824    0.0000 C   0  0  3  0  0  0  0  0  0  0  0  0
   -2.6436    4.5707    0.0000 C   0  0  0  0  0  0  0  0  0  0  0  0
   -3.4259    5.6495    0.0000 C   0  0  0  0  0  0  0  0  0  0  0  0
   -5.9954    4.6118    0.0000 C   0  0  0  0  0  0  0  0  0  0  0  0
   -5.9954    5.4271    0.0000 C   0  0  0  0  0  0  0  0  0  0  0  0
   -1.9682    5.8471    0.0000 C   0  0  0  0  0  0  0  0  0  0  0  0
   -3.4259    4.3153    0.0000 C   0  0  0  0  0  0  0  0  0  0  0  0
   -5.4848    2.9401    0.0000 C   0  0  0  0  0  0  0  0  0  0  0  0
   -2.0176    6.6624    0.0000 C   0  0  0  0  0  0  0  0  0  0  0  0
   -6.0284    2.3224    0.0000 C   0  0  0  0  0  0  0  0  0  0  0  0
   -1.3341    7.1319    0.0000 C   0  0  0  0  0  0  0  0  0  0  0  0
   -1.9682    4.0930    0.0000 O   0  0  0  0  0  0  0  0  0  0  0  0
   -1.2270    5.4848    0.0000 C   0  0  0  0  0  0  0  0  0  0  0  0
   -0.5847    6.7613    0.0000 C   0  0  0  0  0  0  0  0  0  0  0  0
   -4.9330    3.5741    0.0000 C   0  0  0  0  0  0  0  0  0  0  0  0
   -0.5352    5.9459    0.0000 C   0  0  0  0  0  0  0  0  0  0  0  0
   -6.6954    4.1918    0.0000 C   0  0  0  0  0  0  0  0  0  0  0  0
   -6.6954    5.8471    0.0000 C   0  0  0  0  0  0  0  0  0  0  0  0
   -1.4000    7.9391    0.0000 C   0  0  0  0  0  0  0  0  0  0  0  0
    0.1235    7.2307    0.0000 C   0  0  0  0  0  0  0  0  0  0  0  0
   -7.4119    4.6118    0.0000 C   0  0  0  0  0  0  0  0  0  0  0  0
   -7.4119    5.4271    0.0000 C   0  0  0  0  0  0  0  0  0  0  0  0
  2  1  2  0  0  0  0
  3  1  1  0  0  0  0
  4  7  1  0  0  0  0
  5  1  1  0  0  0  0
  6 11  1  0  0  0  0
  6  4  1  0  0  0  0
  7  5  1  0  0  0  0
  8  3  1  0  0  0  0
  8  9  2  0  0  0  0
  9  2  1  0  0  0  0
 10  4  1  0  0  0  0
 11  5  1  0  0  0  0
 12 19  1  0  0  0  0
 13 10  2  0  0  0  0
 14 12  3  0  0  0  0
 15 13  1  0  0  0  0
 16  6  2  0  0  0  0
 17 10  1  0  0  0  0
 18 20  1  0  0  0  0
 18 15  2  0  0  0  0
 19  3  1  0  0  0  0
 20 17  2  0  0  0  0
 21  8  1  0  0  0  0
 22  9  1  0  0  0  0
 23 15  1  0  0  0  0
 24 18  1  0  0  0  0
 25 21  2  0  0  0  0
 26 22  2  0  0  0  0
 26 25  1  0  0  0  0
M  END
>  <CdId>
2179

>  <Mol Weight>
343.4216

>  <Formula>
C22H21N3O

>  <Click_ID>
CLK029B05 __  __  __

$$$$
CLK029C05 __  __  __
 OpenBabel03171413512D

 28 31  0  0  0  0  0  0  0  0999 V2000
   -4.7482    5.0455    0.0000 C   0  0  0  0  0  0  0  0  0  0  0  0
   -5.2189    5.6896    0.0000 N   0  0  0  0  0  0  0  0  0  0  0  0
   -5.2189    4.3766    0.0000 N   0  0  0  0  0  0  0  0  0  0  0  0
   -3.9307    4.9959    0.0000 C   0  0  3  0  0  0  0  0  0  0  0  0
   -2.6508    5.4171    0.0000 N   0  0  0  0  0  0  0  0  0  0  0  0
   -2.6508    4.5831    0.0000 C   0  0  0  0  0  0  0  0  0  0  0  0
   -3.4352    5.6648    0.0000 C   0  0  0  0  0  0  0  0  0  0  0  0
   -6.0116    4.6243    0.0000 C   0  0  0  0  0  0  0  0  0  0  0  0
   -6.0116    5.4419    0.0000 C   0  0  0  0  0  0  0  0  0  0  0  0
   -3.4352    4.3270    0.0000 C   0  0  0  0  0  0  0  0  0  0  0  0
   -2.0067    5.9209    0.0000 C   0  0  0  0  0  0  0  0  0  0  0  0
   -5.4997    2.9481    0.0000 C   0  0  0  0  0  0  0  0  0  0  0  0
   -6.0447    2.3287    0.0000 C   0  0  0  0  0  0  0  0  0  0  0  0
   -1.9736    4.1041    0.0000 O   0  0  0  0  0  0  0  0  0  0  0  0
   -4.9464    3.5838    0.0000 C   0  0  0  0  0  0  0  0  0  0  0  0
   -1.2551    5.6236    0.0000 C   0  0  0  0  0  0  0  0  0  0  0  0
   -2.1305    6.7301    0.0000 C   0  0  0  0  0  0  0  0  0  0  0  0
   -1.4781    7.2503    0.0000 C   0  0  0  0  0  0  0  0  0  0  0  0
   -0.6110    6.1355    0.0000 C   0  0  0  0  0  0  0  0  0  0  0  0
   -0.7349    6.9530    0.0000 C   0  0  0  0  0  0  0  0  0  0  0  0
   -6.7136    4.2032    0.0000 C   0  0  0  0  0  0  0  0  0  0  0  0
   -6.7136    5.8630    0.0000 C   0  0  0  0  0  0  0  0  0  0  0  0
   -0.0908    7.4733    0.0000 C   0  0  0  0  0  0  0  0  0  0  0  0
    0.6772    7.1760    0.0000 C   0  0  0  0  0  0  0  0  0  0  0  0
    1.3213    7.6962    0.0000 C   0  0  0  0  0  0  0  0  0  0  0  0
   -7.4321    4.6243    0.0000 C   0  0  0  0  0  0  0  0  0  0  0  0
   -7.4321    5.4419    0.0000 C   0  0  0  0  0  0  0  0  0  0  0  0
    2.0893    7.3990    0.0000 C   0  0  0  0  0  0  0  0  0  0  0  0
  2  1  2  0  0  0  0
  3  1  1  0  0  0  0
  4  1  1  0  0  0  0
  5  7  1  0  0  0  0
  6 10  1  0  0  0  0
  6  5  1  0  0  0  0
  7  4  1  0  0  0  0
  8  3  1  0  0  0  0
  8  9  2  0  0  0  0
  9  2  1  0  0  0  0
 10  4  1  0  0  0  0
 11  5  1  0  0  0  0
 12 15  1  0  0  0  0
 13 12  3  0  0  0  0
 14  6  2  0  0  0  0
 15  3  1  0  0  0  0
 16 11  1  0  0  0  0
 17 11  2  0  0  0  0
 18 17  1  0  0  0  0
 19 16  2  0  0  0  0
 19 20  1  0  0  0  0
 20 18  2  0  0  0  0
 21  8  1  0  0  0  0
 22  9  1  0  0  0  0
 23 20  1  0  0  0  0
 24 23  1  0  0  0  0
 25 24  1  0  0  0  0
 26 21  2  0  0  0  0
 27 22  2  0  0  0  0
 27 26  1  0  0  0  0
 28 25  1  0  0  0  0
M  END
>  <CdId>
2189

>  <Mol Weight>
371.4748

>  <Formula>
C24H25N3O

>  <Click_ID>
CLK029C05 __  __  __

$$$$
CLK029D05 __  __  __
 OpenBabel03171413512D

 26 29  0  0  0  0  0  0  0  0999 V2000
   -4.7348    5.0312    0.0000 C   0  0  0  0  0  0  0  0  0  0  0  0
   -2.6433    5.4018    0.0000 N   0  0  0  0  0  0  0  0  0  0  0  0
   -5.2042    5.6735    0.0000 N   0  0  0  0  0  0  0  0  0  0  0  0
   -5.2042    4.3642    0.0000 N   0  0  0  0  0  0  0  0  0  0  0  0
   -3.9196    4.9818    0.0000 C   0  0  3  0  0  0  0  0  0  0  0  0
   -2.6433    4.5702    0.0000 C   0  0  0  0  0  0  0  0  0  0  0  0
   -1.9680    5.8465    0.0000 C   0  0  0  0  0  0  0  0  0  0  0  0
   -3.4255    5.6488    0.0000 C   0  0  0  0  0  0  0  0  0  0  0  0
   -5.9947    4.6113    0.0000 C   0  0  0  0  0  0  0  0  0  0  0  0
   -5.9947    5.4265    0.0000 C   0  0  0  0  0  0  0  0  0  0  0  0
   -3.4255    4.3148    0.0000 C   0  0  0  0  0  0  0  0  0  0  0  0
   -1.2269    5.4759    0.0000 C   0  0  0  0  0  0  0  0  0  0  0  0
   -5.4842    2.9397    0.0000 C   0  0  0  0  0  0  0  0  0  0  0  0
   -6.0277    2.3221    0.0000 C   0  0  0  0  0  0  0  0  0  0  0  0
   -2.0174    6.6700    0.0000 C   0  0  0  0  0  0  0  0  0  0  0  0
   -1.9680    4.0925    0.0000 O   0  0  0  0  0  0  0  0  0  0  0  0
   -4.9324    3.5737    0.0000 C   0  0  0  0  0  0  0  0  0  0  0  0
   -1.3257    7.1310    0.0000 C   0  0  0  0  0  0  0  0  0  0  0  0
   -0.5435    5.9289    0.0000 C   0  0  0  0  0  0  0  0  0  0  0  0
   -0.5846    6.7605    0.0000 C   0  0  0  0  0  0  0  0  0  0  0  0
    0.1812    5.5500    0.0000 Cl  0  0  0  0  0  0  0  0  0  0  0  0
   -6.6947    4.1913    0.0000 C   0  0  0  0  0  0  0  0  0  0  0  0
   -6.6947    5.8465    0.0000 C   0  0  0  0  0  0  0  0  0  0  0  0
   -2.7421    7.0569    0.0000 C   0  0  0  0  0  0  0  0  0  0  0  0
   -7.4111    4.6113    0.0000 C   0  0  0  0  0  0  0  0  0  0  0  0
   -7.4111    5.4265    0.0000 C   0  0  0  0  0  0  0  0  0  0  0  0
  2  8  1  0  0  0  0
  3  1  2  0  0  0  0
  4  1  1  0  0  0  0
  5  1  1  0  0  0  0
  6 11  1  0  0  0  0
  6  2  1  0  0  0  0
  7  2  1  0  0  0  0
  8  5  1  0  0  0  0
  9  4  1  0  0  0  0
  9 10  2  0  0  0  0
 10  3  1  0  0  0  0
 11  5  1  0  0  0  0
 12  7  1  0  0  0  0
 13 17  1  0  0  0  0
 14 13  3  0  0  0  0
 15  7  2  0  0  0  0
 16  6  2  0  0  0  0
 17  4  1  0  0  0  0
 18 15  1  0  0  0  0
 19 12  2  0  0  0  0
 19 20  1  0  0  0  0
 20 18  2  0  0  0  0
 21 19  1  0  0  0  0
 22  9  1  0  0  0  0
 23 10  1  0  0  0  0
 24 15  1  0  0  0  0
 25 22  2  0  0  0  0
 26 23  2  0  0  0  0
 26 25  1  0  0  0  0
M  END
>  <CdId>
2199

>  <Mol Weight>
363.84

>  <Formula>
C21H18ClN3O

>  <Click_ID>
CLK029D05 __  __  __

$$$$
CLK029D06 __  __  __
 OpenBabel03171413512D

 26 29  0  0  0  0  0  0  0  0999 V2000
   -4.7353    5.0318    0.0000 C   0  0  0  0  0  0  0  0  0  0  0  0
   -5.2048    5.6742    0.0000 N   0  0  0  0  0  0  0  0  0  0  0  0
   -5.2048    4.3647    0.0000 N   0  0  0  0  0  0  0  0  0  0  0  0
   -2.6436    5.4024    0.0000 N   0  0  0  0  0  0  0  0  0  0  0  0
   -3.9200    4.9824    0.0000 C   0  0  3  0  0  0  0  0  0  0  0  0
   -2.6436    4.5707    0.0000 C   0  0  0  0  0  0  0  0  0  0  0  0
   -1.9682    5.8471    0.0000 C   0  0  0  0  0  0  0  0  0  0  0  0
   -3.4259    5.6495    0.0000 C   0  0  0  0  0  0  0  0  0  0  0  0
   -5.9954    4.6118    0.0000 C   0  0  0  0  0  0  0  0  0  0  0  0
   -5.9954    5.4271    0.0000 C   0  0  0  0  0  0  0  0  0  0  0  0
   -3.4259    4.3153    0.0000 C   0  0  0  0  0  0  0  0  0  0  0  0
   -5.4848    2.9401    0.0000 C   0  0  0  0  0  0  0  0  0  0  0  0
   -6.0284    2.3224    0.0000 C   0  0  0  0  0  0  0  0  0  0  0  0
   -2.0176    6.6624    0.0000 C   0  0  0  0  0  0  0  0  0  0  0  0
   -1.2270    5.4848    0.0000 C   0  0  0  0  0  0  0  0  0  0  0  0
   -1.9682    4.0930    0.0000 O   0  0  0  0  0  0  0  0  0  0  0  0
   -4.9330    3.5741    0.0000 C   0  0  0  0  0  0  0  0  0  0  0  0
   -1.3341    7.1319    0.0000 C   0  0  0  0  0  0  0  0  0  0  0  0
   -0.5352    5.9459    0.0000 C   0  0  0  0  0  0  0  0  0  0  0  0
   -0.5847    6.7613    0.0000 C   0  0  0  0  0  0  0  0  0  0  0  0
   -6.6954    4.1918    0.0000 C   0  0  0  0  0  0  0  0  0  0  0  0
   -6.6954    5.8471    0.0000 C   0  0  0  0  0  0  0  0  0  0  0  0
    0.2060    5.5754    0.0000 C   0  0  0  0  0  0  0  0  0  0  0  0
   -1.4000    7.9391    0.0000 C   0  0  0  0  0  0  0  0  0  0  0  0
   -7.4119    4.6118    0.0000 C   0  0  0  0  0  0  0  0  0  0  0  0
   -7.4119    5.4271    0.0000 C   0  0  0  0  0  0  0  0  0  0  0  0
  2  1  2  0  0  0  0
  3  1  1  0  0  0  0
  4  8  1  0  0  0  0
  5  1  1  0  0  0  0
  6 11  1  0  0  0  0
  6  4  1  0  0  0  0
  7  4  1  0  0  0  0
  8  5  1  0  0  0  0
  9  3  1  0  0  0  0
  9 10  2  0  0  0  0
 10  2  1  0  0  0  0
 11  5  1  0  0  0  0
 12 17  1  0  0  0  0
 13 12  3  0  0  0  0
 14  7  2  0  0  0  0
 15  7  1  0  0  0  0
 16  6  2  0  0  0  0
 17  3  1  0  0  0  0
 18 14  1  0  0  0  0
 19 15  2  0  0  0  0
 20 19  1  0  0  0  0
 20 18  2  0  0  0  0
 21  9  1  0  0  0  0
 22 10  1  0  0  0  0
 23 19  1  0  0  0  0
 24 18  1  0  0  0  0
 25 21  2  0  0  0  0
 26 22  2  0  0  0  0
 26 25  1  0  0  0  0
M  END
>  <CdId>
2200

>  <Mol Weight>
343.4216

>  <Formula>
C22H21N3O

>  <Click_ID>
CLK029D06 __  __  __

$$$$
CLK029E05 __  __  __
 OpenBabel03171413512D

 28 31  0  0  0  0  0  0  0  0999 V2000
   -4.7614    5.0595    0.0000 C   0  0  0  0  0  0  0  0  0  0  0  0
   -5.2334    5.7054    0.0000 N   0  0  0  0  0  0  0  0  0  0  0  0
   -5.2334    4.3888    0.0000 N   0  0  0  0  0  0  0  0  0  0  0  0
   -3.9416    5.0098    0.0000 C   0  0  3  0  0  0  0  0  0  0  0  0
   -2.6582    5.4322    0.0000 N   0  0  0  0  0  0  0  0  0  0  0  0
   -2.6582    4.5959    0.0000 C   0  0  0  0  0  0  0  0  0  0  0  0
   -3.4447    5.6806    0.0000 C   0  0  0  0  0  0  0  0  0  0  0  0
   -1.5651    8.0821    0.0000 C   0  0  0  0  0  0  0  0  0  0  0  0
   -6.0284    4.6372    0.0000 C   0  0  0  0  0  0  0  0  0  0  0  0
   -6.0284    5.4570    0.0000 C   0  0  0  0  0  0  0  0  0  0  0  0
   -2.0122    5.9374    0.0000 C   0  0  0  0  0  0  0  0  0  0  0  0
   -3.4447    4.3391    0.0000 C   0  0  0  0  0  0  0  0  0  0  0  0
   -1.4822    7.2705    0.0000 C   0  0  0  0  0  0  0  0  0  0  0  0
   -5.5151    2.9563    0.0000 C   0  0  0  0  0  0  0  0  0  0  0  0
   -2.1364    6.7488    0.0000 C   0  0  0  0  0  0  0  0  0  0  0  0
   -6.0616    2.3352    0.0000 C   0  0  0  0  0  0  0  0  0  0  0  0
   -1.9790    4.1155    0.0000 O   0  0  0  0  0  0  0  0  0  0  0  0
   -4.9601    3.5938    0.0000 C   0  0  0  0  0  0  0  0  0  0  0  0
   -1.6561    8.9020    0.0000 F   0  0  0  0  0  0  0  0  0  0  0  0
   -0.7369    8.1566    0.0000 F   0  0  0  0  0  0  0  0  0  0  0  0
   -2.4014    8.0076    0.0000 F   0  0  0  0  0  0  0  0  0  0  0  0
   -1.2586    5.6393    0.0000 C   0  0  0  0  0  0  0  0  0  0  0  0
   -6.7323    4.2149    0.0000 C   0  0  0  0  0  0  0  0  0  0  0  0
   -6.7323    5.8793    0.0000 C   0  0  0  0  0  0  0  0  0  0  0  0
   -0.7369    6.9724    0.0000 C   0  0  0  0  0  0  0  0  0  0  0  0
   -0.6127    6.1526    0.0000 C   0  0  0  0  0  0  0  0  0  0  0  0
   -7.4527    4.6372    0.0000 C   0  0  0  0  0  0  0  0  0  0  0  0
   -7.4527    5.4570    0.0000 C   0  0  0  0  0  0  0  0  0  0  0  0
  2  1  2  0  0  0  0
  3  1  1  0  0  0  0
  4  1  1  0  0  0  0
  5  7  1  0  0  0  0
  6 12  1  0  0  0  0
  6  5  1  0  0  0  0
  7  4  1  0  0  0  0
  8 13  1  0  0  0  0
  9  3  1  0  0  0  0
  9 10  2  0  0  0  0
 10  2  1  0  0  0  0
 11  5  1  0  0  0  0
 12  4  1  0  0  0  0
 13 15  1  0  0  0  0
 14 18  1  0  0  0  0
 15 11  2  0  0  0  0
 16 14  3  0  0  0  0
 17  6  2  0  0  0  0
 18  3  1  0  0  0  0
 19  8  1  0  0  0  0
 20  8  1  0  0  0  0
 21  8  1  0  0  0  0
 22 11  1  0  0  0  0
 23  9  1  0  0  0  0
 24 10  1  0  0  0  0
 25 26  1  0  0  0  0
 25 13  2  0  0  0  0
 26 22  2  0  0  0  0
 27 23  2  0  0  0  0
 28 24  2  0  0  0  0
 28 27  1  0  0  0  0
M  END
>  <CdId>
2209

>  <Mol Weight>
383.3664

>  <Formula>
C21H16F3N3O

>  <Click_ID>
CLK029E05 __  __  __

$$$$
CLK029E10 __  __  __
 OpenBabel03171413512D

 24 26  0  0  0  0  0  0  0  0999 V2000
   -1.1649    2.3882    0.0000 C   0  0  0  0  0  0  0  0  0  0  0  0
   -0.3382    2.3799    0.0000 N   0  0  0  0  0  0  0  0  0  0  0  0
   -1.6492    1.7244    0.0000 N   0  0  0  0  0  0  0  0  0  0  0  0
   -1.6492    3.0563    0.0000 S   0  0  0  0  0  0  0  0  0  0  0  0
    0.0752    3.0939    0.0000 C   0  0  0  0  0  0  0  0  0  0  0  0
    0.9019    3.0939    0.0000 C   0  0  0  0  0  0  0  0  0  0  0  0
   -2.4383    1.9749    0.0000 C   0  0  0  0  0  0  0  0  0  0  0  0
   -2.4383    2.8016    0.0000 C   0  0  0  0  0  0  0  0  0  0  0  0
   -1.9498    0.3215    0.0000 C   0  0  0  0  0  0  0  0  0  0  0  0
   -2.5010   -0.2923    0.0000 C   0  0  0  0  0  0  0  0  0  0  0  0
   -0.3382    3.8079    0.0000 O   0  0  0  0  0  0  0  0  0  0  0  0
    1.3069    3.8037    0.0000 C   0  0  0  0  0  0  0  0  0  0  0  0
   -1.3987    0.9352    0.0000 C   0  0  0  0  0  0  0  0  0  0  0  0
    1.3152    2.3757    0.0000 C   0  0  0  0  0  0  0  0  0  0  0  0
    0.8935    4.5135    0.0000 O   0  0  0  0  0  0  0  0  0  0  0  0
   -3.1523    1.5615    0.0000 C   0  0  0  0  0  0  0  0  0  0  0  0
   -3.1523    3.2149    0.0000 C   0  0  0  0  0  0  0  0  0  0  0  0
    2.1336    3.8079    0.0000 C   0  0  0  0  0  0  0  0  0  0  0  0
    1.0397    5.3277    0.0000 C   0  0  0  0  0  0  0  0  0  0  0  0
    2.1336    2.3632    0.0000 C   0  0  0  0  0  0  0  0  0  0  0  0
   -3.8663    1.9749    0.0000 C   0  0  0  0  0  0  0  0  0  0  0  0
   -3.8663    2.8016    0.0000 C   0  0  0  0  0  0  0  0  0  0  0  0
    2.5553    3.0939    0.0000 C   0  0  0  0  0  0  0  0  0  0  0  0
   -4.5928    3.2192    0.0000 H   0  0  0  0  0  0  0  0  0  0  0  0
  2  1  2  0  0  0  0
  3  1  1  0  0  0  0
  4  1  1  0  0  0  0
  5  2  1  0  0  0  0
  6  5  1  0  0  0  0
  7  3  1  0  0  0  0
  8  4  1  0  0  0  0
  8  7  2  0  0  0  0
  9 13  1  0  0  0  0
 10  9  3  0  0  0  0
 11  5  2  0  0  0  0
 12  6  1  0  0  0  0
 13  3  1  0  0  0  0
 14  6  2  0  0  0  0
 15 12  1  0  0  0  0
 16  7  1  0  0  0  0
 17  8  1  0  0  0  0
 18 12  2  0  0  0  0
 18 23  1  0  0  0  0
 19 15  1  0  0  0  0
 20 14  1  0  0  0  0
 21 16  2  0  0  0  0
 22 17  2  0  0  0  0
 22 21  1  0  0  0  0
 23 20  2  0  0  0  0
 24 22  1  0  0  0  0
M  END
>  <CdId>
2214

>  <Mol Weight>
322.381

>  <Formula>
C18H14N2O2S

>  <Click_ID>
CLK029E10 __  __  __

$$$$
CLK029F06 __  __  __
 OpenBabel03171413512D

 27 30  0  0  0  0  0  0  0  0999 V2000
   -4.7348    5.0312    0.0000 C   0  0  0  0  0  0  0  0  0  0  0  0
   -2.6433    5.4018    0.0000 N   0  0  0  0  0  0  0  0  0  0  0  0
   -5.2042    5.6735    0.0000 N   0  0  0  0  0  0  0  0  0  0  0  0
   -5.2042    4.3642    0.0000 N   0  0  0  0  0  0  0  0  0  0  0  0
   -3.9196    4.9818    0.0000 C   0  0  3  0  0  0  0  0  0  0  0  0
   -2.6433    4.5702    0.0000 C   0  0  0  0  0  0  0  0  0  0  0  0
   -1.9680    5.8465    0.0000 C   0  0  0  0  0  0  0  0  0  0  0  0
   -3.4255    5.6488    0.0000 C   0  0  0  0  0  0  0  0  0  0  0  0
   -5.9947    4.6113    0.0000 C   0  0  0  0  0  0  0  0  0  0  0  0
   -5.9947    5.4265    0.0000 C   0  0  0  0  0  0  0  0  0  0  0  0
   -3.4255    4.3148    0.0000 C   0  0  0  0  0  0  0  0  0  0  0  0
   -1.2269    5.4759    0.0000 C   0  0  0  0  0  0  0  0  0  0  0  0
   -5.4842    2.9397    0.0000 C   0  0  0  0  0  0  0  0  0  0  0  0
   -6.0277    2.3221    0.0000 C   0  0  0  0  0  0  0  0  0  0  0  0
   -2.0174    6.6700    0.0000 C   0  0  0  0  0  0  0  0  0  0  0  0
   -1.9680    4.0925    0.0000 O   0  0  0  0  0  0  0  0  0  0  0  0
   -4.9324    3.5737    0.0000 C   0  0  0  0  0  0  0  0  0  0  0  0
   -1.3257    7.1310    0.0000 C   0  0  0  0  0  0  0  0  0  0  0  0
   -0.5435    5.9289    0.0000 C   0  0  0  0  0  0  0  0  0  0  0  0
   -0.5846    6.7605    0.0000 C   0  0  0  0  0  0  0  0  0  0  0  0
    0.1812    5.5500    0.0000 Cl  0  0  0  0  0  0  0  0  0  0  0  0
   -2.7421    7.0569    0.0000 O   0  0  0  0  0  0  0  0  0  0  0  0
   -6.6947    4.1913    0.0000 C   0  0  0  0  0  0  0  0  0  0  0  0
   -6.6947    5.8465    0.0000 C   0  0  0  0  0  0  0  0  0  0  0  0
   -2.7832    7.8721    0.0000 C   0  0  0  0  0  0  0  0  0  0  0  0
   -7.4111    4.6113    0.0000 C   0  0  0  0  0  0  0  0  0  0  0  0
   -7.4111    5.4265    0.0000 C   0  0  0  0  0  0  0  0  0  0  0  0
  2  8  1  0  0  0  0
  3  1  2  0  0  0  0
  4  1  1  0  0  0  0
  5  1  1  0  0  0  0
  6 11  1  0  0  0  0
  6  2  1  0  0  0  0
  7  2  1  0  0  0  0
  8  5  1  0  0  0  0
  9  4  1  0  0  0  0
  9 10  2  0  0  0  0
 10  3  1  0  0  0  0
 11  5  1  0  0  0  0
 12  7  1  0  0  0  0
 13 17  1  0  0  0  0
 14 13  3  0  0  0  0
 15  7  2  0  0  0  0
 16  6  2  0  0  0  0
 17  4  1  0  0  0  0
 18 15  1  0  0  0  0
 19 12  2  0  0  0  0
 19 20  1  0  0  0  0
 20 18  2  0  0  0  0
 21 19  1  0  0  0  0
 22 15  1  0  0  0  0
 23  9  1  0  0  0  0
 24 10  1  0  0  0  0
 25 22  1  0  0  0  0
 26 23  2  0  0  0  0
 27 24  2  0  0  0  0
 27 26  1  0  0  0  0
M  END
>  <CdId>
2220

>  <Mol Weight>
379.84

>  <Formula>
C21H18ClN3O2

>  <Click_ID>
CLK029F06 __  __  __

$$$$
CLK029G05 __  __  __
 OpenBabel03171413512D

 25 28  0  0  0  0  0  0  0  0999 V2000
   -4.7353    5.0318    0.0000 C   0  0  0  0  0  0  0  0  0  0  0  0
   -5.2048    5.6742    0.0000 N   0  0  0  0  0  0  0  0  0  0  0  0
   -5.2048    4.3647    0.0000 N   0  0  0  0  0  0  0  0  0  0  0  0
   -3.9200    4.9824    0.0000 C   0  0  3  0  0  0  0  0  0  0  0  0
   -2.6436    5.4024    0.0000 N   0  0  0  0  0  0  0  0  0  0  0  0
   -2.6436    4.5707    0.0000 C   0  0  0  0  0  0  0  0  0  0  0  0
   -3.4259    5.6495    0.0000 C   0  0  0  0  0  0  0  0  0  0  0  0
   -5.9954    4.6118    0.0000 C   0  0  0  0  0  0  0  0  0  0  0  0
   -5.9954    5.4271    0.0000 C   0  0  0  0  0  0  0  0  0  0  0  0
   -3.4259    4.3153    0.0000 C   0  0  0  0  0  0  0  0  0  0  0  0
   -1.9682    5.8471    0.0000 C   0  0  0  0  0  0  0  0  0  0  0  0
   -5.4848    2.9401    0.0000 C   0  0  0  0  0  0  0  0  0  0  0  0
   -6.0284    2.3224    0.0000 C   0  0  0  0  0  0  0  0  0  0  0  0
   -1.9682    4.0930    0.0000 O   0  0  0  0  0  0  0  0  0  0  0  0
   -4.9330    3.5741    0.0000 C   0  0  0  0  0  0  0  0  0  0  0  0
   -1.2270    5.4848    0.0000 C   0  0  0  0  0  0  0  0  0  0  0  0
   -2.0176    6.6624    0.0000 C   0  0  0  0  0  0  0  0  0  0  0  0
   -0.5847    6.7613    0.0000 C   0  0  0  0  0  0  0  0  0  0  0  0
   -1.3341    7.1319    0.0000 C   0  0  0  0  0  0  0  0  0  0  0  0
   -0.5352    5.9459    0.0000 C   0  0  0  0  0  0  0  0  0  0  0  0
    0.1235    7.2307    0.0000 Br  0  0  0  0  0  0  0  0  0  0  0  0
   -6.6954    4.1918    0.0000 C   0  0  0  0  0  0  0  0  0  0  0  0
   -6.6954    5.8471    0.0000 C   0  0  0  0  0  0  0  0  0  0  0  0
   -7.4119    4.6118    0.0000 C   0  0  0  0  0  0  0  0  0  0  0  0
   -7.4119    5.4271    0.0000 C   0  0  0  0  0  0  0  0  0  0  0  0
  2  1  2  0  0  0  0
  3  1  1  0  0  0  0
  4  1  1  0  0  0  0
  5  7  1  0  0  0  0
  6 10  1  0  0  0  0
  6  5  1  0  0  0  0
  7  4  1  0  0  0  0
  8  3  1  0  0  0  0
  8  9  2  0  0  0  0
  9  2  1  0  0  0  0
 10  4  1  0  0  0  0
 11  5  1  0  0  0  0
 12 15  1  0  0  0  0
 13 12  3  0  0  0  0
 14  6  2  0  0  0  0
 15  3  1  0  0  0  0
 16 11  1  0  0  0  0
 17 11  2  0  0  0  0
 18 19  2  0  0  0  0
 19 17  1  0  0  0  0
 20 16  2  0  0  0  0
 20 18  1  0  0  0  0
 21 18  1  0  0  0  0
 22  8  1  0  0  0  0
 23  9  1  0  0  0  0
 24 22  2  0  0  0  0
 25 23  2  0  0  0  0
 25 24  1  0  0  0  0
M  END
>  <CdId>
2229

>  <Mol Weight>
394.265

>  <Formula>
C20H16BrN3O

>  <Click_ID>
CLK029G05 __  __  __

$$$$
CLK030H08 __  __  __
 OpenBabel03171413512D

 26 28  0  0  0  0  0  0  0  0999 V2000
   -1.1649    2.3882    0.0000 C   0  0  0  0  0  0  0  0  0  0  0  0
   -0.3382    2.3799    0.0000 N   0  0  0  0  0  0  0  0  0  0  0  0
   -4.5928    3.2192    0.0000 S   0  0  0  0  0  0  0  0  0  0  0  0
   -1.6492    1.7244    0.0000 N   0  0  0  0  0  0  0  0  0  0  0  0
   -1.6492    3.0563    0.0000 S   0  0  0  0  0  0  0  0  0  0  0  0
    0.0752    3.0939    0.0000 C   0  0  0  0  0  0  0  0  0  0  0  0
   -2.4383    2.8016    0.0000 C   0  0  0  0  0  0  0  0  0  0  0  0
   -2.4383    1.9749    0.0000 C   0  0  0  0  0  0  0  0  0  0  0  0
    0.9019    3.0939    0.0000 C   0  0  0  0  0  0  0  0  0  0  0  0
   -3.8663    2.8016    0.0000 C   0  0  0  0  0  0  0  0  0  0  0  0
   -3.1523    3.2149    0.0000 C   0  0  0  0  0  0  0  0  0  0  0  0
   -1.9498    0.3215    0.0000 C   0  0  0  0  0  0  0  0  0  0  0  0
   -3.1523    1.5615    0.0000 C   0  0  0  0  0  0  0  0  0  0  0  0
   -2.5010   -0.2923    0.0000 C   0  0  0  0  0  0  0  0  0  0  0  0
   -5.0312    2.5135    0.0000 O   0  0  0  0  0  0  0  0  0  0  0  0
   -4.1544    3.9164    0.0000 O   0  0  0  0  0  0  0  0  0  0  0  0
    1.3152    2.3882    0.0000 C   0  0  0  0  0  0  0  0  0  0  0  0
   -0.3382    3.8079    0.0000 O   0  0  0  0  0  0  0  0  0  0  0  0
   -5.2942    3.6534    0.0000 N   0  0  0  0  0  0  0  0  0  0  0  0
   -3.8663    1.9749    0.0000 C   0  0  0  0  0  0  0  0  0  0  0  0
   -1.3987    0.9352    0.0000 C   0  0  0  0  0  0  0  0  0  0  0  0
    0.8810    1.6617    0.0000 Cl  0  0  0  0  0  0  0  0  0  0  0  0
    1.3194    3.8079    0.0000 C   0  0  0  0  0  0  0  0  0  0  0  0
    2.1336    2.3799    0.0000 C   0  0  0  0  0  0  0  0  0  0  0  0
    2.1461    3.8037    0.0000 C   0  0  0  0  0  0  0  0  0  0  0  0
    2.5553    3.0897    0.0000 C   0  0  0  0  0  0  0  0  0  0  0  0
  2  1  2  0  0  0  0
  3 10  1  0  0  0  0
  4  1  1  0  0  0  0
  5  1  1  0  0  0  0
  6  2  1  0  0  0  0
  7  5  1  0  0  0  0
  7  8  2  0  0  0  0
  8  4  1  0  0  0  0
  9  6  1  0  0  0  0
 10 11  2  0  0  0  0
 10 20  1  0  0  0  0
 11  7  1  0  0  0  0
 12 21  1  0  0  0  0
 13  8  1  0  0  0  0
 14 12  3  0  0  0  0
 15  3  2  0  0  0  0
 16  3  2  0  0  0  0
 17  9  2  0  0  0  0
 18  6  2  0  0  0  0
 19  3  1  0  0  0  0
 20 13  2  0  0  0  0
 21  4  1  0  0  0  0
 22 17  1  0  0  0  0
 23  9  1  0  0  0  0
 24 17  1  0  0  0  0
 25 23  2  0  0  0  0
 26 25  1  0  0  0  0
 26 24  2  0  0  0  0
M  END
>  <CdId>
2322

>  <Mol Weight>
405.878

>  <Formula>
C17H12ClN3O3S2

>  <Click_ID>
CLK030H08 __  __  __

$$$$
CLK031C05 __  __  __
 OpenBabel03171413512D

 29 31  0  0  0  0  0  0  0  0999 V2000
   -1.1625    2.3833    0.0000 C   0  0  0  0  0  0  0  0  0  0  0  0
   -4.5833    3.2125    0.0000 S   0  0  0  0  0  0  0  0  0  0  0  0
   -1.6458    1.7208    0.0000 N   0  0  0  0  0  0  0  0  0  0  0  0
   -0.3375    2.3750    0.0000 N   0  0  0  0  0  0  0  0  0  0  0  0
   -1.6458    3.0500    0.0000 S   0  0  0  0  0  0  0  0  0  0  0  0
   -2.4333    2.7958    0.0000 C   0  0  0  0  0  0  0  0  0  0  0  0
   -2.4333    1.9708    0.0000 C   0  0  0  0  0  0  0  0  0  0  0  0
   -3.8583    2.7958    0.0000 C   0  0  0  0  0  0  0  0  0  0  0  0
   -3.1458    3.2083    0.0000 C   0  0  0  0  0  0  0  0  0  0  0  0
    0.0750    3.0875    0.0000 C   0  0  0  0  0  0  0  0  0  0  0  0
   -1.9458    0.3208    0.0000 C   0  0  0  0  0  0  0  0  0  0  0  0
   -3.1458    1.5583    0.0000 C   0  0  0  0  0  0  0  0  0  0  0  0
    1.3167    5.2167    0.0000 C   0  0  0  0  0  0  0  0  0  0  0  0
   -2.4958   -0.2917    0.0000 C   0  0  0  0  0  0  0  0  0  0  0  0
   -5.0208    2.5083    0.0000 O   0  0  0  0  0  0  0  0  0  0  0  0
   -4.1458    3.9083    0.0000 O   0  0  0  0  0  0  0  0  0  0  0  0
    0.9042    5.9417    0.0000 C   0  0  0  0  0  0  0  0  0  0  0  0
    0.9042    4.5042    0.0000 C   0  0  0  0  0  0  0  0  0  0  0  0
   -5.2833    3.6458    0.0000 N   0  0  0  0  0  0  0  0  0  0  0  0
   -3.8583    1.9708    0.0000 C   0  0  0  0  0  0  0  0  0  0  0  0
    1.3125    3.7958    0.0000 O   0  0  0  0  0  0  0  0  0  0  0  0
   -1.3958    0.9333    0.0000 C   0  0  0  0  0  0  0  0  0  0  0  0
   -0.3375    3.8000    0.0000 O   0  0  0  0  0  0  0  0  0  0  0  0
    0.0750    4.5125    0.0000 C   0  0  0  0  0  0  0  0  0  0  0  0
    0.0792    5.9500    0.0000 C   0  0  0  0  0  0  0  0  0  0  0  0
    0.9000    3.0875    0.0000 C   0  0  0  0  0  0  0  0  0  0  0  0
    2.1542    5.2167    0.0000 Cl  0  0  0  0  0  0  0  0  0  0  0  0
   -0.3375    5.2292    0.0000 C   0  0  0  0  0  0  0  0  0  0  0  0
   -0.3333    6.6667    0.0000 Cl  0  0  0  0  0  0  0  0  0  0  0  0
  2  8  1  0  0  0  0
  3  1  1  0  0  0  0
  4  1  2  0  0  0  0
  5  1  1  0  0  0  0
  6  5  1  0  0  0  0
  6  7  2  0  0  0  0
  7  3  1  0  0  0  0
  8  9  2  0  0  0  0
  8 20  1  0  0  0  0
  9  6  1  0  0  0  0
 10  4  1  0  0  0  0
 11 22  1  0  0  0  0
 12  7  1  0  0  0  0
 13 18  2  0  0  0  0
 14 11  3  0  0  0  0
 15  2  2  0  0  0  0
 16  2  2  0  0  0  0
 17 13  1  0  0  0  0
 18 21  1  0  0  0  0
 19  2  1  0  0  0  0
 20 12  2  0  0  0  0
 21 26  1  0  0  0  0
 22  3  1  0  0  0  0
 23 10  2  0  0  0  0
 24 18  1  0  0  0  0
 25 28  1  0  0  0  0
 25 17  2  0  0  0  0
 26 10  1  0  0  0  0
 27 13  1  0  0  0  0
 28 24  2  0  0  0  0
 29 25  1  0  0  0  0
M  END
>  <CdId>
2349

>  <Mol Weight>
470.35

>  <Formula>
C18H13Cl2N3O4S2

>  <Click_ID>
CLK031C05 __  __  __

$$$$
CLK032B10 __  __  __
 OpenBabel03171413512D

 19 21  0  0  0  0  0  0  0  0999 V2000
   -1.8964    2.1589    0.0000 C   0  0  0  0  0  0  0  0  0  0  0  0
   -1.0711    2.1589    0.0000 N   0  0  0  0  0  0  0  0  0  0  0  0
   -2.3756    2.8215    0.0000 N   0  0  0  0  0  0  0  0  0  0  0  0
   -2.3756    1.4837    0.0000 S   0  0  0  0  0  0  0  0  0  0  0  0
   -3.1634    2.5590    0.0000 C   0  0  0  0  0  0  0  0  0  0  0  0
   -0.6585    1.4462    0.0000 C   0  0  0  0  0  0  0  0  0  0  0  0
   -3.1592    1.7337    0.0000 C   0  0  0  0  0  0  0  0  0  0  0  0
    0.1667    1.4462    0.0000 C   0  0  0  0  0  0  0  0  0  0  0  0
    0.8795    1.0378    0.0000 C   0  0  0  0  0  0  0  0  0  0  0  0
    0.8795    1.8589    0.0000 C   0  0  0  0  0  0  0  0  0  0  0  0
   -1.3211    3.7718    0.0000 C   0  0  0  0  0  0  0  0  0  0  0  0
   -0.5209    3.9468    0.0000 C   0  0  0  0  0  0  0  0  0  0  0  0
   -3.8760    2.9841    0.0000 C   0  0  0  0  0  0  0  0  0  0  0  0
   -1.0628    0.7252    0.0000 O   0  0  0  0  0  0  0  0  0  0  0  0
   -2.1256    3.6093    0.0000 C   0  0  0  0  0  0  0  0  0  0  0  0
   -3.8760    3.8010    0.0000 F   0  0  0  0  0  0  0  0  0  0  0  0
   -3.8760    1.3254    0.0000 C   0  0  0  0  0  0  0  0  0  0  0  0
   -4.5846    1.7337    0.0000 C   0  0  0  0  0  0  0  0  0  0  0  0
   -4.5846    2.5590    0.0000 C   0  0  0  0  0  0  0  0  0  0  0  0
  2  1  2  0  0  0  0
  3  1  1  0  0  0  0
  4  1  1  0  0  0  0
  5  3  1  0  0  0  0
  6  2  1  0  0  0  0
  7  4  1  0  0  0  0
  7  5  2  0  0  0  0
  8  6  1  0  0  0  0
  9  8  1  0  0  0  0
 10  8  1  0  0  0  0
 10  9  1  0  0  0  0
 11 15  1  0  0  0  0
 12 11  3  0  0  0  0
 13  5  1  0  0  0  0
 14  6  2  0  0  0  0
 15  3  1  0  0  0  0
 16 13  1  0  0  0  0
 17  7  1  0  0  0  0
 18 17  2  0  0  0  0
 18 19  1  0  0  0  0
 19 13  2  0  0  0  0
M  END
>  <CdId>
2424

>  <Mol Weight>
274.313

>  <Formula>
C14H11FN2OS

>  <Click_ID>
CLK032B10 __  __  __

$$$$
CLK034A08 __  __  __
 OpenBabel03171413512D

 28 31  0  0  0  0  0  0  0  0999 V2000
   -3.1583    5.0542    0.0000 N   0  0  0  0  0  0  0  0  0  0  0  0
   -4.5833    2.5500    0.0000 C   0  0  0  0  0  0  0  0  0  0  0  0
   -2.4958    5.5292    0.0000 C   0  0  0  0  0  0  0  0  0  0  0  0
   -3.8125    5.5292    0.0000 C   0  0  0  0  0  0  0  0  0  0  0  0
   -4.6750    1.7333    0.0000 N   0  0  0  0  0  0  0  0  0  0  0  0
   -3.8708    2.9708    0.0000 N   0  0  0  0  0  0  0  0  0  0  0  0
   -5.3208    2.8958    0.0000 S   0  0  0  0  0  0  0  0  0  0  0  0
   -5.4833    1.5708    0.0000 C   0  0  0  0  0  0  0  0  0  0  0  0
   -2.7375    6.3125    0.0000 C   0  0  0  0  0  0  0  0  0  0  0  0
   -3.5625    6.3167    0.0000 C   0  0  0  0  0  0  0  0  0  0  0  0
   -5.8833    2.2958    0.0000 C   0  0  0  0  0  0  0  0  0  0  0  0
   -3.8708    3.8000    0.0000 C   0  0  0  0  0  0  0  0  0  0  0  0
   -3.1583    4.2125    0.0000 C   0  0  0  0  0  0  0  0  0  0  0  0
   -4.2458    0.3500    0.0000 C   0  0  0  0  0  0  0  0  0  0  0  0
   -4.4208   -0.4542    0.0000 C   0  0  0  0  0  0  0  0  0  0  0  0
   -1.7208    5.2667    0.0000 O   0  0  0  0  0  0  0  0  0  0  0  0
   -4.6125    5.2792    0.0000 O   0  0  0  0  0  0  0  0  0  0  0  0
   -5.9083    0.8708    0.0000 C   0  0  0  0  0  0  0  0  0  0  0  0
   -4.5958    4.2125    0.0000 O   0  0  0  0  0  0  0  0  0  0  0  0
   -4.0583    1.1583    0.0000 C   0  0  0  0  0  0  0  0  0  0  0  0
   -5.5083    0.1458    0.0000 Cl  0  0  0  0  0  0  0  0  0  0  0  0
   -6.7042    2.3083    0.0000 C   0  0  0  0  0  0  0  0  0  0  0  0
   -2.3208    7.0292    0.0000 C   0  0  0  0  0  0  0  0  0  0  0  0
   -3.9708    7.0292    0.0000 C   0  0  0  0  0  0  0  0  0  0  0  0
   -7.1292    1.6000    0.0000 C   0  0  0  0  0  0  0  0  0  0  0  0
   -6.7167    0.8750    0.0000 C   0  0  0  0  0  0  0  0  0  0  0  0
   -3.5500    7.7417    0.0000 C   0  0  0  0  0  0  0  0  0  0  0  0
   -2.7250    7.7417    0.0000 C   0  0  0  0  0  0  0  0  0  0  0  0
  2  6  2  0  0  0  0
  3  1  1  0  0  0  0
  4  1  1  0  0  0  0
  5  2  1  0  0  0  0
  6 12  1  0  0  0  0
  7  2  1  0  0  0  0
  8  5  1  0  0  0  0
  9  3  1  0  0  0  0
  9 10  2  0  0  0  0
 10  4  1  0  0  0  0
 11  7  1  0  0  0  0
 11  8  2  0  0  0  0
 12 13  1  0  0  0  0
 13  1  1  0  0  0  0
 14 20  1  0  0  0  0
 15 14  3  0  0  0  0
 16  3  2  0  0  0  0
 17  4  2  0  0  0  0
 18  8  1  0  0  0  0
 19 12  2  0  0  0  0
 20  5  1  0  0  0  0
 21 18  1  0  0  0  0
 22 11  1  0  0  0  0
 23  9  1  0  0  0  0
 24 10  1  0  0  0  0
 25 22  2  0  0  0  0
 26 18  2  0  0  0  0
 26 25  1  0  0  0  0
 27 24  2  0  0  0  0
 28 23  2  0  0  0  0
 28 27  1  0  0  0  0
M  END
>  <CdId>
2572

>  <Mol Weight>
409.846

>  <Formula>
C20H12ClN3O3S

>  <Click_ID>
CLK034A08 __  __  __

$$$$
CLK034E07 __  __  __
 OpenBabel03171413512D

 27 30  0  0  0  0  0  0  0  0999 V2000
   -4.5833    2.5500    0.0000 C   0  0  0  0  0  0  0  0  0  0  0  0
   -3.1583    4.2125    0.0000 C   0  0  0  0  0  0  0  0  0  0  0  0
   -3.8708    2.9708    0.0000 N   0  0  0  0  0  0  0  0  0  0  0  0
   -4.6750    1.7333    0.0000 N   0  0  0  0  0  0  0  0  0  0  0  0
   -3.8708    3.8000    0.0000 C   0  0  0  0  0  0  0  0  0  0  0  0
   -2.4458    3.8083    0.0000 C   0  0  0  0  0  0  0  0  0  0  0  0
   -5.3208    2.8958    0.0000 S   0  0  0  0  0  0  0  0  0  0  0  0
   -5.4833    1.5708    0.0000 C   0  0  0  0  0  0  0  0  0  0  0  0
   -3.1500    5.0417    0.0000 C   0  0  0  0  0  0  0  0  0  0  0  0
   -5.8833    2.2958    0.0000 C   0  0  0  0  0  0  0  0  0  0  0  0
   -1.7333    4.2125    0.0000 O   0  0  0  0  0  0  0  0  0  0  0  0
   -2.4458    5.4542    0.0000 C   0  0  0  0  0  0  0  0  0  0  0  0
   -1.7333    5.0417    0.0000 C   0  0  0  0  0  0  0  0  0  0  0  0
   -4.2458    0.3500    0.0000 C   0  0  0  0  0  0  0  0  0  0  0  0
   -4.4208   -0.4542    0.0000 C   0  0  0  0  0  0  0  0  0  0  0  0
   -5.9083    0.8708    0.0000 C   0  0  0  0  0  0  0  0  0  0  0  0
   -2.4375    2.9625    0.0000 O   0  0  0  0  0  0  0  0  0  0  0  0
   -4.5958    4.2125    0.0000 O   0  0  0  0  0  0  0  0  0  0  0  0
   -4.0583    1.1583    0.0000 C   0  0  0  0  0  0  0  0  0  0  0  0
   -5.5083    0.1458    0.0000 Cl  0  0  0  0  0  0  0  0  0  0  0  0
   -6.7042    2.3083    0.0000 C   0  0  0  0  0  0  0  0  0  0  0  0
   -7.1292    1.6000    0.0000 C   0  0  0  0  0  0  0  0  0  0  0  0
   -2.4458    6.2792    0.0000 C   0  0  0  0  0  0  0  0  0  0  0  0
   -1.0125    5.4542    0.0000 C   0  0  0  0  0  0  0  0  0  0  0  0
   -6.7167    0.8750    0.0000 C   0  0  0  0  0  0  0  0  0  0  0  0
   -1.7333    6.7042    0.0000 C   0  0  0  0  0  0  0  0  0  0  0  0
   -1.0208    6.2792    0.0000 C   0  0  0  0  0  0  0  0  0  0  0  0
  2  5  1  0  0  0  0
  3  1  2  0  0  0  0
  4  1  1  0  0  0  0
  5  3  1  0  0  0  0
  6  2  1  0  0  0  0
  7  1  1  0  0  0  0
  8  4  1  0  0  0  0
  9  2  2  0  0  0  0
 10  7  1  0  0  0  0
 10  8  2  0  0  0  0
 11  6  1  0  0  0  0
 11 13  1  0  0  0  0
 12  9  1  0  0  0  0
 13 12  2  0  0  0  0
 14 19  1  0  0  0  0
 15 14  3  0  0  0  0
 16  8  1  0  0  0  0
 17  6  2  0  0  0  0
 18  5  2  0  0  0  0
 19  4  1  0  0  0  0
 20 16  1  0  0  0  0
 21 10  1  0  0  0  0
 22 21  2  0  0  0  0
 23 12  1  0  0  0  0
 24 13  1  0  0  0  0
 24 27  2  0  0  0  0
 25 16  2  0  0  0  0
 25 22  1  0  0  0  0
 26 23  2  0  0  0  0
 27 26  1  0  0  0  0
M  END
>  <CdId>
2611

>  <Mol Weight>
394.831

>  <Formula>
C20H11ClN2O3S

>  <Click_ID>
CLK034E07 __  __  __

$$$$
CLK036H06 __  __  __
 OpenBabel03171413512D

 19 20  0  0  0  0  0  0  0  0999 V2000
   -0.6397    2.3586    0.0000 C   0  0  0  0  0  0  0  0  0  0  0  0
   -0.0322    2.7196    0.0000 S   0  0  0  0  0  0  0  0  0  0  0  0
   -0.6397    1.6510    0.0000 N   0  0  0  0  0  0  0  0  0  0  0  0
    0.5825    2.3586    0.0000 C   0  0  0  0  0  0  0  0  0  0  0  0
    0.5825    1.6510    0.0000 N   0  0  0  0  0  0  0  0  0  0  0  0
   -1.4902    2.5480    0.0000 N   0  0  0  0  0  0  0  0  0  0  0  0
   -2.1978    2.5587    0.0000 C   0  0  0  0  0  0  0  0  0  0  0  0
    1.7404    1.2544    0.0000 C   0  0  0  0  0  0  0  0  0  0  0  0
    1.6010    0.4467    0.0000 C   0  0  0  0  0  0  0  0  0  0  0  0
   -3.0734    2.5480    0.0000 N   0  0  0  0  0  0  0  0  0  0  0  0
   -2.2049    3.2592    0.0000 O   0  0  0  0  0  0  0  0  0  0  0  0
    1.2651    2.6016    0.0000 S   0  0  0  0  0  0  0  0  0  0  0  0
   -3.4915    3.2663    0.0000 C   0  0  0  0  0  0  0  0  0  0  0  0
    1.8905    2.0692    0.0000 C   0  0  0  0  0  0  0  0  0  0  0  0
   -3.0841    3.9704    0.0000 C   0  0  0  0  0  0  0  0  0  0  0  0
   -4.3170    3.2592    0.0000 C   0  0  0  0  0  0  0  0  0  0  0  0
   -4.7351    3.9704    0.0000 C   0  0  0  0  0  0  0  0  0  0  0  0
   -3.5022    4.6887    0.0000 C   0  0  0  0  0  0  0  0  0  0  0  0
   -4.3206    4.6887    0.0000 C   0  0  0  0  0  0  0  0  0  0  0  0
  2  1  1  0  0  0  0
  3  1  2  0  0  0  0
  4  2  1  0  0  0  0
  5  3  1  0  0  0  0
  5  4  2  0  0  0  0
  6  1  1  0  0  0  0
  7  6  1  0  0  0  0
  8 14  1  0  0  0  0
  9  8  3  0  0  0  0
 10  7  1  0  0  0  0
 11  7  2  0  0  0  0
 12  4  1  0  0  0  0
 13 10  1  0  0  0  0
 14 12  1  0  0  0  0
 15 13  1  0  0  0  0
 16 13  2  0  0  0  0
 17 16  1  0  0  0  0
 18 15  2  0  0  0  0
 18 19  1  0  0  0  0
 19 17  2  0  0  0  0
M  END
>  <CdId>
2768

>  <Mol Weight>
290.364

>  <Formula>
C12H10N4OS2

>  <Click_ID>
CLK036H06 __  __  __

$$$$
